data_PCOD9572131
_publ_section_title
;
Structure prediction by ZEFSAII (Michael W. Deem and Ramdas Pophale) SiO2 
 PCOD9572131
Probable space group: I 4/M C M
;
_chemical_formula_sum "Si O2"
_cell_formula_units_Z 192
_cell_length_a 21.495821
_cell_length_b 21.495821
_cell_length_c 25.136102
_cell_angle_alpha 90.000000
_cell_angle_beta 90.000000
_cell_angle_gamma 90.000000
_cell_volume 11614.646706
_symmetry_space_group_name_H-M "I 4/M C M"
_symmetry_group_IT_number 140
_symmetry_cell_setting 'tetragonal'
loop_
_space_group_symop_operation_xyz
x,y,z
-y,x,z
-x,-y,z
y,-x,z
x,-y,1/2-z
-x,y,1/2-z
y,x,1/2-z
-y,-x,1/2-z
-x,-y,-z
y,-x,-z
x,y,-z
-y,x,-z
-x,y,1/2+z
x,-y,1/2+z
-y,-x,1/2+z
y,x,1/2+z
1/2+x,1/2+y,1/2+z
1/2-y,1/2+x,1/2+z
1/2-x,1/2-y,1/2+z
1/2+y,1/2-x,1/2+z
1/2+x,1/2-y,-z
1/2-x,1/2+y,-z
1/2+y,1/2+x,-z
1/2-y,1/2-x,-z
1/2-x,1/2-y,1/2-z
1/2+y,1/2-x,1/2-z
1/2+x,1/2+y,1/2-z
1/2-y,1/2+x,1/2-z
1/2-x,1/2+y,z
1/2+x,1/2-y,z
1/2-y,1/2-x,z
1/2+y,1/2+x,z
loop_
_atom_site_type_symbol
_atom_site_label
_atom_site_fract_x
_atom_site_fract_y
_atom_site_fract_z
Si Si1 0.436720 0.834455 0.939534
Si Si2 0.149360 0.249071 0.769766
Si Si3 0.046483 0.093562 0.062110
Si Si4 0.002557 0.397862 0.841954
Si Si5 0.764872 0.464239 0.800791
Si Si6 0.062023 0.213446 0.870324
O O1 0.372310 0.872310 0.938901
O O2 0.482302 0.874116 0.901464
O O3 0.427609 0.767409 0.913549
O O4 0.459148 0.830693 0.000000
O O5 0.195181 0.195181 0.750000
O O6 0.190843 0.309158 0.784387
O O7 0.106082 0.264737 0.718809
O O8 0.108016 0.227541 0.820485
O O9 0.068430 0.146677 0.102475
O O10 0.972787 0.080266 0.069671
O O11 0.055375 0.111951 0.000000
O O12 0.945374 0.445374 0.840362
O O13 0.987884 0.335218 0.810334
O O14 0.063285 0.436716 0.822917
O O15 0.738109 0.500000 0.750000
O O16 0.724992 0.491064 0.849456
#
# Coordination Sequence:
#
# PCOD9572131 Si02
#       6
#    32  32  32  32  32  32
#     4   9  17  29  46  71 101 130 165 206 244 288
#     4  10  21  35  51  72 101 136 173 208 244 291
#     4   9  19  35  55  80 104 126 157 202 258 312
#     4   9  17  28  44  68  97 131 168 205 250 298
#     4   9  19  32  47  70  96 131 169 211 247 289
#     4  10  19  32  54  74  99 130 168 204 250 294
#
# _framework density 16.530850999999998
#
# number of rings (size 3 to 8) (size 9 to 14) (size 15 to 20)
#    0.000    2.667    0.000    2.000    2.333    5.000 
#    0.000    2.500    0.000    0.000    0.000    0.000 
#    0.000    0.000    0.000    0.000    0.000    0.000 
#
# Total GULP energy -534449.091574 kJ/mol
# GULP energy per Si atom -5567.178037 kJ/mol
# Density = 1.649323 g / cm^3
# Si number density = 16.530851 Si / 1000 Ang^3
#
#
#
# Elastic Constant Matrix: (Units=GPa)
#
#
# Indices 1 2 3 4 5 6 
#
# 1 58.2806 9.5485 25.1730 0.0000 0.0000 0.0000
# 2 9.5485 58.2806 25.1730 0.0000 0.0000 0.0000
# 3 25.1730 25.1730 76.2052 0.0000 0.0000 0.0000
# 4 0.0000 0.0000 0.0000 21.8672 0.0000 0.0000
# 5 0.0000 0.0000 0.0000 0.0000 21.8673 0.0000
# 6 0.0000 0.0000 0.0000 0.0000 0.0000 14.9916
#
#
#
# Elastic Compliance Matrix: (Units=1/GPa)
#
#
# Indices 1 2 3 4 5 6 
#
# 1 0.020026 -0.000494 -0.006452 0.000000 0.000000 0.000000
# 2 -0.000494 0.020026 -0.006452 0.000000 0.000000 0.000000
# 3 -0.006452 -0.006452 0.017385 0.000000 0.000000 0.000000
# 4 0.000000 0.000000 0.000000 0.045730 0.000000 0.000000
# 5 0.000000 0.000000 0.000000 0.000000 0.045730 0.000000
# 6 0.000000 0.000000 0.000000 0.000000 0.000000 0.066704
#
#
# Mechanical properties :
#
#
# Convention : Reuss Voigt Hill
#
# Bulk Modulus (GPa) = 32.63615 34.72838 33.68226
# Shear Modulus (GPa) = 19.79316 20.60335 20.19825
#
# Velocity S-wave (km/s) = 3.46402 3.53421 3.49929
# Velocity P-wave (km/s) = 5.98203 6.14068 6.06188
#
# Compressibility (1/GPa) = 0.03064087
#
# Stress axis : x y z
#
# Youngs Moduli (GPa) = 49.93474 49.93474 57.52063
#
# Poissons Ratio (x) = 0.02468 0.37112
# Poissons Ratio (y) = 0.02468 0.37112
# Poissons Ratio (z) = 0.32218 0.32218
#
# Static dielectric constant tensor:
#      x y z
#    x 1.562140 0.000000 0.000000 
#    y 0.000000 1.562140 0.000000 
#    z 0.000000 0.000000 1.562750 
# 
# From -- ./inp_files/9756.got.cif
#   From: 2010.05.17/outbox.cif.g08.bks.cpg/sg140_5_cif.got.tgz:9756.got - 2010.06.21 00:45:31.
