data_PCOD9572791
_publ_section_title
;
Structure prediction by ZEFSAII (Michael W. Deem and Ramdas Pophale) SiO2 
 PCOD9572791
Probable space group: I 41/A M D
;
_chemical_formula_sum "Si O2"
_cell_formula_units_Z 84
_cell_length_a 26.331450
_cell_length_b 26.331450
_cell_length_c 7.714700
_cell_angle_alpha 90.000000
_cell_angle_beta 90.000000
_cell_angle_gamma 90.000000
_cell_volume 5348.950670
_symmetry_space_group_name_H-M "I 41/A M D"
_symmetry_group_IT_number 141
_space_group.IT_coordinate_system_code '2'
_symmetry_cell_setting 'tetragonal'
loop_
_space_group_symop_operation_xyz
x,y,z
1/4-y,3/4+x,1/4+z
-x,1/2-y,z
1/4+y,1/4-x,3/4+z
x,-y,-z
-x,1/2+y,-z
1/4+y,3/4+x,1/4-z
1/4-y,1/4-x,3/4-z
-x,-y,-z
3/4+y,1/4-x,3/4-z
x,1/2+y,-z
3/4-y,3/4+x,1/4-z
-x,y,z
x,1/2-y,z
3/4-y,1/4-x,3/4+z
3/4+y,3/4+x,1/4+z
1/2+x,1/2+y,1/2+z
3/4-y,1/4+x,3/4+z
1/2-x,-y,1/2+z
3/4+y,3/4-x,1/4+z
1/2+x,1/2-y,1/2-z
1/2-x,y,1/2-z
3/4+y,1/4+x,3/4-z
3/4-y,3/4-x,1/4-z
1/2-x,1/2-y,1/2-z
1/4+y,3/4-x,1/4-z
1/2+x,y,1/2-z
1/4-y,1/4+x,3/4-z
1/2-x,1/2+y,1/2+z
1/2+x,-y,1/2+z
1/4-y,3/4-x,1/4+z
1/4+y,1/4+x,3/4+z
loop_
_atom_site_type_symbol
_atom_site_label
_atom_site_fract_x
_atom_site_fract_y
_atom_site_fract_z
Si Si1 0.402982 0.847019 0.375000
Si Si2 0.500000 0.653200 0.125973
Si Si3 0.500000 0.552730 0.896564
Si Si4 0.000000 0.750000 0.625000
Si Si5 0.441784 0.444694 0.443337
O O1 0.450095 0.843568 0.243998
O O2 0.409060 0.899019 0.482173
O O3 0.500000 0.600283 0.023139
O O4 0.500000 0.700031 0.993390
O O5 0.452396 0.556189 0.762806
O O6 0.500000 0.500000 0.000000
O O7 0.423159 0.500000 0.500000
O O8 0.500000 0.439375 0.517055
#
# Coordination Sequence:
#
# PCOD9572791 Si02
#       5
#    16  16  16   4  32
#     4  12  20  35  52  74 108 143 182 214 271 326
#     4  12  22  32  46  74 106 146 166 216 258 322
#     4  10  18  34  54  74 104 140 184 226 258 312
#     4  12  24  30  40  68 116 138 172 196 268 334
#     4   9  19  36  53  78 103 141 180 218 268 316
#
# _framework density 15.704015
#
# number of rings (size 3 to 8) (size 9 to 14) (size 15 to 20)
#    1.143    0.381    1.905    5.714    0.000    0.000 
#    0.000    0.000    0.000    0.000    0.000    8.000 
#    0.000    0.000    0.000    0.000    0.000    0.000 
#
# Total GULP energy -234103.431957 kJ/mol
# GULP energy per Si atom -5573.891237 kJ/mol
# Density = 1.566827 g / cm^3
# Si number density = 15.704015 Si / 1000 Ang^3
#
#
#
# Elastic Constant Matrix: (Units=GPa)
#
#
# Indices 1 2 3 4 5 6 
#
# 1 133.4399 62.4940 76.8178 0.0000 0.0000 0.0000
# 2 62.4940 133.4403 76.8166 0.0000 0.0000 0.0000
# 3 76.8178 76.8166 134.2513 0.0000 0.0000 0.0000
# 4 0.0000 0.0000 0.0000 25.8508 0.0000 0.0000
# 5 0.0000 0.0000 0.0000 0.0000 25.8508 0.0000
# 6 0.0000 0.0000 0.0000 0.0000 0.0000 12.1162
#
#
#
# Elastic Compliance Matrix: (Units=1/GPa)
#
#
# Indices 1 2 3 4 5 6 
#
# 1 0.011676 -0.002419 -0.005297 0.000000 0.000000 0.000000
# 2 -0.002419 0.011676 -0.005297 0.000000 0.000000 0.000000
# 3 -0.005297 -0.005297 0.013510 0.000000 0.000000 0.000000
# 4 0.000000 0.000000 0.000000 0.038684 0.000000 0.000000
# 5 0.000000 0.000000 0.000000 0.000000 0.038684 0.000000
# 6 0.000000 0.000000 0.000000 0.000000 0.000000 0.082534
#
#
# Mechanical properties :
#
#
# Convention : Reuss Voigt Hill
#
# Bulk Modulus (GPa) = 92.27483 92.59869 92.43676
# Shear Modulus (GPa) = 22.08470 25.09710 23.59090
#
# Velocity S-wave (km/s) = 3.75415 4.00200 3.88005
# Velocity P-wave (km/s) = 8.81350 8.96926 8.89172
#
# Compressibility (1/GPa) = 0.01083719
#
# Stress axis : x y z
#
# Youngs Moduli (GPa) = 85.64407 85.64569 74.01791
#
# Poissons Ratio (x) = 0.20718 0.39207
# Poissons Ratio (y) = 0.20718 0.39205
# Poissons Ratio (z) = 0.45365 0.45364
#
# Static dielectric constant tensor:
#      x y z
#    x 1.503860 0.000000 0.000000 
#    y 0.000000 1.503860 0.000000 
#    z 0.000000 0.000000 1.547850 
# 
# From -- ./inp_files/2428.got.cif
#   From: 2010.05.17/outbox.cif.g08.bks.cpg/sg141_2_cif.got.tgz:2428.got - 2010.05.20 13:30:51.
