data_PCOD9572278
_publ_section_title
;
Structure prediction by ZEFSAII (Michael W. Deem and Ramdas Pophale) SiO2 
 PCOD9572278
Probable space group: I 4/M C M
;
_chemical_formula_sum "Si O2"
_cell_formula_units_Z 160
_cell_length_a 22.047550
_cell_length_b 22.047550
_cell_length_c 14.989911
_cell_angle_alpha 90.000000
_cell_angle_beta 90.000000
_cell_angle_gamma 90.000000
_cell_volume 7286.512708
_symmetry_space_group_name_H-M "I 4/M C M"
_symmetry_group_IT_number 140
_symmetry_cell_setting 'tetragonal'
loop_
_space_group_symop_operation_xyz
x,y,z
-y,x,z
-x,-y,z
y,-x,z
x,-y,1/2-z
-x,y,1/2-z
y,x,1/2-z
-y,-x,1/2-z
-x,-y,-z
y,-x,-z
x,y,-z
-y,x,-z
-x,y,1/2+z
x,-y,1/2+z
-y,-x,1/2+z
y,x,1/2+z
1/2+x,1/2+y,1/2+z
1/2-y,1/2+x,1/2+z
1/2-x,1/2-y,1/2+z
1/2+y,1/2-x,1/2+z
1/2+x,1/2-y,-z
1/2-x,1/2+y,-z
1/2+y,1/2+x,-z
1/2-y,1/2-x,-z
1/2-x,1/2-y,1/2-z
1/2+y,1/2-x,1/2-z
1/2+x,1/2+y,1/2-z
1/2-y,1/2+x,1/2-z
1/2-x,1/2+y,z
1/2+x,1/2-y,z
1/2-y,1/2-x,z
1/2+y,1/2+x,z
loop_
_atom_site_type_symbol
_atom_site_label
_atom_site_fract_x
_atom_site_fract_y
_atom_site_fract_z
Si Si1 0.979685 0.384729 0.391271
Si Si2 0.377635 0.786545 0.107109
Si Si3 0.157357 0.073892 0.645765
Si Si4 0.809152 0.596428 0.391909
Si Si5 0.061880 0.169644 0.643810
O O1 0.983433 0.389030 0.500000
O O2 0.948299 0.448299 0.361818
O O3 0.931197 0.332615 0.367439
O O4 0.043641 0.356474 0.361263
O O5 0.315153 0.815153 0.139685
O O6 0.391032 0.720011 0.136605
O O7 0.377235 0.786673 0.000000
O O8 0.106322 0.117923 0.606346
O O9 0.152746 0.062954 0.751631
O O10 0.163615 0.006259 0.607092
O O11 0.808658 0.594150 0.500000
O O12 0.839679 0.660322 0.365061
O O13 0.739654 0.583682 0.364507
#
# Coordination Sequence:
#
# PCOD9572278 Si02
#       5
#    32  32  32  32  32
#     4   8  14  27  49  77 107 139 175 212 253 302
#     4   9  17  31  55  83 107 137 175 212 255 311
#     4  10  21  38  58  78 105 136 176 225 270 322
#     4  10  20  34  54  82 115 145 177 221 267 312
#     4  10  22  38  56  79 104 138 178 221 275 323
#
# _framework density 21.958378
#
# number of rings (size 3 to 8) (size 9 to 14) (size 15 to 20)
#    0.000    2.600    2.000    1.200    0.000    3.200 
#    0.000    8.000    0.000    0.000    0.000    2.800 
#    0.000    0.000    0.000    0.000    0.000    0.000 
#
# Total GULP energy -446053.764069 kJ/mol
# GULP energy per Si atom -5575.672051 kJ/mol
# Density = 2.190840 g / cm^3
# Si number density = 21.958378 Si / 1000 Ang^3
#
#
#
# Elastic Constant Matrix: (Units=GPa)
#
#
# Indices 1 2 3 4 5 6 
#
# 1 136.1856 145.3372 5.7611 0.0000 0.0000 0.0000
# 2 145.3372 136.1856 5.7611 0.0000 0.0000 0.0000
# 3 5.7611 5.7611 43.5948 0.0000 0.0000 0.0000
# 4 0.0000 0.0000 0.0000 20.2239 0.0000 0.0000
# 5 0.0000 0.0000 0.0000 0.0000 20.2239 0.0000
# 6 0.0000 0.0000 0.0000 0.0000 0.0000 34.8905
#
#
#
# Elastic Compliance Matrix: (Units=1/GPa)
#
#
# Indices 1 2 3 4 5 6 
#
# 1 -0.052850 0.056421 -0.000472 0.000000 0.000000 0.000000
# 2 0.056421 -0.052850 -0.000472 0.000000 0.000000 0.000000
# 3 -0.000472 -0.000472 0.023063 0.000000 0.000000 0.000000
# 4 0.000000 0.000000 0.000000 0.049446 0.000000 0.000000
# 5 0.000000 0.000000 0.000000 0.000000 0.049446 0.000000
# 6 0.000000 0.000000 0.000000 0.000000 0.000000 0.028661
#
#
# Mechanical properties :
#
#
# Convention : Reuss Voigt Hill
#
# Bulk Modulus (GPa) = 35.31294 69.96498 52.63896
# Shear Modulus (GPa) = -88.34194 25.67481 -31.33357
#
# Velocity S-wave (km/s) = -6.34972 3.42314 -3.78160
# Velocity P-wave (km/s) = 6.13529 6.89605 2.22640
#
# Compressibility (1/GPa) = 0.02831823
#
# Stress axis : x y z
#
# Youngs Moduli (GPa) = -18.92151 -18.92151 43.35904
#
# Poissons Ratio (x) = 1.06758 0.02046
# Poissons Ratio (y) = 1.06758 0.02046
# Poissons Ratio (z) = -0.00893 -0.00893
#
# Static dielectric constant tensor:
#      x y z
#    x 1.786310 0.000000 0.000000 
#    y 0.000000 1.786310 0.000000 
#    z 0.000000 0.000000 1.882390 
# 
# From -- ./inp_files/6864.got.cif
#   From: 2010.05.17/outbox.cif.g08.bks.cpg/sg140_4_cif.got.tgz:6864.got - 2010.06.21 00:45:31.
