data_PCOD9572626
_publ_section_title
;
Structure prediction by ZEFSAII (Michael W. Deem and Ramdas Pophale) SiO2 
 PCOD9572626
Probable space group: I 4/M C M
;
_chemical_formula_sum "Si O2"
_cell_formula_units_Z 192
_cell_length_a 20.084099
_cell_length_b 20.084099
_cell_length_c 26.003060
_cell_angle_alpha 90.000000
_cell_angle_beta 90.000000
_cell_angle_gamma 90.000000
_cell_volume 10488.881164
_symmetry_space_group_name_H-M "I 4/M C M"
_symmetry_group_IT_number 140
_symmetry_cell_setting 'tetragonal'
loop_
_space_group_symop_operation_xyz
x,y,z
-y,x,z
-x,-y,z
y,-x,z
x,-y,1/2-z
-x,y,1/2-z
y,x,1/2-z
-y,-x,1/2-z
-x,-y,-z
y,-x,-z
x,y,-z
-y,x,-z
-x,y,1/2+z
x,-y,1/2+z
-y,-x,1/2+z
y,x,1/2+z
1/2+x,1/2+y,1/2+z
1/2-y,1/2+x,1/2+z
1/2-x,1/2-y,1/2+z
1/2+y,1/2-x,1/2+z
1/2+x,1/2-y,-z
1/2-x,1/2+y,-z
1/2+y,1/2+x,-z
1/2-y,1/2-x,-z
1/2-x,1/2-y,1/2-z
1/2+y,1/2-x,1/2-z
1/2+x,1/2+y,1/2-z
1/2-y,1/2+x,1/2-z
1/2-x,1/2+y,z
1/2+x,1/2-y,z
1/2-y,1/2-x,z
1/2+y,1/2+x,z
loop_
_atom_site_type_symbol
_atom_site_label
_atom_site_fract_x
_atom_site_fract_y
_atom_site_fract_z
Si Si1 0.172922 0.561071 0.596216
Si Si2 0.917226 0.923733 0.809888
Si Si3 0.355425 0.034116 0.000000
Si Si4 0.503221 0.888948 0.807660
Si Si5 0.605052 0.652240 0.091271
Si Si6 0.540341 0.687305 0.440151
Si Si7 0.242718 0.149399 0.000000
O O1 0.125729 0.625729 0.597070
O O2 0.150147 0.512858 0.549732
O O3 0.161137 0.519135 0.648240
O O4 0.250294 0.576623 0.586554
O O5 0.906689 0.906689 0.750000
O O6 0.866741 0.886558 0.848648
O O7 0.996211 0.909433 0.818519
O O8 0.423390 0.076611 0.000000
O O9 0.295525 0.088171 0.000000
O O10 0.500000 0.860543 0.750000
O O11 0.573693 0.926308 0.816904
O O12 0.448130 0.948130 0.808238
O O13 0.531200 0.678977 0.084395
O O14 0.619482 0.580713 0.065982
O O15 0.645871 0.700273 0.052795
O O16 0.533553 0.702903 0.500000
O O17 0.283570 0.216431 0.000000
#
# Coordination Sequence:
#
# PCOD9572626 Si02
#       7
#    32  32  16  32  32  32  16
#     4  11  21  35  55  82 114 148 192 239 291 354
#     4   9  18  33  58  94 127 152 186 245 315 362
#     4  11  21  35  56  84 114 144 186 243 299 351
#     4   8  15  30  53  81 111 142 181 236 297 347
#     4  12  21  39  62  85 119 152 201 240 292 359
#     4  12  23  38  56  86 118 153 192 246 292 348
#     4  11  24  40  59  84 121 163 200 241 292 361
#
# _framework density 18.305098999999998
#
# number of rings (size 3 to 8) (size 9 to 14) (size 15 to 20)
#    0.000    1.500    5.833    1.750    0.000    2.333 
#    0.000    2.500    0.000    0.500    0.000    0.000 
#    0.000    0.000    0.000    0.000    0.000    0.000 
#
# Total GULP energy -534722.891139 kJ/mol
# GULP energy per Si atom -5570.030116 kJ/mol
# Density = 1.826344 g / cm^3
# Si number density = 18.305099 Si / 1000 Ang^3
#
#
#
# Elastic Constant Matrix: (Units=GPa)
#
#
# Indices 1 2 3 4 5 6 
#
# 1 36.3487 25.8730 32.3249 0.0000 0.0000 0.0000
# 2 25.8730 36.3486 32.3248 0.0000 0.0000 0.0000
# 3 32.3249 32.3248 146.4850 0.0000 0.0000 0.0000
# 4 0.0000 0.0000 0.0000 18.3299 0.0000 0.0000
# 5 0.0000 0.0000 0.0000 0.0000 18.3277 0.0000
# 6 0.0000 0.0000 0.0000 0.0000 0.0000 30.0144
#
#
#
# Elastic Compliance Matrix: (Units=1/GPa)
#
#
# Indices 1 2 3 4 5 6 
#
# 1 0.058156 -0.037303 -0.004602 0.000000 0.000000 0.000000
# 2 -0.037303 0.058156 -0.004602 0.000000 0.000000 0.000000
# 3 -0.004602 -0.004602 0.008857 0.000000 0.000000 0.000000
# 4 0.000000 0.000000 0.000000 0.054556 0.000000 0.000000
# 5 0.000000 0.000000 0.000000 0.000000 0.054562 0.000000
# 6 0.000000 0.000000 0.000000 0.000000 0.000000 0.033317
#
#
# Mechanical properties :
#
#
# Convention : Reuss Voigt Hill
#
# Bulk Modulus (GPa) = 31.09776 44.46973 37.78374
# Shear Modulus (GPa) = 13.46490 21.91171 17.68830
#
# Velocity S-wave (km/s) = 2.71510 3.46356 3.11192
# Velocity P-wave (km/s) = 5.18213 6.35149 5.79637
#
# Compressibility (1/GPa) = 0.03215666
#
# Stress axis : x y z
#
# Youngs Moduli (GPa) = 17.19520 17.19516 112.89873
#
# Poissons Ratio (x) = 0.64143 0.51951
# Poissons Ratio (y) = 0.64143 0.51951
# Poissons Ratio (z) = 0.07912 0.07912
#
# Static dielectric constant tensor:
#      x y z
#    x 1.636460 0.000000 0.000000 
#    y 0.000000 1.636460 0.000000 
#    z 0.000000 0.000000 1.664530 
# 
# From -- ./inp_files/10889.got.cif
#   From: 2010.05.17/outbox.cif.g08.bks.cpg/sg140_6_cif.got.tgz:10889.got - 2010.06.21 00:45:31.
