data_PCOD9572746
_publ_section_title
;
Structure prediction by ZEFSAII (Michael W. Deem and Ramdas Pophale) SiO2 
 PCOD9572746
Probable space group: I 41/A M D
;
_chemical_formula_sum "Si O2"
_cell_formula_units_Z 192
_cell_length_a 26.516431
_cell_length_b 26.516431
_cell_length_c 14.392375
_cell_angle_alpha 90.000000
_cell_angle_beta 90.000000
_cell_angle_gamma 90.000000
_cell_volume 10119.582728
_symmetry_space_group_name_H-M "I 41/A M D"
_symmetry_group_IT_number 141
_space_group.IT_coordinate_system_code '2'
_symmetry_cell_setting 'tetragonal'
loop_
_space_group_symop_operation_xyz
x,y,z
1/4-y,3/4+x,1/4+z
-x,1/2-y,z
1/4+y,1/4-x,3/4+z
x,-y,-z
-x,1/2+y,-z
1/4+y,3/4+x,1/4-z
1/4-y,1/4-x,3/4-z
-x,-y,-z
3/4+y,1/4-x,3/4-z
x,1/2+y,-z
3/4-y,3/4+x,1/4-z
-x,y,z
x,1/2-y,z
3/4-y,1/4-x,3/4+z
3/4+y,3/4+x,1/4+z
1/2+x,1/2+y,1/2+z
3/4-y,1/4+x,3/4+z
1/2-x,-y,1/2+z
3/4+y,3/4-x,1/4+z
1/2+x,1/2-y,1/2-z
1/2-x,y,1/2-z
3/4+y,1/4+x,3/4-z
3/4-y,3/4-x,1/4-z
1/2-x,1/2-y,1/2-z
1/4+y,3/4-x,1/4-z
1/2+x,y,1/2-z
1/4-y,1/4+x,3/4-z
1/2-x,1/2+y,1/2+z
1/2+x,-y,1/2+z
1/4-y,3/4-x,1/4+z
1/4+y,1/4+x,3/4+z
loop_
_atom_site_type_symbol
_atom_site_label
_atom_site_fract_x
_atom_site_fract_y
_atom_site_fract_z
Si Si1 0.728892 0.695293 0.973903
Si Si2 0.864506 0.394475 0.975359
Si Si3 0.864179 0.692677 0.668144
Si Si4 0.642196 0.000000 0.500000
Si Si5 0.097064 0.566989 0.390934
Si Si6 0.837634 0.005089 0.202472
Si Si7 0.677314 0.000000 0.000000
O O1 0.727456 0.750000 0.021777
O O2 0.683372 0.693211 0.901139
O O3 0.781258 0.690449 0.916735
O O4 0.724772 0.644435 0.033666
O O5 0.878642 0.371359 0.875000
O O6 0.804488 0.407773 0.967926
O O7 0.889462 0.449300 0.983432
O O8 0.861835 0.364402 0.071221
O O9 0.905546 0.655546 0.625000
O O10 0.883024 0.750000 0.677195
O O11 0.842310 0.673708 0.766297
O O12 0.674069 0.989668 0.593227
O O13 0.140056 0.526230 0.424289
O O14 0.797540 0.035023 0.264681
#
# Coordination Sequence:
#
# PCOD9572746 Si02
#       7
#    32  32  32  16  32  32  16
#     4  10  21  36  53  77 110 147 191 237 279 333
#     4   9  19  31  45  70 105 147 191 226 285 331
#     4  11  23  38  58  83 111 142 183 233 291 351
#     4  10  17  32  43  70 105 149 179 235 280 334
#     4  11  20  34  55  79 106 150 193 239 284 339
#     4  10  21  31  49  72 107 151 192 235 286 332
#     4  12  19  30  51  78 109 145 198 243 277 356
#
# _framework density 18.973113999999999
#
# number of rings (size 3 to 8) (size 9 to 14) (size 15 to 20)
#    0.000    1.667    3.333    2.000    0.000    3.500 
#    0.000    0.417    0.000    0.000    0.000    1.167 
#    0.000    0.000    0.000    0.000    0.000    0.000 
#
# Total GULP energy -534599.517808 kJ/mol
# GULP energy per Si atom -5568.744977 kJ/mol
# Density = 1.892993 g / cm^3
# Si number density = 18.973114 Si / 1000 Ang^3
#
#
#
# Elastic Constant Matrix: (Units=GPa)
#
#
# Indices 1 2 3 4 5 6 
#
# 1 76.4554 27.5925 22.2903 0.0000 0.0000 0.0000
# 2 27.5925 76.4558 22.2904 0.0000 0.0000 0.0000
# 3 22.2903 22.2904 86.0496 0.0000 0.0000 0.0000
# 4 0.0000 0.0000 0.0000 16.3321 0.0000 0.0000
# 5 0.0000 0.0000 0.0000 0.0000 16.3320 0.0000
# 6 0.0000 0.0000 0.0000 0.0000 0.0000 10.6323
#
#
#
# Elastic Compliance Matrix: (Units=1/GPa)
#
#
# Indices 1 2 3 4 5 6 
#
# 1 0.015638 -0.004827 -0.002800 0.000000 0.000000 0.000000
# 2 -0.004827 0.015638 -0.002800 0.000000 0.000000 0.000000
# 3 -0.002800 -0.002800 0.013072 0.000000 0.000000 0.000000
# 4 0.000000 0.000000 0.000000 0.061229 0.000000 0.000000
# 5 0.000000 0.000000 0.000000 0.000000 0.061230 0.000000
# 6 0.000000 0.000000 0.000000 0.000000 0.000000 0.094053
#
#
# Mechanical properties :
#
#
# Convention : Reuss Voigt Hill
#
# Bulk Modulus (GPa) = 42.56780 42.58970 42.57875
# Shear Modulus (GPa) = 17.26838 19.77846 18.52342
#
# Velocity S-wave (km/s) = 3.02014 3.23220 3.12797
# Velocity P-wave (km/s) = 5.88611 6.03536 5.96120
#
# Compressibility (1/GPa) = 0.02349193
#
# Stress axis : x y z
#
# Youngs Moduli (GPa) = 63.94631 63.94668 76.49904
#
# Poissons Ratio (x) = 0.30869 0.21423
# Poissons Ratio (y) = 0.30868 0.21423
# Poissons Ratio (z) = 0.17908 0.17908
#
# Static dielectric constant tensor:
#      x y z
#    x 1.715970 0.000000 0.000000 
#    y 0.000000 1.715970 0.000000 
#    z 0.000000 0.000000 1.738930 
# 
# From -- ./inp_files/6881.got.cif
#   From: 2010.05.17/outbox.cif.g08.bks.cpg/sg141_4_cif.got.tgz:6881.got - 2010.05.20 13:30:51.
