data_PCOD9572596
_publ_section_title
;
Structure prediction by ZEFSAII (Michael W. Deem and Ramdas Pophale) SiO2 
 PCOD9572596
Probable space group: I 4/M C M
;
_chemical_formula_sum "Si O2"
_cell_formula_units_Z 136
_cell_length_a 17.825021
_cell_length_b 17.825021
_cell_length_c 20.510080
_cell_angle_alpha 90.000000
_cell_angle_beta 90.000000
_cell_angle_gamma 90.000000
_cell_volume 6516.695892
_symmetry_space_group_name_H-M "I 4/M C M"
_symmetry_group_IT_number 140
_symmetry_cell_setting 'tetragonal'
loop_
_space_group_symop_operation_xyz
x,y,z
-y,x,z
-x,-y,z
y,-x,z
x,-y,1/2-z
-x,y,1/2-z
y,x,1/2-z
-y,-x,1/2-z
-x,-y,-z
y,-x,-z
x,y,-z
-y,x,-z
-x,y,1/2+z
x,-y,1/2+z
-y,-x,1/2+z
y,x,1/2+z
1/2+x,1/2+y,1/2+z
1/2-y,1/2+x,1/2+z
1/2-x,1/2-y,1/2+z
1/2+y,1/2-x,1/2+z
1/2+x,1/2-y,-z
1/2-x,1/2+y,-z
1/2+y,1/2+x,-z
1/2-y,1/2-x,-z
1/2-x,1/2-y,1/2-z
1/2+y,1/2-x,1/2-z
1/2+x,1/2+y,1/2-z
1/2-y,1/2+x,1/2-z
1/2-x,1/2+y,z
1/2+x,1/2-y,z
1/2-y,1/2-x,z
1/2+y,1/2+x,z
loop_
_atom_site_type_symbol
_atom_site_label
_atom_site_fract_x
_atom_site_fract_y
_atom_site_fract_z
Si Si1 0.500000 0.702763 0.250000
Si Si2 0.944731 0.888289 0.000000
Si Si3 0.598447 0.691331 0.366788
Si Si4 0.000000 0.500000 0.399726
Si Si5 0.984754 0.679134 0.922986
Si Si6 0.241632 0.617755 0.847810
O O1 0.544045 0.662045 0.308674
O O2 0.563951 0.750506 0.214469
O O3 0.923352 0.845402 0.065045
O O4 0.032631 0.903379 0.000000
O O5 0.578683 0.778850 0.379743
O O6 0.682955 0.666719 0.352839
O O7 0.001059 0.593135 0.403579
O O8 0.060542 0.726448 0.907466
O O9 0.967000 0.680942 0.000000
O O10 0.172432 0.672432 0.841873
#
# Coordination Sequence:
#
# PCOD9572596 Si02
#       6
#    16  16  32   8  32  32
#     4  10  24  46  66  98 140 188 236 298 366 440
#     4  11  22  40  65 100 141 183 232 303 371 439
#     4  11  24  42  72 100 144 186 244 301 365 440
#     4  12  25  44  68  97 150 201 236 289 370 437
#     4  11  23  43  68 102 146 186 235 292 363 447
#     4  11  25  45  70 105 139 192 245 306 366 431
#
# _framework density 20.869472999999999
#
# number of rings (size 3 to 8) (size 9 to 14) (size 15 to 20)
#    0.000    1.059    2.353    4.588    3.294    1.882 
#    6.353    0.000    0.000   12.000    0.000    0.000 
#    0.000    0.000    0.000    0.000    0.000    0.000 
#
# Total GULP energy -378686.336729 kJ/mol
# GULP energy per Si atom -5568.916717 kJ/mol
# Density = 2.082197 g / cm^3
# Si number density = 20.869473 Si / 1000 Ang^3
#
#
#
# Elastic Constant Matrix: (Units=GPa)
#
#
# Indices 1 2 3 4 5 6 
#
# 1 136.8941 39.5550 22.1892 0.0000 0.0000 0.0000
# 2 39.5550 136.8941 22.1892 0.0000 0.0000 0.0000
# 3 22.1892 22.1892 102.0721 0.0000 0.0000 0.0000
# 4 0.0000 0.0000 0.0000 -2.1774 0.0000 0.0000
# 5 0.0000 0.0000 0.0000 0.0000 -2.1774 0.0000
# 6 0.0000 0.0000 0.0000 0.0000 0.0000 49.6970
#
#
#
# Elastic Compliance Matrix: (Units=1/GPa)
#
#
# Indices 1 2 3 4 5 6 
#
# 1 0.008134 -0.002139 -0.001303 0.000000 0.000000 0.000000
# 2 -0.002139 0.008134 -0.001303 0.000000 0.000000 0.000000
# 3 -0.001303 -0.001303 0.010364 0.000000 0.000000 0.000000
# 4 0.000000 0.000000 0.000000 -0.459259 0.000000 0.000000
# 5 0.000000 0.000000 0.000000 0.000000 -0.459259 0.000000
# 6 0.000000 0.000000 0.000000 0.000000 0.000000 0.020122
#
#
# Mechanical properties :
#
#
# Convention : Reuss Voigt Hill
#
# Bulk Modulus (GPa) = 58.34024 60.41414 59.37719
# Shear Modulus (GPa) = -5.83731 28.53024 11.34646
#
# Velocity S-wave (km/s) = -1.67425 3.70142 2.33424
# Velocity P-wave (km/s) = 4.92727 6.87595 5.98150
#
# Compressibility (1/GPa) = 0.01714083
#
# Stress axis : x y z
#
# Youngs Moduli (GPa) = 122.93697 122.93697 96.49134
#
# Poissons Ratio (x) = 0.26298 0.12575
# Poissons Ratio (y) = 0.26298 0.12575
# Poissons Ratio (z) = 0.16022 0.16022
#
# Static dielectric constant tensor:
#      x y z
#    x 1.753390 0.000000 0.000000 
#    y 0.000000 1.753390 0.000000 
#    z 0.000000 0.000000 1.834480 
# 
# From -- ./inp_files/8125.got.cif
#   From: 2010.05.17/outbox.cif.g08.bks.cpg/sg140_5_cif.got.tgz:8125.got - 2010.06.21 00:45:31.
