data_PCOD9572096
_publ_section_title
;
Structure prediction by ZEFSAII (Michael W. Deem and Ramdas Pophale) SiO2 
 PCOD9572096
Probable space group: I 4/M C M
;
_chemical_formula_sum "Si O2"
_cell_formula_units_Z 224
_cell_length_a 24.611617
_cell_length_b 24.611617
_cell_length_c 23.947528
_cell_angle_alpha 90.000000
_cell_angle_beta 90.000000
_cell_angle_gamma 90.000000
_cell_volume 14505.776639
_symmetry_space_group_name_H-M "I 4/M C M"
_symmetry_group_IT_number 140
_symmetry_cell_setting 'tetragonal'
loop_
_space_group_symop_operation_xyz
x,y,z
-y,x,z
-x,-y,z
y,-x,z
x,-y,1/2-z
-x,y,1/2-z
y,x,1/2-z
-y,-x,1/2-z
-x,-y,-z
y,-x,-z
x,y,-z
-y,x,-z
-x,y,1/2+z
x,-y,1/2+z
-y,-x,1/2+z
y,x,1/2+z
1/2+x,1/2+y,1/2+z
1/2-y,1/2+x,1/2+z
1/2-x,1/2-y,1/2+z
1/2+y,1/2-x,1/2+z
1/2+x,1/2-y,-z
1/2-x,1/2+y,-z
1/2+y,1/2+x,-z
1/2-y,1/2-x,-z
1/2-x,1/2-y,1/2-z
1/2+y,1/2-x,1/2-z
1/2+x,1/2+y,1/2-z
1/2-y,1/2+x,1/2-z
1/2-x,1/2+y,z
1/2+x,1/2-y,z
1/2-y,1/2-x,z
1/2+y,1/2+x,z
loop_
_atom_site_type_symbol
_atom_site_label
_atom_site_fract_x
_atom_site_fract_y
_atom_site_fract_z
Si Si1 0.562367 0.563016 0.567748
Si Si2 0.252410 0.340299 0.245619
Si Si3 0.768157 0.358989 0.620796
Si Si4 0.767724 0.358614 0.868908
Si Si5 0.439225 0.146872 0.433691
Si Si6 0.348058 0.653921 0.567081
Si Si7 0.064269 0.348056 0.434660
O O1 0.499616 0.575132 0.584958
O O2 0.562190 0.563161 0.500000
O O3 0.607370 0.607983 0.584074
O O4 0.309981 0.309981 0.250000
O O5 0.206684 0.293317 0.244512
O O6 0.246826 0.368081 0.185701
O O7 0.242262 0.370848 0.303602
O O8 0.801542 0.301542 0.615785
O O9 0.809038 0.404490 0.599163
O O10 0.713368 0.360743 0.584831
O O11 0.800955 0.300955 0.872607
O O12 0.710943 0.357677 0.901491
O O13 0.805959 0.402756 0.897492
O O14 0.434380 0.158160 0.500000
O O15 0.411177 0.088824 0.423713
O O16 0.501885 0.148261 0.418635
O O17 0.351568 0.660656 0.500000
O O18 0.068139 0.331741 0.500000
O O19 0.094357 0.405644 0.429637
#
# Coordination Sequence:
#
# PCOD9572096 Si02
#       7
#    32  32  32  32  32  32  32
#     4   8  16  32  49  64  86 117 154 192 227 269
#     4   9  16  30  49  66  89 127 166 197 229 277
#     4  10  19  31  47  70  99 128 159 196 241 287
#     4  10  19  31  47  70  99 128 159 196 241 287
#     4   9  18  32  49  70  98 131 165 203 246 292
#     4  11  20  27  44  73 100 126 153 187 236 296
#     4   9  18  32  49  70  98 131 165 203 246 292
#
# _framework density 15.442124
#
# number of rings (size 3 to 8) (size 9 to 14) (size 15 to 20)
#    0.000    2.571    1.429    1.714    0.000    3.714 
#    0.000    5.000    0.000    0.000    0.000    1.000 
#    0.000   10.286    0.000    0.000    0.000    0.000 
#
# Total GULP energy -623567.410410 kJ/mol
# GULP energy per Si atom -5567.566164 kJ/mol
# Density = 1.540698 g / cm^3
# Si number density = 15.442124 Si / 1000 Ang^3
#
#
#
# Elastic Constant Matrix: (Units=GPa)
#
#
# Indices 1 2 3 4 5 6 
#
# 1 64.9447 41.8158 9.2012 0.0000 0.0000 0.0000
# 2 41.8158 64.9447 9.2012 0.0000 0.0000 0.0000
# 3 9.2012 9.2012 16.9282 0.0000 0.0000 0.0000
# 4 0.0000 0.0000 0.0000 5.3851 0.0000 0.0000
# 5 0.0000 0.0000 0.0000 0.0000 5.3851 0.0000
# 6 0.0000 0.0000 0.0000 0.0000 0.0000 15.4329
#
#
#
# Elastic Compliance Matrix: (Units=1/GPa)
#
#
# Indices 1 2 3 4 5 6 
#
# 1 0.026785 -0.016450 -0.005618 0.000000 0.000000 0.000000
# 2 -0.016450 0.026785 -0.005618 0.000000 0.000000 0.000000
# 3 -0.005618 -0.005618 0.065180 0.000000 0.000000 0.000000
# 4 0.000000 0.000000 0.000000 0.185697 0.000000 0.000000
# 5 0.000000 0.000000 0.000000 0.000000 0.185697 0.000000
# 6 0.000000 0.000000 0.000000 0.000000 0.000000 0.064797
#
#
# Mechanical properties :
#
#
# Convention : Reuss Voigt Hill
#
# Bulk Modulus (GPa) = 15.77791 29.69486 22.73639
# Shear Modulus (GPa) = 7.91842 11.01392 9.46617
#
# Velocity S-wave (km/s) = 2.26692 2.67355 2.47859
# Velocity P-wave (km/s) = 4.13419 5.36675 4.79028
#
# Compressibility (1/GPa) = 0.06337976
#
# Stress axis : x y z
#
# Youngs Moduli (GPa) = 37.33366 37.33366 15.34218
#
# Poissons Ratio (x) = 0.61415 0.08619
# Poissons Ratio (y) = 0.61415 0.08619
# Poissons Ratio (z) = 0.20972 0.20972
#
# Static dielectric constant tensor:
#      x y z
#    x 1.508680 0.000000 0.000000 
#    y 0.000000 1.508680 0.000000 
#    z 0.000000 0.000000 1.512570 
# 
# From -- ./inp_files/9951.got.cif
#   From: 2010.05.17/outbox.cif.g08.bks.cpg/sg140_5_cif.got.tgz:9951.got - 2010.06.21 00:45:31.
