data_PCOD9572859
_publ_section_title
;
Structure prediction by ZEFSAII (Michael W. Deem and Ramdas Pophale) SiO2 
 PCOD9572859
Probable space group: I 41/A M D
;
_chemical_formula_sum "Si O2"
_cell_formula_units_Z 144
_cell_length_a 16.254065
_cell_length_b 16.254065
_cell_length_c 26.584206
_cell_angle_alpha 90.000000
_cell_angle_beta 90.000000
_cell_angle_gamma 90.000000
_cell_volume 7023.404442
_symmetry_space_group_name_H-M "I 41/A M D"
_symmetry_group_IT_number 141
_space_group.IT_coordinate_system_code '2'
_symmetry_cell_setting 'tetragonal'
loop_
_space_group_symop_operation_xyz
x,y,z
1/4-y,3/4+x,1/4+z
-x,1/2-y,z
1/4+y,1/4-x,3/4+z
x,-y,-z
-x,1/2+y,-z
1/4+y,3/4+x,1/4-z
1/4-y,1/4-x,3/4-z
-x,-y,-z
3/4+y,1/4-x,3/4-z
x,1/2+y,-z
3/4-y,3/4+x,1/4-z
-x,y,z
x,1/2-y,z
3/4-y,1/4-x,3/4+z
3/4+y,3/4+x,1/4+z
1/2+x,1/2+y,1/2+z
3/4-y,1/4+x,3/4+z
1/2-x,-y,1/2+z
3/4+y,3/4-x,1/4+z
1/2+x,1/2-y,1/2-z
1/2-x,y,1/2-z
3/4+y,1/4+x,3/4-z
3/4-y,3/4-x,1/4-z
1/2-x,1/2-y,1/2-z
1/4+y,3/4-x,1/4-z
1/2+x,y,1/2-z
1/4-y,1/4+x,3/4-z
1/2-x,1/2+y,1/2+z
1/2+x,-y,1/2+z
1/4-y,3/4-x,1/4+z
1/4+y,1/4+x,3/4+z
loop_
_atom_site_type_symbol
_atom_site_label
_atom_site_fract_x
_atom_site_fract_y
_atom_site_fract_z
Si Si1 0.333478 0.598986 0.721146
Si Si2 0.819026 0.349929 0.005379
Si Si3 0.500000 0.555657 0.613374
Si Si4 0.000000 0.152073 0.011067
Si Si5 0.407884 0.250000 0.965377
Si Si6 0.686511 0.928477 0.137321
O O1 0.250000 0.616944 0.750000
O O2 0.353899 0.501488 0.724512
O O3 0.414852 0.641149 0.743789
O O4 0.327067 0.620710 0.662318
O O5 0.810249 0.250000 0.002810
O O6 0.808842 0.383446 0.062422
O O7 0.911946 0.374084 0.989066
O O8 0.500000 0.623314 0.569022
O O9 0.500000 0.595709 0.668470
O O10 0.409829 0.516650 0.607997
O O11 0.000000 0.250000 0.009770
O O12 0.500000 0.250000 0.946060
O O13 0.748376 0.001625 0.125000
#
# Coordination Sequence:
#
# PCOD9572859 Si02
#       6
#    32  32  16  16  16  32
#     4  11  21  35  58  85 116 152 195 240 296 355
#     4  10  19  36  58  83 116 152 190 244 295 347
#     4   8  17  30  51  77 106 140 187 241 276 324
#     4   8  15  28  52  80 105 139 188 227 278 334
#     4  10  21  36  54  80 114 148 189 243 294 338
#     4  10  19  33  54  81 111 149 191 234 288 347
#
# _framework density 20.502877000000002
#
# number of rings (size 3 to 8) (size 9 to 14) (size 15 to 20)
#    0.000    2.222    3.333    0.333    0.000    5.778 
#    0.000    1.667    0.000    0.333    0.000    0.000 
#    0.000    0.000    0.000    0.000    0.000    0.000 
#
# Total GULP energy -401115.791151 kJ/mol
# GULP energy per Si atom -5571.052655 kJ/mol
# Density = 2.045621 g / cm^3
# Si number density = 20.502877 Si / 1000 Ang^3
#
#
#
# Elastic Constant Matrix: (Units=GPa)
#
#
# Indices 1 2 3 4 5 6 
#
# 1 74.4523 9.8888 6.8609 0.0000 0.0000 0.0000
# 2 9.8888 74.4491 6.8601 0.0000 0.0000 0.0000
# 3 6.8609 6.8601 55.1536 0.0000 0.0000 0.0000
# 4 0.0000 0.0000 0.0000 17.1084 0.0000 0.0000
# 5 0.0000 0.0000 0.0000 0.0000 17.1088 0.0000
# 6 0.0000 0.0000 0.0000 0.0000 0.0000 5.8716
#
#
#
# Elastic Compliance Matrix: (Units=1/GPa)
#
#
# Indices 1 2 3 4 5 6 
#
# 1 0.013795 -0.001694 -0.001505 0.000000 0.000000 0.000000
# 2 -0.001694 0.013796 -0.001505 0.000000 0.000000 0.000000
# 3 -0.001505 -0.001505 0.018506 0.000000 0.000000 0.000000
# 4 0.000000 0.000000 0.000000 0.058451 0.000000 0.000000
# 5 0.000000 0.000000 0.000000 0.000000 0.058449 0.000000
# 6 0.000000 0.000000 0.000000 0.000000 0.000000 0.170311
#
#
# Mechanical properties :
#
#
# Convention : Reuss Voigt Hill
#
# Bulk Modulus (GPa) = 27.25698 27.91941 27.58820
# Shear Modulus (GPa) = 14.08668 20.04745 17.06706
#
# Velocity S-wave (km/s) = 2.62402 3.13035 2.88830
# Velocity P-wave (km/s) = 4.74381 5.16840 4.96065
#
# Compressibility (1/GPa) = 0.03668784
#
# Stress axis : x y z
#
# Youngs Moduli (GPa) = 72.48956 72.48655 54.03749
#
# Poissons Ratio (x) = 0.12277 0.08135
# Poissons Ratio (y) = 0.12277 0.08134
# Poissons Ratio (z) = 0.10913 0.10911
#
# Static dielectric constant tensor:
#      x y z
#    x 1.784460 0.000000 0.000000 
#    y 0.000000 1.784460 0.000000 
#    z 0.000000 0.000000 1.712810 
# 
# From -- ./inp_files/12644.got.cif
#   From: 2010.05.17/outbox.cif.g08.bks.cpg/sg141_7_cif.got.tgz:12644.got - 2010.05.20 13:30:51.
