data_PCOD9572649
_publ_section_title
;
Structure prediction by ZEFSAII (Michael W. Deem and Ramdas Pophale) SiO2 
 PCOD9572649
Probable space group: I 4/M C M
;
_chemical_formula_sum "Si O2"
_cell_formula_units_Z 96
_cell_length_a 13.464433
_cell_length_b 13.464433
_cell_length_c 27.448874
_cell_angle_alpha 90.000000
_cell_angle_beta 90.000000
_cell_angle_gamma 90.000000
_cell_volume 4976.232609
_symmetry_space_group_name_H-M "I 4/M C M"
_symmetry_group_IT_number 140
_symmetry_cell_setting 'tetragonal'
loop_
_space_group_symop_operation_xyz
x,y,z
-y,x,z
-x,-y,z
y,-x,z
x,-y,1/2-z
-x,y,1/2-z
y,x,1/2-z
-y,-x,1/2-z
-x,-y,-z
y,-x,-z
x,y,-z
-y,x,-z
-x,y,1/2+z
x,-y,1/2+z
-y,-x,1/2+z
y,x,1/2+z
1/2+x,1/2+y,1/2+z
1/2-y,1/2+x,1/2+z
1/2-x,1/2-y,1/2+z
1/2+y,1/2-x,1/2+z
1/2+x,1/2-y,-z
1/2-x,1/2+y,-z
1/2+y,1/2+x,-z
1/2-y,1/2-x,-z
1/2-x,1/2-y,1/2-z
1/2+y,1/2-x,1/2-z
1/2+x,1/2+y,1/2-z
1/2-y,1/2+x,1/2-z
1/2-x,1/2+y,z
1/2+x,1/2-y,z
1/2-y,1/2-x,z
1/2+y,1/2+x,z
loop_
_atom_site_type_symbol
_atom_site_label
_atom_site_fract_x
_atom_site_fract_y
_atom_site_fract_z
Si Si1 0.399476 0.365271 0.053436
Si Si2 0.612062 0.271384 0.655468
Si Si3 0.748985 0.920225 0.294189
O O1 0.519603 0.367322 0.055579
O O2 0.364031 0.309063 0.101335
O O3 0.370010 0.325714 0.000000
O O4 0.673286 0.173286 0.666525
O O5 0.654055 0.353155 0.693947
O O6 0.496591 0.247859 0.660786
O O7 0.656644 0.843356 0.290839
O O8 0.749726 0.000000 0.250000
#
# Coordination Sequence:
#
# PCOD9572649 Si02
#       3
#    32  32  32
#     4   9  17  33  58  85 115 150 192 242 297 351
#     4  11  22  37  60  88 117 154 200 242 291 351
#     4  11  24  41  60  85 118 156 197 244 292 344
#
# _framework density 19.291702999999998
#
# number of rings (size 3 to 8) (size 9 to 14) (size 15 to 20)
#    0.000    1.667    3.333    3.000    0.000    6.333 
#    0.000    1.667    0.000    1.000    0.000    2.333 
#    0.000    0.000    0.000    0.000    0.000    0.000 
#
# Total GULP energy -267427.728616 kJ/mol
# GULP energy per Si atom -5571.411013 kJ/mol
# Density = 1.924779 g / cm^3
# Si number density = 19.291703 Si / 1000 Ang^3
#
#
#
# Elastic Constant Matrix: (Units=GPa)
#
#
# Indices 1 2 3 4 5 6 
#
# 1 79.9493 40.0876 24.0700 0.0000 0.0000 0.0000
# 2 40.0876 79.9493 24.0700 0.0000 0.0000 0.0000
# 3 24.0700 24.0700 121.9408 0.0000 0.0000 0.0000
# 4 0.0000 0.0000 0.0000 17.9791 0.0000 0.0000
# 5 0.0000 0.0000 0.0000 0.0000 17.9791 0.0000
# 6 0.0000 0.0000 0.0000 0.0000 0.0000 13.1758
#
#
#
# Elastic Compliance Matrix: (Units=1/GPa)
#
#
# Indices 1 2 3 4 5 6 
#
# 1 0.017067 -0.008020 -0.001786 0.000000 0.000000 0.000000
# 2 -0.008020 0.017067 -0.001786 0.000000 0.000000 0.000000
# 3 -0.001786 -0.001786 0.008906 0.000000 0.000000 0.000000
# 4 0.000000 0.000000 0.000000 0.055620 0.000000 0.000000
# 5 0.000000 0.000000 0.000000 0.000000 0.055620 0.000000
# 6 0.000000 0.000000 0.000000 0.000000 0.000000 0.075897
#
#
# Mechanical properties :
#
#
# Convention : Reuss Voigt Hill
#
# Bulk Modulus (GPa) = 50.36144 50.92161 50.64152
# Shear Modulus (GPa) = 19.23236 22.73424 20.98330
#
# Velocity S-wave (km/s) = 3.16084 3.43657 3.30158
# Velocity P-wave (km/s) = 6.28356 6.49612 6.39072
#
# Compressibility (1/GPa) = 0.01985646
#
# Stress axis : x y z
#
# Youngs Moduli (GPa) = 58.59311 58.59311 112.28774
#
# Poissons Ratio (x) = 0.46991 0.20052
# Poissons Ratio (y) = 0.46991 0.20052
# Poissons Ratio (z) = 0.10463 0.10463
#
# Static dielectric constant tensor:
#      x y z
#    x 1.652270 0.000000 0.000000 
#    y 0.000000 1.652270 0.000000 
#    z 0.000000 0.000000 1.775990 
# 
# From -- ./inp_files/11219.got.cif
#   From: 2010.05.17/outbox.cif.g08.bks.cpg/sg140_6_cif.got.tgz:11219.got - 2010.06.21 00:45:31.
