data_PCOD9572547
_publ_section_title
;
Structure prediction by ZEFSAII (Michael W. Deem and Ramdas Pophale) SiO2 
 PCOD9572547
Probable space group: I 4/M C M
;
_chemical_formula_sum "Si O2"
_cell_formula_units_Z 128
_cell_length_a 21.563163
_cell_length_b 21.563163
_cell_length_c 13.944961
_cell_angle_alpha 90.000000
_cell_angle_beta 90.000000
_cell_angle_gamma 90.000000
_cell_volume 6483.988496
_symmetry_space_group_name_H-M "I 4/M C M"
_symmetry_group_IT_number 140
_symmetry_cell_setting 'tetragonal'
loop_
_space_group_symop_operation_xyz
x,y,z
-y,x,z
-x,-y,z
y,-x,z
x,-y,1/2-z
-x,y,1/2-z
y,x,1/2-z
-y,-x,1/2-z
-x,-y,-z
y,-x,-z
x,y,-z
-y,x,-z
-x,y,1/2+z
x,-y,1/2+z
-y,-x,1/2+z
y,x,1/2+z
1/2+x,1/2+y,1/2+z
1/2-y,1/2+x,1/2+z
1/2-x,1/2-y,1/2+z
1/2+y,1/2-x,1/2+z
1/2+x,1/2-y,-z
1/2-x,1/2+y,-z
1/2+y,1/2+x,-z
1/2-y,1/2-x,-z
1/2-x,1/2-y,1/2-z
1/2+y,1/2-x,1/2-z
1/2+x,1/2+y,1/2-z
1/2-y,1/2+x,1/2-z
1/2-x,1/2+y,z
1/2+x,1/2-y,z
1/2-y,1/2-x,z
1/2+y,1/2+x,z
loop_
_atom_site_type_symbol
_atom_site_label
_atom_site_fract_x
_atom_site_fract_y
_atom_site_fract_z
Si Si1 0.273023 0.126421 0.754957
Si Si2 0.080111 0.941853 0.615849
Si Si3 0.552987 0.052987 0.112656
Si Si4 0.331071 0.668436 0.385943
Si Si5 0.500000 0.159616 0.250000
O O1 0.333138 0.166863 0.731757
O O2 0.236331 0.159300 0.841955
O O3 0.225358 0.133402 0.666316
O O4 0.296359 0.057549 0.778043
O O5 0.079678 0.943406 0.500000
O O6 0.133501 0.894754 0.642002
O O7 0.013132 0.915935 0.646533
O O8 0.525837 0.113504 0.167058
O O9 0.500000 0.000000 0.119552
O O10 0.565056 0.065056 0.000000
O O11 0.323439 0.668494 0.500000
#
# Coordination Sequence:
#
# PCOD9572547 Si02
#       5
#    32  32  16  32  16
#     4  11  25  42  63  90 125 171 210 264 333 379
#     4   8  15  30  53  83 119 155 195 251 311 364
#     4  11  22  42  74 103 132 176 214 264 347 404
#     4  10  22  40  64  91 125 165 217 266 315 393
#     4  12  23  46  66  96 143 168 222 288 320 398
#
# _framework density 19.740936000000001
#
# number of rings (size 3 to 8) (size 9 to 14) (size 15 to 20)
#    0.000    1.875    2.500    2.250    3.500    4.000 
#    0.000    0.000    0.000    6.000    0.000    0.000 
#    0.000    0.000    0.000    0.000    0.000    0.000 
#
# Total GULP energy -357225.409607 kJ/mol
# GULP energy per Si atom -5581.647025 kJ/mol
# Density = 1.969600 g / cm^3
# Si number density = 19.740936 Si / 1000 Ang^3
#
#
#
# Elastic Constant Matrix: (Units=GPa)
#
#
# Indices 1 2 3 4 5 6 
#
# 1 83.1239 39.3913 8.6531 0.0000 0.0000 0.0000
# 2 39.3913 83.1239 8.6531 0.0000 0.0000 0.0000
# 3 8.6531 8.6531 121.1312 0.0000 0.0000 0.0000
# 4 0.0000 0.0000 0.0000 -17.9758 0.0000 0.0000
# 5 0.0000 0.0000 0.0000 0.0000 -17.9758 0.0000
# 6 0.0000 0.0000 0.0000 0.0000 0.0000 52.0674
#
#
#
# Elastic Compliance Matrix: (Units=1/GPa)
#
#
# Indices 1 2 3 4 5 6 
#
# 1 0.015556 -0.007310 -0.000589 0.000000 0.000000 0.000000
# 2 -0.007310 0.015556 -0.000589 0.000000 0.000000 0.000000
# 3 -0.000589 -0.000589 0.008340 0.000000 0.000000 0.000000
# 4 0.000000 0.000000 0.000000 -0.055630 0.000000 0.000000
# 5 0.000000 0.000000 0.000000 0.000000 -0.055630 0.000000
# 6 0.000000 0.000000 0.000000 0.000000 0.000000 0.019206
#
#
# Mechanical properties :
#
#
# Convention : Reuss Voigt Hill
#
# Bulk Modulus (GPa) = 44.49487 44.53043 44.51265
# Shear Modulus (GPa) = -177.71422 18.60192 -79.55615
#
# Velocity S-wave (km/s) = -9.49835 3.07302 -6.35512
# Velocity P-wave (km/s) = 9.88449 5.93276 5.59042
#
# Compressibility (1/GPa) = 0.02247450
#
# Stress axis : x y z
#
# Youngs Moduli (GPa) = 64.28447 64.28447 119.90885
#
# Poissons Ratio (x) = 0.46994 0.07063
# Poissons Ratio (y) = 0.46994 0.07063
# Poissons Ratio (z) = 0.03786 0.03786
#
# Static dielectric constant tensor:
#      x y z
#    x 1.727270 0.000000 0.000000 
#    y 0.000000 1.727270 0.000000 
#    z 0.000000 0.000000 1.708230 
# 
# From -- ./inp_files/4380.got.cif
#   From: 2010.05.17/outbox.cif.g08.bks.cpg/sg140_3_cif.got.tgz:4380.got - 2010.06.21 00:45:31.
