data_PCOD9572582
_publ_section_title
;
Structure prediction by ZEFSAII (Michael W. Deem and Ramdas Pophale) SiO2 
 PCOD9572582
Probable space group: I 4/M C M
;
_chemical_formula_sum "Si O2"
_cell_formula_units_Z 176
_cell_length_a 17.860964
_cell_length_b 17.860964
_cell_length_c 28.932307
_cell_angle_alpha 90.000000
_cell_angle_beta 90.000000
_cell_angle_gamma 90.000000
_cell_volume 9229.811998
_symmetry_space_group_name_H-M "I 4/M C M"
_symmetry_group_IT_number 140
_symmetry_cell_setting 'tetragonal'
loop_
_space_group_symop_operation_xyz
x,y,z
-y,x,z
-x,-y,z
y,-x,z
x,-y,1/2-z
-x,y,1/2-z
y,x,1/2-z
-y,-x,1/2-z
-x,-y,-z
y,-x,-z
x,y,-z
-y,x,-z
-x,y,1/2+z
x,-y,1/2+z
-y,-x,1/2+z
y,x,1/2+z
1/2+x,1/2+y,1/2+z
1/2-y,1/2+x,1/2+z
1/2-x,1/2-y,1/2+z
1/2+y,1/2-x,1/2+z
1/2+x,1/2-y,-z
1/2-x,1/2+y,-z
1/2+y,1/2+x,-z
1/2-y,1/2-x,-z
1/2-x,1/2-y,1/2-z
1/2+y,1/2-x,1/2-z
1/2+x,1/2+y,1/2-z
1/2-y,1/2+x,1/2-z
1/2-x,1/2+y,z
1/2+x,1/2-y,z
1/2-y,1/2-x,z
1/2+y,1/2+x,z
loop_
_atom_site_type_symbol
_atom_site_label
_atom_site_fract_x
_atom_site_fract_y
_atom_site_fract_z
Si Si1 0.791807 0.484057 0.391120
Si Si2 0.331108 0.709138 0.866975
Si Si3 0.502197 0.875036 0.698754
Si Si4 0.936890 0.563111 0.052823
Si Si5 0.745875 0.125080 0.554296
Si Si6 0.586665 0.589653 0.194624
O O1 0.751104 0.407279 0.379800
O O2 0.817839 0.515495 0.341607
O O3 0.865891 0.466720 0.420105
O O4 0.749546 0.544521 0.421887
O O5 0.268491 0.768491 0.849050
O O6 0.298903 0.676398 0.914716
O O7 0.355029 0.642529 0.832273
O O8 0.500000 0.840938 0.750000
O O9 0.581561 0.918440 0.690966
O O10 0.440199 0.940199 0.698756
O O11 0.000000 0.500000 0.052956
O O12 0.918088 0.581913 0.000000
O O13 0.763634 0.123738 0.500000
O O14 0.662769 0.162769 0.558638
O O15 0.498472 0.602869 0.183492
O O16 0.596507 0.596507 0.250000
#
# Coordination Sequence:
#
# PCOD9572582 Si02
#       6
#    32  32  32  16  32  32
#     4  12  21  38  60  86 120 160 208 255 305 381
#     4  11  23  40  58  89 128 163 202 252 322 389
#     4   9  17  31  53  82 118 158 195 237 294 358
#     4  11  22  34  58  92 119 152 206 269 316 363
#     4  10  23  41  60  84 119 162 205 254 319 379
#     4   9  19  40  69  94 118 158 214 270 315 362
#
# _framework density 19.068643000000002
#
# number of rings (size 3 to 8) (size 9 to 14) (size 15 to 20)
#    0.000    1.727    1.818    4.364    0.000    3.273 
#    6.545    0.000    0.000    0.000    0.000    3.818 
#    0.000    0.000    0.000    0.000    0.000    0.000 
#
# Total GULP energy -491274.526673 kJ/mol
# GULP energy per Si atom -5582.665076 kJ/mol
# Density = 1.902524 g / cm^3
# Si number density = 19.068643 Si / 1000 Ang^3
#
#
#
# Elastic Constant Matrix: (Units=GPa)
#
#
# Indices 1 2 3 4 5 6 
#
# 1 53.0013 54.2297 51.3557 0.0000 0.0000 0.0000
# 2 54.2297 53.0016 51.3562 0.0000 0.0000 0.0000
# 3 51.3557 51.3562 127.4458 0.0000 0.0000 0.0000
# 4 0.0000 0.0000 0.0000 19.1370 0.0000 0.0000
# 5 0.0000 0.0000 0.0000 0.0000 19.1343 0.0000
# 6 0.0000 0.0000 0.0000 0.0000 0.0000 20.1834
#
#
#
# Elastic Compliance Matrix: (Units=1/GPa)
#
#
# Indices 1 2 3 4 5 6 
#
# 1 -0.399485 0.414673 -0.006122 0.000000 0.000000 0.000000
# 2 0.414673 -0.399486 -0.006118 0.000000 0.000000 0.000000
# 3 -0.006122 -0.006118 0.012779 0.000000 0.000000 0.000000
# 4 0.000000 0.000000 0.000000 0.052255 0.000000 0.000000
# 5 0.000000 0.000000 0.000000 0.000000 0.052262 0.000000
# 6 0.000000 0.000000 0.000000 0.000000 0.000000 0.049546
#
#
# Mechanical properties :
#
#
# Convention : Reuss Voigt Hill
#
# Bulk Modulus (GPa) = 53.55040 60.81466 57.18253
# Shear Modulus (GPa) = -3.49462 16.79141 6.64840
#
# Velocity S-wave (km/s) = -1.35522 2.97067 1.86926
# Velocity P-wave (km/s) = 5.06903 6.61273 5.89166
#
# Compressibility (1/GPa) = 0.01867400
#
# Stress axis : x y z
#
# Youngs Moduli (GPa) = -2.50322 -2.50322 78.25428
#
# Poissons Ratio (x) = 1.03802 0.47907
# Poissons Ratio (y) = 1.03802 0.47879
# Poissons Ratio (z) = -0.01532 -0.01532
#
# Static dielectric constant tensor:
#      x y z
#    x 1.668570 0.000000 0.000000 
#    y 0.000000 1.668570 0.000000 
#    z 0.000000 0.000000 1.643230 
# 
# From -- ./inp_files/10720.got.cif
#   From: 2010.05.17/outbox.cif.g08.bks.cpg/sg140_6_cif.got.tgz:10720.got - 2010.06.21 00:45:31.
