data_PCOD9572902
_publ_section_title
;
Structure prediction by ZEFSAII (Michael W. Deem and Ramdas Pophale) SiO2 
 PCOD9572902
Probable space group: I 41/A M D
;
_chemical_formula_sum "Si O2"
_cell_formula_units_Z 84
_cell_length_a 13.218485
_cell_length_b 13.218485
_cell_length_c 19.836078
_cell_angle_alpha 90.000000
_cell_angle_beta 90.000000
_cell_angle_gamma 90.000000
_cell_volume 3465.925094
_symmetry_space_group_name_H-M "I 41/A M D"
_symmetry_group_IT_number 141
_space_group.IT_coordinate_system_code '2'
_symmetry_cell_setting 'tetragonal'
loop_
_space_group_symop_operation_xyz
x,y,z
1/4-y,3/4+x,1/4+z
-x,1/2-y,z
1/4+y,1/4-x,3/4+z
x,-y,-z
-x,1/2+y,-z
1/4+y,3/4+x,1/4-z
1/4-y,1/4-x,3/4-z
-x,-y,-z
3/4+y,1/4-x,3/4-z
x,1/2+y,-z
3/4-y,3/4+x,1/4-z
-x,y,z
x,1/2-y,z
3/4-y,1/4-x,3/4+z
3/4+y,3/4+x,1/4+z
1/2+x,1/2+y,1/2+z
3/4-y,1/4+x,3/4+z
1/2-x,-y,1/2+z
3/4+y,3/4-x,1/4+z
1/2+x,1/2-y,1/2-z
1/2-x,y,1/2-z
3/4+y,1/4+x,3/4-z
3/4-y,3/4-x,1/4-z
1/2-x,1/2-y,1/2-z
1/4+y,3/4-x,1/4-z
1/2+x,y,1/2-z
1/4-y,1/4+x,3/4-z
1/2-x,1/2+y,1/2+z
1/2+x,-y,1/2+z
1/4-y,3/4-x,1/4+z
1/4+y,1/4+x,3/4+z
loop_
_atom_site_type_symbol
_atom_site_label
_atom_site_fract_x
_atom_site_fract_y
_atom_site_fract_z
Si Si1 0.000000 0.750000 0.625000
Si Si2 0.500000 0.382773 0.999380
Si Si3 0.621076 0.371451 0.784295
Si Si4 0.112892 0.038157 0.173681
O O1 0.092944 0.750000 0.675155
O O2 0.605997 0.354723 0.964374
O O3 0.500000 0.500000 0.000000
O O4 0.500000 0.380136 0.796033
O O5 0.639090 0.250000 0.771894
O O6 0.646431 0.447034 0.722689
O O7 0.676711 0.408838 0.852452
O O8 0.000000 0.004850 0.154111
#
# Coordination Sequence:
#
# PCOD9572902 Si02
#       4
#     4  16  32  32
#     4  12  28  44  60 100 140 180 212 272 358 424
#     4  12  26  38  60  96 138 178 217 271 346 425
#     4   9  18  33  62 100 137 180 227 287 351 417
#     4  10  19  37  61  94 141 178 225 284 350 417
#
# _framework density 24.235954
#
# number of rings (size 3 to 8) (size 9 to 14) (size 15 to 20)
#    0.000    1.905    3.810    0.000    5.333    0.000 
#    0.000    0.000    0.000    1.143    9.905    0.000 
#    0.000    0.000    0.000    0.000    0.000    0.000 
#
# Total GULP energy -234386.607573 kJ/mol
# GULP energy per Si atom -5580.633514 kJ/mol
# Density = 2.418079 g / cm^3
# Si number density = 24.235954 Si / 1000 Ang^3
#
#
#
# Elastic Constant Matrix: (Units=GPa)
#
#
# Indices 1 2 3 4 5 6 
#
# 1 170.6021 27.4631 106.9920 0.0000 0.0000 0.0000
# 2 27.4631 170.6021 106.9920 0.0000 0.0000 0.0000
# 3 106.9920 106.9920 191.0255 0.0000 0.0000 0.0000
# 4 0.0000 0.0000 0.0000 58.3075 0.0000 0.0000
# 5 0.0000 0.0000 0.0000 0.0000 58.3075 0.0000
# 6 0.0000 0.0000 0.0000 0.0000 0.0000 26.7173
#
#
#
# Elastic Compliance Matrix: (Units=1/GPa)
#
#
# Indices 1 2 3 4 5 6 
#
# 1 0.009886 0.002900 -0.007161 0.000000 0.000000 0.000000
# 2 0.002900 0.009886 -0.007161 0.000000 0.000000 0.000000
# 3 -0.007161 -0.007161 0.013257 0.000000 0.000000 0.000000
# 4 0.000000 0.000000 0.000000 0.017150 0.000000 0.000000
# 5 0.000000 0.000000 0.000000 0.000000 0.017150 0.000000
# 6 0.000000 0.000000 0.000000 0.000000 0.000000 0.037429
#
#
# Mechanical properties :
#
#
# Convention : Reuss Voigt Hill
#
# Bulk Modulus (GPa) = 98.19979 112.79155 105.49567
# Shear Modulus (GPa) = 38.16873 48.05195 43.11034
#
# Velocity S-wave (km/s) = 3.97278 4.45755 4.22213
# Velocity P-wave (km/s) = 7.85176 8.55178 8.20924
#
# Compressibility (1/GPa) = 0.01018332
#
# Stress axis : x y z
#
# Youngs Moduli (GPa) = 101.15511 101.15511 75.43433
#
# Poissons Ratio (x) = -0.29331 0.54019
# Poissons Ratio (y) = -0.29331 0.54019
# Poissons Ratio (z) = 0.72437 0.72437
#
# Static dielectric constant tensor:
#      x y z
#    x 2.008500 0.000000 0.000000 
#    y 0.000000 2.008500 0.000000 
#    z 0.000000 0.000000 1.896700 
# 
# From -- ./inp_files/9646.got.cif
#   From: 2010.05.17/outbox.cif.g08.bks.cpg/sg141_5_cif.got.tgz:9646.got - 2010.05.20 13:30:51.
