data_PCOD9572337
_publ_section_title
;
Structure prediction by ZEFSAII (Michael W. Deem and Ramdas Pophale) SiO2 
 PCOD9572337
Probable space group: I 4/M C M
;
_chemical_formula_sum "Si O2"
_cell_formula_units_Z 112
_cell_length_a 14.247206
_cell_length_b 14.247206
_cell_length_c 27.371296
_cell_angle_alpha 90.000000
_cell_angle_beta 90.000000
_cell_angle_gamma 90.000000
_cell_volume 5555.904459
_symmetry_space_group_name_H-M "I 4/M C M"
_symmetry_group_IT_number 140
_symmetry_cell_setting 'tetragonal'
loop_
_space_group_symop_operation_xyz
x,y,z
-y,x,z
-x,-y,z
y,-x,z
x,-y,1/2-z
-x,y,1/2-z
y,x,1/2-z
-y,-x,1/2-z
-x,-y,-z
y,-x,-z
x,y,-z
-y,x,-z
-x,y,1/2+z
x,-y,1/2+z
-y,-x,1/2+z
y,x,1/2+z
1/2+x,1/2+y,1/2+z
1/2-y,1/2+x,1/2+z
1/2-x,1/2-y,1/2+z
1/2+y,1/2-x,1/2+z
1/2+x,1/2-y,-z
1/2-x,1/2+y,-z
1/2+y,1/2+x,-z
1/2-y,1/2-x,-z
1/2-x,1/2-y,1/2-z
1/2+y,1/2-x,1/2-z
1/2+x,1/2+y,1/2-z
1/2-y,1/2+x,1/2-z
1/2-x,1/2+y,z
1/2+x,1/2-y,z
1/2-y,1/2-x,z
1/2+y,1/2+x,z
loop_
_atom_site_type_symbol
_atom_site_label
_atom_site_fract_x
_atom_site_fract_y
_atom_site_fract_z
Si Si1 0.290011 0.369194 0.946618
Si Si2 0.707680 0.364885 0.851097
Si Si3 0.001210 0.346801 0.106524
Si Si4 0.610371 0.610371 0.750000
O O1 0.223230 0.276771 0.948291
O O2 0.357554 0.355749 0.899993
O O3 0.218086 0.454207 0.935355
O O4 0.334611 0.379531 0.000000
O O5 0.777472 0.277472 0.853268
O O6 0.774418 0.456317 0.855021
O O7 0.653157 0.355620 0.800796
O O8 0.917170 0.417170 0.090710
O O9 0.085611 0.414390 0.124690
O O10 0.500000 0.627663 0.750000
#
# Coordination Sequence:
#
# PCOD9572337 Si02
#       4
#    32  32  32  16
#     4   9  18  32  51  78 112 148 185 227 279 341
#     4  10  20  36  58  82 111 147 188 235 290 350
#     4   9  18  33  55  84 115 148 190 239 289 344
#     4  11  23  38  56  78 105 141 188 236 282 339
#
# _framework density 20.158733999999999
#
# number of rings (size 3 to 8) (size 9 to 14) (size 15 to 20)
#    0.000    2.429    0.000    2.143    0.000    1.714 
#    0.000    7.143    0.000    1.714    0.000   14.000 
#    0.000    0.000    0.000    0.000    0.000    0.000 
#
# Total GULP energy -312048.654988 kJ/mol
# GULP energy per Si atom -5572.297410 kJ/mol
# Density = 2.011285 g / cm^3
# Si number density = 20.158734 Si / 1000 Ang^3
#
#
#
# Elastic Constant Matrix: (Units=GPa)
#
#
# Indices 1 2 3 4 5 6 
#
# 1 77.2114 23.5518 58.1874 0.0000 0.0000 0.0000
# 2 23.5518 77.2114 58.1874 0.0000 0.0000 0.0000
# 3 58.1874 58.1874 188.6569 0.0000 0.0000 0.0000
# 4 0.0000 0.0000 0.0000 10.4197 0.0000 0.0000
# 5 0.0000 0.0000 0.0000 0.0000 10.4197 0.0000
# 6 0.0000 0.0000 0.0000 0.0000 0.0000 16.4217
#
#
#
# Elastic Compliance Matrix: (Units=1/GPa)
#
#
# Indices 1 2 3 4 5 6 
#
# 1 0.017026 -0.001610 -0.004755 0.000000 0.000000 0.000000
# 2 -0.001610 0.017026 -0.004755 0.000000 0.000000 0.000000
# 3 -0.004755 -0.004755 0.008234 0.000000 0.000000 0.000000
# 4 0.000000 0.000000 0.000000 0.095972 0.000000 0.000000
# 5 0.000000 0.000000 0.000000 0.000000 0.095972 0.000000
# 6 0.000000 0.000000 0.000000 0.000000 0.000000 0.060895
#
#
# Mechanical properties :
#
#
# Convention : Reuss Voigt Hill
#
# Bulk Modulus (GPa) = 49.88485 69.21475 59.54980
# Shear Modulus (GPa) = 15.42992 20.99574 18.21283
#
# Velocity S-wave (km/s) = 2.76963 3.23076 3.00904
# Velocity P-wave (km/s) = 5.91840 6.95173 6.45577
#
# Compressibility (1/GPa) = 0.02004617
#
# Stress axis : x y z
#
# Youngs Moduli (GPa) = 58.73453 58.73453 121.45427
#
# Poissons Ratio (x) = 0.09458 0.57747
# Poissons Ratio (y) = 0.09458 0.57747
# Poissons Ratio (z) = 0.27926 0.27926
#
# Static dielectric constant tensor:
#      x y z
#    x 1.739530 0.000000 0.000000 
#    y 0.000000 1.739530 0.000000 
#    z 0.000000 0.000000 1.761300 
# 
# From -- ./inp_files/9027.got.cif
#   From: 2010.05.17/outbox.cif.g08.bks.cpg/sg140_5_cif.got.tgz:9027.got - 2010.06.21 00:45:31.
