data_PCOD9572594
_publ_section_title
;
Structure prediction by ZEFSAII (Michael W. Deem and Ramdas Pophale) SiO2 
 PCOD9572594
Probable space group: I 4/M C M
;
_chemical_formula_sum "Si O2"
_cell_formula_units_Z 128
_cell_length_a 20.768313
_cell_length_b 20.768313
_cell_length_c 13.850293
_cell_angle_alpha 90.000000
_cell_angle_beta 90.000000
_cell_angle_gamma 90.000000
_cell_volume 5973.947502
_symmetry_space_group_name_H-M "I 4/M C M"
_symmetry_group_IT_number 140
_symmetry_cell_setting 'tetragonal'
loop_
_space_group_symop_operation_xyz
x,y,z
-y,x,z
-x,-y,z
y,-x,z
x,-y,1/2-z
-x,y,1/2-z
y,x,1/2-z
-y,-x,1/2-z
-x,-y,-z
y,-x,-z
x,y,-z
-y,x,-z
-x,y,1/2+z
x,-y,1/2+z
-y,-x,1/2+z
y,x,1/2+z
1/2+x,1/2+y,1/2+z
1/2-y,1/2+x,1/2+z
1/2-x,1/2-y,1/2+z
1/2+y,1/2-x,1/2+z
1/2+x,1/2-y,-z
1/2-x,1/2+y,-z
1/2+y,1/2+x,-z
1/2-y,1/2-x,-z
1/2-x,1/2-y,1/2-z
1/2+y,1/2-x,1/2-z
1/2+x,1/2+y,1/2-z
1/2-y,1/2+x,1/2-z
1/2-x,1/2+y,z
1/2+x,1/2-y,z
1/2-y,1/2-x,z
1/2+y,1/2+x,z
loop_
_atom_site_type_symbol
_atom_site_label
_atom_site_fract_x
_atom_site_fract_y
_atom_site_fract_z
Si Si1 0.225400 0.092751 0.795558
Si Si2 0.102328 0.027648 0.884222
Si Si3 0.444956 0.944956 0.112577
Si Si4 0.282913 0.676084 0.389661
Si Si5 0.500000 0.162916 0.250000
O O1 0.166658 0.049133 0.831780
O O2 0.221214 0.156911 0.860657
O O3 0.216340 0.118293 0.686363
O O4 0.290974 0.053423 0.797246
O O5 0.043499 0.076160 0.861106
O O6 0.112029 0.030375 0.000000
O O7 0.469657 0.882332 0.168481
O O8 0.500000 0.000000 0.120631
O O9 0.432686 0.932686 0.000000
O O10 0.289070 0.654677 0.500000
O O11 0.218221 0.718221 0.378542
#
# Coordination Sequence:
#
# PCOD9572594 Si02
#       5
#    32  32  16  32  16
#     4  11  24  40  71 103 137 184 233 293 348 421
#     4   9  20  41  69 101 140 188 240 293 350 412
#     4  11  26  52  82 111 148 184 226 296 371 440
#     4  10  24  45  67  96 139 185 232 290 354 421
#     4  12  27  46  74 111 144 182 238 290 356 441
#
# _framework density 21.426368
#
# number of rings (size 3 to 8) (size 9 to 14) (size 15 to 20)
#    0.000    1.625    1.250    3.000   10.500    3.000 
#    0.000    2.500    0.000    0.000    0.000    1.750 
#    0.000    0.000    0.000    0.000    0.000    0.000 
#
# Total GULP energy -358496.823375 kJ/mol
# GULP energy per Si atom -5601.512865 kJ/mol
# Density = 2.137760 g / cm^3
# Si number density = 21.426368 Si / 1000 Ang^3
#
#
#
# Elastic Constant Matrix: (Units=GPa)
#
#
# Indices 1 2 3 4 5 6 
#
# 1 131.7385 70.6595 76.2667 0.0000 0.0000 0.0000
# 2 70.6595 131.7385 76.2667 0.0000 0.0000 0.0000
# 3 76.2667 76.2667 166.4012 0.0000 0.0000 0.0000
# 4 0.0000 0.0000 0.0000 20.0849 0.0000 0.0000
# 5 0.0000 0.0000 0.0000 0.0000 20.0849 0.0000
# 6 0.0000 0.0000 0.0000 0.0000 0.0000 43.0418
#
#
#
# Elastic Compliance Matrix: (Units=1/GPa)
#
#
# Indices 1 2 3 4 5 6 
#
# 1 0.011960 -0.004412 -0.003459 0.000000 0.000000 0.000000
# 2 -0.004412 0.011960 -0.003459 0.000000 0.000000 0.000000
# 3 -0.003459 -0.003459 0.009181 0.000000 0.000000 0.000000
# 4 0.000000 0.000000 0.000000 0.049789 0.000000 0.000000
# 5 0.000000 0.000000 0.000000 0.000000 0.049789 0.000000
# 6 0.000000 0.000000 0.000000 0.000000 0.000000 0.023233
#
#
# Mechanical properties :
#
#
# Convention : Reuss Voigt Hill
#
# Bulk Modulus (GPa) = 95.79676 97.36268 96.57972
# Shear Modulus (GPa) = 27.46457 30.42136 28.94296
#
# Velocity S-wave (km/s) = 3.58412 3.77212 3.67932
# Velocity P-wave (km/s) = 7.86986 8.03188 7.95128
#
# Compressibility (1/GPa) = 0.01043877
#
# Stress axis : x y z
#
# Youngs Moduli (GPa) = 83.61163 83.61163 108.92429
#
# Poissons Ratio (x) = 0.36891 0.37682
# Poissons Ratio (y) = 0.36891 0.37682
# Poissons Ratio (z) = 0.28925 0.28925
#
# Static dielectric constant tensor:
#      x y z
#    x 1.771060 0.000000 0.000000 
#    y 0.000000 1.771060 0.000000 
#    z 0.000000 0.000000 1.771600 
# 
# From -- ./inp_files/4379.got.cif
#   From: 2010.05.17/outbox.cif.g08.bks.cpg/sg140_3_cif.got.tgz:4379.got - 2010.06.21 00:45:31.
