data_PCOD9572275
_publ_section_title
;
Structure prediction by ZEFSAII (Michael W. Deem and Ramdas Pophale) SiO2 
 PCOD9572275
Probable space group: I 4/M C M
;
_chemical_formula_sum "Si O2"
_cell_formula_units_Z 160
_cell_length_a 31.118277
_cell_length_b 31.118277
_cell_length_c 8.853585
_cell_angle_alpha 90.000000
_cell_angle_beta 90.000000
_cell_angle_gamma 90.000000
_cell_volume 8573.343921
_symmetry_space_group_name_H-M "I 4/M C M"
_symmetry_group_IT_number 140
_symmetry_cell_setting 'tetragonal'
loop_
_space_group_symop_operation_xyz
x,y,z
-y,x,z
-x,-y,z
y,-x,z
x,-y,1/2-z
-x,y,1/2-z
y,x,1/2-z
-y,-x,1/2-z
-x,-y,-z
y,-x,-z
x,y,-z
-y,x,-z
-x,y,1/2+z
x,-y,1/2+z
-y,-x,1/2+z
y,x,1/2+z
1/2+x,1/2+y,1/2+z
1/2-y,1/2+x,1/2+z
1/2-x,1/2-y,1/2+z
1/2+y,1/2-x,1/2+z
1/2+x,1/2-y,-z
1/2-x,1/2+y,-z
1/2+y,1/2+x,-z
1/2-y,1/2-x,-z
1/2-x,1/2-y,1/2-z
1/2+y,1/2-x,1/2-z
1/2+x,1/2+y,1/2-z
1/2-y,1/2+x,1/2-z
1/2-x,1/2+y,z
1/2+x,1/2-y,z
1/2-y,1/2-x,z
1/2+y,1/2+x,z
loop_
_atom_site_type_symbol
_atom_site_label
_atom_site_fract_x
_atom_site_fract_y
_atom_site_fract_z
Si Si1 0.713084 0.547117 0.319914
Si Si2 0.886259 0.613742 0.816902
Si Si3 0.884297 0.951797 0.818064
Si Si4 0.453205 0.953205 0.318431
Si Si5 0.786731 0.605400 0.820595
Si Si6 0.256551 0.315457 0.331134
O O1 0.715259 0.500000 0.250000
O O2 0.716161 0.545158 0.500000
O O3 0.664730 0.563528 0.282575
O O4 0.753191 0.573297 0.255960
O O5 0.918653 0.581348 0.736844
O O6 0.836810 0.603017 0.774900
O O7 0.889808 0.610193 0.000000
O O8 0.919358 0.919358 0.750000
O O9 0.889216 0.000000 0.750000
O O10 0.888555 0.953990 0.000000
O O11 0.500000 0.942107 0.250000
O O12 0.455451 0.955451 0.500000
O O13 0.768886 0.651547 0.771937
O O14 0.785074 0.600013 0.000000
O O15 0.299585 0.299585 0.250000
O O16 0.264376 0.332975 0.500000
O O17 0.225649 0.274352 0.347272
#
# Coordination Sequence:
#
# PCOD9572275 Si02
#       6
#    32  16  32  16  32  32
#     4  10  22  40  60  84 115 154 199 244 293 350
#     4  10  23  41  61  89 123 157 197 243 294 351
#     4  10  21  38  61  88 120 155 196 245 298 354
#     4  11  23  42  69  95 123 155 190 235 290 355
#     4  11  22  38  60  85 118 156 197 246 296 349
#     4  10  20  34  54  79 110 147 189 235 284 338
#
# _framework density 18.662496000000001
#
# number of rings (size 3 to 8) (size 9 to 14) (size 15 to 20)
#    0.000    1.700    1.000    3.600    0.000    6.600 
#    0.000    3.000    0.000    0.000    0.000    0.000 
#    0.000    0.000    0.000    0.000    0.000    0.000 
#
# Total GULP energy -446492.198538 kJ/mol
# GULP energy per Si atom -5581.152482 kJ/mol
# Density = 1.862002 g / cm^3
# Si number density = 18.662496 Si / 1000 Ang^3
#
#
#
# Elastic Constant Matrix: (Units=GPa)
#
#
# Indices 1 2 3 4 5 6 
#
# 1 96.6192 122.9793 64.7010 0.0000 0.0000 0.0000
# 2 122.9793 96.6190 64.7025 0.0000 0.0000 0.0000
# 3 64.7010 64.7025 87.5901 0.0000 0.0000 0.0000
# 4 0.0000 0.0000 0.0000 28.2050 0.0000 0.0000
# 5 0.0000 0.0000 0.0000 0.0000 28.2049 0.0000
# 6 0.0000 0.0000 0.0000 0.0000 0.0000 41.1992
#
#
#
# Elastic Compliance Matrix: (Units=1/GPa)
#
#
# Indices 1 2 3 4 5 6 
#
# 1 -0.014936 0.023000 -0.005957 0.000000 0.000000 0.000000
# 2 0.023000 -0.014936 -0.005956 0.000000 0.000000 0.000000
# 3 -0.005957 -0.005956 0.020217 0.000000 0.000000 0.000000
# 4 0.000000 0.000000 0.000000 0.035455 0.000000 0.000000
# 5 0.000000 0.000000 0.000000 0.000000 0.035455 0.000000
# 6 0.000000 0.000000 0.000000 0.000000 0.000000 0.024272
#
#
# Mechanical properties :
#
#
# Convention : Reuss Voigt Hill
#
# Bulk Modulus (GPa) = 79.88440 87.28819 83.58629
# Shear Modulus (GPa) = 74.04476 21.41818 47.73147
#
# Velocity S-wave (km/s) = 6.30570 3.39139 5.06277
# Velocity P-wave (km/s) = 9.79354 7.88726 8.89163
#
# Compressibility (1/GPa) = 0.01251809
#
# Stress axis : x y z
#
# Youngs Moduli (GPa) = -66.95406 -66.95076 49.46309
#
# Poissons Ratio (x) = 1.53986 0.29467
# Poissons Ratio (y) = 1.53993 0.29461
# Poissons Ratio (z) = -0.39886 -0.39877
#
# Static dielectric constant tensor:
#      x y z
#    x 1.639150 0.000000 0.000000 
#    y 0.000000 1.639150 0.000000 
#    z 0.000000 0.000000 1.639920 
# 
# From -- ./inp_files/1843.got.cif
#   From: 2010.05.17/outbox.cif.g08.bks.cpg/sg140_1_cif.got.tgz:1843.got - 2010.06.21 00:45:31.
