data_PCOD9572548
_publ_section_title
;
Structure prediction by ZEFSAII (Michael W. Deem and Ramdas Pophale) SiO2 
 PCOD9572548
Probable space group: I 4/M C M
;
_chemical_formula_sum "Si O2"
_cell_formula_units_Z 96
_cell_length_a 23.716970
_cell_length_b 23.716970
_cell_length_c 9.282621
_cell_angle_alpha 90.000000
_cell_angle_beta 90.000000
_cell_angle_gamma 90.000000
_cell_volume 5221.424799
_symmetry_space_group_name_H-M "I 4/M C M"
_symmetry_group_IT_number 140
_symmetry_cell_setting 'tetragonal'
loop_
_space_group_symop_operation_xyz
x,y,z
-y,x,z
-x,-y,z
y,-x,z
x,-y,1/2-z
-x,y,1/2-z
y,x,1/2-z
-y,-x,1/2-z
-x,-y,-z
y,-x,-z
x,y,-z
-y,x,-z
-x,y,1/2+z
x,-y,1/2+z
-y,-x,1/2+z
y,x,1/2+z
1/2+x,1/2+y,1/2+z
1/2-y,1/2+x,1/2+z
1/2-x,1/2-y,1/2+z
1/2+y,1/2-x,1/2+z
1/2+x,1/2-y,-z
1/2-x,1/2+y,-z
1/2+y,1/2+x,-z
1/2-y,1/2-x,-z
1/2-x,1/2-y,1/2-z
1/2+y,1/2-x,1/2-z
1/2+x,1/2+y,1/2-z
1/2-y,1/2+x,1/2-z
1/2-x,1/2+y,z
1/2+x,1/2-y,z
1/2-y,1/2-x,z
1/2+y,1/2+x,z
loop_
_atom_site_type_symbol
_atom_site_label
_atom_site_fract_x
_atom_site_fract_y
_atom_site_fract_z
Si Si1 0.441156 0.730317 0.670508
Si Si2 0.548572 0.419100 0.000000
Si Si3 0.558536 0.846786 0.672263
Si Si4 0.377585 0.377585 0.750000
O O1 0.500000 0.713523 0.750000
O O2 0.451834 0.738359 0.500000
O O3 0.424572 0.788264 0.750308
O O4 0.392447 0.683365 0.687026
O O5 0.574443 0.481969 0.000000
O O6 0.573445 0.387461 0.134880
O O7 0.500000 0.863367 0.750000
O O8 0.550385 0.838569 0.500000
O O9 0.605728 0.894273 0.692232
#
# Coordination Sequence:
#
# PCOD9572548 Si02
#       4
#    32  16  32  16
#     4  11  23  38  60  85 116 159 203 250 297 352
#     4  11  22  36  52  76 111 148 196 256 311 356
#     4  10  22  40  65  95 125 156 191 236 289 351
#     4  12  24  35  55  82 112 158 204 246 300 357
#
# _framework density 18.385787000000001
#
# number of rings (size 3 to 8) (size 9 to 14) (size 15 to 20)
#    0.000    1.167    1.667    7.000    4.667    4.333 
#    0.000    2.500    0.000    0.000    0.000    0.000 
#    0.000    0.000    0.000    0.000    0.000    0.000 
#
# Total GULP energy -267957.616840 kJ/mol
# GULP energy per Si atom -5582.450351 kJ/mol
# Density = 1.834394 g / cm^3
# Si number density = 18.385787 Si / 1000 Ang^3
#
#
#
# Elastic Constant Matrix: (Units=GPa)
#
#
# Indices 1 2 3 4 5 6 
#
# 1 -117.2205 293.4833 51.5639 0.0000 0.0000 0.0000
# 2 293.4833 -117.2205 51.5639 0.0000 0.0000 0.0000
# 3 51.5639 51.5639 156.5329 0.0000 0.0000 0.0000
# 4 0.0000 0.0000 0.0000 25.8981 0.0000 0.0000
# 5 0.0000 0.0000 0.0000 0.0000 25.8981 0.0000
# 6 0.0000 0.0000 0.0000 0.0000 0.0000 35.8060
#
#
#
# Elastic Compliance Matrix: (Units=1/GPa)
#
#
# Indices 1 2 3 4 5 6 
#
# 1 0.002297 0.004731 -0.002315 0.000000 0.000000 0.000000
# 2 0.004731 0.002297 -0.002315 0.000000 0.000000 0.000000
# 3 -0.002315 -0.002315 0.007914 0.000000 0.000000 0.000000
# 4 0.000000 0.000000 0.000000 0.038613 0.000000 0.000000
# 5 0.000000 0.000000 0.000000 0.000000 0.038613 0.000000
# 6 0.000000 0.000000 0.000000 0.000000 0.000000 0.027928
#
#
# Mechanical properties :
#
#
# Convention : Reuss Voigt Hill
#
# Bulk Modulus (GPa) = 78.68380 79.47936 79.08158
# Shear Modulus (GPa) = 41.08642 -14.11420 13.48611
#
# Velocity S-wave (km/s) = 4.73237 -2.77369 2.71127
# Velocity P-wave (km/s) = 8.52932 5.75019 7.27372
#
# Compressibility (1/GPa) = 0.01270910
#
# Stress axis : x y z
#
# Youngs Moduli (GPa) = 435.44518 435.44518 126.36383
#
# Poissons Ratio (x) = -2.06024 0.29254
# Poissons Ratio (y) = -2.06024 0.29254
# Poissons Ratio (z) = 1.00808 1.00808
#
# Static dielectric constant tensor:
#      x y z
#    x 1.624240 0.000000 0.000000 
#    y 0.000000 1.624240 0.000000 
#    z 0.000000 0.000000 1.635940 
# 
# From -- ./inp_files/939.got.cif
#   From: 2010.05.17/outbox.cif.g08.bks.cpg/sg140_1_cif.got.tgz:939.got - 2010.06.21 00:45:31.
