data_PCOD9572257
_publ_section_title
;
Structure prediction by ZEFSAII (Michael W. Deem and Ramdas Pophale) SiO2 
 PCOD9572257
Probable space group: I 4/M C M
;
_chemical_formula_sum "Si O2"
_cell_formula_units_Z 240
_cell_length_a 29.179840
_cell_length_b 29.179840
_cell_length_c 16.552226
_cell_angle_alpha 90.000000
_cell_angle_beta 90.000000
_cell_angle_gamma 90.000000
_cell_volume 14093.609040
_symmetry_space_group_name_H-M "I 4/M C M"
_symmetry_group_IT_number 140
_symmetry_cell_setting 'tetragonal'
loop_
_space_group_symop_operation_xyz
x,y,z
-y,x,z
-x,-y,z
y,-x,z
x,-y,1/2-z
-x,y,1/2-z
y,x,1/2-z
-y,-x,1/2-z
-x,-y,-z
y,-x,-z
x,y,-z
-y,x,-z
-x,y,1/2+z
x,-y,1/2+z
-y,-x,1/2+z
y,x,1/2+z
1/2+x,1/2+y,1/2+z
1/2-y,1/2+x,1/2+z
1/2-x,1/2-y,1/2+z
1/2+y,1/2-x,1/2+z
1/2+x,1/2-y,-z
1/2-x,1/2+y,-z
1/2+y,1/2+x,-z
1/2-y,1/2-x,-z
1/2-x,1/2-y,1/2-z
1/2+y,1/2-x,1/2-z
1/2+x,1/2+y,1/2-z
1/2-y,1/2+x,1/2-z
1/2-x,1/2+y,z
1/2+x,1/2-y,z
1/2-y,1/2-x,z
1/2+y,1/2+x,z
loop_
_atom_site_type_symbol
_atom_site_label
_atom_site_fract_x
_atom_site_fract_y
_atom_site_fract_z
Si Si1 0.990743 0.118856 0.839826
Si Si2 0.135752 0.891162 0.402549
Si Si3 0.987315 0.784889 0.096373
Si Si4 0.745171 0.414198 0.906356
Si Si5 0.265583 0.158786 0.209931
Si Si6 0.710170 0.281203 0.914704
Si Si7 0.790305 0.885606 0.643372
Si Si8 0.073722 0.018401 0.500000
O O1 0.937360 0.115797 0.863789
O O2 0.000000 0.100574 0.750000
O O3 0.003124 0.172185 0.845779
O O4 0.020179 0.099312 0.914735
O O5 0.126157 0.887950 0.500000
O O6 0.191368 0.897868 0.395498
O O7 0.116572 0.846146 0.356902
O O8 0.934982 0.772364 0.115599
O O9 0.031325 0.752816 0.111604
O O10 0.990520 0.797622 0.000000
O O11 0.776746 0.382022 0.852197
O O12 0.755745 0.408568 0.000000
O O13 0.308735 0.191266 0.233270
O O14 0.231149 0.191873 0.160230
O O15 0.236101 0.133005 0.278131
O O16 0.730779 0.230779 0.909665
O O17 0.656276 0.280735 0.916005
O O18 0.726807 0.301894 0.000000
O O19 0.032168 0.052679 0.500000
#
# Coordination Sequence:
#
# PCOD9572257 Si02
#       8
#    32  32  32  32  32  32  32  16
#     4  11  24  40  62  85 103 131 182 232 289 355
#     4  10  20  37  56  76 105 141 176 226 281 338
#     4  10  22  38  56  79 109 140 178 231 282 332
#     4   9  19  37  54  72 102 138 183 231 278 328
#     4  11  23  36  52  77 112 142 179 234 282 324
#     4  10  20  34  50  71 103 143 184 225 276 340
#     4  12  23  32  54  81 105 140 178 213 282 344
#     4  11  26  48  62  70 102 140 166 234 306 364
#
# _framework density 17.028995999999999
#
# number of rings (size 3 to 8) (size 9 to 14) (size 15 to 20)
#    0.000    1.533    2.667    3.200    5.600    2.400 
#    0.000    0.667    0.000    0.000    0.000    0.000 
#    0.000    0.000    0.000    0.000    0.000   11.333 
#
# Total GULP energy -669083.026585 kJ/mol
# GULP energy per Si atom -5575.691888 kJ/mol
# Density = 1.699024 g / cm^3
# Si number density = 17.028996 Si / 1000 Ang^3
#
#
#
# Elastic Constant Matrix: (Units=GPa)
#
#
# Indices 1 2 3 4 5 6 
#
# 1 73.5178 37.0538 27.7722 0.0000 0.0000 0.0000
# 2 37.0538 73.5178 27.7722 0.0000 0.0000 0.0000
# 3 27.7722 27.7722 99.7645 0.0000 0.0000 0.0000
# 4 0.0000 0.0000 0.0000 20.4625 0.0000 0.0000
# 5 0.0000 0.0000 0.0000 0.0000 20.4625 0.0000
# 6 0.0000 0.0000 0.0000 0.0000 0.0000 20.4823
#
#
#
# Elastic Compliance Matrix: (Units=1/GPa)
#
#
# Indices 1 2 3 4 5 6 
#
# 1 0.018969 -0.008455 -0.002927 0.000000 0.000000 0.000000
# 2 -0.008455 0.018969 -0.002927 0.000000 0.000000 0.000000
# 3 -0.002927 -0.002927 0.011653 0.000000 0.000000 0.000000
# 4 0.000000 0.000000 0.000000 0.048870 0.000000 0.000000
# 5 0.000000 0.000000 0.000000 0.000000 0.048870 0.000000
# 6 0.000000 0.000000 0.000000 0.000000 0.000000 0.048823
#
#
# Mechanical properties :
#
#
# Convention : Reuss Voigt Hill
#
# Bulk Modulus (GPa) = 47.67821 47.99959 47.83890
# Shear Modulus (GPa) = 21.57375 22.56160 22.06768
#
# Velocity S-wave (km/s) = 3.56319 3.64386 3.60375
# Velocity P-wave (km/s) = 6.70727 6.77877 6.74312
#
# Compressibility (1/GPa) = 0.02097394
#
# Stress axis : x y z
#
# Youngs Moduli (GPa) = 52.71694 52.71694 85.81346
#
# Poissons Ratio (x) = 0.44572 0.25117
# Poissons Ratio (y) = 0.44572 0.25117
# Poissons Ratio (z) = 0.15430 0.15430
#
# Static dielectric constant tensor:
#      x y z
#    x 1.611430 0.000000 0.000000 
#    y 0.000000 1.611430 0.000000 
#    z 0.000000 0.000000 1.681970 
# 
# From -- ./inp_files/5383.got.cif
#   From: 2010.05.17/outbox.cif.g08.bks.cpg/sg140_3_cif.got.tgz:5383.got - 2010.06.21 00:45:31.
