data_PCOD9572601
_publ_section_title
;
Structure prediction by ZEFSAII (Michael W. Deem and Ramdas Pophale) SiO2 
 PCOD9572601
Probable space group: I 4/M C M
;
_chemical_formula_sum "Si O2"
_cell_formula_units_Z 96
_cell_length_a 15.223263
_cell_length_b 15.223263
_cell_length_c 23.181828
_cell_angle_alpha 90.000000
_cell_angle_beta 90.000000
_cell_angle_gamma 90.000000
_cell_volume 5372.336164
_symmetry_space_group_name_H-M "I 4/M C M"
_symmetry_group_IT_number 140
_symmetry_cell_setting 'tetragonal'
loop_
_space_group_symop_operation_xyz
x,y,z
-y,x,z
-x,-y,z
y,-x,z
x,-y,1/2-z
-x,y,1/2-z
y,x,1/2-z
-y,-x,1/2-z
-x,-y,-z
y,-x,-z
x,y,-z
-y,x,-z
-x,y,1/2+z
x,-y,1/2+z
-y,-x,1/2+z
y,x,1/2+z
1/2+x,1/2+y,1/2+z
1/2-y,1/2+x,1/2+z
1/2-x,1/2-y,1/2+z
1/2+y,1/2-x,1/2+z
1/2+x,1/2-y,-z
1/2-x,1/2+y,-z
1/2+y,1/2+x,-z
1/2-y,1/2-x,-z
1/2-x,1/2-y,1/2-z
1/2+y,1/2-x,1/2-z
1/2+x,1/2+y,1/2-z
1/2-y,1/2+x,1/2-z
1/2-x,1/2+y,z
1/2+x,1/2-y,z
1/2-y,1/2-x,z
1/2+y,1/2+x,z
loop_
_atom_site_type_symbol
_atom_site_label
_atom_site_fract_x
_atom_site_fract_y
_atom_site_fract_z
Si Si1 0.426368 0.073633 0.431404
Si Si2 0.659324 0.690346 0.817524
Si Si3 0.468302 0.239482 0.645506
Si Si4 0.000000 0.368142 0.750000
O O1 0.417890 0.082111 0.500000
O O2 0.457060 0.166138 0.403542
O O3 0.500000 0.000000 0.418768
O O4 0.659093 0.659093 0.750000
O O5 0.731834 0.768167 0.821745
O O6 0.565789 0.724628 0.841347
O O7 0.688013 0.607294 0.856372
O O8 0.448055 0.188183 0.704962
O O9 0.068658 0.431343 0.718050
#
# Coordination Sequence:
#
# PCOD9572601 Si02
#       4
#    16  32  32  16
#     4  11  24  44  65  88 120 159 218 279 313 351
#     4  11  21  35  57  92 132 165 199 251 316 380
#     4  12  22  37  58  90 125 165 204 247 312 378
#     4  11  18  28  54  87 116 152 196 249 306 359
#
# _framework density 17.869320999999999
#
# number of rings (size 3 to 8) (size 9 to 14) (size 15 to 20)
#    0.000    0.667    6.667    3.000    0.000    0.667 
#    0.000    3.333    0.000    0.000    0.000    2.333 
#    0.000    0.000    0.000    0.000    0.000    0.000 
#
# Total GULP energy -267626.234663 kJ/mol
# GULP energy per Si atom -5575.546555 kJ/mol
# Density = 1.782865 g / cm^3
# Si number density = 17.869321 Si / 1000 Ang^3
#
#
#
# Elastic Constant Matrix: (Units=GPa)
#
#
# Indices 1 2 3 4 5 6 
#
# 1 134.6766 80.3712 44.4543 0.0000 0.0000 0.0000
# 2 80.3712 134.6768 44.4545 0.0000 0.0000 0.0000
# 3 44.4543 44.4545 87.1512 0.0000 0.0000 0.0000
# 4 0.0000 0.0000 0.0000 14.8070 0.0000 0.0000
# 5 0.0000 0.0000 0.0000 0.0000 14.8069 0.0000
# 6 0.0000 0.0000 0.0000 0.0000 0.0000 53.2730
#
#
#
# Elastic Compliance Matrix: (Units=1/GPa)
#
#
# Indices 1 2 3 4 5 6 
#
# 1 0.012154 -0.006261 -0.003006 0.000000 0.000000 0.000000
# 2 -0.006261 0.012154 -0.003006 0.000000 0.000000 0.000000
# 3 -0.003006 -0.003006 0.014541 0.000000 0.000000 0.000000
# 4 0.000000 0.000000 0.000000 0.067536 0.000000 0.000000
# 5 0.000000 0.000000 0.000000 0.000000 0.067536 0.000000
# 6 0.000000 0.000000 0.000000 0.000000 0.000000 0.018771
#
#
# Mechanical properties :
#
#
# Convention : Reuss Voigt Hill
#
# Bulk Modulus (GPa) = 69.91495 77.22940 73.57217
# Shear Modulus (GPa) = 22.52215 29.05901 25.79058
#
# Velocity S-wave (km/s) = 3.55404 4.03699 3.80318
# Velocity P-wave (km/s) = 7.48680 8.06489 7.78122
#
# Compressibility (1/GPa) = 0.01430309
#
# Stress axis : x y z
#
# Youngs Moduli (GPa) = 82.28012 82.28009 68.77215
#
# Poissons Ratio (x) = 0.51514 0.20672
# Poissons Ratio (y) = 0.51514 0.20672
# Poissons Ratio (z) = 0.24732 0.24732
#
# Static dielectric constant tensor:
#      x y z
#    x 1.688800 0.000000 0.000000 
#    y 0.000000 1.688800 0.000000 
#    z 0.000000 0.000000 1.595390 
# 
# From -- ./inp_files/8951.got.cif
#   From: 2010.05.17/outbox.cif.g08.bks.cpg/sg140_5_cif.got.tgz:8951.got - 2010.06.21 00:45:31.
