data_PCOD9572750
_publ_section_title
;
Structure prediction by ZEFSAII (Michael W. Deem and Ramdas Pophale) SiO2 
 PCOD9572750
Probable space group: I 41/A M D
;
_chemical_formula_sum "Si O2"
_cell_formula_units_Z 176
_cell_length_a 26.319899
_cell_length_b 26.319899
_cell_length_c 11.426471
_cell_angle_alpha 90.000000
_cell_angle_beta 90.000000
_cell_angle_gamma 90.000000
_cell_volume 7915.540194
_symmetry_space_group_name_H-M "I 41/A M D"
_symmetry_group_IT_number 141
_space_group.IT_coordinate_system_code '2'
_symmetry_cell_setting 'tetragonal'
loop_
_space_group_symop_operation_xyz
x,y,z
1/4-y,3/4+x,1/4+z
-x,1/2-y,z
1/4+y,1/4-x,3/4+z
x,-y,-z
-x,1/2+y,-z
1/4+y,3/4+x,1/4-z
1/4-y,1/4-x,3/4-z
-x,-y,-z
3/4+y,1/4-x,3/4-z
x,1/2+y,-z
3/4-y,3/4+x,1/4-z
-x,y,z
x,1/2-y,z
3/4-y,1/4-x,3/4+z
3/4+y,3/4+x,1/4+z
1/2+x,1/2+y,1/2+z
3/4-y,1/4+x,3/4+z
1/2-x,-y,1/2+z
3/4+y,3/4-x,1/4+z
1/2+x,1/2-y,1/2-z
1/2-x,y,1/2-z
3/4+y,1/4+x,3/4-z
3/4-y,3/4-x,1/4-z
1/2-x,1/2-y,1/2-z
1/4+y,3/4-x,1/4-z
1/2+x,y,1/2-z
1/4-y,1/4+x,3/4-z
1/2-x,1/2+y,1/2+z
1/2+x,-y,1/2+z
1/4-y,3/4-x,1/4+z
1/4+y,1/4+x,3/4+z
loop_
_atom_site_type_symbol
_atom_site_label
_atom_site_fract_x
_atom_site_fract_y
_atom_site_fract_z
Si Si1 0.000000 0.068625 0.365276
Si Si2 0.277104 0.360856 0.559256
Si Si3 0.115960 0.356133 0.072696
Si Si4 0.327453 0.356826 0.043565
Si Si5 0.441548 0.691548 0.375000
Si Si6 0.774632 0.975369 0.125000
Si Si7 0.349862 0.250000 0.359943
Si Si8 0.500000 0.976327 0.319262
O O1 0.052655 0.096561 0.340286
O O2 0.000000 0.059534 0.504158
O O3 0.000000 0.023598 0.270666
O O4 0.332149 0.363583 0.499563
O O5 0.233404 0.357771 0.460017
O O6 0.266967 0.414326 0.620971
O O7 0.274100 0.306232 0.625993
O O8 0.110959 0.402040 0.161907
O O9 0.120346 0.302970 0.143334
O O10 0.071447 0.346770 0.979797
O O11 0.349595 0.400406 0.125000
O O12 0.435157 0.750000 0.412757
O O13 0.750000 0.993582 0.250000
O O14 0.322392 0.250000 0.484864
#
# Coordination Sequence:
#
# PCOD9572750 Si02
#       8
#    16  32  32  32  16  16  16  16
#     4  10  19  36  55  94 136 166 217 272 329 393
#     4  10  23  43  67  96 136 175 227 277 339 400
#     4  11  22  41  65  94 128 171 219 275 334 400
#     4  11  23  38  65  99 133 175 217 269 337 406
#     4  11  25  44  67  92 122 172 226 274 334 408
#     4  12  27  48  71 102 142 187 228 282 343 422
#     4  10  17  34  60  90 127 171 209 271 331 389
#     4   8  19  36  63  93 126 174 225 276 328 394
#
# _framework density 22.234742000000001
#
# number of rings (size 3 to 8) (size 9 to 14) (size 15 to 20)
#    0.000    1.545    2.727    1.909    2.545    0.727 
#    0.000    0.455    0.000    1.364    0.000    0.000 
#    0.000    0.000    0.000    0.000    0.000    0.000 
#
# Total GULP energy -490836.381105 kJ/mol
# GULP energy per Si atom -5577.686149 kJ/mol
# Density = 2.218413 g / cm^3
# Si number density = 22.234742 Si / 1000 Ang^3
#
#
#
# Elastic Constant Matrix: (Units=GPa)
#
#
# Indices 1 2 3 4 5 6 
#
# 1 65.1571 25.6285 21.8025 0.0000 0.0000 0.0000
# 2 25.6285 65.1483 21.8030 0.0000 0.0000 0.0000
# 3 21.8025 21.8030 86.3703 0.0000 0.0000 0.0000
# 4 0.0000 0.0000 0.0000 4.2498 0.0000 0.0000
# 5 0.0000 0.0000 0.0000 0.0000 4.2546 0.0000
# 6 0.0000 0.0000 0.0000 0.0000 0.0000 23.5386
#
#
#
# Elastic Compliance Matrix: (Units=1/GPa)
#
#
# Indices 1 2 3 4 5 6 
#
# 1 0.018917 -0.006383 -0.003164 0.000000 0.000000 0.000000
# 2 -0.006383 0.018920 -0.003165 0.000000 0.000000 0.000000
# 3 -0.003164 -0.003165 0.013176 0.000000 0.000000 0.000000
# 4 0.000000 0.000000 0.000000 0.235305 0.000000 0.000000
# 5 0.000000 0.000000 0.000000 0.000000 0.235038 0.000000
# 6 0.000000 0.000000 0.000000 0.000000 0.000000 0.042483
#
#
# Mechanical properties :
#
#
# Convention : Reuss Voigt Hill
#
# Bulk Modulus (GPa) = 39.07917 39.46041 39.26979
# Shear Modulus (GPa) = 8.36413 16.23806 12.30109
#
# Velocity S-wave (km/s) = 1.94162 2.70534 2.35465
# Velocity P-wave (km/s) = 4.75819 5.24826 5.00922
#
# Compressibility (1/GPa) = 0.02558908
#
# Stress axis : x y z
#
# Youngs Moduli (GPa) = 52.86320 52.85516 75.89768
#
# Poissons Ratio (x) = 0.33736 0.24014
# Poissons Ratio (y) = 0.33741 0.24020
# Poissons Ratio (z) = 0.16726 0.16728
#
# Static dielectric constant tensor:
#      x y z
#    x 1.852180 0.000000 0.000000 
#    y 0.000000 1.852190 0.000000 
#    z 0.000000 0.000000 1.845900 
# 
# From -- ./inp_files/5126.got.cif
#   From: 2010.05.17/outbox.cif.g08.bks.cpg/sg141_3_cif.got.tgz:5126.got - 2010.05.20 13:30:51.
