data_PCOD9572460
_publ_section_title
;
Structure prediction by ZEFSAII (Michael W. Deem and Ramdas Pophale) SiO2 
 PCOD9572460
Probable space group: I 4/M C M
;
_chemical_formula_sum "Si O2"
_cell_formula_units_Z 176
_cell_length_a 24.166682
_cell_length_b 24.166682
_cell_length_c 16.075616
_cell_angle_alpha 90.000000
_cell_angle_beta 90.000000
_cell_angle_gamma 90.000000
_cell_volume 9388.618203
_symmetry_space_group_name_H-M "I 4/M C M"
_symmetry_group_IT_number 140
_symmetry_cell_setting 'tetragonal'
loop_
_space_group_symop_operation_xyz
x,y,z
-y,x,z
-x,-y,z
y,-x,z
x,-y,1/2-z
-x,y,1/2-z
y,x,1/2-z
-y,-x,1/2-z
-x,-y,-z
y,-x,-z
x,y,-z
-y,x,-z
-x,y,1/2+z
x,-y,1/2+z
-y,-x,1/2+z
y,x,1/2+z
1/2+x,1/2+y,1/2+z
1/2-y,1/2+x,1/2+z
1/2-x,1/2-y,1/2+z
1/2+y,1/2-x,1/2+z
1/2+x,1/2-y,-z
1/2-x,1/2+y,-z
1/2+y,1/2+x,-z
1/2-y,1/2-x,-z
1/2-x,1/2-y,1/2-z
1/2+y,1/2-x,1/2-z
1/2+x,1/2+y,1/2-z
1/2-y,1/2+x,1/2-z
1/2-x,1/2+y,z
1/2+x,1/2-y,z
1/2-y,1/2-x,z
1/2+y,1/2+x,z
loop_
_atom_site_type_symbol
_atom_site_label
_atom_site_fract_x
_atom_site_fract_y
_atom_site_fract_z
Si Si1 0.016175 0.730950 0.097281
Si Si2 0.209917 0.376739 0.701248
Si Si3 0.546172 0.865058 0.317638
Si Si4 0.823823 0.823823 0.250000
Si Si5 0.884127 0.120102 0.905850
Si Si6 0.347501 0.504701 0.347576
O O1 0.077735 0.730044 0.135476
O O2 0.985273 0.781685 0.142634
O O3 0.986390 0.672737 0.116488
O O4 0.016924 0.741956 0.000000
O O5 0.165559 0.334442 0.663352
O O6 0.177263 0.412322 0.770557
O O7 0.260174 0.341363 0.738911
O O8 0.500000 0.883282 0.250000
O O9 0.583309 0.916692 0.346886
O O10 0.853136 0.847540 0.167230
O O11 0.946736 0.139327 0.890816
O O12 0.879408 0.054611 0.890402
O O13 0.866612 0.133717 0.000000
O O14 0.361031 0.500000 0.250000
#
# Coordination Sequence:
#
# PCOD9572460 Si02
#       6
#    32  32  32  16  32  32
#     4  11  21  36  60  87 121 160 202 253 311 374
#     4  10  21  37  59  85 116 156 199 249 308 370
#     4   9  19  36  58  85 117 156 202 250 307 374
#     4  12  21  38  62  87 120 156 208 254 305 370
#     4  12  24  38  60  87 119 157 203 255 307 364
#     4  12  22  41  59  85 116 161 205 251 308 371
#
# _framework density 18.746103000000002
#
# number of rings (size 3 to 8) (size 9 to 14) (size 15 to 20)
#    0.000    1.091    3.636    4.636    0.000    1.273 
#    0.000    1.818    0.000    2.727    0.000    5.091 
#    0.000    0.000    0.000    0.000    0.000    0.000 
#
# Total GULP energy -491398.170045 kJ/mol
# GULP energy per Si atom -5584.070114 kJ/mol
# Density = 1.870344 g / cm^3
# Si number density = 18.746103 Si / 1000 Ang^3
#
#
#
# Elastic Constant Matrix: (Units=GPa)
#
#
# Indices 1 2 3 4 5 6 
#
# 1 70.5389 49.1095 7.8540 0.0000 0.0000 0.0000
# 2 49.1095 70.5389 7.8540 0.0000 0.0000 0.0000
# 3 7.8540 7.8540 97.8521 0.0000 0.0000 0.0000
# 4 0.0000 0.0000 0.0000 8.4395 0.0000 0.0000
# 5 0.0000 0.0000 0.0000 0.0000 8.4395 0.0000
# 6 0.0000 0.0000 0.0000 0.0000 0.0000 46.3095
#
#
#
# Elastic Compliance Matrix: (Units=1/GPa)
#
#
# Indices 1 2 3 4 5 6 
#
# 1 0.027556 -0.019109 -0.000678 0.000000 0.000000 0.000000
# 2 -0.019109 0.027556 -0.000678 0.000000 0.000000 0.000000
# 3 -0.000678 -0.000678 0.010328 0.000000 0.000000 0.000000
# 4 0.000000 0.000000 0.000000 0.118491 0.000000 0.000000
# 5 0.000000 0.000000 0.000000 0.000000 0.118491 0.000000
# 6 0.000000 0.000000 0.000000 0.000000 0.000000 0.021594
#
#
# Mechanical properties :
#
#
# Convention : Reuss Voigt Hill
#
# Bulk Modulus (GPa) = 40.79953 40.95166 40.87559
# Shear Modulus (GPa) = 13.40067 24.24518 18.82293
#
# Velocity S-wave (km/s) = 2.67657 3.60021 3.17219
# Velocity P-wave (km/s) = 5.60032 6.25898 5.93879
#
# Compressibility (1/GPa) = 0.02451009
#
# Stress axis : x y z
#
# Youngs Moduli (GPa) = 36.28998 36.28998 96.82099
#
# Poissons Ratio (x) = 0.69346 0.06564
# Poissons Ratio (y) = 0.69346 0.06564
# Poissons Ratio (z) = 0.02460 0.02460
#
# Static dielectric constant tensor:
#      x y z
#    x 1.656230 0.000000 0.000000 
#    y 0.000000 1.656230 0.000000 
#    z 0.000000 0.000000 1.629500 
# 
# From -- ./inp_files/4960.got.cif
#   From: 2010.05.17/outbox.cif.g08.bks.cpg/sg140_3_cif.got.tgz:4960.got - 2010.06.21 00:45:31.
