data_PCOD9572221
_publ_section_title
;
Structure prediction by ZEFSAII (Michael W. Deem and Ramdas Pophale) SiO2 
 PCOD9572221
Probable space group: I 4/M C M
;
_chemical_formula_sum "Si O2"
_cell_formula_units_Z 96
_cell_length_a 24.291907
_cell_length_b 24.291907
_cell_length_c 8.675541
_cell_angle_alpha 90.000000
_cell_angle_beta 90.000000
_cell_angle_gamma 90.000000
_cell_volume 5119.408511
_symmetry_space_group_name_H-M "I 4/M C M"
_symmetry_group_IT_number 140
_symmetry_cell_setting 'tetragonal'
loop_
_space_group_symop_operation_xyz
x,y,z
-y,x,z
-x,-y,z
y,-x,z
x,-y,1/2-z
-x,y,1/2-z
y,x,1/2-z
-y,-x,1/2-z
-x,-y,-z
y,-x,-z
x,y,-z
-y,x,-z
-x,y,1/2+z
x,-y,1/2+z
-y,-x,1/2+z
y,x,1/2+z
1/2+x,1/2+y,1/2+z
1/2-y,1/2+x,1/2+z
1/2-x,1/2-y,1/2+z
1/2+y,1/2-x,1/2+z
1/2+x,1/2-y,-z
1/2-x,1/2+y,-z
1/2+y,1/2+x,-z
1/2-y,1/2-x,-z
1/2-x,1/2-y,1/2-z
1/2+y,1/2-x,1/2-z
1/2+x,1/2+y,1/2-z
1/2-y,1/2+x,1/2-z
1/2-x,1/2+y,z
1/2+x,1/2-y,z
1/2-y,1/2-x,z
1/2+y,1/2+x,z
loop_
_atom_site_type_symbol
_atom_site_label
_atom_site_fract_x
_atom_site_fract_y
_atom_site_fract_z
Si Si1 0.852124 0.647877 0.677556
Si Si2 0.559007 0.645592 0.814470
Si Si3 0.939868 0.269300 0.314824
Si Si4 0.444127 0.944127 0.672755
O O1 0.837538 0.662463 0.500000
O O2 0.885666 0.697116 0.759957
O O3 0.898655 0.601346 0.674902
O O4 0.500000 0.625884 0.750000
O O5 0.606574 0.606574 0.750000
O O6 0.565968 0.707401 0.749527
O O7 0.558612 0.646535 0.000000
O O8 0.943030 0.270011 0.500000
O O9 0.000000 0.289323 0.250000
O O10 0.500000 0.924699 0.750000
O O11 0.457858 0.957858 0.500000
#
# Coordination Sequence:
#
# PCOD9572221 Si02
#       4
#    16  32  32  16
#     4  11  22  36  54  79 108 147 196 245 290 343
#     4  11  22  40  64  92 123 156 191 233 284 343
#     4  11  22  38  59  85 116 155 197 243 294 347
#     4  10  20  31  46  67  97 133 176 229 289 342
#
# _framework density 18.752165999999999
#
# number of rings (size 3 to 8) (size 9 to 14) (size 15 to 20)
#    0.000    1.167    0.000   10.500    0.000    5.667 
#    0.000    2.500    0.000    0.000    0.000    0.000 
#    0.000    0.000    0.000    0.000    0.000    0.000 
#
# Total GULP energy -267936.463134 kJ/mol
# GULP energy per Si atom -5582.009649 kJ/mol
# Density = 1.870948 g / cm^3
# Si number density = 18.752166 Si / 1000 Ang^3
#
#
#
# Elastic Constant Matrix: (Units=GPa)
#
#
# Indices 1 2 3 4 5 6 
#
# 1 97.0596 60.5461 54.8757 0.0000 0.0000 0.0000
# 2 60.5461 97.0594 54.8756 0.0000 0.0000 0.0000
# 3 54.8757 54.8756 213.5264 0.0000 0.0000 0.0000
# 4 0.0000 0.0000 0.0000 43.8232 0.0000 0.0000
# 5 0.0000 0.0000 0.0000 0.0000 43.8235 0.0000
# 6 0.0000 0.0000 0.0000 0.0000 0.0000 43.3580
#
#
#
# Elastic Compliance Matrix: (Units=1/GPa)
#
#
# Indices 1 2 3 4 5 6 
#
# 1 0.017558 -0.009830 -0.001986 0.000000 0.000000 0.000000
# 2 -0.009830 0.017558 -0.001986 0.000000 0.000000 0.000000
# 3 -0.001986 -0.001986 0.005704 0.000000 0.000000 0.000000
# 4 0.000000 0.000000 0.000000 0.022819 0.000000 0.000000
# 5 0.000000 0.000000 0.000000 0.000000 0.022819 0.000000
# 6 0.000000 0.000000 0.000000 0.000000 0.000000 0.023064
#
#
# Mechanical properties :
#
#
# Convention : Reuss Voigt Hill
#
# Bulk Modulus (GPa) = 75.66712 83.13781 79.40246
# Shear Modulus (GPa) = 35.32831 42.02414 38.67622
#
# Velocity S-wave (km/s) = 4.34517 4.73909 4.54640
# Velocity P-wave (km/s) = 8.10017 8.62418 8.36628
#
# Compressibility (1/GPa) = 0.01321578
#
# Stress axis : x y z
#
# Youngs Moduli (GPa) = 56.95550 56.95540 175.31275
#
# Poissons Ratio (x) = 0.55985 0.34818
# Poissons Ratio (y) = 0.55985 0.34818
# Poissons Ratio (z) = 0.11312 0.11312
#
# Static dielectric constant tensor:
#      x y z
#    x 1.650210 0.000000 0.000000 
#    y 0.000000 1.650210 0.000000 
#    z 0.000000 0.000000 1.663510 
# 
# From -- ./inp_files/962.got.cif
#   From: 2010.05.17/outbox.cif.g08.bks.cpg/sg140_1_cif.got.tgz:962.got - 2010.06.21 00:45:31.
