data_PCOD9572949
_publ_section_title
;
Structure prediction by ZEFSAII (Michael W. Deem and Ramdas Pophale) SiO2 
 PCOD9572949
Probable space group: I 41/A M D
;
_chemical_formula_sum "Si O2"
_cell_formula_units_Z 176
_cell_length_a 17.831063
_cell_length_b 17.831063
_cell_length_c 29.131192
_cell_angle_alpha 90.000000
_cell_angle_beta 90.000000
_cell_angle_gamma 90.000000
_cell_volume 9262.169501
_symmetry_space_group_name_H-M "I 41/A M D"
_symmetry_group_IT_number 141
_space_group.IT_coordinate_system_code '2'
_symmetry_cell_setting 'tetragonal'
loop_
_space_group_symop_operation_xyz
x,y,z
1/4-y,3/4+x,1/4+z
-x,1/2-y,z
1/4+y,1/4-x,3/4+z
x,-y,-z
-x,1/2+y,-z
1/4+y,3/4+x,1/4-z
1/4-y,1/4-x,3/4-z
-x,-y,-z
3/4+y,1/4-x,3/4-z
x,1/2+y,-z
3/4-y,3/4+x,1/4-z
-x,y,z
x,1/2-y,z
3/4-y,1/4-x,3/4+z
3/4+y,3/4+x,1/4+z
1/2+x,1/2+y,1/2+z
3/4-y,1/4+x,3/4+z
1/2-x,-y,1/2+z
3/4+y,3/4-x,1/4+z
1/2+x,1/2-y,1/2-z
1/2-x,y,1/2-z
3/4+y,1/4+x,3/4-z
3/4-y,3/4-x,1/4-z
1/2-x,1/2-y,1/2-z
1/4+y,3/4-x,1/4-z
1/2+x,y,1/2-z
1/4-y,1/4+x,3/4-z
1/2-x,1/2+y,1/2+z
1/2+x,-y,1/2+z
1/4-y,3/4-x,1/4+z
1/4+y,1/4+x,3/4+z
loop_
_atom_site_type_symbol
_atom_site_label
_atom_site_fract_x
_atom_site_fract_y
_atom_site_fract_z
Si Si1 0.846729 0.840511 0.931910
Si Si2 0.828991 0.339767 0.417108
Si Si3 0.917765 0.339694 0.159873
Si Si4 0.664996 0.087119 0.988182
Si Si5 0.089156 0.339156 0.875000
Si Si6 0.409018 0.575080 0.282366
O O1 0.852061 0.750000 0.931434
O O2 0.760015 0.858241 0.920035
O O3 0.897836 0.869619 0.890728
O O4 0.864615 0.863066 0.984105
O O5 0.868751 0.381250 0.375000
O O6 0.836820 0.250000 0.413150
O O7 0.859685 0.368756 0.465960
O O8 0.920976 0.250000 0.157075
O O9 0.854714 0.360451 0.196243
O O10 0.000000 0.367572 0.174785
O O11 0.744238 0.120969 0.971645
O O12 0.671066 0.000000 0.000000
O O13 0.100799 0.250000 0.868481
O O14 0.112258 0.382425 0.828821
O O15 0.500000 0.567180 0.282087
#
# Coordination Sequence:
#
# PCOD9572949 Si02
#       6
#    32  32  32  32  16  32
#     4   8  16  32  52  73 104 143 177 220 274 327
#     4  10  20  35  54  77 107 142 185 232 285 338
#     4  10  20  34  54  81 108 139 186 237 286 337
#     4  11  22  37  56  79 110 152 189 230 278 340
#     4   9  18  34  60  90 116 148 188 231 280 332
#     4   9  18  36  57  81 116 151 187 228 276 332
#
# _framework density 19.002027999999999
#
# number of rings (size 3 to 8) (size 9 to 14) (size 15 to 20)
#    0.000    2.455    0.000    3.818    0.000    2.000 
#    8.182    3.636    0.000    0.545    0.000    0.000 
#    0.000    0.000    0.000    0.000    0.000    0.000 
#
# Total GULP energy -490641.910971 kJ/mol
# GULP energy per Si atom -5575.476261 kJ/mol
# Density = 1.895878 g / cm^3
# Si number density = 19.002028 Si / 1000 Ang^3
#
#
#
# Elastic Constant Matrix: (Units=GPa)
#
#
# Indices 1 2 3 4 5 6 
#
# 1 42.8333 25.6023 54.4493 0.0000 0.0000 0.0000
# 2 25.6023 42.8318 54.4501 0.0000 0.0000 0.0000
# 3 54.4493 54.4501 179.4290 0.0000 0.0000 0.0000
# 4 0.0000 0.0000 0.0000 8.9317 0.0000 0.0000
# 5 0.0000 0.0000 0.0000 0.0000 8.9394 0.0000
# 6 0.0000 0.0000 0.0000 0.0000 0.0000 19.1110
#
#
#
# Elastic Compliance Matrix: (Units=1/GPa)
#
#
# Indices 1 2 3 4 5 6 
#
# 1 0.043146 -0.014890 -0.008575 0.000000 0.000000 0.000000
# 2 -0.014890 0.043149 -0.008576 0.000000 0.000000 0.000000
# 3 -0.008575 -0.008576 0.010778 0.000000 0.000000 0.000000
# 4 0.000000 0.000000 0.000000 0.111961 0.000000 0.000000
# 5 0.000000 0.000000 0.000000 0.000000 0.111864 0.000000
# 6 0.000000 0.000000 0.000000 0.000000 0.000000 0.052326
#
#
# Mechanical properties :
#
#
# Convention : Reuss Voigt Hill
#
# Bulk Modulus (GPa) = 30.30947 59.34417 44.82682
# Shear Modulus (GPa) = 11.15319 16.10258 13.62789
#
# Velocity S-wave (km/s) = 2.42533 2.91420 2.68093
# Velocity P-wave (km/s) = 4.88142 6.52852 5.76411
#
# Compressibility (1/GPa) = 0.03299299
#
# Stress axis : x y z
#
# Youngs Moduli (GPa) = 23.17708 23.17530 92.78385
#
# Poissons Ratio (x) = 0.34507 0.79558
# Poissons Ratio (y) = 0.34510 0.79570
# Poissons Ratio (z) = 0.19873 0.19875
#
# Static dielectric constant tensor:
#      x y z
#    x 1.664190 0.000000 0.000000 
#    y 0.000000 1.664190 0.000000 
#    z 0.000000 0.000000 1.685070 
# 
# From -- ./inp_files/12891.got.cif
#   From: 2010.05.17/outbox.cif.g08.bks.cpg/sg141_7_cif.got.tgz:12891.got - 2010.05.20 13:30:51.
