data_PCOD9572768
_publ_section_title
;
Structure prediction by ZEFSAII (Michael W. Deem and Ramdas Pophale) SiO2 
 PCOD9572768
Probable space group: I 41/A M D
;
_chemical_formula_sum "Si O2"
_cell_formula_units_Z 160
_cell_length_a 22.916733
_cell_length_b 22.916733
_cell_length_c 14.745141
_cell_angle_alpha 90.000000
_cell_angle_beta 90.000000
_cell_angle_gamma 90.000000
_cell_volume 7743.803775
_symmetry_space_group_name_H-M "I 41/A M D"
_symmetry_group_IT_number 141
_space_group.IT_coordinate_system_code '2'
_symmetry_cell_setting 'tetragonal'
loop_
_space_group_symop_operation_xyz
x,y,z
1/4-y,3/4+x,1/4+z
-x,1/2-y,z
1/4+y,1/4-x,3/4+z
x,-y,-z
-x,1/2+y,-z
1/4+y,3/4+x,1/4-z
1/4-y,1/4-x,3/4-z
-x,-y,-z
3/4+y,1/4-x,3/4-z
x,1/2+y,-z
3/4-y,3/4+x,1/4-z
-x,y,z
x,1/2-y,z
3/4-y,1/4-x,3/4+z
3/4+y,3/4+x,1/4+z
1/2+x,1/2+y,1/2+z
3/4-y,1/4+x,3/4+z
1/2-x,-y,1/2+z
3/4+y,3/4-x,1/4+z
1/2+x,1/2-y,1/2-z
1/2-x,y,1/2-z
3/4+y,1/4+x,3/4-z
3/4-y,3/4-x,1/4-z
1/2-x,1/2-y,1/2-z
1/4+y,3/4-x,1/4-z
1/2+x,y,1/2-z
1/4-y,1/4+x,3/4-z
1/2-x,1/2+y,1/2+z
1/2+x,-y,1/2+z
1/4-y,3/4-x,1/4+z
1/4+y,1/4+x,3/4+z
loop_
_atom_site_type_symbol
_atom_site_label
_atom_site_fract_x
_atom_site_fract_y
_atom_site_fract_z
Si Si1 0.195066 0.750000 0.188388
Si Si2 0.121923 0.937514 0.691884
Si Si3 0.000000 0.820440 0.266312
Si Si4 0.262534 0.250000 0.001871
Si Si5 0.629134 0.060542 0.904566
Si Si6 0.124677 0.134558 0.779668
Si Si7 0.165530 0.250000 0.159376
O O1 0.250000 0.750000 0.250000
O O2 0.159269 0.805965 0.218247
O O3 0.222796 0.750000 0.087978
O O4 0.132743 0.882743 0.625000
O O5 0.057943 0.948852 0.733903
O O6 0.165594 0.927117 0.776064
O O7 0.134838 0.994207 0.629327
O O8 0.943248 0.846792 0.218070
O O9 0.000000 0.850695 0.365900
O O10 0.000000 0.750000 0.266899
O O11 0.213722 0.250000 0.079833
O O12 0.632075 0.097411 0.810893
O O13 0.564508 0.072422 0.949595
O O14 0.143939 0.106062 0.875000
#
# Coordination Sequence:
#
# PCOD9572768 Si02
#       7
#    16  32  16  16  32  32  16
#     4  12  22  35  56  85 123 168 199 233 303 374
#     4  11  23  44  69  92 120 162 211 267 319 370
#     4  10  18  30  51  89 125 163 212 251 295 366
#     4  10  22  43  61  87 123 159 212 254 302 389
#     4  10  22  41  64  93 127 162 210 257 312 377
#     4  11  21  35  56  87 128 169 205 249 302 368
#     4   8  18  37  60  83 122 161 201 252 304 365
#
# _framework density 20.66168
#
# number of rings (size 3 to 8) (size 9 to 14) (size 15 to 20)
#    0.000    1.600    1.000    6.000    0.000    0.800 
#    1.800   14.000    0.000    1.500    0.000    0.000 
#    0.000    0.000    0.000    0.000    0.000    0.000 
#
# Total GULP energy -446184.723626 kJ/mol
# GULP energy per Si atom -5577.309045 kJ/mol
# Density = 2.061465 g / cm^3
# Si number density = 20.661680 Si / 1000 Ang^3
#
#
#
# Elastic Constant Matrix: (Units=GPa)
#
#
# Indices 1 2 3 4 5 6 
#
# 1 98.4115 52.4642 40.0484 0.0000 0.0000 0.0000
# 2 52.4642 98.4118 40.0483 0.0000 0.0000 0.0000
# 3 40.0484 40.0483 68.2391 0.0000 0.0000 0.0000
# 4 0.0000 0.0000 0.0000 28.4013 0.0000 0.0000
# 5 0.0000 0.0000 0.0000 0.0000 28.4013 0.0000
# 6 0.0000 0.0000 0.0000 0.0000 0.0000 27.9938
#
#
#
# Elastic Compliance Matrix: (Units=1/GPa)
#
#
# Indices 1 2 3 4 5 6 
#
# 1 0.015696 -0.006068 -0.005650 0.000000 0.000000 0.000000
# 2 -0.006068 0.015696 -0.005650 0.000000 0.000000 0.000000
# 3 -0.005650 -0.005650 0.021286 0.000000 0.000000 0.000000
# 4 0.000000 0.000000 0.000000 0.035210 0.000000 0.000000
# 5 0.000000 0.000000 0.000000 0.000000 0.035210 0.000000
# 6 0.000000 0.000000 0.000000 0.000000 0.000000 0.035722
#
#
# Mechanical properties :
#
#
# Convention : Reuss Voigt Hill
#
# Bulk Modulus (GPa) = 55.73965 58.90936 57.32451
# Shear Modulus (GPa) = 25.05799 25.79270 25.42535
#
# Velocity S-wave (km/s) = 3.48627 3.53701 3.51173
# Velocity P-wave (km/s) = 6.57581 6.72710 6.65189
#
# Compressibility (1/GPa) = 0.01794055
#
# Stress axis : x y z
#
# Youngs Moduli (GPa) = 63.71124 63.71157 46.97827
#
# Poissons Ratio (x) = 0.38662 0.26544
# Poissons Ratio (y) = 0.38661 0.26544
# Poissons Ratio (z) = 0.35999 0.35998
#
# Static dielectric constant tensor:
#      x y z
#    x 1.724690 0.000000 0.000000 
#    y 0.000000 1.724690 0.000000 
#    z 0.000000 0.000000 1.779220 
# 
# From -- ./inp_files/8737.got.cif
#   From: 2010.05.17/outbox.cif.g08.bks.cpg/sg141_5_cif.got.tgz:8737.got - 2010.05.20 13:30:51.
