data_PCOD9572542
_publ_section_title
;
Structure prediction by ZEFSAII (Michael W. Deem and Ramdas Pophale) SiO2 
 PCOD9572542
Probable space group: I 4/M C M
;
_chemical_formula_sum "Si O2"
_cell_formula_units_Z 128
_cell_length_a 20.551573
_cell_length_b 20.551573
_cell_length_c 15.952112
_cell_angle_alpha 90.000000
_cell_angle_beta 90.000000
_cell_angle_gamma 90.000000
_cell_volume 6737.648126
_symmetry_space_group_name_H-M "I 4/M C M"
_symmetry_group_IT_number 140
_symmetry_cell_setting 'tetragonal'
loop_
_space_group_symop_operation_xyz
x,y,z
-y,x,z
-x,-y,z
y,-x,z
x,-y,1/2-z
-x,y,1/2-z
y,x,1/2-z
-y,-x,1/2-z
-x,-y,-z
y,-x,-z
x,y,-z
-y,x,-z
-x,y,1/2+z
x,-y,1/2+z
-y,-x,1/2+z
y,x,1/2+z
1/2+x,1/2+y,1/2+z
1/2-y,1/2+x,1/2+z
1/2-x,1/2-y,1/2+z
1/2+y,1/2-x,1/2+z
1/2+x,1/2-y,-z
1/2-x,1/2+y,-z
1/2+y,1/2+x,-z
1/2-y,1/2-x,-z
1/2-x,1/2-y,1/2-z
1/2+y,1/2-x,1/2-z
1/2+x,1/2+y,1/2-z
1/2-y,1/2+x,1/2-z
1/2-x,1/2+y,z
1/2+x,1/2-y,z
1/2-y,1/2-x,z
1/2+y,1/2+x,z
loop_
_atom_site_type_symbol
_atom_site_label
_atom_site_fract_x
_atom_site_fract_y
_atom_site_fract_z
Si Si1 0.471887 0.395290 0.401887
Si Si2 0.942513 0.333093 0.683808
Si Si3 0.277000 0.328571 0.000000
Si Si4 0.621275 0.695432 0.676649
Si Si5 0.559606 0.165998 0.000000
O O1 0.543748 0.423252 0.388588
O O2 0.467585 0.375525 0.500000
O O3 0.447789 0.339279 0.341280
O O4 0.896851 0.396851 0.688895
O O5 0.894971 0.270676 0.693668
O O6 0.973250 0.328274 0.590005
O O7 0.000000 0.333327 0.750000
O O8 0.312638 0.340226 0.088106
O O9 0.239695 0.260306 0.000000
O O10 0.221609 0.384791 0.000000
O O11 0.660796 0.660796 0.750000
O O12 0.597944 0.097944 0.000000
#
# Coordination Sequence:
#
# PCOD9572542 Si02
#       5
#    32  32  16  32  16
#     4   9  19  36  57  84 121 161 202 244 289 343
#     4  10  22  40  62  89 119 153 196 246 296 353
#     4   9  18  36  55  77 112 155 194 237 290 349
#     4  11  22  35  60  89 117 155 200 241 295 354
#     4   7  14  34  60  81 107 150 191 227 285 357
#
# _framework density 18.997726
#
# number of rings (size 3 to 8) (size 9 to 14) (size 15 to 20)
#    0.000    2.500    1.250    3.000    3.500    2.250 
#    0.000    3.125    0.000    2.250    0.000    0.000 
#    0.000    0.000    0.000    0.000    0.000    0.000 
#
# Total GULP energy -356839.128622 kJ/mol
# GULP energy per Si atom -5575.611385 kJ/mol
# Density = 1.895449 g / cm^3
# Si number density = 18.997726 Si / 1000 Ang^3
#
#
#
# Elastic Constant Matrix: (Units=GPa)
#
#
# Indices 1 2 3 4 5 6 
#
# 1 44.5197 9.7491 37.9630 0.0000 0.0000 0.0000
# 2 9.7491 44.5199 37.9645 0.0000 0.0000 0.0000
# 3 37.9630 37.9645 144.1699 0.0000 0.0000 0.0000
# 4 0.0000 0.0000 0.0000 27.7467 0.0000 0.0000
# 5 0.0000 0.0000 0.0000 0.0000 27.7474 0.0000
# 6 0.0000 0.0000 0.0000 0.0000 0.0000 21.5740
#
#
#
# Elastic Compliance Matrix: (Units=1/GPa)
#
#
# Indices 1 2 3 4 5 6 
#
# 1 0.028968 0.000208 -0.007682 0.000000 0.000000 0.000000
# 2 0.000208 0.028968 -0.007683 0.000000 0.000000 0.000000
# 3 -0.007682 -0.007683 0.010982 0.000000 0.000000 0.000000
# 4 0.000000 0.000000 0.000000 0.036040 0.000000 0.000000
# 5 0.000000 0.000000 0.000000 0.000000 0.036039 0.000000
# 6 0.000000 0.000000 0.000000 0.000000 0.000000 0.046352
#
#
# Mechanical properties :
#
#
# Convention : Reuss Voigt Hill
#
# Bulk Modulus (GPa) = 25.90487 44.95140 35.42814
# Shear Modulus (GPa) = 21.68893 25.24915 23.46904
#
# Velocity S-wave (km/s) = 3.38251 3.64958 3.51858
# Velocity P-wave (km/s) = 5.37778 6.43989 5.93265
#
# Compressibility (1/GPa) = 0.03860277
#
# Stress axis : x y z
#
# Youngs Moduli (GPa) = 34.52142 34.52089 91.05497
#
# Poissons Ratio (x) = -0.00718 0.69953
# Poissons Ratio (y) = -0.00718 0.69957
# Poissons Ratio (z) = 0.26521 0.26522
#
# Static dielectric constant tensor:
#      x y z
#    x 1.658550 0.000000 0.000000 
#    y 0.000000 1.658550 0.000000 
#    z 0.000000 0.000000 1.700670 
# 
# From -- ./inp_files/4383.got.cif
#   From: 2010.05.17/outbox.cif.g08.bks.cpg/sg140_3_cif.got.tgz:4383.got - 2010.06.21 00:45:31.
