data_PCOD9572944
_publ_section_title
;
Structure prediction by ZEFSAII (Michael W. Deem and Ramdas Pophale) SiO2 
 PCOD9572944
Probable space group: I 41/A M D
;
_chemical_formula_sum "Si O2"
_cell_formula_units_Z 176
_cell_length_a 17.755018
_cell_length_b 17.755018
_cell_length_c 27.900132
_cell_angle_alpha 90.000000
_cell_angle_beta 90.000000
_cell_angle_gamma 90.000000
_cell_volume 8795.256142
_symmetry_space_group_name_H-M "I 41/A M D"
_symmetry_group_IT_number 141
_space_group.IT_coordinate_system_code '2'
_symmetry_cell_setting 'tetragonal'
loop_
_space_group_symop_operation_xyz
x,y,z
1/4-y,3/4+x,1/4+z
-x,1/2-y,z
1/4+y,1/4-x,3/4+z
x,-y,-z
-x,1/2+y,-z
1/4+y,3/4+x,1/4-z
1/4-y,1/4-x,3/4-z
-x,-y,-z
3/4+y,1/4-x,3/4-z
x,1/2+y,-z
3/4-y,3/4+x,1/4-z
-x,y,z
x,1/2-y,z
3/4-y,1/4-x,3/4+z
3/4+y,3/4+x,1/4+z
1/2+x,1/2+y,1/2+z
3/4-y,1/4+x,3/4+z
1/2-x,-y,1/2+z
3/4+y,3/4-x,1/4+z
1/2+x,1/2-y,1/2-z
1/2-x,y,1/2-z
3/4+y,1/4+x,3/4-z
3/4-y,3/4-x,1/4-z
1/2-x,1/2-y,1/2-z
1/4+y,3/4-x,1/4-z
1/2+x,y,1/2-z
1/4-y,1/4+x,3/4-z
1/2-x,1/2+y,1/2+z
1/2+x,-y,1/2+z
1/4-y,3/4-x,1/4+z
1/4+y,1/4+x,3/4+z
loop_
_atom_site_type_symbol
_atom_site_label
_atom_site_fract_x
_atom_site_fract_y
_atom_site_fract_z
Si Si1 0.855506 0.839391 0.933575
Si Si2 0.816880 0.340361 0.414904
Si Si3 0.920270 0.340217 0.162064
Si Si4 0.677156 0.085666 0.986112
Si Si5 0.090216 0.340216 0.875000
Si Si6 0.331384 0.604216 0.277544
O O1 0.851260 0.750000 0.932177
O O2 0.771213 0.865455 0.918430
O O3 0.911166 0.865766 0.892396
O O4 0.880742 0.862724 0.985886
O O5 0.863436 0.386565 0.375000
O O6 0.821369 0.250000 0.406718
O O7 0.843229 0.362102 0.468496
O O8 0.918711 0.250000 0.163236
O O9 0.854271 0.373290 0.192747
O O10 0.000000 0.367098 0.182053
O O11 0.763906 0.094358 0.970035
O O12 0.667416 0.000000 0.000000
O O13 0.100814 0.250000 0.885597
O O14 0.143599 0.361449 0.828869
O O15 0.250000 0.615346 0.250000
#
# Coordination Sequence:
#
# PCOD9572944 Si02
#       6
#    32  32  32  32  16  32
#     4   9  19  37  57  80 117 159 198 246 306 369
#     4  10  20  34  53  79 112 154 200 248 311 377
#     4  10  21  35  55  85 116 153 204 257 308 367
#     4  10  21  38  59  85 118 159 200 259 313 372
#     4  11  26  46  68  98 138 176 210 259 324 386
#     4  10  23  41  64  97 125 162 213 261 310 372
#
# _framework density 20.010787000000001
#
# number of rings (size 3 to 8) (size 9 to 14) (size 15 to 20)
#    0.000    2.091    0.000    2.182    2.545    4.545 
#    3.273    1.818    0.000    0.000    0.000    0.000 
#    0.000    0.000    0.000    0.000    0.000    0.000 
#
# Total GULP energy -490259.224943 kJ/mol
# GULP energy per Si atom -5571.127556 kJ/mol
# Density = 1.996524 g / cm^3
# Si number density = 20.010787 Si / 1000 Ang^3
#
#
#
# Elastic Constant Matrix: (Units=GPa)
#
#
# Indices 1 2 3 4 5 6 
#
# 1 32.6606 23.7816 37.7949 0.0000 0.0000 0.0000
# 2 23.7816 32.6592 37.7959 0.0000 0.0000 0.0000
# 3 37.7949 37.7959 126.8597 0.0000 0.0000 0.0000
# 4 0.0000 0.0000 0.0000 30.6122 0.0000 0.0000
# 5 0.0000 0.0000 0.0000 0.0000 30.6124 0.0000
# 6 0.0000 0.0000 0.0000 0.0000 0.0000 16.4874
#
#
#
# Elastic Compliance Matrix: (Units=1/GPa)
#
#
# Indices 1 2 3 4 5 6 
#
# 1 0.071054 -0.041577 -0.008782 0.000000 0.000000 0.000000
# 2 -0.041577 0.071061 -0.008785 0.000000 0.000000 0.000000
# 3 -0.008782 -0.008785 0.013116 0.000000 0.000000 0.000000
# 4 0.000000 0.000000 0.000000 0.032667 0.000000 0.000000
# 5 0.000000 0.000000 0.000000 0.000000 0.032667 0.000000
# 6 0.000000 0.000000 0.000000 0.000000 0.000000 0.060652
#
#
# Mechanical properties :
#
#
# Convention : Reuss Voigt Hill
#
# Bulk Modulus (GPa) = 27.06746 43.43604 35.25175
# Shear Modulus (GPa) = 12.14128 21.72952 16.93540
#
# Velocity S-wave (km/s) = 2.46587 3.29886 2.91230
# Velocity P-wave (km/s) = 4.65437 6.02191 5.38176
#
# Compressibility (1/GPa) = 0.03694473
#
# Stress axis : x y z
#
# Youngs Moduli (GPa) = 14.07379 14.07244 76.24111
#
# Poissons Ratio (x) = 0.58509 0.66953
# Poissons Ratio (y) = 0.58514 0.66975
# Poissons Ratio (z) = 0.12359 0.12362
#
# Static dielectric constant tensor:
#      x y z
#    x 1.729420 0.000000 0.000000 
#    y 0.000000 1.729420 0.000000 
#    z 0.000000 0.000000 1.703250 
# 
# From -- ./inp_files/12890.got.cif
#   From: 2010.05.17/outbox.cif.g08.bks.cpg/sg141_7_cif.got.tgz:12890.got - 2010.05.20 13:30:51.
