data_PCOD9572742
_publ_section_title
;
Structure prediction by ZEFSAII (Michael W. Deem and Ramdas Pophale) SiO2 
 PCOD9572742
Probable space group: I 41/A M D
;
_chemical_formula_sum "Si O2"
_cell_formula_units_Z 144
_cell_length_a 31.620726
_cell_length_b 31.620726
_cell_length_c 8.447796
_cell_angle_alpha 90.000000
_cell_angle_beta 90.000000
_cell_angle_gamma 90.000000
_cell_volume 8446.700429
_symmetry_space_group_name_H-M "I 41/A M D"
_symmetry_group_IT_number 141
_space_group.IT_coordinate_system_code '2'
_symmetry_cell_setting 'tetragonal'
loop_
_space_group_symop_operation_xyz
x,y,z
1/4-y,3/4+x,1/4+z
-x,1/2-y,z
1/4+y,1/4-x,3/4+z
x,-y,-z
-x,1/2+y,-z
1/4+y,3/4+x,1/4-z
1/4-y,1/4-x,3/4-z
-x,-y,-z
3/4+y,1/4-x,3/4-z
x,1/2+y,-z
3/4-y,3/4+x,1/4-z
-x,y,z
x,1/2-y,z
3/4-y,1/4-x,3/4+z
3/4+y,3/4+x,1/4+z
1/2+x,1/2+y,1/2+z
3/4-y,1/4+x,3/4+z
1/2-x,-y,1/2+z
3/4+y,3/4-x,1/4+z
1/2+x,1/2-y,1/2-z
1/2-x,y,1/2-z
3/4+y,1/4+x,3/4-z
3/4-y,3/4-x,1/4-z
1/2-x,1/2-y,1/2-z
1/4+y,3/4-x,1/4-z
1/2+x,y,1/2-z
1/4-y,1/4+x,3/4-z
1/2-x,1/2+y,1/2+z
1/2+x,-y,1/2+z
1/4-y,3/4-x,1/4+z
1/4+y,1/4+x,3/4+z
loop_
_atom_site_type_symbol
_atom_site_label
_atom_site_fract_x
_atom_site_fract_y
_atom_site_fract_z
Si Si1 0.797491 0.300858 0.912065
Si Si2 0.250000 0.946326 0.750000
Si Si3 0.798470 0.663640 0.414746
Si Si4 0.198867 0.199878 0.257415
Si Si5 0.321126 0.450045 0.458746
O O1 0.793628 0.250000 0.908925
O O2 0.817438 0.316283 0.746740
O O3 0.750151 0.320143 0.915353
O O4 0.817499 0.312607 0.082441
O O5 0.275900 0.974101 0.875000
O O6 0.285423 0.925794 0.642259
O O7 0.816787 0.676562 0.584856
O O8 0.798690 0.613770 0.388705
O O9 0.191634 0.250000 0.279016
O O10 0.250000 0.194140 0.250000
O O11 0.310380 0.500000 0.500000
O O12 0.323329 0.426672 0.625000
#
# Coordination Sequence:
#
# PCOD9572742 Si02
#       5
#    32  16  32  32  32
#     4   9  15  25  44  69  89 102 113 141 202 283
#     4  12  20  36  50  52  62  90 136 194 254 276
#     4  10  17  28  42  61  82 102 121 159 208 272
#     4   8  14  25  40  64  90 104 114 133 184 270
#     4  12  22  37  46  57  70  95 147 195 244 276
#
# _framework density 17.048076999999999
#
# number of rings (size 3 to 8) (size 9 to 14) (size 15 to 20)
#    0.000    2.000    5.556    4.000    0.000    0.000 
#   10.000    0.000    0.000    0.000    0.000    0.000 
#    0.000    0.000    0.000    0.000    0.000    0.000 
#
# Total GULP energy -400910.193550 kJ/mol
# GULP energy per Si atom -5568.197133 kJ/mol
# Density = 1.700928 g / cm^3
# Si number density = 17.048077 Si / 1000 Ang^3
#
#
#
# Elastic Constant Matrix: (Units=GPa)
#
#
# Indices 1 2 3 4 5 6 
#
# 1 35.3776 7.7457 28.4718 0.0000 0.0000 0.0000
# 2 7.7457 35.3773 28.4699 0.0000 0.0000 0.0000
# 3 28.4718 28.4699 191.7699 0.0000 0.0000 0.0000
# 4 0.0000 0.0000 0.0000 27.8023 0.0000 0.0000
# 5 0.0000 0.0000 0.0000 0.0000 27.8051 0.0000
# 6 0.0000 0.0000 0.0000 0.0000 0.0000 20.4748
#
#
#
# Elastic Compliance Matrix: (Units=1/GPa)
#
#
# Indices 1 2 3 4 5 6 
#
# 1 0.032517 -0.003673 -0.004282 0.000000 0.000000 0.000000
# 2 -0.003673 0.032517 -0.004282 0.000000 0.000000 0.000000
# 3 -0.004282 -0.004282 0.006486 0.000000 0.000000 0.000000
# 4 0.000000 0.000000 0.000000 0.035968 0.000000 0.000000
# 5 0.000000 0.000000 0.000000 0.000000 0.035965 0.000000
# 6 0.000000 0.000000 0.000000 0.000000 0.000000 0.048841
#
#
# Mechanical properties :
#
#
# Convention : Reuss Voigt Hill
#
# Bulk Modulus (GPa) = 21.25632 43.54441 32.40036
# Shear Modulus (GPa) = 21.50992 28.40558 24.95775
#
# Velocity S-wave (km/s) = 3.55592 4.08635 3.83033
# Velocity P-wave (km/s) = 5.41802 6.91823 6.21357
#
# Compressibility (1/GPa) = 0.04704484
#
# Stress axis : x y z
#
# Youngs Moduli (GPa) = 30.75289 30.75317 154.17561
#
# Poissons Ratio (x) = 0.11296 0.66025
# Poissons Ratio (y) = 0.11296 0.66019
# Poissons Ratio (z) = 0.13170 0.13169
#
# Static dielectric constant tensor:
#      x y z
#    x 1.570460 0.000000 0.000000 
#    y 0.000000 1.570460 0.000000 
#    z 0.000000 0.000000 1.727240 
# 
# From -- ./inp_files/3186.got.cif
#   From: 2010.05.17/outbox.cif.g08.bks.cpg/sg141_2_cif.got.tgz:3186.got - 2010.05.20 13:30:51.
