data_PCOD9572948
_publ_section_title
;
Structure prediction by ZEFSAII (Michael W. Deem and Ramdas Pophale) SiO2 
 PCOD9572948
Probable space group: I 41/A M D
;
_chemical_formula_sum "Si O2"
_cell_formula_units_Z 160
_cell_length_a 15.785210
_cell_length_b 15.785210
_cell_length_c 33.944746
_cell_angle_alpha 90.000000
_cell_angle_beta 90.000000
_cell_angle_gamma 90.000000
_cell_volume 8458.109264
_symmetry_space_group_name_H-M "I 41/A M D"
_symmetry_group_IT_number 141
_space_group.IT_coordinate_system_code '2'
_symmetry_cell_setting 'tetragonal'
loop_
_space_group_symop_operation_xyz
x,y,z
1/4-y,3/4+x,1/4+z
-x,1/2-y,z
1/4+y,1/4-x,3/4+z
x,-y,-z
-x,1/2+y,-z
1/4+y,3/4+x,1/4-z
1/4-y,1/4-x,3/4-z
-x,-y,-z
3/4+y,1/4-x,3/4-z
x,1/2+y,-z
3/4-y,3/4+x,1/4-z
-x,y,z
x,1/2-y,z
3/4-y,1/4-x,3/4+z
3/4+y,3/4+x,1/4+z
1/2+x,1/2+y,1/2+z
3/4-y,1/4+x,3/4+z
1/2-x,-y,1/2+z
3/4+y,3/4-x,1/4+z
1/2+x,1/2-y,1/2-z
1/2-x,y,1/2-z
3/4+y,1/4+x,3/4-z
3/4-y,3/4-x,1/4-z
1/2-x,1/2-y,1/2-z
1/4+y,3/4-x,1/4-z
1/2+x,y,1/2-z
1/4-y,1/4+x,3/4-z
1/2-x,1/2+y,1/2+z
1/2+x,-y,1/2+z
1/4-y,3/4-x,1/4+z
1/4+y,1/4+x,3/4+z
loop_
_atom_site_type_symbol
_atom_site_label
_atom_site_fract_x
_atom_site_fract_y
_atom_site_fract_z
Si Si1 0.344627 0.846754 0.732815
Si Si2 0.165696 0.153837 0.777290
Si Si3 0.902330 0.652768 0.852805
Si Si4 0.775824 0.931563 0.340700
Si Si5 0.593669 0.010055 0.776170
O O1 0.376954 0.750000 0.738120
O O2 0.250000 0.849784 0.750000
O O3 0.346784 0.864157 0.686047
O O4 0.395678 0.920509 0.754342
O O5 0.132590 0.250000 0.780763
O O6 0.250000 0.158025 0.750000
O O7 0.199401 0.115509 0.818287
O O8 0.106623 0.086118 0.755298
O O9 0.887686 0.750000 0.865263
O O10 0.883538 0.588919 0.887874
O O11 0.000000 0.645290 0.840276
O O12 0.832258 0.979876 0.308264
O O13 0.741019 0.991019 0.375000
O O14 0.500000 0.016403 0.793808
#
# Coordination Sequence:
#
# PCOD9572948 Si02
#       5
#    32  32  32  32  32
#     4  10  20  36  58  81 107 142 187 237 285 337
#     4   9  19  36  57  80 106 140 183 228 276 331
#     4  10  20  34  54  80 107 136 177 229 279 327
#     4  11  21  35  55  80 113 148 183 225 277 338
#     4  11  22  36  56  81 111 148 190 234 281 336
#
# _framework density 18.916757
#
# number of rings (size 3 to 8) (size 9 to 14) (size 15 to 20)
#    0.000    1.800    0.000    6.000    0.000    2.400 
#    0.000    2.000    0.000    0.000    0.000    0.000 
#    0.000    0.000    0.000    0.000    0.000    0.000 
#
# Total GULP energy -446529.471244 kJ/mol
# GULP energy per Si atom -5581.618391 kJ/mol
# Density = 1.887370 g / cm^3
# Si number density = 18.916757 Si / 1000 Ang^3
#
#
#
# Elastic Constant Matrix: (Units=GPa)
#
#
# Indices 1 2 3 4 5 6 
#
# 1 75.5787 22.6015 28.0695 0.0000 0.0000 0.0000
# 2 22.6015 75.5787 28.0695 0.0000 0.0000 0.0000
# 3 28.0695 28.0695 87.7629 0.0000 0.0000 0.0000
# 4 0.0000 0.0000 0.0000 23.3873 0.0000 0.0000
# 5 0.0000 0.0000 0.0000 0.0000 23.3873 0.0000
# 6 0.0000 0.0000 0.0000 0.0000 0.0000 10.2439
#
#
#
# Elastic Compliance Matrix: (Units=1/GPa)
#
#
# Indices 1 2 3 4 5 6 
#
# 1 0.015670 -0.003206 -0.003987 0.000000 0.000000 0.000000
# 2 -0.003206 0.015670 -0.003987 0.000000 0.000000 0.000000
# 3 -0.003987 -0.003987 0.013944 0.000000 0.000000 0.000000
# 4 0.000000 0.000000 0.000000 0.042758 0.000000 0.000000
# 5 0.000000 0.000000 0.000000 0.000000 0.042758 0.000000
# 6 0.000000 0.000000 0.000000 0.000000 0.000000 0.097619
#
#
# Mechanical properties :
#
#
# Convention : Reuss Voigt Hill
#
# Bulk Modulus (GPa) = 43.61566 44.04461 43.83014
# Shear Modulus (GPa) = 19.34826 22.08236 20.71531
#
# Velocity S-wave (km/s) = 3.20161 3.42035 3.31278
# Velocity P-wave (km/s) = 6.06414 6.23958 6.15248
#
# Compressibility (1/GPa) = 0.02292754
#
# Stress axis : x y z
#
# Youngs Moduli (GPa) = 63.81426 63.81426 71.71293
#
# Poissons Ratio (x) = 0.20456 0.28590
# Poissons Ratio (y) = 0.20456 0.28590
# Poissons Ratio (z) = 0.25441 0.25441
#
# Static dielectric constant tensor:
#      x y z
#    x 1.664800 0.000000 0.000000 
#    y 0.000000 1.664800 0.000000 
#    z 0.000000 0.000000 1.644710 
# 
# From -- ./inp_files/12715.got.cif
#   From: 2010.05.17/outbox.cif.g08.bks.cpg/sg141_7_cif.got.tgz:12715.got - 2010.05.20 13:30:51.
