data_PCOD9572168
_publ_section_title
;
Structure prediction by ZEFSAII (Michael W. Deem and Ramdas Pophale) SiO2 
 PCOD9572168
Probable space group: I 4/M C M
;
_chemical_formula_sum "Si O2"
_cell_formula_units_Z 96
_cell_length_a 17.669961
_cell_length_b 17.669961
_cell_length_c 15.884258
_cell_angle_alpha 90.000000
_cell_angle_beta 90.000000
_cell_angle_gamma 90.000000
_cell_volume 4959.502510
_symmetry_space_group_name_H-M "I 4/M C M"
_symmetry_group_IT_number 140
_symmetry_cell_setting 'tetragonal'
loop_
_space_group_symop_operation_xyz
x,y,z
-y,x,z
-x,-y,z
y,-x,z
x,-y,1/2-z
-x,y,1/2-z
y,x,1/2-z
-y,-x,1/2-z
-x,-y,-z
y,-x,-z
x,y,-z
-y,x,-z
-x,y,1/2+z
x,-y,1/2+z
-y,-x,1/2+z
y,x,1/2+z
1/2+x,1/2+y,1/2+z
1/2-y,1/2+x,1/2+z
1/2-x,1/2-y,1/2+z
1/2+y,1/2-x,1/2+z
1/2+x,1/2-y,-z
1/2-x,1/2+y,-z
1/2+y,1/2+x,-z
1/2-y,1/2-x,-z
1/2-x,1/2-y,1/2-z
1/2+y,1/2-x,1/2-z
1/2+x,1/2+y,1/2-z
1/2-y,1/2+x,1/2-z
1/2-x,1/2+y,z
1/2+x,1/2-y,z
1/2-y,1/2-x,z
1/2+y,1/2+x,z
loop_
_atom_site_type_symbol
_atom_site_label
_atom_site_fract_x
_atom_site_fract_y
_atom_site_fract_z
Si Si1 0.296197 0.796197 0.402299
Si Si2 0.173304 0.104948 0.164198
Si Si3 0.209712 0.053513 0.596759
Si Si4 0.333257 0.166744 0.402060
O O1 0.313294 0.813294 0.500000
O O2 0.257578 0.864536 0.353181
O O3 0.231362 0.731362 0.400769
O O4 0.138147 0.138147 0.250000
O O5 0.118072 0.145125 0.096990
O O6 0.178812 0.015885 0.151050
O O7 0.222405 0.028858 0.500000
O O8 0.287370 0.093261 0.630573
O O9 0.349958 0.150043 0.500000
#
# Coordination Sequence:
#
# PCOD9572168 Si02
#       4
#    16  32  32  16
#     4   9  17  33  53  74 100 142 189 226 267 331
#     4  11  21  33  51  79 111 140 178 232 285 330
#     4  10  19  34  53  75 104 145 186 222 269 338
#     4   7  14  29  51  72  94 130 183 224 253 309
#
# _framework density 19.356781000000002
#
# number of rings (size 3 to 8) (size 9 to 14) (size 15 to 20)
#    0.000    2.333    0.000    6.500    0.000    0.667 
#    0.000    3.333    0.000    1.000    0.000    4.667 
#    0.000    8.000    0.000    6.833    0.000    0.000 
#
# Total GULP energy -267212.296419 kJ/mol
# GULP energy per Si atom -5566.922842 kJ/mol
# Density = 1.931272 g / cm^3
# Si number density = 19.356781 Si / 1000 Ang^3
#
#
#
# Elastic Constant Matrix: (Units=GPa)
#
#
# Indices 1 2 3 4 5 6 
#
# 1 56.9435 70.0775 12.8402 0.0000 0.0000 0.0000
# 2 70.0775 56.9423 12.8395 0.0000 0.0000 0.0000
# 3 12.8402 12.8395 83.8296 0.0000 0.0000 0.0000
# 4 0.0000 0.0000 0.0000 13.0472 0.0000 0.0000
# 5 0.0000 0.0000 0.0000 0.0000 13.0472 0.0000
# 6 0.0000 0.0000 0.0000 0.0000 0.0000 18.3409
#
#
#
# Elastic Compliance Matrix: (Units=1/GPa)
#
#
# Indices 1 2 3 4 5 6 
#
# 1 -0.034005 0.042129 -0.001244 0.000000 0.000000 0.000000
# 2 0.042129 -0.034005 -0.001245 0.000000 0.000000 0.000000
# 3 -0.001244 -0.001245 0.012310 0.000000 0.000000 0.000000
# 4 0.000000 0.000000 0.000000 0.076645 0.000000 0.000000
# 5 0.000000 0.000000 0.000000 0.000000 0.076645 0.000000
# 6 0.000000 0.000000 0.000000 0.000000 0.000000 0.054523
#
#
# Mechanical properties :
#
#
# Convention : Reuss Voigt Hill
#
# Bulk Modulus (GPa) = 42.40644 43.24775 42.82709
# Shear Modulus (GPa) = 61.96457 15.68429 38.82443
#
# Velocity S-wave (km/s) = 5.66404 2.84962 4.48339
# Velocity P-wave (km/s) = 8.04552 5.76351 6.99816
#
# Compressibility (1/GPa) = 0.02358133
#
# Stress axis : x y z
#
# Youngs Moduli (GPa) = -29.40766 -29.40714 81.23373
#
# Poissons Ratio (x) = 1.23890 0.10106
# Poissons Ratio (y) = 1.23893 0.10111
# Poissons Ratio (z) = -0.03659 -0.03660
#
# Static dielectric constant tensor:
#      x y z
#    x 1.702170 0.000000 0.000000 
#    y 0.000000 1.702170 0.000000 
#    z 0.000000 0.000000 1.794540 
# 
# From -- ./inp_files/5862.got.cif
#   From: 2010.05.17/outbox.cif.g08.bks.cpg/sg140_3_cif.got.tgz:5862.got - 2010.06.21 00:45:31.
