data_PCOD9572220
_publ_section_title
;
Structure prediction by ZEFSAII (Michael W. Deem and Ramdas Pophale) SiO2 
 PCOD9572220
Probable space group: I 4/M C M
;
_chemical_formula_sum "Si O2"
_cell_formula_units_Z 96
_cell_length_a 23.937008
_cell_length_b 23.937008
_cell_length_c 9.078563
_cell_angle_alpha 90.000000
_cell_angle_beta 90.000000
_cell_angle_gamma 90.000000
_cell_volume 5201.838223
_symmetry_space_group_name_H-M "I 4/M C M"
_symmetry_group_IT_number 140
_symmetry_cell_setting 'tetragonal'
loop_
_space_group_symop_operation_xyz
x,y,z
-y,x,z
-x,-y,z
y,-x,z
x,-y,1/2-z
-x,y,1/2-z
y,x,1/2-z
-y,-x,1/2-z
-x,-y,-z
y,-x,-z
x,y,-z
-y,x,-z
-x,y,1/2+z
x,-y,1/2+z
-y,-x,1/2+z
y,x,1/2+z
1/2+x,1/2+y,1/2+z
1/2-y,1/2+x,1/2+z
1/2-x,1/2-y,1/2+z
1/2+y,1/2-x,1/2+z
1/2+x,1/2-y,-z
1/2-x,1/2+y,-z
1/2+y,1/2+x,-z
1/2-y,1/2-x,-z
1/2-x,1/2-y,1/2-z
1/2+y,1/2-x,1/2-z
1/2+x,1/2+y,1/2-z
1/2-y,1/2+x,1/2-z
1/2-x,1/2+y,z
1/2+x,1/2-y,z
1/2-y,1/2-x,z
1/2+y,1/2+x,z
loop_
_atom_site_type_symbol
_atom_site_label
_atom_site_fract_x
_atom_site_fract_y
_atom_site_fract_z
Si Si1 0.351305 0.148696 0.669592
Si Si2 0.559773 0.225015 0.673321
Si Si3 0.441713 0.359003 0.827429
Si Si4 0.555199 0.944802 0.666826
O O1 0.336371 0.163630 0.500000
O O2 0.385061 0.197817 0.752879
O O3 0.398567 0.101434 0.665667
O O4 0.500000 0.209853 0.750000
O O5 0.556988 0.209644 0.500000
O O6 0.564725 0.292064 0.685938
O O7 0.500000 0.374418 0.750000
O O8 0.391755 0.391755 0.750000
O O9 0.443773 0.372819 0.000000
O O10 0.500000 0.925236 0.750000
O O11 0.541589 0.958412 0.500000
#
# Coordination Sequence:
#
# PCOD9572220 Si02
#       4
#    16  32  32  16
#     4  11  22  34  52  77 104 141 189 234 276 327
#     4  10  21  37  57  81 111 147 187 232 281 331
#     4  10  21  38  61  88 117 148 182 223 273 330
#     4  10  20  31  44  65  93 127 168 218 274 324
#
# _framework density 18.455013999999998
#
# number of rings (size 3 to 8) (size 9 to 14) (size 15 to 20)
#    0.000    1.833    0.000    4.500    0.000    9.667 
#    0.000    2.500    0.000    0.000    0.000    0.000 
#    0.000    0.000    0.000    0.000    0.000    0.000 
#
# Total GULP energy -267828.232170 kJ/mol
# GULP energy per Si atom -5579.754837 kJ/mol
# Density = 1.841301 g / cm^3
# Si number density = 18.455014 Si / 1000 Ang^3
#
#
#
# Elastic Constant Matrix: (Units=GPa)
#
#
# Indices 1 2 3 4 5 6 
#
# 1 58.4795 34.0716 58.2914 0.0000 0.0000 0.0000
# 2 34.0716 58.4795 58.2913 0.0000 0.0000 0.0000
# 3 58.2914 58.2913 176.5971 0.0000 0.0000 0.0000
# 4 0.0000 0.0000 0.0000 26.3499 0.0000 0.0000
# 5 0.0000 0.0000 0.0000 0.0000 26.3498 0.0000
# 6 0.0000 0.0000 0.0000 0.0000 0.0000 42.9843
#
#
#
# Elastic Compliance Matrix: (Units=1/GPa)
#
#
# Indices 1 2 3 4 5 6 
#
# 1 0.029733 -0.011238 -0.006105 0.000000 0.000000 0.000000
# 2 -0.011238 0.029733 -0.006105 0.000000 0.000000 0.000000
# 3 -0.006105 -0.006105 0.009693 0.000000 0.000000 0.000000
# 4 0.000000 0.000000 0.000000 0.037951 0.000000 0.000000
# 5 0.000000 0.000000 0.000000 0.000000 0.037951 0.000000
# 6 0.000000 0.000000 0.000000 0.000000 0.000000 0.023264
#
#
# Mechanical properties :
#
#
# Convention : Reuss Voigt Hill
#
# Bulk Modulus (GPa) = 44.91723 66.09612 55.50667
# Shear Modulus (GPa) = 22.45782 28.66359 25.56071
#
# Velocity S-wave (km/s) = 3.49219 3.94529 3.72563
# Velocity P-wave (km/s) = 6.37590 7.52637 6.97490
#
# Compressibility (1/GPa) = 0.02226317
#
# Stress axis : x y z
#
# Youngs Moduli (GPa) = 33.63313 33.63321 103.16997
#
# Poissons Ratio (x) = 0.37796 0.62983
# Poissons Ratio (y) = 0.37796 0.62983
# Poissons Ratio (z) = 0.20532 0.20532
#
# Static dielectric constant tensor:
#      x y z
#    x 1.628350 0.000000 0.000000 
#    y 0.000000 1.628350 0.000000 
#    z 0.000000 0.000000 1.655010 
# 
# From -- ./inp_files/933.got.cif
#   From: 2010.05.17/outbox.cif.g08.bks.cpg/sg140_1_cif.got.tgz:933.got - 2010.06.21 00:45:31.
