data_PCOD9572364
_publ_section_title
;
Structure prediction by ZEFSAII (Michael W. Deem and Ramdas Pophale) SiO2 
 PCOD9572364
Probable space group: I 4/M C M
;
_chemical_formula_sum "Si O2"
_cell_formula_units_Z 144
_cell_length_a 28.889507
_cell_length_b 28.889507
_cell_length_c 9.553844
_cell_angle_alpha 90.000000
_cell_angle_beta 90.000000
_cell_angle_gamma 90.000000
_cell_volume 7973.672737
_symmetry_space_group_name_H-M "I 4/M C M"
_symmetry_group_IT_number 140
_symmetry_cell_setting 'tetragonal'
loop_
_space_group_symop_operation_xyz
x,y,z
-y,x,z
-x,-y,z
y,-x,z
x,-y,1/2-z
-x,y,1/2-z
y,x,1/2-z
-y,-x,1/2-z
-x,-y,-z
y,-x,-z
x,y,-z
-y,x,-z
-x,y,1/2+z
x,-y,1/2+z
-y,-x,1/2+z
y,x,1/2+z
1/2+x,1/2+y,1/2+z
1/2-y,1/2+x,1/2+z
1/2-x,1/2-y,1/2+z
1/2+y,1/2-x,1/2+z
1/2+x,1/2-y,-z
1/2-x,1/2+y,-z
1/2+y,1/2+x,-z
1/2-y,1/2-x,-z
1/2-x,1/2-y,1/2-z
1/2+y,1/2-x,1/2-z
1/2+x,1/2+y,1/2-z
1/2-y,1/2+x,1/2-z
1/2-x,1/2+y,z
1/2+x,1/2-y,z
1/2-y,1/2-x,z
1/2+y,1/2+x,z
loop_
_atom_site_type_symbol
_atom_site_label
_atom_site_fract_x
_atom_site_fract_y
_atom_site_fract_z
Si Si1 0.874120 0.549030 0.667994
Si Si2 0.545148 0.392754 0.162109
Si Si3 0.956265 0.781591 0.159184
Si Si4 0.279697 0.893062 0.664713
Si Si5 0.216552 0.283449 0.663030
O O1 0.872685 0.500000 0.750000
O O2 0.874621 0.540383 0.500000
O O3 0.919307 0.580694 0.701817
O O4 0.828678 0.581253 0.696075
O O5 0.500000 0.407689 0.250000
O O6 0.587857 0.412144 0.250000
O O7 0.545929 0.337135 0.160411
O O8 0.544503 0.408509 0.000000
O O9 0.913466 0.759172 0.235827
O O10 0.000000 0.766549 0.250000
O O11 0.960803 0.765830 0.000000
O O12 0.270344 0.902063 0.500000
O O13 0.278063 0.838255 0.686489
O O14 0.250000 0.250000 0.750000
O O15 0.225962 0.274038 0.500000
#
# Coordination Sequence:
#
# PCOD9572364 Si02
#       5
#    32  32  32  32  16
#     4  10  21  38  59  84 116 154 196 241 292 350
#     4  10  21  37  56  79 110 145 184 230 282 339
#     4  10  21  36  56  84 114 145 185 234 284 336
#     4  10  20  38  61  82 113 154 193 236 291 349
#     4  10  22  40  60  84 115 154 193 237 292 347
#
# _framework density 18.059432000000001
#
# number of rings (size 3 to 8) (size 9 to 14) (size 15 to 20)
#    0.000    2.000    1.111    2.000    0.000    8.000 
#    0.000    6.667    0.000    0.000    0.000    0.000 
#    0.000    0.000    0.000    0.000    0.000    0.000 
#
# Total GULP energy -401565.787753 kJ/mol
# GULP energy per Si atom -5577.302608 kJ/mol
# Density = 1.801833 g / cm^3
# Si number density = 18.059432 Si / 1000 Ang^3
#
#
#
# Elastic Constant Matrix: (Units=GPa)
#
#
# Indices 1 2 3 4 5 6 
#
# 1 52.5979 43.6772 62.7945 0.0000 0.0000 0.0000
# 2 43.6772 52.6268 62.8049 0.0000 0.0000 0.0000
# 3 62.7945 62.8049 127.1689 0.0000 0.0000 0.0000
# 4 0.0000 0.0000 0.0000 31.3912 0.0000 0.0000
# 5 0.0000 0.0000 0.0000 0.0000 31.3911 0.0000
# 6 0.0000 0.0000 0.0000 0.0000 0.0000 47.6348
#
#
#
# Elastic Compliance Matrix: (Units=1/GPa)
#
#
# Indices 1 2 3 4 5 6 
#
# 1 0.070582 -0.041367 -0.014423 0.000000 0.000000 0.000000
# 2 -0.041367 0.070521 -0.014402 0.000000 0.000000 0.000000
# 3 -0.014423 -0.014402 0.022098 0.000000 0.000000 0.000000
# 4 0.000000 0.000000 0.000000 0.031856 0.000000 0.000000
# 5 0.000000 0.000000 0.000000 0.000000 0.031856 0.000000
# 6 0.000000 0.000000 0.000000 0.000000 0.000000 0.020993
#
#
# Mechanical properties :
#
#
# Convention : Reuss Voigt Hill
#
# Bulk Modulus (GPa) = 43.82472 63.43852 53.63162
# Shear Modulus (GPa) = 12.62964 26.29122 19.46043
#
# Velocity S-wave (km/s) = 2.64737 3.81966 3.28621
# Velocity P-wave (km/s) = 5.80210 7.39303 6.64535
#
# Compressibility (1/GPa) = 0.02281817
#
# Stress axis : x y z
#
# Youngs Moduli (GPa) = 14.16796 14.18020 45.25339
#
# Poissons Ratio (x) = 0.58659 0.65267
# Poissons Ratio (y) = 0.58608 0.65172
# Poissons Ratio (z) = 0.20434 0.20422
#
# Static dielectric constant tensor:
#      x y z
#    x 1.613060 0.000000 0.000000 
#    y 0.000000 1.613050 0.000000 
#    z 0.000000 0.000000 1.603080 
# 
# From -- ./inp_files/1644.got.cif
#   From: 2010.05.17/outbox.cif.g08.bks.cpg/sg140_1_cif.got.tgz:1644.got - 2010.06.21 00:45:31.
