data_PCOD9572361
_publ_section_title
;
Structure prediction by ZEFSAII (Michael W. Deem and Ramdas Pophale) SiO2 
 PCOD9572361
Probable space group: I 4/M C M
;
_chemical_formula_sum "Si O2"
_cell_formula_units_Z 176
_cell_length_a 23.238683
_cell_length_b 23.238683
_cell_length_c 15.801110
_cell_angle_alpha 90.000000
_cell_angle_beta 90.000000
_cell_angle_gamma 90.000000
_cell_volume 8533.174364
_symmetry_space_group_name_H-M "I 4/M C M"
_symmetry_group_IT_number 140
_symmetry_cell_setting 'tetragonal'
loop_
_space_group_symop_operation_xyz
x,y,z
-y,x,z
-x,-y,z
y,-x,z
x,-y,1/2-z
-x,y,1/2-z
y,x,1/2-z
-y,-x,1/2-z
-x,-y,-z
y,-x,-z
x,y,-z
-y,x,-z
-x,y,1/2+z
x,-y,1/2+z
-y,-x,1/2+z
y,x,1/2+z
1/2+x,1/2+y,1/2+z
1/2-y,1/2+x,1/2+z
1/2-x,1/2-y,1/2+z
1/2+y,1/2-x,1/2+z
1/2+x,1/2-y,-z
1/2-x,1/2+y,-z
1/2+y,1/2+x,-z
1/2-y,1/2-x,-z
1/2-x,1/2-y,1/2-z
1/2+y,1/2-x,1/2-z
1/2+x,1/2+y,1/2-z
1/2-y,1/2+x,1/2-z
1/2-x,1/2+y,z
1/2+x,1/2-y,z
1/2-y,1/2-x,z
1/2+y,1/2+x,z
loop_
_atom_site_type_symbol
_atom_site_label
_atom_site_fract_x
_atom_site_fract_y
_atom_site_fract_z
Si Si1 0.866238 0.462396 0.905590
Si Si2 0.546635 0.046635 0.896051
Si Si3 0.026918 0.836891 0.902713
Si Si4 0.063541 0.733044 0.788450
Si Si5 0.329427 0.262823 0.675267
Si Si6 0.899762 0.869345 0.152094
O O1 0.921486 0.421486 0.913408
O O2 0.891121 0.523027 0.871067
O O3 0.822113 0.430885 0.846759
O O4 0.842403 0.471713 0.000000
O O5 0.500000 0.000000 0.864396
O O6 0.545756 0.045756 0.000000
O O7 0.060506 0.787918 0.850262
O O8 0.071759 0.889456 0.898184
O O9 0.965597 0.849409 0.859078
O O10 0.016690 0.820347 0.000000
O O11 0.114067 0.736365 0.720357
O O12 0.000000 0.730114 0.750000
O O13 0.293021 0.293021 0.750000
O O14 0.286707 0.213294 0.638351
O O15 0.357205 0.316824 0.624146
O O16 0.884751 0.884751 0.250000
#
# Coordination Sequence:
#
# PCOD9572361 Si02
#       6
#    32  16  32  32  32  32
#     4   9  18  34  55  80 113 153 202 259 311 360
#     4   7  12  28  52  72 102 150 192 239 313 371
#     4  12  24  40  64  94 125 162 201 253 308 372
#     4  12  21  37  57  86 122 161 206 250 306 362
#     4  10  20  37  65  89 117 158 208 250 300 362
#     4  11  21  43  66  93 128 160 205 247 314 370
#
# _framework density 20.625382999999999
#
# number of rings (size 3 to 8) (size 9 to 14) (size 15 to 20)
#    0.000    1.545    5.455    3.273    0.000    0.364 
#    3.273    1.818    0.000    3.273    0.000    0.000 
#    0.000    0.000    0.000    0.000    0.000    0.000 
#
# Total GULP energy -490437.580437 kJ/mol
# GULP energy per Si atom -5573.154323 kJ/mol
# Density = 2.057844 g / cm^3
# Si number density = 20.625383 Si / 1000 Ang^3
#
#
#
# Elastic Constant Matrix: (Units=GPa)
#
#
# Indices 1 2 3 4 5 6 
#
# 1 86.8986 38.8536 5.4777 0.0000 0.0000 0.0000
# 2 38.8536 86.8986 5.4777 0.0000 0.0000 0.0000
# 3 5.4777 5.4777 40.0651 0.0000 0.0000 0.0000
# 4 0.0000 0.0000 0.0000 -36.2346 0.0000 0.0000
# 5 0.0000 0.0000 0.0000 0.0000 -36.2346 0.0000
# 6 0.0000 0.0000 0.0000 0.0000 0.0000 30.9778
#
#
#
# Elastic Compliance Matrix: (Units=1/GPa)
#
#
# Indices 1 2 3 4 5 6 
#
# 1 0.014431 -0.006383 -0.001100 0.000000 0.000000 0.000000
# 2 -0.006383 0.014431 -0.001100 0.000000 0.000000 0.000000
# 3 -0.001100 -0.001100 0.025260 0.000000 0.000000 0.000000
# 4 0.000000 0.000000 0.000000 -0.027598 0.000000 0.000000
# 5 0.000000 0.000000 0.000000 0.000000 -0.027598 0.000000
# 6 0.000000 0.000000 0.000000 0.000000 0.000000 0.032281
#
#
# Mechanical properties :
#
#
# Convention : Reuss Voigt Hill
#
# Bulk Modulus (GPa) = 27.05998 34.83115 30.94557
# Shear Modulus (GPa) = 82.38210 2.63861 42.51036
#
# Velocity S-wave (km/s) = 6.32683 1.13229 4.54483
# Velocity P-wave (km/s) = 8.15598 4.31667 6.52509
#
# Compressibility (1/GPa) = 0.03695494
#
# Stress axis : x y z
#
# Youngs Moduli (GPa) = 69.29564 69.29564 39.58790
#
# Poissons Ratio (x) = 0.44231 0.04356
# Poissons Ratio (y) = 0.44231 0.04356
# Poissons Ratio (z) = 0.07625 0.07625
#
# Static dielectric constant tensor:
#      x y z
#    x 1.789900 0.000000 0.000000 
#    y 0.000000 1.789900 0.000000 
#    z 0.000000 0.000000 1.750310 
# 
# From -- ./inp_files/4895.got.cif
#   From: 2010.05.17/outbox.cif.g08.bks.cpg/sg140_3_cif.got.tgz:4895.got - 2010.06.21 00:45:31.
