data_PCOD9572973
_publ_section_title
;
Structure prediction by ZEFSAII (Michael W. Deem and Ramdas Pophale) SiO2 
 PCOD9572973
Probable space group: I 41/A M D
;
_chemical_formula_sum "Si O2"
_cell_formula_units_Z 176
_cell_length_a 22.951850
_cell_length_b 22.951850
_cell_length_c 16.663230
_cell_angle_alpha 90.000000
_cell_angle_beta 90.000000
_cell_angle_gamma 90.000000
_cell_volume 8777.979914
_symmetry_space_group_name_H-M "I 41/A M D"
_symmetry_group_IT_number 141
_space_group.IT_coordinate_system_code '2'
_symmetry_cell_setting 'tetragonal'
loop_
_space_group_symop_operation_xyz
x,y,z
1/4-y,3/4+x,1/4+z
-x,1/2-y,z
1/4+y,1/4-x,3/4+z
x,-y,-z
-x,1/2+y,-z
1/4+y,3/4+x,1/4-z
1/4-y,1/4-x,3/4-z
-x,-y,-z
3/4+y,1/4-x,3/4-z
x,1/2+y,-z
3/4-y,3/4+x,1/4-z
-x,y,z
x,1/2-y,z
3/4-y,1/4-x,3/4+z
3/4+y,3/4+x,1/4+z
1/2+x,1/2+y,1/2+z
3/4-y,1/4+x,3/4+z
1/2-x,-y,1/2+z
3/4+y,3/4-x,1/4+z
1/2+x,1/2-y,1/2-z
1/2-x,y,1/2-z
3/4+y,1/4+x,3/4-z
3/4-y,3/4-x,1/4-z
1/2-x,1/2-y,1/2-z
1/4+y,3/4-x,1/4-z
1/2+x,y,1/2-z
1/4-y,1/4+x,3/4-z
1/2-x,1/2+y,1/2+z
1/2+x,-y,1/2+z
1/4-y,3/4-x,1/4+z
1/4+y,1/4+x,3/4+z
loop_
_atom_site_type_symbol
_atom_site_label
_atom_site_fract_x
_atom_site_fract_y
_atom_site_fract_z
Si Si1 0.298373 0.682054 0.997504
Si Si2 0.566832 0.682780 0.255961
Si Si3 0.258176 0.819960 0.658495
Si Si4 0.366056 0.605483 0.609717
Si Si5 0.865205 0.000000 0.000000
Si Si6 0.686221 0.184153 0.606663
O O1 0.316608 0.750000 0.003007
O O2 0.292620 0.664622 0.904725
O O3 0.335038 0.641245 0.055313
O O4 0.233735 0.678524 0.036397
O O5 0.500000 0.679136 0.226272
O O6 0.572817 0.750000 0.287012
O O7 0.614711 0.669180 0.188804
O O8 0.573444 0.626847 0.315068
O O9 0.262548 0.750000 0.656813
O O10 0.250000 0.838975 0.750000
O O11 0.316844 0.847686 0.625349
O O12 0.340197 0.551146 0.557673
O O13 0.897012 0.959980 0.068209
O O14 0.689265 0.250000 0.636731
#
# Coordination Sequence:
#
# PCOD9572973 Si02
#       6
#    32  32  32  32  16  32
#     4   9  18  35  60  89 121 164 205 246 299 370
#     4  10  20  35  59  92 127 161 200 259 328 382
#     4  10  21  40  68  93 115 153 206 261 320 379
#     4  11  21  38  61  85 123 160 206 252 304 373
#     4  10  23  36  56  80 108 166 212 244 291 350
#     4   9  17  34  56  80 119 162 206 244 285 357
#
# _framework density 20.050172
#
# number of rings (size 3 to 8) (size 9 to 14) (size 15 to 20)
#    0.000    2.182    1.818    1.364    0.000    3.636 
#    0.000    3.636    6.000    4.364    0.000    0.000 
#    0.000   11.636    0.000    0.000    0.000    0.000 
#
# Total GULP energy -490194.704309 kJ/mol
# GULP energy per Si atom -5570.394367 kJ/mol
# Density = 2.000454 g / cm^3
# Si number density = 20.050172 Si / 1000 Ang^3
#
#
#
# Elastic Constant Matrix: (Units=GPa)
#
#
# Indices 1 2 3 4 5 6 
#
# 1 40.5484 6.1277 9.1858 0.0000 0.0000 0.0000
# 2 6.1277 40.5484 9.1858 0.0000 0.0000 0.0000
# 3 9.1858 9.1858 98.4099 0.0000 0.0000 0.0000
# 4 0.0000 0.0000 0.0000 14.4583 0.0000 0.0000
# 5 0.0000 0.0000 0.0000 0.0000 14.4583 0.0000
# 6 0.0000 0.0000 0.0000 0.0000 0.0000 12.9162
#
#
#
# Elastic Compliance Matrix: (Units=1/GPa)
#
#
# Indices 1 2 3 4 5 6 
#
# 1 0.025647 -0.003405 -0.002076 0.000000 0.000000 0.000000
# 2 -0.003405 0.025647 -0.002076 0.000000 0.000000 0.000000
# 3 -0.002076 -0.002076 0.010549 0.000000 0.000000 0.000000
# 4 0.000000 0.000000 0.000000 0.069164 0.000000 0.000000
# 5 0.000000 0.000000 0.000000 0.000000 0.069164 0.000000
# 6 0.000000 0.000000 0.000000 0.000000 0.000000 0.077422
#
#
# Mechanical properties :
#
#
# Convention : Reuss Voigt Hill
#
# Bulk Modulus (GPa) = 21.40062 25.38949 23.39506
# Shear Modulus (GPa) = 16.21879 18.70040 17.45959
#
# Velocity S-wave (km/s) = 2.84722 3.05729 2.95413
# Velocity P-wave (km/s) = 4.63741 5.01530 4.83005
#
# Compressibility (1/GPa) = 0.04672762
#
# Stress axis : x y z
#
# Youngs Moduli (GPa) = 38.99114 38.99114 94.79434
#
# Poissons Ratio (x) = 0.13278 0.19680
# Poissons Ratio (y) = 0.13278 0.19680
# Poissons Ratio (z) = 0.08095 0.08095
#
# Static dielectric constant tensor:
#      x y z
#    x 1.721570 0.000000 0.000000 
#    y 0.000000 1.721570 0.000000 
#    z 0.000000 0.000000 1.764670 
# 
# From -- ./inp_files/6671.got.cif
#   From: 2010.05.17/outbox.cif.g08.bks.cpg/sg141_4_cif.got.tgz:6671.got - 2010.05.20 13:30:51.
