data_PCOD9572727
_publ_section_title
;
Structure prediction by ZEFSAII (Michael W. Deem and Ramdas Pophale) SiO2 
 PCOD9572727
Probable space group: I 4/M C M
;
_chemical_formula_sum "Si O2"
_cell_formula_units_Z 96
_cell_length_a 21.000000
_cell_length_b 21.000000
_cell_length_c 24.000000
_cell_angle_alpha 90.000000
_cell_angle_beta 90.000000
_cell_angle_gamma 90.000000
_cell_volume 10584.000000
_symmetry_space_group_name_H-M "I 4/M C M"
_symmetry_group_IT_number 140
_symmetry_cell_setting 'tetragonal'
loop_
_space_group_symop_operation_xyz
x,y,z
-y,x,z
-x,-y,z
y,-x,z
x,-y,1/2-z
-x,y,1/2-z
y,x,1/2-z
-y,-x,1/2-z
-x,-y,-z
y,-x,-z
x,y,-z
-y,x,-z
-x,y,1/2+z
x,-y,1/2+z
-y,-x,1/2+z
y,x,1/2+z
1/2+x,1/2+y,1/2+z
1/2-y,1/2+x,1/2+z
1/2-x,1/2-y,1/2+z
1/2+y,1/2-x,1/2+z
1/2+x,1/2-y,-z
1/2-x,1/2+y,-z
1/2+y,1/2+x,-z
1/2-y,1/2-x,-z
1/2-x,1/2-y,1/2-z
1/2+y,1/2-x,1/2-z
1/2+x,1/2+y,1/2-z
1/2-y,1/2+x,1/2-z
1/2-x,1/2+y,z
1/2+x,1/2-y,z
1/2-y,1/2-x,z
1/2+y,1/2+x,z
loop_
_atom_site_type_symbol
_atom_site_label
_atom_site_fract_x
_atom_site_fract_y
_atom_site_fract_z
Si Si1 0.235338 0.373836 0.641961
Si Si2 0.307762 0.369753 0.875180
Si Si3 0.186555 0.313446 0.937556
Si Si4 0.152078 0.455856 0.563980
Si Si5 0.354099 0.247331 0.735253
Si Si6 0.041624 0.095553 0.933273
Si Si7 0.920727 0.420727 0.563691
O O1 0.188551 0.311450 0.635440
O O2 0.307679 0.353433 0.629681
O O3 0.208554 0.429103 0.602362
O O4 0.232757 0.390137 0.707619
O O5 0.247737 0.343092 0.908591
O O6 0.280015 0.390133 0.815273
O O7 0.344628 0.426574 0.904312
O O8 0.132799 0.367202 0.938541
O O9 0.204801 0.295200 0.000000
O O10 0.173076 0.470307 0.500000
O O11 0.101343 0.398658 0.561132
O O12 0.113262 0.516520 0.587458
O O13 0.298567 0.298567 0.750000
O O14 0.316105 0.183896 0.716700
O O15 0.968468 0.081022 0.918593
O O16 0.044682 0.102772 0.000000
O O17 0.939425 0.439425 0.500000
#
# Coordination Sequence:
#
# PCOD9572727 Si02
#       7
#    32  32  16  32  32  32  16
#     4   9  17  30  50  81 107 140 179 226 267 315
#     4  11  18  32  54  79 102 140 175 223 274 324
#     4  11  22  31  45  76 111 136 164 209 273 336
#     4   9  17  30  51  77 104 139 184 227 267 315
#     4   8  14  28  50  75 102 135 172 209 263 319
#     4   9  20  38  56  75 103 142 184 222 268 331
#     4   9  19  34  47  67 109 149 173 208 268 334
#
# _framework density 9.0702949999999998
#
# number of rings (size 3 to 8) (size 9 to 14) (size 15 to 20)
#    0.000    2.667    1.667    2.250    0.000    3.667 
#    0.000    3.333    0.000   16.000    0.000   10.500 
#    2.500    0.000    0.000    0.000    0.000    0.000 
#
# Total GULP energy -534854.394406 kJ/mol
# GULP energy per Si atom -5571.399942 kJ/mol
# Density = 0.904965 g / cm^3
# Si number density = 9.070295 Si / 1000 Ang^3
#
#
#
# Elastic Constant Matrix: (Units=GPa)
#
#
# Indices 1 2 3 4 5 6 
#
# 1 40.0939 15.3483 32.3136 0.0000 0.0000 0.0000
# 2 15.3483 40.0941 32.3138 0.0000 0.0000 0.0000
# 3 32.3136 32.3138 77.7494 0.0000 0.0000 0.0000
# 4 0.0000 0.0000 0.0000 -0.7435 0.0000 0.0000
# 5 0.0000 0.0000 0.0000 0.0000 -0.7434 0.0000
# 6 0.0000 0.0000 0.0000 0.0000 0.0000 33.3386
#
#
#
# Elastic Compliance Matrix: (Units=1/GPa)
#
#
# Indices 1 2 3 4 5 6 
#
# 1 0.037699 -0.002712 -0.014541 0.000000 0.000000 0.000000
# 2 -0.002712 0.037699 -0.014541 0.000000 0.000000 0.000000
# 3 -0.014541 -0.014541 0.024949 0.000000 0.000000 0.000000
# 4 0.000000 0.000000 0.000000 -1.345033 0.000002 0.000000
# 5 0.000000 0.000000 0.000000 0.000002 -1.345185 0.000000
# 6 0.000000 0.000000 0.000000 0.000000 0.000000 0.029995
#
#
# Mechanical properties :
#
#
# Convention : Reuss Voigt Hill
#
# Bulk Modulus (GPa) = 27.20473 35.32099 31.26286
# Shear Modulus (GPa) = -2.01285 11.56779 4.77747
#
# Velocity S-wave (km/s) = -1.05451 2.52796 1.62459
# Velocity P-wave (km/s) = 3.68056 5.29469 4.55962
#
# Compressibility (1/GPa) = 0.03675831
#
# Stress axis : x y z
#
# Youngs Moduli (GPa) = 26.52591 26.52593 40.08228
#
# Poissons Ratio (x) = 0.07194 0.58283
# Poissons Ratio (y) = 0.07194 0.58284
# Poissons Ratio (z) = 0.38571 0.38571
#
# Static dielectric constant tensor:
#      x y z
#    x 1.626590 0.000000 0.000000 
#    y 0.000000 1.626590 0.000000 
#    z 0.000000 0.000000 1.660780 
# 
# From -- ./inp_files/9826.got.cif
#   From: 2010.05.17/outbox.ucp.g08.bks.cvg/sg140_5_cif.got.tgz:9826.got - 2010.06.11 11:42:50.
