data_PCOD9572324
_publ_section_title
;
Structure prediction by ZEFSAII (Michael W. Deem and Ramdas Pophale) SiO2 
 PCOD9572324
Probable space group: I 4/M C M
;
_chemical_formula_sum "Si O2"
_cell_formula_units_Z 160
_cell_length_a 17.785909
_cell_length_b 17.785909
_cell_length_c 26.770847
_cell_angle_alpha 90.000000
_cell_angle_beta 90.000000
_cell_angle_gamma 90.000000
_cell_volume 8468.651162
_symmetry_space_group_name_H-M "I 4/M C M"
_symmetry_group_IT_number 140
_symmetry_cell_setting 'tetragonal'
loop_
_space_group_symop_operation_xyz
x,y,z
-y,x,z
-x,-y,z
y,-x,z
x,-y,1/2-z
-x,y,1/2-z
y,x,1/2-z
-y,-x,1/2-z
-x,-y,-z
y,-x,-z
x,y,-z
-y,x,-z
-x,y,1/2+z
x,-y,1/2+z
-y,-x,1/2+z
y,x,1/2+z
1/2+x,1/2+y,1/2+z
1/2-y,1/2+x,1/2+z
1/2-x,1/2-y,1/2+z
1/2+y,1/2-x,1/2+z
1/2+x,1/2-y,-z
1/2-x,1/2+y,-z
1/2+y,1/2+x,-z
1/2-y,1/2-x,-z
1/2-x,1/2-y,1/2-z
1/2+y,1/2-x,1/2-z
1/2+x,1/2+y,1/2-z
1/2-y,1/2+x,1/2-z
1/2-x,1/2+y,z
1/2+x,1/2-y,z
1/2-y,1/2-x,z
1/2+y,1/2+x,z
loop_
_atom_site_type_symbol
_atom_site_label
_atom_site_fract_x
_atom_site_fract_y
_atom_site_fract_z
Si Si1 0.285929 0.214072 0.943782
Si Si2 0.438820 0.938820 0.126030
Si Si3 0.169329 0.330672 0.910486
Si Si4 0.591216 0.712004 0.870607
Si Si5 0.917755 0.185871 0.606447
Si Si6 0.838080 0.539871 0.700332
Si Si7 0.435954 0.610644 0.000000
O O1 0.221223 0.278778 0.946093
O O2 0.356314 0.248531 0.912989
O O3 0.307049 0.192952 0.000000
O O4 0.394458 0.894458 0.082106
O O5 0.483656 0.879052 0.160927
O O6 0.500000 0.000000 0.108334
O O7 0.122764 0.265030 0.884027
O O8 0.628055 0.630764 0.860882
O O9 0.505639 0.695719 0.885466
O O10 0.585108 0.771733 0.826377
O O11 0.911561 0.155388 0.549415
O O12 0.809644 0.500000 0.750000
O O13 0.903447 0.596554 0.716612
O O14 0.400928 0.526618 0.000000
#
# Coordination Sequence:
#
# PCOD9572324 Si02
#       7
#    16  16  16  32  32  32  16
#     4  10  24  41  63  92 127 177 223 263 314 381
#     4  10  20  35  63  93 125 156 203 261 317 384
#     4  10  22  36  56  88 127 164 206 250 325 382
#     4  11  23  40  61  91 131 165 212 264 326 375
#     4  11  23  37  60  88 125 166 212 262 322 378
#     4  11  21  39  65  98 127 163 214 267 319 384
#     4  11  22  37  60  92 117 161 230 277 298 365
#
# _framework density 18.89321
#
# number of rings (size 3 to 8) (size 9 to 14) (size 15 to 20)
#    0.000    1.300    6.000    0.000    7.000    0.400 
#    0.000    1.000    0.000    3.900    0.000    1.400 
#    0.000    0.000    0.000    0.000    0.000    0.000 
#
# Total GULP energy -445485.750994 kJ/mol
# GULP energy per Si atom -5568.571887 kJ/mol
# Density = 1.885021 g / cm^3
# Si number density = 18.893210 Si / 1000 Ang^3
#
#
#
# Elastic Constant Matrix: (Units=GPa)
#
#
# Indices 1 2 3 4 5 6 
#
# 1 123.3839 46.5542 22.9941 0.0000 0.0000 0.0000
# 2 46.5542 123.3841 22.9942 0.0000 0.0000 0.0000
# 3 22.9941 22.9942 55.7419 0.0000 0.0000 0.0000
# 4 0.0000 0.0000 0.0000 18.9744 0.0000 0.0000
# 5 0.0000 0.0000 0.0000 0.0000 18.9741 0.0000
# 6 0.0000 0.0000 0.0000 0.0000 0.0000 44.0391
#
#
#
# Elastic Compliance Matrix: (Units=1/GPa)
#
#
# Indices 1 2 3 4 5 6 
#
# 1 0.009820 -0.003196 -0.002732 0.000000 0.000000 0.000000
# 2 -0.003196 0.009820 -0.002732 0.000000 0.000000 0.000000
# 3 -0.002732 -0.002732 0.020194 0.000000 0.000000 0.000000
# 4 0.000000 0.000000 0.000000 0.052703 0.000000 0.000000
# 5 0.000000 0.000000 0.000000 0.000000 0.052703 0.000000
# 6 0.000000 0.000000 0.000000 0.000000 0.000000 0.022707
#
#
# Mechanical properties :
#
#
# Convention : Reuss Voigt Hill
#
# Bulk Modulus (GPa) = 44.42025 54.17719 49.29872
# Shear Modulus (GPa) = 25.93728 30.39535 28.16631
#
# Velocity S-wave (km/s) = 3.70920 4.01533 3.86530
# Velocity P-wave (km/s) = 6.47352 7.08766 6.78754
#
# Compressibility (1/GPa) = 0.02251226
#
# Stress axis : x y z
#
# Youngs Moduli (GPa) = 101.83443 101.83448 49.51926
#
# Poissons Ratio (x) = 0.32545 0.13531
# Poissons Ratio (y) = 0.32545 0.13531
# Poissons Ratio (z) = 0.27826 0.27826
#
# Static dielectric constant tensor:
#      x y z
#    x 1.679970 0.000000 0.000000 
#    y 0.000000 1.679970 0.000000 
#    z 0.000000 0.000000 1.639230 
# 
# From -- ./inp_files/11483.got.cif
#   From: 2010.05.17/outbox.cif.g08.bks.cpg/sg140_6_cif.got.tgz:11483.got - 2010.06.21 00:45:31.
