data_PCOD9572738
_publ_section_title
;
Structure prediction by ZEFSAII (Michael W. Deem and Ramdas Pophale) SiO2 
 PCOD9572738
Probable space group: I 41/A M D
;
_chemical_formula_sum "Si O2"
_cell_formula_units_Z 112
_cell_length_a 16.268205
_cell_length_b 16.268205
_cell_length_c 23.048754
_cell_angle_alpha 90.000000
_cell_angle_beta 90.000000
_cell_angle_gamma 90.000000
_cell_volume 6099.956325
_symmetry_space_group_name_H-M "I 41/A M D"
_symmetry_group_IT_number 141
_space_group.IT_coordinate_system_code '2'
_symmetry_cell_setting 'tetragonal'
loop_
_space_group_symop_operation_xyz
x,y,z
1/4-y,3/4+x,1/4+z
-x,1/2-y,z
1/4+y,1/4-x,3/4+z
x,-y,-z
-x,1/2+y,-z
1/4+y,3/4+x,1/4-z
1/4-y,1/4-x,3/4-z
-x,-y,-z
3/4+y,1/4-x,3/4-z
x,1/2+y,-z
3/4-y,3/4+x,1/4-z
-x,y,z
x,1/2-y,z
3/4-y,1/4-x,3/4+z
3/4+y,3/4+x,1/4+z
1/2+x,1/2+y,1/2+z
3/4-y,1/4+x,3/4+z
1/2-x,-y,1/2+z
3/4+y,3/4-x,1/4+z
1/2+x,1/2-y,1/2-z
1/2-x,y,1/2-z
3/4+y,1/4+x,3/4-z
3/4-y,3/4-x,1/4-z
1/2-x,1/2-y,1/2-z
1/4+y,3/4-x,1/4-z
1/2+x,y,1/2-z
1/4-y,1/4+x,3/4-z
1/2-x,1/2+y,1/2+z
1/2+x,-y,1/2+z
1/4-y,3/4-x,1/4+z
1/4+y,1/4+x,3/4+z
loop_
_atom_site_type_symbol
_atom_site_label
_atom_site_fract_x
_atom_site_fract_y
_atom_site_fract_z
Si Si1 0.157007 0.250000 0.727062
Si Si2 0.906666 0.567912 0.413518
Si Si3 0.177215 0.342764 0.023377
Si Si4 0.597459 0.750000 0.099500
Si Si5 0.250000 0.535144 0.750000
O O1 0.250000 0.250000 0.750000
O O2 0.110471 0.166869 0.744583
O O3 0.153342 0.250000 0.656811
O O4 0.902467 0.568282 0.343708
O O5 0.890355 0.663158 0.432018
O O6 0.843393 0.507770 0.444027
O O7 0.000000 0.547178 0.429929
O O8 0.201458 0.250000 0.006188
O O9 0.230787 0.418098 0.000699
O O10 0.500000 0.750000 0.118200
#
# Coordination Sequence:
#
# PCOD9572738 Si02
#       5
#    16  32  32  16  16
#     4  10  16  32  54  77  99 136 183 217 259 321
#     4   9  19  35  53  75 106 143 177 217 266 317
#     4  10  21  36  53  77 110 141 175 221 270 319
#     4   8  16  32  54  74 102 143 181 219 260 315
#     4  12  21  31  56  84 106 134 182 225 267 314
#
# _framework density 18.360786999999998
#
# number of rings (size 3 to 8) (size 9 to 14) (size 15 to 20)
#    0.000    2.286    1.429    4.286    2.000    0.000 
#    0.000    0.000    0.000    0.000    0.000    4.000 
#    0.000    0.000    0.000    0.000    0.000    0.000 
#
# Total GULP energy -312137.813308 kJ/mol
# GULP energy per Si atom -5573.889523 kJ/mol
# Density = 1.831900 g / cm^3
# Si number density = 18.360787 Si / 1000 Ang^3
#
#
#
# Elastic Constant Matrix: (Units=GPa)
#
#
# Indices 1 2 3 4 5 6 
#
# 1 114.8399 56.0566 17.4911 0.0000 0.0000 0.0000
# 2 56.0566 114.8399 17.4911 0.0000 0.0000 0.0000
# 3 17.4911 17.4911 18.8399 0.0000 0.0000 0.0000
# 4 0.0000 0.0000 0.0000 18.1128 0.0000 0.0000
# 5 0.0000 0.0000 0.0000 0.0000 18.1128 0.0000
# 6 0.0000 0.0000 0.0000 0.0000 0.0000 22.0363
#
#
#
# Elastic Compliance Matrix: (Units=1/GPa)
#
#
# Indices 1 2 3 4 5 6 
#
# 1 0.012118 -0.004894 -0.006707 0.000000 0.000000 0.000000
# 2 -0.004894 0.012118 -0.006707 0.000000 0.000000 0.000000
# 3 -0.006707 -0.006707 0.065533 0.000000 0.000000 0.000000
# 4 0.000000 0.000000 0.000000 0.055210 0.000000 0.000000
# 5 0.000000 0.000000 0.000000 0.000000 0.055210 0.000000
# 6 0.000000 0.000000 0.000000 0.000000 0.000000 0.045380
#
#
# Mechanical properties :
#
#
# Convention : Reuss Voigt Hill
#
# Bulk Modulus (GPa) = 18.81370 47.84415 33.32892
# Shear Modulus (GPa) = 16.67215 22.15109 19.41162
#
# Velocity S-wave (km/s) = 3.01662 3.47715 3.25504
# Velocity P-wave (km/s) = 4.73310 6.49885 5.68495
#
# Compressibility (1/GPa) = 0.05315276
#
# Stress axis : x y z
#
# Youngs Moduli (GPa) = 82.52156 82.52156 15.25956
#
# Poissons Ratio (x) = 0.40383 0.10235
# Poissons Ratio (y) = 0.40383 0.10235
# Poissons Ratio (z) = 0.55349 0.55349
#
# Static dielectric constant tensor:
#      x y z
#    x 1.648920 0.000000 0.000000 
#    y 0.000000 1.648920 0.000000 
#    z 0.000000 0.000000 1.620060 
# 
# From -- ./inp_files/12525.got.cif
#   From: 2010.05.17/outbox.cif.g08.bks.cpg/sg141_7_cif.got.tgz:12525.got - 2010.05.20 13:30:51.
