data_PCOD9572487
_publ_section_title
;
Structure prediction by ZEFSAII (Michael W. Deem and Ramdas Pophale) SiO2 
 PCOD9572487
Probable space group: I 4/M C M
;
_chemical_formula_sum "Si O2"
_cell_formula_units_Z 176
_cell_length_a 24.169544
_cell_length_b 24.169544
_cell_length_c 14.591705
_cell_angle_alpha 90.000000
_cell_angle_beta 90.000000
_cell_angle_gamma 90.000000
_cell_volume 8523.990451
_symmetry_space_group_name_H-M "I 4/M C M"
_symmetry_group_IT_number 140
_symmetry_cell_setting 'tetragonal'
loop_
_space_group_symop_operation_xyz
x,y,z
-y,x,z
-x,-y,z
y,-x,z
x,-y,1/2-z
-x,y,1/2-z
y,x,1/2-z
-y,-x,1/2-z
-x,-y,-z
y,-x,-z
x,y,-z
-y,x,-z
-x,y,1/2+z
x,-y,1/2+z
-y,-x,1/2+z
y,x,1/2+z
1/2+x,1/2+y,1/2+z
1/2-y,1/2+x,1/2+z
1/2-x,1/2-y,1/2+z
1/2+y,1/2-x,1/2+z
1/2+x,1/2-y,-z
1/2-x,1/2+y,-z
1/2+y,1/2+x,-z
1/2-y,1/2-x,-z
1/2-x,1/2-y,1/2-z
1/2+y,1/2-x,1/2-z
1/2+x,1/2+y,1/2-z
1/2-y,1/2+x,1/2-z
1/2-x,1/2+y,z
1/2+x,1/2-y,z
1/2-y,1/2-x,z
1/2+y,1/2+x,z
loop_
_atom_site_type_symbol
_atom_site_label
_atom_site_fract_x
_atom_site_fract_y
_atom_site_fract_z
Si Si1 0.843809 0.437737 0.394921
Si Si2 0.091208 0.500000 0.750000
Si Si3 0.258084 0.149482 0.107346
Si Si4 0.240098 0.065090 0.266414
Si Si5 0.567543 0.441886 0.860190
Si Si6 0.163120 0.130420 0.397418
O O1 0.833822 0.451872 0.500000
O O2 0.885538 0.385538 0.391866
O O3 0.872873 0.486788 0.338625
O O4 0.788636 0.426090 0.339829
O O5 0.052077 0.552077 0.767642
O O6 0.304697 0.195304 0.130902
O O7 0.258298 0.096926 0.174432
O O8 0.195578 0.173231 0.116299
O O9 0.265301 0.134709 0.000000
O O10 0.188728 0.094912 0.315265
O O11 0.230472 0.000000 0.250000
O O12 0.575714 0.505457 0.889265
O O13 0.563357 0.436644 0.750000
O O14 0.615270 0.401793 0.894962
O O15 0.183863 0.115562 0.500000
#
# Coordination Sequence:
#
# PCOD9572487 Si02
#       6
#    32  16  32  32  32  32
#     4  10  21  39  62  91 127 167 214 265 320 383
#     4   9  18  36  60  88 124 166 214 261 312 382
#     4  10  24  47  72  97 126 168 225 282 337 400
#     4  12  25  41  64  94 133 173 213 267 336 399
#     4   9  19  36  60  88 124 169 215 264 326 394
#     4  11  25  41  63  95 128 169 221 273 327 393
#
# _framework density 20.647606
#
# number of rings (size 3 to 8) (size 9 to 14) (size 15 to 20)
#    0.000    1.727    0.909    3.273    5.091    4.727 
#    0.000    4.545    0.000    0.000    0.000    0.000 
#    0.000    0.000    0.000    0.000    0.000    0.000 
#
# Total GULP energy -491658.340262 kJ/mol
# GULP energy per Si atom -5587.026594 kJ/mol
# Density = 2.060061 g / cm^3
# Si number density = 20.647606 Si / 1000 Ang^3
#
#
#
# Elastic Constant Matrix: (Units=GPa)
#
#
# Indices 1 2 3 4 5 6 
#
# 1 97.1208 30.3249 49.1356 0.0000 0.0000 0.0000
# 2 30.3249 97.1204 49.1354 0.0000 0.0000 0.0000
# 3 49.1356 49.1354 132.3662 0.0000 0.0000 0.0000
# 4 0.0000 0.0000 0.0000 18.2110 0.0000 0.0000
# 5 0.0000 0.0000 0.0000 0.0000 18.2114 0.0000
# 6 0.0000 0.0000 0.0000 0.0000 0.0000 27.5260
#
#
#
# Elastic Compliance Matrix: (Units=1/GPa)
#
#
# Indices 1 2 3 4 5 6 
#
# 1 0.012982 -0.001989 -0.004081 0.000000 0.000000 0.000000
# 2 -0.001989 0.012982 -0.004081 0.000000 0.000000 0.000000
# 3 -0.004081 -0.004081 0.010584 0.000000 0.000000 0.000000
# 4 0.000000 0.000000 0.000000 0.054912 0.000000 0.000000
# 5 0.000000 0.000000 0.000000 0.000000 0.054911 0.000000
# 6 0.000000 0.000000 0.000000 0.000000 0.000000 0.036329
#
#
# Mechanical properties :
#
#
# Convention : Reuss Voigt Hill
#
# Bulk Modulus (GPa) = 61.54741 64.86658 63.20699
# Shear Modulus (GPa) = 23.99039 25.99047 24.99043
#
# Velocity S-wave (km/s) = 3.41236 3.55176 3.48276
# Velocity P-wave (km/s) = 6.73786 6.95012 6.84482
#
# Compressibility (1/GPa) = 0.01624764
#
# Stress axis : x y z
#
# Youngs Moduli (GPa) = 77.02965 77.02937 94.47869
#
# Poissons Ratio (x) = 0.15321 0.38554
# Poissons Ratio (y) = 0.15321 0.38554
# Poissons Ratio (z) = 0.31434 0.31434
#
# Static dielectric constant tensor:
#      x y z
#    x 1.836310 0.000000 0.000000 
#    y 0.000000 1.836310 0.000000 
#    z 0.000000 0.000000 1.739770 
# 
# From -- ./inp_files/4953.got.cif
#   From: 2010.05.17/outbox.cif.g08.bks.cpg/sg140_3_cif.got.tgz:4953.got - 2010.06.21 00:45:31.
