data_PCOD9572279
_publ_section_title
;
Structure prediction by ZEFSAII (Michael W. Deem and Ramdas Pophale) SiO2 
 PCOD9572279
Probable space group: I 4/M C M
;
_chemical_formula_sum "Si O2"
_cell_formula_units_Z 240
_cell_length_a 19.806435
_cell_length_b 19.806435
_cell_length_c 33.946282
_cell_angle_alpha 90.000000
_cell_angle_beta 90.000000
_cell_angle_gamma 90.000000
_cell_volume 13316.952196
_symmetry_space_group_name_H-M "I 4/M C M"
_symmetry_group_IT_number 140
_symmetry_cell_setting 'tetragonal'
loop_
_space_group_symop_operation_xyz
x,y,z
-y,x,z
-x,-y,z
y,-x,z
x,-y,1/2-z
-x,y,1/2-z
y,x,1/2-z
-y,-x,1/2-z
-x,-y,-z
y,-x,-z
x,y,-z
-y,x,-z
-x,y,1/2+z
x,-y,1/2+z
-y,-x,1/2+z
y,x,1/2+z
1/2+x,1/2+y,1/2+z
1/2-y,1/2+x,1/2+z
1/2-x,1/2-y,1/2+z
1/2+y,1/2-x,1/2+z
1/2+x,1/2-y,-z
1/2-x,1/2+y,-z
1/2+y,1/2+x,-z
1/2-y,1/2-x,-z
1/2-x,1/2-y,1/2-z
1/2+y,1/2-x,1/2-z
1/2+x,1/2+y,1/2-z
1/2-y,1/2+x,1/2-z
1/2-x,1/2+y,z
1/2+x,1/2-y,z
1/2-y,1/2-x,z
1/2+y,1/2+x,z
loop_
_atom_site_type_symbol
_atom_site_label
_atom_site_fract_x
_atom_site_fract_y
_atom_site_fract_z
Si Si1 0.201520 0.870310 0.412832
Si Si2 0.622032 0.767084 0.588220
Si Si3 0.091958 0.064919 0.956952
Si Si4 0.425345 0.689077 0.252083
Si Si5 0.207366 0.519956 0.047005
Si Si6 0.445288 0.945288 0.547897
Si Si7 0.868191 0.261201 0.320008
Si Si8 0.854248 0.753541 0.675094
O O1 0.176036 0.793507 0.420927
O O2 0.131641 0.909347 0.419519
O O3 0.251273 0.912741 0.440960
O O4 0.233378 0.875801 0.369706
O O5 0.663354 0.836647 0.581008
O O6 0.550606 0.765483 0.565530
O O7 0.606670 0.761365 0.635024
O O8 0.015588 0.090133 0.956348
O O9 0.120832 0.086233 0.000000
O O10 0.500000 0.660409 0.250000
O O11 0.370236 0.629765 0.250000
O O12 0.416921 0.738262 0.214564
O O13 0.409241 0.730118 0.291980
O O14 0.130005 0.533056 0.059922
O O15 0.209790 0.512373 0.000000
O O16 0.445056 0.945056 0.500000
O O17 0.500000 0.000000 0.561193
O O18 0.832540 0.332540 0.311917
O O19 0.808527 0.205355 0.318814
O O20 0.819054 0.680947 0.679589
#
# Coordination Sequence:
#
# PCOD9572279 Si02
#       8
#    32  32  32  32  32  16  32  32
#     4  11  21  33  56  83 119 144 185 241 297 344
#     4  10  22  39  60  85 115 149 190 243 300 346
#     4   9  18  34  53  73 105 154 205 243 283 346
#     4  10  20  34  55  81 114 148 183 213 261 327
#     4  11  24  38  57  84 114 153 195 240 298 351
#     4   9  20  40  60  76 104 148 199 237 275 349
#     4   8  16  34  58  81 105 139 184 230 275 328
#     4   9  19  35  55  79 108 143 179 226 280 331
#
# _framework density 18.022141999999999
#
# number of rings (size 3 to 8) (size 9 to 14) (size 15 to 20)
#    0.000    2.333    0.000    3.600    3.733    4.667 
#    2.400    0.000    0.000    0.000    0.000    0.000 
#    0.000    1.067    0.000    0.000    0.000    0.000 
#
# Total GULP energy -668320.406885 kJ/mol
# GULP energy per Si atom -5569.336724 kJ/mol
# Density = 1.798112 g / cm^3
# Si number density = 18.022142 Si / 1000 Ang^3
#
#
#
# Elastic Constant Matrix: (Units=GPa)
#
#
# Indices 1 2 3 4 5 6 
#
# 1 81.8134 17.2533 39.5129 0.0000 0.0000 0.0000
# 2 17.2533 81.8184 39.5151 0.0000 0.0000 0.0000
# 3 39.5129 39.5151 67.1516 0.0000 0.0000 0.0000
# 4 0.0000 0.0000 0.0000 22.0088 0.0000 0.0000
# 5 0.0000 0.0000 0.0000 0.0000 22.0087 0.0000
# 6 0.0000 0.0000 0.0000 0.0000 0.0000 27.4324
#
#
#
# Elastic Compliance Matrix: (Units=1/GPa)
#
#
# Indices 1 2 3 4 5 6 
#
# 1 0.017256 0.001767 -0.011194 0.000000 0.000000 0.000000
# 2 0.001767 0.017256 -0.011194 0.000000 0.000000 0.000000
# 3 -0.011194 -0.011194 0.028065 0.000000 0.000000 0.000000
# 4 0.000000 0.000000 0.000000 0.045436 0.000000 0.000000
# 5 0.000000 0.000000 0.000000 0.000000 0.045437 0.000000
# 6 0.000000 0.000000 0.000000 0.000000 0.000000 0.036453
#
#
# Mechanical properties :
#
#
# Convention : Reuss Voigt Hill
#
# Bulk Modulus (GPa) = 46.86819 47.03846 46.95333
# Shear Modulus (GPa) = 20.98573 23.25679 22.12126
#
# Velocity S-wave (km/s) = 3.41609 3.59619 3.50730
# Velocity P-wave (km/s) = 6.45151 6.58790 6.52006
#
# Compressibility (1/GPa) = 0.02133643
#
# Stress axis : x y z
#
# Youngs Moduli (GPa) = 57.94925 57.95157 35.63111
#
# Poissons Ratio (x) = -0.10242 0.39885
# Poissons Ratio (y) = -0.10241 0.39885
# Poissons Ratio (z) = 0.64868 0.64871
#
# Static dielectric constant tensor:
#      x y z
#    x 1.629940 0.000000 0.000000 
#    y 0.000000 1.629940 0.000000 
#    z 0.000000 0.000000 1.672130 
# 
# From -- ./inp_files/11790.got.cif
#   From: 2010.05.17/outbox.cif.g08.bks.cpg/sg140_6_cif.got.tgz:11790.got - 2010.06.21 00:45:31.
