data_PCOD9572269
_publ_section_title
;
Structure prediction by ZEFSAII (Michael W. Deem and Ramdas Pophale) SiO2 
 PCOD9572269
Probable space group: I 4/M C M
;
_chemical_formula_sum "Si O2"
_cell_formula_units_Z 128
_cell_length_a 30.377705
_cell_length_b 30.377705
_cell_length_c 8.431562
_cell_angle_alpha 90.000000
_cell_angle_beta 90.000000
_cell_angle_gamma 90.000000
_cell_volume 7780.687243
_symmetry_space_group_name_H-M "I 4/M C M"
_symmetry_group_IT_number 140
_symmetry_cell_setting 'tetragonal'
loop_
_space_group_symop_operation_xyz
x,y,z
-y,x,z
-x,-y,z
y,-x,z
x,-y,1/2-z
-x,y,1/2-z
y,x,1/2-z
-y,-x,1/2-z
-x,-y,-z
y,-x,-z
x,y,-z
-y,x,-z
-x,y,1/2+z
x,-y,1/2+z
-y,-x,1/2+z
y,x,1/2+z
1/2+x,1/2+y,1/2+z
1/2-y,1/2+x,1/2+z
1/2-x,1/2-y,1/2+z
1/2+y,1/2-x,1/2+z
1/2+x,1/2-y,-z
1/2-x,1/2+y,-z
1/2+y,1/2+x,-z
1/2-y,1/2-x,-z
1/2-x,1/2-y,1/2-z
1/2+y,1/2-x,1/2-z
1/2+x,1/2+y,1/2-z
1/2-y,1/2+x,1/2-z
1/2-x,1/2+y,z
1/2+x,1/2-y,z
1/2-y,1/2-x,z
1/2+y,1/2+x,z
loop_
_atom_site_type_symbol
_atom_site_label
_atom_site_fract_x
_atom_site_fract_y
_atom_site_fract_z
Si Si1 0.664805 0.046215 0.813150
Si Si2 0.546553 0.264376 0.307808
Si Si3 0.798718 0.298718 0.318865
Si Si4 0.714465 0.352953 0.188928
Si Si5 0.135645 0.364356 0.678700
O O1 0.716822 0.046851 0.776093
O O2 0.645125 0.085342 0.711551
O O3 0.647371 0.000000 0.750000
O O4 0.657310 0.051798 0.000000
O O5 0.500000 0.285719 0.250000
O O6 0.544708 0.259796 0.500000
O O7 0.595121 0.283319 0.265776
O O8 0.788121 0.288121 0.500000
O O9 0.755547 0.322383 0.246167
O O10 0.835906 0.335906 0.300548
O O11 0.670690 0.329311 0.250000
O O12 0.715801 0.351834 0.000000
O O13 0.148574 0.351427 0.500000
#
# Coordination Sequence:
#
# PCOD9572269 Si02
#       5
#    32  32  16  32  16
#     4  11  21  34  53  76 100 130 167 211 263 311
#     4  10  20  34  53  75 102 134 171 216 259 301
#     4  12  23  35  52  74 102 141 181 216 259 307
#     4  11  23  37  53  74 106 143 179 217 258 306
#     4  12  22  35  53  75 103 132 170 216 259 310
#
# _framework density 16.450987999999999
#
# number of rings (size 3 to 8) (size 9 to 14) (size 15 to 20)
#    0.000    1.000    2.500    7.875    0.000    3.000 
#    0.000    0.000    0.000    0.375    0.000    2.625 
#    0.000    0.500    0.000    5.500    0.000    4.000 
#
# Total GULP energy -356964.402868 kJ/mol
# GULP energy per Si atom -5577.568795 kJ/mol
# Density = 1.641354 g / cm^3
# Si number density = 16.450988 Si / 1000 Ang^3
#
#
#
# Elastic Constant Matrix: (Units=GPa)
#
#
# Indices 1 2 3 4 5 6 
#
# 1 309.7420 -177.3618 11.1075 0.0000 0.0000 0.0000
# 2 -177.3618 309.8366 11.1307 0.0000 0.0000 0.0000
# 3 11.1075 11.1307 65.1300 0.0000 0.0000 0.0000
# 4 0.0000 0.0000 0.0000 25.4120 0.0000 0.0000
# 5 0.0000 0.0000 0.0000 0.0000 25.4126 0.0000
# 6 0.0000 0.0000 0.0000 0.0000 0.0000 12.7593
#
#
#
# Elastic Compliance Matrix: (Units=1/GPa)
#
#
# Indices 1 2 3 4 5 6 
#
# 1 0.004914 0.002861 -0.001327 0.000000 0.000000 0.000000
# 2 0.002861 0.004913 -0.001327 0.000000 0.000000 0.000000
# 3 -0.001327 -0.001327 0.015807 0.000000 0.000000 0.000000
# 4 0.000000 0.000000 0.000000 0.039352 0.000000 0.000000
# 5 0.000000 0.000000 0.000000 0.000000 0.039351 0.000000
# 6 0.000000 0.000000 0.000000 0.000000 0.000000 0.078374
#
#
# Mechanical properties :
#
#
# Convention : Reuss Voigt Hill
#
# Bulk Modulus (GPa) = 38.39279 41.60683 39.99981
# Shear Modulus (GPa) = 26.18071 68.70557 47.44314
#
# Velocity S-wave (km/s) = 3.99361 6.46950 5.37603
# Velocity P-wave (km/s) = 6.68233 9.00845 7.93114
#
# Compressibility (1/GPa) = 0.02604655
#
# Stress axis : x y z
#
# Youngs Moduli (GPa) = 203.49381 203.55111 63.26282
#
# Poissons Ratio (x) = -0.58230 0.08395
# Poissons Ratio (y) = -0.58214 0.08398
# Poissons Ratio (z) = 0.27003 0.27021
#
# Static dielectric constant tensor:
#      x y z
#    x 1.394530 0.000000 0.000000 
#    y 0.000000 1.394450 0.000000 
#    z 0.000000 0.000000 1.557650 
# 
# From -- ./inp_files/1489.got.cif
#   From: 2010.05.17/outbox.cif.g08.bks.cpg/sg140_1_cif.got.tgz:1489.got - 2010.06.21 00:45:31.
