data_PCOD9572043
_publ_section_title
;
Structure prediction by ZEFSAII (Michael W. Deem and Ramdas Pophale) SiO2 
 PCOD9572043
Probable space group: I 4/M C M
;
_chemical_formula_sum "Si O2"
_cell_formula_units_Z 96
_cell_length_a 25.803567
_cell_length_b 25.803567
_cell_length_c 8.618887
_cell_angle_alpha 90.000000
_cell_angle_beta 90.000000
_cell_angle_gamma 90.000000
_cell_volume 5738.662421
_symmetry_space_group_name_H-M "I 4/M C M"
_symmetry_group_IT_number 140
_symmetry_cell_setting 'tetragonal'
loop_
_space_group_symop_operation_xyz
x,y,z
-y,x,z
-x,-y,z
y,-x,z
x,-y,1/2-z
-x,y,1/2-z
y,x,1/2-z
-y,-x,1/2-z
-x,-y,-z
y,-x,-z
x,y,-z
-y,x,-z
-x,y,1/2+z
x,-y,1/2+z
-y,-x,1/2+z
y,x,1/2+z
1/2+x,1/2+y,1/2+z
1/2-y,1/2+x,1/2+z
1/2-x,1/2-y,1/2+z
1/2+y,1/2-x,1/2+z
1/2+x,1/2-y,-z
1/2-x,1/2+y,-z
1/2+y,1/2+x,-z
1/2-y,1/2-x,-z
1/2-x,1/2-y,1/2-z
1/2+y,1/2-x,1/2-z
1/2+x,1/2+y,1/2-z
1/2-y,1/2+x,1/2-z
1/2-x,1/2+y,z
1/2+x,1/2-y,z
1/2-y,1/2-x,z
1/2+y,1/2+x,z
loop_
_atom_site_type_symbol
_atom_site_label
_atom_site_fract_x
_atom_site_fract_y
_atom_site_fract_z
Si Si1 0.941888 0.643312 0.814272
Si Si2 0.558815 0.748514 0.185403
Si Si3 0.558637 0.639957 0.314337
O O1 0.904691 0.595310 0.776814
O O2 0.919399 0.696696 0.743386
O O3 0.000000 0.635314 0.750000
O O4 0.944998 0.649022 0.000000
O O5 0.500000 0.749624 0.250000
O O6 0.580670 0.695244 0.254584
O O7 0.558426 0.746133 0.000000
O O8 0.500000 0.634910 0.250000
O O9 0.594027 0.594027 0.250000
O O10 0.557120 0.639665 0.500000
#
# Coordination Sequence:
#
# PCOD9572043 Si02
#       3
#    32  32  32
#     4  10  20  33  50  73 101 133 168 207 251 298
#     4  10  18  31  51  73  97 129 168 207 246 291
#     4  11  21  35  53  76 104 134 168 205 248 295
#
# _framework density 16.728636999999999
#
# number of rings (size 3 to 8) (size 9 to 14) (size 15 to 20)
#    0.000    1.667    0.000   11.000    0.000    3.333 
#    0.000    3.333    0.000    1.000    0.000    0.000 
#    0.000    0.000    0.000    0.000    0.000    0.000 
#
# Total GULP energy -267768.656773 kJ/mol
# GULP energy per Si atom -5578.513683 kJ/mol
# Density = 1.669056 g / cm^3
# Si number density = 16.728637 Si / 1000 Ang^3
#
#
#
# Elastic Constant Matrix: (Units=GPa)
#
#
# Indices 1 2 3 4 5 6 
#
# 1 104.7328 63.2203 58.9528 0.0000 0.0000 0.0000
# 2 63.2203 104.7328 58.9528 0.0000 0.0000 0.0000
# 3 58.9528 58.9528 160.3906 0.0000 0.0000 0.0000
# 4 0.0000 0.0000 0.0000 26.3054 0.0000 0.0000
# 5 0.0000 0.0000 0.0000 0.0000 26.3054 0.0000
# 6 0.0000 0.0000 0.0000 0.0000 0.0000 -2.5829
#
#
#
# Elastic Compliance Matrix: (Units=1/GPa)
#
#
# Indices 1 2 3 4 5 6 
#
# 1 0.016057 -0.008032 -0.002950 0.000000 0.000000 0.000000
# 2 -0.008032 0.016057 -0.002950 0.000000 0.000000 0.000000
# 3 -0.002950 -0.002950 0.008403 0.000000 0.000000 0.000000
# 4 0.000000 0.000000 0.000000 0.038015 0.000000 0.000000
# 5 0.000000 0.000000 0.000000 0.000000 0.038015 0.000000
# 6 0.000000 0.000000 0.000000 0.000000 0.000000 -0.387168
#
#
# Mechanical properties :
#
#
# Convention : Reuss Voigt Hill
#
# Bulk Modulus (GPa) = 79.02494 81.34534 80.18514
# Shear Modulus (GPa) = -20.96077 22.58761 0.81342
#
# Velocity S-wave (km/s) = -3.54360 3.67854 0.69807
# Velocity P-wave (km/s) = 5.53165 8.17155 6.97758
#
# Compressibility (1/GPa) = 0.01265423
#
# Stress axis : x y z
#
# Youngs Moduli (GPa) = 62.27850 62.27850 119.00485
#
# Poissons Ratio (x) = 0.50024 0.35101
# Poissons Ratio (y) = 0.50024 0.35101
# Poissons Ratio (z) = 0.18369 0.18369
#
# Static dielectric constant tensor:
#      x y z
#    x 1.608610 0.000000 0.000000 
#    y 0.000000 1.608610 0.000000 
#    z 0.000000 0.000000 1.556980 
# 
# From -- ./inp_files/914.got.cif
#   From: 2010.05.17/outbox.cif.g08.bks.cpg/sg140_1_cif.got.tgz:914.got - 2010.06.21 00:45:31.
