data_PCOD9572521
_publ_section_title
;
Structure prediction by ZEFSAII (Michael W. Deem and Ramdas Pophale) SiO2 
 PCOD9572521
Probable space group: I 4/M C M
;
_chemical_formula_sum "Si O2"
_cell_formula_units_Z 96
_cell_length_a 13.743898
_cell_length_b 13.743898
_cell_length_c 26.748508
_cell_angle_alpha 90.000000
_cell_angle_beta 90.000000
_cell_angle_gamma 90.000000
_cell_volume 5052.652256
_symmetry_space_group_name_H-M "I 4/M C M"
_symmetry_group_IT_number 140
_symmetry_cell_setting 'tetragonal'
loop_
_space_group_symop_operation_xyz
x,y,z
-y,x,z
-x,-y,z
y,-x,z
x,-y,1/2-z
-x,y,1/2-z
y,x,1/2-z
-y,-x,1/2-z
-x,-y,-z
y,-x,-z
x,y,-z
-y,x,-z
-x,y,1/2+z
x,-y,1/2+z
-y,-x,1/2+z
y,x,1/2+z
1/2+x,1/2+y,1/2+z
1/2-y,1/2+x,1/2+z
1/2-x,1/2-y,1/2+z
1/2+y,1/2-x,1/2+z
1/2+x,1/2-y,-z
1/2-x,1/2+y,-z
1/2+y,1/2+x,-z
1/2-y,1/2-x,-z
1/2-x,1/2-y,1/2-z
1/2+y,1/2-x,1/2-z
1/2+x,1/2+y,1/2-z
1/2-y,1/2+x,1/2-z
1/2-x,1/2+y,z
1/2+x,1/2-y,z
1/2-y,1/2-x,z
1/2+y,1/2+x,z
loop_
_atom_site_type_symbol
_atom_site_label
_atom_site_fract_x
_atom_site_fract_y
_atom_site_fract_z
Si Si1 0.883889 0.883889 0.750000
Si Si2 0.922656 0.259175 0.898265
Si Si3 0.122290 0.220646 0.852737
Si Si4 0.995974 0.338083 0.500000
O O1 0.850821 0.829644 0.800124
O O2 0.000000 0.868672 0.750000
O O3 0.852655 0.352655 0.888225
O O4 0.851509 0.166405 0.894767
O O5 0.977587 0.277805 0.950507
O O6 0.008791 0.240123 0.859187
O O7 0.178494 0.321507 0.857076
O O8 0.073575 0.426426 0.500000
O O9 0.889920 0.389920 0.500000
#
# Coordination Sequence:
#
# PCOD9572521 Si02
#       4
#    16  32  32  16
#     4  11  21  38  62  84 115 161 198 250 306 366
#     4  10  22  38  59  91 122 159 205 246 300 364
#     4  11  22  38  62  87 120 158 200 254 305 362
#     4   9  18  36  60  85 121 161 196 241 295 351
#
# _framework density 18.999922000000002
#
# number of rings (size 3 to 8) (size 9 to 14) (size 15 to 20)
#    0.000    1.667    3.333    1.500    0.000    4.000 
#    0.000    3.333    0.000    2.000    0.000    0.000 
#    0.000    0.000    0.000    0.000    0.000    0.000 
#
# Total GULP energy -267563.384858 kJ/mol
# GULP energy per Si atom -5574.237185 kJ/mol
# Density = 1.895668 g / cm^3
# Si number density = 18.999922 Si / 1000 Ang^3
#
#
#
# Elastic Constant Matrix: (Units=GPa)
#
#
# Indices 1 2 3 4 5 6 
#
# 1 88.4579 43.2634 18.7473 0.0000 0.0000 0.0000
# 2 43.2634 88.4578 18.7473 0.0000 0.0000 0.0000
# 3 18.7473 18.7473 85.0623 0.0000 0.0000 0.0000
# 4 0.0000 0.0000 0.0000 25.3114 0.0000 0.0000
# 5 0.0000 0.0000 0.0000 0.0000 25.3118 0.0000
# 6 0.0000 0.0000 0.0000 0.0000 0.0000 18.5591
#
#
#
# Elastic Compliance Matrix: (Units=1/GPa)
#
#
# Indices 1 2 3 4 5 6 
#
# 1 0.015113 -0.007013 -0.001785 0.000000 0.000000 0.000000
# 2 -0.007013 0.015113 -0.001785 0.000000 0.000000 0.000000
# 3 -0.001785 -0.001785 0.012543 0.000000 0.000000 0.000000
# 4 0.000000 0.000000 0.000000 0.039508 0.000000 0.000000
# 5 0.000000 0.000000 0.000000 0.000000 0.039507 0.000000
# 6 0.000000 0.000000 0.000000 0.000000 0.000000 0.053882
#
#
# Mechanical properties :
#
#
# Convention : Reuss Voigt Hill
#
# Bulk Modulus (GPa) = 46.29173 47.05488 46.67330
# Shear Modulus (GPa) = 24.50562 25.91779 25.21171
#
# Velocity S-wave (km/s) = 3.59524 3.69738 3.64667
# Velocity P-wave (km/s) = 6.45379 6.56103 6.50763
#
# Compressibility (1/GPa) = 0.02160213
#
# Stress axis : x y z
#
# Youngs Moduli (GPa) = 66.16699 66.16691 79.72583
#
# Poissons Ratio (x) = 0.46405 0.14233
# Poissons Ratio (y) = 0.46405 0.14233
# Poissons Ratio (z) = 0.11812 0.11812
#
# Static dielectric constant tensor:
#      x y z
#    x 1.638320 0.000000 0.000000 
#    y 0.000000 1.638320 0.000000 
#    z 0.000000 0.000000 1.705590 
# 
# From -- ./inp_files/10208.got.cif
#   From: 2010.05.17/outbox.cif.g08.bks.cpg/sg140_6_cif.got.tgz:10208.got - 2010.06.21 00:45:31.
