data_PCOD9572449
_publ_section_title
;
Structure prediction by ZEFSAII (Michael W. Deem and Ramdas Pophale) SiO2 
 PCOD9572449
Probable space group: I 4/M C M
;
_chemical_formula_sum "Si O2"
_cell_formula_units_Z 240
_cell_length_a 22.014074
_cell_length_b 22.014074
_cell_length_c 26.441190
_cell_angle_alpha 90.000000
_cell_angle_beta 90.000000
_cell_angle_gamma 90.000000
_cell_volume 12813.915063
_symmetry_space_group_name_H-M "I 4/M C M"
_symmetry_group_IT_number 140
_symmetry_cell_setting 'tetragonal'
loop_
_space_group_symop_operation_xyz
x,y,z
-y,x,z
-x,-y,z
y,-x,z
x,-y,1/2-z
-x,y,1/2-z
y,x,1/2-z
-y,-x,1/2-z
-x,-y,-z
y,-x,-z
x,y,-z
-y,x,-z
-x,y,1/2+z
x,-y,1/2+z
-y,-x,1/2+z
y,x,1/2+z
1/2+x,1/2+y,1/2+z
1/2-y,1/2+x,1/2+z
1/2-x,1/2-y,1/2+z
1/2+y,1/2-x,1/2+z
1/2+x,1/2-y,-z
1/2-x,1/2+y,-z
1/2+y,1/2+x,-z
1/2-y,1/2-x,-z
1/2-x,1/2-y,1/2-z
1/2+y,1/2-x,1/2-z
1/2+x,1/2+y,1/2-z
1/2-y,1/2+x,1/2-z
1/2-x,1/2+y,z
1/2+x,1/2-y,z
1/2-y,1/2-x,z
1/2+y,1/2+x,z
loop_
_atom_site_type_symbol
_atom_site_label
_atom_site_fract_x
_atom_site_fract_y
_atom_site_fract_z
Si Si1 0.550686 0.856362 0.210921
Si Si2 0.502756 0.830682 0.608762
Si Si3 0.857310 0.741419 0.261825
Si Si4 0.600017 0.492187 0.689281
Si Si5 0.692518 0.295098 0.638269
Si Si6 0.926768 0.779863 0.839366
Si Si7 0.719511 0.116949 0.441319
Si Si8 0.549869 0.049869 0.940115
O O1 0.500000 0.836919 0.250000
O O2 0.585270 0.914731 0.232177
O O3 0.525333 0.867253 0.155957
O O4 0.599506 0.803158 0.206284
O O5 0.543392 0.778780 0.635048
O O6 0.449735 0.799139 0.576734
O O7 0.535515 0.881784 0.576651
O O8 0.801834 0.698167 0.243124
O O9 0.831922 0.787325 0.303822
O O10 0.898931 0.765000 0.216321
O O11 0.563561 0.554018 0.676066
O O12 0.607383 0.500000 0.750000
O O13 0.665120 0.474887 0.666140
O O14 0.753235 0.253235 0.634873
O O15 0.702743 0.366106 0.629912
O O16 0.645980 0.267488 0.597655
O O17 0.739527 0.117587 0.500000
O O18 0.660003 0.160003 0.437837
O O19 0.500000 0.000000 0.920853
O O20 0.546593 0.046593 0.000000
#
# Coordination Sequence:
#
# PCOD9572449 Si02
#       8
#    32  32  32  32  32  32  32  16
#     4  11  22  36  54  83 124 166 205 246 296 364
#     4  12  25  39  63  94 125 161 214 263 309 371
#     4  10  21  37  54  84 125 165 200 242 297 374
#     4   9  22  39  55  83 123 165 210 257 304 360
#     4  10  22  39  61  91 123 158 204 255 315 376
#     4  12  25  34  64  90 130 170 204 252 311 378
#     4  10  21  42  70  92 114 151 204 267 320 369
#     4  11  26  48  72  94 123 172 222 270 327 377
#
# _framework density 18.729638999999999
#
# number of rings (size 3 to 8) (size 9 to 14) (size 15 to 20)
#    0.000    1.400    2.667    2.800   10.267    2.267 
#    0.000    1.333    0.000    0.000    0.000    0.000 
#    0.000    1.067    0.000    0.000    0.000    0.000 
#
# Total GULP energy -669867.699743 kJ/mol
# GULP energy per Si atom -5582.230831 kJ/mol
# Density = 1.868701 g / cm^3
# Si number density = 18.729639 Si / 1000 Ang^3
#
#
#
# Elastic Constant Matrix: (Units=GPa)
#
#
# Indices 1 2 3 4 5 6 
#
# 1 140.2557 7.8219 32.5558 0.0000 0.0000 0.0000
# 2 7.8219 140.2557 32.5558 0.0000 0.0000 0.0000
# 3 32.5558 32.5558 80.3114 0.0000 0.0000 0.0000
# 4 0.0000 0.0000 0.0000 8.5599 0.0000 0.0000
# 5 0.0000 0.0000 0.0000 0.0000 8.5599 0.0000
# 6 0.0000 0.0000 0.0000 0.0000 0.0000 19.2906
#
#
#
# Elastic Compliance Matrix: (Units=1/GPa)
#
#
# Indices 1 2 3 4 5 6 
#
# 1 0.007885 0.000334 -0.003331 0.000000 0.000000 0.000000
# 2 0.000334 0.007885 -0.003331 0.000000 0.000000 0.000000
# 3 -0.003331 -0.003331 0.015152 0.000000 0.000000 0.000000
# 4 0.000000 0.000000 0.000000 0.116824 0.000000 0.000000
# 5 0.000000 0.000000 0.000000 0.000000 0.116824 0.000000
# 6 0.000000 0.000000 0.000000 0.000000 0.000000 0.051839
#
#
# Mechanical properties :
#
#
# Convention : Reuss Voigt Hill
#
# Bulk Modulus (GPa) = 54.75521 56.29885 55.52703
# Shear Modulus (GPa) = 14.91851 26.47469 20.69660
#
# Velocity S-wave (km/s) = 2.82533 3.76376 3.32779
# Velocity P-wave (km/s) = 6.31991 7.00084 6.66907
#
# Compressibility (1/GPa) = 0.01826310
#
# Stress axis : x y z
#
# Youngs Moduli (GPa) = 126.83111 126.83111 65.99616
#
# Poissons Ratio (x) = -0.04231 0.21986
# Poissons Ratio (y) = -0.04231 0.21986
# Poissons Ratio (z) = 0.42252 0.42252
#
# Static dielectric constant tensor:
#      x y z
#    x 1.660470 0.000000 0.000000 
#    y 0.000000 1.660470 0.000000 
#    z 0.000000 0.000000 1.626300 
# 
# From -- ./inp_files/10969.got.cif
#   From: 2010.05.17/outbox.cif.g08.bks.cpg/sg140_6_cif.got.tgz:10969.got - 2010.06.21 00:45:31.
