data_PCOD9572133
_publ_section_title
;
Structure prediction by ZEFSAII (Michael W. Deem and Ramdas Pophale) SiO2 
 PCOD9572133
Probable space group: I 4/M C M
;
_chemical_formula_sum "Si O2"
_cell_formula_units_Z 160
_cell_length_a 31.675387
_cell_length_b 31.675387
_cell_length_c 9.542558
_cell_angle_alpha 90.000000
_cell_angle_beta 90.000000
_cell_angle_gamma 90.000000
_cell_volume 9574.336069
_symmetry_space_group_name_H-M "I 4/M C M"
_symmetry_group_IT_number 140
_symmetry_cell_setting 'tetragonal'
loop_
_space_group_symop_operation_xyz
x,y,z
-y,x,z
-x,-y,z
y,-x,z
x,-y,1/2-z
-x,y,1/2-z
y,x,1/2-z
-y,-x,1/2-z
-x,-y,-z
y,-x,-z
x,y,-z
-y,x,-z
-x,y,1/2+z
x,-y,1/2+z
-y,-x,1/2+z
y,x,1/2+z
1/2+x,1/2+y,1/2+z
1/2-y,1/2+x,1/2+z
1/2-x,1/2-y,1/2+z
1/2+y,1/2-x,1/2+z
1/2+x,1/2-y,-z
1/2-x,1/2+y,-z
1/2+y,1/2+x,-z
1/2-y,1/2-x,-z
1/2-x,1/2-y,1/2-z
1/2+y,1/2-x,1/2-z
1/2+x,1/2+y,1/2-z
1/2-y,1/2+x,1/2-z
1/2-x,1/2+y,z
1/2+x,1/2-y,z
1/2-y,1/2-x,z
1/2+y,1/2+x,z
loop_
_atom_site_type_symbol
_atom_site_label
_atom_site_fract_x
_atom_site_fract_y
_atom_site_fract_z
Si Si1 0.788057 0.457862 0.335867
Si Si2 0.518265 0.568530 0.000000
Si Si3 0.123950 0.694370 0.835268
Si Si4 0.126868 0.000000 0.750000
Si Si5 0.308826 0.571155 0.341619
Si Si6 0.790396 0.848842 0.165714
O O1 0.798289 0.500000 0.250000
O O2 0.798877 0.461397 0.500000
O O3 0.808316 0.416975 0.262488
O O4 0.737444 0.449835 0.327004
O O5 0.470896 0.549511 0.000000
O O6 0.522169 0.597321 0.135974
O O7 0.157550 0.657550 0.809423
O O8 0.145376 0.740200 0.811871
O O9 0.111531 0.693259 0.000000
O O10 0.156441 0.964645 0.818988
O O11 0.312026 0.588358 0.500000
O O12 0.311288 0.608838 0.230197
O O13 0.809866 0.809866 0.250000
O O14 0.798167 0.845381 0.000000
#
# Coordination Sequence:
#
# PCOD9572133 Si02
#       6
#    32  16  32  16  32  32
#     4  10  19  32  54  79 111 143 174 218 269 313
#     4  11  26  44  56  70  92 122 162 208 266 330
#     4   9  19  36  55  77 107 147 189 225 267 319
#     4  12  22  39  62  76  94 126 162 212 269 332
#     4  10  21  36  53  79 104 128 165 210 263 328
#     4  10  21  35  53  76 107 141 176 222 269 317
#
# _framework density 16.711341999999998
#
# number of rings (size 3 to 8) (size 9 to 14) (size 15 to 20)
#    0.000    1.900    2.000    1.800    1.400    4.800 
#    0.000    0.000    0.000    0.000    0.000    0.000 
#    0.000    0.400    0.000    4.200    0.000    1.800 
#
# Total GULP energy -446670.846784 kJ/mol
# GULP energy per Si atom -5583.385585 kJ/mol
# Density = 1.667331 g / cm^3
# Si number density = 16.711342 Si / 1000 Ang^3
#
#
#
# Elastic Constant Matrix: (Units=GPa)
#
#
# Indices 1 2 3 4 5 6 
#
# 1 68.6160 43.0981 54.9029 0.0000 0.0000 0.0000
# 2 43.0981 68.6160 54.9029 0.0000 0.0000 0.0000
# 3 54.9029 54.9029 128.5208 0.0000 0.0000 0.0000
# 4 0.0000 0.0000 0.0000 24.8066 0.0000 0.0000
# 5 0.0000 0.0000 0.0000 0.0000 24.8066 0.0000
# 6 0.0000 0.0000 0.0000 0.0000 0.0000 11.5407
#
#
#
# Elastic Compliance Matrix: (Units=1/GPa)
#
#
# Indices 1 2 3 4 5 6 
#
# 1 0.027309 -0.011879 -0.006592 0.000000 0.000000 0.000000
# 2 -0.011879 0.027309 -0.006592 0.000000 0.000000 0.000000
# 3 -0.006592 -0.006592 0.013413 0.000000 0.000000 0.000000
# 4 0.000000 0.000000 0.000000 0.040312 0.000000 0.000000
# 5 0.000000 0.000000 0.000000 0.000000 0.040312 0.000000
# 6 0.000000 0.000000 0.000000 0.000000 0.000000 0.086650
#
#
# Mechanical properties :
#
#
# Convention : Reuss Voigt Hill
#
# Bulk Modulus (GPa) = 55.84484 63.50674 59.67579
# Shear Modulus (GPa) = 17.15863 19.75404 18.45633
#
# Velocity S-wave (km/s) = 3.20779 3.44186 3.32689
# Velocity P-wave (km/s) = 6.87094 7.34029 7.10949
#
# Compressibility (1/GPa) = 0.01790676
#
# Stress axis : x y z
#
# Youngs Moduli (GPa) = 36.61749 36.61749 74.55576
#
# Poissons Ratio (x) = 0.43497 0.49146
# Poissons Ratio (y) = 0.43497 0.49146
# Poissons Ratio (z) = 0.24138 0.24138
#
# Static dielectric constant tensor:
#      x y z
#    x 1.539670 0.000000 0.000000 
#    y 0.000000 1.539670 0.000000 
#    z 0.000000 0.000000 1.552770 
# 
# From -- ./inp_files/1833.got.cif
#   From: 2010.05.17/outbox.cif.g08.bks.cpg/sg140_1_cif.got.tgz:1833.got - 2010.06.21 00:45:31.
