data_PCOD9572188
_publ_section_title
;
Structure prediction by ZEFSAII (Michael W. Deem and Ramdas Pophale) SiO2 
 PCOD9572188
Probable space group: I 4/M C M
;
_chemical_formula_sum "Si O2"
_cell_formula_units_Z 160
_cell_length_a 31.540923
_cell_length_b 31.540923
_cell_length_c 8.747780
_cell_angle_alpha 90.000000
_cell_angle_beta 90.000000
_cell_angle_gamma 90.000000
_cell_volume 8702.552435
_symmetry_space_group_name_H-M "I 4/M C M"
_symmetry_group_IT_number 140
_symmetry_cell_setting 'tetragonal'
loop_
_space_group_symop_operation_xyz
x,y,z
-y,x,z
-x,-y,z
y,-x,z
x,-y,1/2-z
-x,y,1/2-z
y,x,1/2-z
-y,-x,1/2-z
-x,-y,-z
y,-x,-z
x,y,-z
-y,x,-z
-x,y,1/2+z
x,-y,1/2+z
-y,-x,1/2+z
y,x,1/2+z
1/2+x,1/2+y,1/2+z
1/2-y,1/2+x,1/2+z
1/2-x,1/2-y,1/2+z
1/2+y,1/2-x,1/2+z
1/2+x,1/2-y,-z
1/2-x,1/2+y,-z
1/2+y,1/2+x,-z
1/2-y,1/2-x,-z
1/2-x,1/2-y,1/2-z
1/2+y,1/2-x,1/2-z
1/2+x,1/2+y,1/2-z
1/2-y,1/2+x,1/2-z
1/2-x,1/2+y,z
1/2+x,1/2-y,z
1/2-y,1/2-x,z
1/2+y,1/2+x,z
loop_
_atom_site_type_symbol
_atom_site_label
_atom_site_fract_x
_atom_site_fract_y
_atom_site_fract_z
Si Si1 0.548160 0.615641 0.684342
Si Si2 0.384508 0.884508 0.686114
Si Si3 0.256656 0.315185 0.328748
Si Si4 0.953805 0.453805 0.815879
Si Si5 0.287894 0.898339 0.686174
Si Si6 0.046930 0.211728 0.816828
O O1 0.500000 0.610739 0.750000
O O2 0.580347 0.580347 0.750000
O O3 0.546138 0.612078 0.500000
O O4 0.563730 0.664044 0.721374
O O5 0.383149 0.883149 0.500000
O O6 0.419167 0.919167 0.730266
O O7 0.337134 0.898429 0.735538
O O8 0.298437 0.298437 0.250000
O O9 0.267814 0.327695 0.500000
O O10 0.223429 0.276572 0.335349
O O11 0.231615 0.353825 0.257779
O O12 0.942724 0.500000 0.750000
O O13 0.955945 0.455945 0.000000
O O14 0.288576 0.899858 0.500000
O O15 0.253330 0.931186 0.746743
O O16 0.000000 0.211410 0.750000
O O17 0.047052 0.215362 0.000000
#
# Coordination Sequence:
#
# PCOD9572188 Si02
#       6
#    32  16  32  16  32  32
#     4  10  21  38  60  85 116 150 189 235 285 339
#     4   9  19  36  58  83 111 146 183 224 277 333
#     4   9  17  30  49  72 101 138 178 217 261 311
#     4  10  20  37  60  83 109 138 171 214 266 329
#     4  10  19  35  57  79 108 146 187 227 274 331
#     4  10  22  39  57  80 110 146 187 230 277 328
#
# _framework density 18.385411000000001
#
# number of rings (size 3 to 8) (size 9 to 14) (size 15 to 20)
#    0.000    2.300    1.000    1.800    0.000    5.000 
#    0.000    9.500    0.000    0.000    0.000    0.000 
#    0.000    0.000    0.000    0.000    0.000    0.000 
#
# Total GULP energy -445496.153696 kJ/mol
# GULP energy per Si atom -5568.701921 kJ/mol
# Density = 1.834356 g / cm^3
# Si number density = 18.385411 Si / 1000 Ang^3
#
#
#
# Elastic Constant Matrix: (Units=GPa)
#
#
# Indices 1 2 3 4 5 6 
#
# 1 107.3414 124.2763 38.6187 0.0000 0.0000 0.0000
# 2 124.2763 107.3414 38.6187 0.0000 0.0000 0.0000
# 3 38.6187 38.6187 34.9742 0.0000 0.0000 0.0000
# 4 0.0000 0.0000 0.0000 23.0514 0.0000 0.0000
# 5 0.0000 0.0000 0.0000 0.0000 23.0514 0.0000
# 6 0.0000 0.0000 0.0000 0.0000 0.0000 32.4892
#
#
#
# Elastic Compliance Matrix: (Units=1/GPa)
#
#
# Indices 1 2 3 4 5 6 
#
# 1 -0.026108 0.032942 -0.007546 0.000000 0.000000 0.000000
# 2 0.032942 -0.026108 -0.007546 0.000000 0.000000 0.000000
# 3 -0.007546 -0.007546 0.045257 0.000000 0.000000 0.000000
# 4 0.000000 0.000000 0.000000 0.043381 0.000000 0.000000
# 5 0.000000 0.000000 0.000000 0.000000 0.043381 0.000000
# 6 0.000000 0.000000 0.000000 0.000000 0.000000 0.030779
#
#
# Mechanical properties :
#
#
# Convention : Reuss Voigt Hill
#
# Bulk Modulus (GPa) = 34.79355 72.52046 53.65701
# Shear Modulus (GPa) = 59.19678 18.92793 39.06235
#
# Velocity S-wave (km/s) = 5.68046 3.21208 4.61438
# Velocity P-wave (km/s) = 7.87331 7.29978 7.59196
#
# Compressibility (1/GPa) = 0.02874096
#
# Stress axis : x y z
#
# Youngs Moduli (GPa) = -38.30257 -38.30257 22.09603
#
# Poissons Ratio (x) = 1.26175 0.16673
# Poissons Ratio (y) = 1.26175 0.16673
# Poissons Ratio (z) = -0.28903 -0.28903
#
# Static dielectric constant tensor:
#      x y z
#    x 1.649140 0.000000 0.000000 
#    y 0.000000 1.649140 0.000000 
#    z 0.000000 0.000000 1.634330 
# 
# From -- ./inp_files/1821.got.cif
#   From: 2010.05.17/outbox.cif.g08.bks.cpg/sg140_1_cif.got.tgz:1821.got - 2010.06.21 00:45:31.
