data_PCOD9572434
_publ_section_title
;
Structure prediction by ZEFSAII (Michael W. Deem and Ramdas Pophale) SiO2 
 PCOD9572434
Probable space group: I 4/M C M
;
_chemical_formula_sum "Si O2"
_cell_formula_units_Z 240
_cell_length_a 20.737565
_cell_length_b 20.737565
_cell_length_c 27.968833
_cell_angle_alpha 90.000000
_cell_angle_beta 90.000000
_cell_angle_gamma 90.000000
_cell_volume 12027.901597
_symmetry_space_group_name_H-M "I 4/M C M"
_symmetry_group_IT_number 140
_symmetry_cell_setting 'tetragonal'
loop_
_space_group_symop_operation_xyz
x,y,z
-y,x,z
-x,-y,z
y,-x,z
x,-y,1/2-z
-x,y,1/2-z
y,x,1/2-z
-y,-x,1/2-z
-x,-y,-z
y,-x,-z
x,y,-z
-y,x,-z
-x,y,1/2+z
x,-y,1/2+z
-y,-x,1/2+z
y,x,1/2+z
1/2+x,1/2+y,1/2+z
1/2-y,1/2+x,1/2+z
1/2-x,1/2-y,1/2+z
1/2+y,1/2-x,1/2+z
1/2+x,1/2-y,-z
1/2-x,1/2+y,-z
1/2+y,1/2+x,-z
1/2-y,1/2-x,-z
1/2-x,1/2-y,1/2-z
1/2+y,1/2-x,1/2-z
1/2+x,1/2+y,1/2-z
1/2-y,1/2+x,1/2-z
1/2-x,1/2+y,z
1/2+x,1/2-y,z
1/2-y,1/2-x,z
1/2+y,1/2+x,z
loop_
_atom_site_type_symbol
_atom_site_label
_atom_site_fract_x
_atom_site_fract_y
_atom_site_fract_z
Si Si1 0.575617 0.180652 0.247063
Si Si2 0.996429 0.606705 0.500000
Si Si3 0.716671 0.673158 0.392795
Si Si4 0.449937 0.155571 0.598082
Si Si5 0.978695 0.101281 0.441919
Si Si6 0.834582 0.776282 0.795952
Si Si7 0.779458 0.899487 0.555961
Si Si8 0.314627 0.920254 0.643419
O O1 0.500000 0.169285 0.250000
O O2 0.616399 0.116399 0.235425
O O3 0.599385 0.237205 0.212076
O O4 0.595257 0.200511 0.301260
O O5 0.926962 0.573039 0.500000
O O6 0.049618 0.549618 0.500000
O O7 0.010876 0.644678 0.451530
O O8 0.771110 0.728891 0.394604
O O9 0.674883 0.685348 0.344823
O O10 0.667260 0.683029 0.435712
O O11 0.756061 0.607030 0.388144
O O12 0.407251 0.092750 0.609024
O O13 0.402750 0.214983 0.587115
O O14 0.504793 0.171334 0.636109
O O15 0.978680 0.100738 0.500000
O O16 0.956459 0.172284 0.428249
O O17 0.047988 0.074318 0.426462
O O18 0.820386 0.820386 0.750000
O O19 0.779295 0.720706 0.795663
O O20 0.763478 0.906123 0.500000
O O21 0.378646 0.878646 0.631460
#
# Coordination Sequence:
#
# PCOD9572434 Si02
#       8
#    32  16  32  32  32  32  32  32
#     4  10  21  36  57  86 120 154 192 241 297 356
#     4   9  18  36  58  74  98 147 210 256 289 348
#     4  10  21  37  58  84 114 150 192 240 303 361
#     4  11  23  38  57  81 113 156 205 254 307 356
#     4   8  16  33  55  77 104 141 182 225 285 358
#     4   9  16  34  61  81 104 144 188 231 282 345
#     4  11  23  37  57  84 117 151 194 252 306 357
#     4  10  22  40  58  83 118 154 198 251 297 357
#
# _framework density 19.953605
#
# number of rings (size 3 to 8) (size 9 to 14) (size 15 to 20)
#    0.000    2.200    2.000    1.200    3.733    2.267 
#    1.200    1.333    0.000    0.000    0.000    0.000 
#    0.000    0.267    0.000    0.000    0.000    0.000 
#
# Total GULP energy -669758.034144 kJ/mol
# GULP energy per Si atom -5581.316951 kJ/mol
# Density = 1.990819 g / cm^3
# Si number density = 19.953605 Si / 1000 Ang^3
#
#
#
# Elastic Constant Matrix: (Units=GPa)
#
#
# Indices 1 2 3 4 5 6 
#
# 1 72.7226 36.4317 7.8485 0.0000 0.0000 0.0000
# 2 36.4317 72.7227 7.8484 0.0000 0.0000 0.0000
# 3 7.8485 7.8484 41.3366 0.0000 0.0000 0.0000
# 4 0.0000 0.0000 0.0000 26.1635 0.0000 0.0000
# 5 0.0000 0.0000 0.0000 0.0000 26.1637 0.0000
# 6 0.0000 0.0000 0.0000 0.0000 0.0000 25.3773
#
#
#
# Elastic Compliance Matrix: (Units=1/GPa)
#
#
# Indices 1 2 3 4 5 6 
#
# 1 0.018487 -0.009068 -0.001788 0.000000 0.000000 0.000000
# 2 -0.009068 0.018487 -0.001788 0.000000 0.000000 0.000000
# 3 -0.001788 -0.001788 0.024871 0.000000 0.000000 0.000000
# 4 0.000000 0.000000 0.000000 0.038221 0.000000 0.000000
# 5 0.000000 0.000000 0.000000 0.000000 0.038221 0.000000
# 6 0.000000 0.000000 0.000000 0.000000 0.000000 0.039405
#
#
# Mechanical properties :
#
#
# Convention : Reuss Voigt Hill
#
# Bulk Modulus (GPa) = 27.35628 32.33766 29.84697
# Shear Modulus (GPa) = 23.23786 24.51779 23.87782
#
# Velocity S-wave (km/s) = 3.41632 3.50914 3.46304
# Velocity P-wave (km/s) = 5.41307 5.71493 5.56604
#
# Compressibility (1/GPa) = 0.03655468
#
# Stress axis : x y z
#
# Youngs Moduli (GPa) = 54.09269 54.09273 40.20795
#
# Poissons Ratio (x) = 0.49053 0.07190
# Poissons Ratio (y) = 0.49053 0.07190
# Poissons Ratio (z) = 0.09673 0.09673
#
# Static dielectric constant tensor:
#      x y z
#    x 1.709710 0.000000 0.000000 
#    y 0.000000 1.709710 0.000000 
#    z 0.000000 0.000000 1.741280 
# 
# From -- ./inp_files/10962.got.cif
#   From: 2010.05.17/outbox.cif.g08.bks.cpg/sg140_6_cif.got.tgz:10962.got - 2010.06.21 00:45:31.
