data_PCOD9572979
_publ_section_title
;
Structure prediction by ZEFSAII (Michael W. Deem and Ramdas Pophale) SiO2 
 PCOD9572979
Probable space group: I 41/A M D
;
_chemical_formula_sum "Si O2"
_cell_formula_units_Z 164
_cell_length_a 24.619138
_cell_length_b 24.619138
_cell_length_c 15.701328
_cell_angle_alpha 90.000000
_cell_angle_beta 90.000000
_cell_angle_gamma 90.000000
_cell_volume 9516.605610
_symmetry_space_group_name_H-M "I 41/A M D"
_symmetry_group_IT_number 141
_space_group.IT_coordinate_system_code '2'
_symmetry_cell_setting 'tetragonal'
loop_
_space_group_symop_operation_xyz
x,y,z
1/4-y,3/4+x,1/4+z
-x,1/2-y,z
1/4+y,1/4-x,3/4+z
x,-y,-z
-x,1/2+y,-z
1/4+y,3/4+x,1/4-z
1/4-y,1/4-x,3/4-z
-x,-y,-z
3/4+y,1/4-x,3/4-z
x,1/2+y,-z
3/4-y,3/4+x,1/4-z
-x,y,z
x,1/2-y,z
3/4-y,1/4-x,3/4+z
3/4+y,3/4+x,1/4+z
1/2+x,1/2+y,1/2+z
3/4-y,1/4+x,3/4+z
1/2-x,-y,1/2+z
3/4+y,3/4-x,1/4+z
1/2+x,1/2-y,1/2-z
1/2-x,y,1/2-z
3/4+y,1/4+x,3/4-z
3/4-y,3/4-x,1/4-z
1/2-x,1/2-y,1/2-z
1/4+y,3/4-x,1/4-z
1/2+x,y,1/2-z
1/4-y,1/4+x,3/4-z
1/2-x,1/2+y,1/2+z
1/2+x,-y,1/2+z
1/4-y,3/4-x,1/4+z
1/4+y,1/4+x,3/4+z
loop_
_atom_site_type_symbol
_atom_site_label
_atom_site_fract_x
_atom_site_fract_y
_atom_site_fract_z
Si Si1 0.500000 0.815237 0.165728
Si Si2 0.286054 0.880303 0.092242
Si Si3 0.000000 0.250000 0.875000
Si Si4 0.123305 0.184716 0.650334
Si Si5 0.101114 0.426798 0.920402
Si Si6 0.000000 0.634847 0.147488
Si Si7 0.240177 0.553327 0.941242
O O1 0.500000 0.750000 0.164549
O O2 0.439596 0.830864 0.132989
O O3 0.500000 0.838330 0.260900
O O4 0.335506 0.839003 0.080673
O O5 0.240988 0.853735 0.155079
O O6 0.308902 0.935068 0.137223
O O7 0.257122 0.898790 0.004818
O O8 0.000000 0.311543 0.913443
O O9 0.127146 0.250000 0.657407
O O10 0.148835 0.159028 0.737814
O O11 0.155460 0.405460 0.875000
O O12 0.052101 0.401238 0.866888
O O13 0.287509 0.537509 0.875000
O O14 0.231395 0.500000 0.000000
#
# Coordination Sequence:
#
# PCOD9572979 Si02
#       7
#    16  32   4  32  32  16  32
#     4  10  20  36  50  67 101 153 202 223 246 304
#     4  11  22  34  53  78 107 136 176 226 274 322
#     4  12  16  32  40  60  96 156 216 224 222 276
#     4  11  22  34  47  72 108 149 183 218 261 311
#     4  12  21  30  46  75 111 149 185 219 257 306
#     4  12  20  28  47  66 102 150 199 228 241 289
#     4   9  18  36  56  75  97 133 173 211 260 328
#
# _framework density 17.233035999999998
#
# number of rings (size 3 to 8) (size 9 to 14) (size 15 to 20)
#    0.000    1.171    4.390    4.683    1.366    0.780 
#    0.000    0.000    0.000    0.000    2.537    2.049 
#    0.000    0.000    0.000    0.000    0.000    0.000 
#
# Total GULP energy -456930.461635 kJ/mol
# GULP energy per Si atom -5572.322703 kJ/mol
# Density = 1.719381 g / cm^3
# Si number density = 17.233036 Si / 1000 Ang^3
#
#
#
# Elastic Constant Matrix: (Units=GPa)
#
#
# Indices 1 2 3 4 5 6 
#
# 1 100.8758 38.8544 13.2062 0.0000 0.0000 0.0000
# 2 38.8544 100.8758 13.2062 0.0000 0.0000 0.0000
# 3 13.2062 13.2062 32.2437 0.0000 0.0000 0.0000
# 4 0.0000 0.0000 0.0000 19.7072 0.0000 0.0000
# 5 0.0000 0.0000 0.0000 0.0000 19.7072 0.0000
# 6 0.0000 0.0000 0.0000 0.0000 0.0000 26.8978
#
#
#
# Elastic Compliance Matrix: (Units=1/GPa)
#
#
# Indices 1 2 3 4 5 6 
#
# 1 0.011940 -0.004183 -0.003177 0.000000 0.000000 0.000000
# 2 -0.004183 0.011940 -0.003177 0.000000 0.000000 0.000000
# 3 -0.003177 -0.003177 0.033616 0.000000 0.000000 0.000000
# 4 0.000000 0.000000 0.000000 0.050743 0.000000 0.000000
# 5 0.000000 0.000000 0.000000 0.000000 0.050743 0.000000
# 6 0.000000 0.000000 0.000000 0.000000 0.000000 0.037178
#
#
# Mechanical properties :
#
#
# Convention : Reuss Voigt Hill
#
# Bulk Modulus (GPa) = 27.45581 40.50321 33.97951
# Shear Modulus (GPa) = 21.79829 24.51104 23.15466
#
# Velocity S-wave (km/s) = 3.56042 3.77547 3.66952
# Velocity P-wave (km/s) = 5.73313 6.52379 6.14120
#
# Compressibility (1/GPa) = 0.03642216
#
# Stress axis : x y z
#
# Youngs Moduli (GPa) = 83.74977 83.74977 29.74745
#
# Poissons Ratio (x) = 0.35034 0.09451
# Poissons Ratio (y) = 0.35034 0.09451
# Poissons Ratio (z) = 0.26609 0.26609
#
# Static dielectric constant tensor:
#      x y z
#    x 1.635810 0.000000 0.000000 
#    y 0.000000 1.635810 0.000000 
#    z 0.000000 0.000000 1.647720 
# 
# From -- ./inp_files/8846.got.cif
#   From: 2010.05.17/outbox.cif.g08.bks.cpg/sg141_5_cif.got.tgz:8846.got - 2010.05.20 13:30:51.
