data_PCOD9572741
_publ_section_title
;
Structure prediction by ZEFSAII (Michael W. Deem and Ramdas Pophale) SiO2 
 PCOD9572741
Probable space group: I 41/A M D
;
_chemical_formula_sum "Si O2"
_cell_formula_units_Z 160
_cell_length_a 18.797214
_cell_length_b 18.797214
_cell_length_c 25.763844
_cell_angle_alpha 90.000000
_cell_angle_beta 90.000000
_cell_angle_gamma 90.000000
_cell_volume 9103.274368
_symmetry_space_group_name_H-M "I 41/A M D"
_symmetry_group_IT_number 141
_space_group.IT_coordinate_system_code '2'
_symmetry_cell_setting 'tetragonal'
loop_
_space_group_symop_operation_xyz
x,y,z
1/4-y,3/4+x,1/4+z
-x,1/2-y,z
1/4+y,1/4-x,3/4+z
x,-y,-z
-x,1/2+y,-z
1/4+y,3/4+x,1/4-z
1/4-y,1/4-x,3/4-z
-x,-y,-z
3/4+y,1/4-x,3/4-z
x,1/2+y,-z
3/4-y,3/4+x,1/4-z
-x,y,z
x,1/2-y,z
3/4-y,1/4-x,3/4+z
3/4+y,3/4+x,1/4+z
1/2+x,1/2+y,1/2+z
3/4-y,1/4+x,3/4+z
1/2-x,-y,1/2+z
3/4+y,3/4-x,1/4+z
1/2+x,1/2-y,1/2-z
1/2-x,y,1/2-z
3/4+y,1/4+x,3/4-z
3/4-y,3/4-x,1/4-z
1/2-x,1/2-y,1/2-z
1/4+y,3/4-x,1/4-z
1/2+x,y,1/2-z
1/4-y,1/4+x,3/4-z
1/2-x,1/2+y,1/2+z
1/2+x,-y,1/2+z
1/4-y,3/4-x,1/4+z
1/4+y,1/4+x,3/4+z
loop_
_atom_site_type_symbol
_atom_site_label
_atom_site_fract_x
_atom_site_fract_y
_atom_site_fract_z
Si Si1 0.918221 0.975813 0.941468
Si Si2 0.812574 0.027687 0.554691
Si Si3 0.229327 0.169365 0.977543
Si Si4 0.882251 0.828838 0.178717
Si Si5 0.645733 0.036947 0.834415
O O1 0.869578 0.913283 0.922253
O O2 0.000000 0.956018 0.940518
O O3 0.909285 0.050034 0.911569
O O4 0.898994 0.000000 0.000000
O O5 0.776748 0.105556 0.547079
O O6 0.864095 0.023811 0.604559
O O7 0.843404 0.000000 0.500000
O O8 0.750722 0.970366 0.567821
O O9 0.248987 0.250000 0.962262
O O10 0.146458 0.156461 0.962014
O O11 0.235317 0.159328 0.040075
O O12 0.885729 0.750000 0.203963
O O13 0.923109 0.826892 0.125000
#
# Coordination Sequence:
#
# PCOD9572741 Si02
#       5
#    32  32  32  32  32
#     4  10  17  27  43  59  79 114 159 197 224 257
#     4   9  18  32  50  68  86 115 151 189 228 277
#     4  11  21  31  44  67  94 118 151 198 238 271
#     4  11  21  31  40  55  85 125 164 197 228 260
#     4  10  17  31  49  65  88 117 155 189 228 276
#
# _framework density 17.576094999999999
#
# number of rings (size 3 to 8) (size 9 to 14) (size 15 to 20)
#    0.000    1.800    4.000    2.400    0.000    3.800 
#    0.000    0.000    0.000    0.600    0.000    0.000 
#    0.000    0.000    0.000    4.200    0.000    0.000 
#
# Total GULP energy -445718.119181 kJ/mol
# GULP energy per Si atom -5571.476490 kJ/mol
# Density = 1.753609 g / cm^3
# Si number density = 17.576095 Si / 1000 Ang^3
#
#
#
# Elastic Constant Matrix: (Units=GPa)
#
#
# Indices 1 2 3 4 5 6 
#
# 1 30.7098 0.2293 1.2152 0.0000 0.0000 0.0000
# 2 0.2293 30.7100 1.2159 0.0000 0.0000 0.0000
# 3 1.2152 1.2159 89.1666 0.0000 0.0000 0.0000
# 4 0.0000 0.0000 0.0000 15.5617 0.0000 0.0000
# 5 0.0000 0.0000 0.0000 0.0000 15.5616 0.0000
# 6 0.0000 0.0000 0.0000 0.0000 0.0000 6.1670
#
#
#
# Elastic Compliance Matrix: (Units=1/GPa)
#
#
# Indices 1 2 3 4 5 6 
#
# 1 0.032582 -0.000226 -0.000441 0.000000 0.000000 0.000000
# 2 -0.000226 0.032582 -0.000441 0.000000 0.000000 0.000000
# 3 -0.000441 -0.000441 0.011227 0.000000 0.000000 0.000000
# 4 0.000000 0.000000 0.000000 0.064260 0.000000 0.000000
# 5 0.000000 0.000000 0.000000 0.000000 0.064261 0.000000
# 6 0.000000 0.000000 0.000000 0.000000 0.000000 0.162152
#
#
# Mechanical properties :
#
#
# Convention : Reuss Voigt Hill
#
# Bulk Modulus (GPa) = 13.48166 17.32302 15.40234
# Shear Modulus (GPa) = 12.69019 17.31981 15.00500
#
# Velocity S-wave (km/s) = 2.68995 3.14254 2.92501
# Velocity P-wave (km/s) = 4.16352 4.80050 4.49331
#
# Compressibility (1/GPa) = 0.07417484
#
# Stress axis : x y z
#
# Youngs Moduli (GPa) = 30.69173 30.69197 89.07110
#
# Poissons Ratio (x) = 0.00693 0.03928
# Poissons Ratio (y) = 0.00693 0.03930
# Poissons Ratio (z) = 0.01353 0.01354
#
# Static dielectric constant tensor:
#      x y z
#    x 1.619680 0.000000 0.000000 
#    y 0.000000 1.619680 0.000000 
#    z 0.000000 0.000000 1.712090 
# 
# From -- ./inp_files/12697.got.cif
#   From: 2010.05.17/outbox.cif.g08.bks.cpg/sg141_7_cif.got.tgz:12697.got - 2010.05.20 13:30:51.
