data_PCOD9572657
_publ_section_title
;
Structure prediction by ZEFSAII (Michael W. Deem and Ramdas Pophale) SiO2 
 PCOD9572657
Probable space group: I 4/M C M
;
_chemical_formula_sum "Si O2"
_cell_formula_units_Z 128
_cell_length_a 20.817899
_cell_length_b 20.817899
_cell_length_c 14.449895
_cell_angle_alpha 90.000000
_cell_angle_beta 90.000000
_cell_angle_gamma 90.000000
_cell_volume 6262.366571
_symmetry_space_group_name_H-M "I 4/M C M"
_symmetry_group_IT_number 140
_symmetry_cell_setting 'tetragonal'
loop_
_space_group_symop_operation_xyz
x,y,z
-y,x,z
-x,-y,z
y,-x,z
x,-y,1/2-z
-x,y,1/2-z
y,x,1/2-z
-y,-x,1/2-z
-x,-y,-z
y,-x,-z
x,y,-z
-y,x,-z
-x,y,1/2+z
x,-y,1/2+z
-y,-x,1/2+z
y,x,1/2+z
1/2+x,1/2+y,1/2+z
1/2-y,1/2+x,1/2+z
1/2-x,1/2-y,1/2+z
1/2+y,1/2-x,1/2+z
1/2+x,1/2-y,-z
1/2-x,1/2+y,-z
1/2+y,1/2+x,-z
1/2-y,1/2-x,-z
1/2-x,1/2-y,1/2-z
1/2+y,1/2-x,1/2-z
1/2+x,1/2+y,1/2-z
1/2-y,1/2+x,1/2-z
1/2-x,1/2+y,z
1/2+x,1/2-y,z
1/2-y,1/2-x,z
1/2+y,1/2+x,z
loop_
_atom_site_type_symbol
_atom_site_label
_atom_site_fract_x
_atom_site_fract_y
_atom_site_fract_z
Si Si1 0.708288 0.902406 0.500000
Si Si2 0.174778 0.433329 0.799426
Si Si3 0.296633 0.687873 0.000000
Si Si4 0.610217 0.701379 0.189304
Si Si5 0.603635 0.521629 0.389277
O O1 0.654435 0.845566 0.500000
O O2 0.697636 0.941127 0.405746
O O3 0.776691 0.866016 0.500000
O O4 0.159680 0.500000 0.750000
O O5 0.114368 0.385633 0.798663
O O6 0.233249 0.400736 0.743977
O O7 0.289252 0.645941 0.091753
O O8 0.243242 0.743242 0.000000
O O9 0.654641 0.654641 0.250000
O O10 0.543539 0.666237 0.164188
O O11 0.547565 0.573589 0.367757
O O12 0.614222 0.523598 0.500000
#
# Coordination Sequence:
#
# PCOD9572657 Si02
#       5
#    16  32  16  32  32
#     4   9  20  43  69  96 134 178 218 269 345 418
#     4  11  26  47  73 104 135 176 230 286 348 418
#     4  11  22  39  62  92 136 178 215 275 341 399
#     4  12  24  37  64  98 132 171 226 279 333 400
#     4   9  20  39  61  88 129 179 227 270 322 393
#
# _framework density 20.439558000000002
#
# number of rings (size 3 to 8) (size 9 to 14) (size 15 to 20)
#    0.000    1.500    3.750    1.500    3.500    2.250 
#    0.000    3.125    0.000    2.250    0.000    0.000 
#    0.000    0.000    0.000    0.000    0.000    0.000 
#
# Total GULP energy -358300.617434 kJ/mol
# GULP energy per Si atom -5598.447147 kJ/mol
# Density = 2.039304 g / cm^3
# Si number density = 20.439558 Si / 1000 Ang^3
#
#
#
# Elastic Constant Matrix: (Units=GPa)
#
#
# Indices 1 2 3 4 5 6 
#
# 1 84.4235 23.9698 60.2388 0.0000 0.0000 0.0000
# 2 23.9698 84.4235 60.2389 0.0000 0.0000 0.0000
# 3 60.2388 60.2389 186.6692 0.0000 0.0000 0.0000
# 4 0.0000 0.0000 0.0000 29.9536 0.0000 0.0000
# 5 0.0000 0.0000 0.0000 0.0000 29.9532 0.0000
# 6 0.0000 0.0000 0.0000 0.0000 0.0000 27.8757
#
#
#
# Elastic Compliance Matrix: (Units=1/GPa)
#
#
# Indices 1 2 3 4 5 6 
#
# 1 0.015464 -0.001078 -0.004642 0.000000 0.000000 0.000000
# 2 -0.001078 0.015464 -0.004642 0.000000 0.000000 0.000000
# 3 -0.004642 -0.004642 0.008353 0.000000 0.000000 0.000000
# 4 0.000000 0.000000 0.000000 0.033385 0.000000 0.000000
# 5 0.000000 0.000000 0.000000 0.000000 0.033385 0.000000
# 6 0.000000 0.000000 0.000000 0.000000 0.000000 0.035873
#
#
# Mechanical properties :
#
#
# Convention : Reuss Voigt Hill
#
# Bulk Modulus (GPa) = 53.89338 71.60124 62.74731
# Shear Modulus (GPa) = 29.61484 31.62775 30.62130
#
# Velocity S-wave (km/s) = 3.81057 3.93794 3.87478
# Velocity P-wave (km/s) = 6.76646 7.46882 7.12630
#
# Compressibility (1/GPa) = 0.01855516
#
# Stress axis : x y z
#
# Youngs Moduli (GPa) = 64.66838 64.66829 119.71452
#
# Poissons Ratio (x) = 0.06972 0.55574
# Poissons Ratio (y) = 0.06972 0.55574
# Poissons Ratio (z) = 0.30021 0.30021
#
# Static dielectric constant tensor:
#      x y z
#    x 1.715330 0.000000 0.000000 
#    y 0.000000 1.715330 0.000000 
#    z 0.000000 0.000000 1.730570 
# 
# From -- ./inp_files/4407.got.cif
#   From: 2010.05.17/outbox.cif.g08.bks.cpg/sg140_3_cif.got.tgz:4407.got - 2010.06.21 00:45:31.
