data_PCOD9572957
_publ_section_title
;
Structure prediction by ZEFSAII (Michael W. Deem and Ramdas Pophale) SiO2 
 PCOD9572957
Probable space group: I 41/A M D
;
_chemical_formula_sum "Si O2"
_cell_formula_units_Z 144
_cell_length_a 22.042843
_cell_length_b 22.042843
_cell_length_c 16.306693
_cell_angle_alpha 90.000000
_cell_angle_beta 90.000000
_cell_angle_gamma 90.000000
_cell_volume 7923.208960
_symmetry_space_group_name_H-M "I 41/A M D"
_symmetry_group_IT_number 141
_space_group.IT_coordinate_system_code '2'
_symmetry_cell_setting 'tetragonal'
loop_
_space_group_symop_operation_xyz
x,y,z
1/4-y,3/4+x,1/4+z
-x,1/2-y,z
1/4+y,1/4-x,3/4+z
x,-y,-z
-x,1/2+y,-z
1/4+y,3/4+x,1/4-z
1/4-y,1/4-x,3/4-z
-x,-y,-z
3/4+y,1/4-x,3/4-z
x,1/2+y,-z
3/4-y,3/4+x,1/4-z
-x,y,z
x,1/2-y,z
3/4-y,1/4-x,3/4+z
3/4+y,3/4+x,1/4+z
1/2+x,1/2+y,1/2+z
3/4-y,1/4+x,3/4+z
1/2-x,-y,1/2+z
3/4+y,3/4-x,1/4+z
1/2+x,1/2-y,1/2-z
1/2-x,y,1/2-z
3/4+y,1/4+x,3/4-z
3/4-y,3/4-x,1/4-z
1/2-x,1/2-y,1/2-z
1/4+y,3/4-x,1/4-z
1/2+x,y,1/2-z
1/4-y,1/4+x,3/4-z
1/2-x,1/2+y,1/2+z
1/2+x,-y,1/2+z
1/4-y,3/4-x,1/4+z
1/4+y,1/4+x,3/4+z
loop_
_atom_site_type_symbol
_atom_site_label
_atom_site_fract_x
_atom_site_fract_y
_atom_site_fract_z
Si Si1 0.704914 0.045087 0.625000
Si Si2 0.431924 0.518659 0.815694
Si Si3 0.570790 0.889558 0.674647
Si Si4 0.332958 0.418069 0.806260
Si Si5 0.571678 0.930047 0.981530
O O1 0.679075 0.072722 0.709549
O O2 0.776212 0.058333 0.638871
O O3 0.500000 0.497187 0.831144
O O4 0.429038 0.548228 0.726510
O O5 0.387508 0.463170 0.824950
O O6 0.419682 0.570520 0.883206
O O7 0.500000 0.868113 0.674095
O O8 0.600187 0.901900 0.585727
O O9 0.622950 0.850615 0.721671
O O10 0.500000 0.928209 0.998280
O O11 0.592888 0.000000 0.000000
#
# Coordination Sequence:
#
# PCOD9572957 Si02
#       5
#    16  32  32  32  32
#     4  10  24  36  60  92 114 157 205 270 328 368
#     4  10  21  36  56  85 120 162 203 247 312 383
#     4  11  23  37  58  88 124 165 206 257 319 378
#     4  11  21  39  59  87 122 155 208 263 316 387
#     4  10  20  34  56  86 120 160 208 257 308 373
#
# _framework density 18.174454000000001
#
# number of rings (size 3 to 8) (size 9 to 14) (size 15 to 20)
#    0.000    1.556    4.444    0.667    3.111    0.444 
#    0.000    3.333    0.000    4.000    0.000    0.000 
#    0.000    1.778    0.000    0.000    0.000    0.000 
#
# Total GULP energy -400830.510015 kJ/mol
# GULP energy per Si atom -5567.090417 kJ/mol
# Density = 1.813309 g / cm^3
# Si number density = 18.174454 Si / 1000 Ang^3
#
#
#
# Elastic Constant Matrix: (Units=GPa)
#
#
# Indices 1 2 3 4 5 6 
#
# 1 107.5179 69.1733 43.8818 0.0000 0.0000 0.0000
# 2 69.1733 107.5170 43.8818 0.0000 0.0000 0.0000
# 3 43.8818 43.8818 114.4073 0.0000 0.0000 0.0000
# 4 0.0000 0.0000 0.0000 21.0995 0.0000 0.0000
# 5 0.0000 0.0000 0.0000 0.0000 21.0998 0.0000
# 6 0.0000 0.0000 0.0000 0.0000 0.0000 18.1269
#
#
#
# Elastic Compliance Matrix: (Units=1/GPa)
#
#
# Indices 1 2 3 4 5 6 
#
# 1 0.016536 -0.009544 -0.002682 0.000000 0.000000 0.000000
# 2 -0.009544 0.016536 -0.002682 0.000000 0.000000 0.000000
# 3 -0.002682 -0.002682 0.010798 0.000000 0.000000 0.000000
# 4 0.000000 0.000000 0.000000 0.047394 0.000000 0.000000
# 5 0.000000 0.000000 0.000000 0.000000 0.047394 0.000000
# 6 0.000000 0.000000 0.000000 0.000000 0.000000 0.055167
#
#
# Mechanical properties :
#
#
# Convention : Reuss Voigt Hill
#
# Bulk Modulus (GPa) = 71.15236 71.47956 71.31596
# Shear Modulus (GPa) = 21.89877 23.56561 22.73219
#
# Velocity S-wave (km/s) = 3.47496 3.60479 3.54047
# Velocity P-wave (km/s) = 7.43876 7.53267 7.48586
#
# Compressibility (1/GPa) = 0.01405435
#
# Stress axis : x y z
#
# Youngs Moduli (GPa) = 60.47587 60.47530 92.61080
#
# Poissons Ratio (x) = 0.57717 0.24835
# Poissons Ratio (y) = 0.57718 0.24836
# Poissons Ratio (z) = 0.16218 0.16218
#
# Static dielectric constant tensor:
#      x y z
#    x 1.635120 0.000000 0.000000 
#    y 0.000000 1.635120 0.000000 
#    z 0.000000 0.000000 1.725320 
# 
# From -- ./inp_files/8401.got.cif
#   From: 2010.05.17/outbox.cif.g08.bks.cpg/sg141_5_cif.got.tgz:8401.got - 2010.05.20 13:30:51.
