data_PCOD9572300
_publ_section_title
;
Structure prediction by ZEFSAII (Michael W. Deem and Ramdas Pophale) SiO2 
 PCOD9572300
Probable space group: I 4/M C M
;
_chemical_formula_sum "Si O2"
_cell_formula_units_Z 160
_cell_length_a 30.916407
_cell_length_b 30.916407
_cell_length_c 9.827936
_cell_angle_alpha 90.000000
_cell_angle_beta 90.000000
_cell_angle_gamma 90.000000
_cell_volume 9393.779279
_symmetry_space_group_name_H-M "I 4/M C M"
_symmetry_group_IT_number 140
_symmetry_cell_setting 'tetragonal'
loop_
_space_group_symop_operation_xyz
x,y,z
-y,x,z
-x,-y,z
y,-x,z
x,-y,1/2-z
-x,y,1/2-z
y,x,1/2-z
-y,-x,1/2-z
-x,-y,-z
y,-x,-z
x,y,-z
-y,x,-z
-x,y,1/2+z
x,-y,1/2+z
-y,-x,1/2+z
y,x,1/2+z
1/2+x,1/2+y,1/2+z
1/2-y,1/2+x,1/2+z
1/2-x,1/2-y,1/2+z
1/2+y,1/2-x,1/2+z
1/2+x,1/2-y,-z
1/2-x,1/2+y,-z
1/2+y,1/2+x,-z
1/2-y,1/2-x,-z
1/2-x,1/2-y,1/2-z
1/2+y,1/2-x,1/2-z
1/2+x,1/2+y,1/2-z
1/2-y,1/2+x,1/2-z
1/2-x,1/2+y,z
1/2+x,1/2-y,z
1/2-y,1/2-x,z
1/2+y,1/2+x,z
loop_
_atom_site_type_symbol
_atom_site_label
_atom_site_fract_x
_atom_site_fract_y
_atom_site_fract_z
Si Si1 0.866852 0.188150 0.839611
Si Si2 0.121293 0.547590 0.500000
Si Si3 0.923124 0.681736 0.244248
Si Si4 0.876341 0.555130 0.500000
Si Si5 0.461220 0.272367 0.159452
Si Si6 0.662009 0.231973 0.840031
O O1 0.852930 0.147071 0.750000
O O2 0.917690 0.199265 0.832956
O O3 0.843422 0.228062 0.762129
O O4 0.855028 0.185209 0.000000
O O5 0.078489 0.578489 0.500000
O O6 0.151775 0.558653 0.626562
O O7 0.115529 0.496070 0.500000
O O8 0.927572 0.651638 0.374441
O O9 0.949288 0.725568 0.277301
O O10 0.875665 0.698215 0.202050
O O11 0.922185 0.577816 0.500000
O O12 0.500000 0.290532 0.250000
O O13 0.472774 0.267300 0.000000
O O14 0.707421 0.207421 0.827180
O O15 0.655752 0.243845 0.000000
#
# Coordination Sequence:
#
# PCOD9572300 Si02
#       6
#    32  16  32  16  32  32
#     4  10  22  38  54  79 113 150 184 217 262 312
#     4  12  24  39  54  70  95 129 171 217 272 346
#     4  11  22  37  55  79 103 130 168 220 279 335
#     4  12  24  37  54  74  97 127 165 219 282 338
#     4  10  21  36  58  87 113 139 179 223 265 314
#     4  10  20  35  55  77 102 137 179 221 265 319
#
# _framework density 17.032548999999999
#
# number of rings (size 3 to 8) (size 9 to 14) (size 15 to 20)
#    0.000    1.400    2.000    4.200    2.800    2.600 
#    0.000    0.000    0.000    2.400    0.000    0.000 
#    0.000    0.400    0.000    4.400    0.000    3.200 
#
# Total GULP energy -446511.706879 kJ/mol
# GULP energy per Si atom -5581.396336 kJ/mol
# Density = 1.699378 g / cm^3
# Si number density = 17.032549 Si / 1000 Ang^3
#
#
#
# Elastic Constant Matrix: (Units=GPa)
#
#
# Indices 1 2 3 4 5 6 
#
# 1 54.6313 44.0543 41.9863 0.0000 0.0000 0.0000
# 2 44.0543 54.6491 41.9900 0.0000 0.0000 0.0000
# 3 41.9863 41.9900 160.3201 0.0000 0.0000 0.0000
# 4 0.0000 0.0000 0.0000 0.0528 0.0000 0.0000
# 5 0.0000 0.0000 0.0000 0.0000 0.0051 0.0000
# 6 0.0000 0.0000 0.0000 0.0000 0.0000 19.1649
#
#
#
# Elastic Compliance Matrix: (Units=1/GPa)
#
#
# Indices 1 2 3 4 5 6 
#
# 1 0.053761 -0.040714 -0.003416 0.000000 0.000000 0.000000
# 2 -0.040714 0.053742 -0.003413 0.000000 0.000000 0.000000
# 3 -0.003416 -0.003413 0.008026 0.000000 0.000000 0.000000
# 4 0.000000 0.000000 0.000000 18.939399 0.000000 0.000000
# 5 0.000000 0.000000 0.000000 0.000000197.592427 0.000000
# 6 0.000000 0.000000 0.000000 0.000000 0.000000 0.052179
#
#
# Mechanical properties :
#
#
# Convention : Reuss Voigt Hill
#
# Bulk Modulus (GPa) = 48.91638 58.40686 53.66162
# Shear Modulus (GPa) = 0.02306 13.28253 6.65280
#
# Velocity S-wave (km/s) = 0.11649 2.79558 1.97849
# Velocity P-wave (km/s) = 5.36654 6.69224 6.06572
#
# Compressibility (1/GPa) = 0.02044305
#
# Stress axis : x y z
#
# Youngs Moduli (GPa) = 18.60081 18.60753 124.59351
#
# Poissons Ratio (x) = 0.75758 0.42562
# Poissons Ratio (y) = 0.75731 0.42525
# Poissons Ratio (z) = 0.06354 0.06351
#
# Static dielectric constant tensor:
#      x y z
#    x 1.586970 0.000000 0.000000 
#    y 0.000000 1.586970 0.000000 
#    z 0.000000 0.000000 1.559510 
# 
# From -- ./inp_files/1785.got.cif
#   From: 2010.05.17/outbox.cif.g08.bks.cpg/sg140_1_cif.got.tgz:1785.got - 2010.06.21 00:45:31.
