data_PCOD9572884
_publ_section_title
;
Structure prediction by ZEFSAII (Michael W. Deem and Ramdas Pophale) SiO2 
 PCOD9572884
Probable space group: I 41/A M D
;
_chemical_formula_sum "Si O2"
_cell_formula_units_Z 240
_cell_length_a 21.032645
_cell_length_b 21.032645
_cell_length_c 30.299459
_cell_angle_alpha 90.000000
_cell_angle_beta 90.000000
_cell_angle_gamma 90.000000
_cell_volume 13403.636994
_symmetry_space_group_name_H-M "I 41/A M D"
_symmetry_group_IT_number 141
_space_group.IT_coordinate_system_code '2'
_symmetry_cell_setting 'tetragonal'
loop_
_space_group_symop_operation_xyz
x,y,z
1/4-y,3/4+x,1/4+z
-x,1/2-y,z
1/4+y,1/4-x,3/4+z
x,-y,-z
-x,1/2+y,-z
1/4+y,3/4+x,1/4-z
1/4-y,1/4-x,3/4-z
-x,-y,-z
3/4+y,1/4-x,3/4-z
x,1/2+y,-z
3/4-y,3/4+x,1/4-z
-x,y,z
x,1/2-y,z
3/4-y,1/4-x,3/4+z
3/4+y,3/4+x,1/4+z
1/2+x,1/2+y,1/2+z
3/4-y,1/4+x,3/4+z
1/2-x,-y,1/2+z
3/4+y,3/4-x,1/4+z
1/2+x,1/2-y,1/2-z
1/2-x,y,1/2-z
3/4+y,1/4+x,3/4-z
3/4-y,3/4-x,1/4-z
1/2-x,1/2-y,1/2-z
1/4+y,3/4-x,1/4-z
1/2+x,y,1/2-z
1/4-y,1/4+x,3/4-z
1/2-x,1/2+y,1/2+z
1/2+x,-y,1/2+z
1/4-y,3/4-x,1/4+z
1/4+y,1/4+x,3/4+z
loop_
_atom_site_type_symbol
_atom_site_label
_atom_site_fract_x
_atom_site_fract_y
_atom_site_fract_z
Si Si1 0.132523 0.823635 0.031602
Si Si2 0.287607 0.063236 0.321096
Si Si3 0.304876 0.676811 0.833918
Si Si4 0.197090 0.056363 0.077840
Si Si5 0.428945 0.434964 0.472389
Si Si6 0.569423 0.890894 0.819983
Si Si7 0.925495 0.824505 0.125000
Si Si8 0.386393 0.483711 0.249501
O O1 0.113139 0.750000 0.023073
O O2 0.115453 0.839067 0.082089
O O3 0.207949 0.829885 0.024012
O O4 0.096015 0.874984 0.001216
O O5 0.239074 0.121846 0.312801
O O6 0.306985 0.077746 0.371507
O O7 0.339842 0.052855 0.283389
O O8 0.253754 0.994201 0.324434
O O9 0.285860 0.750000 0.825756
O O10 0.375780 0.661141 0.817621
O O11 0.313537 0.667680 0.887196
O O12 0.124866 0.049571 0.063064
O O13 0.230786 0.100302 0.040968
O O14 0.431938 0.500000 0.500000
O O15 0.500000 0.421210 0.455735
O O16 0.500000 0.863048 0.827448
O O17 0.571432 0.932838 0.776102
O O18 0.916704 0.750000 0.136409
#
# Coordination Sequence:
#
# PCOD9572884 Si02
#       8
#    32  32  32  32  32  32  16  32
#     4  10  21  36  56  83 111 152 201 242 293 355
#     4  11  20  35  57  84 115 151 194 237 297 356
#     4  10  20  36  59  85 113 150 194 245 299 361
#     4  10  19  35  56  80 111 154 191 235 291 350
#     4  10  21  36  54  80 112 150 193 242 295 349
#     4  10  19  35  55  81 117 150 191 244 297 353
#     4   9  18  34  54  78 114 152 190 246 298 337
#     4  11  20  33  56  83 117 146 188 242 293 348
#
# _framework density 17.905588000000002
#
# number of rings (size 3 to 8) (size 9 to 14) (size 15 to 20)
#    0.000    1.800    2.667    3.600    0.000    3.200 
#    0.000    5.333    0.000    0.000    0.000    0.000 
#    0.000    4.533    0.000    0.000    0.000    0.000 
#
# Total GULP energy -668341.764923 kJ/mol
# GULP energy per Si atom -5569.514708 kJ/mol
# Density = 1.786483 g / cm^3
# Si number density = 17.905588 Si / 1000 Ang^3
#
#
#
# Elastic Constant Matrix: (Units=GPa)
#
#
# Indices 1 2 3 4 5 6 
#
# 1 86.6321 45.2918 34.8530 0.0000 0.0000 0.0000
# 2 45.2918 86.6319 34.8531 0.0000 0.0000 0.0000
# 3 34.8530 34.8531 80.8303 0.0000 0.0000 0.0000
# 4 0.0000 0.0000 0.0000 21.3128 0.0000 0.0000
# 5 0.0000 0.0000 0.0000 0.0000 21.3127 0.0000
# 6 0.0000 0.0000 0.0000 0.0000 0.0000 6.9725
#
#
#
# Elastic Compliance Matrix: (Units=1/GPa)
#
#
# Indices 1 2 3 4 5 6 
#
# 1 0.017003 -0.007186 -0.004233 0.000000 0.000000 0.000000
# 2 -0.007186 0.017003 -0.004233 0.000000 0.000000 0.000000
# 3 -0.004233 -0.004233 0.016022 0.000000 0.000000 0.000000
# 4 0.000000 0.000000 0.000000 0.046920 0.000000 0.000000
# 5 0.000000 0.000000 0.000000 0.000000 0.046920 0.000000
# 6 0.000000 0.000000 0.000000 0.000000 0.000000 0.143420
#
#
# Mechanical properties :
#
#
# Convention : Reuss Voigt Hill
#
# Bulk Modulus (GPa) = 53.40762 53.78779 53.59770
# Shear Modulus (GPa) = 15.39248 19.19270 17.29259
#
# Velocity S-wave (km/s) = 2.93515 3.27751 3.11105
# Velocity P-wave (km/s) = 6.43265 6.66541 6.55006
#
# Compressibility (1/GPa) = 0.01872392
#
# Stress axis : x y z
#
# Youngs Moduli (GPa) = 58.81287 58.81263 62.41463
#
# Poissons Ratio (x) = 0.42265 0.26419
# Poissons Ratio (y) = 0.42265 0.26419
# Poissons Ratio (z) = 0.24894 0.24895
#
# Static dielectric constant tensor:
#      x y z
#    x 1.637270 0.000000 0.000000 
#    y 0.000000 1.637270 0.000000 
#    z 0.000000 0.000000 1.635710 
# 
# From -- ./inp_files/14592.got.cif
#   From: 2010.05.17/outbox.cif.g08.bks.cpg/sg141_8_cif.got.tgz:14592.got - 2010.05.20 13:30:51.
