data_PCOD9572743
_publ_section_title
;
Structure prediction by ZEFSAII (Michael W. Deem and Ramdas Pophale) SiO2 
 PCOD9572743
Probable space group: I 41/A M D
;
_chemical_formula_sum "Si O2"
_cell_formula_units_Z 128
_cell_length_a 23.348144
_cell_length_b 23.348144
_cell_length_c 17.755801
_cell_angle_alpha 90.000000
_cell_angle_beta 90.000000
_cell_angle_gamma 90.000000
_cell_volume 9679.323284
_symmetry_space_group_name_H-M "I 41/A M D"
_symmetry_group_IT_number 141
_space_group.IT_coordinate_system_code '2'
_symmetry_cell_setting 'tetragonal'
loop_
_space_group_symop_operation_xyz
x,y,z
1/4-y,3/4+x,1/4+z
-x,1/2-y,z
1/4+y,1/4-x,3/4+z
x,-y,-z
-x,1/2+y,-z
1/4+y,3/4+x,1/4-z
1/4-y,1/4-x,3/4-z
-x,-y,-z
3/4+y,1/4-x,3/4-z
x,1/2+y,-z
3/4-y,3/4+x,1/4-z
-x,y,z
x,1/2-y,z
3/4-y,1/4-x,3/4+z
3/4+y,3/4+x,1/4+z
1/2+x,1/2+y,1/2+z
3/4-y,1/4+x,3/4+z
1/2-x,-y,1/2+z
3/4+y,3/4-x,1/4+z
1/2+x,1/2-y,1/2-z
1/2-x,y,1/2-z
3/4+y,1/4+x,3/4-z
3/4-y,3/4-x,1/4-z
1/2-x,1/2-y,1/2-z
1/4+y,3/4-x,1/4-z
1/2+x,y,1/2-z
1/4-y,1/4+x,3/4-z
1/2-x,1/2+y,1/2+z
1/2+x,-y,1/2+z
1/4-y,3/4-x,1/4+z
1/4+y,1/4+x,3/4+z
loop_
_atom_site_type_symbol
_atom_site_label
_atom_site_fract_x
_atom_site_fract_y
_atom_site_fract_z
Si Si1 0.270718 0.979283 0.375000
Si Si2 0.230111 0.682052 0.868496
Si Si3 0.162796 0.138179 0.268683
Si Si4 0.067648 0.317648 0.375000
Si Si5 0.250212 0.087566 0.019418
O O1 0.271249 0.929392 0.436741
O O2 0.211686 0.979798 0.327520
O O3 0.231053 0.750000 0.876829
O O4 0.178913 0.662879 0.812914
O O5 0.287562 0.661321 0.824689
O O6 0.230025 0.647448 0.946226
O O7 0.103467 0.159495 0.303642
O O8 0.165233 0.069444 0.267798
O O9 0.077706 0.250000 0.383624
#
# Coordination Sequence:
#
# PCOD9572743 Si02
#       5
#    16  32  32  16  32
#     4  10  17  28  43  60  88 105 146 179 222 253
#     4  11  19  28  42  62  87 116 146 176 212 253
#     4  11  18  29  40  62  88 118 149 175 208 248
#     4  11  21  30  41  58  88 128 158 178 204 243
#     4  11  17  28  44  64  84 117 142 182 214 259
#
# _framework density 13.224065
#
# number of rings (size 3 to 8) (size 9 to 14) (size 15 to 20)
#    0.000    1.125    7.500    4.500    0.000    0.000 
#    0.000    0.000    0.000    0.000    0.000    5.250 
#    0.000    0.000    0.000    0.000    0.000    0.000 
#
# Total GULP energy -357021.186481 kJ/mol
# GULP energy per Si atom -5578.456039 kJ/mol
# Density = 1.319397 g / cm^3
# Si number density = 13.224065 Si / 1000 Ang^3
#
#
#
# Elastic Constant Matrix: (Units=GPa)
#
#
# Indices 1 2 3 4 5 6 
#
# 1 70.0573 33.4950 53.7222 0.0000 0.0000 0.0000
# 2 33.4950 70.0580 53.7211 0.0000 0.0000 0.0000
# 3 53.7222 53.7211 103.7106 0.0000 0.0000 0.0000
# 4 0.0000 0.0000 0.0000 14.6726 0.0000 0.0000
# 5 0.0000 0.0000 0.0000 0.0000 14.6731 0.0000
# 6 0.0000 0.0000 0.0000 0.0000 0.0000 14.2260
#
#
#
# Elastic Compliance Matrix: (Units=1/GPa)
#
#
# Indices 1 2 3 4 5 6 
#
# 1 0.024115 -0.003236 -0.010815 0.000000 0.000000 0.000000
# 2 -0.003236 0.024114 -0.010814 0.000000 0.000000 0.000000
# 3 -0.010815 -0.010814 0.020846 0.000000 0.000000 0.000000
# 4 0.000000 0.000000 0.000000 0.068154 0.000000 0.000000
# 5 0.000000 0.000000 0.000000 0.000000 0.068152 0.000000
# 6 0.000000 0.000000 0.000000 0.000000 0.000000 0.070294
#
#
# Mechanical properties :
#
#
# Convention : Reuss Voigt Hill
#
# Bulk Modulus (GPa) = 51.69757 58.41140 55.05449
# Shear Modulus (GPa) = 15.06690 15.57351 15.32020
#
# Velocity S-wave (km/s) = 3.37909 3.43543 3.40738
# Velocity P-wave (km/s) = 7.37583 7.74614 7.56325
#
# Compressibility (1/GPa) = 0.01934327
#
# Stress axis : x y z
#
# Youngs Moduli (GPa) = 41.46856 41.47039 47.97053
#
# Poissons Ratio (x) = 0.13421 0.51881
# Poissons Ratio (y) = 0.13420 0.51877
# Poissons Ratio (z) = 0.44849 0.44847
#
# Static dielectric constant tensor:
#      x y z
#    x 1.431390 0.000000 0.000000 
#    y 0.000000 1.431390 0.000000 
#    z 0.000000 0.000000 1.436790 
# 
# From -- ./inp_files/8314.got.cif
#   From: 2010.05.17/outbox.cif.g08.bks.cpg/sg141_5_cif.got.tgz:8314.got - 2010.05.20 13:30:51.
