data_PCOD9572503
_publ_section_title
;
Structure prediction by ZEFSAII (Michael W. Deem and Ramdas Pophale) SiO2 
 PCOD9572503
Probable space group: I 4/M C M
;
_chemical_formula_sum "Si O2"
_cell_formula_units_Z 112
_cell_length_a 15.519556
_cell_length_b 15.519556
_cell_length_c 23.305746
_cell_angle_alpha 90.000000
_cell_angle_beta 90.000000
_cell_angle_gamma 90.000000
_cell_volume 5613.343172
_symmetry_space_group_name_H-M "I 4/M C M"
_symmetry_group_IT_number 140
_symmetry_cell_setting 'tetragonal'
loop_
_space_group_symop_operation_xyz
x,y,z
-y,x,z
-x,-y,z
y,-x,z
x,-y,1/2-z
-x,y,1/2-z
y,x,1/2-z
-y,-x,1/2-z
-x,-y,-z
y,-x,-z
x,y,-z
-y,x,-z
-x,y,1/2+z
x,-y,1/2+z
-y,-x,1/2+z
y,x,1/2+z
1/2+x,1/2+y,1/2+z
1/2-y,1/2+x,1/2+z
1/2-x,1/2-y,1/2+z
1/2+y,1/2-x,1/2+z
1/2+x,1/2-y,-z
1/2-x,1/2+y,-z
1/2+y,1/2+x,-z
1/2-y,1/2-x,-z
1/2-x,1/2-y,1/2-z
1/2+y,1/2-x,1/2-z
1/2+x,1/2+y,1/2-z
1/2-y,1/2+x,1/2-z
1/2-x,1/2+y,z
1/2+x,1/2-y,z
1/2-y,1/2-x,z
1/2+y,1/2+x,z
loop_
_atom_site_type_symbol
_atom_site_label
_atom_site_fract_x
_atom_site_fract_y
_atom_site_fract_z
Si Si1 0.183053 0.549909 0.566939
Si Si2 0.674819 0.825182 0.239994
Si Si3 0.067564 0.432437 0.351702
Si Si4 0.491504 0.641385 0.872915
Si Si5 0.271311 0.500000 0.250000
O O1 0.171134 0.529134 0.500000
O O2 0.147659 0.647659 0.575102
O O3 0.124765 0.491611 0.607637
O O4 0.278150 0.528711 0.587237
O O5 0.750000 0.750000 0.250000
O O6 0.632899 0.867101 0.181220
O O7 0.585756 0.784893 0.262928
O O8 0.000000 0.500000 0.320276
O O9 0.412391 0.577391 0.883405
O O10 0.505478 0.672022 0.807144
#
# Coordination Sequence:
#
# PCOD9572503 Si02
#       5
#    32  16  16  32  16
#     4  10  22  43  69  97 129 170 223 280 336 396
#     4  12  26  41  69 104 140 180 227 283 342 416
#     4  10  21  42  68 101 135 178 223 277 338 403
#     4  11  24  43  67  94 132 178 220 268 331 405
#     4  12  26  42  66 100 140 176 228 273 339 406
#
# _framework density 19.952459999999999
#
# number of rings (size 3 to 8) (size 9 to 14) (size 15 to 20)
#    0.000    1.143    2.857    3.000    4.000    4.000 
#    5.143    1.429    0.000    0.000    0.000    0.000 
#    0.000    0.000    0.000    0.000    0.000    0.286 
#
# Total GULP energy -311908.521819 kJ/mol
# GULP energy per Si atom -5569.795032 kJ/mol
# Density = 1.990705 g / cm^3
# Si number density = 19.952460 Si / 1000 Ang^3
#
#
#
# Elastic Constant Matrix: (Units=GPa)
#
#
# Indices 1 2 3 4 5 6 
#
# 1 138.2310 63.2845 22.4742 0.0000 0.0000 0.0000
# 2 63.2845 138.2310 22.4742 0.0000 0.0000 0.0000
# 3 22.4742 22.4742 66.0238 0.0000 0.0000 0.0000
# 4 0.0000 0.0000 0.0000 2.3199 0.0000 0.0000
# 5 0.0000 0.0000 0.0000 0.0000 2.3199 0.0000
# 6 0.0000 0.0000 0.0000 0.0000 0.0000 32.8934
#
#
#
# Elastic Compliance Matrix: (Units=1/GPa)
#
#
# Indices 1 2 3 4 5 6 
#
# 1 0.009356 -0.003986 -0.001828 0.000000 0.000000 0.000000
# 2 -0.003986 0.009356 -0.001828 0.000000 0.000000 0.000000
# 3 -0.001828 -0.001828 0.016391 0.000000 0.000000 0.000000
# 4 0.000000 0.000000 0.000000 0.431048 0.000000 0.000000
# 5 0.000000 0.000000 0.000000 0.000000 0.431048 0.000000
# 6 0.000000 0.000000 0.000000 0.000000 0.000000 0.030401
#
#
# Mechanical properties :
#
#
# Convention : Reuss Voigt Hill
#
# Bulk Modulus (GPa) = 50.45686 62.10572 56.28129
# Shear Modulus (GPa) = 5.26598 23.12352 14.19475
#
# Velocity S-wave (km/s) = 1.62634 3.40800 2.67016
# Velocity P-wave (km/s) = 5.37309 6.83230 6.14616
#
# Compressibility (1/GPa) = 0.01981891
#
# Stress axis : x y z
#
# Youngs Moduli (GPa) = 106.87771 106.87771 61.01089
#
# Poissons Ratio (x) = 0.42605 0.11153
# Poissons Ratio (y) = 0.42605 0.11153
# Poissons Ratio (z) = 0.19537 0.19537
#
# Static dielectric constant tensor:
#      x y z
#    x 1.725890 0.000000 0.000000 
#    y 0.000000 1.725890 0.000000 
#    z 0.000000 0.000000 1.705450 
# 
# From -- ./inp_files/9097.got.cif
#   From: 2010.05.17/outbox.cif.g08.bks.cpg/sg140_5_cif.got.tgz:9097.got - 2010.06.21 00:45:31.
