data_PCOD9572355
_publ_section_title
;
Structure prediction by ZEFSAII (Michael W. Deem and Ramdas Pophale) SiO2 
 PCOD9572355
Probable space group: I 4/M C M
;
_chemical_formula_sum "Si O2"
_cell_formula_units_Z 160
_cell_length_a 30.790328
_cell_length_b 30.790328
_cell_length_c 7.577217
_cell_angle_alpha 90.000000
_cell_angle_beta 90.000000
_cell_angle_gamma 90.000000
_cell_volume 7183.537374
_symmetry_space_group_name_H-M "I 4/M C M"
_symmetry_group_IT_number 140
_symmetry_cell_setting 'tetragonal'
loop_
_space_group_symop_operation_xyz
x,y,z
-y,x,z
-x,-y,z
y,-x,z
x,-y,1/2-z
-x,y,1/2-z
y,x,1/2-z
-y,-x,1/2-z
-x,-y,-z
y,-x,-z
x,y,-z
-y,x,-z
-x,y,1/2+z
x,-y,1/2+z
-y,-x,1/2+z
y,x,1/2+z
1/2+x,1/2+y,1/2+z
1/2-y,1/2+x,1/2+z
1/2-x,1/2-y,1/2+z
1/2+y,1/2-x,1/2+z
1/2+x,1/2-y,-z
1/2-x,1/2+y,-z
1/2+y,1/2+x,-z
1/2-y,1/2-x,-z
1/2-x,1/2-y,1/2-z
1/2+y,1/2-x,1/2-z
1/2+x,1/2+y,1/2-z
1/2-y,1/2+x,1/2-z
1/2-x,1/2+y,z
1/2+x,1/2-y,z
1/2-y,1/2-x,z
1/2+y,1/2+x,z
loop_
_atom_site_type_symbol
_atom_site_label
_atom_site_fract_x
_atom_site_fract_y
_atom_site_fract_z
Si Si1 0.719601 0.444139 0.197845
Si Si2 0.298988 0.798988 0.213386
Si Si3 0.816418 0.452841 0.211882
Si Si4 0.370304 0.129697 0.205336
Si Si5 0.151014 0.216319 0.209254
Si Si6 0.951515 0.121452 0.207862
O O1 0.766533 0.454554 0.283596
O O2 0.723366 0.392690 0.189198
O O3 0.671472 0.450523 0.282538
O O4 0.718830 0.463732 0.000000
O O5 0.333600 0.833600 0.280464
O O6 0.251937 0.814396 0.271105
O O7 0.299610 0.799610 0.000000
O O8 0.835915 0.500000 0.250000
O O9 0.846923 0.413674 0.279684
O O10 0.812153 0.446460 0.000000
O O11 0.379935 0.120066 0.000000
O O12 0.169297 0.169297 0.250000
O O13 0.143668 0.221155 0.000000
O O14 0.912811 0.087190 0.250000
O O15 0.000000 0.103984 0.250000
O O16 0.947803 0.127724 0.000000
#
# Coordination Sequence:
#
# PCOD9572355 Si02
#       6
#    32  16  32  16  32  32
#     4  10  21  38  60  87 118 153 193 236 290 347
#     4  10  21  35  51  78 111 151 199 244 288 333
#     4  10  21  37  60  90 120 156 195 239 290 344
#     4  10  20  37  61  85 118 156 196 240 291 352
#     4  11  22  34  51  77 113 157 202 243 286 338
#     4  11  24  42  64  89 117 150 192 241 297 356
#
# _framework density 22.273147999999999
#
# number of rings (size 3 to 8) (size 9 to 14) (size 15 to 20)
#    0.000    1.600    2.000    2.700    0.000    5.800 
#    0.000    1.000    0.000    0.300    0.000    2.100 
#    0.000    0.000    0.000    0.000    0.000    0.000 
#
# Total GULP energy -446215.172745 kJ/mol
# GULP energy per Si atom -5577.689659 kJ/mol
# Density = 2.222245 g / cm^3
# Si number density = 22.273148 Si / 1000 Ang^3
#
#
#
# Elastic Constant Matrix: (Units=GPa)
#
#
# Indices 1 2 3 4 5 6 
#
# 1 138.5499 83.5969 5.6232 0.0000 0.0000 0.0000
# 2 83.5969 138.5415 5.6256 0.0000 0.0000 0.0000
# 3 5.6232 5.6256 62.6463 0.0000 0.0000 0.0000
# 4 0.0000 0.0000 0.0000 17.4138 0.0000 0.0000
# 5 0.0000 0.0000 0.0000 0.0000 17.4105 0.0000
# 6 0.0000 0.0000 0.0000 0.0000 0.0000 18.7001
#
#
#
# Elastic Compliance Matrix: (Units=1/GPa)
#
#
# Indices 1 2 3 4 5 6 
#
# 1 0.011360 -0.006838 -0.000406 0.000000 0.000000 0.000000
# 2 -0.006838 0.011361 -0.000406 0.000000 0.000000 0.000000
# 3 -0.000406 -0.000406 0.016036 0.000000 0.000000 0.000000
# 4 0.000000 0.000000 0.000000 0.057426 0.000000 0.000000
# 5 0.000000 0.000000 0.000000 0.000000 0.057437 0.000000
# 6 0.000000 0.000000 0.000000 0.000000 0.000000 0.053476
#
#
# Mechanical properties :
#
#
# Convention : Reuss Voigt Hill
#
# Bulk Modulus (GPa) = 42.63325 58.82546 50.72935
# Shear Modulus (GPa) = 21.71895 27.03101 24.37498
#
# Velocity S-wave (km/s) = 3.12608 3.48748 3.31171
# Velocity P-wave (km/s) = 5.67560 6.53337 6.11953
#
# Compressibility (1/GPa) = 0.02345587
#
# Stress axis : x y z
#
# Youngs Moduli (GPa) = 88.02744 88.02182 62.36150
#
# Poissons Ratio (x) = 0.60192 0.02529
# Poissons Ratio (y) = 0.60196 0.02534
# Poissons Ratio (z) = 0.03571 0.03577
#
# Static dielectric constant tensor:
#      x y z
#    x 1.830660 0.000000 0.000000 
#    y 0.000000 1.830660 0.000000 
#    z 0.000000 0.000000 1.985040 
# 
# From -- ./inp_files/1853.got.cif
#   From: 2010.05.17/outbox.cif.g08.bks.cpg/sg140_1_cif.got.tgz:1853.got - 2010.06.21 00:45:31.
