data_PCOD9572290
_publ_section_title
;
Structure prediction by ZEFSAII (Michael W. Deem and Ramdas Pophale) SiO2 
 PCOD9572290
Probable space group: I 4/M C M
;
_chemical_formula_sum "Si O2"
_cell_formula_units_Z 176
_cell_length_a 25.736327
_cell_length_b 25.736327
_cell_length_c 15.526223
_cell_angle_alpha 90.000000
_cell_angle_beta 90.000000
_cell_angle_gamma 90.000000
_cell_volume 10283.926203
_symmetry_space_group_name_H-M "I 4/M C M"
_symmetry_group_IT_number 140
_symmetry_cell_setting 'tetragonal'
loop_
_space_group_symop_operation_xyz
x,y,z
-y,x,z
-x,-y,z
y,-x,z
x,-y,1/2-z
-x,y,1/2-z
y,x,1/2-z
-y,-x,1/2-z
-x,-y,-z
y,-x,-z
x,y,-z
-y,x,-z
-x,y,1/2+z
x,-y,1/2+z
-y,-x,1/2+z
y,x,1/2+z
1/2+x,1/2+y,1/2+z
1/2-y,1/2+x,1/2+z
1/2-x,1/2-y,1/2+z
1/2+y,1/2-x,1/2+z
1/2+x,1/2-y,-z
1/2-x,1/2+y,-z
1/2+y,1/2+x,-z
1/2-y,1/2-x,-z
1/2-x,1/2-y,1/2-z
1/2+y,1/2-x,1/2-z
1/2+x,1/2+y,1/2-z
1/2-y,1/2+x,1/2-z
1/2-x,1/2+y,z
1/2+x,1/2-y,z
1/2-y,1/2-x,z
1/2+y,1/2+x,z
loop_
_atom_site_type_symbol
_atom_site_label
_atom_site_fract_x
_atom_site_fract_y
_atom_site_fract_z
Si Si1 0.292318 0.207683 0.346127
Si Si2 0.130799 0.457643 0.177170
Si Si3 0.204259 0.295742 0.649814
Si Si4 0.621226 0.279331 0.595717
Si Si5 0.440901 0.749653 0.234328
Si Si6 0.793285 0.868543 0.402977
Si Si7 0.999091 0.411903 0.000000
O O1 0.248186 0.251815 0.339716
O O2 0.308986 0.191015 0.249497
O O3 0.261620 0.162332 0.393810
O O4 0.116233 0.500000 0.250000
O O5 0.091452 0.408549 0.178652
O O6 0.190022 0.439889 0.200311
O O7 0.122077 0.487393 0.085448
O O8 0.229807 0.341150 0.597046
O O9 0.598530 0.286477 0.500000
O O10 0.585237 0.264481 0.674866
O O11 0.659563 0.328294 0.614890
O O12 0.500000 0.737555 0.250000
O O13 0.413741 0.712726 0.165080
O O14 0.799279 0.887070 0.500000
O O15 0.041830 0.458171 0.000000
O O16 0.943123 0.443123 0.000000
#
# Coordination Sequence:
#
# PCOD9572290 Si02
#       7
#    16  32  16  32  32  32  16
#     4   9  15  27  49  80 107 129 176 225 276 312
#     4  10  22  38  55  78 103 138 189 241 297 344
#     4   9  15  27  51  78 105 135 172 230 266 319
#     4  10  20  36  57  80 106 143 188 224 265 333
#     4  11  24  37  51  78 116 149 176 224 287 340
#     4  10  20  34  57  82 105 142 186 225 271 331
#     4   9  18  36  62  80  92 124 184 254 302 337
#
# _framework density 17.114084999999999
#
# number of rings (size 3 to 8) (size 9 to 14) (size 15 to 20)
#    0.000    2.091    1.818    1.636    3.818    3.818 
#    4.909    0.000    0.000    0.000    0.000    0.000 
#    0.000    5.818    0.000   16.000    0.000    0.000 
#
# Total GULP energy -489875.737306 kJ/mol
# GULP energy per Si atom -5566.769742 kJ/mol
# Density = 1.707513 g / cm^3
# Si number density = 17.114085 Si / 1000 Ang^3
#
#
#
# Elastic Constant Matrix: (Units=GPa)
#
#
# Indices 1 2 3 4 5 6 
#
# 1 74.8134 42.0242 67.1585 0.0000 0.0000 0.0000
# 2 42.0242 74.8135 67.1584 0.0000 0.0000 0.0000
# 3 67.1585 67.1584 168.0650 0.0000 0.0000 0.0000
# 4 0.0000 0.0000 0.0000 41.3083 0.0000 0.0000
# 5 0.0000 0.0000 0.0000 0.0000 41.3089 0.0000
# 6 0.0000 0.0000 0.0000 0.0000 0.0000 -279.3836
#
#
#
# Elastic Compliance Matrix: (Units=1/GPa)
#
#
# Indices 1 2 3 4 5 6 
#
# 1 0.023165 -0.007333 -0.006326 0.000000 0.000000 0.000000
# 2 -0.007333 0.023165 -0.006326 0.000000 0.000000 0.000000
# 3 -0.006326 -0.006326 0.011006 0.000000 0.000000 0.000000
# 4 0.000000 0.000000 0.000000 0.024208 0.000000 0.000000
# 5 0.000000 0.000000 0.000000 0.000000 0.024208 0.000000
# 6 0.000000 0.000000 0.000000 0.000000 0.000000 -0.003579
#
#
# Mechanical properties :
#
#
# Convention : Reuss Voigt Hill
#
# Bulk Modulus (GPa) = 57.59013 74.48600 66.03807
# Shear Modulus (GPa) = 33.79944 -29.92989 1.93478
#
# Velocity S-wave (km/s) = 4.44886 -4.18646 1.06441
# Velocity P-wave (km/s) = 7.75330 4.49990 6.33888
#
# Compressibility (1/GPa) = 0.01736409
#
# Stress axis : x y z
#
# Youngs Moduli (GPa) = 43.16910 43.16922 90.85953
#
# Poissons Ratio (x) = 0.31657 0.57480
# Poissons Ratio (y) = 0.31656 0.57480
# Poissons Ratio (z) = 0.27310 0.27310
#
# Static dielectric constant tensor:
#      x y z
#    x 1.593910 0.000000 0.000000 
#    y 0.000000 1.593910 0.000000 
#    z 0.000000 0.000000 1.729370 
# 
# From -- ./inp_files/5172.got.cif
#   From: 2010.05.17/outbox.cif.g08.bks.cpg/sg140_3_cif.got.tgz:5172.got - 2010.06.21 00:45:31.
