data_PCOD9572370
_publ_section_title
;
Structure prediction by ZEFSAII (Michael W. Deem and Ramdas Pophale) SiO2 
 PCOD9572370
Probable space group: I 4/M C M
;
_chemical_formula_sum "Si O2"
_cell_formula_units_Z 128
_cell_length_a 16.419720
_cell_length_b 16.419720
_cell_length_c 23.314379
_cell_angle_alpha 90.000000
_cell_angle_beta 90.000000
_cell_angle_gamma 90.000000
_cell_volume 6285.724556
_symmetry_space_group_name_H-M "I 4/M C M"
_symmetry_group_IT_number 140
_symmetry_cell_setting 'tetragonal'
loop_
_space_group_symop_operation_xyz
x,y,z
-y,x,z
-x,-y,z
y,-x,z
x,-y,1/2-z
-x,y,1/2-z
y,x,1/2-z
-y,-x,1/2-z
-x,-y,-z
y,-x,-z
x,y,-z
-y,x,-z
-x,y,1/2+z
x,-y,1/2+z
-y,-x,1/2+z
y,x,1/2+z
1/2+x,1/2+y,1/2+z
1/2-y,1/2+x,1/2+z
1/2-x,1/2-y,1/2+z
1/2+y,1/2-x,1/2+z
1/2+x,1/2-y,-z
1/2-x,1/2+y,-z
1/2+y,1/2+x,-z
1/2-y,1/2-x,-z
1/2-x,1/2-y,1/2-z
1/2+y,1/2-x,1/2-z
1/2+x,1/2+y,1/2-z
1/2-y,1/2+x,1/2-z
1/2-x,1/2+y,z
1/2+x,1/2-y,z
1/2-y,1/2-x,z
1/2+y,1/2+x,z
loop_
_atom_site_type_symbol
_atom_site_label
_atom_site_fract_x
_atom_site_fract_y
_atom_site_fract_z
Si Si1 0.552384 0.818053 0.164264
Si Si2 0.081260 0.890226 0.358184
Si Si3 0.146161 0.221299 0.566054
Si Si4 0.887739 0.739347 0.787749
O O1 0.591487 0.908514 0.162730
O O2 0.586315 0.770421 0.108986
O O3 0.589249 0.776716 0.221820
O O4 0.456374 0.808022 0.174440
O O5 0.128277 0.852528 0.412632
O O6 0.107577 0.832202 0.306543
O O7 0.983904 0.891569 0.356978
O O8 0.120226 0.226728 0.500000
O O9 0.232685 0.267316 0.571201
O O10 0.800561 0.699440 0.798807
#
# Coordination Sequence:
#
# PCOD9572370 Si02
#       4
#    32  32  32  32
#     4   9  19  38  63  92 123 157 201 253 309 364
#     4  11  23  40  60  87 125 162 201 249 302 366
#     4  10  21  40  64  86 115 158 205 250 297 355
#     4  10  20  38  64  92 124 159 201 253 311 368
#
# _framework density 20.363602
#
# number of rings (size 3 to 8) (size 9 to 14) (size 15 to 20)
#    0.000    2.000    2.500    0.750    0.000    2.500 
#    0.000    7.500    0.000    0.750    0.000    3.500 
#    0.000    0.000    0.000    0.000    0.000    0.000 
#
# Total GULP energy -357339.821073 kJ/mol
# GULP energy per Si atom -5583.434704 kJ/mol
# Density = 2.031725 g / cm^3
# Si number density = 20.363602 Si / 1000 Ang^3
#
#
#
# Elastic Constant Matrix: (Units=GPa)
#
#
# Indices 1 2 3 4 5 6 
#
# 1 109.7446 61.9503 42.6447 0.0000 0.0000 0.0000
# 2 61.9503 109.7446 42.6447 0.0000 0.0000 0.0000
# 3 42.6447 42.6447 134.7597 0.0000 0.0000 0.0000
# 4 0.0000 0.0000 0.0000 23.4681 0.0000 0.0000
# 5 0.0000 0.0000 0.0000 0.0000 23.4681 0.0000
# 6 0.0000 0.0000 0.0000 0.0000 0.0000 27.8335
#
#
#
# Elastic Compliance Matrix: (Units=1/GPa)
#
#
# Indices 1 2 3 4 5 6 
#
# 1 0.013917 -0.007006 -0.002187 0.000000 0.000000 0.000000
# 2 -0.007006 0.013917 -0.002187 0.000000 0.000000 0.000000
# 3 -0.002187 -0.002187 0.008805 0.000000 0.000000 0.000000
# 4 0.000000 0.000000 0.000000 0.042611 0.000000 0.000000
# 5 0.000000 0.000000 0.000000 0.000000 0.042611 0.000000
# 6 0.000000 0.000000 0.000000 0.000000 0.000000 0.035928
#
#
# Mechanical properties :
#
#
# Convention : Reuss Voigt Hill
#
# Bulk Modulus (GPa) = 72.05414 72.08091 72.06753
# Shear Modulus (GPa) = 27.00161 28.75457 27.87809
#
# Velocity S-wave (km/s) = 3.64534 3.76181 3.70404
# Velocity P-wave (km/s) = 7.29237 7.37171 7.33215
#
# Compressibility (1/GPa) = 0.01387845
#
# Stress axis : x y z
#
# Youngs Moduli (GPa) = 71.85556 71.85556 113.57602
#
# Poissons Ratio (x) = 0.50343 0.24837
# Poissons Ratio (y) = 0.50343 0.24837
# Poissons Ratio (z) = 0.15714 0.15714
#
# Static dielectric constant tensor:
#      x y z
#    x 1.759100 0.000000 0.000000 
#    y 0.000000 1.759100 0.000000 
#    z 0.000000 0.000000 1.704550 
# 
# From -- ./inp_files/9289.got.cif
#   From: 2010.05.17/outbox.cif.g08.bks.cpg/sg140_5_cif.got.tgz:9289.got - 2010.06.21 00:45:31.
