data_PCOD9572709
_publ_section_title
;
Structure prediction by ZEFSAII (Michael W. Deem and Ramdas Pophale) SiO2 
 PCOD9572709
Probable space group: I 4/M C M
;
_chemical_formula_sum "Si O2"
_cell_formula_units_Z 120
_cell_length_a 21.000000
_cell_length_b 21.000000
_cell_length_c 30.000000
_cell_angle_alpha 90.000000
_cell_angle_beta 90.000000
_cell_angle_gamma 90.000000
_cell_volume 13230.000000
_symmetry_space_group_name_H-M "I 4/M C M"
_symmetry_group_IT_number 140
_symmetry_cell_setting 'tetragonal'
loop_
_space_group_symop_operation_xyz
x,y,z
-y,x,z
-x,-y,z
y,-x,z
x,-y,1/2-z
-x,y,1/2-z
y,x,1/2-z
-y,-x,1/2-z
-x,-y,-z
y,-x,-z
x,y,-z
-y,x,-z
-x,y,1/2+z
x,-y,1/2+z
-y,-x,1/2+z
y,x,1/2+z
1/2+x,1/2+y,1/2+z
1/2-y,1/2+x,1/2+z
1/2-x,1/2-y,1/2+z
1/2+y,1/2-x,1/2+z
1/2+x,1/2-y,-z
1/2-x,1/2+y,-z
1/2+y,1/2+x,-z
1/2-y,1/2-x,-z
1/2-x,1/2-y,1/2-z
1/2+y,1/2-x,1/2-z
1/2+x,1/2+y,1/2-z
1/2-y,1/2+x,1/2-z
1/2-x,1/2+y,z
1/2+x,1/2-y,z
1/2-y,1/2-x,z
1/2+y,1/2+x,z
loop_
_atom_site_type_symbol
_atom_site_label
_atom_site_fract_x
_atom_site_fract_y
_atom_site_fract_z
Si Si1 0.230647 0.073404 0.302092
Si Si2 0.402806 0.450542 0.500000
Si Si3 0.430369 0.335103 0.095640
Si Si4 0.506057 0.793880 0.127734
Si Si5 0.200326 0.402526 0.289491
Si Si6 0.811576 0.795910 0.343283
Si Si7 0.501311 0.893299 0.049457
Si Si8 0.000380 0.104911 0.822065
O O1 0.269528 0.071656 0.256211
O O2 0.207857 0.144944 0.312119
O O3 0.172921 0.021389 0.302093
O O4 0.270007 0.056391 0.346702
O O5 0.472824 0.416799 0.500000
O O6 0.364318 0.432014 0.454321
O O7 0.460495 0.264884 0.101790
O O8 0.359230 0.325848 0.118142
O O9 0.477841 0.378111 0.127017
O O10 0.548536 0.814314 0.170481
O O11 0.495696 0.847054 0.090999
O O12 0.138264 0.361737 0.278267
O O13 0.251651 0.356363 0.312898
O O14 0.750794 0.749207 0.356369
O O15 0.444732 0.944732 0.050572
O O16 0.566589 0.933412 0.052769
O O17 0.499864 0.862441 0.000000
O O18 0.939657 0.061048 0.810181
#
# Coordination Sequence:
#
# PCOD9572709 Si02
#       8
#    32  16  32  32  32  32  32  32
#     4  11  21  35  58  91 120 161 203 254 299 364
#     4  11  24  38  63  92 120 157 209 258 309 375
#     4  10  21  38  59  88 119 159 206 257 303 368
#     4  10  22  36  59  87 122 156 191 252 306 359
#     4  10  21  39  60  83 115 157 210 253 295 354
#     4  10  21  39  60  82 114 161 207 253 298 353
#     4   9  19  38  64  91 117 149 195 248 306 375
#     4  10  19  35  60  85 120 165 206 253 310 360
#
# _framework density 9.0702949999999998
#
# number of rings (size 3 to 8) (size 9 to 14) (size 15 to 20)
#    0.000    1.933    1.333    2.800    2.800    3.733 
#    2.400    0.333    0.000    0.000    0.000    1.867 
#    0.000    0.000    0.000    0.000    0.000    0.000 
#
# Total GULP energy -668448.140360 kJ/mol
# GULP energy per Si atom -5570.401170 kJ/mol
# Density = 0.904965 g / cm^3
# Si number density = 9.070295 Si / 1000 Ang^3
#
#
#
# Elastic Constant Matrix: (Units=GPa)
#
#
# Indices 1 2 3 4 5 6 
#
# 1 57.8089 11.2150 30.4420 0.0000 0.0000 0.0000
# 2 11.2150 57.8089 30.4420 0.0000 0.0000 0.0000
# 3 30.4420 30.4420 124.1356 0.0000 0.0000 0.0000
# 4 0.0000 0.0000 0.0000 28.4954 0.0000 0.0000
# 5 0.0000 0.0000 0.0000 0.0000 28.4954 0.0000
# 6 0.0000 0.0000 0.0000 0.0000 0.0000 31.2117
#
#
#
# Elastic Compliance Matrix: (Units=1/GPa)
#
#
# Indices 1 2 3 4 5 6 
#
# 1 0.019974 -0.001488 -0.004533 0.000000 0.000000 0.000000
# 2 -0.001488 0.019974 -0.004533 0.000000 0.000000 0.000000
# 3 -0.004533 -0.004533 0.010279 0.000000 0.000000 0.000000
# 4 0.000000 0.000000 0.000000 0.035093 0.000000 0.000000
# 5 0.000000 0.000000 0.000000 0.000000 0.035093 0.000000
# 6 0.000000 0.000000 0.000000 0.000000 0.000000 0.032039
#
#
# Mechanical properties :
#
#
# Convention : Reuss Voigt Hill
#
# Bulk Modulus (GPa) = 34.34253 42.66126 38.50189
# Shear Modulus (GPa) = 27.28224 28.81747 28.04985
#
# Velocity S-wave (km/s) = 3.88227 3.99000 3.93650
# Velocity P-wave (km/s) = 6.25047 6.69290 6.47546
#
# Compressibility (1/GPa) = 0.02911842
#
# Stress axis : x y z
#
# Youngs Moduli (GPa) = 50.06433 50.06433 97.28365
#
# Poissons Ratio (x) = 0.07448 0.44104
# Poissons Ratio (y) = 0.07448 0.44104
# Poissons Ratio (z) = 0.22697 0.22697
#
# Static dielectric constant tensor:
#      x y z
#    x 1.659590 0.000000 0.000000 
#    y 0.000000 1.659590 0.000000 
#    z 0.000000 0.000000 1.605630 
# 
# From -- ./inp_files/11807.got.cif
#   From: 2010.05.17/outbox.ucp.g08.bks.cvg/sg140_6_cif.got.tgz:11807.got - 2010.06.11 11:42:50.
