data_PCOD9572824
_publ_section_title
;
Structure prediction by ZEFSAII (Michael W. Deem and Ramdas Pophale) SiO2 
 PCOD9572824
Probable space group: I 41/A M D
;
_chemical_formula_sum "Si O2"
_cell_formula_units_Z 160
_cell_length_a 18.072694
_cell_length_b 18.072694
_cell_length_c 24.793090
_cell_angle_alpha 90.000000
_cell_angle_beta 90.000000
_cell_angle_gamma 90.000000
_cell_volume 8097.975297
_symmetry_space_group_name_H-M "I 41/A M D"
_symmetry_group_IT_number 141
_space_group.IT_coordinate_system_code '2'
_symmetry_cell_setting 'tetragonal'
loop_
_space_group_symop_operation_xyz
x,y,z
1/4-y,3/4+x,1/4+z
-x,1/2-y,z
1/4+y,1/4-x,3/4+z
x,-y,-z
-x,1/2+y,-z
1/4+y,3/4+x,1/4-z
1/4-y,1/4-x,3/4-z
-x,-y,-z
3/4+y,1/4-x,3/4-z
x,1/2+y,-z
3/4-y,3/4+x,1/4-z
-x,y,z
x,1/2-y,z
3/4-y,1/4-x,3/4+z
3/4+y,3/4+x,1/4+z
1/2+x,1/2+y,1/2+z
3/4-y,1/4+x,3/4+z
1/2-x,-y,1/2+z
3/4+y,3/4-x,1/4+z
1/2+x,1/2-y,1/2-z
1/2-x,y,1/2-z
3/4+y,1/4+x,3/4-z
3/4-y,3/4-x,1/4-z
1/2-x,1/2-y,1/2-z
1/4+y,3/4-x,1/4-z
1/2+x,y,1/2-z
1/4-y,1/4+x,3/4-z
1/2-x,1/2+y,1/2+z
1/2+x,-y,1/2+z
1/4-y,3/4-x,1/4+z
1/4+y,1/4+x,3/4+z
loop_
_atom_site_type_symbol
_atom_site_label
_atom_site_fract_x
_atom_site_fract_y
_atom_site_fract_z
Si Si1 0.207539 0.060855 0.586243
Si Si2 0.606566 0.669213 0.312425
Si Si3 0.871343 0.543052 0.261369
Si Si4 0.086175 0.458988 0.369465
Si Si5 0.716958 0.832464 0.174025
O O1 0.240806 0.073536 0.527670
O O2 0.203390 0.141835 0.612953
O O3 0.264383 0.014383 0.625000
O O4 0.131052 0.016857 0.592398
O O5 0.584782 0.665219 0.375000
O O6 0.584165 0.750000 0.291083
O O7 0.582681 0.597488 0.278475
O O8 0.696008 0.666819 0.314148
O O9 0.906959 0.493715 0.308769
O O10 0.822666 0.604000 0.292458
O O11 0.133258 0.383258 0.375000
O O12 0.000000 0.451106 0.382717
O O13 0.689420 0.750000 0.185158
#
# Coordination Sequence:
#
# PCOD9572824 Si02
#       5
#    32  32  32  32  32
#     4  10  19  36  59  87 121 153 195 244 288 338
#     4  11  21  33  52  84 132 172 201 233 272 323
#     4  11  20  36  60  87 116 153 204 243 288 343
#     4  10  25  42  64  89 115 147 187 247 314 368
#     4  10  19  30  52  86 123 160 198 242 282 321
#
# _framework density 19.758026999999998
#
# number of rings (size 3 to 8) (size 9 to 14) (size 15 to 20)
#    0.000    1.600    4.000    1.200    5.600    3.600 
#    0.000    2.000    0.000   14.400    0.000    0.000 
#    0.000    0.000    0.000    0.000    0.000    0.000 
#
# Total GULP energy -446422.824970 kJ/mol
# GULP energy per Si atom -5580.285312 kJ/mol
# Density = 1.971306 g / cm^3
# Si number density = 19.758027 Si / 1000 Ang^3
#
#
#
# Elastic Constant Matrix: (Units=GPa)
#
#
# Indices 1 2 3 4 5 6 
#
# 1 124.5080 53.8298 39.8483 0.0000 0.0000 0.0000
# 2 53.8298 124.5083 39.8482 0.0000 0.0000 0.0000
# 3 39.8483 39.8482 80.3096 0.0000 0.0000 0.0000
# 4 0.0000 0.0000 0.0000 1.3642 0.0000 0.0000
# 5 0.0000 0.0000 0.0000 0.0000 1.3635 0.0000
# 6 0.0000 0.0000 0.0000 0.0000 0.0000 -4.5829
#
#
#
# Elastic Compliance Matrix: (Units=1/GPa)
#
#
# Indices 1 2 3 4 5 6 
#
# 1 0.010677 -0.003472 -0.003575 0.000000 0.000000 0.000000
# 2 -0.003472 0.010677 -0.003575 0.000000 0.000000 0.000000
# 3 -0.003575 -0.003575 0.015999 0.000000 0.000000 0.000000
# 4 0.000000 0.000000 0.000000 0.733055 0.000000 0.000000
# 5 0.000000 0.000000 0.000000 0.000000 0.733411 0.000000
# 6 0.000000 0.000000 0.000000 0.000000 0.000000 -0.218202
#
#
# Mechanical properties :
#
#
# Convention : Reuss Voigt Hill
#
# Bulk Modulus (GPa) = 62.07522 66.26428 64.16975
# Shear Modulus (GPa) = 3.81030 12.68226 8.24628
#
# Velocity S-wave (km/s) = 1.39021 2.53628 2.04516
# Velocity P-wave (km/s) = 5.83634 6.49520 6.17456
#
# Compressibility (1/GPa) = 0.01610949
#
# Stress axis : x y z
#
# Youngs Moduli (GPa) = 93.66116 93.66152 62.50204
#
# Poissons Ratio (x) = 0.32518 0.22344
# Poissons Ratio (y) = 0.32518 0.22344
# Poissons Ratio (z) = 0.33484 0.33483
#
# Static dielectric constant tensor:
#      x y z
#    x 1.730190 0.000000 0.000000 
#    y 0.000000 1.730190 0.000000 
#    z 0.000000 0.000000 1.776310 
# 
# From -- ./inp_files/12732.got.cif
#   From: 2010.05.17/outbox.cif.g08.bks.cpg/sg141_7_cif.got.tgz:12732.got - 2010.05.20 13:30:51.
