data_PCOD9572035
_publ_section_title
;
Structure prediction by ZEFSAII (Michael W. Deem and Ramdas Pophale) SiO2 
 PCOD9572035
Probable space group: I 4/M C M
;
_chemical_formula_sum "Si O2"
_cell_formula_units_Z 160
_cell_length_a 35.371709
_cell_length_b 35.371709
_cell_length_c 7.763148
_cell_angle_alpha 90.000000
_cell_angle_beta 90.000000
_cell_angle_gamma 90.000000
_cell_volume 9712.923154
_symmetry_space_group_name_H-M "I 4/M C M"
_symmetry_group_IT_number 140
_symmetry_cell_setting 'tetragonal'
loop_
_space_group_symop_operation_xyz
x,y,z
-y,x,z
-x,-y,z
y,-x,z
x,-y,1/2-z
-x,y,1/2-z
y,x,1/2-z
-y,-x,1/2-z
-x,-y,-z
y,-x,-z
x,y,-z
-y,x,-z
-x,y,1/2+z
x,-y,1/2+z
-y,-x,1/2+z
y,x,1/2+z
1/2+x,1/2+y,1/2+z
1/2-y,1/2+x,1/2+z
1/2-x,1/2-y,1/2+z
1/2+y,1/2-x,1/2+z
1/2+x,1/2-y,-z
1/2-x,1/2+y,-z
1/2+y,1/2+x,-z
1/2-y,1/2-x,-z
1/2-x,1/2-y,1/2-z
1/2+y,1/2-x,1/2-z
1/2+x,1/2+y,1/2-z
1/2-y,1/2+x,1/2-z
1/2-x,1/2+y,z
1/2+x,1/2-y,z
1/2-y,1/2-x,z
1/2+y,1/2+x,z
loop_
_atom_site_type_symbol
_atom_site_label
_atom_site_fract_x
_atom_site_fract_y
_atom_site_fract_z
Si Si1 0.396793 0.663502 0.793305
Si Si2 0.416355 0.144632 0.000000
Si Si3 0.896995 0.043566 0.796638
Si Si4 0.208945 0.648668 0.000000
Si Si5 0.749891 0.892587 0.295250
Si Si6 0.313030 0.956603 0.201861
O O1 0.357749 0.642252 0.750000
O O2 0.430270 0.636686 0.721984
O O3 0.399189 0.706898 0.738903
O O4 0.399836 0.664251 0.000000
O O5 0.440710 0.154849 0.830578
O O6 0.396085 0.103916 0.000000
O O7 0.382405 0.175292 0.000000
O O8 0.936275 0.063726 0.750000
O O9 0.894927 0.000000 0.750000
O O10 0.893578 0.045844 0.000000
O O11 0.232556 0.639376 0.171674
O O12 0.189259 0.689259 0.000000
O O13 0.748856 0.883179 0.500000
O O14 0.723834 0.929933 0.272547
O O15 0.304954 0.000000 0.250000
O O16 0.323457 0.954016 0.000000
#
# Coordination Sequence:
#
# PCOD9572035 Si02
#       6
#    32  16  32  16  32  32
#     4   9  19  34  51  73  97 127 167 208 249 299
#     4   9  18  32  48  72 104 136 175 210 244 301
#     4  10  20  35  52  72  98 126 162 206 253 301
#     4   9  18  32  52  76  99 131 172 208 250 305
#     4   9  19  33  49  75 103 133 171 205 254 308
#     4  10  18  30  49  73 106 139 164 206 258 302
#
# _framework density 16.472899000000002
#
# number of rings (size 3 to 8) (size 9 to 14) (size 15 to 20)
#    0.000    2.600    1.000    0.600    1.400    2.600 
#    0.000    5.000    0.000    0.600    0.000    0.000 
#    0.000    1.200    0.000    0.000    0.000    0.000 
#
# Total GULP energy -445609.278303 kJ/mol
# GULP energy per Si atom -5570.115979 kJ/mol
# Density = 1.643541 g / cm^3
# Si number density = 16.472899 Si / 1000 Ang^3
#
#
#
# Elastic Constant Matrix: (Units=GPa)
#
#
# Indices 1 2 3 4 5 6 
#
# 1 79.4462 87.9200 47.1215 0.0000 0.0000 0.0000
# 2 87.9200 79.4506 47.1247 0.0000 0.0000 0.0000
# 3 47.1215 47.1247 85.4228 0.0000 0.0000 0.0000
# 4 0.0000 0.0000 0.0000 19.9963 0.0000 0.0000
# 5 0.0000 0.0000 0.0000 0.0000 19.9960 0.0000
# 6 0.0000 0.0000 0.0000 0.0000 0.0000 10.2980
#
#
#
# Elastic Compliance Matrix: (Units=1/GPa)
#
#
# Indices 1 2 3 4 5 6 
#
# 1 -0.054688 0.063354 -0.004783 0.000000 0.000000 0.000000
# 2 0.063354 -0.054687 -0.004779 0.000000 0.000000 0.000000
# 3 -0.004783 -0.004779 0.016982 0.000000 0.000000 0.000000
# 4 0.000000 0.000000 0.000000 0.050009 0.000000 0.000000
# 5 0.000000 0.000000 0.000000 0.000000 0.050010 0.000000
# 6 0.000000 0.000000 0.000000 0.000000 0.000000 0.097106
#
#
# Mechanical properties :
#
#
# Convention : Reuss Voigt Hill
#
# Bulk Modulus (GPa) = 65.82821 67.62800 66.72811
# Shear Modulus (GPa) = 2260.49186 14.20162 1137.34674
#
# Velocity S-wave (km/s) = 37.08407 2.93937 26.30464
# Velocity P-wave (km/s) = 43.28609 7.25694 31.03505
#
# Compressibility (1/GPa) = 0.01519106
#
# Stress axis : x y z
#
# Youngs Moduli (GPa) = -18.28563 -18.28594 58.88750
#
# Poissons Ratio (x) = 1.15850 0.28167
# Poissons Ratio (y) = 1.15848 0.28144
# Poissons Ratio (z) = -0.08746 -0.08739
#
# Static dielectric constant tensor:
#      x y z
#    x 1.538960 0.000000 0.000000 
#    y 0.000000 1.538960 0.000000 
#    z 0.000000 0.000000 1.575520 
# 
# From -- ./inp_files/1846.got.cif
#   From: 2010.05.17/outbox.cif.g08.bks.cpg/sg140_1_cif.got.tgz:1846.got - 2010.06.21 00:45:31.
