data_PCOD9573674
_publ_section_title
;
Structure prediction by ZEFSAII (Michael W. Deem and Ramdas Pophale) SiO2 
 PCOD9573674
Probable space group: I 41/A C D
;
_chemical_formula_sum "Si O2"
_cell_formula_units_Z 176
_cell_length_a 17.639516
_cell_length_b 17.639516
_cell_length_c 25.996674
_cell_angle_alpha 90.000000
_cell_angle_beta 90.000000
_cell_angle_gamma 90.000000
_cell_volume 8088.930749
_symmetry_space_group_name_H-M "I 41/A C D"
_symmetry_group_IT_number 142
_space_group.IT_coordinate_system_code '2'
_symmetry_cell_setting 'tetragonal'
loop_
_space_group_symop_operation_xyz
x,y,z
1/4-y,3/4+x,1/4+z
-x,1/2-y,z
1/4+y,1/4-x,3/4+z
x,-y,1/2-z
1/2-x,y,-z
3/4+y,1/4+x,1/4-z
1/4-y,1/4-x,1/4-z
-x,-y,-z
3/4+y,1/4-x,3/4-z
x,1/2+y,-z
3/4-y,3/4+x,1/4-z
-x,y,1/2+z
1/2+x,-y,z
1/4-y,3/4-x,3/4+z
3/4+y,3/4+x,3/4+z
1/2+x,1/2+y,1/2+z
3/4-y,1/4+x,3/4+z
1/2-x,-y,1/2+z
3/4+y,3/4-x,1/4+z
1/2+x,1/2-y,-z
-x,1/2+y,1/2-z
1/4+y,3/4+x,3/4-z
3/4-y,3/4-x,3/4-z
1/2-x,1/2-y,1/2-z
1/4+y,3/4-x,1/4-z
1/2+x,y,1/2-z
1/4-y,1/4+x,3/4-z
1/2-x,1/2+y,z
x,1/2-y,1/2+z
3/4-y,1/4-x,1/4+z
1/4+y,1/4+x,1/4+z
loop_
_atom_site_type_symbol
_atom_site_label
_atom_site_fract_x
_atom_site_fract_y
_atom_site_fract_z
Si Si1 0.653718 0.666054 0.236153
Si Si2 0.202755 0.175161 0.205901
Si Si3 0.764993 0.774876 0.612538
Si Si4 0.089054 0.237555 0.444940
Si Si5 0.922323 0.069776 0.719708
Si Si6 0.849221 0.099221 0.125000
O O1 0.660947 0.756703 0.235412
O O2 0.735741 0.638617 0.255763
O O3 0.592460 0.645326 0.277835
O O4 0.629848 0.638938 0.179324
O O5 0.242696 0.221702 0.160374
O O6 0.140669 0.115164 0.188370
O O7 0.854125 0.763967 0.603182
O O8 0.718004 0.737928 0.564902
O O9 0.734859 0.861955 0.618803
O O10 0.123269 0.295435 0.487174
O O11 0.000000 0.250000 0.436349
O O12 0.885390 0.000000 0.750000
#
# Coordination Sequence:
#
# PCOD9573674 Si02
#       6
#    32  32  32  32  32  16
#     4  10  21  39  66  92 131 174 227 277 348 409
#     4  10  21  41  61  93 136 178 218 289 342 418
#     4  10  22  39  67 101 138 171 235 287 352 419
#     4  11  21  41  67  98 134 186 223 284 350 427
#     4  10  20  38  66  97 132 170 230 287 343 412
#     4  10  20  40  67 100 128 172 226 300 341 402
#
# _framework density 21.758130000000001
#
# number of rings (size 3 to 8) (size 9 to 14) (size 15 to 20)
#    0.000    1.818    3.636    0.545    0.000    0.000 
#    6.545    3.182    0.000    0.000    0.000    0.000 
#    0.000    0.000    0.000    0.000    0.000    0.000 
#
# Total GULP energy -490336.609201 kJ/mol
# GULP energy per Si atom -5572.006923 kJ/mol
# Density = 2.170861 g / cm^3
# Si number density = 21.758130 Si / 1000 Ang^3
#
#
#
# Elastic Constant Matrix: (Units=GPa)
#
#
# Indices 1 2 3 4 5 6 
#
# 1 83.3330 46.0436 23.6957 0.0000 0.0000 0.0000
# 2 46.0436 83.3330 23.6957 0.0000 0.0000 0.0000
# 3 23.6957 23.6957 66.8286 0.0000 0.0000 0.0000
# 4 0.0000 0.0000 0.0000 17.0086 0.0000 0.0000
# 5 0.0000 0.0000 0.0000 0.0000 17.0086 0.0000
# 6 0.0000 0.0000 0.0000 0.0000 0.0000 16.7768
#
#
#
# Elastic Compliance Matrix: (Units=1/GPa)
#
#
# Indices 1 2 3 4 5 6 
#
# 1 0.017850 -0.008967 -0.003150 0.000000 0.000000 0.000000
# 2 -0.008967 0.017850 -0.003150 0.000000 0.000000 0.000000
# 3 -0.003150 -0.003150 0.017197 0.000000 0.000000 0.000000
# 4 0.000000 0.000000 0.000000 0.058794 0.000000 0.000000
# 5 0.000000 0.000000 0.000000 0.000000 0.058794 0.000000
# 6 0.000000 0.000000 0.000000 0.000000 0.000000 0.059606
#
#
# Mechanical properties :
#
#
# Convention : Reuss Voigt Hill
#
# Bulk Modulus (GPa) = 44.71349 46.70720 45.71035
# Shear Modulus (GPa) = 18.65120 19.49611 19.07366
#
# Velocity S-wave (km/s) = 2.93098 2.99664 2.96399
# Velocity P-wave (km/s) = 5.66119 5.78673 5.72431
#
# Compressibility (1/GPa) = 0.02236462
#
# Stress axis : x y z
#
# Youngs Moduli (GPa) = 56.02176 56.02176 58.14875
#
# Poissons Ratio (x) = 0.50235 0.18315
# Poissons Ratio (y) = 0.50235 0.18315
# Poissons Ratio (z) = 0.17645 0.17645
#
# Static dielectric constant tensor:
#      x y z
#    x 1.815250 0.000000 0.000000 
#    y 0.000000 1.815250 0.000000 
#    z 0.000000 0.000000 1.833090 
# 
# From -- ./inp_files/11480.got.cif
#   From: 2010.05.17/outbox.cif.g08.bks.cpg/sg142_6_cif.got.tgz:11480.got - 2010.05.20 13:39:18.
