data_PCOD9573625
_publ_section_title
;
Structure prediction by ZEFSAII (Michael W. Deem and Ramdas Pophale) SiO2 
 PCOD9573625
Probable space group: I 41/A C D
;
_chemical_formula_sum "Si O2"
_cell_formula_units_Z 160
_cell_length_a 27.616536
_cell_length_b 27.616536
_cell_length_c 9.225444
_cell_angle_alpha 90.000000
_cell_angle_beta 90.000000
_cell_angle_gamma 90.000000
_cell_volume 7035.997611
_symmetry_space_group_name_H-M "I 41/A C D"
_symmetry_group_IT_number 142
_space_group.IT_coordinate_system_code '2'
_symmetry_cell_setting 'tetragonal'
loop_
_space_group_symop_operation_xyz
x,y,z
1/4-y,3/4+x,1/4+z
-x,1/2-y,z
1/4+y,1/4-x,3/4+z
x,-y,1/2-z
1/2-x,y,-z
3/4+y,1/4+x,1/4-z
1/4-y,1/4-x,1/4-z
-x,-y,-z
3/4+y,1/4-x,3/4-z
x,1/2+y,-z
3/4-y,3/4+x,1/4-z
-x,y,1/2+z
1/2+x,-y,z
1/4-y,3/4-x,3/4+z
3/4+y,3/4+x,3/4+z
1/2+x,1/2+y,1/2+z
3/4-y,1/4+x,3/4+z
1/2-x,-y,1/2+z
3/4+y,3/4-x,1/4+z
1/2+x,1/2-y,-z
-x,1/2+y,1/2-z
1/4+y,3/4+x,3/4-z
3/4-y,3/4-x,3/4-z
1/2-x,1/2-y,1/2-z
1/4+y,3/4-x,1/4-z
1/2+x,y,1/2-z
1/4-y,1/4+x,3/4-z
1/2-x,1/2+y,z
x,1/2-y,1/2+z
3/4-y,1/4-x,1/4+z
1/4+y,1/4+x,1/4+z
loop_
_atom_site_type_symbol
_atom_site_label
_atom_site_fract_x
_atom_site_fract_y
_atom_site_fract_z
Si Si1 0.789542 0.960459 0.875000
Si Si2 0.108765 0.488183 0.493166
Si Si3 0.071449 0.612864 0.082817
Si Si4 0.148293 0.253458 0.089911
Si Si5 0.034505 0.000000 0.250000
Si Si6 0.901113 0.595413 0.996233
O O1 0.783568 0.907197 0.810368
O O2 0.782691 0.000000 0.750000
O O3 0.084950 0.444803 0.401314
O O4 0.069488 0.501617 0.613614
O O5 0.120972 0.543268 0.450074
O O6 0.124126 0.638212 0.108689
O O7 0.032455 0.628175 0.208359
O O8 0.044713 0.619091 0.926747
O O9 0.155333 0.291956 0.219265
O O10 0.201126 0.244079 0.023608
O O11 0.880090 0.630090 0.875000
#
# Coordination Sequence:
#
# PCOD9573625 Si02
#       6
#    16  32  32  32  16  32
#     4  12  26  42  60  86 132 184 237 276 330 419
#     4  11  22  40  59  89 128 174 226 271 332 396
#     4  10  22  39  65  93 130 167 214 275 330 405
#     4  10  20  39  62  95 123 165 213 274 342 393
#     4  10  20  36  64  88 118 162 222 284 322 386
#     4  10  22  38  60  90 127 166 215 268 332 405
#
# _framework density 22.740199
#
# number of rings (size 3 to 8) (size 9 to 14) (size 15 to 20)
#    0.000    1.600    1.000    3.600    1.400    5.600 
#    0.000    0.000    0.000    0.600    0.000    7.000 
#    0.000    0.000    0.000    0.000    0.000    0.000 
#
# Total GULP energy -445754.049971 kJ/mol
# GULP energy per Si atom -5571.925625 kJ/mol
# Density = 2.268844 g / cm^3
# Si number density = 22.740199 Si / 1000 Ang^3
#
#
#
# Elastic Constant Matrix: (Units=GPa)
#
#
# Indices 1 2 3 4 5 6 
#
# 1 71.6875 41.4300 35.9231 0.0000 0.0000 0.0000
# 2 41.4300 71.6813 35.9247 0.0000 0.0000 0.0000
# 3 35.9231 35.9247 86.0660 0.0000 0.0000 0.0000
# 4 0.0000 0.0000 0.0000 47.8599 0.0000 0.0000
# 5 0.0000 0.0000 0.0000 0.0000 47.8600 0.0000
# 6 0.0000 0.0000 0.0000 0.0000 0.0000 19.8928
#
#
#
# Elastic Compliance Matrix: (Units=1/GPa)
#
#
# Indices 1 2 3 4 5 6 
#
# 1 0.022540 -0.010512 -0.005020 0.000000 0.000000 0.000000
# 2 -0.010512 0.022543 -0.005022 0.000000 0.000000 0.000000
# 3 -0.005020 -0.005022 0.015811 0.000000 0.000000 0.000000
# 4 0.000000 0.000000 0.000000 0.020894 0.000000 0.000000
# 5 0.000000 0.000000 0.000000 0.000000 0.020894 0.000000
# 6 0.000000 0.000000 0.000000 0.000000 0.000000 0.050269
#
#
# Mechanical properties :
#
#
# Convention : Reuss Voigt Hill
#
# Bulk Modulus (GPa) = 50.54195 50.66562 50.60378
# Shear Modulus (GPa) = 24.91832 30.86634 27.89233
#
# Velocity S-wave (km/s) = 3.31385 3.68822 3.50603
# Velocity P-wave (km/s) = 6.07587 6.36127 6.22021
#
# Compressibility (1/GPa) = 0.01978555
#
# Stress axis : x y z
#
# Youngs Moduli (GPa) = 44.36541 44.35950 63.24791
#
# Poissons Ratio (x) = 0.46629 0.31753
# Poissons Ratio (y) = 0.46635 0.31765
# Poissons Ratio (z) = 0.22273 0.22279
#
# Static dielectric constant tensor:
#      x y z
#    x 1.983400 0.000000 0.000000 
#    y 0.000000 1.983390 0.000000 
#    z 0.000000 0.000000 1.957390 
# 
# From -- ./inp_files/3916.got.cif
#   From: 2010.05.17/outbox.cif.g08.bks.cpg/sg142_2_cif.got.tgz:3916.got - 2010.05.20 13:39:18.
