data_PCOD9573596
_publ_section_title
;
Structure prediction by ZEFSAII (Michael W. Deem and Ramdas Pophale) SiO2 
 PCOD9573596
Probable space group: I 41/A C D
;
_chemical_formula_sum "Si O2"
_cell_formula_units_Z 176
_cell_length_a 17.674981
_cell_length_b 17.674981
_cell_length_c 28.832491
_cell_angle_alpha 90.000000
_cell_angle_beta 90.000000
_cell_angle_gamma 90.000000
_cell_volume 9007.413006
_symmetry_space_group_name_H-M "I 41/A C D"
_symmetry_group_IT_number 142
_space_group.IT_coordinate_system_code '2'
_symmetry_cell_setting 'tetragonal'
loop_
_space_group_symop_operation_xyz
x,y,z
1/4-y,3/4+x,1/4+z
-x,1/2-y,z
1/4+y,1/4-x,3/4+z
x,-y,1/2-z
1/2-x,y,-z
3/4+y,1/4+x,1/4-z
1/4-y,1/4-x,1/4-z
-x,-y,-z
3/4+y,1/4-x,3/4-z
x,1/2+y,-z
3/4-y,3/4+x,1/4-z
-x,y,1/2+z
1/2+x,-y,z
1/4-y,3/4-x,3/4+z
3/4+y,3/4+x,3/4+z
1/2+x,1/2+y,1/2+z
3/4-y,1/4+x,3/4+z
1/2-x,-y,1/2+z
3/4+y,3/4-x,1/4+z
1/2+x,1/2-y,-z
-x,1/2+y,1/2-z
1/4+y,3/4+x,3/4-z
3/4-y,3/4-x,3/4-z
1/2-x,1/2-y,1/2-z
1/4+y,3/4-x,1/4-z
1/2+x,y,1/2-z
1/4-y,1/4+x,3/4-z
1/2-x,1/2+y,z
x,1/2-y,1/2+z
3/4-y,1/4-x,1/4+z
1/4+y,1/4+x,1/4+z
loop_
_atom_site_type_symbol
_atom_site_label
_atom_site_fract_x
_atom_site_fract_y
_atom_site_fract_z
Si Si1 0.114911 0.014277 0.973069
Si Si2 0.022211 0.011556 0.332232
Si Si3 0.605962 0.430565 0.286458
Si Si4 0.750000 0.377682 0.000000
Si Si5 0.463116 0.166830 0.207348
Si Si6 0.201873 0.205928 0.817562
O O1 0.045141 0.047585 0.944404
O O2 0.146134 0.936728 0.951070
O O3 0.182577 0.071820 0.980587
O O4 0.084282 0.992238 0.024297
O O5 0.074687 0.975988 0.292575
O O6 0.055209 0.008541 0.383353
O O7 0.009524 0.099715 0.317619
O O8 0.942992 0.967275 0.327205
O O9 0.617949 0.500000 0.250000
O O10 0.559481 0.366768 0.257872
O O11 0.500000 0.250000 0.209657
O O12 0.383559 0.176373 0.180969
#
# Coordination Sequence:
#
# PCOD9573596 Si02
#       6
#    32  32  32  16  32  32
#     4  10  22  42  61  86 119 160 196 247 292 356
#     4  11  23  38  59  92 117 158 196 245 296 359
#     4   9  18  40  59  83 118 155 193 232 291 355
#     4  12  22  38  66  86 118 158 206 240 300 344
#     4  10  20  35  57  85 120 151 192 242 291 345
#     4  10  24  38  59  90 122 151 200 242 302 348
#
# _framework density 19.539460999999999
#
# number of rings (size 3 to 8) (size 9 to 14) (size 15 to 20)
#    0.000    1.818    3.636    1.091    5.091    1.455 
#    0.000    1.818    0.000    0.000    0.000    0.000 
#    0.000    0.000    0.000    0.000    0.000    0.000 
#
# Total GULP energy -491304.327996 kJ/mol
# GULP energy per Si atom -5583.003727 kJ/mol
# Density = 1.949499 g / cm^3
# Si number density = 19.539461 Si / 1000 Ang^3
#
#
#
# Elastic Constant Matrix: (Units=GPa)
#
#
# Indices 1 2 3 4 5 6 
#
# 1 58.7635 15.2967 5.2960 0.0000 0.0000 0.0000
# 2 15.2967 58.7635 5.2960 0.0000 0.0000 0.0000
# 3 5.2960 5.2960 49.0757 0.0000 0.0000 0.0000
# 4 0.0000 0.0000 0.0000 12.5277 0.0000 0.0000
# 5 0.0000 0.0000 0.0000 0.0000 12.5277 0.0000
# 6 0.0000 0.0000 0.0000 0.0000 0.0000 33.1303
#
#
#
# Elastic Compliance Matrix: (Units=1/GPa)
#
#
# Indices 1 2 3 4 5 6 
#
# 1 0.018360 -0.004646 -0.001480 0.000000 0.000000 0.000000
# 2 -0.004646 0.018360 -0.001480 0.000000 0.000000 0.000000
# 3 -0.001480 -0.001480 0.020696 0.000000 0.000000 0.000000
# 4 0.000000 0.000000 0.000000 0.079823 0.000000 0.000000
# 5 0.000000 0.000000 0.000000 0.000000 0.079823 0.000000
# 6 0.000000 0.000000 0.000000 0.000000 0.000000 0.030184
#
#
# Mechanical properties :
#
#
# Convention : Reuss Voigt Hill
#
# Bulk Modulus (GPa) = 23.69410 24.26446 23.97928
# Shear Modulus (GPa) = 18.08145 21.01807 19.54976
#
# Velocity S-wave (km/s) = 3.04531 3.28330 3.16654
# Velocity P-wave (km/s) = 4.95155 5.17867 5.06638
#
# Compressibility (1/GPa) = 0.04220461
#
# Stress axis : x y z
#
# Youngs Moduli (GPa) = 54.46581 54.46581 48.31829
#
# Poissons Ratio (x) = 0.25305 0.07151
# Poissons Ratio (y) = 0.25305 0.07151
# Poissons Ratio (z) = 0.08061 0.08061
#
# Static dielectric constant tensor:
#      x y z
#    x 1.687160 0.000000 0.000000 
#    y 0.000000 1.687160 0.000000 
#    z 0.000000 0.000000 1.666200 
# 
# From -- ./inp_files/11428.got.cif
#   From: 2010.05.17/outbox.cif.g08.bks.cpg/sg142_6_cif.got.tgz:11428.got - 2010.05.20 13:39:18.
