data_PCOD9573809
_publ_section_title
;
Structure prediction by ZEFSAII (Michael W. Deem and Ramdas Pophale) SiO2 
 PCOD9573809
Probable space group: I 41/A C D
;
_chemical_formula_sum "Si O2"
_cell_formula_units_Z 144
_cell_length_a 29.695244
_cell_length_b 29.695244
_cell_length_c 8.197051
_cell_angle_alpha 90.000000
_cell_angle_beta 90.000000
_cell_angle_gamma 90.000000
_cell_volume 7228.221183
_symmetry_space_group_name_H-M "I 41/A C D"
_symmetry_group_IT_number 142
_space_group.IT_coordinate_system_code '2'
_symmetry_cell_setting 'tetragonal'
loop_
_space_group_symop_operation_xyz
x,y,z
1/4-y,3/4+x,1/4+z
-x,1/2-y,z
1/4+y,1/4-x,3/4+z
x,-y,1/2-z
1/2-x,y,-z
3/4+y,1/4+x,1/4-z
1/4-y,1/4-x,1/4-z
-x,-y,-z
3/4+y,1/4-x,3/4-z
x,1/2+y,-z
3/4-y,3/4+x,1/4-z
-x,y,1/2+z
1/2+x,-y,z
1/4-y,3/4-x,3/4+z
3/4+y,3/4+x,3/4+z
1/2+x,1/2+y,1/2+z
3/4-y,1/4+x,3/4+z
1/2-x,-y,1/2+z
3/4+y,3/4-x,1/4+z
1/2+x,1/2-y,-z
-x,1/2+y,1/2-z
1/4+y,3/4+x,3/4-z
3/4-y,3/4-x,3/4-z
1/2-x,1/2-y,1/2-z
1/4+y,3/4-x,1/4-z
1/2+x,y,1/2-z
1/4-y,1/4+x,3/4-z
1/2-x,1/2+y,z
x,1/2-y,1/2+z
3/4-y,1/4-x,1/4+z
1/4+y,1/4+x,1/4+z
loop_
_atom_site_type_symbol
_atom_site_label
_atom_site_fract_x
_atom_site_fract_y
_atom_site_fract_z
Si Si1 0.631470 0.684899 0.545820
Si Si2 0.302535 0.899552 0.478411
Si Si3 0.067216 0.954108 0.816652
Si Si4 0.669733 0.254059 0.191379
Si Si5 0.841580 0.591580 0.875000
O O1 0.587830 0.662171 0.625000
O O2 0.666267 0.644366 0.507984
O O3 0.629774 0.715350 0.383692
O O4 0.651749 0.719480 0.675807
O O5 0.250000 0.888974 0.500000
O O6 0.316783 0.933218 0.625000
O O7 0.313408 0.916507 0.293054
O O8 0.028172 0.941692 0.691095
O O9 0.106731 0.917945 0.828035
O O10 0.088249 0.000000 0.750000
O O11 0.040247 0.955084 0.986379
#
# Coordination Sequence:
#
# PCOD9573809 Si02
#       5
#    32  32  32  32  16
#     4  10  21  41  64  94 132 169 213 270 336 406
#     4  11  26  45  66  94 131 178 226 280 333 399
#     4  11  23  39  63  97 130 167 217 272 332 395
#     4  10  22  37  65  98 123 169 213 276 335 391
#     4  12  26  42  70  96 135 186 216 272 346 408
#
# _framework density 19.921911999999999
#
# number of rings (size 3 to 8) (size 9 to 14) (size 15 to 20)
#    0.000    1.333    2.222    3.333    6.222    3.556 
#    2.000    0.000    0.000    2.000    0.000    0.000 
#    0.000    0.000    0.000    0.000    0.000    0.000 
#
# Total GULP energy -401380.654772 kJ/mol
# GULP energy per Si atom -5574.731316 kJ/mol
# Density = 1.987657 g / cm^3
# Si number density = 19.921912 Si / 1000 Ang^3
#
#
#
# Elastic Constant Matrix: (Units=GPa)
#
#
# Indices 1 2 3 4 5 6 
#
# 1 67.6963 36.1269 28.2083 0.0000 0.0000 0.0000
# 2 36.1269 67.6771 28.2008 0.0000 0.0000 0.0000
# 3 28.2083 28.2008 117.0547 0.0000 0.0000 0.0000
# 4 0.0000 0.0000 0.0000 35.6259 0.0000 0.0000
# 5 0.0000 0.0000 0.0000 0.0000 35.6262 0.0000
# 6 0.0000 0.0000 0.0000 0.0000 0.0000 15.7315
#
#
#
# Elastic Compliance Matrix: (Units=1/GPa)
#
#
# Indices 1 2 3 4 5 6 
#
# 1 0.021382 -0.010301 -0.002671 0.000000 0.000000 0.000000
# 2 -0.010301 0.021388 -0.002670 0.000000 0.000000 0.000000
# 3 -0.002671 -0.002670 0.009830 0.000000 0.000000 0.000000
# 4 0.000000 0.000000 0.000000 0.028069 0.000000 0.000000
# 5 0.000000 0.000000 0.000000 0.000000 0.028069 0.000000
# 6 0.000000 0.000000 0.000000 0.000000 0.000000 0.063567
#
#
# Mechanical properties :
#
#
# Convention : Reuss Voigt Hill
#
# Bulk Modulus (GPa) = 46.91537 48.61113 47.76325
# Shear Modulus (GPa) = 23.73101 28.05620 25.89361
#
# Velocity S-wave (km/s) = 3.45512 3.75682 3.60912
# Velocity P-wave (km/s) = 6.28633 6.57815 6.43389
#
# Compressibility (1/GPa) = 0.02131497
#
# Stress axis : x y z
#
# Youngs Moduli (GPa) = 46.76812 46.75616 101.72921
#
# Poissons Ratio (x) = 0.48164 0.27172
# Poissons Ratio (y) = 0.48176 0.27165
# Poissons Ratio (z) = 0.12492 0.12485
#
# Static dielectric constant tensor:
#      x y z
#    x 1.688730 0.000000 0.000000 
#    y 0.000000 1.688730 0.000000 
#    z 0.000000 0.000000 1.842490 
# 
# From -- ./inp_files/2146.got.cif
#   From: 2010.05.17/outbox.cif.g08.bks.cpg/sg142_2_cif.got.tgz:2146.got - 2010.05.20 13:39:18.
