data_PCOD9573800
_publ_section_title
;
Structure prediction by ZEFSAII (Michael W. Deem and Ramdas Pophale) SiO2 
 PCOD9573800
Probable space group: I 41/A C D
;
_chemical_formula_sum "Si O2"
_cell_formula_units_Z 72
_cell_length_a 13.347118
_cell_length_b 13.347118
_cell_length_c 18.448351
_cell_angle_alpha 90.000000
_cell_angle_beta 90.000000
_cell_angle_gamma 90.000000
_cell_volume 3286.491800
_symmetry_space_group_name_H-M "I 41/A C D"
_symmetry_group_IT_number 142
_space_group.IT_coordinate_system_code '2'
_symmetry_cell_setting 'tetragonal'
loop_
_space_group_symop_operation_xyz
x,y,z
1/4-y,3/4+x,1/4+z
-x,1/2-y,z
1/4+y,1/4-x,3/4+z
x,-y,1/2-z
1/2-x,y,-z
3/4+y,1/4+x,1/4-z
1/4-y,1/4-x,1/4-z
-x,-y,-z
3/4+y,1/4-x,3/4-z
x,1/2+y,-z
3/4-y,3/4+x,1/4-z
-x,y,1/2+z
1/2+x,-y,z
1/4-y,3/4-x,3/4+z
3/4+y,3/4+x,3/4+z
1/2+x,1/2+y,1/2+z
3/4-y,1/4+x,3/4+z
1/2-x,-y,1/2+z
3/4+y,3/4-x,1/4+z
1/2+x,1/2-y,-z
-x,1/2+y,1/2-z
1/4+y,3/4+x,3/4-z
3/4-y,3/4-x,3/4-z
1/2-x,1/2-y,1/2-z
1/4+y,3/4-x,1/4-z
1/2+x,y,1/2-z
1/4-y,1/4+x,3/4-z
1/2-x,1/2+y,z
x,1/2-y,1/2+z
3/4-y,1/4-x,1/4+z
1/4+y,1/4+x,1/4+z
loop_
_atom_site_type_symbol
_atom_site_label
_atom_site_fract_x
_atom_site_fract_y
_atom_site_fract_z
Si Si1 0.412875 0.611274 0.354804
Si Si2 0.078624 0.433187 0.540955
Si Si3 0.000000 0.750000 0.375000
O O1 0.372177 0.715400 0.390913
O O2 0.380981 0.512121 0.399232
O O3 0.371515 0.608578 0.272474
O O4 0.000000 0.500000 0.500000
O O5 0.010990 0.348242 0.577656
#
# Coordination Sequence:
#
# PCOD9573800 Si02
#       3
#    32  32   8
#     4   9  18  38  67  94 127 167 215 269 325 394
#     4  10  21  40  64  92 126 170 212 263 328 389
#     4  12  24  40  62  88 128 168 212 270 320 376
#
# _framework density 21.907859999999999
#
# number of rings (size 3 to 8) (size 9 to 14) (size 15 to 20)
#    0.000    2.222    0.000    5.333    0.000    1.778 
#    0.000   17.778    0.000    0.000    0.000    0.000 
#    0.000    0.000    0.000    0.000    0.000    0.000 
#
# Total GULP energy -200600.080548 kJ/mol
# GULP energy per Si atom -5572.224460 kJ/mol
# Density = 2.185800 g / cm^3
# Si number density = 21.907860 Si / 1000 Ang^3
#
#
#
# Elastic Constant Matrix: (Units=GPa)
#
#
# Indices 1 2 3 4 5 6 
#
# 1 161.6840 67.8958 98.9317 0.0000 0.0000 0.0000
# 2 67.8958 161.6841 98.9317 0.0000 0.0000 0.0000
# 3 98.9317 98.9317 190.3428 0.0000 0.0000 0.0000
# 4 0.0000 0.0000 0.0000 -339.2394 0.0000 0.0000
# 5 0.0000 0.0000 0.0000 0.0000 -339.2394 0.0000
# 6 0.0000 0.0000 0.0000 0.0000 0.0000 23.2551
#
#
#
# Elastic Compliance Matrix: (Units=1/GPa)
#
#
# Indices 1 2 3 4 5 6 
#
# 1 0.009276 -0.001386 -0.004101 0.000000 0.000000 0.000000
# 2 -0.001386 0.009276 -0.004101 0.000000 0.000000 0.000000
# 3 -0.004101 -0.004101 0.009517 0.000000 0.000000 0.000000
# 4 0.000000 0.000000 0.000000 -0.002948 0.000000 0.000000
# 5 0.000000 0.000000 0.000000 0.000000 -0.002948 0.000000
# 6 0.000000 0.000000 0.000000 0.000000 0.000000 0.043001
#
#
# Mechanical properties :
#
#
# Convention : Reuss Voigt Hill
#
# Bulk Modulus (GPa) = 112.44550 116.13657 114.29104
# Shear Modulus (GPa) = 57.26361 -114.51462 -28.62550
#
# Velocity S-wave (km/s) = 5.11812 -7.23771 -3.61866
# Velocity P-wave (km/s) = 9.29327 4.08895 5.90107
#
# Compressibility (1/GPa) = 0.00889320
#
# Stress axis : x y z
#
# Youngs Moduli (GPa) = 107.80202 107.80202 105.07851
#
# Poissons Ratio (x) = 0.14942 0.43092
# Poissons Ratio (y) = 0.14942 0.43092
# Poissons Ratio (z) = 0.44209 0.44209
#
# Static dielectric constant tensor:
#      x y z
#    x 1.798480 0.000000 0.000000 
#    y 0.000000 1.798480 0.000000 
#    z 0.000000 0.000000 1.931590 
# 
# From -- ./inp_files/6344.got.cif
#   From: 2010.05.17/outbox.cif.g08.bks.cpg/sg142_4_cif.got.tgz:6344.got - 2010.05.20 13:39:18.
