data_PCOD9573882
_publ_section_title
;
Structure prediction by ZEFSAII (Michael W. Deem and Ramdas Pophale) SiO2 
 PCOD9573882
Probable space group: I 41/A C D
;
_chemical_formula_sum "Si O2"
_cell_formula_units_Z 136
_cell_length_a 20.813048
_cell_length_b 20.813048
_cell_length_c 13.920706
_cell_angle_alpha 90.000000
_cell_angle_beta 90.000000
_cell_angle_gamma 90.000000
_cell_volume 6030.212729
_symmetry_space_group_name_H-M "I 41/A C D"
_symmetry_group_IT_number 142
_space_group.IT_coordinate_system_code '2'
_symmetry_cell_setting 'tetragonal'
loop_
_space_group_symop_operation_xyz
x,y,z
1/4-y,3/4+x,1/4+z
-x,1/2-y,z
1/4+y,1/4-x,3/4+z
x,-y,1/2-z
1/2-x,y,-z
3/4+y,1/4+x,1/4-z
1/4-y,1/4-x,1/4-z
-x,-y,-z
3/4+y,1/4-x,3/4-z
x,1/2+y,-z
3/4-y,3/4+x,1/4-z
-x,y,1/2+z
1/2+x,-y,z
1/4-y,3/4-x,3/4+z
3/4+y,3/4+x,3/4+z
1/2+x,1/2+y,1/2+z
3/4-y,1/4+x,3/4+z
1/2-x,-y,1/2+z
3/4+y,3/4-x,1/4+z
1/2+x,1/2-y,-z
-x,1/2+y,1/2-z
1/4+y,3/4+x,3/4-z
3/4-y,3/4-x,3/4-z
1/2-x,1/2-y,1/2-z
1/4+y,3/4-x,1/4-z
1/2+x,y,1/2-z
1/4-y,1/4+x,3/4-z
1/2-x,1/2+y,z
x,1/2-y,1/2+z
3/4-y,1/4-x,1/4+z
1/4+y,1/4+x,1/4+z
loop_
_atom_site_type_symbol
_atom_site_label
_atom_site_fract_x
_atom_site_fract_y
_atom_site_fract_z
Si Si1 0.397129 0.461747 0.481816
Si Si2 0.673964 0.911011 0.512470
Si Si3 0.500000 0.750000 0.875000
Si Si4 0.387477 0.660263 0.904181
Si Si5 0.001985 0.013387 0.356790
O O1 0.344037 0.516972 0.475469
O O2 0.373217 0.392623 0.514562
O O3 0.444694 0.485562 0.567427
O O4 0.443909 0.462700 0.390583
O O5 0.750000 0.904144 0.500000
O O6 0.656456 0.906456 0.625000
O O7 0.631043 0.863942 0.445621
O O8 0.453279 0.698197 0.925928
O O9 0.331257 0.711622 0.891722
O O10 0.980743 0.000000 0.250000
#
# Coordination Sequence:
#
# PCOD9573882 Si02
#       5
#    32  32   8  32  32
#     4  10  22  41  64  97 133 172 230 275 341 410
#     4  11  23  41  68 102 136 175 227 287 352 416
#     4  12  24  44  66  92 136 180 238 280 344 402
#     4  11  23  42  67  96 135 181 225 289 337 414
#     4  10  23  41  67  95 132 182 222 279 345 406
#
# _framework density 22.553101999999999
#
# number of rings (size 3 to 8) (size 9 to 14) (size 15 to 20)
#    0.000    1.412    4.706    0.000    3.294    1.882 
#    0.000    0.588    5.176    0.000    0.000    0.000 
#    0.000    0.000    0.000    0.000    0.000    0.000 
#
# Total GULP energy -380061.381580 kJ/mol
# GULP energy per Si atom -5589.137964 kJ/mol
# Density = 2.250177 g / cm^3
# Si number density = 22.553102 Si / 1000 Ang^3
#
#
#
# Elastic Constant Matrix: (Units=GPa)
#
#
# Indices 1 2 3 4 5 6 
#
# 1 101.5121 46.0275 23.6485 0.0000 0.0000 0.0000
# 2 46.0275 101.5121 23.6485 0.0000 0.0000 0.0000
# 3 23.6485 23.6485 76.4355 0.0000 0.0000 0.0000
# 4 0.0000 0.0000 0.0000 23.6481 0.0000 0.0000
# 5 0.0000 0.0000 0.0000 0.0000 23.6481 0.0000
# 6 0.0000 0.0000 0.0000 0.0000 0.0000 27.1281
#
#
#
# Elastic Compliance Matrix: (Units=1/GPa)
#
#
# Indices 1 2 3 4 5 6 
#
# 1 0.012774 -0.005249 -0.002328 0.000000 0.000000 0.000000
# 2 -0.005249 0.012774 -0.002328 0.000000 0.000000 0.000000
# 3 -0.002328 -0.002328 0.014523 0.000000 0.000000 0.000000
# 4 0.000000 0.000000 0.000000 0.042287 0.000000 0.000000
# 5 0.000000 0.000000 0.000000 0.000000 0.042287 0.000000
# 6 0.000000 0.000000 0.000000 0.000000 0.000000 0.036862
#
#
# Mechanical properties :
#
#
# Convention : Reuss Voigt Hill
#
# Bulk Modulus (GPa) = 49.35830 51.78984 50.57407
# Shear Modulus (GPa) = 26.58586 27.29387 26.93987
#
# Velocity S-wave (km/s) = 3.43711 3.48257 3.45992
# Velocity P-wave (km/s) = 6.13877 6.25975 6.19955
#
# Compressibility (1/GPa) = 0.02026002
#
# Stress axis : x y z
#
# Youngs Moduli (GPa) = 78.28671 78.28671 68.85442
#
# Poissons Ratio (x) = 0.41096 0.16029
# Poissons Ratio (y) = 0.41096 0.16029
# Poissons Ratio (z) = 0.18224 0.18224
#
# Static dielectric constant tensor:
#      x y z
#    x 1.857850 0.000000 0.000000 
#    y 0.000000 1.857850 0.000000 
#    z 0.000000 0.000000 1.842920 
# 
# From -- ./inp_files/5163.got.cif
#   From: 2010.05.17/outbox.cif.g08.bks.cpg/sg142_3_cif.got.tgz:5163.got - 2010.05.20 13:39:18.
