data_PCOD9573502
_publ_section_title
;
Structure prediction by ZEFSAII (Michael W. Deem and Ramdas Pophale) SiO2 
 PCOD9573502
Probable space group: I 41/A C D
;
_chemical_formula_sum "Si O2"
_cell_formula_units_Z 160
_cell_length_a 21.282899
_cell_length_b 21.282899
_cell_length_c 15.762514
_cell_angle_alpha 90.000000
_cell_angle_beta 90.000000
_cell_angle_gamma 90.000000
_cell_volume 7139.816554
_symmetry_space_group_name_H-M "I 41/A C D"
_symmetry_group_IT_number 142
_space_group.IT_coordinate_system_code '2'
_symmetry_cell_setting 'tetragonal'
loop_
_space_group_symop_operation_xyz
x,y,z
1/4-y,3/4+x,1/4+z
-x,1/2-y,z
1/4+y,1/4-x,3/4+z
x,-y,1/2-z
1/2-x,y,-z
3/4+y,1/4+x,1/4-z
1/4-y,1/4-x,1/4-z
-x,-y,-z
3/4+y,1/4-x,3/4-z
x,1/2+y,-z
3/4-y,3/4+x,1/4-z
-x,y,1/2+z
1/2+x,-y,z
1/4-y,3/4-x,3/4+z
3/4+y,3/4+x,3/4+z
1/2+x,1/2+y,1/2+z
3/4-y,1/4+x,3/4+z
1/2-x,-y,1/2+z
3/4+y,3/4-x,1/4+z
1/2+x,1/2-y,-z
-x,1/2+y,1/2-z
1/4+y,3/4+x,3/4-z
3/4-y,3/4-x,3/4-z
1/2-x,1/2-y,1/2-z
1/4+y,3/4-x,1/4-z
1/2+x,y,1/2-z
1/4-y,1/4+x,3/4-z
1/2-x,1/2+y,z
x,1/2-y,1/2+z
3/4-y,1/4-x,1/4+z
1/4+y,1/4+x,1/4+z
loop_
_atom_site_type_symbol
_atom_site_label
_atom_site_fract_x
_atom_site_fract_y
_atom_site_fract_z
Si Si1 0.508733 0.002990 0.849877
Si Si2 0.129620 0.701092 0.818854
Si Si3 0.869347 0.468562 0.963436
Si Si4 0.123855 0.065003 0.399675
Si Si5 0.050900 0.827900 0.607165
O O1 0.495351 0.073673 0.880765
O O2 0.521206 0.000000 0.750000
O O3 0.568086 0.979443 0.905193
O O4 0.442373 0.966469 0.869126
O O5 0.072740 0.677261 0.875000
O O6 0.169816 0.640369 0.787381
O O7 0.107849 0.726494 0.728320
O O8 0.813536 0.433809 0.913578
O O9 0.857601 0.533524 0.011843
O O10 0.110617 0.139452 0.397821
O O11 0.072676 0.758043 0.581674
#
# Coordination Sequence:
#
# PCOD9573502 Si02
#       5
#    32  32  32  32  32
#     4  11  21  37  64  94 124 161 206 257 312 374
#     4  10  20  35  59  91 117 154 209 257 304 367
#     4  10  21  37  62  90 123 163 205 259 314 372
#     4  10  19  36  60  90 120 162 210 255 308 371
#     4  10  19  33  55  85 124 165 203 256 315 370
#
# _framework density 22.40954
#
# number of rings (size 3 to 8) (size 9 to 14) (size 15 to 20)
#    0.000    1.800    0.000    8.400    0.000    0.000 
#    0.000    3.000    0.000   34.800    0.000    0.000 
#    0.000    0.000    0.000    0.000    0.000    0.000 
#
# Total GULP energy -446174.568532 kJ/mol
# GULP energy per Si atom -5577.182107 kJ/mol
# Density = 2.235854 g / cm^3
# Si number density = 22.409540 Si / 1000 Ang^3
#
#
#
# Elastic Constant Matrix: (Units=GPa)
#
#
# Indices 1 2 3 4 5 6 
#
# 1 55.1096 15.2113 38.0631 0.0000 0.0000 0.0000
# 2 15.2113 55.1089 38.0640 0.0000 0.0000 0.0000
# 3 38.0631 38.0640 134.2893 0.0000 0.0000 0.0000
# 4 0.0000 0.0000 0.0000 24.2474 0.0000 0.0000
# 5 0.0000 0.0000 0.0000 0.0000 24.2484 0.0000
# 6 0.0000 0.0000 0.0000 0.0000 0.0000 21.9131
#
#
#
# Elastic Compliance Matrix: (Units=1/GPa)
#
#
# Indices 1 2 3 4 5 6 
#
# 1 0.022790 -0.002274 -0.005815 0.000000 0.000000 0.000000
# 2 -0.002274 0.022790 -0.005815 0.000000 0.000000 0.000000
# 3 -0.005815 -0.005815 0.010743 0.000000 0.000000 0.000000
# 4 0.000000 0.000000 0.000000 0.041242 0.000000 0.000000
# 5 0.000000 0.000000 0.000000 0.000000 0.041240 0.000000
# 6 0.000000 0.000000 0.000000 0.000000 0.000000 0.045635
#
#
# Mechanical properties :
#
#
# Convention : Reuss Voigt Hill
#
# Bulk Modulus (GPa) = 35.06995 47.46496 41.26745
# Shear Modulus (GPa) = 22.54767 24.29308 23.42037
#
# Velocity S-wave (km/s) = 3.17545 3.29606 3.23632
# Velocity P-wave (km/s) = 5.39705 5.97596 5.69387
#
# Compressibility (1/GPa) = 0.02851444
#
# Stress axis : x y z
#
# Youngs Moduli (GPa) = 43.87967 43.87847 93.08271
#
# Poissons Ratio (x) = 0.09978 0.54127
# Poissons Ratio (y) = 0.09978 0.54130
# Poissons Ratio (z) = 0.25516 0.25517
#
# Static dielectric constant tensor:
#      x y z
#    x 1.912780 0.000000 0.000000 
#    y 0.000000 1.912780 0.000000 
#    z 0.000000 0.000000 1.823210 
# 
# From -- ./inp_files/5414.got.cif
#   From: 2010.05.17/outbox.cif.g08.bks.cpg/sg142_3_cif.got.tgz:5414.got - 2010.05.20 13:39:18.
