data_PCOD9573661
_publ_section_title
;
Structure prediction by ZEFSAII (Michael W. Deem and Ramdas Pophale) SiO2 
 PCOD9573661
Probable space group: I 41/A C D
;
_chemical_formula_sum "Si O2"
_cell_formula_units_Z 192
_cell_length_a 20.811885
_cell_length_b 20.811885
_cell_length_c 22.516021
_cell_angle_alpha 90.000000
_cell_angle_beta 90.000000
_cell_angle_gamma 90.000000
_cell_volume 9752.466787
_symmetry_space_group_name_H-M "I 41/A C D"
_symmetry_group_IT_number 142
_space_group.IT_coordinate_system_code '2'
_symmetry_cell_setting 'tetragonal'
loop_
_space_group_symop_operation_xyz
x,y,z
1/4-y,3/4+x,1/4+z
-x,1/2-y,z
1/4+y,1/4-x,3/4+z
x,-y,1/2-z
1/2-x,y,-z
3/4+y,1/4+x,1/4-z
1/4-y,1/4-x,1/4-z
-x,-y,-z
3/4+y,1/4-x,3/4-z
x,1/2+y,-z
3/4-y,3/4+x,1/4-z
-x,y,1/2+z
1/2+x,-y,z
1/4-y,3/4-x,3/4+z
3/4+y,3/4+x,3/4+z
1/2+x,1/2+y,1/2+z
3/4-y,1/4+x,3/4+z
1/2-x,-y,1/2+z
3/4+y,3/4-x,1/4+z
1/2+x,1/2-y,-z
-x,1/2+y,1/2-z
1/4+y,3/4+x,3/4-z
3/4-y,3/4-x,3/4-z
1/2-x,1/2-y,1/2-z
1/4+y,3/4-x,1/4-z
1/2+x,y,1/2-z
1/4-y,1/4+x,3/4-z
1/2-x,1/2+y,z
x,1/2-y,1/2+z
3/4-y,1/4-x,1/4+z
1/4+y,1/4+x,1/4+z
loop_
_atom_site_type_symbol
_atom_site_label
_atom_site_fract_x
_atom_site_fract_y
_atom_site_fract_z
Si Si1 0.720943 0.135732 0.371877
Si Si2 0.068769 0.582060 0.121595
Si Si3 0.432240 0.097714 0.672899
Si Si4 0.990597 0.933785 0.788193
Si Si5 0.923004 0.506442 0.990017
Si Si6 0.368917 0.927303 0.248587
O O1 0.676855 0.073146 0.375000
O O2 0.789048 0.132733 0.408065
O O3 0.687703 0.197967 0.403107
O O4 0.730143 0.146308 0.302237
O O5 0.087070 0.652120 0.099442
O O6 0.089556 0.533334 0.070157
O O7 0.103956 0.576380 0.184460
O O8 0.993809 0.576730 0.134891
O O9 0.454361 0.110058 0.740240
O O10 0.066903 0.923801 0.792916
O O11 0.985866 0.000000 0.750000
O O12 0.882668 0.572919 0.984684
O O13 0.000000 0.500000 0.000000
O O14 0.339679 0.000000 0.250000
#
# Coordination Sequence:
#
# PCOD9573661 Si02
#       6
#    32  32  32  32  32  32
#     4  11  21  38  61  92 126 160 207 248 312 372
#     4  11  21  40  62  90 128 160 210 257 311 369
#     4  10  20  38  62  90 121 168 203 254 308 365
#     4   8  18  37  62  84 120 168 206 241 305 378
#     4  12  24  40  63  95 129 162 202 268 322 363
#     4  10  22  40  62  91 122 167 213 252 314 379
#
# _framework density 19.687327
#
# number of rings (size 3 to 8) (size 9 to 14) (size 15 to 20)
#    0.000    1.667    3.333    2.000    0.000    2.333 
#    0.000    0.000    0.000    4.000    0.000    0.000 
#    0.000    0.000    0.000    0.000    0.000    0.000 
#
# Total GULP energy -534427.389641 kJ/mol
# GULP energy per Si atom -5566.951975 kJ/mol
# Density = 1.964252 g / cm^3
# Si number density = 19.687327 Si / 1000 Ang^3
#
#
#
# Elastic Constant Matrix: (Units=GPa)
#
#
# Indices 1 2 3 4 5 6 
#
# 1 37.3010 56.8473 3.2779 0.0000 0.0000 0.0000
# 2 56.8473 37.3017 3.2786 0.0000 0.0000 0.0000
# 3 3.2779 3.2786 40.1843 0.0000 0.0000 0.0000
# 4 0.0000 0.0000 0.0000 24.2548 0.0000 0.0000
# 5 0.0000 0.0000 0.0000 0.0000 24.2546 0.0000
# 6 0.0000 0.0000 0.0000 0.0000 0.0000 18.2781
#
#
#
# Elastic Compliance Matrix: (Units=1/GPa)
#
#
# Indices 1 2 3 4 5 6 
#
# 1 -0.020240 0.030922 -0.000872 0.000000 0.000000 0.000000
# 2 0.030922 -0.020240 -0.000871 0.000000 0.000000 0.000000
# 3 -0.000872 -0.000871 0.025028 0.000000 0.000000 0.000000
# 4 0.000000 0.000000 0.000000 0.041229 0.000000 0.000000
# 5 0.000000 0.000000 0.000000 0.000000 0.041229 0.000000
# 6 0.000000 0.000000 0.000000 0.000000 0.000000 0.054710
#
#
# Mechanical properties :
#
#
# Convention : Reuss Voigt Hill
#
# Bulk Modulus (GPa) = 23.30673 26.84384 25.07529
# Shear Modulus (GPa) = 64.38260 16.78306 40.58283
#
# Velocity S-wave (km/s) = 5.72482 2.92289 4.54515
# Velocity P-wave (km/s) = 7.45401 5.00557 6.34894
#
# Compressibility (1/GPa) = 0.04290606
#
# Stress axis : x y z
#
# Youngs Moduli (GPa) = -49.40753 -49.40831 39.95605
#
# Poissons Ratio (x) = 1.52780 0.03483
# Poissons Ratio (y) = 1.52777 0.03481
# Poissons Ratio (z) = -0.04307 -0.04304
#
# Static dielectric constant tensor:
#      x y z
#    x 1.749880 0.000000 0.000000 
#    y 0.000000 1.749880 0.000000 
#    z 0.000000 0.000000 1.748970 
# 
# From -- ./inp_files/10416.got.cif
#   From: 2010.05.17/outbox.cif.g08.bks.cpg/sg142_6_cif.got.tgz:10416.got - 2010.05.20 13:39:18.
