data_PCOD9573280
_publ_section_title
;
Structure prediction by ZEFSAII (Michael W. Deem and Ramdas Pophale) SiO2 
 PCOD9573280
Probable space group: I 41/A M D
;
_chemical_formula_sum "Si O2"
_cell_formula_units_Z 192
_cell_length_a 21.527896
_cell_length_b 21.527896
_cell_length_c 21.219387
_cell_angle_alpha 90.000000
_cell_angle_beta 90.000000
_cell_angle_gamma 90.000000
_cell_volume 9834.131402
_symmetry_space_group_name_H-M "I 41/A M D"
_symmetry_group_IT_number 141
_space_group.IT_coordinate_system_code '2'
_symmetry_cell_setting 'tetragonal'
loop_
_space_group_symop_operation_xyz
x,y,z
1/4-y,3/4+x,1/4+z
-x,1/2-y,z
1/4+y,1/4-x,3/4+z
x,-y,-z
-x,1/2+y,-z
1/4+y,3/4+x,1/4-z
1/4-y,1/4-x,3/4-z
-x,-y,-z
3/4+y,1/4-x,3/4-z
x,1/2+y,-z
3/4-y,3/4+x,1/4-z
-x,y,z
x,1/2-y,z
3/4-y,1/4-x,3/4+z
3/4+y,3/4+x,1/4+z
1/2+x,1/2+y,1/2+z
3/4-y,1/4+x,3/4+z
1/2-x,-y,1/2+z
3/4+y,3/4-x,1/4+z
1/2+x,1/2-y,1/2-z
1/2-x,y,1/2-z
3/4+y,1/4+x,3/4-z
3/4-y,3/4-x,1/4-z
1/2-x,1/2-y,1/2-z
1/4+y,3/4-x,1/4-z
1/2+x,y,1/2-z
1/4-y,1/4+x,3/4-z
1/2-x,1/2+y,1/2+z
1/2+x,-y,1/2+z
1/4-y,3/4-x,1/4+z
1/4+y,1/4+x,3/4+z
loop_
_atom_site_type_symbol
_atom_site_label
_atom_site_fract_x
_atom_site_fract_y
_atom_site_fract_z
Si Si1 0.929537 0.179451 0.667438
Si Si2 0.927581 0.000818 0.383628
Si Si3 0.380142 0.178386 0.185835
Si Si4 0.803075 0.984810 0.195443
Si Si5 0.427004 0.059800 0.751415
Si Si6 0.863743 0.880587 0.807403
O O1 0.920938 0.250000 0.687465
O O2 0.927782 0.130159 0.723415
O O3 0.878692 0.159030 0.616391
O O4 0.000000 0.174013 0.639576
O O5 0.907935 0.981096 0.313410
O O6 0.917448 0.942219 0.428687
O O7 0.000000 0.013368 0.377369
O O8 0.901551 0.063203 0.413593
O O9 0.422724 0.172724 0.125000
O O10 0.375402 0.250000 0.205445
O O11 0.400010 0.137151 0.244532
O O12 0.750000 0.974028 0.250000
O O13 0.777425 0.972576 0.125000
O O14 0.868296 0.947903 0.205688
O O15 0.827855 0.055211 0.197838
O O16 0.500000 0.044601 0.733804
#
# Coordination Sequence:
#
# PCOD9573280 Si02
#       6
#    32  32  32  32  32  32
#     4   9  18  35  61  89 115 148 194 247 300 360
#     4   9  17  32  54  77 101 137 188 238 283 341
#     4  11  22  33  47  71 106 149 192 236 289 346
#     4  12  25  40  61  90 124 161 203 256 312 367
#     4   9  19  38  61  84 113 148 190 242 300 365
#     4  11  21  34  55  79 110 149 194 242 295 357
#
# _framework density 19.52384
#
# number of rings (size 3 to 8) (size 9 to 14) (size 15 to 20)
#    0.000    1.833    0.000    7.000    0.000    4.167 
#    0.000    0.833    0.000    2.000    0.000    0.000 
#    0.000    0.000    0.000    0.000    0.000    0.000 
#
# Total GULP energy -535021.684239 kJ/mol
# GULP energy per Si atom -5573.142544 kJ/mol
# Density = 1.947940 g / cm^3
# Si number density = 19.523840 Si / 1000 Ang^3
#
#
#
# Elastic Constant Matrix: (Units=GPa)
#
#
# Indices 1 2 3 4 5 6 
#
# 1 59.4060 18.3489 26.8163 0.0000 0.0000 0.0000
# 2 18.3489 59.4056 26.8167 0.0000 0.0000 0.0000
# 3 26.8163 26.8167 85.0555 0.0000 0.0000 0.0000
# 4 0.0000 0.0000 0.0000 13.0447 0.0000 0.0000
# 5 0.0000 0.0000 0.0000 0.0000 13.0456 0.0000
# 6 0.0000 0.0000 0.0000 0.0000 0.0000 22.7900
#
#
#
# Elastic Compliance Matrix: (Units=1/GPa)
#
#
# Indices 1 2 3 4 5 6 
#
# 1 0.020396 -0.003961 -0.005182 0.000000 0.000000 0.000000
# 2 -0.003961 0.020396 -0.005182 0.000000 0.000000 0.000000
# 3 -0.005182 -0.005182 0.015024 0.000000 0.000000 0.000000
# 4 0.000000 0.000000 0.000000 0.076660 0.000000 0.000000
# 5 0.000000 0.000000 0.000000 0.000000 0.076654 0.000000
# 6 0.000000 0.000000 0.000000 0.000000 0.000000 0.043879
#
#
# Mechanical properties :
#
#
# Convention : Reuss Voigt Hill
#
# Bulk Modulus (GPa) = 36.80816 38.64789 37.72802
# Shear Modulus (GPa) = 17.19911 18.56840 17.88376
#
# Velocity S-wave (km/s) = 2.97126 3.08728 3.02983
# Velocity P-wave (km/s) = 5.53761 5.70496 5.62191
#
# Compressibility (1/GPa) = 0.02716789
#
# Stress axis : x y z
#
# Youngs Moduli (GPa) = 49.02994 49.02938 66.55817
#
# Poissons Ratio (x) = 0.19419 0.34488
# Poissons Ratio (y) = 0.19419 0.34489
# Poissons Ratio (z) = 0.25406 0.25406
#
# Static dielectric constant tensor:
#      x y z
#    x 1.717770 0.000000 0.000000 
#    y 0.000000 1.717770 0.000000 
#    z 0.000000 0.000000 1.722200 
# 
# From -- ./inp_files/11734.got.cif
#   From: 2010.05.17/outbox.cif.g08.bks.cpg/sg141_6_cif.got.tgz:11734.got - 2010.05.20 13:30:51.
