data_PCOD9573083
_publ_section_title
;
Structure prediction by ZEFSAII (Michael W. Deem and Ramdas Pophale) SiO2 
 PCOD9573083
Probable space group: I 41/A M D
;
_chemical_formula_sum "Si O2"
_cell_formula_units_Z 112
_cell_length_a 23.982241
_cell_length_b 23.982241
_cell_length_c 11.217362
_cell_angle_alpha 90.000000
_cell_angle_beta 90.000000
_cell_angle_gamma 90.000000
_cell_volume 6451.642011
_symmetry_space_group_name_H-M "I 41/A M D"
_symmetry_group_IT_number 141
_space_group.IT_coordinate_system_code '2'
_symmetry_cell_setting 'tetragonal'
loop_
_space_group_symop_operation_xyz
x,y,z
1/4-y,3/4+x,1/4+z
-x,1/2-y,z
1/4+y,1/4-x,3/4+z
x,-y,-z
-x,1/2+y,-z
1/4+y,3/4+x,1/4-z
1/4-y,1/4-x,3/4-z
-x,-y,-z
3/4+y,1/4-x,3/4-z
x,1/2+y,-z
3/4-y,3/4+x,1/4-z
-x,y,z
x,1/2-y,z
3/4-y,1/4-x,3/4+z
3/4+y,3/4+x,1/4+z
1/2+x,1/2+y,1/2+z
3/4-y,1/4+x,3/4+z
1/2-x,-y,1/2+z
3/4+y,3/4-x,1/4+z
1/2+x,1/2-y,1/2-z
1/2-x,y,1/2-z
3/4+y,1/4+x,3/4-z
3/4-y,3/4-x,1/4-z
1/2-x,1/2-y,1/2-z
1/4+y,3/4-x,1/4-z
1/2+x,y,1/2-z
1/4-y,1/4+x,3/4-z
1/2-x,1/2+y,1/2+z
1/2+x,-y,1/2+z
1/4-y,3/4-x,1/4+z
1/4+y,1/4+x,3/4+z
loop_
_atom_site_type_symbol
_atom_site_label
_atom_site_fract_x
_atom_site_fract_y
_atom_site_fract_z
Si Si1 0.500000 0.622986 0.578584
Si Si2 0.000000 0.933718 0.160375
Si Si3 0.810598 0.636963 0.707028
Si Si4 0.563392 0.135410 0.836085
Si Si5 0.298746 0.750000 0.945742
O O1 0.500000 0.573676 0.480553
O O2 0.444581 0.659234 0.561443
O O3 0.500000 0.599706 0.712257
O O4 0.052566 0.900236 0.216558
O O5 0.000000 0.993523 0.222392
O O6 0.842923 0.592923 0.625000
O O7 0.750000 0.617059 0.750000
O O8 0.849730 0.651903 0.819320
O O9 0.800565 0.694748 0.634953
O O10 0.500000 0.143227 0.884584
#
# Coordination Sequence:
#
# PCOD9573083 Si02
#       5
#    16  16  32  32  16
#     4  12  22  35  56  94 120 162 193 238 302 350
#     4  10  22  38  56  82 126 165 196 233 287 380
#     4  12  22  41  67  86 117 157 202 254 307 354
#     4  10  21  36  60  87 124 158 189 239 299 366
#     4  12  21  37  64  90 114 154 207 245 299 356
#
# _framework density 17.359922000000001
#
# number of rings (size 3 to 8) (size 9 to 14) (size 15 to 20)
#    0.857    0.000    7.143    2.143    0.000    0.000 
#    2.571    0.000    6.286    0.000    0.000    0.000 
#    0.000    0.000    0.000    0.000    0.000    0.000 
#
# Total GULP energy -312351.737924 kJ/mol
# GULP energy per Si atom -5577.709606 kJ/mol
# Density = 1.732041 g / cm^3
# Si number density = 17.359922 Si / 1000 Ang^3
#
#
#
# Elastic Constant Matrix: (Units=GPa)
#
#
# Indices 1 2 3 4 5 6 
#
# 1 86.1895 30.2997 16.8310 0.0000 0.0000 0.0000
# 2 30.2997 86.1895 16.8310 0.0000 0.0000 0.0000
# 3 16.8310 16.8310 70.3238 0.0000 0.0000 0.0000
# 4 0.0000 0.0000 0.0000 26.5238 0.0000 0.0000
# 5 0.0000 0.0000 0.0000 0.0000 26.5238 0.0000
# 6 0.0000 0.0000 0.0000 0.0000 0.0000 11.3024
#
#
#
# Elastic Compliance Matrix: (Units=1/GPa)
#
#
# Indices 1 2 3 4 5 6 
#
# 1 0.013557 -0.004335 -0.002207 0.000000 0.000000 0.000000
# 2 -0.004335 0.013557 -0.002207 0.000000 0.000000 0.000000
# 3 -0.002207 -0.002207 0.015276 0.000000 0.000000 0.000000
# 4 0.000000 0.000000 0.000000 0.037702 0.000000 0.000000
# 5 0.000000 0.000000 0.000000 0.000000 0.037702 0.000000
# 6 0.000000 0.000000 0.000000 0.000000 0.000000 0.088477
#
#
# Mechanical properties :
#
#
# Convention : Reuss Voigt Hill
#
# Bulk Modulus (GPa) = 40.17327 41.18071 40.67699
# Shear Modulus (GPa) = 21.54537 24.78607 23.16572
#
# Velocity S-wave (km/s) = 3.52674 3.78269 3.65696
# Velocity P-wave (km/s) = 6.30678 6.54611 6.42756
#
# Compressibility (1/GPa) = 0.02489217
#
# Stress axis : x y z
#
# Youngs Moduli (GPa) = 73.76084 73.76084 65.46007
#
# Poissons Ratio (x) = 0.31975 0.14449
# Poissons Ratio (y) = 0.31975 0.14449
# Poissons Ratio (z) = 0.16281 0.16281
#
# Static dielectric constant tensor:
#      x y z
#    x 1.575760 0.000000 0.000000 
#    y 0.000000 1.575760 0.000000 
#    z 0.000000 0.000000 1.581760 
# 
# From -- ./inp_files/4493.got.cif
#   From: 2010.05.17/outbox.cif.g08.bks.cpg/sg141_3_cif.got.tgz:4493.got - 2010.05.20 13:30:51.
