data_PCOD9573948
_publ_section_title
;
Structure prediction by ZEFSAII (Michael W. Deem and Ramdas Pophale) SiO2 
 PCOD9573948
Probable space group: I 41/A C D
;
_chemical_formula_sum "Si O2"
_cell_formula_units_Z 64
_cell_length_a 14.113444
_cell_length_b 14.113444
_cell_length_c 12.772996
_cell_angle_alpha 90.000000
_cell_angle_beta 90.000000
_cell_angle_gamma 90.000000
_cell_volume 2544.244152
_symmetry_space_group_name_H-M "I 41/A C D"
_symmetry_group_IT_number 142
_space_group.IT_coordinate_system_code '2'
_symmetry_cell_setting 'tetragonal'
loop_
_space_group_symop_operation_xyz
x,y,z
1/4-y,3/4+x,1/4+z
-x,1/2-y,z
1/4+y,1/4-x,3/4+z
x,-y,1/2-z
1/2-x,y,-z
3/4+y,1/4+x,1/4-z
1/4-y,1/4-x,1/4-z
-x,-y,-z
3/4+y,1/4-x,3/4-z
x,1/2+y,-z
3/4-y,3/4+x,1/4-z
-x,y,1/2+z
1/2+x,-y,z
1/4-y,3/4-x,3/4+z
3/4+y,3/4+x,3/4+z
1/2+x,1/2+y,1/2+z
3/4-y,1/4+x,3/4+z
1/2-x,-y,1/2+z
3/4+y,3/4-x,1/4+z
1/2+x,1/2-y,-z
-x,1/2+y,1/2-z
1/4+y,3/4+x,3/4-z
3/4-y,3/4-x,3/4-z
1/2-x,1/2-y,1/2-z
1/4+y,3/4-x,1/4-z
1/2+x,y,1/2-z
1/4-y,1/4+x,3/4-z
1/2-x,1/2+y,z
x,1/2-y,1/2+z
3/4-y,1/4-x,1/4+z
1/4+y,1/4+x,1/4+z
loop_
_atom_site_type_symbol
_atom_site_label
_atom_site_fract_x
_atom_site_fract_y
_atom_site_fract_z
Si Si1 0.106634 0.785736 0.773544
Si Si2 0.248598 0.357533 0.379792
O O1 0.103127 0.853127 0.875000
O O2 0.148805 0.837988 0.673690
O O3 0.174982 0.699841 0.809267
O O4 0.000000 0.750000 0.757800
O O5 0.250000 0.325258 0.500000
O O6 0.284760 0.465241 0.375000
#
# Coordination Sequence:
#
# PCOD9573948 Si02
#       2
#    32  32
#     4  10  22  47  76 112 152 214 265 333 419 491
#     4  11  25  44  71 117 156 199 273 330 408 508
#
# _framework density 25.154819
#
# number of rings (size 3 to 8) (size 9 to 14) (size 15 to 20)
#    0.000    1.500    5.000    0.000    0.000   12.000 
#    0.000    0.000    0.000    0.000    0.000    0.000 
#    0.000    0.000    0.000    0.000    0.000    0.000 
#
# Total GULP energy -179417.638118 kJ/mol
# GULP energy per Si atom -5606.801191 kJ/mol
# Density = 2.509757 g / cm^3
# Si number density = 25.154819 Si / 1000 Ang^3
#
#
#
# Elastic Constant Matrix: (Units=GPa)
#
#
# Indices 1 2 3 4 5 6 
#
# 1 113.0545 42.4269 65.9313 0.0000 0.0000 0.0000
# 2 42.4269 113.0519 65.9316 0.0000 0.0000 0.0000
# 3 65.9313 65.9316 219.9415 0.0000 0.0000 0.0000
# 4 0.0000 0.0000 0.0000 42.3360 0.0000 0.0000
# 5 0.0000 0.0000 0.0000 0.0000 42.3369 0.0000
# 6 0.0000 0.0000 0.0000 0.0000 0.0000 25.3799
#
#
#
# Elastic Compliance Matrix: (Units=1/GPa)
#
#
# Indices 1 2 3 4 5 6 
#
# 1 0.011391 -0.002767 -0.002585 0.000000 0.000000 0.000000
# 2 -0.002767 0.011392 -0.002585 0.000000 0.000000 0.000000
# 3 -0.002585 -0.002585 0.006097 0.000000 0.000000 0.000000
# 4 0.000000 0.000000 0.000000 0.023621 0.000000 0.000000
# 5 0.000000 0.000000 0.000000 0.000000 0.023620 0.000000
# 6 0.000000 0.000000 0.000000 0.000000 0.000000 0.039401
#
#
# Mechanical properties :
#
#
# Convention : Reuss Voigt Hill
#
# Bulk Modulus (GPa) = 76.89910 88.29193 82.59552
# Shear Modulus (GPa) = 36.83719 40.12777 38.48248
#
# Velocity S-wave (km/s) = 3.83092 3.99837 3.91554
# Velocity P-wave (km/s) = 7.08553 7.51609 7.30398
#
# Compressibility (1/GPa) = 0.01300405
#
# Stress axis : x y z
#
# Youngs Moduli (GPa) = 87.78488 87.78230 164.02500
#
# Poissons Ratio (x) = 0.24293 0.42404
# Poissons Ratio (y) = 0.24293 0.42406
# Poissons Ratio (z) = 0.22694 0.22695
#
# Static dielectric constant tensor:
#      x y z
#    x 2.011740 0.000000 0.000000 
#    y 0.000000 2.011750 0.000000 
#    z 0.000000 0.000000 1.997360 
# 
# From -- ./inp_files/2853.got.cif
#   From: 2010.05.17/outbox.cif.g08.bks.cpg/sg142_2_cif.got.tgz:2853.got - 2010.05.20 13:39:18.
