data_PCOD9573088
_publ_section_title
;
Structure prediction by ZEFSAII (Michael W. Deem and Ramdas Pophale) SiO2 
 PCOD9573088
Probable space group: I 41/A M D
;
_chemical_formula_sum "Si O2"
_cell_formula_units_Z 128
_cell_length_a 15.943095
_cell_length_b 15.943095
_cell_length_c 27.478560
_cell_angle_alpha 90.000000
_cell_angle_beta 90.000000
_cell_angle_gamma 90.000000
_cell_volume 6984.562982
_symmetry_space_group_name_H-M "I 41/A M D"
_symmetry_group_IT_number 141
_space_group.IT_coordinate_system_code '2'
_symmetry_cell_setting 'tetragonal'
loop_
_space_group_symop_operation_xyz
x,y,z
1/4-y,3/4+x,1/4+z
-x,1/2-y,z
1/4+y,1/4-x,3/4+z
x,-y,-z
-x,1/2+y,-z
1/4+y,3/4+x,1/4-z
1/4-y,1/4-x,3/4-z
-x,-y,-z
3/4+y,1/4-x,3/4-z
x,1/2+y,-z
3/4-y,3/4+x,1/4-z
-x,y,z
x,1/2-y,z
3/4-y,1/4-x,3/4+z
3/4+y,3/4+x,1/4+z
1/2+x,1/2+y,1/2+z
3/4-y,1/4+x,3/4+z
1/2-x,-y,1/2+z
3/4+y,3/4-x,1/4+z
1/2+x,1/2-y,1/2-z
1/2-x,y,1/2-z
3/4+y,1/4+x,3/4-z
3/4-y,3/4-x,1/4-z
1/2-x,1/2-y,1/2-z
1/4+y,3/4-x,1/4-z
1/2+x,y,1/2-z
1/4-y,1/4+x,3/4-z
1/2-x,1/2+y,1/2+z
1/2+x,-y,1/2+z
1/4-y,3/4-x,1/4+z
1/4+y,1/4+x,3/4+z
loop_
_atom_site_type_symbol
_atom_site_label
_atom_site_fract_x
_atom_site_fract_y
_atom_site_fract_z
Si Si1 0.808969 0.157272 0.798082
Si Si2 0.100576 0.654704 0.810768
Si Si3 0.193023 0.070997 0.102920
Si Si4 0.741764 0.150740 0.500237
O O1 0.845174 0.250000 0.805729
O O2 0.750000 0.161265 0.750000
O O3 0.747882 0.128598 0.841139
O O4 0.872699 0.082309 0.786746
O O5 0.115552 0.750000 0.793798
O O6 0.152908 0.636250 0.859584
O O7 0.124754 0.581513 0.772778
O O8 0.000000 0.646671 0.819979
O O9 0.221727 0.109959 0.051756
O O10 0.271430 0.021430 0.125000
O O11 0.741600 0.250000 0.494790
#
# Coordination Sequence:
#
# PCOD9573088 Si02
#       4
#    32  32  32  32
#     4   9  18  33  55  81 111 146 183 233 298 353
#     4  10  21  38  60  86 117 158 203 246 297 358
#     4  11  20  35  58  84 116 154 198 247 296 358
#     4  10  21  37  56  84 118 152 197 252 302 354
#
# _framework density 18.326129999999999
#
# number of rings (size 3 to 8) (size 9 to 14) (size 15 to 20)
#    0.000    2.000    2.500    1.500    0.000    1.500 
#    0.000    3.750    0.000    0.000    0.000    0.000 
#    0.000    0.000    0.000    0.000    0.000    0.000 
#
# Total GULP energy -357008.355724 kJ/mol
# GULP energy per Si atom -5578.255558 kJ/mol
# Density = 1.828442 g / cm^3
# Si number density = 18.326130 Si / 1000 Ang^3
#
#
#
# Elastic Constant Matrix: (Units=GPa)
#
#
# Indices 1 2 3 4 5 6 
#
# 1 107.8185 43.0151 40.5913 0.0000 0.0000 0.0000
# 2 43.0151 107.8185 40.5913 0.0000 0.0000 0.0000
# 3 40.5913 40.5913 63.3926 0.0000 0.0000 0.0000
# 4 0.0000 0.0000 0.0000 22.9306 0.0000 0.0000
# 5 0.0000 0.0000 0.0000 0.0000 22.9306 0.0000
# 6 0.0000 0.0000 0.0000 0.0000 0.0000 28.6968
#
#
#
# Elastic Compliance Matrix: (Units=1/GPa)
#
#
# Indices 1 2 3 4 5 6 
#
# 1 0.012774 -0.002658 -0.006478 0.000000 0.000000 0.000000
# 2 -0.002658 0.012774 -0.006478 0.000000 0.000000 0.000000
# 3 -0.006478 -0.006478 0.024070 0.000000 0.000000 0.000000
# 4 0.000000 0.000000 0.000000 0.043610 0.000000 0.000000
# 5 0.000000 0.000000 0.000000 0.000000 0.043610 0.000000
# 6 0.000000 0.000000 0.000000 0.000000 0.000000 0.034847
#
#
# Mechanical properties :
#
#
# Convention : Reuss Voigt Hill
#
# Bulk Modulus (GPa) = 54.37077 58.60278 56.48677
# Shear Modulus (GPa) = 23.91883 25.23374 24.57628
#
# Velocity S-wave (km/s) = 3.61664 3.71472 3.66601
# Velocity P-wave (km/s) = 6.86826 7.10254 6.98638
#
# Compressibility (1/GPa) = 0.01839224
#
# Stress axis : x y z
#
# Youngs Moduli (GPa) = 78.28559 78.28559 41.54540
#
# Poissons Ratio (x) = 0.20805 0.26911
# Poissons Ratio (y) = 0.20805 0.26911
# Poissons Ratio (z) = 0.50710 0.50710
#
# Static dielectric constant tensor:
#      x y z
#    x 1.634080 0.000000 0.000000 
#    y 0.000000 1.634080 0.000000 
#    z 0.000000 0.000000 1.648090 
# 
# From -- ./inp_files/11343.got.cif
#   From: 2010.05.17/outbox.cif.g08.bks.cpg/sg141_6_cif.got.tgz:11343.got - 2010.05.20 13:30:51.
