data_PCOD9573910
_publ_section_title
;
Structure prediction by ZEFSAII (Michael W. Deem and Ramdas Pophale) SiO2 
 PCOD9573910
Probable space group: I 41/A C D
;
_chemical_formula_sum "Si O2"
_cell_formula_units_Z 112
_cell_length_a 18.130264
_cell_length_b 18.130264
_cell_length_c 16.174883
_cell_angle_alpha 90.000000
_cell_angle_beta 90.000000
_cell_angle_gamma 90.000000
_cell_volume 5316.788737
_symmetry_space_group_name_H-M "I 41/A C D"
_symmetry_group_IT_number 142
_space_group.IT_coordinate_system_code '2'
_symmetry_cell_setting 'tetragonal'
loop_
_space_group_symop_operation_xyz
x,y,z
1/4-y,3/4+x,1/4+z
-x,1/2-y,z
1/4+y,1/4-x,3/4+z
x,-y,1/2-z
1/2-x,y,-z
3/4+y,1/4+x,1/4-z
1/4-y,1/4-x,1/4-z
-x,-y,-z
3/4+y,1/4-x,3/4-z
x,1/2+y,-z
3/4-y,3/4+x,1/4-z
-x,y,1/2+z
1/2+x,-y,z
1/4-y,3/4-x,3/4+z
3/4+y,3/4+x,3/4+z
1/2+x,1/2+y,1/2+z
3/4-y,1/4+x,3/4+z
1/2-x,-y,1/2+z
3/4+y,3/4-x,1/4+z
1/2+x,1/2-y,-z
-x,1/2+y,1/2-z
1/4+y,3/4+x,3/4-z
3/4-y,3/4-x,3/4-z
1/2-x,1/2-y,1/2-z
1/4+y,3/4-x,1/4-z
1/2+x,y,1/2-z
1/4-y,1/4+x,3/4-z
1/2-x,1/2+y,z
x,1/2-y,1/2+z
3/4-y,1/4-x,1/4+z
1/4+y,1/4+x,1/4+z
loop_
_atom_site_type_symbol
_atom_site_label
_atom_site_fract_x
_atom_site_fract_y
_atom_site_fract_z
Si Si1 0.858973 0.382567 0.897619
Si Si2 0.393802 0.643802 0.625000
Si Si3 0.589473 0.011024 0.003215
Si Si4 0.013413 0.912639 0.734089
O O1 0.786013 0.367012 0.843492
O O2 0.864146 0.442459 0.969414
O O3 0.919914 0.407168 0.831105
O O4 0.875368 0.305407 0.940866
O O5 0.326168 0.642991 0.688675
O O6 0.380309 0.714475 0.567431
O O7 0.500000 0.000000 0.000000
O O8 0.000123 0.000000 0.750000
#
# Coordination Sequence:
#
# PCOD9573910 Si02
#       4
#    32  16  32  32
#     4  11  23  43  76  94 149 188 235 298 368 408
#     4  10  22  42  73  94 142 182 232 297 362 404
#     4  11  22  45  69 106 141 184 239 303 345 427
#     4  11  22  45  68 104 139 184 234 304 347 431
#
# _framework density 21.065348
#
# number of rings (size 3 to 8) (size 9 to 14) (size 15 to 20)
#    0.000    1.143    5.714    0.000    0.000    0.571 
#    5.143    5.714    0.000    0.000    0.000    0.000 
#    0.000    0.000    0.000    0.000    0.000    0.000 
#
# Total GULP energy -312639.675439 kJ/mol
# GULP energy per Si atom -5582.851347 kJ/mol
# Density = 2.101740 g / cm^3
# Si number density = 21.065348 Si / 1000 Ang^3
#
#
#
# Elastic Constant Matrix: (Units=GPa)
#
#
# Indices 1 2 3 4 5 6 
#
# 1 59.8425 18.5665 26.1861 0.0000 0.0000 0.0000
# 2 18.5665 59.8425 26.1861 0.0000 0.0000 0.0000
# 3 26.1861 26.1861 80.3469 0.0000 0.0000 0.0000
# 4 0.0000 0.0000 0.0000 32.0535 0.0000 0.0000
# 5 0.0000 0.0000 0.0000 0.0000 32.0535 0.0000
# 6 0.0000 0.0000 0.0000 0.0000 0.0000 37.4883
#
#
#
# Elastic Compliance Matrix: (Units=1/GPa)
#
#
# Indices 1 2 3 4 5 6 
#
# 1 0.020265 -0.003962 -0.005313 0.000000 0.000000 0.000000
# 2 -0.003962 0.020265 -0.005313 0.000000 0.000000 0.000000
# 3 -0.005313 -0.005313 0.015909 0.000000 0.000000 0.000000
# 4 0.000000 0.000000 0.000000 0.031198 0.000000 0.000000
# 5 0.000000 0.000000 0.000000 0.000000 0.031198 0.000000
# 6 0.000000 0.000000 0.000000 0.000000 0.000000 0.026675
#
#
# Mechanical properties :
#
#
# Convention : Reuss Voigt Hill
#
# Bulk Modulus (GPa) = 36.68170 37.98991 37.33580
# Shear Modulus (GPa) = 27.20731 28.92530 28.06631
#
# Velocity S-wave (km/s) = 3.59774 3.70959 3.65409
# Velocity P-wave (km/s) = 5.89147 6.03502 5.96368
#
# Compressibility (1/GPa) = 0.02726155
#
# Stress axis : x y z
#
# Youngs Moduli (GPa) = 49.34656 49.34656 62.85636
#
# Poissons Ratio (x) = 0.19553 0.33397
# Poissons Ratio (y) = 0.19553 0.33397
# Poissons Ratio (z) = 0.26219 0.26219
#
# Static dielectric constant tensor:
#      x y z
#    x 1.754110 0.000000 0.000000 
#    y 0.000000 1.754110 0.000000 
#    z 0.000000 0.000000 1.779220 
# 
# From -- ./inp_files/6831.got.cif
#   From: 2010.05.17/outbox.cif.g08.bks.cpg/sg142_4_cif.got.tgz:6831.got - 2010.05.20 13:39:18.
