data_PCOD9573326
_publ_section_title
;
Structure prediction by ZEFSAII (Michael W. Deem and Ramdas Pophale) SiO2 
 PCOD9573326
Probable space group: I 41/A M D
;
_chemical_formula_sum "Si O2"
_cell_formula_units_Z 96
_cell_length_a 13.935204
_cell_length_b 13.935204
_cell_length_c 19.777293
_cell_angle_alpha 90.000000
_cell_angle_beta 90.000000
_cell_angle_gamma 90.000000
_cell_volume 3840.550758
_symmetry_space_group_name_H-M "I 41/A M D"
_symmetry_group_IT_number 141
_space_group.IT_coordinate_system_code '2'
_symmetry_cell_setting 'tetragonal'
loop_
_space_group_symop_operation_xyz
x,y,z
1/4-y,3/4+x,1/4+z
-x,1/2-y,z
1/4+y,1/4-x,3/4+z
x,-y,-z
-x,1/2+y,-z
1/4+y,3/4+x,1/4-z
1/4-y,1/4-x,3/4-z
-x,-y,-z
3/4+y,1/4-x,3/4-z
x,1/2+y,-z
3/4-y,3/4+x,1/4-z
-x,y,z
x,1/2-y,z
3/4-y,1/4-x,3/4+z
3/4+y,3/4+x,1/4+z
1/2+x,1/2+y,1/2+z
3/4-y,1/4+x,3/4+z
1/2-x,-y,1/2+z
3/4+y,3/4-x,1/4+z
1/2+x,1/2-y,1/2-z
1/2-x,y,1/2-z
3/4+y,1/4+x,3/4-z
3/4-y,3/4-x,1/4-z
1/2-x,1/2-y,1/2-z
1/4+y,3/4-x,1/4-z
1/2+x,y,1/2-z
1/4-y,1/4+x,3/4-z
1/2-x,1/2+y,1/2+z
1/2+x,-y,1/2+z
1/4-y,3/4-x,1/4+z
1/4+y,1/4+x,3/4+z
loop_
_atom_site_type_symbol
_atom_site_label
_atom_site_fract_x
_atom_site_fract_y
_atom_site_fract_z
Si Si1 0.884698 0.750000 0.305261
Si Si2 0.855313 0.250000 0.219760
Si Si3 0.728831 0.250000 0.411741
Si Si4 0.750000 0.415718 0.750000
Si Si5 0.787967 0.537967 0.625000
Si Si6 0.500000 0.089147 0.285996
O O1 0.836743 0.655626 0.270699
O O2 0.841236 0.750000 0.382659
O O3 0.000000 0.750000 0.293809
O O4 0.750000 0.250000 0.250000
O O5 0.863077 0.250000 0.137506
O O6 0.910766 0.154012 0.239076
O O7 0.773209 0.349438 0.385576
O O8 0.742647 0.250000 0.492269
O O9 0.734878 0.488074 0.687918
#
# Coordination Sequence:
#
# PCOD9573326 Si02
#       6
#    16  16  16  16  16  16
#     4  11  25  58  90 118 162 231 279 356 427 499
#     4  11  23  43  73 108 161 215 263 331 410 494
#     4  12  28  46  78 117 171 221 271 331 433 503
#     4  11  30  53  82 126 168 213 302 341 430 508
#     4  12  30  51  81 128 170 226 274 358 426 518
#     4  11  25  46  74 114 154 210 279 329 408 511
#
# _framework density 24.996417000000001
#
# number of rings (size 3 to 8) (size 9 to 14) (size 15 to 20)
#    0.000    0.667    1.667    4.000   14.000    1.667 
#    6.000    1.667    0.000    0.000    0.000    0.000 
#    0.000    0.000    0.000    0.000    0.000    0.000 
#
# Total GULP energy -268356.999142 kJ/mol
# GULP energy per Si atom -5590.770815 kJ/mol
# Density = 2.493952 g / cm^3
# Si number density = 24.996417 Si / 1000 Ang^3
#
#
#
# Elastic Constant Matrix: (Units=GPa)
#
#
# Indices 1 2 3 4 5 6 
#
# 1 150.7349 49.7203 63.5167 0.0000 0.0000 0.0000
# 2 49.7203 150.7349 63.5167 0.0000 0.0000 0.0000
# 3 63.5167 63.5167 199.6150 0.0000 0.0000 0.0000
# 4 0.0000 0.0000 0.0000 40.3253 0.0000 0.0000
# 5 0.0000 0.0000 0.0000 0.0000 40.3253 0.0000
# 6 0.0000 0.0000 0.0000 0.0000 0.0000 10.3412
#
#
#
# Elastic Compliance Matrix: (Units=1/GPa)
#
#
# Indices 1 2 3 4 5 6 
#
# 1 0.008074 -0.001825 -0.001988 0.000000 0.000000 0.000000
# 2 -0.001825 0.008074 -0.001988 0.000000 0.000000 0.000000
# 3 -0.001988 -0.001988 0.006275 0.000000 0.000000 0.000000
# 4 0.000000 0.000000 0.000000 0.024798 0.000000 0.000000
# 5 0.000000 0.000000 0.000000 0.000000 0.024798 0.000000
# 6 0.000000 0.000000 0.000000 0.000000 0.000000 0.096700
#
#
# Mechanical properties :
#
#
# Convention : Reuss Voigt Hill
#
# Bulk Modulus (GPa) = 92.42889 94.95470 93.69179
# Shear Modulus (GPa) = 27.18414 39.82045 33.50230
#
# Velocity S-wave (km/s) = 3.30134 3.99563 3.66496
# Velocity P-wave (km/s) = 7.18254 7.70432 7.44800
#
# Compressibility (1/GPa) = 0.01081913
#
# Stress axis : x y z
#
# Youngs Moduli (GPa) = 123.85252 123.85252 159.36294
#
# Poissons Ratio (x) = 0.22608 0.31686
# Poissons Ratio (y) = 0.22608 0.31686
# Poissons Ratio (z) = 0.24626 0.24626
#
# Static dielectric constant tensor:
#      x y z
#    x 2.042470 0.000000 0.000000 
#    y 0.000000 2.042470 0.000000 
#    z 0.000000 0.000000 2.016590 
# 
# From -- ./inp_files/9838.got.cif
#   From: 2010.05.17/outbox.cif.g08.bks.cpg/sg141_5_cif.got.tgz:9838.got - 2010.05.20 13:30:51.
