data_PCOD9573071
_publ_section_title
;
Structure prediction by ZEFSAII (Michael W. Deem and Ramdas Pophale) SiO2 
 PCOD9573071
Probable space group: I 41/A M D
;
_chemical_formula_sum "Si O2"
_cell_formula_units_Z 176
_cell_length_a 17.751654
_cell_length_b 17.751654
_cell_length_c 31.021467
_cell_angle_alpha 90.000000
_cell_angle_beta 90.000000
_cell_angle_gamma 90.000000
_cell_volume 9775.522519
_symmetry_space_group_name_H-M "I 41/A M D"
_symmetry_group_IT_number 141
_space_group.IT_coordinate_system_code '2'
_symmetry_cell_setting 'tetragonal'
loop_
_space_group_symop_operation_xyz
x,y,z
1/4-y,3/4+x,1/4+z
-x,1/2-y,z
1/4+y,1/4-x,3/4+z
x,-y,-z
-x,1/2+y,-z
1/4+y,3/4+x,1/4-z
1/4-y,1/4-x,3/4-z
-x,-y,-z
3/4+y,1/4-x,3/4-z
x,1/2+y,-z
3/4-y,3/4+x,1/4-z
-x,y,z
x,1/2-y,z
3/4-y,1/4-x,3/4+z
3/4+y,3/4+x,1/4+z
1/2+x,1/2+y,1/2+z
3/4-y,1/4+x,3/4+z
1/2-x,-y,1/2+z
3/4+y,3/4-x,1/4+z
1/2+x,1/2-y,1/2-z
1/2-x,y,1/2-z
3/4+y,1/4+x,3/4-z
3/4-y,3/4-x,1/4-z
1/2-x,1/2-y,1/2-z
1/4+y,3/4-x,1/4-z
1/2+x,y,1/2-z
1/4-y,1/4+x,3/4-z
1/2-x,1/2+y,1/2+z
1/2+x,-y,1/2+z
1/4-y,3/4-x,1/4+z
1/4+y,1/4+x,3/4+z
loop_
_atom_site_type_symbol
_atom_site_label
_atom_site_fract_x
_atom_site_fract_y
_atom_site_fract_z
Si Si1 0.089627 0.834862 0.489363
Si Si2 0.852434 0.337800 0.330759
Si Si3 0.911325 0.334617 0.094865
Si Si4 0.409938 0.494180 0.449986
Si Si5 0.687775 0.437775 0.625000
Si Si6 0.849359 0.062864 0.581152
O O1 0.107393 0.750000 0.475386
O O2 0.103985 0.845225 0.539940
O O3 0.137090 0.895692 0.463671
O O4 0.000000 0.847470 0.482155
O O5 0.892784 0.357217 0.375000
O O6 0.833213 0.250000 0.329270
O O7 0.774623 0.382169 0.327907
O O8 0.899952 0.250000 0.076679
O O9 0.896538 0.407148 0.064751
O O10 0.856584 0.346261 0.135404
O O11 0.000000 0.339349 0.107627
O O12 0.384010 0.500000 0.500000
O O13 0.500000 0.506956 0.449356
O O14 0.372745 0.550571 0.414330
O O15 0.679792 0.515889 0.650603
#
# Coordination Sequence:
#
# PCOD9573071 Si02
#       6
#    32  32  32  32  16  32
#     4  10  21  36  56  81 107 142 188 232 274 323
#     4  11  22  36  52  74 109 152 189 223 266 320
#     4   9  17  31  55  84 110 138 180 234 288 341
#     4   9  19  37  60  83 114 154 192 236 298 363
#     4  10  22  38  58  85 115 146 182 234 290 350
#     4  11  20  35  54  80 110 142 177 231 281 327
#
# _framework density 18.004152000000001
#
# number of rings (size 3 to 8) (size 9 to 14) (size 15 to 20)
#    0.000    2.000    0.909    3.273    0.000    6.000 
#    0.000    0.909    0.000    1.364    0.000    0.000 
#    0.000    0.000    0.000    0.000    0.000    0.000 
#
# Total GULP energy -490469.478331 kJ/mol
# GULP energy per Si atom -5573.516799 kJ/mol
# Density = 1.796317 g / cm^3
# Si number density = 18.004152 Si / 1000 Ang^3
#
#
#
# Elastic Constant Matrix: (Units=GPa)
#
#
# Indices 1 2 3 4 5 6 
#
# 1 37.1999 2.2914 16.9819 0.0000 0.0000 0.0000
# 2 2.2914 37.1996 16.9818 0.0000 0.0000 0.0000
# 3 16.9819 16.9818 94.8370 0.0000 0.0000 0.0000
# 4 0.0000 0.0000 0.0000 26.5626 0.0000 0.0000
# 5 0.0000 0.0000 0.0000 0.0000 26.5633 0.0000
# 6 0.0000 0.0000 0.0000 0.0000 0.0000 24.5719
#
#
#
# Elastic Compliance Matrix: (Units=1/GPa)
#
#
# Indices 1 2 3 4 5 6 
#
# 1 0.029289 0.000643 -0.005360 0.000000 0.000000 0.000000
# 2 0.000643 0.029289 -0.005360 0.000000 0.000000 0.000000
# 3 -0.005360 -0.005360 0.012464 0.000000 0.000000 0.000000
# 4 0.000000 0.000000 0.000000 0.037647 0.000000 0.000000
# 5 0.000000 0.000000 0.000000 0.000000 0.037646 0.000000
# 6 0.000000 0.000000 0.000000 0.000000 0.000000 0.040697
#
#
# Mechanical properties :
#
#
# Convention : Reuss Voigt Hill
#
# Bulk Modulus (GPa) = 19.65085 26.86075 23.25580
# Shear Modulus (GPa) = 22.30670 24.40499 23.35585
#
# Velocity S-wave (km/s) = 3.52373 3.68573 3.60564
# Velocity P-wave (km/s) = 5.24346 5.75017 5.50265
#
# Compressibility (1/GPa) = 0.05088840
#
# Stress axis : x y z
#
# Youngs Moduli (GPa) = 34.14264 34.14232 80.23206
#
# Poissons Ratio (x) = -0.02194 0.43002
# Poissons Ratio (y) = -0.02194 0.43002
# Poissons Ratio (z) = 0.18299 0.18299
#
# Static dielectric constant tensor:
#      x y z
#    x 1.606020 0.000000 0.000000 
#    y 0.000000 1.606010 0.000000 
#    z 0.000000 0.000000 1.638670 
# 
# From -- ./inp_files/12862.got.cif
#   From: 2010.05.17/outbox.cif.g08.bks.cpg/sg141_7_cif.got.tgz:12862.got - 2010.05.20 13:30:51.
