data_PCOD9573393
_publ_section_title
;
Structure prediction by ZEFSAII (Michael W. Deem and Ramdas Pophale) SiO2 
 PCOD9573393
Probable space group: I 41/A M D
;
_chemical_formula_sum "Si O2"
_cell_formula_units_Z 56
_cell_length_a 18.000000
_cell_length_b 18.000000
_cell_length_c 18.000000
_cell_angle_alpha 90.000000
_cell_angle_beta 90.000000
_cell_angle_gamma 90.000000
_cell_volume 5832.000000
_symmetry_space_group_name_H-M "I 41/A M D"
_symmetry_group_IT_number 141
_space_group.IT_coordinate_system_code '2'
_symmetry_cell_setting 'tetragonal'
loop_
_space_group_symop_operation_xyz
x,y,z
1/4-y,3/4+x,1/4+z
-x,1/2-y,z
1/4+y,1/4-x,3/4+z
x,-y,-z
-x,1/2+y,-z
1/4+y,3/4+x,1/4-z
1/4-y,1/4-x,3/4-z
-x,-y,-z
3/4+y,1/4-x,3/4-z
x,1/2+y,-z
3/4-y,3/4+x,1/4-z
-x,y,z
x,1/2-y,z
3/4-y,1/4-x,3/4+z
3/4+y,3/4+x,1/4+z
1/2+x,1/2+y,1/2+z
3/4-y,1/4+x,3/4+z
1/2-x,-y,1/2+z
3/4+y,3/4-x,1/4+z
1/2+x,1/2-y,1/2-z
1/2-x,y,1/2-z
3/4+y,1/4+x,3/4-z
3/4-y,3/4-x,1/4-z
1/2-x,1/2-y,1/2-z
1/4+y,3/4-x,1/4-z
1/2+x,y,1/2-z
1/4-y,1/4+x,3/4-z
1/2-x,1/2+y,1/2+z
1/2+x,-y,1/2+z
1/4-y,3/4-x,1/4+z
1/4+y,1/4+x,3/4+z
loop_
_atom_site_type_symbol
_atom_site_label
_atom_site_fract_x
_atom_site_fract_y
_atom_site_fract_z
Si Si1 0.911674 0.163575 0.657585
Si Si2 0.912615 0.662615 0.625000
Si Si3 0.340458 0.086069 0.984102
Si Si4 0.668828 0.915289 0.285465
O O1 0.890069 0.250000 0.648420
O O2 0.872718 0.114424 0.593994
O O3 0.887821 0.134421 0.738471
O O4 0.000000 0.157941 0.648346
O O5 0.899567 0.750000 0.633408
O O6 0.872616 0.633335 0.551660
O O7 0.251813 0.093350 0.982725
O O8 0.358850 0.000000 0.000000
O O9 0.750000 0.896416 0.250000
O O10 0.660675 0.910675 0.375000
#
# Coordination Sequence:
#
# PCOD9573393 Si02
#       4
#    32  16  32  32
#     4  11  25  43  63  94 133 168 211 269 323 378
#     4  11  24  40  60  92 134 172 206 253 316 386
#     4  11  23  40  67  95 126 167 214 266 319 385
#     4  11  23  44  67  94 127 164 213 266 318 378
#
# _framework density 9.602195
#
# number of rings (size 3 to 8) (size 9 to 14) (size 15 to 20)
#    0.000    1.000    2.857    3.429    4.000   10.857 
#    0.000    1.429    0.000    0.000    0.000    0.000 
#    0.000    0.000    0.000    0.000    0.000    0.000 
#
# Total GULP energy -313067.554392 kJ/mol
# GULP energy per Si atom -5590.492043 kJ/mol
# Density = 0.958034 g / cm^3
# Si number density = 9.602195 Si / 1000 Ang^3
#
#
#
# Elastic Constant Matrix: (Units=GPa)
#
#
# Indices 1 2 3 4 5 6 
#
# 1 55.1378 58.0421 28.7217 0.0000 0.0000 0.0000
# 2 58.0421 55.1378 28.7217 0.0000 0.0000 0.0000
# 3 28.7217 28.7217 132.3792 0.0000 0.0000 0.0000
# 4 0.0000 0.0000 0.0000 74.6887 0.0000 0.0000
# 5 0.0000 0.0000 0.0000 0.0000 74.6887 0.0000
# 6 0.0000 0.0000 0.0000 0.0000 0.0000 29.7599
#
#
#
# Elastic Compliance Matrix: (Units=1/GPa)
#
#
# Indices 1 2 3 4 5 6 
#
# 1 -0.167194 0.177123 -0.002154 0.000000 0.000000 0.000000
# 2 0.177123 -0.167194 -0.002154 0.000000 0.000000 0.000000
# 3 -0.002154 -0.002154 0.008489 0.000000 0.000000 0.000000
# 4 0.000000 0.000000 0.000000 0.013389 0.000000 0.000000
# 5 0.000000 0.000000 0.000000 0.000000 0.013389 0.000000
# 6 0.000000 0.000000 0.000000 0.000000 0.000000 0.033602
#
#
# Mechanical properties :
#
#
# Convention : Reuss Voigt Hill
#
# Bulk Modulus (GPa) = 50.68511 52.62510 51.65510
# Shear Modulus (GPa) = -8.27032 44.30543 18.01756
#
# Velocity S-wave (km/s) = -2.07746 4.80838 3.06633
# Velocity P-wave (km/s) = 4.54921 7.63476 6.28430
#
# Compressibility (1/GPa) = 0.01972966
#
# Stress axis : x y z
#
# Youngs Moduli (GPa) = -5.98108 -5.98108 117.80176
#
# Poissons Ratio (x) = 1.05939 0.25377
# Poissons Ratio (y) = 1.05939 0.25377
# Poissons Ratio (z) = -0.01288 -0.01288
#
# Static dielectric constant tensor:
#      x y z
#    x 1.652190 0.000000 0.000000 
#    y 0.000000 1.652190 0.000000 
#    z 0.000000 0.000000 1.615090 
# 
# From -- ./inp_files/7918.got.cif
#   From: 2010.05.17/outbox.ucp.g08.bks.cvg/sg141_4_cif.got.tgz:7918.got - 2010.06.11 11:43:24.
