data_PCOD9573294
_publ_section_title
;
Structure prediction by ZEFSAII (Michael W. Deem and Ramdas Pophale) SiO2 
 PCOD9573294
Probable space group: I 41/A M D
;
_chemical_formula_sum "Si O2"
_cell_formula_units_Z 160
_cell_length_a 20.078910
_cell_length_b 20.078910
_cell_length_c 19.468780
_cell_angle_alpha 90.000000
_cell_angle_beta 90.000000
_cell_angle_gamma 90.000000
_cell_volume 7849.084485
_symmetry_space_group_name_H-M "I 41/A M D"
_symmetry_group_IT_number 141
_space_group.IT_coordinate_system_code '2'
_symmetry_cell_setting 'tetragonal'
loop_
_space_group_symop_operation_xyz
x,y,z
1/4-y,3/4+x,1/4+z
-x,1/2-y,z
1/4+y,1/4-x,3/4+z
x,-y,-z
-x,1/2+y,-z
1/4+y,3/4+x,1/4-z
1/4-y,1/4-x,3/4-z
-x,-y,-z
3/4+y,1/4-x,3/4-z
x,1/2+y,-z
3/4-y,3/4+x,1/4-z
-x,y,z
x,1/2-y,z
3/4-y,1/4-x,3/4+z
3/4+y,3/4+x,1/4+z
1/2+x,1/2+y,1/2+z
3/4-y,1/4+x,3/4+z
1/2-x,-y,1/2+z
3/4+y,3/4-x,1/4+z
1/2+x,1/2-y,1/2-z
1/2-x,y,1/2-z
3/4+y,1/4+x,3/4-z
3/4-y,3/4-x,1/4-z
1/2-x,1/2-y,1/2-z
1/4+y,3/4-x,1/4-z
1/2+x,y,1/2-z
1/4-y,1/4+x,3/4-z
1/2-x,1/2+y,1/2+z
1/2+x,-y,1/2+z
1/4-y,3/4-x,1/4+z
1/4+y,1/4+x,3/4+z
loop_
_atom_site_type_symbol
_atom_site_label
_atom_site_fract_x
_atom_site_fract_y
_atom_site_fract_z
Si Si1 0.781033 0.562282 0.048873
Si Si2 0.139283 0.750000 0.224910
Si Si3 0.923205 0.669419 0.550482
Si Si4 0.921445 0.614111 0.275184
Si Si5 0.233615 0.750000 0.359011
Si Si6 0.623896 0.594355 0.667487
O O1 0.811828 0.561828 0.125000
O O2 0.807069 0.626896 0.009114
O O3 0.702422 0.563691 0.064961
O O4 0.800034 0.500000 0.000000
O O5 0.096465 0.816796 0.235636
O O6 0.191217 0.750000 0.288440
O O7 0.188052 0.750000 0.158912
O O8 0.897007 0.647007 0.625000
O O9 0.922484 0.750000 0.551940
O O10 0.882771 0.645443 0.485777
O O11 0.000000 0.648437 0.543501
O O12 0.894319 0.619656 0.353440
O O13 0.000000 0.601895 0.273437
O O14 0.207313 0.684711 0.397247
#
# Coordination Sequence:
#
# PCOD9573294 Si02
#       6
#    32  16  32  32  16  32
#     4  12  26  47  69  95 134 185 231 282 338 414
#     4   9  19  36  62  96 138 166 218 274 349 405
#     4   9  18  34  59  96 139 177 221 285 353 413
#     4  11  24  42  69 100 134 173 227 287 348 410
#     4   9  18  32  64  98 124 179 214 278 333 418
#     4  11  21  39  68  93 131 171 234 280 343 413
#
# _framework density 20.384543000000001
#
# number of rings (size 3 to 8) (size 9 to 14) (size 15 to 20)
#    0.000    1.600    3.000    2.700    4.200    0.800 
#    1.800    0.000    0.000    1.200    0.000    0.000 
#    0.000    0.000    0.000    0.000    0.000    0.000 
#
# Total GULP energy -446799.828929 kJ/mol
# GULP energy per Si atom -5584.997862 kJ/mol
# Density = 2.033815 g / cm^3
# Si number density = 20.384543 Si / 1000 Ang^3
#
#
#
# Elastic Constant Matrix: (Units=GPa)
#
#
# Indices 1 2 3 4 5 6 
#
# 1 94.9947 27.2815 52.2387 0.0000 0.0000 0.0000
# 2 27.2815 94.9947 52.2387 0.0000 0.0000 0.0000
# 3 52.2387 52.2387 168.2935 0.0000 0.0000 0.0000
# 4 0.0000 0.0000 0.0000 19.4281 0.0000 0.0000
# 5 0.0000 0.0000 0.0000 0.0000 19.4281 0.0000
# 6 0.0000 0.0000 0.0000 0.0000 0.0000 25.3726
#
#
#
# Elastic Compliance Matrix: (Units=1/GPa)
#
#
# Indices 1 2 3 4 5 6 
#
# 1 0.012949 -0.001819 -0.003455 0.000000 0.000000 0.000000
# 2 -0.001819 0.012949 -0.003455 0.000000 0.000000 0.000000
# 3 -0.003455 -0.003455 0.008087 0.000000 0.000000 0.000000
# 4 0.000000 0.000000 0.000000 0.051472 0.000000 0.000000
# 5 0.000000 0.000000 0.000000 0.000000 0.051472 0.000000
# 6 0.000000 0.000000 0.000000 0.000000 0.000000 0.039413
#
#
# Mechanical properties :
#
#
# Convention : Reuss Voigt Hill
#
# Bulk Modulus (GPa) = 60.50427 69.08896 64.79662
# Shear Modulus (GPa) = 25.08681 27.94735 26.51708
#
# Velocity S-wave (km/s) = 3.51191 3.70673 3.61063
# Velocity P-wave (km/s) = 6.79636 7.23092 7.01701
#
# Compressibility (1/GPa) = 0.01652776
#
# Stress axis : x y z
#
# Youngs Moduli (GPa) = 77.22509 77.22509 123.65882
#
# Poissons Ratio (x) = 0.14047 0.42722
# Poissons Ratio (y) = 0.14047 0.42722
# Poissons Ratio (z) = 0.26680 0.26680
#
# Static dielectric constant tensor:
#      x y z
#    x 1.734310 0.000000 0.000000 
#    y 0.000000 1.734310 0.000000 
#    z 0.000000 0.000000 1.730620 
# 
# From -- ./inp_files/8664.got.cif
#   From: 2010.05.17/outbox.cif.g08.bks.cpg/sg141_5_cif.got.tgz:8664.got - 2010.05.20 13:30:51.
