data_PCOD9573016
_publ_section_title
;
Structure prediction by ZEFSAII (Michael W. Deem and Ramdas Pophale) SiO2 
 PCOD9573016
Probable space group: I 41/A M D
;
_chemical_formula_sum "Si O2"
_cell_formula_units_Z 160
_cell_length_a 17.948666
_cell_length_b 17.948666
_cell_length_c 25.178503
_cell_angle_alpha 90.000000
_cell_angle_beta 90.000000
_cell_angle_gamma 90.000000
_cell_volume 8111.370844
_symmetry_space_group_name_H-M "I 41/A M D"
_symmetry_group_IT_number 141
_space_group.IT_coordinate_system_code '2'
_symmetry_cell_setting 'tetragonal'
loop_
_space_group_symop_operation_xyz
x,y,z
1/4-y,3/4+x,1/4+z
-x,1/2-y,z
1/4+y,1/4-x,3/4+z
x,-y,-z
-x,1/2+y,-z
1/4+y,3/4+x,1/4-z
1/4-y,1/4-x,3/4-z
-x,-y,-z
3/4+y,1/4-x,3/4-z
x,1/2+y,-z
3/4-y,3/4+x,1/4-z
-x,y,z
x,1/2-y,z
3/4-y,1/4-x,3/4+z
3/4+y,3/4+x,1/4+z
1/2+x,1/2+y,1/2+z
3/4-y,1/4+x,3/4+z
1/2-x,-y,1/2+z
3/4+y,3/4-x,1/4+z
1/2+x,1/2-y,1/2-z
1/2-x,y,1/2-z
3/4+y,1/4+x,3/4-z
3/4-y,3/4-x,1/4-z
1/2-x,1/2-y,1/2-z
1/4+y,3/4-x,1/4-z
1/2+x,y,1/2-z
1/4-y,1/4+x,3/4-z
1/2-x,1/2+y,1/2+z
1/2+x,-y,1/2+z
1/4-y,3/4-x,1/4+z
1/4+y,1/4+x,3/4+z
loop_
_atom_site_type_symbol
_atom_site_label
_atom_site_fract_x
_atom_site_fract_y
_atom_site_fract_z
Si Si1 0.586052 0.574348 0.831288
Si Si2 0.584947 0.415639 0.993449
Si Si3 0.651904 0.162709 0.903365
Si Si4 0.826809 0.591313 0.948386
Si Si5 0.666820 0.555899 0.317887
O O1 0.640327 0.609674 0.875000
O O2 0.500000 0.585232 0.845386
O O3 0.608158 0.617995 0.777987
O O4 0.604672 0.488577 0.820962
O O5 0.500000 0.416664 0.012255
O O6 0.590416 0.386094 0.933717
O O7 0.614604 0.500000 0.000000
O O8 0.646349 0.250000 0.914401
O O9 0.650006 0.146325 0.840690
O O10 0.728702 0.127323 0.925996
O O11 0.796820 0.506662 0.937673
O O12 0.841508 0.603115 0.010924
O O13 0.654250 0.595751 0.375000
#
# Coordination Sequence:
#
# PCOD9573016 Si02
#       5
#    32  32  32  32  32
#     4  12  24  37  57  84 116 158 206 252 292 346
#     4  11  23  39  58  82 117 163 207 248 300 362
#     4  11  22  36  57  89 125 157 202 258 306 357
#     4  10  20  37  62  85 117 161 206 245 301 364
#     4   9  18  36  61  87 113 155 201 247 301 354
#
# _framework density 19.725396
#
# number of rings (size 3 to 8) (size 9 to 14) (size 15 to 20)
#    0.000    1.400    2.000    5.400    0.000    5.000 
#    0.000    8.000    0.000    0.000    0.000    0.000 
#    0.000   46.800    0.000    0.200    0.000    0.000 
#
# Total GULP energy -446428.742685 kJ/mol
# GULP energy per Si atom -5580.359284 kJ/mol
# Density = 1.968050 g / cm^3
# Si number density = 19.725396 Si / 1000 Ang^3
#
#
#
# Elastic Constant Matrix: (Units=GPa)
#
#
# Indices 1 2 3 4 5 6 
#
# 1 62.3381 14.7104 16.2039 0.0000 0.0000 0.0000
# 2 14.7104 62.3375 16.2023 0.0000 0.0000 0.0000
# 3 16.2039 16.2023 152.9710 0.0000 0.0000 0.0000
# 4 0.0000 0.0000 0.0000 6.8659 0.0000 0.0000
# 5 0.0000 0.0000 0.0000 0.0000 6.8637 0.0000
# 6 0.0000 0.0000 0.0000 0.0000 0.0000 -4.9291
#
#
#
# Elastic Compliance Matrix: (Units=1/GPa)
#
#
# Indices 1 2 3 4 5 6 
#
# 1 0.017290 -0.003706 -0.001439 0.000000 0.000000 0.000000
# 2 -0.003706 0.017290 -0.001439 0.000000 0.000000 0.000000
# 3 -0.001439 -0.001439 0.006842 0.000000 0.000000 0.000000
# 4 0.000000 0.000000 0.000000 0.145648 0.000000 0.000000
# 5 0.000000 0.000000 0.000000 0.000000 0.145693 0.000000
# 6 0.000000 0.000000 0.000000 0.000000 0.000000 -0.202876
#
#
# Mechanical properties :
#
#
# Convention : Reuss Voigt Hill
#
# Bulk Modulus (GPa) = 35.39234 41.31997 38.35615
# Shear Modulus (GPa) = 32.79261 17.12877 24.96069
#
# Velocity S-wave (km/s) = 4.08175 2.94999 3.56112
# Velocity P-wave (km/s) = 6.34001 5.70932 6.03291
#
# Compressibility (1/GPa) = 0.02825471
#
# Stress axis : x y z
#
# Youngs Moduli (GPa) = 57.83645 57.83611 146.15604
#
# Poissons Ratio (x) = 0.21435 0.21031
# Poissons Ratio (y) = 0.21435 0.21028
# Poissons Ratio (z) = 0.08322 0.08321
#
# Static dielectric constant tensor:
#      x y z
#    x 1.671250 0.000000 0.000000 
#    y 0.000000 1.671250 0.000000 
#    z 0.000000 0.000000 1.818530 
# 
# From -- ./inp_files/12700.got.cif
#   From: 2010.05.17/outbox.cif.g08.bks.cpg/sg141_7_cif.got.tgz:12700.got - 2010.05.20 13:30:51.
