data_PCOD9573184
_publ_section_title
;
Structure prediction by ZEFSAII (Michael W. Deem and Ramdas Pophale) SiO2 
 PCOD9573184
Probable space group: I 41/A M D
;
_chemical_formula_sum "Si O2"
_cell_formula_units_Z 96
_cell_length_a 15.167689
_cell_length_b 15.167689
_cell_length_c 18.801183
_cell_angle_alpha 90.000000
_cell_angle_beta 90.000000
_cell_angle_gamma 90.000000
_cell_volume 4325.377404
_symmetry_space_group_name_H-M "I 41/A M D"
_symmetry_group_IT_number 141
_space_group.IT_coordinate_system_code '2'
_symmetry_cell_setting 'tetragonal'
loop_
_space_group_symop_operation_xyz
x,y,z
1/4-y,3/4+x,1/4+z
-x,1/2-y,z
1/4+y,1/4-x,3/4+z
x,-y,-z
-x,1/2+y,-z
1/4+y,3/4+x,1/4-z
1/4-y,1/4-x,3/4-z
-x,-y,-z
3/4+y,1/4-x,3/4-z
x,1/2+y,-z
3/4-y,3/4+x,1/4-z
-x,y,z
x,1/2-y,z
3/4-y,1/4-x,3/4+z
3/4+y,3/4+x,1/4+z
1/2+x,1/2+y,1/2+z
3/4-y,1/4+x,3/4+z
1/2-x,-y,1/2+z
3/4+y,3/4-x,1/4+z
1/2+x,1/2-y,1/2-z
1/2-x,y,1/2-z
3/4+y,1/4+x,3/4-z
3/4-y,3/4-x,1/4-z
1/2-x,1/2-y,1/2-z
1/4+y,3/4-x,1/4-z
1/2+x,y,1/2-z
1/4-y,1/4+x,3/4-z
1/2-x,1/2+y,1/2+z
1/2+x,-y,1/2+z
1/4-y,3/4-x,1/4+z
1/4+y,1/4+x,3/4+z
loop_
_atom_site_type_symbol
_atom_site_label
_atom_site_fract_x
_atom_site_fract_y
_atom_site_fract_z
Si Si1 0.249274 0.644565 0.015336
Si Si2 0.397220 0.147220 0.625000
Si Si3 0.213291 0.350535 0.152229
Si Si4 0.903631 0.346370 0.375000
O O1 0.264556 0.750000 0.022327
O O2 0.161273 0.621785 0.058229
O O3 0.326334 0.592102 0.056836
O O4 0.227112 0.628426 0.932057
O O5 0.500000 0.133637 0.609566
O O6 0.178843 0.250000 0.158874
O O7 0.317248 0.347559 0.173999
O O8 0.900426 0.250000 0.411313
#
# Coordination Sequence:
#
# PCOD9573184 Si02
#       4
#    32  16  32  16
#     4  10  22  39  60  89 125 167 215 268 330 399
#     4   9  19  36  56  80 115 159 206 260 324 391
#     4  10  22  39  60  89 125 167 215 268 330 399
#     4   9  19  36  56  80 115 159 206 260 324 391
#
# _framework density 22.194596000000001
#
# number of rings (size 3 to 8) (size 9 to 14) (size 15 to 20)
#    0.000    2.333    0.000    1.000    0.000    8.667 
#    0.000   13.333    0.000    0.000    0.000    0.000 
#    0.000    0.000    0.000    0.000    0.000    0.000 
#
# Total GULP energy -267751.082978 kJ/mol
# GULP energy per Si atom -5578.147562 kJ/mol
# Density = 2.214408 g / cm^3
# Si number density = 22.194596 Si / 1000 Ang^3
#
#
#
# Elastic Constant Matrix: (Units=GPa)
#
#
# Indices 1 2 3 4 5 6 
#
# 1 79.5929 64.5494 79.2803 0.0000 0.0000 0.0000
# 2 64.5494 79.5926 79.2801 0.0000 0.0000 0.0000
# 3 79.2803 79.2801 178.6286 0.0000 0.0000 0.0000
# 4 0.0000 0.0000 0.0000 21.7341 0.0000 0.0000
# 5 0.0000 0.0000 0.0000 0.0000 21.7335 0.0000
# 6 0.0000 0.0000 0.0000 0.0000 0.0000 43.9435
#
#
#
# Elastic Compliance Matrix: (Units=1/GPa)
#
#
# Indices 1 2 3 4 5 6 
#
# 1 0.040015 -0.026459 -0.006016 0.000000 0.000000 0.000000
# 2 -0.026459 0.040015 -0.006016 0.000000 0.000000 0.000000
# 3 -0.006016 -0.006016 0.010939 0.000000 0.000000 0.000000
# 4 0.000000 0.000000 0.000000 0.046011 0.000000 0.000000
# 5 0.000000 0.000000 0.000000 0.000000 0.046012 0.000000
# 6 0.000000 0.000000 0.000000 0.000000 0.000000 0.022757
#
#
# Mechanical properties :
#
#
# Convention : Reuss Voigt Hill
#
# Bulk Modulus (GPa) = 71.50703 87.11486 79.31094
# Shear Modulus (GPa) = 17.39767 25.12915 21.26341
#
# Velocity S-wave (km/s) = 2.80280 3.36850 3.09859
# Velocity P-wave (km/s) = 6.53930 7.38002 6.97234
#
# Compressibility (1/GPa) = 0.01398464
#
# Stress axis : x y z
#
# Youngs Moduli (GPa) = 24.99049 24.99038 91.41815
#
# Poissons Ratio (x) = 0.66123 0.55001
# Poissons Ratio (y) = 0.66123 0.55001
# Poissons Ratio (z) = 0.15035 0.15035
#
# Static dielectric constant tensor:
#      x y z
#    x 1.857950 0.000000 0.000000 
#    y 0.000000 1.857950 0.000000 
#    z 0.000000 0.000000 1.862930 
# 
# From -- ./inp_files/11034.got.cif
#   From: 2010.05.17/outbox.cif.g08.bks.cpg/sg141_6_cif.got.tgz:11034.got - 2010.05.20 13:30:51.
