data_PCOD9573098
_publ_section_title
;
Structure prediction by ZEFSAII (Michael W. Deem and Ramdas Pophale) SiO2 
 PCOD9573098
Probable space group: I 41/A M D
;
_chemical_formula_sum "Si O2"
_cell_formula_units_Z 160
_cell_length_a 23.258650
_cell_length_b 23.258650
_cell_length_c 14.231397
_cell_angle_alpha 90.000000
_cell_angle_beta 90.000000
_cell_angle_gamma 90.000000
_cell_volume 7698.684829
_symmetry_space_group_name_H-M "I 41/A M D"
_symmetry_group_IT_number 141
_space_group.IT_coordinate_system_code '2'
_symmetry_cell_setting 'tetragonal'
loop_
_space_group_symop_operation_xyz
x,y,z
1/4-y,3/4+x,1/4+z
-x,1/2-y,z
1/4+y,1/4-x,3/4+z
x,-y,-z
-x,1/2+y,-z
1/4+y,3/4+x,1/4-z
1/4-y,1/4-x,3/4-z
-x,-y,-z
3/4+y,1/4-x,3/4-z
x,1/2+y,-z
3/4-y,3/4+x,1/4-z
-x,y,z
x,1/2-y,z
3/4-y,1/4-x,3/4+z
3/4+y,3/4+x,1/4+z
1/2+x,1/2+y,1/2+z
3/4-y,1/4+x,3/4+z
1/2-x,-y,1/2+z
3/4+y,3/4-x,1/4+z
1/2+x,1/2-y,1/2-z
1/2-x,y,1/2-z
3/4+y,1/4+x,3/4-z
3/4-y,3/4-x,1/4-z
1/2-x,1/2-y,1/2-z
1/4+y,3/4-x,1/4-z
1/2+x,y,1/2-z
1/4-y,1/4+x,3/4-z
1/2-x,1/2+y,1/2+z
1/2+x,-y,1/2+z
1/4-y,3/4-x,1/4+z
1/4+y,1/4+x,3/4+z
loop_
_atom_site_type_symbol
_atom_site_label
_atom_site_fract_x
_atom_site_fract_y
_atom_site_fract_z
Si Si1 0.649476 0.490477 0.110585
Si Si2 0.433409 0.609033 0.811947
Si Si3 0.107433 0.910175 0.260355
Si Si4 0.805556 0.684561 0.183014
Si Si5 0.565751 0.312875 0.362629
O O1 0.712152 0.462152 0.125000
O O2 0.605484 0.444217 0.155885
O O3 0.639342 0.548900 0.166132
O O4 0.638891 0.500000 0.000000
O O5 0.500000 0.595566 0.825878
O O6 0.412068 0.662068 0.875000
O O7 0.425513 0.633153 0.706690
O O8 0.152018 0.864564 0.218177
O O9 0.078987 0.948927 0.178389
O O10 0.064374 0.867194 0.313316
O O11 0.827656 0.750000 0.191640
O O12 0.750000 0.681298 0.250000
O O13 0.500000 0.317507 0.400148
O O14 0.568246 0.250000 0.314216
#
# Coordination Sequence:
#
# PCOD9573098 Si02
#       5
#    32  32  32  32  32
#     4  11  26  44  64  95 134 175 227 279 332 397
#     4  10  21  37  60  91 131 177 222 274 329 391
#     4  11  23  42  69  96 132 178 220 274 341 395
#     4  10  24  43  67  99 131 170 224 277 333 403
#     4  10  21  38  65 100 137 176 220 273 335 404
#
# _framework density 20.782771
#
# number of rings (size 3 to 8) (size 9 to 14) (size 15 to 20)
#    0.000    1.600    0.000    4.200    5.600    3.800 
#    0.000    0.000    0.000    4.800    0.000    0.000 
#    0.000    0.000    0.000    0.000    0.000    0.000 
#
# Total GULP energy -446300.469639 kJ/mol
# GULP energy per Si atom -5578.755870 kJ/mol
# Density = 2.073547 g / cm^3
# Si number density = 20.782771 Si / 1000 Ang^3
#
#
#
# Elastic Constant Matrix: (Units=GPa)
#
#
# Indices 1 2 3 4 5 6 
#
# 1 106.4971 43.4699 56.8266 0.0000 0.0000 0.0000
# 2 43.4699 106.4971 56.8266 0.0000 0.0000 0.0000
# 3 56.8266 56.8266 115.1479 0.0000 0.0000 0.0000
# 4 0.0000 0.0000 0.0000 32.1465 0.0000 0.0000
# 5 0.0000 0.0000 0.0000 0.0000 32.1465 0.0000
# 6 0.0000 0.0000 0.0000 0.0000 0.0000 34.1622
#
#
#
# Elastic Compliance Matrix: (Units=1/GPa)
#
#
# Indices 1 2 3 4 5 6 
#
# 1 0.013259 -0.002607 -0.005257 0.000000 0.000000 0.000000
# 2 -0.002607 0.013259 -0.005257 0.000000 0.000000 0.000000
# 3 -0.005257 -0.005257 0.013873 0.000000 0.000000 0.000000
# 4 0.000000 0.000000 0.000000 0.031108 0.000000 0.000000
# 5 0.000000 0.000000 0.000000 0.000000 0.031108 0.000000
# 6 0.000000 0.000000 0.000000 0.000000 0.000000 0.029272
#
#
# Mechanical properties :
#
#
# Convention : Reuss Voigt Hill
#
# Bulk Modulus (GPa) = 70.67281 71.37647 71.02464
# Shear Modulus (GPa) = 30.70552 31.09228 30.89890
#
# Velocity S-wave (km/s) = 3.84793 3.87209 3.86003
# Velocity P-wave (km/s) = 7.33631 7.37627 7.35632
#
# Compressibility (1/GPa) = 0.01414971
#
# Stress axis : x y z
#
# Youngs Moduli (GPa) = 75.41966 75.41966 72.08165
#
# Poissons Ratio (x) = 0.19662 0.37893
# Poissons Ratio (y) = 0.19662 0.37893
# Poissons Ratio (z) = 0.39647 0.39647
#
# Static dielectric constant tensor:
#      x y z
#    x 1.734480 0.000000 0.000000 
#    y 0.000000 1.734480 0.000000 
#    z 0.000000 0.000000 1.823640 
# 
# From -- ./inp_files/6587.got.cif
#   From: 2010.05.17/outbox.cif.g08.bks.cpg/sg141_4_cif.got.tgz:6587.got - 2010.05.20 13:30:51.
