data_PCOD9573132
_publ_section_title
;
Structure prediction by ZEFSAII (Michael W. Deem and Ramdas Pophale) SiO2 
 PCOD9573132
Probable space group: I 41/A M D
;
_chemical_formula_sum "Si O2"
_cell_formula_units_Z 104
_cell_length_a 18.332435
_cell_length_b 18.332435
_cell_length_c 15.675322
_cell_angle_alpha 90.000000
_cell_angle_beta 90.000000
_cell_angle_gamma 90.000000
_cell_volume 5268.133579
_symmetry_space_group_name_H-M "I 41/A M D"
_symmetry_group_IT_number 141
_space_group.IT_coordinate_system_code '2'
_symmetry_cell_setting 'tetragonal'
loop_
_space_group_symop_operation_xyz
x,y,z
1/4-y,3/4+x,1/4+z
-x,1/2-y,z
1/4+y,1/4-x,3/4+z
x,-y,-z
-x,1/2+y,-z
1/4+y,3/4+x,1/4-z
1/4-y,1/4-x,3/4-z
-x,-y,-z
3/4+y,1/4-x,3/4-z
x,1/2+y,-z
3/4-y,3/4+x,1/4-z
-x,y,z
x,1/2-y,z
3/4-y,1/4-x,3/4+z
3/4+y,3/4+x,1/4+z
1/2+x,1/2+y,1/2+z
3/4-y,1/4+x,3/4+z
1/2-x,-y,1/2+z
3/4+y,3/4-x,1/4+z
1/2+x,1/2-y,1/2-z
1/2-x,y,1/2-z
3/4+y,1/4+x,3/4-z
3/4-y,3/4-x,1/4-z
1/2-x,1/2-y,1/2-z
1/4+y,3/4-x,1/4-z
1/2+x,y,1/2-z
1/4-y,1/4+x,3/4-z
1/2-x,1/2+y,1/2+z
1/2+x,-y,1/2+z
1/4-y,3/4-x,1/4+z
1/4+y,1/4+x,3/4+z
loop_
_atom_site_type_symbol
_atom_site_label
_atom_site_fract_x
_atom_site_fract_y
_atom_site_fract_z
Si Si1 0.150321 0.591618 0.301743
Si Si2 0.500000 0.506913 0.198402
Si Si3 0.500000 0.750000 0.694026
Si Si4 0.000000 0.137044 0.411463
Si Si5 0.838746 0.750000 0.374147
Si Si6 0.214462 0.464462 0.875000
O O1 0.069464 0.559982 0.307640
O O2 0.168291 0.675948 0.320319
O O3 0.178549 0.570251 0.208174
O O4 0.199975 0.549821 0.370510
O O5 0.500000 0.445194 0.123228
O O6 0.500000 0.461733 0.289643
O O7 0.421688 0.750000 0.744322
O O8 0.500000 0.673559 0.648450
O O9 0.071842 0.178159 0.375000
#
# Coordination Sequence:
#
# PCOD9573132 Si02
#       6
#    32  16   8  16  16  16
#     4  11  25  44  67 102 135 179 232 289 349 419
#     4  12  23  41  68 101 139 188 224 285 353 416
#     4  10  21  40  62 103 132 186 224 283 330 408
#     4   9  18  35  61  90 132 178 223 268 329 405
#     4  12  23  43  70  95 141 176 237 286 346 418
#     4  10  24  44  70  99 133 178 236 292 344 412
#
# _framework density 19.741337999999999
#
# number of rings (size 3 to 8) (size 9 to 14) (size 15 to 20)
#    0.000    1.385    6.154    0.923    2.154    3.692 
#    0.000    1.538    0.000    1.846    0.000    0.000 
#    0.000    0.000    0.000    0.000    0.000    0.000 
#
# Total GULP energy -289738.334062 kJ/mol
# GULP energy per Si atom -5571.891040 kJ/mol
# Density = 1.969641 g / cm^3
# Si number density = 19.741338 Si / 1000 Ang^3
#
#
#
# Elastic Constant Matrix: (Units=GPa)
#
#
# Indices 1 2 3 4 5 6 
#
# 1 126.8144 73.9273 35.8409 0.0000 0.0000 0.0000
# 2 73.9273 126.8147 35.8407 0.0000 0.0000 0.0000
# 3 35.8409 35.8407 79.1538 0.0000 0.0000 0.0000
# 4 0.0000 0.0000 0.0000 35.6445 0.0000 0.0000
# 5 0.0000 0.0000 0.0000 0.0000 35.6466 0.0000
# 6 0.0000 0.0000 0.0000 0.0000 0.0000 17.3442
#
#
#
# Elastic Compliance Matrix: (Units=1/GPa)
#
#
# Indices 1 2 3 4 5 6 
#
# 1 0.012425 -0.006483 -0.002691 0.000000 0.000000 0.000000
# 2 -0.006483 0.012425 -0.002691 0.000000 0.000000 0.000000
# 3 -0.002691 -0.002691 0.015070 0.000000 0.000000 0.000000
# 4 0.000000 0.000000 0.000000 0.028055 0.000000 0.000000
# 5 0.000000 0.000000 0.000000 0.000000 0.028053 0.000000
# 6 0.000000 0.000000 0.000000 0.000000 0.000000 0.057656
#
#
# Mechanical properties :
#
#
# Convention : Reuss Voigt Hill
#
# Bulk Modulus (GPa) = 61.75804 69.33342 65.54573
# Shear Modulus (GPa) = 27.35070 30.20534 28.77802
#
# Velocity S-wave (km/s) = 3.72621 3.91584 3.82220
# Velocity P-wave (km/s) = 7.06147 7.45937 7.26314
#
# Compressibility (1/GPa) = 0.01619222
#
# Stress axis : x y z
#
# Youngs Moduli (GPa) = 80.48132 80.48165 66.35568
#
# Poissons Ratio (x) = 0.52175 0.17854
# Poissons Ratio (y) = 0.52175 0.17854
# Poissons Ratio (z) = 0.21655 0.21655
#
# Static dielectric constant tensor:
#      x y z
#    x 1.728990 0.000000 0.000000 
#    y 0.000000 1.728990 0.000000 
#    z 0.000000 0.000000 1.730170 
# 
# From -- ./inp_files/7882.got.cif
#   From: 2010.05.17/outbox.cif.g08.bks.cpg/sg141_4_cif.got.tgz:7882.got - 2010.05.20 13:30:51.
