data_PCOD9573277
_publ_section_title
;
Structure prediction by ZEFSAII (Michael W. Deem and Ramdas Pophale) SiO2 
 PCOD9573277
Probable space group: I 41/A M D
;
_chemical_formula_sum "Si O2"
_cell_formula_units_Z 160
_cell_length_a 23.723703
_cell_length_b 23.723703
_cell_length_c 13.982983
_cell_angle_alpha 90.000000
_cell_angle_beta 90.000000
_cell_angle_gamma 90.000000
_cell_volume 7869.819769
_symmetry_space_group_name_H-M "I 41/A M D"
_symmetry_group_IT_number 141
_space_group.IT_coordinate_system_code '2'
_symmetry_cell_setting 'tetragonal'
loop_
_space_group_symop_operation_xyz
x,y,z
1/4-y,3/4+x,1/4+z
-x,1/2-y,z
1/4+y,1/4-x,3/4+z
x,-y,-z
-x,1/2+y,-z
1/4+y,3/4+x,1/4-z
1/4-y,1/4-x,3/4-z
-x,-y,-z
3/4+y,1/4-x,3/4-z
x,1/2+y,-z
3/4-y,3/4+x,1/4-z
-x,y,z
x,1/2-y,z
3/4-y,1/4-x,3/4+z
3/4+y,3/4+x,1/4+z
1/2+x,1/2+y,1/2+z
3/4-y,1/4+x,3/4+z
1/2-x,-y,1/2+z
3/4+y,3/4-x,1/4+z
1/2+x,1/2-y,1/2-z
1/2-x,y,1/2-z
3/4+y,1/4+x,3/4-z
3/4-y,3/4-x,1/4-z
1/2-x,1/2-y,1/2-z
1/4+y,3/4-x,1/4-z
1/2+x,y,1/2-z
1/4-y,1/4+x,3/4-z
1/2-x,1/2+y,1/2+z
1/2+x,-y,1/2+z
1/4-y,3/4-x,1/4+z
1/4+y,1/4+x,3/4+z
loop_
_atom_site_type_symbol
_atom_site_label
_atom_site_fract_x
_atom_site_fract_y
_atom_site_fract_z
Si Si1 0.934299 0.160798 0.485504
Si Si2 0.787374 0.183282 0.168676
Si Si3 0.150294 0.812960 0.357152
Si Si4 0.737481 0.817370 0.453674
Si Si5 0.887092 0.186525 0.958941
O O1 0.915648 0.165648 0.375000
O O2 0.931578 0.099321 0.535354
O O3 0.888416 0.192649 0.548659
O O4 0.000000 0.179372 0.491736
O O5 0.773766 0.250000 0.161161
O O6 0.750000 0.155317 0.250000
O O7 0.771688 0.161549 0.062944
O O8 0.159793 0.750000 0.316153
O O9 0.209920 0.839037 0.391805
O O10 0.111405 0.847989 0.284812
O O11 0.748464 0.750000 0.458267
O O12 0.674475 0.824046 0.413050
O O13 0.885787 0.250000 0.001715
O O14 0.932072 0.182072 0.875000
#
# Coordination Sequence:
#
# PCOD9573277 Si02
#       5
#    32  32  32  32  32
#     4  11  21  32  49  82 124 162 197 242 313 386
#     4   9  16  30  52  76 110 156 199 241 289 350
#     4  11  22  36  58  87 119 158 203 256 312 370
#     4   9  19  37  57  83 117 153 205 252 289 356
#     4  11  23  40  61  88 123 163 205 254 319 385
#
# _framework density 20.330833999999999
#
# number of rings (size 3 to 8) (size 9 to 14) (size 15 to 20)
#    0.000    1.800    2.000    3.000    0.000    7.600 
#    0.000    3.000    0.000    0.000    5.200    0.000 
#    0.000    0.000    0.000    0.000    0.000    0.000 
#
# Total GULP energy -445367.182297 kJ/mol
# GULP energy per Si atom -5567.089779 kJ/mol
# Density = 2.028456 g / cm^3
# Si number density = 20.330834 Si / 1000 Ang^3
#
#
#
# Elastic Constant Matrix: (Units=GPa)
#
#
# Indices 1 2 3 4 5 6 
#
# 1 86.5902 41.9575 34.7504 0.0000 0.0000 0.0000
# 2 41.9575 86.5902 34.7504 0.0000 0.0000 0.0000
# 3 34.7504 34.7504 83.1372 0.0000 0.0000 0.0000
# 4 0.0000 0.0000 0.0000 31.0998 0.0000 0.0000
# 5 0.0000 0.0000 0.0000 0.0000 31.0998 0.0000
# 6 0.0000 0.0000 0.0000 0.0000 0.0000 23.0036
#
#
#
# Elastic Compliance Matrix: (Units=1/GPa)
#
#
# Indices 1 2 3 4 5 6 
#
# 1 0.016228 -0.006177 -0.004201 0.000000 0.000000 0.000000
# 2 -0.006177 0.016228 -0.004201 0.000000 0.000000 0.000000
# 3 -0.004201 -0.004201 0.015540 0.000000 0.000000 0.000000
# 4 0.000000 0.000000 0.000000 0.032155 0.000000 0.000000
# 5 0.000000 0.000000 0.000000 0.000000 0.032155 0.000000
# 6 0.000000 0.000000 0.000000 0.000000 0.000000 0.043471
#
#
# Mechanical properties :
#
#
# Convention : Reuss Voigt Hill
#
# Bulk Modulus (GPa) = 53.08619 53.24825 53.16722
# Shear Modulus (GPa) = 26.14867 26.69791 26.42329
#
# Velocity S-wave (km/s) = 3.59020 3.62770 3.60900
# Velocity P-wave (km/s) = 6.58437 6.61776 6.60108
#
# Compressibility (1/GPa) = 0.01883729
#
# Stress axis : x y z
#
# Youngs Moduli (GPa) = 61.62251 61.62251 64.34895
#
# Poissons Ratio (x) = 0.38066 0.27033
# Poissons Ratio (y) = 0.38066 0.27033
# Poissons Ratio (z) = 0.25888 0.25888
#
# Static dielectric constant tensor:
#      x y z
#    x 1.761590 0.000000 0.000000 
#    y 0.000000 1.761590 0.000000 
#    z 0.000000 0.000000 1.782720 
# 
# From -- ./inp_files/6623.got.cif
#   From: 2010.05.17/outbox.cif.g08.bks.cpg/sg141_4_cif.got.tgz:6623.got - 2010.05.20 13:30:51.
