data_PCOD9573126
_publ_section_title
;
Structure prediction by ZEFSAII (Michael W. Deem and Ramdas Pophale) SiO2 
 PCOD9573126
Probable space group: I 41/A M D
;
_chemical_formula_sum "Si O2"
_cell_formula_units_Z 100
_cell_length_a 24.528260
_cell_length_b 24.528260
_cell_length_c 8.088444
_cell_angle_alpha 90.000000
_cell_angle_beta 90.000000
_cell_angle_gamma 90.000000
_cell_volume 4866.295363
_symmetry_space_group_name_H-M "I 41/A M D"
_symmetry_group_IT_number 141
_space_group.IT_coordinate_system_code '2'
_symmetry_cell_setting 'tetragonal'
loop_
_space_group_symop_operation_xyz
x,y,z
1/4-y,3/4+x,1/4+z
-x,1/2-y,z
1/4+y,1/4-x,3/4+z
x,-y,-z
-x,1/2+y,-z
1/4+y,3/4+x,1/4-z
1/4-y,1/4-x,3/4-z
-x,-y,-z
3/4+y,1/4-x,3/4-z
x,1/2+y,-z
3/4-y,3/4+x,1/4-z
-x,y,z
x,1/2-y,z
3/4-y,1/4-x,3/4+z
3/4+y,3/4+x,1/4+z
1/2+x,1/2+y,1/2+z
3/4-y,1/4+x,3/4+z
1/2-x,-y,1/2+z
3/4+y,3/4-x,1/4+z
1/2+x,1/2-y,1/2-z
1/2-x,y,1/2-z
3/4+y,1/4+x,3/4-z
3/4-y,3/4-x,1/4-z
1/2-x,1/2-y,1/2-z
1/4+y,3/4-x,1/4-z
1/2+x,y,1/2-z
1/4-y,1/4+x,3/4-z
1/2-x,1/2+y,1/2+z
1/2+x,-y,1/2+z
1/4-y,3/4-x,1/4+z
1/4+y,1/4+x,3/4+z
loop_
_atom_site_type_symbol
_atom_site_label
_atom_site_fract_x
_atom_site_fract_y
_atom_site_fract_z
Si Si1 0.688593 0.250000 0.818991
Si Si2 0.500000 0.250000 0.625000
Si Si3 0.108965 0.956856 0.758254
Si Si4 0.112709 0.926395 0.370806
Si Si5 0.500000 0.130576 0.760070
O O1 0.750000 0.250000 0.750000
O O2 0.684380 0.198176 0.932616
O O3 0.645947 0.250000 0.671973
O O4 0.500000 0.195473 0.736798
O O5 0.111801 0.943664 0.563507
O O6 0.148982 0.922628 0.877079
O O7 0.111502 0.977537 0.245291
O O8 0.057540 0.890964 0.338665
#
# Coordination Sequence:
#
# PCOD9573126 Si02
#       5
#    16   4  32  32  16
#     4  12  21  37  63  93 120 158 213 252 302 378
#     4  12  28  40  60  90 140 156 192 262 316 360
#     4  10  21  39  63  93 120 164 209 258 304 372
#     4  10  21  39  67  87 125 162 211 254 310 366
#     4  12  23  42  62  94 125 167 202 259 313 368
#
# _framework density 20.549513000000001
#
# number of rings (size 3 to 8) (size 9 to 14) (size 15 to 20)
#    0.000    1.280    3.200    2.880    0.000    2.560 
#    0.000    1.600   28.160    1.920    0.000    0.000 
#    0.000    0.000    0.000    0.000    0.000    0.000 
#
# Total GULP energy -278558.791949 kJ/mol
# GULP energy per Si atom -5571.175839 kJ/mol
# Density = 2.050274 g / cm^3
# Si number density = 20.549513 Si / 1000 Ang^3
#
#
#
# Elastic Constant Matrix: (Units=GPa)
#
#
# Indices 1 2 3 4 5 6 
#
# 1 131.4360 54.2075 28.1066 0.0000 0.0000 0.0000
# 2 54.2075 131.4360 28.1066 0.0000 0.0000 0.0000
# 3 28.1066 28.1066 43.1305 0.0000 0.0000 0.0000
# 4 0.0000 0.0000 0.0000 19.7626 0.0000 0.0000
# 5 0.0000 0.0000 0.0000 0.0000 19.7626 0.0000
# 6 0.0000 0.0000 0.0000 0.0000 0.0000 37.1485
#
#
#
# Elastic Compliance Matrix: (Units=1/GPa)
#
#
# Indices 1 2 3 4 5 6 
#
# 1 0.009830 -0.003119 -0.004373 0.000000 0.000000 0.000000
# 2 -0.003119 0.009830 -0.004373 0.000000 0.000000 0.000000
# 3 -0.004373 -0.004373 0.028885 0.000000 0.000000 0.000000
# 4 0.000000 0.000000 0.000000 0.050601 0.000000 0.000000
# 5 0.000000 0.000000 0.000000 0.000000 0.050601 0.000000
# 6 0.000000 0.000000 0.000000 0.000000 0.000000 0.026919
#
#
# Mechanical properties :
#
#
# Convention : Reuss Voigt Hill
#
# Bulk Modulus (GPa) = 40.29981 58.53820 49.41901
# Shear Modulus (GPa) = 23.96162 28.37352 26.16757
#
# Velocity S-wave (km/s) = 3.41844 3.71986 3.57233
# Velocity P-wave (km/s) = 5.93588 6.85551 6.41220
#
# Compressibility (1/GPa) = 0.02481401
#
# Stress axis : x y z
#
# Youngs Moduli (GPa) = 101.73207 101.73207 34.61982
#
# Poissons Ratio (x) = 0.31729 0.15140
# Poissons Ratio (y) = 0.31729 0.15140
# Poissons Ratio (z) = 0.44490 0.44490
#
# Static dielectric constant tensor:
#      x y z
#    x 1.630250 0.000000 0.000000 
#    y 0.000000 1.630250 0.000000 
#    z 0.000000 0.000000 1.723900 
# 
# From -- ./inp_files/1226.got.cif
#   From: 2010.05.17/outbox.cif.g08.bks.cpg/sg141_1_cif.got.tgz:1226.got - 2010.05.20 13:30:51.
