data_PCOD9573225
_publ_section_title
;
Structure prediction by ZEFSAII (Michael W. Deem and Ramdas Pophale) SiO2 
 PCOD9573225
Probable space group: I 41/A M D
;
_chemical_formula_sum "Si O2"
_cell_formula_units_Z 116
_cell_length_a 17.199912
_cell_length_b 17.199912
_cell_length_c 17.489914
_cell_angle_alpha 90.000000
_cell_angle_beta 90.000000
_cell_angle_gamma 90.000000
_cell_volume 5174.163212
_symmetry_space_group_name_H-M "I 41/A M D"
_symmetry_group_IT_number 141
_space_group.IT_coordinate_system_code '2'
_symmetry_cell_setting 'tetragonal'
loop_
_space_group_symop_operation_xyz
x,y,z
1/4-y,3/4+x,1/4+z
-x,1/2-y,z
1/4+y,1/4-x,3/4+z
x,-y,-z
-x,1/2+y,-z
1/4+y,3/4+x,1/4-z
1/4-y,1/4-x,3/4-z
-x,-y,-z
3/4+y,1/4-x,3/4-z
x,1/2+y,-z
3/4-y,3/4+x,1/4-z
-x,y,z
x,1/2-y,z
3/4-y,1/4-x,3/4+z
3/4+y,3/4+x,1/4+z
1/2+x,1/2+y,1/2+z
3/4-y,1/4+x,3/4+z
1/2-x,-y,1/2+z
3/4+y,3/4-x,1/4+z
1/2+x,1/2-y,1/2-z
1/2-x,y,1/2-z
3/4+y,1/4+x,3/4-z
3/4-y,3/4-x,1/4-z
1/2-x,1/2-y,1/2-z
1/4+y,3/4-x,1/4-z
1/2+x,y,1/2-z
1/4-y,1/4+x,3/4-z
1/2-x,1/2+y,1/2+z
1/2+x,-y,1/2+z
1/4-y,3/4-x,1/4+z
1/4+y,1/4+x,3/4+z
loop_
_atom_site_type_symbol
_atom_site_label
_atom_site_fract_x
_atom_site_fract_y
_atom_site_fract_z
Si Si1 0.392761 0.619019 0.295543
Si Si2 0.790777 0.000000 0.000000
Si Si3 0.500000 0.529695 0.709823
Si Si4 0.000000 0.417766 0.382219
Si Si5 0.679075 0.429075 0.125000
Si Si6 0.913557 0.250000 0.668301
Si Si7 0.000000 0.250000 0.375000
O O1 0.410953 0.660953 0.375000
O O2 0.302443 0.599499 0.297524
O O3 0.431336 0.534043 0.291148
O O4 0.409093 0.674292 0.223580
O O5 0.735993 0.951324 0.943877
O O6 0.500000 0.576961 0.789479
O O7 0.500000 0.592254 0.641504
O O8 0.911401 0.444949 0.399461
O O9 0.000000 0.331353 0.417801
O O10 0.000000 0.250000 0.631883
#
# Coordination Sequence:
#
# PCOD9573225 Si02
#       7
#    32  16  16  16  16  16   4
#     4  12  25  46  71 100 141 188 242 298 363 438
#     4  12  24  42  70 108 140 186 240 304 369 443
#     4  12  25  45  71 104 140 185 240 304 353 437
#     4  10  22  44  69 100 141 187 235 291 365 434
#     4  11  24  43  70 104 143 190 241 302 374 448
#     4  12  29  47  73 108 146 196 247 302 376 455
#     4   8  20  40  68  96 132 184 222 276 344 424
#
# _framework density 22.419084999999999
#
# number of rings (size 3 to 8) (size 9 to 14) (size 15 to 20)
#    0.000    0.552    5.517    2.483    0.966    2.207 
#    0.000    0.000    0.000    0.000    0.000    0.000 
#    0.000    0.000    0.000    0.000    0.000    0.000 
#
# Total GULP energy -323233.968509 kJ/mol
# GULP energy per Si atom -5572.999457 kJ/mol
# Density = 2.236806 g / cm^3
# Si number density = 22.419085 Si / 1000 Ang^3
#
#
#
# Elastic Constant Matrix: (Units=GPa)
#
#
# Indices 1 2 3 4 5 6 
#
# 1 102.4190 55.3658 33.1236 0.0000 0.0000 0.0000
# 2 55.3658 102.4190 33.1236 0.0000 0.0000 0.0000
# 3 33.1236 33.1236 94.0209 0.0000 0.0000 0.0000
# 4 0.0000 0.0000 0.0000 28.1593 0.0000 0.0000
# 5 0.0000 0.0000 0.0000 0.0000 28.1593 0.0000
# 6 0.0000 0.0000 0.0000 0.0000 0.0000 36.1192
#
#
#
# Elastic Compliance Matrix: (Units=1/GPa)
#
#
# Indices 1 2 3 4 5 6 
#
# 1 0.014345 -0.006907 -0.002620 0.000000 0.000000 0.000000
# 2 -0.006907 0.014345 -0.002620 0.000000 0.000000 0.000000
# 3 -0.002620 -0.002620 0.012482 0.000000 0.000000 0.000000
# 4 0.000000 0.000000 0.000000 0.035512 0.000000 0.000000
# 5 0.000000 0.000000 0.000000 0.000000 0.035512 0.000000
# 6 0.000000 0.000000 0.000000 0.000000 0.000000 0.027686
#
#
# Mechanical properties :
#
#
# Convention : Reuss Voigt Hill
#
# Bulk Modulus (GPa) = 59.25372 60.23167 59.74270
# Shear Modulus (GPa) = 29.44555 30.30397 29.87476
#
# Velocity S-wave (km/s) = 3.62804 3.68054 3.65438
# Velocity P-wave (km/s) = 6.63608 6.70719 6.67173
#
# Compressibility (1/GPa) = 0.01687658
#
# Stress axis : x y z
#
# Youngs Moduli (GPa) = 69.70957 69.70957 80.11372
#
# Poissons Ratio (x) = 0.48150 0.20993
# Poissons Ratio (y) = 0.48150 0.20993
# Poissons Ratio (z) = 0.18267 0.18267
#
# Static dielectric constant tensor:
#      x y z
#    x 1.899340 0.000000 0.000000 
#    y 0.000000 1.899340 0.000000 
#    z 0.000000 0.000000 1.823710 
# 
# From -- ./inp_files/8034.got.cif
#   From: 2010.05.17/outbox.cif.g08.bks.cpg/sg141_5_cif.got.tgz:8034.got - 2010.05.20 13:30:51.
