data_PCOD9573893
_publ_section_title
;
Structure prediction by ZEFSAII (Michael W. Deem and Ramdas Pophale) SiO2 
 PCOD9573893
Probable space group: I 41/A C D
;
_chemical_formula_sum "Si O2"
_cell_formula_units_Z 120
_cell_length_a 18.581871
_cell_length_b 18.581871
_cell_length_c 12.900881
_cell_angle_alpha 90.000000
_cell_angle_beta 90.000000
_cell_angle_gamma 90.000000
_cell_volume 4454.492692
_symmetry_space_group_name_H-M "I 41/A C D"
_symmetry_group_IT_number 142
_space_group.IT_coordinate_system_code '2'
_symmetry_cell_setting 'tetragonal'
loop_
_space_group_symop_operation_xyz
x,y,z
1/4-y,3/4+x,1/4+z
-x,1/2-y,z
1/4+y,1/4-x,3/4+z
x,-y,1/2-z
1/2-x,y,-z
3/4+y,1/4+x,1/4-z
1/4-y,1/4-x,1/4-z
-x,-y,-z
3/4+y,1/4-x,3/4-z
x,1/2+y,-z
3/4-y,3/4+x,1/4-z
-x,y,1/2+z
1/2+x,-y,z
1/4-y,3/4-x,3/4+z
3/4+y,3/4+x,3/4+z
1/2+x,1/2+y,1/2+z
3/4-y,1/4+x,3/4+z
1/2-x,-y,1/2+z
3/4+y,3/4-x,1/4+z
1/2+x,1/2-y,-z
-x,1/2+y,1/2-z
1/4+y,3/4+x,3/4-z
3/4-y,3/4-x,3/4-z
1/2-x,1/2-y,1/2-z
1/4+y,3/4-x,1/4-z
1/2+x,y,1/2-z
1/4-y,1/4+x,3/4-z
1/2-x,1/2+y,z
x,1/2-y,1/2+z
3/4-y,1/4-x,1/4+z
1/4+y,1/4+x,1/4+z
loop_
_atom_site_type_symbol
_atom_site_label
_atom_site_fract_x
_atom_site_fract_y
_atom_site_fract_z
Si Si1 0.324858 0.074858 0.375000
Si Si2 0.085768 0.164232 0.125000
Si Si3 0.000000 0.750000 0.125000
Si Si4 0.437700 0.000000 0.750000
Si Si5 0.415461 0.527739 0.017322
Si Si6 0.955839 0.124293 0.247564
O O1 0.254621 0.106601 0.313309
O O2 0.382635 0.089128 0.285295
O O3 0.135543 0.155306 0.227818
O O4 0.101652 0.246231 0.099919
O O5 0.950288 0.804741 0.186468
O O6 0.398043 0.984846 0.641105
O O7 0.492247 0.062288 0.712137
O O8 0.500000 0.500000 0.000000
#
# Coordination Sequence:
#
# PCOD9573893 Si02
#       6
#    16  16   8  16  32  32
#     4  12  22  43  72 107 144 204 272 312 412 504
#     4  10  22  43  68 101 152 196 252 330 410 468
#     4  12  24  30  56 108 144 190 264 320 402 456
#     4  10  22  42  64 100 148 194 238 318 408 456
#     4  11  23  45  71 106 148 204 253 333 402 491
#     4  11  23  37  65  99 142 190 239 327 379 486
#
# _framework density 26.939093
#
# number of rings (size 3 to 8) (size 9 to 14) (size 15 to 20)
#    0.000    1.067    5.333    3.200    3.733    0.000 
#    0.000    0.000    0.000   33.600    0.000    0.000 
#    0.000    0.000    0.000    0.000    0.000    0.000 
#
# Total GULP energy -334404.068069 kJ/mol
# GULP energy per Si atom -5573.401134 kJ/mol
# Density = 2.687778 g / cm^3
# Si number density = 26.939093 Si / 1000 Ang^3
#
#
#
# Elastic Constant Matrix: (Units=GPa)
#
#
# Indices 1 2 3 4 5 6 
#
# 1 -242.0262 368.9284 37.9666 0.0000 0.0000 0.0000
# 2 368.9284 -242.0613 37.9570 0.0000 0.0000 0.0000
# 3 37.9666 37.9570 147.2199 0.0000 0.0000 0.0000
# 4 0.0000 0.0000 0.0000 39.5637 0.0000 0.0000
# 5 0.0000 0.0000 0.0000 0.0000 39.5645 0.0000
# 6 0.0000 0.0000 0.0000 0.0000 0.0000 34.0083
#
#
#
# Elastic Compliance Matrix: (Units=1/GPa)
#
#
# Indices 1 2 3 4 5 6 
#
# 1 0.003841 0.005478 -0.002403 0.000000 0.000000 0.000000
# 2 0.005478 0.003841 -0.002403 0.000000 0.000000 0.000000
# 3 -0.002403 -0.002403 0.008032 0.000000 0.000000 0.000000
# 4 0.000000 0.000000 0.000000 0.025276 0.000000 0.000000
# 5 0.000000 0.000000 0.000000 0.000000 0.025275 0.000000
# 6 0.000000 0.000000 0.000000 0.000000 0.000000 0.029405
#
#
# Mechanical properties :
#
#
# Convention : Reuss Voigt Hill
#
# Bulk Modulus (GPa) = 58.62369 61.42628 60.02499
# Shear Modulus (GPa) = 49.99414 -29.48733 10.25340
#
# Velocity S-wave (km/s) = 4.31260 -3.31205 1.95305
# Velocity P-wave (km/s) = 6.82692 2.86795 5.23603
#
# Compressibility (1/GPa) = 0.01705795
#
# Stress axis : x y z
#
# Youngs Moduli (GPa) = 260.32284 260.35397 124.50482
#
# Poissons Ratio (x) = -1.42619 0.29918
# Poissons Ratio (y) = -1.42602 0.29918
# Poissons Ratio (z) = 0.62555 0.62563
#
# Static dielectric constant tensor:
#      x y z
#    x 2.206080 0.000000 0.000000 
#    y 0.000000 2.206070 0.000000 
#    z 0.000000 0.000000 2.190140 
# 
# From -- ./inp_files/5096.got.cif
#   From: 2010.05.17/outbox.cif.g08.bks.cpg/sg142_3_cif.got.tgz:5096.got - 2010.05.20 13:39:18.
