data_PCOD9573826
_publ_section_title
;
Structure prediction by ZEFSAII (Michael W. Deem and Ramdas Pophale) SiO2 
 PCOD9573826
Probable space group: I 41/A C D
;
_chemical_formula_sum "Si O2"
_cell_formula_units_Z 160
_cell_length_a 16.433333
_cell_length_b 16.433333
_cell_length_c 28.856622
_cell_angle_alpha 90.000000
_cell_angle_beta 90.000000
_cell_angle_gamma 90.000000
_cell_volume 7792.858707
_symmetry_space_group_name_H-M "I 41/A C D"
_symmetry_group_IT_number 142
_space_group.IT_coordinate_system_code '2'
_symmetry_cell_setting 'tetragonal'
loop_
_space_group_symop_operation_xyz
x,y,z
1/4-y,3/4+x,1/4+z
-x,1/2-y,z
1/4+y,1/4-x,3/4+z
x,-y,1/2-z
1/2-x,y,-z
3/4+y,1/4+x,1/4-z
1/4-y,1/4-x,1/4-z
-x,-y,-z
3/4+y,1/4-x,3/4-z
x,1/2+y,-z
3/4-y,3/4+x,1/4-z
-x,y,1/2+z
1/2+x,-y,z
1/4-y,3/4-x,3/4+z
3/4+y,3/4+x,3/4+z
1/2+x,1/2+y,1/2+z
3/4-y,1/4+x,3/4+z
1/2-x,-y,1/2+z
3/4+y,3/4-x,1/4+z
1/2+x,1/2-y,-z
-x,1/2+y,1/2-z
1/4+y,3/4+x,3/4-z
3/4-y,3/4-x,3/4-z
1/2-x,1/2-y,1/2-z
1/4+y,3/4-x,1/4-z
1/2+x,y,1/2-z
1/4-y,1/4+x,3/4-z
1/2-x,1/2+y,z
x,1/2-y,1/2+z
3/4-y,1/4-x,1/4+z
1/4+y,1/4+x,1/4+z
loop_
_atom_site_type_symbol
_atom_site_label
_atom_site_fract_x
_atom_site_fract_y
_atom_site_fract_z
Si Si1 0.399888 0.931394 0.210618
Si Si2 0.403907 0.433742 0.179330
Si Si3 0.984653 0.055412 0.044355
Si Si4 0.569406 0.457471 0.131406
Si Si5 0.409888 0.891690 0.713654
O O1 0.344783 0.852956 0.214653
O O2 0.492629 0.898999 0.210939
O O3 0.389436 0.000000 0.250000
O O4 0.384475 0.976318 0.162203
O O5 0.499220 0.423346 0.165701
O O6 0.354228 0.381676 0.142262
O O7 0.389377 0.403214 0.231823
O O8 0.382241 0.529781 0.183515
O O9 0.056541 0.121069 0.050769
O O10 0.978844 0.001251 0.090176
O O11 0.000000 0.000000 0.000000
#
# Coordination Sequence:
#
# PCOD9573826 Si02
#       5
#    32  32  32  32  32
#     4  11  24  45  69  97 143 184 225 288 356 414
#     4  10  22  42  72 101 139 176 232 285 352 414
#     4  12  26  41  66 105 136 178 239 282 342 422
#     4  11  24  44  66 106 135 180 234 284 349 417
#     4  10  21  48  69  97 140 187 222 287 354 415
#
# _framework density 20.531617000000001
#
# number of rings (size 3 to 8) (size 9 to 14) (size 15 to 20)
#    0.000    1.200    6.000    1.200    2.800    5.200 
#    7.200    4.000    0.000    0.000    0.000    0.000 
#    0.000    0.000    0.000    0.000    0.000    0.000 
#
# Total GULP energy -446984.026363 kJ/mol
# GULP energy per Si atom -5587.300330 kJ/mol
# Density = 2.048489 g / cm^3
# Si number density = 20.531617 Si / 1000 Ang^3
#
#
#
# Elastic Constant Matrix: (Units=GPa)
#
#
# Indices 1 2 3 4 5 6 
#
# 1 86.9080 58.3133 33.6794 0.0000 0.0000 0.0000
# 2 58.3133 86.9080 33.6794 0.0000 0.0000 0.0000
# 3 33.6794 33.6794 94.5687 0.0000 0.0000 0.0000
# 4 0.0000 0.0000 0.0000 39.0243 0.0000 0.0000
# 5 0.0000 0.0000 0.0000 0.0000 39.0243 0.0000
# 6 0.0000 0.0000 0.0000 0.0000 0.0000 31.2309
#
#
#
# Elastic Compliance Matrix: (Units=1/GPa)
#
#
# Indices 1 2 3 4 5 6 
#
# 1 0.021610 -0.013361 -0.002938 0.000000 0.000000 0.000000
# 2 -0.013361 0.021610 -0.002938 0.000000 0.000000 0.000000
# 3 -0.002938 -0.002938 0.012667 0.000000 0.000000 0.000000
# 4 0.000000 0.000000 0.000000 0.025625 0.000000 0.000000
# 5 0.000000 0.000000 0.000000 0.000000 0.025625 0.000000
# 6 0.000000 0.000000 0.000000 0.000000 0.000000 0.032020
#
#
# Mechanical properties :
#
#
# Convention : Reuss Voigt Hill
#
# Bulk Modulus (GPa) = 57.42697 57.74764 57.58730
# Shear Modulus (GPa) = 27.25769 31.37006 29.31388
#
# Velocity S-wave (km/s) = 3.64757 3.91306 3.78265
# Velocity P-wave (km/s) = 6.76539 6.97161 6.86927
#
# Compressibility (1/GPa) = 0.01741342
#
# Stress axis : x y z
#
# Youngs Moduli (GPa) = 46.27475 46.27475 78.94700
#
# Poissons Ratio (x) = 0.61830 0.23192
# Poissons Ratio (y) = 0.61830 0.23192
# Poissons Ratio (z) = 0.13594 0.13594
#
# Static dielectric constant tensor:
#      x y z
#    x 1.749980 0.000000 0.000000 
#    y 0.000000 1.749980 0.000000 
#    z 0.000000 0.000000 1.748540 
# 
# From -- ./inp_files/11277.got.cif
#   From: 2010.05.17/outbox.cif.g08.bks.cpg/sg142_6_cif.got.tgz:11277.got - 2010.05.20 13:39:18.
