data_PCOD9573693
_publ_section_title
;
Structure prediction by ZEFSAII (Michael W. Deem and Ramdas Pophale) SiO2 
 PCOD9573693
Probable space group: I 41/A C D
;
_chemical_formula_sum "Si O2"
_cell_formula_units_Z 176
_cell_length_a 18.193859
_cell_length_b 18.193859
_cell_length_c 25.760204
_cell_angle_alpha 90.000000
_cell_angle_beta 90.000000
_cell_angle_gamma 90.000000
_cell_volume 8527.052704
_symmetry_space_group_name_H-M "I 41/A C D"
_symmetry_group_IT_number 142
_space_group.IT_coordinate_system_code '2'
_symmetry_cell_setting 'tetragonal'
loop_
_space_group_symop_operation_xyz
x,y,z
1/4-y,3/4+x,1/4+z
-x,1/2-y,z
1/4+y,1/4-x,3/4+z
x,-y,1/2-z
1/2-x,y,-z
3/4+y,1/4+x,1/4-z
1/4-y,1/4-x,1/4-z
-x,-y,-z
3/4+y,1/4-x,3/4-z
x,1/2+y,-z
3/4-y,3/4+x,1/4-z
-x,y,1/2+z
1/2+x,-y,z
1/4-y,3/4-x,3/4+z
3/4+y,3/4+x,3/4+z
1/2+x,1/2+y,1/2+z
3/4-y,1/4+x,3/4+z
1/2-x,-y,1/2+z
3/4+y,3/4-x,1/4+z
1/2+x,1/2-y,-z
-x,1/2+y,1/2-z
1/4+y,3/4+x,3/4-z
3/4-y,3/4-x,3/4-z
1/2-x,1/2-y,1/2-z
1/4+y,3/4-x,1/4-z
1/2+x,y,1/2-z
1/4-y,1/4+x,3/4-z
1/2-x,1/2+y,z
x,1/2-y,1/2+z
3/4-y,1/4-x,1/4+z
1/4+y,1/4+x,1/4+z
loop_
_atom_site_type_symbol
_atom_site_label
_atom_site_fract_x
_atom_site_fract_y
_atom_site_fract_z
Si Si1 0.504808 0.836687 0.501686
Si Si2 0.582620 0.532370 0.500483
Si Si3 0.647477 0.124937 0.815043
Si Si4 0.327859 0.972937 0.907826
Si Si5 0.903626 0.180572 0.358576
Si Si6 0.366533 0.000000 0.250000
O O1 0.500000 0.750000 0.502477
O O2 0.429751 0.881253 0.490953
O O3 0.544378 0.865668 0.553337
O O4 0.556282 0.856636 0.452789
O O5 0.500000 0.500000 0.500000
O O6 0.624309 0.480518 0.458867
O O7 0.617245 0.521116 0.556937
O O8 0.644821 0.105180 0.875000
O O9 0.598527 0.069177 0.779710
O O10 0.375070 0.911634 0.876588
O O11 0.282131 0.929409 0.951713
O O12 0.274441 0.024441 0.875000
O O13 0.901376 0.263394 0.381933
#
# Coordination Sequence:
#
# PCOD9573693 Si02
#       6
#    32  32  32  32  32  16
#     4  11  21  43  63  93 132 175 226 276 338 420
#     4   9  19  42  67  85 134 180 209 275 352 410
#     4  10  21  39  64  95 125 176 218 273 340 406
#     4  11  23  43  68 103 134 175 236 285 347 419
#     4  11  22  40  70 101 135 185 234 285 348 420
#     4  10  20  40  62  90 130 170 212 276 324 414
#
# _framework density 20.640191000000002
#
# number of rings (size 3 to 8) (size 9 to 14) (size 15 to 20)
#    0.000    1.636    7.273    0.545    0.000    4.727 
#    6.545    0.000    0.000    0.000    0.000    0.000 
#    0.000    0.000    0.000    0.000    0.000    0.000 
#
# Total GULP energy -490291.421446 kJ/mol
# GULP energy per Si atom -5571.493426 kJ/mol
# Density = 2.059321 g / cm^3
# Si number density = 20.640191 Si / 1000 Ang^3
#
#
#
# Elastic Constant Matrix: (Units=GPa)
#
#
# Indices 1 2 3 4 5 6 
#
# 1 103.1938 33.1106 28.9971 0.0000 0.0000 0.0000
# 2 33.1106 103.1936 28.9972 0.0000 0.0000 0.0000
# 3 28.9971 28.9972 109.2340 0.0000 0.0000 0.0000
# 4 0.0000 0.0000 0.0000 30.2330 0.0000 0.0000
# 5 0.0000 0.0000 0.0000 0.0000 30.2327 0.0000
# 6 0.0000 0.0000 0.0000 0.0000 0.0000 34.8191
#
#
#
# Elastic Compliance Matrix: (Units=1/GPa)
#
#
# Indices 1 2 3 4 5 6 
#
# 1 0.011270 -0.002999 -0.002196 0.000000 0.000000 0.000000
# 2 -0.002999 0.011270 -0.002196 0.000000 0.000000 0.000000
# 3 -0.002196 -0.002196 0.010320 0.000000 0.000000 0.000000
# 4 0.000000 0.000000 0.000000 0.033076 0.000000 0.000000
# 5 0.000000 0.000000 0.000000 0.000000 0.033077 0.000000
# 6 0.000000 0.000000 0.000000 0.000000 0.000000 0.028720
#
#
# Mechanical properties :
#
#
# Convention : Reuss Voigt Hill
#
# Bulk Modulus (GPa) = 55.31111 55.31457 55.31284
# Shear Modulus (GPa) = 33.66110 34.02475 33.84292
#
# Velocity S-wave (km/s) = 4.04276 4.06454 4.05367
# Velocity P-wave (km/s) = 6.97480 6.99178 6.98329
#
# Compressibility (1/GPa) = 0.01807955
#
# Stress axis : x y z
#
# Youngs Moduli (GPa) = 88.73343 88.73325 96.89636
#
# Poissons Ratio (x) = 0.26612 0.21274
# Poissons Ratio (y) = 0.26612 0.21274
# Poissons Ratio (z) = 0.19482 0.19482
#
# Static dielectric constant tensor:
#      x y z
#    x 1.834260 0.000000 0.000000 
#    y 0.000000 1.834260 0.000000 
#    z 0.000000 0.000000 1.738230 
# 
# From -- ./inp_files/11484.got.cif
#   From: 2010.05.17/outbox.cif.g08.bks.cpg/sg142_6_cif.got.tgz:11484.got - 2010.05.20 13:39:18.
