data_PCOD9573045
_publ_section_title
;
Structure prediction by ZEFSAII (Michael W. Deem and Ramdas Pophale) SiO2 
 PCOD9573045
Probable space group: I 41/A M D
;
_chemical_formula_sum "Si O2"
_cell_formula_units_Z 96
_cell_length_a 17.556406
_cell_length_b 17.556406
_cell_length_c 17.341037
_cell_angle_alpha 90.000000
_cell_angle_beta 90.000000
_cell_angle_gamma 90.000000
_cell_volume 5344.982603
_symmetry_space_group_name_H-M "I 41/A M D"
_symmetry_group_IT_number 141
_space_group.IT_coordinate_system_code '2'
_symmetry_cell_setting 'tetragonal'
loop_
_space_group_symop_operation_xyz
x,y,z
1/4-y,3/4+x,1/4+z
-x,1/2-y,z
1/4+y,1/4-x,3/4+z
x,-y,-z
-x,1/2+y,-z
1/4+y,3/4+x,1/4-z
1/4-y,1/4-x,3/4-z
-x,-y,-z
3/4+y,1/4-x,3/4-z
x,1/2+y,-z
3/4-y,3/4+x,1/4-z
-x,y,z
x,1/2-y,z
3/4-y,1/4-x,3/4+z
3/4+y,3/4+x,1/4+z
1/2+x,1/2+y,1/2+z
3/4-y,1/4+x,3/4+z
1/2-x,-y,1/2+z
3/4+y,3/4-x,1/4+z
1/2+x,1/2-y,1/2-z
1/2-x,y,1/2-z
3/4+y,1/4+x,3/4-z
3/4-y,3/4-x,1/4-z
1/2-x,1/2-y,1/2-z
1/4+y,3/4-x,1/4-z
1/2+x,y,1/2-z
1/4-y,1/4+x,3/4-z
1/2-x,1/2+y,1/2+z
1/2+x,-y,1/2+z
1/4-y,3/4-x,1/4+z
1/4+y,1/4+x,3/4+z
loop_
_atom_site_type_symbol
_atom_site_label
_atom_site_fract_x
_atom_site_fract_y
_atom_site_fract_z
Si Si1 0.500000 0.909022 0.983236
Si Si2 0.642091 0.607910 0.875000
Si Si3 0.641315 0.557644 0.202430
Si Si4 0.500000 0.840430 0.148832
Si Si5 0.805543 0.944458 0.125000
O O1 0.425728 0.890803 0.934791
O O2 0.500000 0.857593 0.058379
O O3 0.500000 0.000000 0.000000
O O4 0.720486 0.618724 0.923324
O O5 0.574487 0.614707 0.178895
O O6 0.720381 0.573544 0.156869
O O7 0.648455 0.563746 0.295137
O O8 0.500000 0.750000 0.165833
#
# Coordination Sequence:
#
# PCOD9573045 Si02
#       5
#    16  16  32  16  16
#     4  12  24  42  64 104 135 173 216 267 334 419
#     4  11  22  37  68  95 139 172 211 257 334 406
#     4  10  20  41  63  94 122 173 211 268 319 394
#     4  12  26  44  62  90 138 169 213 274 335 384
#     4   9  20  38  69  89 117 159 228 259 314 382
#
# _framework density 17.960768999999999
#
# number of rings (size 3 to 8) (size 9 to 14) (size 15 to 20)
#    0.000    1.333    3.333    2.000    7.000    0.000 
#   12.000    1.667    0.000    0.000    0.000    0.000 
#    0.000    0.000    0.000    0.000    0.000    0.000 
#
# Total GULP energy -267426.786083 kJ/mol
# GULP energy per Si atom -5571.391377 kJ/mol
# Density = 1.791989 g / cm^3
# Si number density = 17.960769 Si / 1000 Ang^3
#
#
#
# Elastic Constant Matrix: (Units=GPa)
#
#
# Indices 1 2 3 4 5 6 
#
# 1 129.2354 90.2564 76.4332 0.0000 0.0000 0.0000
# 2 90.2564 129.2335 76.4358 0.0000 0.0000 0.0000
# 3 76.4332 76.4358 182.8674 0.0000 0.0000 0.0000
# 4 0.0000 0.0000 0.0000 29.4194 0.0000 0.0000
# 5 0.0000 0.0000 0.0000 0.0000 29.4153 0.0000
# 6 0.0000 0.0000 0.0000 0.0000 0.0000 26.8222
#
#
#
# Elastic Compliance Matrix: (Units=1/GPa)
#
#
# Indices 1 2 3 4 5 6 
#
# 1 0.016041 -0.009614 -0.002686 0.000000 0.000000 0.000000
# 2 -0.009614 0.016042 -0.002687 0.000000 0.000000 0.000000
# 3 -0.002686 -0.002687 0.007714 0.000000 0.000000 0.000000
# 4 0.000000 0.000000 0.000000 0.033991 0.000000 0.000000
# 5 0.000000 0.000000 0.000000 0.000000 0.033996 0.000000
# 6 0.000000 0.000000 0.000000 0.000000 0.000000 0.037283
#
#
# Mechanical properties :
#
#
# Convention : Reuss Voigt Hill
#
# Bulk Modulus (GPa) = 101.80505 103.06523 102.43514
# Shear Modulus (GPa) = 28.04040 30.34544 29.19292
#
# Velocity S-wave (km/s) = 3.95549 4.11486 4.03596
# Velocity P-wave (km/s) = 8.81284 8.94898 8.88117
#
# Compressibility (1/GPa) = 0.00982270
#
# Stress axis : x y z
#
# Youngs Moduli (GPa) = 62.34085 62.33821 129.63298
#
# Poissons Ratio (x) = 0.59933 0.34819
# Poissons Ratio (y) = 0.59936 0.34828
# Poissons Ratio (z) = 0.16745 0.16748
#
# Static dielectric constant tensor:
#      x y z
#    x 1.615590 0.000000 0.000000 
#    y 0.000000 1.615590 0.000000 
#    z 0.000000 0.000000 1.679250 
# 
# From -- ./inp_files/7771.got.cif
#   From: 2010.05.17/outbox.cif.g08.bks.cpg/sg141_4_cif.got.tgz:7771.got - 2010.05.20 13:30:51.
