data_PCOD9573845
_publ_section_title
;
Structure prediction by ZEFSAII (Michael W. Deem and Ramdas Pophale) SiO2 
 PCOD9573845
Probable space group: I 41/A C D
;
_chemical_formula_sum "Si O2"
_cell_formula_units_Z 80
_cell_length_a 23.600264
_cell_length_b 23.600264
_cell_length_c 5.358125
_cell_angle_alpha 90.000000
_cell_angle_beta 90.000000
_cell_angle_gamma 90.000000
_cell_volume 2984.328067
_symmetry_space_group_name_H-M "I 41/A C D"
_symmetry_group_IT_number 142
_space_group.IT_coordinate_system_code '2'
_symmetry_cell_setting 'tetragonal'
loop_
_space_group_symop_operation_xyz
x,y,z
1/4-y,3/4+x,1/4+z
-x,1/2-y,z
1/4+y,1/4-x,3/4+z
x,-y,1/2-z
1/2-x,y,-z
3/4+y,1/4+x,1/4-z
1/4-y,1/4-x,1/4-z
-x,-y,-z
3/4+y,1/4-x,3/4-z
x,1/2+y,-z
3/4-y,3/4+x,1/4-z
-x,y,1/2+z
1/2+x,-y,z
1/4-y,3/4-x,3/4+z
3/4+y,3/4+x,3/4+z
1/2+x,1/2+y,1/2+z
3/4-y,1/4+x,3/4+z
1/2-x,-y,1/2+z
3/4+y,3/4-x,1/4+z
1/2+x,1/2-y,-z
-x,1/2+y,1/2-z
1/4+y,3/4+x,3/4-z
3/4-y,3/4-x,3/4-z
1/2-x,1/2-y,1/2-z
1/4+y,3/4-x,1/4-z
1/2+x,y,1/2-z
1/4-y,1/4+x,3/4-z
1/2-x,1/2+y,z
x,1/2-y,1/2+z
3/4-y,1/4-x,1/4+z
1/4+y,1/4+x,1/4+z
loop_
_atom_site_type_symbol
_atom_site_label
_atom_site_fract_x
_atom_site_fract_y
_atom_site_fract_z
Si Si1 0.861807 0.111807 0.125000
Si Si2 0.614604 0.763279 0.751769
Si Si3 0.419689 0.464200 0.509137
O O1 0.861979 0.173226 0.255329
O O2 0.865338 0.066408 0.351070
O O3 0.583033 0.755033 0.495480
O O4 0.666051 0.717459 0.726216
O O5 0.441149 0.500000 0.750000
O O6 0.410327 0.500000 0.250000
#
# Coordination Sequence:
#
# PCOD9573845 Si02
#       3
#    16  32  32
#     4  10  24  40  64  99 140 182 234 302 370 430
#     4  10  22  38  61  91 132 174 223 285 353 426
#     4  11  24  42  67 101 139 183 239 301 364 431
#
# _framework density 26.806702999999999
#
# number of rings (size 3 to 8) (size 9 to 14) (size 15 to 20)
#    0.000    1.600    0.000    4.800    0.000   33.600 
#    0.000    0.000    0.000   57.600    0.000   11.200 
#    0.000    3.200    0.000    0.000    0.000    0.000 
#
# Total GULP energy -223269.363852 kJ/mol
# GULP energy per Si atom -5581.734096 kJ/mol
# Density = 2.674569 g / cm^3
# Si number density = 26.806703 Si / 1000 Ang^3
#
#
#
# Elastic Constant Matrix: (Units=GPa)
#
#
# Indices 1 2 3 4 5 6 
#
# 1 79.1516 59.3294 70.8753 0.0000 0.0000 0.0000
# 2 59.3294 79.1516 70.8753 0.0000 0.0000 0.0000
# 3 70.8753 70.8753 279.5160 0.0000 0.0000 0.0000
# 4 0.0000 0.0000 0.0000 57.2331 0.0000 0.0000
# 5 0.0000 0.0000 0.0000 0.0000 57.2331 0.0000
# 6 0.0000 0.0000 0.0000 0.0000 0.0000 41.4179
#
#
#
# Elastic Compliance Matrix: (Units=1/GPa)
#
#
# Indices 1 2 3 4 5 6 
#
# 1 0.030100 -0.020348 -0.002473 0.000000 0.000000 0.000000
# 2 -0.020348 0.030100 -0.002473 0.000000 0.000000 0.000000
# 3 -0.002473 -0.002473 0.004832 0.000000 0.000000 0.000000
# 4 0.000000 0.000000 0.000000 0.017472 0.000000 0.000000
# 5 0.000000 0.000000 0.000000 0.000000 0.017472 0.000000
# 6 0.000000 0.000000 0.000000 0.000000 0.000000 0.024144
#
#
# Mechanical properties :
#
#
# Convention : Reuss Voigt Hill
#
# Bulk Modulus (GPa) = 69.22757 93.33104 81.27931
# Shear Modulus (GPa) = 27.85143 46.95943 37.40543
#
# Velocity S-wave (km/s) = 3.22681 4.18997 3.73953
# Velocity P-wave (km/s) = 6.30586 7.63542 7.00227
#
# Compressibility (1/GPa) = 0.01444511
#
# Stress axis : x y z
#
# Youngs Moduli (GPa) = 33.22212 33.22212 206.96724
#
# Poissons Ratio (x) = 0.67600 0.51181
# Poissons Ratio (y) = 0.67600 0.51181
# Poissons Ratio (z) = 0.08215 0.08215
#
# Static dielectric constant tensor:
#      x y z
#    x 2.204140 0.000000 0.000000 
#    y 0.000000 2.204140 0.000000 
#    z 0.000000 0.000000 2.266650 
# 
# From -- ./inp_files/592.got.cif
#   From: 2010.05.17/outbox.cif.g08.bks.cpg/sg142_1_cif.got.tgz:592.got - 2010.05.20 13:39:18.
