data_PCOD9573117
_publ_section_title
;
Structure prediction by ZEFSAII (Michael W. Deem and Ramdas Pophale) SiO2 
 PCOD9573117
Probable space group: I 41/A M D
;
_chemical_formula_sum "Si O2"
_cell_formula_units_Z 176
_cell_length_a 17.012894
_cell_length_b 17.012894
_cell_length_c 30.236108
_cell_angle_alpha 90.000000
_cell_angle_beta 90.000000
_cell_angle_gamma 90.000000
_cell_volume 8751.495628
_symmetry_space_group_name_H-M "I 41/A M D"
_symmetry_group_IT_number 141
_space_group.IT_coordinate_system_code '2'
_symmetry_cell_setting 'tetragonal'
loop_
_space_group_symop_operation_xyz
x,y,z
1/4-y,3/4+x,1/4+z
-x,1/2-y,z
1/4+y,1/4-x,3/4+z
x,-y,-z
-x,1/2+y,-z
1/4+y,3/4+x,1/4-z
1/4-y,1/4-x,3/4-z
-x,-y,-z
3/4+y,1/4-x,3/4-z
x,1/2+y,-z
3/4-y,3/4+x,1/4-z
-x,y,z
x,1/2-y,z
3/4-y,1/4-x,3/4+z
3/4+y,3/4+x,1/4+z
1/2+x,1/2+y,1/2+z
3/4-y,1/4+x,3/4+z
1/2-x,-y,1/2+z
3/4+y,3/4-x,1/4+z
1/2+x,1/2-y,1/2-z
1/2-x,y,1/2-z
3/4+y,1/4+x,3/4-z
3/4-y,3/4-x,1/4-z
1/2-x,1/2-y,1/2-z
1/4+y,3/4-x,1/4-z
1/2+x,y,1/2-z
1/4-y,1/4+x,3/4-z
1/2-x,1/2+y,1/2+z
1/2+x,-y,1/2+z
1/4-y,3/4-x,1/4+z
1/4+y,1/4+x,3/4+z
loop_
_atom_site_type_symbol
_atom_site_label
_atom_site_fract_x
_atom_site_fract_y
_atom_site_fract_z
Si Si1 0.591181 0.155527 0.942546
Si Si2 0.328956 0.346224 0.398394
Si Si3 0.907197 0.591764 0.987807
Si Si4 0.094302 0.841022 0.171698
Si Si5 0.157937 0.092064 0.375000
Si Si6 0.910699 0.343849 0.287218
O O1 0.500000 0.129459 0.942039
O O2 0.593110 0.250000 0.944337
O O3 0.621487 0.128241 0.895189
O O4 0.625769 0.128887 0.990029
O O5 0.326014 0.250000 0.401430
O O6 0.365159 0.380778 0.443323
O O7 0.244771 0.384790 0.389859
O O8 0.000000 0.612075 0.982509
O O9 0.901909 0.500000 0.000000
O O10 0.872834 0.633763 0.031552
O O11 0.124799 0.874799 0.125000
O O12 0.122328 0.750000 0.174151
O O13 0.000000 0.839435 0.168139
O O14 0.137621 0.141483 0.331217
O O15 0.916015 0.250000 0.281483
O O16 0.000000 0.374043 0.294196
#
# Coordination Sequence:
#
# PCOD9573117 Si02
#       6
#    32  32  32  32  16  32
#     4   8  16  33  59  88 111 140 194 254 301 352
#     4  11  23  40  61  87 121 163 208 255 309 375
#     4  10  21  39  61  88 122 159 202 257 317 375
#     4   8  14  28  54  86 113 143 192 248 296 353
#     4  12  24  37  52  82 124 158 200 251 310 372
#     4   9  17  33  58  84 111 147 195 249 298 354
#
# _framework density 20.110848000000001
#
# number of rings (size 3 to 8) (size 9 to 14) (size 15 to 20)
#    0.000    2.545    0.000    4.364    0.000    3.273 
#    4.909    2.727    0.000    6.545    0.000    0.000 
#    0.000    0.000    0.000    0.000    0.000    0.000 
#
# Total GULP energy -490040.884915 kJ/mol
# GULP energy per Si atom -5568.646419 kJ/mol
# Density = 2.006507 g / cm^3
# Si number density = 20.110848 Si / 1000 Ang^3
#
#
#
# Elastic Constant Matrix: (Units=GPa)
#
#
# Indices 1 2 3 4 5 6 
#
# 1 35.5127 20.6458 53.8124 0.0000 0.0000 0.0000
# 2 20.6458 35.5120 53.8126 0.0000 0.0000 0.0000
# 3 53.8124 53.8126 256.9150 0.0000 0.0000 0.0000
# 4 0.0000 0.0000 0.0000 8.5102 0.0000 0.0000
# 5 0.0000 0.0000 0.0000 0.0000 8.5111 0.0000
# 6 0.0000 0.0000 0.0000 0.0000 0.0000 10.9655
#
#
#
# Elastic Compliance Matrix: (Units=1/GPa)
#
#
# Indices 1 2 3 4 5 6 
#
# 1 0.048506 -0.018758 -0.006231 0.000000 0.000000 0.000000
# 2 -0.018758 0.048507 -0.006231 0.000000 0.000000 0.000000
# 3 -0.006231 -0.006231 0.006503 0.000000 0.000000 0.000000
# 4 0.000000 0.000000 0.000000 0.117507 0.000000 0.000000
# 5 0.000000 0.000000 0.000000 0.000000 0.117494 0.000000
# 6 0.000000 0.000000 0.000000 0.000000 0.000000 0.091195
#
#
# Mechanical properties :
#
#
# Convention : Reuss Voigt Hill
#
# Bulk Modulus (GPa) = 24.34553 64.94238 44.64395
# Shear Modulus (GPa) = 9.88447 18.90859 14.39653
#
# Velocity S-wave (km/s) = 2.21938 3.06963 2.67846
# Velocity P-wave (km/s) = 4.32429 6.70267 5.64027
#
# Compressibility (1/GPa) = 0.04107530
#
# Stress axis : x y z
#
# Youngs Moduli (GPa) = 20.61611 20.61542 153.78512
#
# Poissons Ratio (x) = 0.38671 0.95820
# Poissons Ratio (y) = 0.38672 0.95826
# Poissons Ratio (z) = 0.12845 0.12846
#
# Static dielectric constant tensor:
#      x y z
#    x 1.805800 0.000000 0.000000 
#    y 0.000000 1.805770 0.000000 
#    z 0.000000 0.000000 1.797270 
# 
# From -- ./inp_files/12877.got.cif
#   From: 2010.05.17/outbox.cif.g08.bks.cpg/sg141_7_cif.got.tgz:12877.got - 2010.05.20 13:30:51.
