data_PCOD9573018
_publ_section_title
;
Structure prediction by ZEFSAII (Michael W. Deem and Ramdas Pophale) SiO2 
 PCOD9573018
Probable space group: I 41/A M D
;
_chemical_formula_sum "Si O2"
_cell_formula_units_Z 112
_cell_length_a 23.878393
_cell_length_b 23.878393
_cell_length_c 10.311908
_cell_angle_alpha 90.000000
_cell_angle_beta 90.000000
_cell_angle_gamma 90.000000
_cell_volume 5879.619494
_symmetry_space_group_name_H-M "I 41/A M D"
_symmetry_group_IT_number 141
_space_group.IT_coordinate_system_code '2'
_symmetry_cell_setting 'tetragonal'
loop_
_space_group_symop_operation_xyz
x,y,z
1/4-y,3/4+x,1/4+z
-x,1/2-y,z
1/4+y,1/4-x,3/4+z
x,-y,-z
-x,1/2+y,-z
1/4+y,3/4+x,1/4-z
1/4-y,1/4-x,3/4-z
-x,-y,-z
3/4+y,1/4-x,3/4-z
x,1/2+y,-z
3/4-y,3/4+x,1/4-z
-x,y,z
x,1/2-y,z
3/4-y,1/4-x,3/4+z
3/4+y,3/4+x,1/4+z
1/2+x,1/2+y,1/2+z
3/4-y,1/4+x,3/4+z
1/2-x,-y,1/2+z
3/4+y,3/4-x,1/4+z
1/2+x,1/2-y,1/2-z
1/2-x,y,1/2-z
3/4+y,1/4+x,3/4-z
3/4-y,3/4-x,1/4-z
1/2-x,1/2-y,1/2-z
1/4+y,3/4-x,1/4-z
1/2+x,y,1/2-z
1/4-y,1/4+x,3/4-z
1/2-x,1/2+y,1/2+z
1/2+x,-y,1/2+z
1/4-y,3/4-x,1/4+z
1/4+y,1/4+x,3/4+z
loop_
_atom_site_type_symbol
_atom_site_label
_atom_site_fract_x
_atom_site_fract_y
_atom_site_fract_z
Si Si1 0.500000 0.446454 0.700471
Si Si2 0.391497 0.376592 0.761340
Si Si3 0.000000 0.930762 0.667310
Si Si4 0.618486 0.934050 0.976996
Si Si5 0.500000 0.618939 0.550946
O O1 0.447519 0.412003 0.751210
O O2 0.500000 0.507156 0.766722
O O3 0.500000 0.436373 0.543604
O O4 0.360892 0.389109 0.625000
O O5 0.398384 0.309144 0.767719
O O6 0.366524 0.398788 0.894400
O O7 0.944036 0.922086 0.581286
O O8 0.000000 0.892507 0.795846
O O9 0.663833 0.913833 0.875000
O O10 0.620449 0.000000 0.000000
#
# Coordination Sequence:
#
# PCOD9573018 Si02
#       5
#    16  32  16  32  16
#     4  10  20  37  63  93 125 163 216 247 319 377
#     4  10  21  39  61  93 129 163 206 256 318 381
#     4  12  21  38  68  93 123 164 219 264 312 369
#     4  12  24  42  66  94 127 165 215 265 316 373
#     4  10  21  36  60  97 126 165 201 264 315 376
#
# _framework density 19.048852
#
# number of rings (size 3 to 8) (size 9 to 14) (size 15 to 20)
#    0.000    1.143    5.714    1.714    0.000    0.571 
#    0.000    5.714    0.000    0.429    0.000    0.000 
#    0.000    0.000    0.000    0.000    0.000    0.000 
#
# Total GULP energy -312009.832715 kJ/mol
# GULP energy per Si atom -5571.604156 kJ/mol
# Density = 1.900550 g / cm^3
# Si number density = 19.048852 Si / 1000 Ang^3
#
#
#
# Elastic Constant Matrix: (Units=GPa)
#
#
# Indices 1 2 3 4 5 6 
#
# 1 37.5331 -6.1325 11.7347 0.0000 0.0000 0.0000
# 2 -6.1325 37.5327 11.7345 0.0000 0.0000 0.0000
# 3 11.7347 11.7345 152.2200 0.0000 0.0000 0.0000
# 4 0.0000 0.0000 0.0000 28.3191 0.0000 0.0000
# 5 0.0000 0.0000 0.0000 0.0000 28.3185 0.0000
# 6 0.0000 0.0000 0.0000 0.0000 0.0000 18.5186
#
#
#
# Elastic Compliance Matrix: (Units=1/GPa)
#
#
# Indices 1 2 3 4 5 6 
#
# 1 0.028348 0.005446 -0.002605 0.000000 0.000000 0.000000
# 2 0.005446 0.028348 -0.002605 0.000000 0.000000 0.000000
# 3 -0.002605 -0.002605 0.006971 0.000000 0.000000 0.000000
# 4 0.000000 0.000000 0.000000 0.035312 0.000000 0.000000
# 5 0.000000 0.000000 0.000000 0.000000 0.035313 0.000000
# 6 0.000000 0.000000 0.000000 0.000000 0.000000 0.054000
#
#
# Mechanical properties :
#
#
# Convention : Reuss Voigt Hill
#
# Bulk Modulus (GPa) = 15.59132 29.10657 22.34894
# Shear Modulus (GPa) = 23.90077 29.02784 26.46431
#
# Velocity S-wave (km/s) = 3.54603 3.90790 3.73136
# Velocity P-wave (km/s) = 4.99684 5.97289 5.50654
#
# Compressibility (1/GPa) = 0.06413826
#
# Stress axis : x y z
#
# Youngs Moduli (GPa) = 35.27643 35.27612 143.44938
#
# Poissons Ratio (x) = -0.19212 0.37371
# Poissons Ratio (y) = -0.19212 0.37371
# Poissons Ratio (z) = 0.09190 0.09190
#
# Static dielectric constant tensor:
#      x y z
#    x 1.680320 0.000000 0.000000 
#    y 0.000000 1.680320 0.000000 
#    z 0.000000 0.000000 1.771760 
# 
# From -- ./inp_files/4499.got.cif
#   From: 2010.05.17/outbox.cif.g08.bks.cpg/sg141_3_cif.got.tgz:4499.got - 2010.05.20 13:30:51.
