data_PCOD9573788
_publ_section_title
;
Structure prediction by ZEFSAII (Michael W. Deem and Ramdas Pophale) SiO2 
 PCOD9573788
Probable space group: I 41/A C D
;
_chemical_formula_sum "Si O2"
_cell_formula_units_Z 72
_cell_length_a 10.472925
_cell_length_b 10.472925
_cell_length_c 24.614393
_cell_angle_alpha 90.000000
_cell_angle_beta 90.000000
_cell_angle_gamma 90.000000
_cell_volume 2699.759743
_symmetry_space_group_name_H-M "I 41/A C D"
_symmetry_group_IT_number 142
_space_group.IT_coordinate_system_code '2'
_symmetry_cell_setting 'tetragonal'
loop_
_space_group_symop_operation_xyz
x,y,z
1/4-y,3/4+x,1/4+z
-x,1/2-y,z
1/4+y,1/4-x,3/4+z
x,-y,1/2-z
1/2-x,y,-z
3/4+y,1/4+x,1/4-z
1/4-y,1/4-x,1/4-z
-x,-y,-z
3/4+y,1/4-x,3/4-z
x,1/2+y,-z
3/4-y,3/4+x,1/4-z
-x,y,1/2+z
1/2+x,-y,z
1/4-y,3/4-x,3/4+z
3/4+y,3/4+x,3/4+z
1/2+x,1/2+y,1/2+z
3/4-y,1/4+x,3/4+z
1/2-x,-y,1/2+z
3/4+y,3/4-x,1/4+z
1/2+x,1/2-y,-z
-x,1/2+y,1/2-z
1/4+y,3/4+x,3/4-z
3/4-y,3/4-x,3/4-z
1/2-x,1/2-y,1/2-z
1/4+y,3/4-x,1/4-z
1/2+x,y,1/2-z
1/4-y,1/4+x,3/4-z
1/2-x,1/2+y,z
x,1/2-y,1/2+z
3/4-y,1/4-x,1/4+z
1/4+y,1/4+x,1/4+z
loop_
_atom_site_type_symbol
_atom_site_label
_atom_site_fract_x
_atom_site_fract_y
_atom_site_fract_z
Si Si1 0.189703 0.125862 0.948886
Si Si2 0.237954 0.309997 0.327224
Si Si3 0.000000 0.750000 0.875000
O O1 0.294089 0.009673 0.941829
O O2 0.191243 0.189999 0.889981
O O3 0.250000 0.199132 0.000000
O O4 0.042737 0.089067 0.957273
O O5 0.378803 0.253873 0.336262
#
# Coordination Sequence:
#
# PCOD9573788 Si02
#       3
#    32  32   8
#     4  10  21  40  65  93 130 177 220 281 344 396
#     4  10  21  39  62  93 130 166 225 273 325 412
#     4   8  16  36  56  84 132 170 192 268 336 380
#
# _framework density 26.669038
#
# number of rings (size 3 to 8) (size 9 to 14) (size 15 to 20)
#    0.000    2.667    0.000    4.000    0.000    0.889 
#    0.000   53.333    0.000    0.000    0.000    0.000 
#    0.000    0.000    0.000    0.000    0.000    0.000 
#
# Total GULP energy -201121.915794 kJ/mol
# GULP energy per Si atom -5586.719883 kJ/mol
# Density = 2.660834 g / cm^3
# Si number density = 26.669038 Si / 1000 Ang^3
#
#
#
# Elastic Constant Matrix: (Units=GPa)
#
#
# Indices 1 2 3 4 5 6 
#
# 1 99.0365 33.5021 32.2913 0.0000 0.0000 0.0000
# 2 33.5021 99.0365 32.2913 0.0000 0.0000 0.0000
# 3 32.2913 32.2913 128.8243 0.0000 0.0000 0.0000
# 4 0.0000 0.0000 0.0000 26.9204 0.0000 0.0000
# 5 0.0000 0.0000 0.0000 0.0000 26.9204 0.0000
# 6 0.0000 0.0000 0.0000 0.0000 0.0000 21.3191
#
#
#
# Elastic Compliance Matrix: (Units=1/GPa)
#
#
# Indices 1 2 3 4 5 6 
#
# 1 0.011927 -0.003332 -0.002154 0.000000 0.000000 0.000000
# 2 -0.003332 0.011927 -0.002154 0.000000 0.000000 0.000000
# 3 -0.002154 -0.002154 0.008843 0.000000 0.000000 0.000000
# 4 0.000000 0.000000 0.000000 0.037146 0.000000 0.000000
# 5 0.000000 0.000000 0.000000 0.000000 0.037146 0.000000
# 6 0.000000 0.000000 0.000000 0.000000 0.000000 0.046906
#
#
# Mechanical properties :
#
#
# Convention : Reuss Voigt Hill
#
# Bulk Modulus (GPa) = 57.42324 58.11849 57.77087
# Shear Modulus (GPa) = 28.57429 30.28618 29.43024
#
# Velocity S-wave (km/s) = 3.27684 3.37357 3.32555
# Velocity P-wave (km/s) = 5.99128 6.08395 6.03779
#
# Compressibility (1/GPa) = 0.01741455
#
# Stress axis : x y z
#
# Youngs Moduli (GPa) = 83.84377 83.84377 113.08964
#
# Poissons Ratio (x) = 0.27938 0.24364
# Poissons Ratio (y) = 0.27938 0.24364
# Poissons Ratio (z) = 0.18063 0.18063
#
# Static dielectric constant tensor:
#      x y z
#    x 2.093390 0.000000 0.000000 
#    y 0.000000 2.093390 0.000000 
#    z 0.000000 0.000000 2.134770 
# 
# From -- ./inp_files/10756.got.cif
#   From: 2010.05.17/outbox.cif.g08.bks.cpg/sg142_6_cif.got.tgz:10756.got - 2010.05.20 13:39:18.
