data_PCOD9573391
_publ_section_title
;
Structure prediction by ZEFSAII (Michael W. Deem and Ramdas Pophale) SiO2 
 PCOD9573391
Probable space group: I 41/A M D
;
_chemical_formula_sum "Si O2"
_cell_formula_units_Z 80
_cell_length_a 21.000000
_cell_length_b 21.000000
_cell_length_c 18.000000
_cell_angle_alpha 90.000000
_cell_angle_beta 90.000000
_cell_angle_gamma 90.000000
_cell_volume 7938.000000
_symmetry_space_group_name_H-M "I 41/A M D"
_symmetry_group_IT_number 141
_space_group.IT_coordinate_system_code '2'
_symmetry_cell_setting 'tetragonal'
loop_
_space_group_symop_operation_xyz
x,y,z
1/4-y,3/4+x,1/4+z
-x,1/2-y,z
1/4+y,1/4-x,3/4+z
x,-y,-z
-x,1/2+y,-z
1/4+y,3/4+x,1/4-z
1/4-y,1/4-x,3/4-z
-x,-y,-z
3/4+y,1/4-x,3/4-z
x,1/2+y,-z
3/4-y,3/4+x,1/4-z
-x,y,z
x,1/2-y,z
3/4-y,1/4-x,3/4+z
3/4+y,3/4+x,1/4+z
1/2+x,1/2+y,1/2+z
3/4-y,1/4+x,3/4+z
1/2-x,-y,1/2+z
3/4+y,3/4-x,1/4+z
1/2+x,1/2-y,1/2-z
1/2-x,y,1/2-z
3/4+y,1/4+x,3/4-z
3/4-y,3/4-x,1/4-z
1/2-x,1/2-y,1/2-z
1/4+y,3/4-x,1/4-z
1/2+x,y,1/2-z
1/4-y,1/4+x,3/4-z
1/2-x,1/2+y,1/2+z
1/2+x,-y,1/2+z
1/4-y,3/4-x,1/4+z
1/4+y,1/4+x,3/4+z
loop_
_atom_site_type_symbol
_atom_site_label
_atom_site_fract_x
_atom_site_fract_y
_atom_site_fract_z
Si Si1 0.793425 0.250000 0.408242
Si Si2 0.643361 0.250000 0.402730
Si Si3 0.230606 0.980606 0.125000
Si Si4 0.925851 0.377836 0.080552
Si Si5 0.500000 0.362451 0.023238
Si Si6 0.250000 0.123749 0.750000
Si Si7 0.665244 0.000000 0.000000
Si Si8 0.134822 0.645344 0.503616
O O1 0.718425 0.250000 0.405274
O O2 0.828030 0.250000 0.328932
O O3 0.813959 0.185582 0.451234
O O4 0.614585 0.314497 0.437009
O O5 0.628103 0.250000 0.314709
O O6 0.231396 0.921120 0.180437
O O7 0.234452 0.041474 0.178583
O O8 0.908886 0.394194 0.166332
O O9 0.000000 0.361555 0.077511
O O10 0.911596 0.438115 0.028241
O O11 0.432911 0.328021 0.031911
O O12 0.632569 0.068564 0.014778
#
# Coordination Sequence:
#
# PCOD9573391 Si02
#       8
#    16  16  16  32  16  16  16  32
#     4  12  25  42  63 101 133 176 231 282 334 398
#     4  10  26  40  69  92 135 177 227 268 341 414
#     4  10  24  38  64  96 143 165 220 274 358 400
#     4  11  23  46  68 101 130 177 225 280 338 414
#     4  10  25  40  59  93 133 181 224 274 321 397
#     4  11  23  42  71 105 130 176 222 290 344 412
#     4  11  24  39  63  97 133 177 218 282 340 409
#     4  11  25  41  66  94 137 179 231 273 341 400
#
# _framework density 10.078105000000001
#
# number of rings (size 3 to 8) (size 9 to 14) (size 15 to 20)
#    0.000    1.200    3.000    1.500   14.000    0.400 
#    0.000    1.000    2.200    0.000    0.000    0.000 
#    0.000    0.000    0.000    0.000    0.000    0.000 
#
# Total GULP energy -446761.477389 kJ/mol
# GULP energy per Si atom -5584.518467 kJ/mol
# Density = 1.005517 g / cm^3
# Si number density = 10.078105 Si / 1000 Ang^3
#
#
#
# Elastic Constant Matrix: (Units=GPa)
#
#
# Indices 1 2 3 4 5 6 
#
# 1 56.9426 1.7307 12.4615 0.0000 0.0000 0.0000
# 2 1.7307 56.9426 12.4615 0.0000 0.0000 0.0000
# 3 12.4615 12.4615 65.9606 0.0000 0.0000 0.0000
# 4 0.0000 0.0000 0.0000 8.1210 0.0000 0.0000
# 5 0.0000 0.0000 0.0000 0.0000 8.1210 0.0000
# 6 0.0000 0.0000 0.0000 0.0000 0.0000 23.0405
#
#
#
# Elastic Compliance Matrix: (Units=1/GPa)
#
#
# Indices 1 2 3 4 5 6 
#
# 1 0.018321 0.000209 -0.003501 0.000000 0.000000 0.000000
# 2 0.000209 0.018321 -0.003501 0.000000 0.000000 0.000000
# 3 -0.003501 -0.003501 0.016483 0.000000 0.000000 0.000000
# 4 0.000000 0.000000 0.000000 0.123137 0.000000 0.000000
# 5 0.000000 0.000000 0.000000 0.000000 0.123137 0.000000
# 6 0.000000 0.000000 0.000000 0.000000 0.000000 0.043402
#
#
# Mechanical properties :
#
#
# Convention : Reuss Voigt Hill
#
# Bulk Modulus (GPa) = 25.29012 25.90590 25.59801
# Shear Modulus (GPa) = 13.52932 18.06931 15.79931
#
# Velocity S-wave (km/s) = 2.59361 2.99735 2.80276
# Velocity P-wave (km/s) = 4.64148 4.98591 4.81677
#
# Compressibility (1/GPa) = 0.03954113
#
# Stress axis : x y z
#
# Youngs Moduli (GPa) = 54.58118 54.58118 60.66731
#
# Poissons Ratio (x) = -0.01142 0.21239
# Poissons Ratio (y) = -0.01142 0.21239
# Poissons Ratio (z) = 0.19108 0.19108
#
# Static dielectric constant tensor:
#      x y z
#    x 1.739710 0.000000 0.000000 
#    y 0.000000 1.739710 0.000000 
#    z 0.000000 0.000000 1.689200 
# 
# From -- ./inp_files/8747.got.cif
#   From: 2010.05.17/outbox.ucp.g08.bks.cvg/sg141_5_cif.got.tgz:8747.got - 2010.06.11 11:43:24.
