data_PCOD9573758
_publ_section_title
;
Structure prediction by ZEFSAII (Michael W. Deem and Ramdas Pophale) SiO2 
 PCOD9573758
Probable space group: I 41/A C D
;
_chemical_formula_sum "Si O2"
_cell_formula_units_Z 160
_cell_length_a 23.763598
_cell_length_b 23.763598
_cell_length_c 14.137148
_cell_angle_alpha 90.000000
_cell_angle_beta 90.000000
_cell_angle_gamma 90.000000
_cell_volume 7983.368912
_symmetry_space_group_name_H-M "I 41/A C D"
_symmetry_group_IT_number 142
_space_group.IT_coordinate_system_code '2'
_symmetry_cell_setting 'tetragonal'
loop_
_space_group_symop_operation_xyz
x,y,z
1/4-y,3/4+x,1/4+z
-x,1/2-y,z
1/4+y,1/4-x,3/4+z
x,-y,1/2-z
1/2-x,y,-z
3/4+y,1/4+x,1/4-z
1/4-y,1/4-x,1/4-z
-x,-y,-z
3/4+y,1/4-x,3/4-z
x,1/2+y,-z
3/4-y,3/4+x,1/4-z
-x,y,1/2+z
1/2+x,-y,z
1/4-y,3/4-x,3/4+z
3/4+y,3/4+x,3/4+z
1/2+x,1/2+y,1/2+z
3/4-y,1/4+x,3/4+z
1/2-x,-y,1/2+z
3/4+y,3/4-x,1/4+z
1/2+x,1/2-y,-z
-x,1/2+y,1/2-z
1/4+y,3/4+x,3/4-z
3/4-y,3/4-x,3/4-z
1/2-x,1/2-y,1/2-z
1/4+y,3/4-x,1/4-z
1/2+x,y,1/2-z
1/4-y,1/4+x,3/4-z
1/2-x,1/2+y,z
x,1/2-y,1/2+z
3/4-y,1/4-x,1/4+z
1/4+y,1/4+x,1/4+z
loop_
_atom_site_type_symbol
_atom_site_label
_atom_site_fract_x
_atom_site_fract_y
_atom_site_fract_z
Si Si1 0.250000 0.060998 0.000000
Si Si2 0.296082 0.713963 0.304551
Si Si3 0.360943 0.999946 0.956439
Si Si4 0.250000 0.829663 0.000000
Si Si5 0.470159 0.166012 0.126310
Si Si6 0.870336 0.626382 0.980177
O O1 0.247192 0.098894 0.094356
O O2 0.196799 0.019695 0.995481
O O3 0.250000 0.750000 0.250000
O O4 0.294028 0.655509 0.247727
O O5 0.270901 0.705737 0.409983
O O6 0.360887 0.733308 0.312878
O O7 0.380663 0.937176 0.984739
O O8 0.302926 0.867642 0.025976
O O9 0.528916 0.189785 0.168280
O O10 0.424028 0.143686 0.200452
O O11 0.890074 0.640074 0.875000
#
# Coordination Sequence:
#
# PCOD9573758 Si02
#       6
#    16  32  32  16  32  32
#     4  10  23  37  60  96 138 173 203 270 348 428
#     4  11  23  40  66  94 130 167 215 271 332 405
#     4  11  22  38  62  94 132 167 214 267 341 408
#     4  10  21  37  58 100 126 165 209 270 334 384
#     4  10  23  44  67  89 130 176 222 277 331 390
#     4  11  21  37  68  95 127 166 224 278 327 407
#
# _framework density 20.041664999999998
#
# number of rings (size 3 to 8) (size 9 to 14) (size 15 to 20)
#    0.000    1.400    2.000    4.200    2.800    0.800 
#    0.000    8.000    4.400    0.000    0.000    0.000 
#    0.000    0.000    0.000    0.000    0.000    0.000 
#
# Total GULP energy -446164.961990 kJ/mol
# GULP energy per Si atom -5577.062025 kJ/mol
# Density = 1.999605 g / cm^3
# Si number density = 20.041665 Si / 1000 Ang^3
#
#
#
# Elastic Constant Matrix: (Units=GPa)
#
#
# Indices 1 2 3 4 5 6 
#
# 1 94.3955 50.0405 16.0647 0.0000 0.0000 0.0000
# 2 50.0405 94.3955 16.0647 0.0000 0.0000 0.0000
# 3 16.0647 16.0647 82.7767 0.0000 0.0000 0.0000
# 4 0.0000 0.0000 0.0000 16.7345 0.0000 0.0000
# 5 0.0000 0.0000 0.0000 0.0000 16.7345 0.0000
# 6 0.0000 0.0000 0.0000 0.0000 0.0000 38.2236
#
#
#
# Elastic Compliance Matrix: (Units=1/GPa)
#
#
# Indices 1 2 3 4 5 6 
#
# 1 0.014891 -0.007655 -0.001404 0.000000 0.000000 0.000000
# 2 -0.007655 0.014891 -0.001404 0.000000 0.000000 0.000000
# 3 -0.001404 -0.001404 0.012626 0.000000 0.000000 0.000000
# 4 0.000000 0.000000 0.000000 0.059757 0.000000 0.000000
# 5 0.000000 0.000000 0.000000 0.000000 0.059757 0.000000
# 6 0.000000 0.000000 0.000000 0.000000 0.000000 0.026162
#
#
# Mechanical properties :
#
#
# Convention : Reuss Voigt Hill
#
# Bulk Modulus (GPa) = 46.55418 48.43416 47.49417
# Shear Modulus (GPa) = 23.13000 26.96502 25.04751
#
# Velocity S-wave (km/s) = 3.40088 3.67201 3.53905
# Velocity P-wave (km/s) = 6.22097 6.49596 6.35995
#
# Compressibility (1/GPa) = 0.02148035
#
# Stress axis : x y z
#
# Youngs Moduli (GPa) = 67.15642 67.15642 79.20310
#
# Poissons Ratio (x) = 0.51407 0.11122
# Poissons Ratio (y) = 0.51407 0.11122
# Poissons Ratio (z) = 0.09431 0.09431
#
# Static dielectric constant tensor:
#      x y z
#    x 1.706020 0.000000 0.000000 
#    y 0.000000 1.706020 0.000000 
#    z 0.000000 0.000000 1.938390 
# 
# From -- ./inp_files/5499.got.cif
#   From: 2010.05.17/outbox.cif.g08.bks.cpg/sg142_3_cif.got.tgz:5499.got - 2010.05.20 13:39:18.
