data_PCOD9573889
_publ_section_title
;
Structure prediction by ZEFSAII (Michael W. Deem and Ramdas Pophale) SiO2 
 PCOD9573889
Probable space group: I 41/A C D
;
_chemical_formula_sum "Si O2"
_cell_formula_units_Z 128
_cell_length_a 22.492881
_cell_length_b 22.492881
_cell_length_c 11.963938
_cell_angle_alpha 90.000000
_cell_angle_beta 90.000000
_cell_angle_gamma 90.000000
_cell_volume 6052.911511
_symmetry_space_group_name_H-M "I 41/A C D"
_symmetry_group_IT_number 142
_space_group.IT_coordinate_system_code '2'
_symmetry_cell_setting 'tetragonal'
loop_
_space_group_symop_operation_xyz
x,y,z
1/4-y,3/4+x,1/4+z
-x,1/2-y,z
1/4+y,1/4-x,3/4+z
x,-y,1/2-z
1/2-x,y,-z
3/4+y,1/4+x,1/4-z
1/4-y,1/4-x,1/4-z
-x,-y,-z
3/4+y,1/4-x,3/4-z
x,1/2+y,-z
3/4-y,3/4+x,1/4-z
-x,y,1/2+z
1/2+x,-y,z
1/4-y,3/4-x,3/4+z
3/4+y,3/4+x,3/4+z
1/2+x,1/2+y,1/2+z
3/4-y,1/4+x,3/4+z
1/2-x,-y,1/2+z
3/4+y,3/4-x,1/4+z
1/2+x,1/2-y,-z
-x,1/2+y,1/2-z
1/4+y,3/4+x,3/4-z
3/4-y,3/4-x,3/4-z
1/2-x,1/2-y,1/2-z
1/4+y,3/4-x,1/4-z
1/2+x,y,1/2-z
1/4-y,1/4+x,3/4-z
1/2-x,1/2+y,z
x,1/2-y,1/2+z
3/4-y,1/4-x,1/4+z
1/4+y,1/4+x,1/4+z
loop_
_atom_site_type_symbol
_atom_site_label
_atom_site_fract_x
_atom_site_fract_y
_atom_site_fract_z
Si Si1 0.460597 0.416255 0.684257
Si Si2 0.413371 0.107380 0.630825
Si Si3 0.315201 0.549045 0.999170
Si Si4 0.283571 0.829947 0.163539
O O1 0.528186 0.397955 0.706629
O O2 0.423315 0.364005 0.626031
O O3 0.422994 0.432837 0.795047
O O4 0.462380 0.476621 0.610225
O O5 0.358149 0.068253 0.674046
O O6 0.431909 0.081121 0.510279
O O7 0.360386 0.501161 0.949715
O O8 0.250000 0.521848 0.000000
O O9 0.323509 0.573509 0.125000
#
# Coordination Sequence:
#
# PCOD9573889 Si02
#       4
#    32  32  32  32
#     4  10  24  40  67  93 129 173 222 275 324 405
#     4  11  23  42  63  94 129 173 221 269 335 390
#     4  11  23  39  64  97 133 170 215 276 340 412
#     4  10  22  42  63  95 128 171 218 272 337 398
#
# _framework density 21.146847000000001
#
# number of rings (size 3 to 8) (size 9 to 14) (size 15 to 20)
#    0.000    1.500    2.500    1.500    3.500    6.500 
#    0.000    0.000    0.000    3.000    0.000    0.000 
#    0.000    0.000    0.000    0.000    0.000    0.000 
#
# Total GULP energy -356991.777415 kJ/mol
# GULP energy per Si atom -5577.996522 kJ/mol
# Density = 2.109872 g / cm^3
# Si number density = 21.146847 Si / 1000 Ang^3
#
#
#
# Elastic Constant Matrix: (Units=GPa)
#
#
# Indices 1 2 3 4 5 6 
#
# 1 66.4886 19.2669 1.0433 0.0000 0.0000 0.0000
# 2 19.2669 66.4886 1.0433 0.0000 0.0000 0.0000
# 3 1.0433 1.0433 83.4382 0.0000 0.0000 0.0000
# 4 0.0000 0.0000 0.0000 18.2816 0.0000 0.0000
# 5 0.0000 0.0000 0.0000 0.0000 18.2816 0.0000
# 6 0.0000 0.0000 0.0000 0.0000 0.0000 2.2775
#
#
#
# Elastic Compliance Matrix: (Units=1/GPa)
#
#
# Indices 1 2 3 4 5 6 
#
# 1 0.016421 -0.004756 -0.000146 0.000000 0.000000 0.000000
# 2 -0.004756 0.016421 -0.000146 0.000000 0.000000 0.000000
# 3 -0.000146 -0.000146 0.011989 0.000000 0.000000 0.000000
# 4 0.000000 0.000000 0.000000 0.054700 0.000000 0.000000
# 5 0.000000 0.000000 0.000000 0.000000 0.054700 0.000000
# 6 0.000000 0.000000 0.000000 0.000000 0.000000 0.439077
#
#
# Mechanical properties :
#
#
# Convention : Reuss Voigt Hill
#
# Bulk Modulus (GPa) = 28.78991 28.79136 28.79064
# Shear Modulus (GPa) = 8.13034 20.77226 14.45130
#
# Velocity S-wave (km/s) = 1.96292 3.13754 2.61699
# Velocity P-wave (km/s) = 4.33373 5.17398 4.77239
#
# Compressibility (1/GPa) = 0.03473439
#
# Stress axis : x y z
#
# Youngs Moduli (GPa) = 60.89893 60.89893 83.41277
#
# Poissons Ratio (x) = 0.28964 0.01217
# Poissons Ratio (y) = 0.28964 0.01217
# Poissons Ratio (z) = 0.00888 0.00888
#
# Static dielectric constant tensor:
#      x y z
#    x 1.767520 0.000000 0.000000 
#    y 0.000000 1.767520 0.000000 
#    z 0.000000 0.000000 1.854120 
# 
# From -- ./inp_files/3471.got.cif
#   From: 2010.05.17/outbox.cif.g08.bks.cpg/sg142_2_cif.got.tgz:3471.got - 2010.05.20 13:39:18.
