data_PCOD9573968
_publ_section_title
;
Structure prediction by ZEFSAII (Michael W. Deem and Ramdas Pophale) SiO2 
 PCOD9573968
Probable space group: I 41/A C D
;
_chemical_formula_sum "Si O2"
_cell_formula_units_Z 136
_cell_length_a 16.822937
_cell_length_b 16.822937
_cell_length_c 23.581159
_cell_angle_alpha 90.000000
_cell_angle_beta 90.000000
_cell_angle_gamma 90.000000
_cell_volume 6673.732325
_symmetry_space_group_name_H-M "I 41/A C D"
_symmetry_group_IT_number 142
_space_group.IT_coordinate_system_code '2'
_symmetry_cell_setting 'tetragonal'
loop_
_space_group_symop_operation_xyz
x,y,z
1/4-y,3/4+x,1/4+z
-x,1/2-y,z
1/4+y,1/4-x,3/4+z
x,-y,1/2-z
1/2-x,y,-z
3/4+y,1/4+x,1/4-z
1/4-y,1/4-x,1/4-z
-x,-y,-z
3/4+y,1/4-x,3/4-z
x,1/2+y,-z
3/4-y,3/4+x,1/4-z
-x,y,1/2+z
1/2+x,-y,z
1/4-y,3/4-x,3/4+z
3/4+y,3/4+x,3/4+z
1/2+x,1/2+y,1/2+z
3/4-y,1/4+x,3/4+z
1/2-x,-y,1/2+z
3/4+y,3/4-x,1/4+z
1/2+x,1/2-y,-z
-x,1/2+y,1/2-z
1/4+y,3/4+x,3/4-z
3/4-y,3/4-x,3/4-z
1/2-x,1/2-y,1/2-z
1/4+y,3/4-x,1/4-z
1/2+x,y,1/2-z
1/4-y,1/4+x,3/4-z
1/2-x,1/2+y,z
x,1/2-y,1/2+z
3/4-y,1/4-x,1/4+z
1/4+y,1/4+x,1/4+z
loop_
_atom_site_type_symbol
_atom_site_label
_atom_site_fract_x
_atom_site_fract_y
_atom_site_fract_z
Si Si1 0.886497 0.991498 0.957589
Si Si2 0.392255 0.188357 0.436662
Si Si3 0.351735 0.000000 0.250000
Si Si4 0.127505 0.231989 0.278707
Si Si5 0.603569 0.146432 0.375000
Si Si6 0.500000 0.250000 0.125000
O O1 0.897518 0.938526 0.903230
O O2 0.957463 0.053752 0.954193
O O3 0.904853 0.926460 0.007361
O O4 0.806511 0.041848 0.964567
O O5 0.397767 0.147767 0.375000
O O6 0.311527 0.157798 0.465899
O O7 0.465298 0.163233 0.477912
O O8 0.398579 0.280722 0.419423
O O9 0.067826 0.219617 0.331199
#
# Coordination Sequence:
#
# PCOD9573968 Si02
#       6
#    32  32  16  32  16   8
#     4  10  23  41  62  97 133 173 222 283 341 413
#     4  11  23  44  72  98 135 183 232 288 344 428
#     4  10  26  44  64  96 140 180 220 280 360 418
#     4  10  23  43  63  98 137 176 224 285 350 401
#     4  12  23  38  78  96 126 179 234 282 350 419
#     4  12  24  40  74 100 140 188 236 290 344 440
#
# _framework density 20.378401
#
# number of rings (size 3 to 8) (size 9 to 14) (size 15 to 20)
#    0.000    1.412    2.353    1.765    1.647    6.588 
#    0.000    0.000    0.000    0.000    0.000    0.000 
#    0.000    0.000    0.000    0.000    0.000    0.000 
#
# Total GULP energy -378999.118573 kJ/mol
# GULP energy per Si atom -5573.516450 kJ/mol
# Density = 2.033202 g / cm^3
# Si number density = 20.378401 Si / 1000 Ang^3
#
#
#
# Elastic Constant Matrix: (Units=GPa)
#
#
# Indices 1 2 3 4 5 6 
#
# 1 134.5296 17.1761 36.5172 0.0000 0.0000 0.0000
# 2 17.1761 134.5339 36.5182 0.0000 0.0000 0.0000
# 3 36.5172 36.5182 84.9360 0.0000 0.0000 0.0000
# 4 0.0000 0.0000 0.0000 143.5413 0.0000 0.0000
# 5 0.0000 0.0000 0.0000 0.0000 143.5174 0.0000
# 6 0.0000 0.0000 0.0000 0.0000 0.0000 33.9598
#
#
#
# Elastic Compliance Matrix: (Units=1/GPa)
#
#
# Indices 1 2 3 4 5 6 
#
# 1 0.008417 -0.000105 -0.003574 0.000000 0.000000 0.000000
# 2 -0.000105 0.008416 -0.003574 0.000000 0.000000 0.000000
# 3 -0.003574 -0.003574 0.014847 0.000000 0.000000 0.000000
# 4 0.000000 0.000000 0.000000 0.006967 0.000000 0.000000
# 5 0.000000 0.000000 0.000000 0.000000 0.006968 0.000000
# 6 0.000000 0.000000 0.000000 0.000000 0.000000 0.029447
#
#
# Mechanical properties :
#
#
# Convention : Reuss Voigt Hill
#
# Bulk Modulus (GPa) = 58.22136 59.38028 58.80082
# Shear Modulus (GPa) = 52.47141 81.78957 67.13049
#
# Velocity S-wave (km/s) = 5.07981 6.34213 5.74574
# Velocity P-wave (km/s) = 7.93965 9.10122 8.54021
#
# Compressibility (1/GPa) = 0.01717583
#
# Stress axis : x y z
#
# Youngs Moduli (GPa) = 118.81112 118.81459 67.35564
#
# Poissons Ratio (x) = 0.01242 0.24071
# Poissons Ratio (y) = 0.01242 0.24071
# Poissons Ratio (z) = 0.42460 0.42461
#
# Static dielectric constant tensor:
#      x y z
#    x 1.758290 0.000000 0.000000 
#    y 0.000000 1.758290 0.000000 
#    z 0.000000 0.000000 1.587920 
# 
# From -- ./inp_files/8843.got.cif
#   From: 2010.05.17/outbox.cif.g08.bks.cpg/sg142_5_cif.got.tgz:8843.got - 2010.05.20 13:39:18.
