data_PCOD9573991
_publ_section_title
;
Structure prediction by ZEFSAII (Michael W. Deem and Ramdas Pophale) SiO2 
 PCOD9573991
Probable space group: I 41/A C D
;
_chemical_formula_sum "Si O2"
_cell_formula_units_Z 144
_cell_length_a 30.868535
_cell_length_b 30.868535
_cell_length_c 7.519585
_cell_angle_alpha 90.000000
_cell_angle_beta 90.000000
_cell_angle_gamma 90.000000
_cell_volume 7165.160287
_symmetry_space_group_name_H-M "I 41/A C D"
_symmetry_group_IT_number 142
_space_group.IT_coordinate_system_code '2'
_symmetry_cell_setting 'tetragonal'
loop_
_space_group_symop_operation_xyz
x,y,z
1/4-y,3/4+x,1/4+z
-x,1/2-y,z
1/4+y,1/4-x,3/4+z
x,-y,1/2-z
1/2-x,y,-z
3/4+y,1/4+x,1/4-z
1/4-y,1/4-x,1/4-z
-x,-y,-z
3/4+y,1/4-x,3/4-z
x,1/2+y,-z
3/4-y,3/4+x,1/4-z
-x,y,1/2+z
1/2+x,-y,z
1/4-y,3/4-x,3/4+z
3/4+y,3/4+x,3/4+z
1/2+x,1/2+y,1/2+z
3/4-y,1/4+x,3/4+z
1/2-x,-y,1/2+z
3/4+y,3/4-x,1/4+z
1/2+x,1/2-y,-z
-x,1/2+y,1/2-z
1/4+y,3/4+x,3/4-z
3/4-y,3/4-x,3/4-z
1/2-x,1/2-y,1/2-z
1/4+y,3/4-x,1/4-z
1/2+x,y,1/2-z
1/4-y,1/4+x,3/4-z
1/2-x,1/2+y,z
x,1/2-y,1/2+z
3/4-y,1/4-x,1/4+z
1/4+y,1/4+x,1/4+z
loop_
_atom_site_type_symbol
_atom_site_label
_atom_site_fract_x
_atom_site_fract_y
_atom_site_fract_z
Si Si1 0.312264 0.000000 0.250000
Si Si2 0.977504 0.000000 0.250000
Si Si3 0.856976 0.463993 0.099779
Si Si4 0.038325 0.841641 0.508648
Si Si5 0.546966 0.058181 0.453937
Si Si6 0.449405 0.300596 0.875000
O O1 0.281378 0.968623 0.125000
O O2 0.343499 0.979623 0.401740
O O3 0.009515 0.968418 0.356737
O O4 0.949003 0.032895 0.361284
O O5 0.846503 0.500000 0.250000
O O6 0.827293 0.422708 0.125000
O O7 0.906348 0.448918 0.131705
O O8 0.074584 0.824584 0.375000
O O9 0.032347 0.892363 0.474814
O O10 0.052657 0.833489 0.710802
O O11 0.995830 0.812075 0.466025
#
# Coordination Sequence:
#
# PCOD9573991 Si02
#       6
#    16  16  32  32  32  16
#     4  12  23  40  67 102 138 180 232 279 342 417
#     4  10  23  44  75  88 132 188 228 283 346 419
#     4  12  24  44  69 102 140 182 226 286 347 410
#     4  12  25  43  68 104 139 182 227 288 347 420
#     4  11  24  47  67 100 133 179 237 284 347 414
#     4  12  25  42  70 102 142 180 228 278 358 420
#
# _framework density 20.097248
#
# number of rings (size 3 to 8) (size 9 to 14) (size 15 to 20)
#    0.000    0.444    5.556    3.667    0.000    0.000 
#    2.000    0.000    0.000    0.000    0.000    0.000 
#    0.000    0.000    0.000    0.000    0.000    0.000 
#
# Total GULP energy -401569.172332 kJ/mol
# GULP energy per Si atom -5577.349616 kJ/mol
# Density = 2.005151 g / cm^3
# Si number density = 20.097248 Si / 1000 Ang^3
#
#
#
# Elastic Constant Matrix: (Units=GPa)
#
#
# Indices 1 2 3 4 5 6 
#
# 1 64.4643 64.1999 12.3245 0.0000 0.0000 0.0000
# 2 64.1999 64.4609 12.3234 0.0000 0.0000 0.0000
# 3 12.3245 12.3234 95.8617 0.0000 0.0000 0.0000
# 4 0.0000 0.0000 0.0000 103.6543 0.0000 0.0000
# 5 0.0000 0.0000 0.0000 0.0000 106.1181 0.0000
# 6 0.0000 0.0000 0.0000 0.0000 0.0000 24.2259
#
#
#
# Elastic Compliance Matrix: (Units=1/GPa)
#
#
# Indices 1 2 3 4 5 6 
#
# 1 1.907098 -1.899177 -0.001040 0.000000 0.000000 0.000000
# 2 -1.899177 1.907193 -0.001009 0.000000 0.000000 0.000000
# 3 -0.001040 -0.001009 0.010695 0.000000 0.000000 0.000000
# 4 0.000000 0.000000 0.000000 0.009647 0.000000 0.000000
# 5 0.000000 0.000000 0.000000 0.000000 0.009423 0.000000
# 6 0.000000 0.000000 0.000000 0.000000 0.000000 0.041278
#
#
# Mechanical properties :
#
#
# Convention : Reuss Voigt Hill
#
# Bulk Modulus (GPa) = 44.37655 44.72027 44.54841
# Shear Modulus (GPa) = 0.64975 55.86227 28.25601
#
# Velocity S-wave (km/s) = 0.56921 5.27791 3.75369
# Velocity P-wave (km/s) = 4.74983 7.70986 6.40324
#
# Compressibility (1/GPa) = 0.02253442
#
# Stress axis : x y z
#
# Youngs Moduli (GPa) = 0.52436 0.52433 93.50085
#
# Poissons Ratio (x) = 0.99580 0.09725
# Poissons Ratio (y) = 0.99585 0.09432
# Poissons Ratio (z) = 0.00055 0.00053
#
# Static dielectric constant tensor:
#      x y z
#    x 1.719700 0.000000 0.000000 
#    y 0.000000 1.719650 0.000000 
#    z 0.000000 0.000000 1.851240 
# 
# From -- ./inp_files/2179.got.cif
#   From: 2010.05.17/outbox.cif.g08.bks.cpg/sg142_2_cif.got.tgz:2179.got - 2010.05.20 13:39:18.
