data_PCOD9573186
_publ_section_title
;
Structure prediction by ZEFSAII (Michael W. Deem and Ramdas Pophale) SiO2 
 PCOD9573186
Probable space group: I 41/A M D
;
_chemical_formula_sum "Si O2"
_cell_formula_units_Z 128
_cell_length_a 24.655980
_cell_length_b 24.655980
_cell_length_c 10.325023
_cell_angle_alpha 90.000000
_cell_angle_beta 90.000000
_cell_angle_gamma 90.000000
_cell_volume 6276.760618
_symmetry_space_group_name_H-M "I 41/A M D"
_symmetry_group_IT_number 141
_space_group.IT_coordinate_system_code '2'
_symmetry_cell_setting 'tetragonal'
loop_
_space_group_symop_operation_xyz
x,y,z
1/4-y,3/4+x,1/4+z
-x,1/2-y,z
1/4+y,1/4-x,3/4+z
x,-y,-z
-x,1/2+y,-z
1/4+y,3/4+x,1/4-z
1/4-y,1/4-x,3/4-z
-x,-y,-z
3/4+y,1/4-x,3/4-z
x,1/2+y,-z
3/4-y,3/4+x,1/4-z
-x,y,z
x,1/2-y,z
3/4-y,1/4-x,3/4+z
3/4+y,3/4+x,1/4+z
1/2+x,1/2+y,1/2+z
3/4-y,1/4+x,3/4+z
1/2-x,-y,1/2+z
3/4+y,3/4-x,1/4+z
1/2+x,1/2-y,1/2-z
1/2-x,y,1/2-z
3/4+y,1/4+x,3/4-z
3/4-y,3/4-x,1/4-z
1/2-x,1/2-y,1/2-z
1/4+y,3/4-x,1/4-z
1/2+x,y,1/2-z
1/4-y,1/4+x,3/4-z
1/2-x,1/2+y,1/2+z
1/2+x,-y,1/2+z
1/4-y,3/4-x,1/4+z
1/4+y,1/4+x,3/4+z
loop_
_atom_site_type_symbol
_atom_site_label
_atom_site_fract_x
_atom_site_fract_y
_atom_site_fract_z
Si Si1 0.563018 0.605275 0.413360
Si Si2 0.731500 0.894362 0.392114
Si Si3 0.185852 0.188353 0.276042
Si Si4 0.158409 0.143458 0.545969
O O1 0.586035 0.663966 0.375000
O O2 0.500000 0.597881 0.390687
O O3 0.598839 0.563208 0.326781
O O4 0.576820 0.595945 0.565548
O O5 0.750000 0.878138 0.250000
O O6 0.700646 0.950646 0.375000
O O7 0.787226 0.893668 0.467709
O O8 0.176467 0.250000 0.229441
O O9 0.250000 0.176493 0.250000
O O10 0.168685 0.184562 0.427878
O O11 0.145886 0.143119 0.217105
#
# Coordination Sequence:
#
# PCOD9573186 Si02
#       4
#    32  32  32  32
#     4  10  22  39  61  89 123 162 207 257 312 376
#     4   9  20  35  55  85 119 155 194 245 308 372
#     4  10  23  40  62  90 122 164 211 255 305 374
#     4  10  22  40  61  90 122 161 207 257 317 368
#
# _framework density 20.392683999999999
#
# number of rings (size 3 to 8) (size 9 to 14) (size 15 to 20)
#    0.000    2.250    0.000    0.750   10.500    7.750 
#    0.000    0.000    0.000   12.000    0.000    0.000 
#    0.000    0.000    0.000    0.000    0.000    0.000 
#
# Total GULP energy -356496.128122 kJ/mol
# GULP energy per Si atom -5570.252002 kJ/mol
# Density = 2.034627 g / cm^3
# Si number density = 20.392684 Si / 1000 Ang^3
#
#
#
# Elastic Constant Matrix: (Units=GPa)
#
#
# Indices 1 2 3 4 5 6 
#
# 1 103.1371 66.1547 6.4056 0.0000 0.0000 0.0000
# 2 66.1547 103.1277 6.4070 0.0000 0.0000 0.0000
# 3 6.4056 6.4070 61.7295 0.0000 0.0000 0.0000
# 4 0.0000 0.0000 0.0000 20.5682 0.0000 0.0000
# 5 0.0000 0.0000 0.0000 0.0000 20.5692 0.0000
# 6 0.0000 0.0000 0.0000 0.0000 0.0000 9.5403
#
#
#
# Elastic Compliance Matrix: (Units=1/GPa)
#
#
# Indices 1 2 3 4 5 6 
#
# 1 0.016498 -0.010545 -0.000618 0.000000 0.000000 0.000000
# 2 -0.010545 0.016499 -0.000618 0.000000 0.000000 0.000000
# 3 -0.000618 -0.000618 0.016328 0.000000 0.000000 0.000000
# 4 0.000000 0.000000 0.000000 0.048619 0.000000 0.000000
# 5 0.000000 0.000000 0.000000 0.000000 0.048616 0.000000
# 6 0.000000 0.000000 0.000000 0.000000 0.000000 0.104819
#
#
# Mechanical properties :
#
#
# Convention : Reuss Voigt Hill
#
# Bulk Modulus (GPa) = 38.81361 47.32543 43.06952
# Shear Modulus (GPa) = 17.63493 22.73734 20.18614
#
# Velocity S-wave (km/s) = 2.94388 3.34275 3.14964
# Velocity P-wave (km/s) = 5.53441 6.17706 5.86454
#
# Compressibility (1/GPa) = 0.02576416
#
# Stress axis : x y z
#
# Youngs Moduli (GPa) = 60.61411 60.60839 61.24463
#
# Poissons Ratio (x) = 0.63910 0.03782
# Poissons Ratio (y) = 0.63916 0.03787
# Poissons Ratio (z) = 0.03743 0.03747
#
# Static dielectric constant tensor:
#      x y z
#    x 2.249820 0.000000 0.000000 
#    y 0.000000 2.249280 0.000000 
#    z 0.000000 0.000000 1.812260 
# 
# From -- ./inp_files/4577.got.cif
#   From: 2010.05.17/outbox.cif.g08.bks.cpg/sg141_3_cif.got.tgz:4577.got - 2010.05.20 13:30:51.
