data_PCOD9573364
_publ_section_title
;
Structure prediction by ZEFSAII (Michael W. Deem and Ramdas Pophale) SiO2 
 PCOD9573364
Probable space group: I 41/A M D
;
_chemical_formula_sum "Si O2"
_cell_formula_units_Z 84
_cell_length_a 14.387987
_cell_length_b 14.387987
_cell_length_c 20.090139
_cell_angle_alpha 90.000000
_cell_angle_beta 90.000000
_cell_angle_gamma 90.000000
_cell_volume 4158.943449
_symmetry_space_group_name_H-M "I 41/A M D"
_symmetry_group_IT_number 141
_space_group.IT_coordinate_system_code '2'
_symmetry_cell_setting 'tetragonal'
loop_
_space_group_symop_operation_xyz
x,y,z
1/4-y,3/4+x,1/4+z
-x,1/2-y,z
1/4+y,1/4-x,3/4+z
x,-y,-z
-x,1/2+y,-z
1/4+y,3/4+x,1/4-z
1/4-y,1/4-x,3/4-z
-x,-y,-z
3/4+y,1/4-x,3/4-z
x,1/2+y,-z
3/4-y,3/4+x,1/4-z
-x,y,z
x,1/2-y,z
3/4-y,1/4-x,3/4+z
3/4+y,3/4+x,1/4+z
1/2+x,1/2+y,1/2+z
3/4-y,1/4+x,3/4+z
1/2-x,-y,1/2+z
3/4+y,3/4-x,1/4+z
1/2+x,1/2-y,1/2-z
1/2-x,y,1/2-z
3/4+y,1/4+x,3/4-z
3/4-y,3/4-x,1/4-z
1/2-x,1/2-y,1/2-z
1/4+y,3/4-x,1/4-z
1/2+x,y,1/2-z
1/4-y,1/4+x,3/4-z
1/2-x,1/2+y,1/2+z
1/2+x,-y,1/2+z
1/4-y,3/4-x,1/4+z
1/4+y,1/4+x,3/4+z
loop_
_atom_site_type_symbol
_atom_site_label
_atom_site_fract_x
_atom_site_fract_y
_atom_site_fract_z
Si Si1 0.195368 0.750000 0.045932
Si Si2 0.500000 0.250000 0.625000
Si Si3 0.165566 0.084060 0.207582
Si Si4 0.778696 0.750000 0.889132
Si Si5 0.392821 0.750000 0.804930
O O1 0.257802 0.840521 0.062862
O O2 0.094614 0.750000 0.080471
O O3 0.192399 0.750000 0.965318
O O4 0.250000 0.038843 0.250000
O O5 0.188712 0.154030 0.146592
O O6 0.131601 0.159378 0.261858
O O7 0.669738 0.750000 0.870654
O O8 0.500000 0.750000 0.811225
#
# Coordination Sequence:
#
# PCOD9573364 Si02
#       5
#    16   4  32  16  16
#     4  12  25  48  68  87 123 176 234 292 338 366
#     4  12  36  52  60  84 104 172 280 334 292 332
#     4   9  20  39  65 102 144 173 204 249 330 419
#     4   9  22  39  65 107 142 171 210 248 333 442
#     4   9  15  34  62 115 154 169 184 236 327 434
#
# _framework density 20.197436
#
# number of rings (size 3 to 8) (size 9 to 14) (size 15 to 20)
#    0.000    2.286    1.905    2.286    0.000   10.667 
#    6.857    2.857    0.000    0.000    0.000    0.000 
#    0.000    0.000    0.000    0.000    0.000    0.000 
#
# Total GULP energy -234233.012550 kJ/mol
# GULP energy per Si atom -5576.976489 kJ/mol
# Density = 2.015147 g / cm^3
# Si number density = 20.197436 Si / 1000 Ang^3
#
#
#
# Elastic Constant Matrix: (Units=GPa)
#
#
# Indices 1 2 3 4 5 6 
#
# 1 130.7798 76.0696 40.8729 0.0000 0.0000 0.0000
# 2 76.0696 130.7798 40.8729 0.0000 0.0000 0.0000
# 3 40.8729 40.8729 111.3459 0.0000 0.0000 0.0000
# 4 0.0000 0.0000 0.0000 -10.4251 0.0000 0.0000
# 5 0.0000 0.0000 0.0000 0.0000 -10.4251 0.0000
# 6 0.0000 0.0000 0.0000 0.0000 0.0000 -525.1011
#
#
#
# Elastic Compliance Matrix: (Units=1/GPa)
#
#
# Indices 1 2 3 4 5 6 
#
# 1 0.011966 -0.006312 -0.002076 0.000000 0.000000 0.000000
# 2 -0.006312 0.011966 -0.002076 0.000000 0.000000 0.000000
# 3 -0.002076 -0.002076 0.010505 0.000000 0.000000 0.000000
# 4 0.000000 0.000000 0.000000 -0.095922 0.000000 0.000000
# 5 0.000000 0.000000 0.000000 0.000000 -0.095922 0.000000
# 6 0.000000 0.000000 0.000000 0.000000 0.000000 -0.001904
#
#
# Mechanical properties :
#
#
# Convention : Reuss Voigt Hill
#
# Bulk Modulus (GPa) = 74.01119 76.50403 75.25761
# Shear Modulus (GPa) = -37.34676 -94.85093 -66.09884
#
# Velocity S-wave (km/s) = -4.30476 -6.86031 -5.72690
# Velocity P-wave (km/s) = 3.46633 4.97910 2.52745
#
# Compressibility (1/GPa) = 0.01351147
#
# Stress axis : x y z
#
# Youngs Moduli (GPa) = 83.56698 83.56698 95.19316
#
# Poissons Ratio (x) = 0.52745 0.19760
# Poissons Ratio (y) = 0.52745 0.19760
# Poissons Ratio (z) = 0.17346 0.17346
#
# Static dielectric constant tensor:
#      x y z
#    x 1.792760 0.000000 0.000000 
#    y 0.000000 1.792760 0.000000 
#    z 0.000000 0.000000 1.804450 
# 
# From -- ./inp_files/9667.got.cif
#   From: 2010.05.17/outbox.cif.g08.bks.cpg/sg141_5_cif.got.tgz:9667.got - 2010.05.20 13:30:51.
