data_PCOD9573091
_publ_section_title
;
Structure prediction by ZEFSAII (Michael W. Deem and Ramdas Pophale) SiO2 
 PCOD9573091
Probable space group: I 41/A M D
;
_chemical_formula_sum "Si O2"
_cell_formula_units_Z 160
_cell_length_a 18.427848
_cell_length_b 18.427848
_cell_length_c 20.210303
_cell_angle_alpha 90.000000
_cell_angle_beta 90.000000
_cell_angle_gamma 90.000000
_cell_volume 6863.127505
_symmetry_space_group_name_H-M "I 41/A M D"
_symmetry_group_IT_number 141
_space_group.IT_coordinate_system_code '2'
_symmetry_cell_setting 'tetragonal'
loop_
_space_group_symop_operation_xyz
x,y,z
1/4-y,3/4+x,1/4+z
-x,1/2-y,z
1/4+y,1/4-x,3/4+z
x,-y,-z
-x,1/2+y,-z
1/4+y,3/4+x,1/4-z
1/4-y,1/4-x,3/4-z
-x,-y,-z
3/4+y,1/4-x,3/4-z
x,1/2+y,-z
3/4-y,3/4+x,1/4-z
-x,y,z
x,1/2-y,z
3/4-y,1/4-x,3/4+z
3/4+y,3/4+x,1/4+z
1/2+x,1/2+y,1/2+z
3/4-y,1/4+x,3/4+z
1/2-x,-y,1/2+z
3/4+y,3/4-x,1/4+z
1/2+x,1/2-y,1/2-z
1/2-x,y,1/2-z
3/4+y,1/4+x,3/4-z
3/4-y,3/4-x,1/4-z
1/2-x,1/2-y,1/2-z
1/4+y,3/4-x,1/4-z
1/2+x,y,1/2-z
1/4-y,1/4+x,3/4-z
1/2-x,1/2+y,1/2+z
1/2+x,-y,1/2+z
1/4-y,3/4-x,1/4+z
1/4+y,1/4+x,3/4+z
loop_
_atom_site_type_symbol
_atom_site_label
_atom_site_fract_x
_atom_site_fract_y
_atom_site_fract_z
Si Si1 0.326022 0.590504 0.291163
Si Si2 0.680913 0.066417 0.951494
Si Si3 0.674991 0.250000 0.707614
Si Si4 0.914102 0.591628 0.340700
Si Si5 0.000000 0.336042 0.087034
Si Si6 0.086782 0.834156 0.703091
O O1 0.250000 0.592863 0.250000
O O2 0.334343 0.511520 0.324530
O O3 0.330477 0.670465 0.325247
O O4 0.387670 0.586328 0.233997
O O5 0.630175 0.042471 0.890679
O O6 0.639951 0.124700 0.997850
O O7 0.690983 0.000000 0.000000
O O8 0.750000 0.250000 0.750000
O O9 0.610836 0.250000 0.761360
O O10 0.889611 0.672914 0.364333
O O11 0.000000 0.583286 0.346296
O O12 0.000000 0.250000 0.092255
O O13 0.099401 0.849401 0.625000
O O14 0.109718 0.750000 0.716703
O O15 0.000000 0.837053 0.712992
#
# Coordination Sequence:
#
# PCOD9573091 Si02
#       6
#    32  32  16  32  16  32
#     4   9  20  37  59  84 111 155 198 255 311 371
#     4  11  24  35  53  84 120 157 202 252 317 371
#     4   8  14  32  58  80 102 134 192 236 297 360
#     4  10  21  37  57  84 118 155 198 252 310 368
#     4   8  16  32  54  78 108 140 178 239 299 344
#     4   9  20  38  57  77 110 161 213 257 303 365
#
# _framework density 23.312987
#
# number of rings (size 3 to 8) (size 9 to 14) (size 15 to 20)
#    0.000    2.600    0.000    1.200    4.200    4.800 
#    0.000    0.000    0.000    0.000    2.600    0.000 
#    3.000    0.000    0.200    0.000    0.000    0.000 
#
# Total GULP energy -446282.139353 kJ/mol
# GULP energy per Si atom -5578.526742 kJ/mol
# Density = 2.325993 g / cm^3
# Si number density = 23.312987 Si / 1000 Ang^3
#
#
#
# Elastic Constant Matrix: (Units=GPa)
#
#
# Indices 1 2 3 4 5 6 
#
# 1 113.6511 25.9894 35.7703 0.0000 0.0000 0.0000
# 2 25.9894 113.6511 35.7703 0.0000 0.0000 0.0000
# 3 35.7703 35.7703 58.2239 0.0000 0.0000 0.0000
# 4 0.0000 0.0000 0.0000 31.1950 0.0000 0.0000
# 5 0.0000 0.0000 0.0000 0.0000 31.1950 0.0000
# 6 0.0000 0.0000 0.0000 0.0000 0.0000 20.4017
#
#
#
# Elastic Compliance Matrix: (Units=1/GPa)
#
#
# Indices 1 2 3 4 5 6 
#
# 1 0.010929 -0.000478 -0.006420 0.000000 0.000000 0.000000
# 2 -0.000478 0.010929 -0.006420 0.000000 0.000000 0.000000
# 3 -0.006420 -0.006420 0.025064 0.000000 0.000000 0.000000
# 4 0.000000 0.000000 0.000000 0.032056 0.000000 0.000000
# 5 0.000000 0.000000 0.000000 0.000000 0.032056 0.000000
# 6 0.000000 0.000000 0.000000 0.000000 0.000000 0.049016
#
#
# Mechanical properties :
#
#
# Convention : Reuss Voigt Hill
#
# Bulk Modulus (GPa) = 49.30120 53.39847 51.34984
# Shear Modulus (GPa) = 25.84648 29.09139 27.46894
#
# Velocity S-wave (km/s) = 3.33329 3.53634 3.43631
# Velocity P-wave (km/s) = 6.00065 6.29516 6.14967
#
# Compressibility (1/GPa) = 0.02028348
#
# Stress axis : x y z
#
# Youngs Moduli (GPa) = 91.49963 91.49963 39.89804
#
# Poissons Ratio (x) = 0.04378 0.25616
# Poissons Ratio (y) = 0.04378 0.25616
# Poissons Ratio (z) = 0.58746 0.58746
#
# Static dielectric constant tensor:
#      x y z
#    x 1.478880 0.000000 0.000000 
#    y 0.000000 1.478870 0.000000 
#    z 0.000000 0.000000 1.975450 
# 
# From -- ./inp_files/12798.got.cif
#   From: 2010.05.17/outbox.cif.g08.bks.cpg/sg141_7_cif.got.tgz:12798.got - 2010.05.20 13:30:51.
