data_PCOD9573630
_publ_section_title
;
Structure prediction by ZEFSAII (Michael W. Deem and Ramdas Pophale) SiO2 
 PCOD9573630
Probable space group: I 41/A C D
;
_chemical_formula_sum "Si O2"
_cell_formula_units_Z 160
_cell_length_a 25.977771
_cell_length_b 25.977771
_cell_length_c 13.333666
_cell_angle_alpha 90.000000
_cell_angle_beta 90.000000
_cell_angle_gamma 90.000000
_cell_volume 8998.152313
_symmetry_space_group_name_H-M "I 41/A C D"
_symmetry_group_IT_number 142
_space_group.IT_coordinate_system_code '2'
_symmetry_cell_setting 'tetragonal'
loop_
_space_group_symop_operation_xyz
x,y,z
1/4-y,3/4+x,1/4+z
-x,1/2-y,z
1/4+y,1/4-x,3/4+z
x,-y,1/2-z
1/2-x,y,-z
3/4+y,1/4+x,1/4-z
1/4-y,1/4-x,1/4-z
-x,-y,-z
3/4+y,1/4-x,3/4-z
x,1/2+y,-z
3/4-y,3/4+x,1/4-z
-x,y,1/2+z
1/2+x,-y,z
1/4-y,3/4-x,3/4+z
3/4+y,3/4+x,3/4+z
1/2+x,1/2+y,1/2+z
3/4-y,1/4+x,3/4+z
1/2-x,-y,1/2+z
3/4+y,3/4-x,1/4+z
1/2+x,1/2-y,-z
-x,1/2+y,1/2-z
1/4+y,3/4+x,3/4-z
3/4-y,3/4-x,3/4-z
1/2-x,1/2-y,1/2-z
1/4+y,3/4-x,1/4-z
1/2+x,y,1/2-z
1/4-y,1/4+x,3/4-z
1/2-x,1/2+y,z
x,1/2-y,1/2+z
3/4-y,1/4-x,1/4+z
1/4+y,1/4+x,1/4+z
loop_
_atom_site_type_symbol
_atom_site_label
_atom_site_fract_x
_atom_site_fract_y
_atom_site_fract_z
Si Si1 0.141619 0.027170 0.356851
Si Si2 0.634158 0.466562 0.059032
Si Si3 0.441329 0.390727 0.650843
Si Si4 0.857471 0.693989 0.677478
Si Si5 0.322505 0.159450 0.385318
O O1 0.190926 0.065090 0.356425
O O2 0.092179 0.063769 0.376793
O O3 0.138010 0.000000 0.250000
O O4 0.144612 0.986318 0.446854
O O5 0.590374 0.423129 0.068229
O O6 0.612619 0.515889 0.117769
O O7 0.500225 0.387393 0.620013
O O8 0.410887 0.337231 0.666529
O O9 0.434615 0.419950 0.756872
O O10 0.839512 0.696175 0.793667
O O11 0.361110 0.111110 0.375000
#
# Coordination Sequence:
#
# PCOD9573630 Si02
#       5
#    32  32  32  32  32
#     4  10  21  36  53  82 116 143 176 220 268 316
#     4  10  21  35  54  79 108 145 185 215 256 319
#     4  10  20  37  57  80 108 138 178 228 271 318
#     4   9  21  37  56  80 106 140 181 223 269 321
#     4   9  19  36  55  78 107 140 181 220 260 318
#
# _framework density 17.781427999999998
#
# number of rings (size 3 to 8) (size 9 to 14) (size 15 to 20)
#    0.000    2.400    0.000    2.400    0.000    8.400 
#    0.000    5.000    0.000    3.600    0.000    0.000 
#    0.000    0.000    0.000    0.000    0.000    0.000 
#
# Total GULP energy -446410.338052 kJ/mol
# GULP energy per Si atom -5580.129226 kJ/mol
# Density = 1.774096 g / cm^3
# Si number density = 17.781428 Si / 1000 Ang^3
#
#
#
# Elastic Constant Matrix: (Units=GPa)
#
#
# Indices 1 2 3 4 5 6 
#
# 1 133.3934 5.3807 67.5791 0.0000 0.0000 0.0000
# 2 5.3807 133.3934 67.5791 0.0000 0.0000 0.0000
# 3 67.5791 67.5791 120.8433 0.0000 0.0000 0.0000
# 4 0.0000 0.0000 0.0000 23.9312 0.0000 0.0000
# 5 0.0000 0.0000 0.0000 0.0000 23.9312 0.0000
# 6 0.0000 0.0000 0.0000 0.0000 0.0000 4.6610
#
#
#
# Elastic Compliance Matrix: (Units=1/GPa)
#
#
# Indices 1 2 3 4 5 6 
#
# 1 0.011819 0.004007 -0.008850 0.000000 0.000000 0.000000
# 2 0.004007 0.011819 -0.008850 0.000000 0.000000 0.000000
# 3 -0.008850 -0.008850 0.018173 0.000000 0.000000 0.000000
# 4 0.000000 0.000000 0.000000 0.041786 0.000000 0.000000
# 5 0.000000 0.000000 0.000000 0.000000 0.041786 0.000000
# 6 0.000000 0.000000 0.000000 0.000000 0.000000 0.214547
#
#
# Mechanical properties :
#
#
# Convention : Reuss Voigt Hill
#
# Bulk Modulus (GPa) = 69.32771 74.30087 71.81429
# Shear Modulus (GPa) = 13.43635 26.97744 20.20689
#
# Velocity S-wave (km/s) = 2.75187 3.89931 3.37472
# Velocity P-wave (km/s) = 7.01217 7.88348 7.46055
#
# Compressibility (1/GPa) = 0.01442425
#
# Stress axis : x y z
#
# Youngs Moduli (GPa) = 84.61293 84.61293 55.02518
#
# Poissons Ratio (x) = -0.33903 0.48697
# Poissons Ratio (y) = -0.33903 0.48697
# Poissons Ratio (z) = 0.74882 0.74882
#
# Static dielectric constant tensor:
#      x y z
#    x 1.593420 0.000000 0.000000 
#    y 0.000000 1.593420 0.000000 
#    z 0.000000 0.000000 1.618950 
# 
# From -- ./inp_files/3857.got.cif
#   From: 2010.05.17/outbox.cif.g08.bks.cpg/sg142_2_cif.got.tgz:3857.got - 2010.05.20 13:39:18.
