data_PCOD9573669
_publ_section_title
;
Structure prediction by ZEFSAII (Michael W. Deem and Ramdas Pophale) SiO2 
 PCOD9573669
Probable space group: I 41/A C D
;
_chemical_formula_sum "Si O2"
_cell_formula_units_Z 176
_cell_length_a 18.083821
_cell_length_b 18.083821
_cell_length_c 27.742502
_cell_angle_alpha 90.000000
_cell_angle_beta 90.000000
_cell_angle_gamma 90.000000
_cell_volume 9072.480119
_symmetry_space_group_name_H-M "I 41/A C D"
_symmetry_group_IT_number 142
_space_group.IT_coordinate_system_code '2'
_symmetry_cell_setting 'tetragonal'
loop_
_space_group_symop_operation_xyz
x,y,z
1/4-y,3/4+x,1/4+z
-x,1/2-y,z
1/4+y,1/4-x,3/4+z
x,-y,1/2-z
1/2-x,y,-z
3/4+y,1/4+x,1/4-z
1/4-y,1/4-x,1/4-z
-x,-y,-z
3/4+y,1/4-x,3/4-z
x,1/2+y,-z
3/4-y,3/4+x,1/4-z
-x,y,1/2+z
1/2+x,-y,z
1/4-y,3/4-x,3/4+z
3/4+y,3/4+x,3/4+z
1/2+x,1/2+y,1/2+z
3/4-y,1/4+x,3/4+z
1/2-x,-y,1/2+z
3/4+y,3/4-x,1/4+z
1/2+x,1/2-y,-z
-x,1/2+y,1/2-z
1/4+y,3/4+x,3/4-z
3/4-y,3/4-x,3/4-z
1/2-x,1/2-y,1/2-z
1/4+y,3/4-x,1/4-z
1/2+x,y,1/2-z
1/4-y,1/4+x,3/4-z
1/2-x,1/2+y,z
x,1/2-y,1/2+z
3/4-y,1/4-x,1/4+z
1/4+y,1/4+x,1/4+z
loop_
_atom_site_type_symbol
_atom_site_label
_atom_site_fract_x
_atom_site_fract_y
_atom_site_fract_z
Si Si1 0.871320 0.532976 0.675651
Si Si2 0.913751 0.167450 0.860384
Si Si3 0.080806 0.269500 0.675506
Si Si4 0.503552 0.500000 0.250000
Si Si5 0.743302 0.000000 0.250000
Si Si6 0.368025 0.866769 0.497556
Si Si7 0.873801 0.123801 0.125000
O O1 0.872460 0.602047 0.639906
O O2 0.797091 0.524725 0.706872
O O3 0.880543 0.455962 0.648225
O O4 0.941994 0.536140 0.711062
O O5 0.900187 0.254333 0.870243
O O6 0.907945 0.149907 0.803877
O O7 0.062144 0.312144 0.625000
O O8 0.125916 0.318568 0.712702
O O9 0.116934 0.191469 0.662180
O O10 0.000000 0.250000 0.697055
O O11 0.448149 0.435928 0.267760
O O12 0.689260 0.931472 0.260930
#
# Coordination Sequence:
#
# PCOD9573669 Si02
#       7
#    32  32  32  16  16  32  16
#     4  11  22  43  61  89 131 171 215 273 329 399
#     4  11  25  42  66 100 129 173 216 278 339 391
#     4   9  20  38  63  99 128 171 225 277 325 385
#     4  10  20  38  64  84 124 180 210 256 336 392
#     4  10  26  42  64  98 128 180 224 268 336 384
#     4  11  22  42  65  97 131 170 225 272 324 404
#     4  10  21  38  64  90 126 170 215 268 340 386
#
# _framework density 19.399327
#
# number of rings (size 3 to 8) (size 9 to 14) (size 15 to 20)
#    0.000    1.818    1.818    3.273    2.545    4.364 
#    8.182    2.727    0.000    0.000    0.000    0.000 
#    0.000    0.000    0.000    0.000    0.000    0.000 
#
# Total GULP energy -491427.989654 kJ/mol
# GULP energy per Si atom -5584.408973 kJ/mol
# Density = 1.935517 g / cm^3
# Si number density = 19.399327 Si / 1000 Ang^3
#
#
#
# Elastic Constant Matrix: (Units=GPa)
#
#
# Indices 1 2 3 4 5 6 
#
# 1 93.2884 40.5205 32.8275 0.0000 0.0000 0.0000
# 2 40.5205 93.2884 32.8275 0.0000 0.0000 0.0000
# 3 32.8275 32.8275 62.9263 0.0000 0.0000 0.0000
# 4 0.0000 0.0000 0.0000 17.2812 0.0000 0.0000
# 5 0.0000 0.0000 0.0000 0.0000 17.2812 0.0000
# 6 0.0000 0.0000 0.0000 0.0000 0.0000 19.7258
#
#
#
# Elastic Compliance Matrix: (Units=1/GPa)
#
#
# Indices 1 2 3 4 5 6 
#
# 1 0.014498 -0.004453 -0.005240 0.000000 0.000000 0.000000
# 2 -0.004453 0.014498 -0.005240 0.000000 0.000000 0.000000
# 3 -0.005240 -0.005240 0.021359 0.000000 0.000000 0.000000
# 4 0.000000 0.000000 0.000000 0.057866 0.000000 0.000000
# 5 0.000000 0.000000 0.000000 0.000000 0.057866 0.000000
# 6 0.000000 0.000000 0.000000 0.000000 0.000000 0.050695
#
#
# Mechanical properties :
#
#
# Convention : Reuss Voigt Hill
#
# Bulk Modulus (GPa) = 48.80978 51.31712 50.06345
# Shear Modulus (GPa) = 19.72563 20.41283 20.06923
#
# Velocity S-wave (km/s) = 3.19222 3.24735 3.21990
# Velocity P-wave (km/s) = 6.22914 6.36953 6.29972
#
# Compressibility (1/GPa) = 0.02048770
#
# Stress axis : x y z
#
# Youngs Moduli (GPa) = 68.97667 68.97667 46.81904
#
# Poissons Ratio (x) = 0.30717 0.24533
# Poissons Ratio (y) = 0.30717 0.24533
# Poissons Ratio (z) = 0.36144 0.36144
#
# Static dielectric constant tensor:
#      x y z
#    x 1.673750 0.000000 0.000000 
#    y 0.000000 1.673750 0.000000 
#    z 0.000000 0.000000 1.666880 
# 
# From -- ./inp_files/11522.got.cif
#   From: 2010.05.17/outbox.cif.g08.bks.cpg/sg142_6_cif.got.tgz:11522.got - 2010.05.20 13:39:18.
