data_PCOD9573598
_publ_section_title
;
Structure prediction by ZEFSAII (Michael W. Deem and Ramdas Pophale) SiO2 
 PCOD9573598
Probable space group: I 41/A C D
;
_chemical_formula_sum "Si O2"
_cell_formula_units_Z 120
_cell_length_a 28.542423
_cell_length_b 28.542423
_cell_length_c 7.484092
_cell_angle_alpha 90.000000
_cell_angle_beta 90.000000
_cell_angle_gamma 90.000000
_cell_volume 6097.064561
_symmetry_space_group_name_H-M "I 41/A C D"
_symmetry_group_IT_number 142
_space_group.IT_coordinate_system_code '2'
_symmetry_cell_setting 'tetragonal'
loop_
_space_group_symop_operation_xyz
x,y,z
1/4-y,3/4+x,1/4+z
-x,1/2-y,z
1/4+y,1/4-x,3/4+z
x,-y,1/2-z
1/2-x,y,-z
3/4+y,1/4+x,1/4-z
1/4-y,1/4-x,1/4-z
-x,-y,-z
3/4+y,1/4-x,3/4-z
x,1/2+y,-z
3/4-y,3/4+x,1/4-z
-x,y,1/2+z
1/2+x,-y,z
1/4-y,3/4-x,3/4+z
3/4+y,3/4+x,3/4+z
1/2+x,1/2+y,1/2+z
3/4-y,1/4+x,3/4+z
1/2-x,-y,1/2+z
3/4+y,3/4-x,1/4+z
1/2+x,1/2-y,-z
-x,1/2+y,1/2-z
1/4+y,3/4+x,3/4-z
3/4-y,3/4-x,3/4-z
1/2-x,1/2-y,1/2-z
1/4+y,3/4-x,1/4-z
1/2+x,y,1/2-z
1/4-y,1/4+x,3/4-z
1/2-x,1/2+y,z
x,1/2-y,1/2+z
3/4-y,1/4-x,1/4+z
1/4+y,1/4+x,1/4+z
loop_
_atom_site_type_symbol
_atom_site_label
_atom_site_fract_x
_atom_site_fract_y
_atom_site_fract_z
Si Si1 0.395859 0.854142 0.125000
Si Si2 0.298759 0.674256 0.527695
Si Si3 0.000000 0.750000 0.125000
Si Si4 0.523408 0.950393 0.342140
Si Si5 0.595496 0.706260 0.473253
O O1 0.397472 0.902923 0.231272
O O2 0.401774 0.814840 0.274719
O O3 0.250000 0.647562 0.500000
O O4 0.300550 0.698614 0.723012
O O5 0.297155 0.717242 0.388744
O O6 0.007257 0.801505 0.217678
O O7 0.528833 0.899526 0.245294
O O8 0.536453 0.000000 0.250000
O O9 0.580250 0.669751 0.625000
#
# Coordination Sequence:
#
# PCOD9573598 Si02
#       5
#    16  32   8  32  32
#     4  10  24  39  56  90 112 152 204 240 310 360
#     4  10  20  35  58  81 115 145 193 251 295 359
#     4  12  26  40  54  86 124 170 210 228 314 370
#     4  10  21  36  58  84 108 157 205 250 307 340
#     4  11  26  38  59  82 123 164 200 252 290 373
#
# _framework density 19.681602000000002
#
# number of rings (size 3 to 8) (size 9 to 14) (size 15 to 20)
#    0.000    1.600    0.000    5.200   18.667    0.000 
#    0.000    0.000    0.000    0.000    0.000    7.467 
#    0.000    0.000    0.000    0.000    0.000    0.000 
#
# Total GULP energy -334230.436931 kJ/mol
# GULP energy per Si atom -5570.507282 kJ/mol
# Density = 1.963681 g / cm^3
# Si number density = 19.681602 Si / 1000 Ang^3
#
#
#
# Elastic Constant Matrix: (Units=GPa)
#
#
# Indices 1 2 3 4 5 6 
#
# 1 109.0413 45.3626 15.5178 0.0000 0.0000 0.0000
# 2 45.3626 109.0416 15.5178 0.0000 0.0000 0.0000
# 3 15.5178 15.5178 56.7364 0.0000 0.0000 0.0000
# 4 0.0000 0.0000 0.0000 27.3726 0.0000 0.0000
# 5 0.0000 0.0000 0.0000 0.0000 27.3726 0.0000
# 6 0.0000 0.0000 0.0000 0.0000 0.0000 15.0458
#
#
#
# Elastic Compliance Matrix: (Units=1/GPa)
#
#
# Indices 1 2 3 4 5 6 
#
# 1 0.011279 -0.004425 -0.001874 0.000000 0.000000 0.000000
# 2 -0.004425 0.011279 -0.001874 0.000000 0.000000 0.000000
# 3 -0.001874 -0.001874 0.018651 0.000000 0.000000 0.000000
# 4 0.000000 0.000000 0.000000 0.036533 0.000000 0.000000
# 5 0.000000 0.000000 0.000000 0.000000 0.036533 0.000000
# 6 0.000000 0.000000 0.000000 0.000000 0.000000 0.066464
#
#
# Mechanical properties :
#
#
# Convention : Reuss Voigt Hill
#
# Bulk Modulus (GPa) = 40.22595 47.51287 43.86941
# Shear Modulus (GPa) = 24.34604 27.18626 25.76615
#
# Velocity S-wave (km/s) = 3.52091 3.72062 3.62214
# Velocity P-wave (km/s) = 6.08373 6.53074 6.31119
#
# Compressibility (1/GPa) = 0.02485958
#
# Stress axis : x y z
#
# Youngs Moduli (GPa) = 88.66381 88.66404 53.61726
#
# Poissons Ratio (x) = 0.39236 0.10050
# Poissons Ratio (y) = 0.39236 0.10050
# Poissons Ratio (z) = 0.16619 0.16619
#
# Static dielectric constant tensor:
#      x y z
#    x 1.756040 0.000000 0.000000 
#    y 0.000000 1.756040 0.000000 
#    z 0.000000 0.000000 1.781100 
# 
# From -- ./inp_files/1867.got.cif
#   From: 2010.05.17/outbox.cif.g08.bks.cpg/sg142_1_cif.got.tgz:1867.got - 2010.05.20 13:39:18.
