data_PCOD9573836
_publ_section_title
;
Structure prediction by ZEFSAII (Michael W. Deem and Ramdas Pophale) SiO2 
 PCOD9573836
Probable space group: I 41/A C D
;
_chemical_formula_sum "Si O2"
_cell_formula_units_Z 160
_cell_length_a 15.922224
_cell_length_b 15.922224
_cell_length_c 30.529548
_cell_angle_alpha 90.000000
_cell_angle_beta 90.000000
_cell_angle_gamma 90.000000
_cell_volume 7739.766048
_symmetry_space_group_name_H-M "I 41/A C D"
_symmetry_group_IT_number 142
_space_group.IT_coordinate_system_code '2'
_symmetry_cell_setting 'tetragonal'
loop_
_space_group_symop_operation_xyz
x,y,z
1/4-y,3/4+x,1/4+z
-x,1/2-y,z
1/4+y,1/4-x,3/4+z
x,-y,1/2-z
1/2-x,y,-z
3/4+y,1/4+x,1/4-z
1/4-y,1/4-x,1/4-z
-x,-y,-z
3/4+y,1/4-x,3/4-z
x,1/2+y,-z
3/4-y,3/4+x,1/4-z
-x,y,1/2+z
1/2+x,-y,z
1/4-y,3/4-x,3/4+z
3/4+y,3/4+x,3/4+z
1/2+x,1/2+y,1/2+z
3/4-y,1/4+x,3/4+z
1/2-x,-y,1/2+z
3/4+y,3/4-x,1/4+z
1/2+x,1/2-y,-z
-x,1/2+y,1/2-z
1/4+y,3/4+x,3/4-z
3/4-y,3/4-x,3/4-z
1/2-x,1/2-y,1/2-z
1/4+y,3/4-x,1/4-z
1/2+x,y,1/2-z
1/4-y,1/4+x,3/4-z
1/2-x,1/2+y,z
x,1/2-y,1/2+z
3/4-y,1/4-x,1/4+z
1/4+y,1/4+x,1/4+z
loop_
_atom_site_type_symbol
_atom_site_label
_atom_site_fract_x
_atom_site_fract_y
_atom_site_fract_z
Si Si1 0.302794 0.809990 0.128272
Si Si2 0.171830 0.829368 0.772168
Si Si3 0.897663 0.244990 0.549978
Si Si4 0.385753 0.812914 0.863483
Si Si5 0.351582 0.349132 0.232873
O O1 0.352401 0.897600 0.125000
O O2 0.309367 0.788535 0.179655
O O3 0.352631 0.746756 0.096841
O O4 0.206175 0.820621 0.116161
O O5 0.083789 0.876358 0.777348
O O6 0.256070 0.880606 0.761722
O O7 0.158042 0.751680 0.739902
O O8 0.873311 0.167871 0.519218
O O9 0.000000 0.250000 0.554589
O O10 0.463311 0.846921 0.891480
O O11 0.384174 0.859088 0.816508
#
# Coordination Sequence:
#
# PCOD9573836 Si02
#       5
#    32  32  32  32  32
#     4   9  18  36  58  85 115 151 188 254 302 349
#     4   8  16  28  51  79 113 144 183 235 292 352
#     4   9  17  28  57  84 114 150 193 240 303 358
#     4  10  22  36  60  81 114 164 206 236 285 374
#     4   9  17  31  50  82 111 147 194 239 283 351
#
# _framework density 20.672459
#
# number of rings (size 3 to 8) (size 9 to 14) (size 15 to 20)
#    0.000    3.000    0.000    0.000    8.400    9.200 
#    0.000    1.000   26.400    0.000   15.600    0.000 
#    0.000    0.000    0.000    0.000    0.000    0.000 
#
# Total GULP energy -445746.791051 kJ/mol
# GULP energy per Si atom -5571.834888 kJ/mol
# Density = 2.062541 g / cm^3
# Si number density = 20.672459 Si / 1000 Ang^3
#
#
#
# Elastic Constant Matrix: (Units=GPa)
#
#
# Indices 1 2 3 4 5 6 
#
# 1 91.2709 21.5532 31.7086 0.0000 0.0000 0.0000
# 2 21.5532 91.2720 31.7077 0.0000 0.0000 0.0000
# 3 31.7086 31.7077 63.2955 0.0000 0.0000 0.0000
# 4 0.0000 0.0000 0.0000 17.8789 0.0000 0.0000
# 5 0.0000 0.0000 0.0000 0.0000 17.8793 0.0000
# 6 0.0000 0.0000 0.0000 0.0000 0.0000 4.1103
#
#
#
# Elastic Compliance Matrix: (Units=1/GPa)
#
#
# Indices 1 2 3 4 5 6 
#
# 1 0.013340 -0.001003 -0.006181 0.000000 0.000000 0.000000
# 2 -0.001003 0.013340 -0.006180 0.000000 0.000000 0.000000
# 3 -0.006181 -0.006180 0.021991 0.000000 0.000000 0.000000
# 4 0.000000 0.000000 0.000000 0.055932 0.000000 0.000000
# 5 0.000000 0.000000 0.000000 0.000000 0.055931 0.000000
# 6 0.000000 0.000000 0.000000 0.000000 0.000000 0.243289
#
#
# Mechanical properties :
#
#
# Convention : Reuss Voigt Hill
#
# Bulk Modulus (GPa) = 45.57063 46.19750 45.88406
# Shear Modulus (GPa) = 11.41902 18.69829 15.05866
#
# Velocity S-wave (km/s) = 2.35282 3.01076 2.70189
# Velocity P-wave (km/s) = 5.42891 5.87215 5.65487
#
# Compressibility (1/GPa) = 0.02194396
#
# Stress axis : x y z
#
# Youngs Moduli (GPa) = 74.95993 74.96184 45.47308
#
# Poissons Ratio (x) = 0.07520 0.28105
# Poissons Ratio (y) = 0.07520 0.28103
# Poissons Ratio (z) = 0.46329 0.46328
#
# Static dielectric constant tensor:
#      x y z
#    x 1.767110 0.000000 0.000000 
#    y 0.000000 1.767110 0.000000 
#    z 0.000000 0.000000 1.776850 
# 
# From -- ./inp_files/12420.got.cif
#   From: 2010.05.17/outbox.cif.g08.bks.cpg/sg142_7_cif.got.tgz:12420.got - 2010.05.20 13:39:18.
