data_PCOD9573550
_publ_section_title
;
Structure prediction by ZEFSAII (Michael W. Deem and Ramdas Pophale) SiO2 
 PCOD9573550
Probable space group: I 41/A C D
;
_chemical_formula_sum "Si O2"
_cell_formula_units_Z 216
_cell_length_a 29.303932
_cell_length_b 29.303932
_cell_length_c 12.872117
_cell_angle_alpha 90.000000
_cell_angle_beta 90.000000
_cell_angle_gamma 90.000000
_cell_volume 11053.549854
_symmetry_space_group_name_H-M "I 41/A C D"
_symmetry_group_IT_number 142
_space_group.IT_coordinate_system_code '2'
_symmetry_cell_setting 'tetragonal'
loop_
_space_group_symop_operation_xyz
x,y,z
1/4-y,3/4+x,1/4+z
-x,1/2-y,z
1/4+y,1/4-x,3/4+z
x,-y,1/2-z
1/2-x,y,-z
3/4+y,1/4+x,1/4-z
1/4-y,1/4-x,1/4-z
-x,-y,-z
3/4+y,1/4-x,3/4-z
x,1/2+y,-z
3/4-y,3/4+x,1/4-z
-x,y,1/2+z
1/2+x,-y,z
1/4-y,3/4-x,3/4+z
3/4+y,3/4+x,3/4+z
1/2+x,1/2+y,1/2+z
3/4-y,1/4+x,3/4+z
1/2-x,-y,1/2+z
3/4+y,3/4-x,1/4+z
1/2+x,1/2-y,-z
-x,1/2+y,1/2-z
1/4+y,3/4+x,3/4-z
3/4-y,3/4-x,3/4-z
1/2-x,1/2-y,1/2-z
1/4+y,3/4-x,1/4-z
1/2+x,y,1/2-z
1/4-y,1/4+x,3/4-z
1/2-x,1/2+y,z
x,1/2-y,1/2+z
3/4-y,1/4-x,1/4+z
1/4+y,1/4+x,1/4+z
loop_
_atom_site_type_symbol
_atom_site_label
_atom_site_fract_x
_atom_site_fract_y
_atom_site_fract_z
Si Si1 0.567705 0.911490 0.301536
Si Si2 0.033051 0.654891 0.535244
Si Si3 0.293792 0.601695 0.046629
Si Si4 0.513495 0.076976 0.410223
Si Si5 0.385542 0.864458 0.125000
Si Si6 0.788200 0.665964 0.910809
Si Si7 0.074094 0.003745 0.442700
Si Si8 0.000000 0.250000 0.875000
O O1 0.551096 0.865895 0.356795
O O2 0.621348 0.922119 0.281459
O O3 0.543891 0.911649 0.189924
O O4 0.553522 0.952950 0.379935
O O5 0.076448 0.647018 0.460825
O O6 0.015650 0.706151 0.555783
O O7 0.996103 0.620765 0.482207
O O8 0.321894 0.571894 0.125000
O O9 0.268663 0.641283 0.111946
O O10 0.250000 0.575923 0.000000
O O11 0.467478 0.055419 0.362289
O O12 0.538300 0.035768 0.469523
O O13 0.389862 0.914218 0.176722
O O14 0.769008 0.651663 0.798016
O O15 0.750000 0.663277 0.000000
#
# Coordination Sequence:
#
# PCOD9573550 Si02
#       8
#    32  32  32  32  16  32  32   8
#     4  10  20  39  64  94 122 163 206 269 326 378
#     4  11  26  45  63  88 129 171 219 266 312 381
#     4   9  20  37  64  91 125 161 205 254 315 381
#     4  10  21  36  66  95 126 150 206 276 335 374
#     4  10  24  45  62  88 132 170 206 270 326 384
#     4  11  22  35  63  95 125 168 203 265 327 383
#     4  10  19  38  61  99 126 155 206 271 327 385
#     4  12  32  46  64  84 126 192 224 266 304 388
#
# _framework density 19.541232999999998
#
# number of rings (size 3 to 8) (size 9 to 14) (size 15 to 20)
#    0.000    1.778    2.963    2.667    6.222    3.852 
#    0.000    0.000    1.630    0.000    0.000    0.000 
#    0.000    0.000    0.000    0.000    0.000    0.000 
#
# Total GULP energy -601803.258597 kJ/mol
# GULP energy per Si atom -5572.252394 kJ/mol
# Density = 1.949676 g / cm^3
# Si number density = 19.541233 Si / 1000 Ang^3
#
#
#
# Elastic Constant Matrix: (Units=GPa)
#
#
# Indices 1 2 3 4 5 6 
#
# 1 91.0132 36.3918 19.7899 0.0000 0.0000 0.0000
# 2 36.3918 91.0130 19.7892 0.0000 0.0000 0.0000
# 3 19.7899 19.7892 71.1592 0.0000 0.0000 0.0000
# 4 0.0000 0.0000 0.0000 45.3596 0.0000 0.0000
# 5 0.0000 0.0000 0.0000 0.0000 45.3639 0.0000
# 6 0.0000 0.0000 0.0000 0.0000 0.0000 16.5732
#
#
#
# Elastic Compliance Matrix: (Units=1/GPa)
#
#
# Indices 1 2 3 4 5 6 
#
# 1 0.013450 -0.004858 -0.002389 0.000000 0.000000 0.000000
# 2 -0.004858 0.013450 -0.002389 0.000000 0.000000 0.000000
# 3 -0.002389 -0.002389 0.015382 0.000000 0.000000 0.000000
# 4 0.000000 0.000000 0.000000 0.022046 0.000000 0.000000
# 5 0.000000 0.000000 0.000000 0.000000 0.022044 0.000000
# 6 0.000000 0.000000 0.000000 0.000000 0.000000 0.060338
#
#
# Mechanical properties :
#
#
# Convention : Reuss Voigt Hill
#
# Bulk Modulus (GPa) = 43.46431 45.01414 44.23922
# Shear Modulus (GPa) = 28.79319 33.27364 31.03341
#
# Velocity S-wave (km/s) = 3.84273 4.13090 3.98942
# Velocity P-wave (km/s) = 6.47915 6.77037 6.62636
#
# Compressibility (1/GPa) = 0.02300738
#
# Stress axis : x y z
#
# Youngs Moduli (GPa) = 74.35183 74.35202 65.01151
#
# Poissons Ratio (x) = 0.36123 0.15533
# Poissons Ratio (y) = 0.36123 0.15532
# Poissons Ratio (z) = 0.17765 0.17764
#
# Static dielectric constant tensor:
#      x y z
#    x 1.726490 0.000000 0.000000 
#    y 0.000000 1.726490 0.000000 
#    z 0.000000 0.000000 1.472770 
# 
# From -- ./inp_files/4258.got.cif
#   From: 2010.05.17/outbox.cif.g08.bks.cpg/sg142_3_cif.got.tgz:4258.got - 2010.05.20 13:39:18.
