data_PCOD9573444
_publ_section_title
;
Structure prediction by ZEFSAII (Michael W. Deem and Ramdas Pophale) SiO2 
 PCOD9573444
Probable space group: I 41/A C D
;
_chemical_formula_sum "Si O2"
_cell_formula_units_Z 136
_cell_length_a 18.976273
_cell_length_b 18.976273
_cell_length_c 18.137702
_cell_angle_alpha 90.000000
_cell_angle_beta 90.000000
_cell_angle_gamma 90.000000
_cell_volume 6531.367209
_symmetry_space_group_name_H-M "I 41/A C D"
_symmetry_group_IT_number 142
_space_group.IT_coordinate_system_code '2'
_symmetry_cell_setting 'tetragonal'
loop_
_space_group_symop_operation_xyz
x,y,z
1/4-y,3/4+x,1/4+z
-x,1/2-y,z
1/4+y,1/4-x,3/4+z
x,-y,1/2-z
1/2-x,y,-z
3/4+y,1/4+x,1/4-z
1/4-y,1/4-x,1/4-z
-x,-y,-z
3/4+y,1/4-x,3/4-z
x,1/2+y,-z
3/4-y,3/4+x,1/4-z
-x,y,1/2+z
1/2+x,-y,z
1/4-y,3/4-x,3/4+z
3/4+y,3/4+x,3/4+z
1/2+x,1/2+y,1/2+z
3/4-y,1/4+x,3/4+z
1/2-x,-y,1/2+z
3/4+y,3/4-x,1/4+z
1/2+x,1/2-y,-z
-x,1/2+y,1/2-z
1/4+y,3/4+x,3/4-z
3/4-y,3/4-x,3/4-z
1/2-x,1/2-y,1/2-z
1/4+y,3/4-x,1/4-z
1/2+x,y,1/2-z
1/4-y,1/4+x,3/4-z
1/2-x,1/2+y,z
x,1/2-y,1/2+z
3/4-y,1/4-x,1/4+z
1/4+y,1/4+x,1/4+z
loop_
_atom_site_type_symbol
_atom_site_label
_atom_site_fract_x
_atom_site_fract_y
_atom_site_fract_z
Si Si1 0.324304 0.124719 0.031397
Si Si2 0.821108 0.458044 0.543586
Si Si3 0.641567 0.289394 0.796901
Si Si4 0.000000 0.750000 0.875000
Si Si5 0.801799 0.697737 0.676797
O O1 0.338025 0.170931 0.103125
O O2 0.317331 0.042754 0.054905
O O3 0.250000 0.147777 0.000000
O O4 0.379754 0.128921 0.965617
O O5 0.750000 0.436825 0.500000
O O6 0.825324 0.424677 0.625000
O O7 0.886682 0.445298 0.489423
O O8 0.573775 0.251394 0.830257
O O9 0.718561 0.284764 0.835131
O O10 0.659186 0.262559 0.714384
#
# Coordination Sequence:
#
# PCOD9573444 Si02
#       5
#    32  32  32   8  32
#     4  10  20  36  63  88 120 162 205 261 314 370
#     4  10  18  31  58  95 122 162 207 255 311 369
#     4  10  24  39  61  88 123 161 212 254 320 380
#     4  12  24  44  62  88 120 180 206 248 316 404
#     4  10  21  40  59  89 128 155 206 272 310 372
#
# _framework density 20.822593000000001
#
# number of rings (size 3 to 8) (size 9 to 14) (size 15 to 20)
#    0.000    1.882    2.353    1.412    1.647    1.882 
#    0.000    0.000    0.000    0.000    0.000    0.000 
#    0.000    0.000    0.000    0.000    0.000    0.000 
#
# Total GULP energy -379584.092961 kJ/mol
# GULP energy per Si atom -5582.119014 kJ/mol
# Density = 2.077520 g / cm^3
# Si number density = 20.822593 Si / 1000 Ang^3
#
#
#
# Elastic Constant Matrix: (Units=GPa)
#
#
# Indices 1 2 3 4 5 6 
#
# 1 60.8661 34.3771 15.3320 0.0000 0.0000 0.0000
# 2 34.3771 60.8665 15.3324 0.0000 0.0000 0.0000
# 3 15.3320 15.3324 61.9437 0.0000 0.0000 0.0000
# 4 0.0000 0.0000 0.0000 26.2493 0.0000 0.0000
# 5 0.0000 0.0000 0.0000 0.0000 26.2488 0.0000
# 6 0.0000 0.0000 0.0000 0.0000 0.0000 27.0444
#
#
#
# Elastic Compliance Matrix: (Units=1/GPa)
#
#
# Indices 1 2 3 4 5 6 
#
# 1 0.024580 -0.013171 -0.002824 0.000000 0.000000 0.000000
# 2 -0.013171 0.024580 -0.002824 0.000000 0.000000 0.000000
# 3 -0.002824 -0.002824 0.017542 0.000000 0.000000 0.000000
# 4 0.000000 0.000000 0.000000 0.038096 0.000000 0.000000
# 5 0.000000 0.000000 0.000000 0.000000 0.038097 0.000000
# 6 0.000000 0.000000 0.000000 0.000000 0.000000 0.036976
#
#
# Mechanical properties :
#
#
# Convention : Reuss Voigt Hill
#
# Bulk Modulus (GPa) = 34.40753 34.86215 34.63484
# Shear Modulus (GPa) = 22.00736 23.81747 22.91241
#
# Velocity S-wave (km/s) = 3.25452 3.38572 3.32077
# Velocity P-wave (km/s) = 5.53918 5.66242 5.60114
#
# Compressibility (1/GPa) = 0.02906341
#
# Stress axis : x y z
#
# Youngs Moduli (GPa) = 40.68361 40.68370 57.00735
#
# Poissons Ratio (x) = 0.53586 0.16097
# Poissons Ratio (y) = 0.53586 0.16099
# Poissons Ratio (z) = 0.11488 0.11489
#
# Static dielectric constant tensor:
#      x y z
#    x 1.761260 0.000000 0.000000 
#    y 0.000000 1.761260 0.000000 
#    z 0.000000 0.000000 1.761570 
# 
# From -- ./inp_files/8826.got.cif
#   From: 2010.05.17/outbox.cif.g08.bks.cpg/sg142_5_cif.got.tgz:8826.got - 2010.05.20 13:39:18.
