data_PCOD9573931
_publ_section_title
;
Structure prediction by ZEFSAII (Michael W. Deem and Ramdas Pophale) SiO2 
 PCOD9573931
Probable space group: I 41/A C D
;
_chemical_formula_sum "Si O2"
_cell_formula_units_Z 136
_cell_length_a 19.092804
_cell_length_b 19.092804
_cell_length_c 16.745432
_cell_angle_alpha 90.000000
_cell_angle_beta 90.000000
_cell_angle_gamma 90.000000
_cell_volume 6104.298810
_symmetry_space_group_name_H-M "I 41/A C D"
_symmetry_group_IT_number 142
_space_group.IT_coordinate_system_code '2'
_symmetry_cell_setting 'tetragonal'
loop_
_space_group_symop_operation_xyz
x,y,z
1/4-y,3/4+x,1/4+z
-x,1/2-y,z
1/4+y,1/4-x,3/4+z
x,-y,1/2-z
1/2-x,y,-z
3/4+y,1/4+x,1/4-z
1/4-y,1/4-x,1/4-z
-x,-y,-z
3/4+y,1/4-x,3/4-z
x,1/2+y,-z
3/4-y,3/4+x,1/4-z
-x,y,1/2+z
1/2+x,-y,z
1/4-y,3/4-x,3/4+z
3/4+y,3/4+x,3/4+z
1/2+x,1/2+y,1/2+z
3/4-y,1/4+x,3/4+z
1/2-x,-y,1/2+z
3/4+y,3/4-x,1/4+z
1/2+x,1/2-y,-z
-x,1/2+y,1/2-z
1/4+y,3/4+x,3/4-z
3/4-y,3/4-x,3/4-z
1/2-x,1/2-y,1/2-z
1/4+y,3/4-x,1/4-z
1/2+x,y,1/2-z
1/4-y,1/4+x,3/4-z
1/2-x,1/2+y,z
x,1/2-y,1/2+z
3/4-y,1/4-x,1/4+z
1/4+y,1/4+x,1/4+z
loop_
_atom_site_type_symbol
_atom_site_label
_atom_site_fract_x
_atom_site_fract_y
_atom_site_fract_z
Si Si1 0.188959 0.561042 0.875000
Si Si2 0.000000 0.750000 0.625000
Si Si3 0.250000 0.543772 0.500000
Si Si4 0.355579 0.157557 0.453917
Si Si5 0.987157 0.110921 0.958588
Si Si6 0.530413 0.035277 0.374826
O O1 0.204323 0.506066 0.944758
O O2 0.202382 0.640265 0.900476
O O3 0.067564 0.727400 0.677606
O O4 0.298705 0.596329 0.548627
O O5 0.402733 0.152733 0.375000
O O6 0.407779 0.137886 0.524694
O O7 0.315729 0.229982 0.443342
O O8 0.986520 0.045450 0.897584
O O9 0.017643 0.078527 0.041451
#
# Coordination Sequence:
#
# PCOD9573931 Si02
#       6
#    16   8  16  32  32  32
#     4  12  26  42  71 108 138 175 236 290 342 420
#     4  12  28  40  70 100 140 172 232 290 344 420
#     4  12  24  42  70 100 138 174 228 292 344 408
#     4  10  22  44  67  91 131 183 220 282 349 410
#     4  10  24  46  65  99 135 178 228 281 347 421
#     4  10  24  44  70  95 137 179 228 282 345 416
#
# _framework density 22.279381999999998
#
# number of rings (size 3 to 8) (size 9 to 14) (size 15 to 20)
#    0.000    1.412    3.529    0.000    6.588    2.824 
#    0.000    0.000    0.000    0.000    0.000    0.000 
#    0.000    0.000    0.000    0.000    0.000    0.000 
#
# Total GULP energy -379752.424596 kJ/mol
# GULP energy per Si atom -5584.594479 kJ/mol
# Density = 2.222867 g / cm^3
# Si number density = 22.279382 Si / 1000 Ang^3
#
#
#
# Elastic Constant Matrix: (Units=GPa)
#
#
# Indices 1 2 3 4 5 6 
#
# 1 102.4394 34.1776 14.5787 0.0000 0.0000 0.0000
# 2 34.1776 102.4362 14.5772 0.0000 0.0000 0.0000
# 3 14.5787 14.5772 27.0635 0.0000 0.0000 0.0000
# 4 0.0000 0.0000 0.0000 29.6911 0.0000 0.0000
# 5 0.0000 0.0000 0.0000 0.0000 29.6912 0.0000
# 6 0.0000 0.0000 0.0000 0.0000 0.0000 31.9855
#
#
#
# Elastic Compliance Matrix: (Units=1/GPa)
#
#
# Indices 1 2 3 4 5 6 
#
# 1 0.011460 -0.003190 -0.004455 0.000000 0.000000 0.000000
# 2 -0.003190 0.011460 -0.004455 0.000000 0.000000 0.000000
# 3 -0.004455 -0.004455 0.041750 0.000000 0.000000 0.000000
# 4 0.000000 0.000000 0.000000 0.033680 0.000000 0.000000
# 5 0.000000 0.000000 0.000000 0.000000 0.033680 0.000000
# 6 0.000000 0.000000 0.000000 0.000000 0.000000 0.031264
#
#
# Mechanical properties :
#
#
# Convention : Reuss Voigt Hill
#
# Bulk Modulus (GPa) = 24.70922 39.84512 32.27717
# Shear Modulus (GPa) = 24.87764 29.51395 27.19579
#
# Velocity S-wave (km/s) = 3.34521 3.64362 3.49760
# Velocity P-wave (km/s) = 5.10248 5.96862 5.55246
#
# Compressibility (1/GPa) = 0.04047072
#
# Stress axis : x y z
#
# Youngs Moduli (GPa) = 87.25925 87.25773 23.95234
#
# Poissons Ratio (x) = 0.27832 0.10672
# Poissons Ratio (y) = 0.27832 0.10670
# Poissons Ratio (z) = 0.38877 0.38870
#
# Static dielectric constant tensor:
#      x y z
#    x 1.808940 0.000000 0.000000 
#    y 0.000000 1.808940 0.000000 
#    z 0.000000 0.000000 1.873850 
# 
# From -- ./inp_files/8839.got.cif
#   From: 2010.05.17/outbox.cif.g08.bks.cpg/sg142_5_cif.got.tgz:8839.got - 2010.05.20 13:39:18.
