data_PCOD9573337
_publ_section_title
;
Structure prediction by ZEFSAII (Michael W. Deem and Ramdas Pophale) SiO2 
 PCOD9573337
Probable space group: I 41/A M D
;
_chemical_formula_sum "Si O2"
_cell_formula_units_Z 84
_cell_length_a 11.624834
_cell_length_b 11.624834
_cell_length_c 26.737616
_cell_angle_alpha 90.000000
_cell_angle_beta 90.000000
_cell_angle_gamma 90.000000
_cell_volume 3613.234944
_symmetry_space_group_name_H-M "I 41/A M D"
_symmetry_group_IT_number 141
_space_group.IT_coordinate_system_code '2'
_symmetry_cell_setting 'tetragonal'
loop_
_space_group_symop_operation_xyz
x,y,z
1/4-y,3/4+x,1/4+z
-x,1/2-y,z
1/4+y,1/4-x,3/4+z
x,-y,-z
-x,1/2+y,-z
1/4+y,3/4+x,1/4-z
1/4-y,1/4-x,3/4-z
-x,-y,-z
3/4+y,1/4-x,3/4-z
x,1/2+y,-z
3/4-y,3/4+x,1/4-z
-x,y,z
x,1/2-y,z
3/4-y,1/4-x,3/4+z
3/4+y,3/4+x,1/4+z
1/2+x,1/2+y,1/2+z
3/4-y,1/4+x,3/4+z
1/2-x,-y,1/2+z
3/4+y,3/4-x,1/4+z
1/2+x,1/2-y,1/2-z
1/2-x,y,1/2-z
3/4+y,1/4+x,3/4-z
3/4-y,3/4-x,1/4-z
1/2-x,1/2-y,1/2-z
1/4+y,3/4-x,1/4-z
1/2+x,y,1/2-z
1/4-y,1/4+x,3/4-z
1/2-x,1/2+y,1/2+z
1/2+x,-y,1/2+z
1/4-y,3/4-x,1/4+z
1/4+y,1/4+x,3/4+z
loop_
_atom_site_type_symbol
_atom_site_label
_atom_site_fract_x
_atom_site_fract_y
_atom_site_fract_z
Si Si1 0.312018 0.118384 0.880711
Si Si2 0.500000 0.983227 0.940401
Si Si3 0.000000 0.250000 0.375000
Si Si4 0.635364 0.124657 0.483731
O O1 0.307750 0.250000 0.895237
O O2 0.370196 0.110609 0.826224
O O3 0.186954 0.063047 0.875000
O O4 0.387940 0.046556 0.918773
O O5 0.500000 0.858907 0.912961
O O6 0.500000 0.000000 0.000000
O O7 0.500000 0.124180 0.499168
O O8 0.683920 0.250000 0.499615
O O9 0.683927 0.000000 0.500000
#
# Coordination Sequence:
#
# PCOD9573337 Si02
#       4
#    32  16   4  32
#     4  11  24  45  70 107 153 201 260 324 396 491
#     4  12  27  50  81 114 158 211 270 341 408 469
#     4  12  28  56  84 132 160 196 292 348 380 506
#     4   9  18  35  63  97 142 191 237 296 375 460
#
# _framework density 23.247866999999999
#
# number of rings (size 3 to 8) (size 9 to 14) (size 15 to 20)
#    0.000    1.524    3.810    0.571    2.667    3.429 
#    0.000    3.810    0.000    0.000    0.000    0.000 
#    0.000    0.000    0.000    0.000    0.000    0.000 
#
# Total GULP energy -234778.350600 kJ/mol
# GULP energy per Si atom -5589.960729 kJ/mol
# Density = 2.319495 g / cm^3
# Si number density = 23.247867 Si / 1000 Ang^3
#
#
#
# Elastic Constant Matrix: (Units=GPa)
#
#
# Indices 1 2 3 4 5 6 
#
# 1 193.2448 62.4806 63.1436 0.0000 0.0000 0.0000
# 2 62.4806 193.2398 63.1442 0.0000 0.0000 0.0000
# 3 63.1436 63.1442 149.5647 0.0000 0.0000 0.0000
# 4 0.0000 0.0000 0.0000 22.2321 0.0000 0.0000
# 5 0.0000 0.0000 0.0000 0.0000 22.2334 0.0000
# 6 0.0000 0.0000 0.0000 0.0000 0.0000 13.7452
#
#
#
# Elastic Compliance Matrix: (Units=1/GPa)
#
#
# Indices 1 2 3 4 5 6 
#
# 1 0.006294 -0.001353 -0.002086 0.000000 0.000000 0.000000
# 2 -0.001353 0.006294 -0.002086 0.000000 0.000000 0.000000
# 3 -0.002086 -0.002086 0.008447 0.000000 0.000000 0.000000
# 4 0.000000 0.000000 0.000000 0.044980 0.000000 0.000000
# 5 0.000000 0.000000 0.000000 0.000000 0.044977 0.000000
# 6 0.000000 0.000000 0.000000 0.000000 0.000000 0.072753
#
#
# Mechanical properties :
#
#
# Convention : Reuss Voigt Hill
#
# Bulk Modulus (GPa) = 100.14935 101.50957 100.82946
# Shear Modulus (GPa) = 25.23673 34.79420 30.01546
#
# Velocity S-wave (km/s) = 3.29834 3.87287 3.59709
# Velocity P-wave (km/s) = 7.59460 7.98484 7.79216
#
# Compressibility (1/GPa) = 0.00998509
#
# Stress axis : x y z
#
# Youngs Moduli (GPa) = 158.88327 158.87807 118.38129
#
# Poissons Ratio (x) = 0.21504 0.24692
# Poissons Ratio (y) = 0.21504 0.24693
# Poissons Ratio (z) = 0.33139 0.33140
#
# Static dielectric constant tensor:
#      x y z
#    x 1.881280 0.000000 0.000000 
#    y 0.000000 1.881280 0.000000 
#    z 0.000000 0.000000 1.912240 
# 
# From -- ./inp_files/13725.got.cif
#   From: 2010.05.17/outbox.cif.g08.bks.cpg/sg141_7_cif.got.tgz:13725.got - 2010.05.20 13:30:51.
