data_PCOD9573290
_publ_section_title
;
Structure prediction by ZEFSAII (Michael W. Deem and Ramdas Pophale) SiO2 
 PCOD9573290
Probable space group: I 41/A M D
;
_chemical_formula_sum "Si O2"
_cell_formula_units_Z 128
_cell_length_a 19.854036
_cell_length_b 19.854036
_cell_length_c 17.329570
_cell_angle_alpha 90.000000
_cell_angle_beta 90.000000
_cell_angle_gamma 90.000000
_cell_volume 6831.017481
_symmetry_space_group_name_H-M "I 41/A M D"
_symmetry_group_IT_number 141
_space_group.IT_coordinate_system_code '2'
_symmetry_cell_setting 'tetragonal'
loop_
_space_group_symop_operation_xyz
x,y,z
1/4-y,3/4+x,1/4+z
-x,1/2-y,z
1/4+y,1/4-x,3/4+z
x,-y,-z
-x,1/2+y,-z
1/4+y,3/4+x,1/4-z
1/4-y,1/4-x,3/4-z
-x,-y,-z
3/4+y,1/4-x,3/4-z
x,1/2+y,-z
3/4-y,3/4+x,1/4-z
-x,y,z
x,1/2-y,z
3/4-y,1/4-x,3/4+z
3/4+y,3/4+x,1/4+z
1/2+x,1/2+y,1/2+z
3/4-y,1/4+x,3/4+z
1/2-x,-y,1/2+z
3/4+y,3/4-x,1/4+z
1/2+x,1/2-y,1/2-z
1/2-x,y,1/2-z
3/4+y,1/4+x,3/4-z
3/4-y,3/4-x,1/4-z
1/2-x,1/2-y,1/2-z
1/4+y,3/4-x,1/4-z
1/2+x,y,1/2-z
1/4-y,1/4+x,3/4-z
1/2-x,1/2+y,1/2+z
1/2+x,-y,1/2+z
1/4-y,3/4-x,1/4+z
1/4+y,1/4+x,3/4+z
loop_
_atom_site_type_symbol
_atom_site_label
_atom_site_fract_x
_atom_site_fract_y
_atom_site_fract_z
Si Si1 0.258172 0.250000 0.021331
Si Si2 0.890940 0.250000 0.779706
Si Si3 0.078954 0.892233 0.457994
Si Si4 0.500000 0.112541 0.352896
Si Si5 0.000000 0.633450 0.203692
Si Si6 0.217822 0.133458 0.360910
O O1 0.282692 0.184229 0.067336
O O2 0.290716 0.250000 0.937640
O O3 0.178378 0.250000 0.011394
O O4 0.857537 0.250000 0.695590
O O5 0.857894 0.250000 0.864741
O O6 0.937344 0.316839 0.782425
O O7 0.101654 0.818524 0.429139
O O8 0.088919 0.914112 0.547492
O O9 0.000000 0.899065 0.441544
O O10 0.115703 0.955150 0.417095
O O11 0.191293 0.058708 0.375000
#
# Coordination Sequence:
#
# PCOD9573290 Si02
#       6
#    16  16  32  16  16  32
#     4  12  21  36  59  87 129 172 200 253 317 376
#     4   9  20  39  61  95 113 146 213 271 318 374
#     4  11  22  37  60  90 126 168 210 260 306 373
#     4  12  24  34  61  97 122 158 208 267 314 377
#     4   9  20  39  66  84 119 160 200 266 327 372
#     4  11  21  38  58  85 128 172 211 246 310 382
#
# _framework density 18.738057000000001
#
# number of rings (size 3 to 8) (size 9 to 14) (size 15 to 20)
#    0.000    1.250    5.000    3.375    3.500    0.500 
#    0.000    0.000    5.500    0.000    0.000    0.000 
#    0.000    0.000    0.000    0.000    0.000    0.000 
#
# Total GULP energy -356624.839539 kJ/mol
# GULP energy per Si atom -5572.263118 kJ/mol
# Density = 1.869541 g / cm^3
# Si number density = 18.738057 Si / 1000 Ang^3
#
#
#
# Elastic Constant Matrix: (Units=GPa)
#
#
# Indices 1 2 3 4 5 6 
#
# 1 113.7704 47.4623 32.0163 0.0000 0.0000 0.0000
# 2 47.4623 113.7760 32.0180 0.0000 0.0000 0.0000
# 3 32.0163 32.0180 138.4811 0.0000 0.0000 0.0000
# 4 0.0000 0.0000 0.0000 24.8064 0.0000 0.0000
# 5 0.0000 0.0000 0.0000 0.0000 24.8058 0.0000
# 6 0.0000 0.0000 0.0000 0.0000 0.0000 7.9407
#
#
#
# Elastic Compliance Matrix: (Units=1/GPa)
#
#
# Indices 1 2 3 4 5 6 
#
# 1 0.010955 -0.004126 -0.001579 0.000000 0.000000 0.000000
# 2 -0.004126 0.010955 -0.001579 0.000000 0.000000 0.000000
# 3 -0.001579 -0.001579 0.007951 0.000000 0.000000 0.000000
# 4 0.000000 0.000000 0.000000 0.040312 0.000000 0.000000
# 5 0.000000 0.000000 0.000000 0.000000 0.040313 0.000000
# 6 0.000000 0.000000 0.000000 0.000000 0.000000 0.125934
#
#
# Mechanical properties :
#
#
# Convention : Reuss Voigt Hill
#
# Bulk Modulus (GPa) = 65.38526 65.44674 65.41600
# Shear Modulus (GPa) = 19.52475 28.47930 24.00203
#
# Velocity S-wave (km/s) = 3.23148 3.90277 3.58288
# Velocity P-wave (km/s) = 6.99238 7.43719 7.21821
#
# Compressibility (1/GPa) = 0.01529397
#
# Stress axis : x y z
#
# Youngs Moduli (GPa) = 91.28193 91.28604 125.76555
#
# Poissons Ratio (x) = 0.37661 0.19857
# Poissons Ratio (y) = 0.37660 0.19858
# Poissons Ratio (z) = 0.14412 0.14414
#
# Static dielectric constant tensor:
#      x y z
#    x 1.647610 0.000000 0.000000 
#    y 0.000000 1.647600 0.000000 
#    z 0.000000 0.000000 1.721250 
# 
# From -- ./inp_files/8349.got.cif
#   From: 2010.05.17/outbox.cif.g08.bks.cpg/sg141_5_cif.got.tgz:8349.got - 2010.05.20 13:30:51.
