data_PCOD9573432
_publ_section_title
;
Structure prediction by ZEFSAII (Michael W. Deem and Ramdas Pophale) SiO2 
 PCOD9573432
Probable space group: I 41/A C D
;
_chemical_formula_sum "Si O2"
_cell_formula_units_Z 176
_cell_length_a 23.670356
_cell_length_b 23.670356
_cell_length_c 13.416280
_cell_angle_alpha 90.000000
_cell_angle_beta 90.000000
_cell_angle_gamma 90.000000
_cell_volume 7516.950544
_symmetry_space_group_name_H-M "I 41/A C D"
_symmetry_group_IT_number 142
_space_group.IT_coordinate_system_code '2'
_symmetry_cell_setting 'tetragonal'
loop_
_space_group_symop_operation_xyz
x,y,z
1/4-y,3/4+x,1/4+z
-x,1/2-y,z
1/4+y,1/4-x,3/4+z
x,-y,1/2-z
1/2-x,y,-z
3/4+y,1/4+x,1/4-z
1/4-y,1/4-x,1/4-z
-x,-y,-z
3/4+y,1/4-x,3/4-z
x,1/2+y,-z
3/4-y,3/4+x,1/4-z
-x,y,1/2+z
1/2+x,-y,z
1/4-y,3/4-x,3/4+z
3/4+y,3/4+x,3/4+z
1/2+x,1/2+y,1/2+z
3/4-y,1/4+x,3/4+z
1/2-x,-y,1/2+z
3/4+y,3/4-x,1/4+z
1/2+x,1/2-y,-z
-x,1/2+y,1/2-z
1/4+y,3/4+x,3/4-z
3/4-y,3/4-x,3/4-z
1/2-x,1/2-y,1/2-z
1/4+y,3/4-x,1/4-z
1/2+x,y,1/2-z
1/4-y,1/4+x,3/4-z
1/2-x,1/2+y,z
x,1/2-y,1/2+z
3/4-y,1/4-x,1/4+z
1/4+y,1/4+x,1/4+z
loop_
_atom_site_type_symbol
_atom_site_label
_atom_site_fract_x
_atom_site_fract_y
_atom_site_fract_z
Si Si1 0.755797 0.629814 0.809456
Si Si2 0.465477 0.942549 0.216372
Si Si3 0.512575 0.345711 0.424738
Si Si4 0.259047 0.509047 0.625000
Si Si5 0.881705 0.383032 0.441520
Si Si6 0.133984 0.853749 0.267697
O O1 0.781351 0.676737 0.880274
O O2 0.744129 0.574901 0.875822
O O3 0.807430 0.613633 0.737252
O O4 0.700619 0.653039 0.754829
O O5 0.497940 0.891769 0.163116
O O6 0.419614 0.911405 0.288501
O O7 0.496897 0.000000 0.250000
O O8 0.541041 0.291041 0.375000
O O9 0.560929 0.366558 0.500826
O O10 0.453262 0.346483 0.480291
O O11 0.239845 0.500000 0.750000
O O12 0.889357 0.389399 0.324382
O O13 0.131046 0.881046 0.375000
#
# Coordination Sequence:
#
# PCOD9573432 Si02
#       6
#    32  32  32  16  32  32
#     4  11  21  41  65  95 139 182 241 293 354 450
#     4  10  17  38  71  98 125 169 230 292 348 439
#     4   9  23  45  69  97 128 174 233 300 372 441
#     4  12  24  38  66  98 142 208 256 300 378 464
#     4  10  21  41  69  98 133 177 243 293 360 456
#     4  12  27  43  61  99 143 182 233 303 371 443
#
# _framework density 23.413748999999999
#
# number of rings (size 3 to 8) (size 9 to 14) (size 15 to 20)
#    0.000    1.455    3.636    2.727    1.273    6.909 
#    3.273    0.000    0.000    0.000    0.000    0.000 
#    0.000    0.000    0.000    0.000    0.000    0.000 
#
# Total GULP energy -490117.743438 kJ/mol
# GULP energy per Si atom -5569.519812 kJ/mol
# Density = 2.336046 g / cm^3
# Si number density = 23.413749 Si / 1000 Ang^3
#
#
#
# Elastic Constant Matrix: (Units=GPa)
#
#
# Indices 1 2 3 4 5 6 
#
# 1 50.7596 -7.4926 19.9956 0.0000 0.0000 0.0000
# 2 -7.4926 50.7596 19.9956 0.0000 0.0000 0.0000
# 3 19.9956 19.9956 142.9723 0.0000 0.0000 0.0000
# 4 0.0000 0.0000 0.0000 17.7983 0.0000 0.0000
# 5 0.0000 0.0000 0.0000 0.0000 17.7983 0.0000
# 6 0.0000 0.0000 0.0000 0.0000 0.0000 20.1680
#
#
#
# Elastic Compliance Matrix: (Units=1/GPa)
#
#
# Indices 1 2 3 4 5 6 
#
# 1 0.021855 0.004688 -0.003712 0.000000 0.000000 0.000000
# 2 0.004688 0.021855 -0.003712 0.000000 0.000000 0.000000
# 3 -0.003712 -0.003712 0.008033 0.000000 0.000000 0.000000
# 4 0.000000 0.000000 0.000000 0.056185 0.000000 0.000000
# 5 0.000000 0.000000 0.000000 0.000000 0.056185 0.000000
# 6 0.000000 0.000000 0.000000 0.000000 0.000000 0.049583
#
#
# Mechanical properties :
#
#
# Convention : Reuss Voigt Hill
#
# Bulk Modulus (GPa) = 21.61197 34.38765 27.99981
# Shear Modulus (GPa) = 21.31355 25.28578 23.29967
#
# Velocity S-wave (km/s) = 3.02039 3.28983 3.15799
# Velocity P-wave (km/s) = 4.62755 5.39903 5.02810
#
# Compressibility (1/GPa) = 0.04627065
#
# Stress axis : x y z
#
# Youngs Moduli (GPa) = 45.75582 45.75582 124.49051
#
# Poissons Ratio (x) = -0.21452 0.46215
# Poissons Ratio (y) = -0.21452 0.46215
# Poissons Ratio (z) = 0.16986 0.16986
#
# Static dielectric constant tensor:
#      x y z
#    x 1.922430 0.000000 0.000000 
#    y 0.000000 1.922430 0.000000 
#    z 0.000000 0.000000 2.018710 
# 
# From -- ./inp_files/3979.got.cif
#   From: 2010.05.17/outbox.cif.g08.bks.cpg/sg142_2_cif.got.tgz:3979.got - 2010.05.20 13:39:18.
