data_PCOD9573469
_publ_section_title
;
Structure prediction by ZEFSAII (Michael W. Deem and Ramdas Pophale) SiO2 
 PCOD9573469
Probable space group: I 41/A C D
;
_chemical_formula_sum "Si O2"
_cell_formula_units_Z 88
_cell_length_a 22.348704
_cell_length_b 22.348704
_cell_length_c 8.921801
_cell_angle_alpha 90.000000
_cell_angle_beta 90.000000
_cell_angle_gamma 90.000000
_cell_volume 4456.123504
_symmetry_space_group_name_H-M "I 41/A C D"
_symmetry_group_IT_number 142
_space_group.IT_coordinate_system_code '2'
_symmetry_cell_setting 'tetragonal'
loop_
_space_group_symop_operation_xyz
x,y,z
1/4-y,3/4+x,1/4+z
-x,1/2-y,z
1/4+y,1/4-x,3/4+z
x,-y,1/2-z
1/2-x,y,-z
3/4+y,1/4+x,1/4-z
1/4-y,1/4-x,1/4-z
-x,-y,-z
3/4+y,1/4-x,3/4-z
x,1/2+y,-z
3/4-y,3/4+x,1/4-z
-x,y,1/2+z
1/2+x,-y,z
1/4-y,3/4-x,3/4+z
3/4+y,3/4+x,3/4+z
1/2+x,1/2+y,1/2+z
3/4-y,1/4+x,3/4+z
1/2-x,-y,1/2+z
3/4+y,3/4-x,1/4+z
1/2+x,1/2-y,-z
-x,1/2+y,1/2-z
1/4+y,3/4+x,3/4-z
3/4-y,3/4-x,3/4-z
1/2-x,1/2-y,1/2-z
1/4+y,3/4-x,1/4-z
1/2+x,y,1/2-z
1/4-y,1/4+x,3/4-z
1/2-x,1/2+y,z
x,1/2-y,1/2+z
3/4-y,1/4-x,1/4+z
1/4+y,1/4+x,1/4+z
loop_
_atom_site_type_symbol
_atom_site_label
_atom_site_fract_x
_atom_site_fract_y
_atom_site_fract_z
Si Si1 0.500000 0.250000 0.375000
Si Si2 0.750000 0.927155 0.500000
Si Si3 0.582607 0.596729 0.326715
Si Si4 0.029798 0.123651 0.500381
O O1 0.439647 0.246960 0.280326
O O2 0.716317 0.966317 0.625000
O O3 0.703120 0.883027 0.419001
O O4 0.555047 0.599693 0.158049
O O5 0.614722 0.661342 0.350175
O O6 0.525120 0.587586 0.431512
#
# Coordination Sequence:
#
# PCOD9573469 Si02
#       4
#     8  16  32  32
#     4   8  16  30  60  94 140 166 180 250 336 406
#     4  12  26  54  64  84 128 180 228 276 312 376
#     4  10  21  39  65  95 131 166 209 265 328 381
#     4  10  18  35  60 100 132 159 208 258 329 388
#
# _framework density 19.748106
#
# number of rings (size 3 to 8) (size 9 to 14) (size 15 to 20)
#    0.000    2.182    3.636    4.364    0.000    2.909 
#    9.818    0.000    0.000    0.000    0.000    0.000 
#    0.000    0.000    0.000    0.000    0.000    0.000 
#
# Total GULP energy -245506.998277 kJ/mol
# GULP energy per Si atom -5579.704506 kJ/mol
# Density = 1.970316 g / cm^3
# Si number density = 19.748106 Si / 1000 Ang^3
#
#
#
# Elastic Constant Matrix: (Units=GPa)
#
#
# Indices 1 2 3 4 5 6 
#
# 1 102.1793 102.1953 32.5888 0.0000 0.0000 0.0000
# 2 102.1953 102.1793 32.5888 0.0000 0.0000 0.0000
# 3 32.5888 32.5888 42.3095 0.0000 0.0000 0.0000
# 4 0.0000 0.0000 0.0000 18.7593 0.0000 0.0000
# 5 0.0000 0.0000 0.0000 0.0000 18.7593 0.0000
# 6 0.0000 0.0000 0.0000 0.0000 0.0000 54.7666
#
#
#
# Elastic Compliance Matrix: (Units=1/GPa)
#
#
# Indices 1 2 3 4 5 6 
#
# 1 -31.168290 31.174777 -0.004996 0.000000 0.000000 0.000000
# 2 31.174777-31.168290 -0.004996 0.000000 0.000000 0.000000
# 3 -0.004996 -0.004996 0.031332 0.000000 0.000000 0.000000
# 4 0.000000 0.000000 0.000000 0.053307 0.000000 0.000000
# 5 0.000000 0.000000 0.000000 0.000000 0.053307 0.000000
# 6 0.000000 0.000000 0.000000 0.000000 0.000000 0.018259
#
#
# Mechanical properties :
#
#
# Convention : Reuss Voigt Hill
#
# Bulk Modulus (GPa) = 41.11825 64.60157 52.85991
# Shear Modulus (GPa) = -0.04016 23.74339 11.85161
#
# Velocity S-wave (km/s) = -0.14276 3.47120 2.45243
# Velocity P-wave (km/s) = 4.56502 6.98924 5.90292
#
# Compressibility (1/GPa) = 0.02432010
#
# Stress axis : x y z
#
# Youngs Moduli (GPa) = -0.03208 -0.03208 31.91655
#
# Poissons Ratio (x) = 1.00021 0.15946
# Poissons Ratio (y) = 1.00021 0.15946
# Poissons Ratio (z) = -0.00016 -0.00016
#
# Static dielectric constant tensor:
#      x y z
#    x 1.708720 0.000000 0.000000 
#    y 0.000000 1.708720 0.000000 
#    z 0.000000 0.000000 1.747800 
# 
# From -- ./inp_files/3078.got.cif
#   From: 2010.05.17/outbox.cif.g08.bks.cpg/sg142_2_cif.got.tgz:3078.got - 2010.05.20 13:39:18.
