data_PCOD9573140
_publ_section_title
;
Structure prediction by ZEFSAII (Michael W. Deem and Ramdas Pophale) SiO2 
 PCOD9573140
Probable space group: I 41/A M D
;
_chemical_formula_sum "Si O2"
_cell_formula_units_Z 160
_cell_length_a 21.109885
_cell_length_b 21.109885
_cell_length_c 17.978007
_cell_angle_alpha 90.000000
_cell_angle_beta 90.000000
_cell_angle_gamma 90.000000
_cell_volume 8011.489725
_symmetry_space_group_name_H-M "I 41/A M D"
_symmetry_group_IT_number 141
_space_group.IT_coordinate_system_code '2'
_symmetry_cell_setting 'tetragonal'
loop_
_space_group_symop_operation_xyz
x,y,z
1/4-y,3/4+x,1/4+z
-x,1/2-y,z
1/4+y,1/4-x,3/4+z
x,-y,-z
-x,1/2+y,-z
1/4+y,3/4+x,1/4-z
1/4-y,1/4-x,3/4-z
-x,-y,-z
3/4+y,1/4-x,3/4-z
x,1/2+y,-z
3/4-y,3/4+x,1/4-z
-x,y,z
x,1/2-y,z
3/4-y,1/4-x,3/4+z
3/4+y,3/4+x,1/4+z
1/2+x,1/2+y,1/2+z
3/4-y,1/4+x,3/4+z
1/2-x,-y,1/2+z
3/4+y,3/4-x,1/4+z
1/2+x,1/2-y,1/2-z
1/2-x,y,1/2-z
3/4+y,1/4+x,3/4-z
3/4-y,3/4-x,1/4-z
1/2-x,1/2-y,1/2-z
1/4+y,3/4-x,1/4-z
1/2+x,y,1/2-z
1/4-y,1/4+x,3/4-z
1/2-x,1/2+y,1/2+z
1/2+x,-y,1/2+z
1/4-y,3/4-x,1/4+z
1/4+y,1/4+x,3/4+z
loop_
_atom_site_type_symbol
_atom_site_label
_atom_site_fract_x
_atom_site_fract_y
_atom_site_fract_z
Si Si1 0.832665 0.934042 0.038787
Si Si2 0.856695 0.487774 0.335931
Si Si3 0.572144 0.598862 0.088493
Si Si4 0.929549 0.365458 0.298418
Si Si5 0.075371 0.822953 0.990155
O O1 0.812558 0.937443 0.125000
O O2 0.772356 0.914494 0.989162
O O3 0.884825 0.878043 0.030614
O O4 0.855225 0.000000 0.000000
O O5 0.801190 0.448811 0.375000
O O6 0.882145 0.541820 0.390243
O O7 0.911475 0.437578 0.317353
O O8 0.500000 0.575878 0.086778
O O9 0.576593 0.650746 0.154635
O O10 0.590224 0.630006 0.011144
O O11 0.922238 0.327763 0.375000
O O12 0.000000 0.359761 0.268428
O O13 0.089395 0.750000 0.015500
O O14 0.000000 0.832380 0.996022
#
# Coordination Sequence:
#
# PCOD9573140 Si02
#       5
#    32  32  32  32  32
#     4  11  25  41  65  93 127 166 209 266 320 370
#     4  10  24  42  64  88 126 167 212 253 312 378
#     4  10  21  40  64  91 124 166 209 257 312 376
#     4  11  24  39  61  93 125 162 207 263 320 375
#     4   9  20  41  66  93 126 167 212 255 313 384
#
# _framework density 19.971316999999999
#
# number of rings (size 3 to 8) (size 9 to 14) (size 15 to 20)
#    0.000    1.800    0.000    2.400    8.400    6.600 
#    0.000    6.000    0.000    0.000    0.000    0.000 
#    0.000    0.000    0.000    0.000    0.000    0.000 
#
# Total GULP energy -447091.723803 kJ/mol
# GULP energy per Si atom -5588.646548 kJ/mol
# Density = 1.992586 g / cm^3
# Si number density = 19.971317 Si / 1000 Ang^3
#
#
#
# Elastic Constant Matrix: (Units=GPa)
#
#
# Indices 1 2 3 4 5 6 
#
# 1 97.7155 43.2494 46.2676 0.0000 0.0000 0.0000
# 2 43.2494 97.7203 46.2693 0.0000 0.0000 0.0000
# 3 46.2676 46.2693 126.0139 0.0000 0.0000 0.0000
# 4 0.0000 0.0000 0.0000 18.6041 0.0000 0.0000
# 5 0.0000 0.0000 0.0000 0.0000 18.6039 0.0000
# 6 0.0000 0.0000 0.0000 0.0000 0.0000 13.9579
#
#
#
# Elastic Compliance Matrix: (Units=1/GPa)
#
#
# Indices 1 2 3 4 5 6 
#
# 1 0.013853 -0.004506 -0.003432 0.000000 0.000000 0.000000
# 2 -0.004506 0.013853 -0.003432 0.000000 0.000000 0.000000
# 3 -0.003432 -0.003432 0.010456 0.000000 0.000000 0.000000
# 4 0.000000 0.000000 0.000000 0.053752 0.000000 0.000000
# 5 0.000000 0.000000 0.000000 0.000000 0.053752 0.000000
# 6 0.000000 0.000000 0.000000 0.000000 0.000000 0.071644
#
#
# Mechanical properties :
#
#
# Convention : Reuss Voigt Hill
#
# Bulk Modulus (GPa) = 64.84328 65.89136 65.36732
# Shear Modulus (GPa) = 20.39235 22.61073 21.50154
#
# Velocity S-wave (km/s) = 3.19890 3.36841 3.28475
# Velocity P-wave (km/s) = 6.79578 6.94211 6.86934
#
# Compressibility (1/GPa) = 0.01542180
#
# Stress axis : x y z
#
# Youngs Moduli (GPa) = 72.18530 72.18855 95.64132
#
# Poissons Ratio (x) = 0.32530 0.32822
# Poissons Ratio (y) = 0.32529 0.32822
# Poissons Ratio (z) = 0.24772 0.24774
#
# Static dielectric constant tensor:
#      x y z
#    x 1.697180 0.000000 0.000000 
#    y 0.000000 1.697180 0.000000 
#    z 0.000000 0.000000 1.691310 
# 
# From -- ./inp_files/8581.got.cif
#   From: 2010.05.17/outbox.cif.g08.bks.cpg/sg141_5_cif.got.tgz:8581.got - 2010.05.20 13:30:51.
