data_PCOD9573868
_publ_section_title
;
Structure prediction by ZEFSAII (Michael W. Deem and Ramdas Pophale) SiO2 
 PCOD9573868
Probable space group: I 41/A C D
;
_chemical_formula_sum "Si O2"
_cell_formula_units_Z 160
_cell_length_a 16.972483
_cell_length_b 16.972483
_cell_length_c 26.641331
_cell_angle_alpha 90.000000
_cell_angle_beta 90.000000
_cell_angle_gamma 90.000000
_cell_volume 7674.439788
_symmetry_space_group_name_H-M "I 41/A C D"
_symmetry_group_IT_number 142
_space_group.IT_coordinate_system_code '2'
_symmetry_cell_setting 'tetragonal'
loop_
_space_group_symop_operation_xyz
x,y,z
1/4-y,3/4+x,1/4+z
-x,1/2-y,z
1/4+y,1/4-x,3/4+z
x,-y,1/2-z
1/2-x,y,-z
3/4+y,1/4+x,1/4-z
1/4-y,1/4-x,1/4-z
-x,-y,-z
3/4+y,1/4-x,3/4-z
x,1/2+y,-z
3/4-y,3/4+x,1/4-z
-x,y,1/2+z
1/2+x,-y,z
1/4-y,3/4-x,3/4+z
3/4+y,3/4+x,3/4+z
1/2+x,1/2+y,1/2+z
3/4-y,1/4+x,3/4+z
1/2-x,-y,1/2+z
3/4+y,3/4-x,1/4+z
1/2+x,1/2-y,-z
-x,1/2+y,1/2-z
1/4+y,3/4+x,3/4-z
3/4-y,3/4-x,3/4-z
1/2-x,1/2-y,1/2-z
1/4+y,3/4-x,1/4-z
1/2+x,y,1/2-z
1/4-y,1/4+x,3/4-z
1/2-x,1/2+y,z
x,1/2-y,1/2+z
3/4-y,1/4-x,1/4+z
1/4+y,1/4+x,1/4+z
loop_
_atom_site_type_symbol
_atom_site_label
_atom_site_fract_x
_atom_site_fract_y
_atom_site_fract_z
Si Si1 0.570661 0.151683 0.931603
Si Si2 0.275355 0.816062 0.693404
Si Si3 0.996810 0.861247 0.595896
Si Si4 0.500000 0.750000 0.757049
Si Si5 0.235150 0.424470 0.213844
Si Si6 0.780156 0.969845 0.875000
O O1 0.570513 0.179488 0.875000
O O2 0.492911 0.098693 0.940851
O O3 0.645707 0.098322 0.943035
O O4 0.569014 0.222723 0.970659
O O5 0.200576 0.771161 0.668038
O O6 0.262764 0.852473 0.749560
O O7 0.283045 0.892810 0.659055
O O8 0.917573 0.814784 0.615350
O O9 0.020690 0.820542 0.543878
O O10 0.228921 0.500000 0.250000
O O11 0.279877 0.455559 0.163776
#
# Coordination Sequence:
#
# PCOD9573868 Si02
#       6
#    32  32  32  16  32  16
#     4  12  25  41  67  96 131 175 213 267 326 390
#     4  11  24  41  70  90 132 177 213 268 334 382
#     4   9  21  39  65  97 128 167 216 270 318 388
#     4  10  22  40  60  94 132 160 214 260 318 392
#     4  10  22  42  67  93 128 168 215 265 324 387
#     4  10  24  42  63  99 130 164 230 268 316 406
#
# _framework density 20.848427000000001
#
# number of rings (size 3 to 8) (size 9 to 14) (size 15 to 20)
#    0.000    1.800    3.000    0.900    5.600    1.600 
#    0.000    0.000    0.000    0.000    0.000    0.000 
#    0.000    0.000    0.000    0.000    0.000    0.000 
#
# Total GULP energy -446183.716307 kJ/mol
# GULP energy per Si atom -5577.296454 kJ/mol
# Density = 2.080097 g / cm^3
# Si number density = 20.848427 Si / 1000 Ang^3
#
#
#
# Elastic Constant Matrix: (Units=GPa)
#
#
# Indices 1 2 3 4 5 6 
#
# 1 65.3768 25.9398 36.1186 0.0000 0.0000 0.0000
# 2 25.9398 65.3774 36.1181 0.0000 0.0000 0.0000
# 3 36.1186 36.1181 155.8784 0.0000 0.0000 0.0000
# 4 0.0000 0.0000 0.0000 31.8638 0.0000 0.0000
# 5 0.0000 0.0000 0.0000 0.0000 31.8645 0.0000
# 6 0.0000 0.0000 0.0000 0.0000 0.0000 21.6891
#
#
#
# Elastic Compliance Matrix: (Units=1/GPa)
#
#
# Indices 1 2 3 4 5 6 
#
# 1 0.019383 -0.005974 -0.003107 0.000000 0.000000 0.000000
# 2 -0.005974 0.019383 -0.003107 0.000000 0.000000 0.000000
# 3 -0.003107 -0.003107 0.007855 0.000000 0.000000 0.000000
# 4 0.000000 0.000000 0.000000 0.031384 0.000000 0.000000
# 5 0.000000 0.000000 0.000000 0.000000 0.031383 0.000000
# 6 0.000000 0.000000 0.000000 0.000000 0.000000 0.046106
#
#
# Mechanical properties :
#
#
# Convention : Reuss Voigt Hill
#
# Bulk Modulus (GPa) = 44.95459 53.66509 49.30984
# Shear Modulus (GPa) = 26.69751 29.64722 28.17236
#
# Velocity S-wave (km/s) = 3.58236 3.77508 3.67998
# Velocity P-wave (km/s) = 6.22258 6.69314 6.46214
#
# Compressibility (1/GPa) = 0.02224467
#
# Stress axis : x y z
#
# Youngs Moduli (GPa) = 51.59216 51.59290 127.30678
#
# Poissons Ratio (x) = 0.30822 0.39554
# Poissons Ratio (y) = 0.30822 0.39552
# Poissons Ratio (z) = 0.16029 0.16029
#
# Static dielectric constant tensor:
#      x y z
#    x 1.784420 0.000000 0.000000 
#    y 0.000000 1.784420 0.000000 
#    z 0.000000 0.000000 1.763340 
# 
# From -- ./inp_files/11366.got.cif
#   From: 2010.05.17/outbox.cif.g08.bks.cpg/sg142_6_cif.got.tgz:11366.got - 2010.05.20 13:39:18.
