data_PCOD9573755
_publ_section_title
;
Structure prediction by ZEFSAII (Michael W. Deem and Ramdas Pophale) SiO2 
 PCOD9573755
Probable space group: I 41/A C D
;
_chemical_formula_sum "Si O2"
_cell_formula_units_Z 160
_cell_length_a 20.137904
_cell_length_b 20.137904
_cell_length_c 18.695667
_cell_angle_alpha 90.000000
_cell_angle_beta 90.000000
_cell_angle_gamma 90.000000
_cell_volume 7581.750636
_symmetry_space_group_name_H-M "I 41/A C D"
_symmetry_group_IT_number 142
_space_group.IT_coordinate_system_code '2'
_symmetry_cell_setting 'tetragonal'
loop_
_space_group_symop_operation_xyz
x,y,z
1/4-y,3/4+x,1/4+z
-x,1/2-y,z
1/4+y,1/4-x,3/4+z
x,-y,1/2-z
1/2-x,y,-z
3/4+y,1/4+x,1/4-z
1/4-y,1/4-x,1/4-z
-x,-y,-z
3/4+y,1/4-x,3/4-z
x,1/2+y,-z
3/4-y,3/4+x,1/4-z
-x,y,1/2+z
1/2+x,-y,z
1/4-y,3/4-x,3/4+z
3/4+y,3/4+x,3/4+z
1/2+x,1/2+y,1/2+z
3/4-y,1/4+x,3/4+z
1/2-x,-y,1/2+z
3/4+y,3/4-x,1/4+z
1/2+x,1/2-y,-z
-x,1/2+y,1/2-z
1/4+y,3/4+x,3/4-z
3/4-y,3/4-x,3/4-z
1/2-x,1/2-y,1/2-z
1/4+y,3/4-x,1/4-z
1/2+x,y,1/2-z
1/4-y,1/4+x,3/4-z
1/2-x,1/2+y,z
x,1/2-y,1/2+z
3/4-y,1/4-x,1/4+z
1/4+y,1/4+x,1/4+z
loop_
_atom_site_type_symbol
_atom_site_label
_atom_site_fract_x
_atom_site_fract_y
_atom_site_fract_z
Si Si1 0.087060 0.297422 0.345265
Si Si2 0.289623 0.573138 0.283894
Si Si3 0.074351 0.219485 0.555048
Si Si4 0.579110 0.936043 0.204191
Si Si5 0.127997 0.535878 0.590041
O O1 0.076147 0.218201 0.349814
O O2 0.067744 0.329088 0.269646
O O3 0.161679 0.320055 0.356054
O O4 0.280328 0.500000 0.250000
O O5 0.360349 0.594431 0.249900
O O6 0.306224 0.564739 0.368168
O O7 0.232212 0.613782 0.243524
O O8 0.076169 0.173832 0.625000
O O9 0.130653 0.274965 0.559892
O O10 0.000000 0.250000 0.553101
O O11 0.554100 0.000000 0.250000
O O12 0.608899 0.969106 0.132767
#
# Coordination Sequence:
#
# PCOD9573755 Si02
#       5
#    32  32  32  32  32
#     4  11  22  42  62  89 125 171 219 265 329 393
#     4   9  18  35  60  91 119 161 216 263 316 383
#     4  11  24  38  65  92 130 164 213 275 335 377
#     4   9  19  37  63  91 123 167 218 266 323 389
#     4  10  21  36  65  88 128 162 224 264 327 388
#
# _framework density 21.103306
#
# number of rings (size 3 to 8) (size 9 to 14) (size 15 to 20)
#    0.000    2.400    2.000    4.800    5.600    0.000 
#    0.000   11.000    0.000    0.000    0.000    0.000 
#    0.000    0.000    0.000    0.000    0.000    0.000 
#
# Total GULP energy -445753.878636 kJ/mol
# GULP energy per Si atom -5571.923483 kJ/mol
# Density = 2.105527 g / cm^3
# Si number density = 21.103306 Si / 1000 Ang^3
#
#
#
# Elastic Constant Matrix: (Units=GPa)
#
#
# Indices 1 2 3 4 5 6 
#
# 1 67.6495 57.1473 17.5673 0.0000 0.0000 0.0000
# 2 57.1473 67.6500 17.5676 0.0000 0.0000 0.0000
# 3 17.5673 17.5676 85.4776 0.0000 0.0000 0.0000
# 4 0.0000 0.0000 0.0000 11.6997 0.0000 0.0000
# 5 0.0000 0.0000 0.0000 0.0000 11.7010 0.0000
# 6 0.0000 0.0000 0.0000 0.0000 0.0000 33.9982
#
#
#
# Elastic Compliance Matrix: (Units=1/GPa)
#
#
# Indices 1 2 3 4 5 6 
#
# 1 0.051861 -0.043356 -0.001748 0.000000 0.000000 0.000000
# 2 -0.043356 0.051861 -0.001748 0.000000 0.000000 0.000000
# 3 -0.001748 -0.001748 0.012417 0.000000 0.000000 0.000000
# 4 0.000000 0.000000 0.000000 0.085472 0.000000 0.000000
# 5 0.000000 0.000000 0.000000 0.000000 0.085463 0.000000
# 6 0.000000 0.000000 0.000000 0.000000 0.000000 0.029413
#
#
# Mechanical properties :
#
#
# Convention : Reuss Voigt Hill
#
# Bulk Modulus (GPa) = 44.57163 45.03794 44.80479
# Shear Modulus (GPa) = 11.97122 20.04611 16.00866
#
# Velocity S-wave (km/s) = 2.38432 3.08539 2.75723
# Velocity P-wave (km/s) = 5.36158 5.83788 5.60479
#
# Compressibility (1/GPa) = 0.02243579
#
# Stress axis : x y z
#
# Youngs Moduli (GPa) = 19.28237 19.28247 80.53169
#
# Poissons Ratio (x) = 0.83600 0.14075
# Poissons Ratio (y) = 0.83600 0.14078
# Poissons Ratio (z) = 0.03370 0.03371
#
# Static dielectric constant tensor:
#      x y z
#    x 1.790950 0.000000 0.000000 
#    y 0.000000 1.790940 0.000000 
#    z 0.000000 0.000000 1.872910 
# 
# From -- ./inp_files/7404.got.cif
#   From: 2010.05.17/outbox.cif.g08.bks.cpg/sg142_4_cif.got.tgz:7404.got - 2010.05.20 13:39:18.
