data_PCOD9573229
_publ_section_title
;
Structure prediction by ZEFSAII (Michael W. Deem and Ramdas Pophale) SiO2 
 PCOD9573229
Probable space group: I 41/A M D
;
_chemical_formula_sum "Si O2"
_cell_formula_units_Z 176
_cell_length_a 17.565323
_cell_length_b 17.565323
_cell_length_c 26.381329
_cell_angle_alpha 90.000000
_cell_angle_beta 90.000000
_cell_angle_gamma 90.000000
_cell_volume 8139.710342
_symmetry_space_group_name_H-M "I 41/A M D"
_symmetry_group_IT_number 141
_space_group.IT_coordinate_system_code '2'
_symmetry_cell_setting 'tetragonal'
loop_
_space_group_symop_operation_xyz
x,y,z
1/4-y,3/4+x,1/4+z
-x,1/2-y,z
1/4+y,1/4-x,3/4+z
x,-y,-z
-x,1/2+y,-z
1/4+y,3/4+x,1/4-z
1/4-y,1/4-x,3/4-z
-x,-y,-z
3/4+y,1/4-x,3/4-z
x,1/2+y,-z
3/4-y,3/4+x,1/4-z
-x,y,z
x,1/2-y,z
3/4-y,1/4-x,3/4+z
3/4+y,3/4+x,1/4+z
1/2+x,1/2+y,1/2+z
3/4-y,1/4+x,3/4+z
1/2-x,-y,1/2+z
3/4+y,3/4-x,1/4+z
1/2+x,1/2-y,1/2-z
1/2-x,y,1/2-z
3/4+y,1/4+x,3/4-z
3/4-y,3/4-x,1/4-z
1/2-x,1/2-y,1/2-z
1/4+y,3/4-x,1/4-z
1/2+x,y,1/2-z
1/4-y,1/4+x,3/4-z
1/2-x,1/2+y,1/2+z
1/2+x,-y,1/2+z
1/4-y,3/4-x,1/4+z
1/4+y,1/4+x,3/4+z
loop_
_atom_site_type_symbol
_atom_site_label
_atom_site_fract_x
_atom_site_fract_y
_atom_site_fract_z
Si Si1 0.695409 0.558898 0.600581
Si Si2 0.087379 0.105117 0.185671
Si Si3 0.325311 0.163431 0.225948
Si Si4 0.914920 0.943601 0.048382
Si Si5 0.090673 0.659328 0.625000
Si Si6 0.701385 0.338101 0.498771
O O1 0.767788 0.517788 0.625000
O O2 0.648709 0.609199 0.640935
O O3 0.637659 0.490326 0.586552
O O4 0.711418 0.607646 0.550113
O O5 0.111555 0.161685 0.230320
O O6 0.000000 0.114954 0.168942
O O7 0.095044 0.023115 0.213491
O O8 0.303048 0.250000 0.213365
O O9 0.250000 0.124598 0.250000
O O10 0.363750 0.134616 0.174782
O O11 0.872055 0.868866 0.028793
O O12 0.000000 0.929788 0.067725
O O13 0.920077 0.000000 0.000000
O O14 0.101805 0.750000 0.616536
O O15 0.694583 0.250000 0.483681
#
# Coordination Sequence:
#
# PCOD9573229 Si02
#       6
#    32  32  32  32  16  32
#     4  11  22  38  67  94 125 170 216 259 317 388
#     4  11  24  41  63  91 127 165 205 258 319 381
#     4  10  23  40  62  93 127 165 217 271 316 370
#     4   9  18  36  62  91 124 161 205 258 313 375
#     4   9  18  38  66  90 122 174 220 258 319 386
#     4  10  23  41  62  94 129 165 212 265 317 375
#
# _framework density 21.622391
#
# number of rings (size 3 to 8) (size 9 to 14) (size 15 to 20)
#    0.000    1.909    1.818    1.091    2.545    4.364 
#    0.000    3.636    0.000    0.000    0.000    0.000 
#    0.000    0.000    0.000    0.000    0.000    0.000 
#
# Total GULP energy -491748.227826 kJ/mol
# GULP energy per Si atom -5588.048043 kJ/mol
# Density = 2.157318 g / cm^3
# Si number density = 21.622391 Si / 1000 Ang^3
#
#
#
# Elastic Constant Matrix: (Units=GPa)
#
#
# Indices 1 2 3 4 5 6 
#
# 1 75.6346 33.1193 9.4799 0.0000 0.0000 0.0000
# 2 33.1193 75.6357 9.4800 0.0000 0.0000 0.0000
# 3 9.4799 9.4800 77.7851 0.0000 0.0000 0.0000
# 4 0.0000 0.0000 0.0000 26.5589 0.0000 0.0000
# 5 0.0000 0.0000 0.0000 0.0000 26.5595 0.0000
# 6 0.0000 0.0000 0.0000 0.0000 0.0000 20.4380
#
#
#
# Elastic Compliance Matrix: (Units=1/GPa)
#
#
# Indices 1 2 3 4 5 6 
#
# 1 0.016458 -0.007063 -0.001145 0.000000 0.000000 0.000000
# 2 -0.007063 0.016458 -0.001145 0.000000 0.000000 0.000000
# 3 -0.001145 -0.001145 0.013135 0.000000 0.000000 0.000000
# 4 0.000000 0.000000 0.000000 0.037652 0.000000 0.000000
# 5 0.000000 0.000000 0.000000 0.000000 0.037651 0.000000
# 6 0.000000 0.000000 0.000000 0.000000 0.000000 0.048928
#
#
# Mechanical properties :
#
#
# Convention : Reuss Voigt Hill
#
# Bulk Modulus (GPa) = 36.57049 37.02375 36.79712
# Shear Modulus (GPa) = 25.23940 26.50969 25.87454
#
# Velocity S-wave (km/s) = 3.42026 3.50527 3.46302
# Velocity P-wave (km/s) = 5.70504 5.79160 5.74848
#
# Compressibility (1/GPa) = 0.02734445
#
# Stress axis : x y z
#
# Youngs Moduli (GPa) = 60.76162 60.76244 76.13245
#
# Poissons Ratio (x) = 0.42917 0.08717
# Poissons Ratio (y) = 0.42916 0.08717
# Poissons Ratio (z) = 0.06957 0.06957
#
# Static dielectric constant tensor:
#      x y z
#    x 1.799820 0.000000 0.000000 
#    y 0.000000 1.799820 0.000000 
#    z 0.000000 0.000000 1.790730 
# 
# From -- ./inp_files/12923.got.cif
#   From: 2010.05.17/outbox.cif.g08.bks.cpg/sg141_7_cif.got.tgz:12923.got - 2010.05.20 13:30:51.
