data_PCOD9573733
_publ_section_title
;
Structure prediction by ZEFSAII (Michael W. Deem and Ramdas Pophale) SiO2 
 PCOD9573733
Probable space group: I 41/A C D
;
_chemical_formula_sum "Si O2"
_cell_formula_units_Z 160
_cell_length_a 19.313925
_cell_length_b 19.313925
_cell_length_c 18.344332
_cell_angle_alpha 90.000000
_cell_angle_beta 90.000000
_cell_angle_gamma 90.000000
_cell_volume 6842.943954
_symmetry_space_group_name_H-M "I 41/A C D"
_symmetry_group_IT_number 142
_space_group.IT_coordinate_system_code '2'
_symmetry_cell_setting 'tetragonal'
loop_
_space_group_symop_operation_xyz
x,y,z
1/4-y,3/4+x,1/4+z
-x,1/2-y,z
1/4+y,1/4-x,3/4+z
x,-y,1/2-z
1/2-x,y,-z
3/4+y,1/4+x,1/4-z
1/4-y,1/4-x,1/4-z
-x,-y,-z
3/4+y,1/4-x,3/4-z
x,1/2+y,-z
3/4-y,3/4+x,1/4-z
-x,y,1/2+z
1/2+x,-y,z
1/4-y,3/4-x,3/4+z
3/4+y,3/4+x,3/4+z
1/2+x,1/2+y,1/2+z
3/4-y,1/4+x,3/4+z
1/2-x,-y,1/2+z
3/4+y,3/4-x,1/4+z
1/2+x,1/2-y,-z
-x,1/2+y,1/2-z
1/4+y,3/4+x,3/4-z
3/4-y,3/4-x,3/4-z
1/2-x,1/2-y,1/2-z
1/4+y,3/4-x,1/4-z
1/2+x,y,1/2-z
1/4-y,1/4+x,3/4-z
1/2-x,1/2+y,z
x,1/2-y,1/2+z
3/4-y,1/4-x,1/4+z
1/4+y,1/4+x,1/4+z
loop_
_atom_site_type_symbol
_atom_site_label
_atom_site_fract_x
_atom_site_fract_y
_atom_site_fract_z
Si Si1 0.868337 0.555582 0.308187
Si Si2 0.476981 0.935839 0.200499
Si Si3 0.925559 0.612626 0.549548
Si Si4 0.914118 0.354060 0.459135
Si Si5 0.874683 0.543008 0.924141
O O1 0.841597 0.500000 0.250000
O O2 0.818327 0.568327 0.375000
O O3 0.880445 0.628530 0.268891
O O4 0.947810 0.537307 0.325883
O O5 0.463804 0.868097 0.250881
O O6 0.432619 0.923702 0.128639
O O7 0.449858 0.000000 0.250000
O O8 0.902962 0.650505 0.623607
O O9 0.903774 0.533176 0.563847
O O10 0.004996 0.629297 0.532963
O O11 0.873285 0.416540 0.499467
O O12 0.805991 0.555991 0.875000
#
# Coordination Sequence:
#
# PCOD9573733 Si02
#       5
#    32  32  32  32  32
#     4  11  27  45  69  99 143 193 242 305 371 442
#     4  10  20  44  68 100 142 186 240 296 364 445
#     4  12  25  42  69 105 144 183 244 302 367 444
#     4  11  24  41  71 106 140 187 236 306 370 432
#     4  10  23  42  71  97 138 188 238 291 357 441
#
# _framework density 23.381748999999999
#
# number of rings (size 3 to 8) (size 9 to 14) (size 15 to 20)
#    0.000    1.200    2.000    3.000    5.600    3.600 
#    0.000    1.000    0.000    0.000    0.000    0.000 
#    0.000    0.000    0.000    0.000    0.000    0.000 
#
# Total GULP energy -446853.738168 kJ/mol
# GULP energy per Si atom -5585.671727 kJ/mol
# Density = 2.332853 g / cm^3
# Si number density = 23.381749 Si / 1000 Ang^3
#
#
#
# Elastic Constant Matrix: (Units=GPa)
#
#
# Indices 1 2 3 4 5 6 
#
# 1 87.7150 44.3450 19.6057 0.0000 0.0000 0.0000
# 2 44.3450 87.7150 19.6057 0.0000 0.0000 0.0000
# 3 19.6057 19.6057 44.7291 0.0000 0.0000 0.0000
# 4 0.0000 0.0000 0.0000 29.2418 0.0000 0.0000
# 5 0.0000 0.0000 0.0000 0.0000 29.2418 0.0000
# 6 0.0000 0.0000 0.0000 0.0000 0.0000 20.8721
#
#
#
# Elastic Compliance Matrix: (Units=1/GPa)
#
#
# Indices 1 2 3 4 5 6 
#
# 1 0.015881 -0.007176 -0.003816 0.000000 0.000000 0.000000
# 2 -0.007176 0.015881 -0.003816 0.000000 0.000000 0.000000
# 3 -0.003816 -0.003816 0.025702 0.000000 0.000000 0.000000
# 4 0.000000 0.000000 0.000000 0.034198 0.000000 0.000000
# 5 0.000000 0.000000 0.000000 0.000000 0.034198 0.000000
# 6 0.000000 0.000000 0.000000 0.000000 0.000000 0.047911
#
#
# Mechanical properties :
#
#
# Convention : Reuss Voigt Hill
#
# Bulk Modulus (GPa) = 35.90724 43.03021 39.46873
# Shear Modulus (GPa) = 23.51072 24.97796 24.24434
#
# Velocity S-wave (km/s) = 3.17443 3.27198 3.22357
# Velocity P-wave (km/s) = 5.36901 5.71995 5.54725
#
# Compressibility (1/GPa) = 0.02784954
#
# Stress axis : x y z
#
# Youngs Moduli (GPa) = 62.96688 62.96688 38.90778
#
# Poissons Ratio (x) = 0.45186 0.14846
# Poissons Ratio (y) = 0.45186 0.14846
# Poissons Ratio (z) = 0.24026 0.24026
#
# Static dielectric constant tensor:
#      x y z
#    x 1.943630 0.000000 0.000000 
#    y 0.000000 1.943630 0.000000 
#    z 0.000000 0.000000 1.855300 
# 
# From -- ./inp_files/7358.got.cif
#   From: 2010.05.17/outbox.cif.g08.bks.cpg/sg142_4_cif.got.tgz:7358.got - 2010.05.20 13:39:18.
