data_PCOD9573987
_publ_section_title
;
Structure prediction by ZEFSAII (Michael W. Deem and Ramdas Pophale) SiO2 
 PCOD9573987
Probable space group: I 41/A C D
;
_chemical_formula_sum "Si O2"
_cell_formula_units_Z 144
_cell_length_a 28.181012
_cell_length_b 28.181012
_cell_length_c 8.852556
_cell_angle_alpha 90.000000
_cell_angle_beta 90.000000
_cell_angle_gamma 90.000000
_cell_volume 7030.429418
_symmetry_space_group_name_H-M "I 41/A C D"
_symmetry_group_IT_number 142
_space_group.IT_coordinate_system_code '2'
_symmetry_cell_setting 'tetragonal'
loop_
_space_group_symop_operation_xyz
x,y,z
1/4-y,3/4+x,1/4+z
-x,1/2-y,z
1/4+y,1/4-x,3/4+z
x,-y,1/2-z
1/2-x,y,-z
3/4+y,1/4+x,1/4-z
1/4-y,1/4-x,1/4-z
-x,-y,-z
3/4+y,1/4-x,3/4-z
x,1/2+y,-z
3/4-y,3/4+x,1/4-z
-x,y,1/2+z
1/2+x,-y,z
1/4-y,3/4-x,3/4+z
3/4+y,3/4+x,3/4+z
1/2+x,1/2+y,1/2+z
3/4-y,1/4+x,3/4+z
1/2-x,-y,1/2+z
3/4+y,3/4-x,1/4+z
1/2+x,1/2-y,-z
-x,1/2+y,1/2-z
1/4+y,3/4+x,3/4-z
3/4-y,3/4-x,3/4-z
1/2-x,1/2-y,1/2-z
1/4+y,3/4-x,1/4-z
1/2+x,y,1/2-z
1/4-y,1/4+x,3/4-z
1/2-x,1/2+y,z
x,1/2-y,1/2+z
3/4-y,1/4-x,1/4+z
1/4+y,1/4+x,1/4+z
loop_
_atom_site_type_symbol
_atom_site_label
_atom_site_fract_x
_atom_site_fract_y
_atom_site_fract_z
Si Si1 0.533882 0.098133 0.681025
Si Si2 0.397442 0.550688 0.383963
Si Si3 0.628958 0.804117 0.093106
Si Si4 0.808462 0.500000 0.250000
Si Si5 0.378730 0.128730 0.375000
Si Si6 0.250000 0.232267 0.000000
O O1 0.489715 0.129480 0.733428
O O2 0.538537 0.097542 0.500996
O O3 0.579881 0.123646 0.750658
O O4 0.516838 0.046155 0.744998
O O5 0.411619 0.585684 0.247477
O O6 0.346086 0.530724 0.344572
O O7 0.389267 0.580609 0.533824
O O8 0.442442 0.513822 0.380859
O O9 0.581287 0.831287 0.125000
O O10 0.777573 0.527573 0.375000
#
# Coordination Sequence:
#
# PCOD9573987 Si02
#       6
#    32  32  32  16  16  16
#     4  11  24  40  73 101 139 177 234 281 353 408
#     4  10  23  44  69  97 140 178 234 285 356 402
#     4  11  22  43  70 100 140 181 220 289 346 417
#     4  11  26  44  67  94 136 184 235 290 348 421
#     4  12  24  42  67 104 140 188 224 280 356 422
#     4   9  22  44  69 106 128 174 231 306 324 401
#
# _framework density 20.482389999999999
#
# number of rings (size 3 to 8) (size 9 to 14) (size 15 to 20)
#    0.000    1.333    2.222    3.333    1.556    9.778 
#    0.000    0.556    0.000    0.000    0.000    0.000 
#    0.000    0.000    0.000    0.000    0.000    0.000 
#
# Total GULP energy -400946.892501 kJ/mol
# GULP energy per Si atom -5568.706840 kJ/mol
# Density = 2.043577 g / cm^3
# Si number density = 20.482390 Si / 1000 Ang^3
#
#
#
# Elastic Constant Matrix: (Units=GPa)
#
#
# Indices 1 2 3 4 5 6 
#
# 1 48.6409 52.3155 38.9207 0.0000 0.0000 0.0000
# 2 52.3155 48.6409 38.9207 0.0000 0.0000 0.0000
# 3 38.9207 38.9207 99.4548 0.0000 0.0000 0.0000
# 4 0.0000 0.0000 0.0000 29.2546 0.0000 0.0000
# 5 0.0000 0.0000 0.0000 0.0000 29.2546 0.0000
# 6 0.0000 0.0000 0.0000 0.0000 0.0000 52.4401
#
#
#
# Elastic Compliance Matrix: (Units=1/GPa)
#
#
# Indices 1 2 3 4 5 6 
#
# 1 -0.128979 0.143164 -0.005551 0.000000 0.000000 0.000000
# 2 0.143164 -0.128979 -0.005551 0.000000 0.000000 0.000000
# 3 -0.005551 -0.005551 0.014400 0.000000 0.000000 0.000000
# 4 0.000000 0.000000 0.000000 0.034183 0.000000 0.000000
# 5 0.000000 0.000000 0.000000 0.000000 0.034183 0.000000
# 6 0.000000 0.000000 0.000000 0.000000 0.000000 0.019069
#
#
# Mechanical properties :
#
#
# Convention : Reuss Voigt Hill
#
# Bulk Modulus (GPa) = 48.62534 50.78337 49.70435
# Shear Modulus (GPa) = -12.09511 26.62852 7.26671
#
# Velocity S-wave (km/s) = -2.43268 3.60956 1.88560
# Velocity P-wave (km/s) = 3.98761 6.49764 5.39075
#
# Compressibility (1/GPa) = 0.02056541
#
# Stress axis : x y z
#
# Youngs Moduli (GPa) = -7.75323 -7.75323 69.44543
#
# Poissons Ratio (x) = 1.10998 0.38552
# Poissons Ratio (y) = 1.10998 0.38552
# Poissons Ratio (z) = -0.04304 -0.04304
#
# Static dielectric constant tensor:
#      x y z
#    x 1.355240 0.000000 0.000000 
#    y 0.000000 1.355240 0.000000 
#    z 0.000000 0.000000 1.983980 
# 
# From -- ./inp_files/2187.got.cif
#   From: 2010.05.17/outbox.cif.g08.bks.cpg/sg142_2_cif.got.tgz:2187.got - 2010.05.20 13:39:18.
