data_PCOD9573324
_publ_section_title
;
Structure prediction by ZEFSAII (Michael W. Deem and Ramdas Pophale) SiO2 
 PCOD9573324
Probable space group: I 41/A M D
;
_chemical_formula_sum "Si O2"
_cell_formula_units_Z 96
_cell_length_a 21.303821
_cell_length_b 21.303821
_cell_length_c 9.966924
_cell_angle_alpha 90.000000
_cell_angle_beta 90.000000
_cell_angle_gamma 90.000000
_cell_volume 4523.516257
_symmetry_space_group_name_H-M "I 41/A M D"
_symmetry_group_IT_number 141
_space_group.IT_coordinate_system_code '2'
_symmetry_cell_setting 'tetragonal'
loop_
_space_group_symop_operation_xyz
x,y,z
1/4-y,3/4+x,1/4+z
-x,1/2-y,z
1/4+y,1/4-x,3/4+z
x,-y,-z
-x,1/2+y,-z
1/4+y,3/4+x,1/4-z
1/4-y,1/4-x,3/4-z
-x,-y,-z
3/4+y,1/4-x,3/4-z
x,1/2+y,-z
3/4-y,3/4+x,1/4-z
-x,y,z
x,1/2-y,z
3/4-y,1/4-x,3/4+z
3/4+y,3/4+x,1/4+z
1/2+x,1/2+y,1/2+z
3/4-y,1/4+x,3/4+z
1/2-x,-y,1/2+z
3/4+y,3/4-x,1/4+z
1/2+x,1/2-y,1/2-z
1/2-x,y,1/2-z
3/4+y,1/4+x,3/4-z
3/4-y,3/4-x,1/4-z
1/2-x,1/2-y,1/2-z
1/4+y,3/4-x,1/4-z
1/2+x,y,1/2-z
1/4-y,1/4+x,3/4-z
1/2-x,1/2+y,1/2+z
1/2+x,-y,1/2+z
1/4-y,3/4-x,1/4+z
1/4+y,1/4+x,3/4+z
loop_
_atom_site_type_symbol
_atom_site_label
_atom_site_fract_x
_atom_site_fract_y
_atom_site_fract_z
Si Si1 0.930417 0.357821 0.236594
Si Si2 0.866122 0.517541 0.649925
Si Si3 0.072844 0.101297 0.764860
O O1 0.929744 0.320257 0.375000
O O2 0.902805 0.425179 0.280697
O O3 0.887325 0.325808 0.126566
O O4 0.000000 0.364783 0.182297
O O5 0.889855 0.500000 0.500000
O O6 0.796350 0.546350 0.625000
O O7 0.880918 0.458072 0.742506
O O8 0.000000 0.084107 0.793822
O O9 0.102695 0.147306 0.875000
#
# Coordination Sequence:
#
# PCOD9573324 Si02
#       3
#    32  32  32
#     4  11  23  41  69 103 136 187 243 292 351 423
#     4  11  23  46  72 102 135 183 241 306 356 422
#     4  12  27  47  72 105 150 194 234 295 365 431
#
# _framework density 21.222428000000001
#
# number of rings (size 3 to 8) (size 9 to 14) (size 15 to 20)
#    0.000    0.667    6.667    3.000    0.000    8.000 
#    0.000    3.333    0.000    0.000    0.000    0.000 
#    0.000    0.000    0.000    0.000    0.000    0.000 
#
# Total GULP energy -267887.284179 kJ/mol
# GULP energy per Si atom -5580.985087 kJ/mol
# Density = 2.117412 g / cm^3
# Si number density = 21.222428 Si / 1000 Ang^3
#
#
#
# Elastic Constant Matrix: (Units=GPa)
#
#
# Indices 1 2 3 4 5 6 
#
# 1 122.5574 37.0062 30.1455 0.0000 0.0000 0.0000
# 2 37.0062 122.5519 30.1428 0.0000 0.0000 0.0000
# 3 30.1455 30.1428 50.8106 0.0000 0.0000 0.0000
# 4 0.0000 0.0000 0.0000 27.3394 0.0000 0.0000
# 5 0.0000 0.0000 0.0000 0.0000 27.3370 0.0000
# 6 0.0000 0.0000 0.0000 0.0000 0.0000 7.0809
#
#
#
# Elastic Compliance Matrix: (Units=1/GPa)
#
#
# Indices 1 2 3 4 5 6 
#
# 1 0.009884 -0.001806 -0.004793 0.000000 0.000000 0.000000
# 2 -0.001806 0.009884 -0.004792 0.000000 0.000000 0.000000
# 3 -0.004793 -0.004792 0.025367 0.000000 0.000000 0.000000
# 4 0.000000 0.000000 0.000000 0.036577 0.000000 0.000000
# 5 0.000000 0.000000 0.000000 0.000000 0.036580 0.000000
# 6 0.000000 0.000000 0.000000 0.000000 0.000000 0.141225
#
#
# Mechanical properties :
#
#
# Convention : Reuss Voigt Hill
#
# Bulk Modulus (GPa) = 44.73541 54.50101 49.61821
# Shear Modulus (GPa) = 17.25630 25.59314 21.42472
#
# Velocity S-wave (km/s) = 2.85461 3.47644 3.18076
# Velocity P-wave (km/s) = 5.65598 6.46922 6.07622
#
# Compressibility (1/GPa) = 0.02235366
#
# Stress axis : x y z
#
# Youngs Moduli (GPa) = 101.17869 101.17648 39.42093
#
# Poissons Ratio (x) = 0.18269 0.18893
# Poissons Ratio (y) = 0.18270 0.18891
# Poissons Ratio (z) = 0.48491 0.48485
#
# Static dielectric constant tensor:
#      x y z
#    x 1.801600 0.000000 0.000000 
#    y 0.000000 1.801600 0.000000 
#    z 0.000000 0.000000 1.744300 
# 
# From -- ./inp_files/2509.got.cif
#   From: 2010.05.17/outbox.cif.g08.bks.cpg/sg141_2_cif.got.tgz:2509.got - 2010.05.20 13:30:51.
