data_PCOD9573954
_publ_section_title
;
Structure prediction by ZEFSAII (Michael W. Deem and Ramdas Pophale) SiO2 
 PCOD9573954
Probable space group: I 41/A C D
;
_chemical_formula_sum "Si O2"
_cell_formula_units_Z 128
_cell_length_a 19.047014
_cell_length_b 19.047014
_cell_length_c 17.227919
_cell_angle_alpha 90.000000
_cell_angle_beta 90.000000
_cell_angle_gamma 90.000000
_cell_volume 6250.095067
_symmetry_space_group_name_H-M "I 41/A C D"
_symmetry_group_IT_number 142
_space_group.IT_coordinate_system_code '2'
_symmetry_cell_setting 'tetragonal'
loop_
_space_group_symop_operation_xyz
x,y,z
1/4-y,3/4+x,1/4+z
-x,1/2-y,z
1/4+y,1/4-x,3/4+z
x,-y,1/2-z
1/2-x,y,-z
3/4+y,1/4+x,1/4-z
1/4-y,1/4-x,1/4-z
-x,-y,-z
3/4+y,1/4-x,3/4-z
x,1/2+y,-z
3/4-y,3/4+x,1/4-z
-x,y,1/2+z
1/2+x,-y,z
1/4-y,3/4-x,3/4+z
3/4+y,3/4+x,3/4+z
1/2+x,1/2+y,1/2+z
3/4-y,1/4+x,3/4+z
1/2-x,-y,1/2+z
3/4+y,3/4-x,1/4+z
1/2+x,1/2-y,-z
-x,1/2+y,1/2-z
1/4+y,3/4+x,3/4-z
3/4-y,3/4-x,3/4-z
1/2-x,1/2-y,1/2-z
1/4+y,3/4-x,1/4-z
1/2+x,y,1/2-z
1/4-y,1/4+x,3/4-z
1/2-x,1/2+y,z
x,1/2-y,1/2+z
3/4-y,1/4-x,1/4+z
1/4+y,1/4+x,1/4+z
loop_
_atom_site_type_symbol
_atom_site_label
_atom_site_fract_x
_atom_site_fract_y
_atom_site_fract_z
Si Si1 0.134305 0.707115 0.436033
Si Si2 0.908941 0.810536 0.739489
Si Si3 0.124960 0.845249 0.680576
Si Si4 0.775193 0.796446 0.823010
O O1 0.090883 0.659118 0.375000
O O2 0.085954 0.770818 0.468411
O O3 0.151412 0.657969 0.510128
O O4 0.199148 0.745109 0.392130
O O5 0.897634 0.727723 0.723473
O O6 0.904643 0.840640 0.653345
O O7 0.844554 0.834941 0.792834
O O8 0.207866 0.844863 0.664260
O O9 0.750000 0.750000 0.750000
#
# Coordination Sequence:
#
# PCOD9573954 Si02
#       4
#    32  32  32  32
#     4  12  22  35  65  92 126 164 207 263 340 386
#     4  11  22  36  61  93 126 159 210 265 336 391
#     4  11  23  39  59  98 132 158 215 278 331 406
#     4  10  23  38  56  97 131 160 213 271 330 405
#
# _framework density 20.479687999999999
#
# number of rings (size 3 to 8) (size 9 to 14) (size 15 to 20)
#    0.000    1.000    7.500    1.500    3.500    1.000 
#    0.000    0.000    0.000    0.000   71.500    0.000 
#    0.000    0.000    0.000    0.000    0.000    0.000 
#
# Total GULP energy -356959.768988 kJ/mol
# GULP energy per Si atom -5577.496390 kJ/mol
# Density = 2.043308 g / cm^3
# Si number density = 20.479688 Si / 1000 Ang^3
#
#
#
# Elastic Constant Matrix: (Units=GPa)
#
#
# Indices 1 2 3 4 5 6 
#
# 1 94.4327 13.9996 24.8666 0.0000 0.0000 0.0000
# 2 13.9996 94.4345 24.8693 0.0000 0.0000 0.0000
# 3 24.8666 24.8693 88.8075 0.0000 0.0000 0.0000
# 4 0.0000 0.0000 0.0000 34.8201 0.0000 0.0000
# 5 0.0000 0.0000 0.0000 0.0000 34.8197 0.0000
# 6 0.0000 0.0000 0.0000 0.0000 0.0000 10.1977
#
#
#
# Elastic Compliance Matrix: (Units=1/GPa)
#
#
# Indices 1 2 3 4 5 6 
#
# 1 0.011507 -0.000926 -0.002963 0.000000 0.000000 0.000000
# 2 -0.000926 0.011507 -0.002963 0.000000 0.000000 0.000000
# 3 -0.002963 -0.002963 0.012920 0.000000 0.000000 0.000000
# 4 0.000000 0.000000 0.000000 0.028719 0.000000 0.000000
# 5 0.000000 0.000000 0.000000 0.000000 0.028719 0.000000
# 6 0.000000 0.000000 0.000000 0.000000 0.000000 0.098062
#
#
# Mechanical properties :
#
#
# Convention : Reuss Voigt Hill
#
# Bulk Modulus (GPa) = 44.98344 45.01617 44.99980
# Shear Modulus (GPa) = 23.52422 30.23012 26.87717
#
# Velocity S-wave (km/s) = 3.39287 3.84618 3.62661
# Velocity P-wave (km/s) = 6.11239 6.46163 6.28944
#
# Compressibility (1/GPa) = 0.02223040
#
# Stress axis : x y z
#
# Youngs Moduli (GPa) = 86.90397 86.90418 77.40109
#
# Poissons Ratio (x) = 0.08044 0.22932
# Poissons Ratio (y) = 0.08044 0.22935
# Poissons Ratio (z) = 0.25748 0.25751
#
# Static dielectric constant tensor:
#      x y z
#    x 1.801350 0.000000 0.000000 
#    y 0.000000 1.801350 0.000000 
#    z 0.000000 0.000000 -0.525510 
# 
# From -- ./inp_files/7149.got.cif
#   From: 2010.05.17/outbox.cif.g08.bks.cpg/sg142_4_cif.got.tgz:7149.got - 2010.05.20 13:39:18.
