data_PCOD9573603
_publ_section_title
;
Structure prediction by ZEFSAII (Michael W. Deem and Ramdas Pophale) SiO2 
 PCOD9573603
Probable space group: I 41/A C D
;
_chemical_formula_sum "Si O2"
_cell_formula_units_Z 144
_cell_length_a 19.919027
_cell_length_b 19.919027
_cell_length_c 20.552689
_cell_angle_alpha 90.000000
_cell_angle_beta 90.000000
_cell_angle_gamma 90.000000
_cell_volume 8154.641841
_symmetry_space_group_name_H-M "I 41/A C D"
_symmetry_group_IT_number 142
_space_group.IT_coordinate_system_code '2'
_symmetry_cell_setting 'tetragonal'
loop_
_space_group_symop_operation_xyz
x,y,z
1/4-y,3/4+x,1/4+z
-x,1/2-y,z
1/4+y,1/4-x,3/4+z
x,-y,1/2-z
1/2-x,y,-z
3/4+y,1/4+x,1/4-z
1/4-y,1/4-x,1/4-z
-x,-y,-z
3/4+y,1/4-x,3/4-z
x,1/2+y,-z
3/4-y,3/4+x,1/4-z
-x,y,1/2+z
1/2+x,-y,z
1/4-y,3/4-x,3/4+z
3/4+y,3/4+x,3/4+z
1/2+x,1/2+y,1/2+z
3/4-y,1/4+x,3/4+z
1/2-x,-y,1/2+z
3/4+y,3/4-x,1/4+z
1/2+x,1/2-y,-z
-x,1/2+y,1/2-z
1/4+y,3/4+x,3/4-z
3/4-y,3/4-x,3/4-z
1/2-x,1/2-y,1/2-z
1/4+y,3/4-x,1/4-z
1/2+x,y,1/2-z
1/4-y,1/4+x,3/4-z
1/2-x,1/2+y,z
x,1/2-y,1/2+z
3/4-y,1/4-x,1/4+z
1/4+y,1/4+x,1/4+z
loop_
_atom_site_type_symbol
_atom_site_label
_atom_site_fract_x
_atom_site_fract_y
_atom_site_fract_z
Si Si1 0.670760 0.327936 0.677833
Si Si2 0.570733 0.433006 0.371098
Si Si3 0.182287 0.315217 0.380938
Si Si4 0.921643 0.078817 0.580444
Si Si5 0.250000 0.758162 0.000000
O O1 0.748121 0.340682 0.657801
O O2 0.841396 0.249812 0.841048
O O3 0.621262 0.376350 0.638712
O O4 0.660475 0.338976 0.754227
O O5 0.627137 0.377137 0.375000
O O6 0.499990 0.409812 0.402121
O O7 0.552980 0.454292 0.297261
O O8 0.250682 0.341211 0.347761
O O9 0.205642 0.287203 0.451605
O O10 0.875585 0.125585 0.625000
#
# Coordination Sequence:
#
# PCOD9573603 Si02
#       5
#    32  32  32  32  16
#     4  10  21  37  57  81 111 145 181 225 274 323
#     4  10  21  36  56  81 108 142 183 230 273 319
#     4  10  20  36  56  81 109 144 182 224 272 325
#     4  10  21  38  58  80 110 147 182 221 272 331
#     4   8  18  36  54  76 110 142 178 224 272 326
#
# _framework density 17.658653999999999
#
# number of rings (size 3 to 8) (size 9 to 14) (size 15 to 20)
#    0.000    2.667    0.000    5.333    0.000    8.889 
#    0.000    3.333    0.000    0.000    0.000    0.000 
#    0.000    0.000    0.000    0.000    0.000    0.000 
#
# Total GULP energy -401716.587956 kJ/mol
# GULP energy per Si atom -5579.397055 kJ/mol
# Density = 1.761846 g / cm^3
# Si number density = 17.658654 Si / 1000 Ang^3
#
#
#
# Elastic Constant Matrix: (Units=GPa)
#
#
# Indices 1 2 3 4 5 6 
#
# 1 100.2196 97.6589 20.4374 0.0000 0.0000 0.0000
# 2 97.6589 100.2196 20.4374 0.0000 0.0000 0.0000
# 3 20.4374 20.4374 77.8275 0.0000 0.0000 0.0000
# 4 0.0000 0.0000 0.0000 19.5168 0.0000 0.0000
# 5 0.0000 0.0000 0.0000 0.0000 19.5168 0.0000
# 6 0.0000 0.0000 0.0000 0.0000 0.0000 51.8540
#
#
#
# Elastic Compliance Matrix: (Units=1/GPa)
#
#
# Indices 1 2 3 4 5 6 
#
# 1 0.197929 -0.192585 -0.001403 0.000000 0.000000 0.000000
# 2 -0.192585 0.197929 -0.001403 0.000000 0.000000 0.000000
# 3 -0.001403 -0.001403 0.013586 0.000000 0.000000 0.000000
# 4 0.000000 0.000000 0.000000 0.051238 0.000000 0.000000
# 5 0.000000 0.000000 0.000000 0.000000 0.051238 0.000000
# 6 0.000000 0.000000 0.000000 0.000000 0.000000 0.019285
#
#
# Mechanical properties :
#
#
# Convention : Reuss Voigt Hill
#
# Bulk Modulus (GPa) = 53.59040 61.70377 57.64708
# Shear Modulus (GPa) = 5.38673 27.49305 16.43989
#
# Velocity S-wave (km/s) = 1.74846 3.95006 3.05451
# Velocity P-wave (km/s) = 5.87282 7.47143 6.71983
#
# Compressibility (1/GPa) = 0.01866006
#
# Stress axis : x y z
#
# Youngs Moduli (GPa) = 5.05232 5.05232 73.60583
#
# Poissons Ratio (x) = 0.97300 0.10328
# Poissons Ratio (y) = 0.97300 0.10328
# Poissons Ratio (z) = 0.00709 0.00709
#
# Static dielectric constant tensor:
#      x y z
#    x 1.583440 0.000000 0.000000 
#    y 0.000000 1.583440 0.000000 
#    z 0.000000 0.000000 1.615610 
# 
# From -- ./inp_files/7238.got.cif
#   From: 2010.05.17/outbox.cif.g08.bks.cpg/sg142_4_cif.got.tgz:7238.got - 2010.05.20 13:39:18.
