data_PCOD9573922
_publ_section_title
;
Structure prediction by ZEFSAII (Michael W. Deem and Ramdas Pophale) SiO2 
 PCOD9573922
Probable space group: I 41/A C D
;
_chemical_formula_sum "Si O2"
_cell_formula_units_Z 192
_cell_length_a 21.710700
_cell_length_b 21.710700
_cell_length_c 17.893432
_cell_angle_alpha 90.000000
_cell_angle_beta 90.000000
_cell_angle_gamma 90.000000
_cell_volume 8434.149595
_symmetry_space_group_name_H-M "I 41/A C D"
_symmetry_group_IT_number 142
_space_group.IT_coordinate_system_code '2'
_symmetry_cell_setting 'tetragonal'
loop_
_space_group_symop_operation_xyz
x,y,z
1/4-y,3/4+x,1/4+z
-x,1/2-y,z
1/4+y,1/4-x,3/4+z
x,-y,1/2-z
1/2-x,y,-z
3/4+y,1/4+x,1/4-z
1/4-y,1/4-x,1/4-z
-x,-y,-z
3/4+y,1/4-x,3/4-z
x,1/2+y,-z
3/4-y,3/4+x,1/4-z
-x,y,1/2+z
1/2+x,-y,z
1/4-y,3/4-x,3/4+z
3/4+y,3/4+x,3/4+z
1/2+x,1/2+y,1/2+z
3/4-y,1/4+x,3/4+z
1/2-x,-y,1/2+z
3/4+y,3/4-x,1/4+z
1/2+x,1/2-y,-z
-x,1/2+y,1/2-z
1/4+y,3/4+x,3/4-z
3/4-y,3/4-x,3/4-z
1/2-x,1/2-y,1/2-z
1/4+y,3/4-x,1/4-z
1/2+x,y,1/2-z
1/4-y,1/4+x,3/4-z
1/2-x,1/2+y,z
x,1/2-y,1/2+z
3/4-y,1/4-x,1/4+z
1/4+y,1/4+x,1/4+z
loop_
_atom_site_type_symbol
_atom_site_label
_atom_site_fract_x
_atom_site_fract_y
_atom_site_fract_z
Si Si1 0.649965 0.733310 0.706891
Si Si2 0.165435 0.459862 0.410032
Si Si3 0.336442 0.933354 0.243881
Si Si4 0.750000 0.279215 0.000000
Si Si5 0.902312 0.847688 0.375000
Si Si6 0.018036 0.534985 0.097920
Si Si7 0.369912 0.410504 0.299770
O O1 0.612077 0.779469 0.654445
O O2 0.658442 0.752413 0.794518
O O3 0.721496 0.738031 0.681526
O O4 0.624873 0.663898 0.703080
O O5 0.180563 0.425839 0.331290
O O6 0.189733 0.524886 0.443414
O O7 0.091579 0.470126 0.411307
O O8 0.181242 0.413606 0.475387
O O9 0.380173 0.888710 0.196461
O O10 0.367488 0.000000 0.250000
O O11 0.711496 0.245458 0.064590
O O12 0.800585 0.318542 0.045550
O O13 0.330291 0.419710 0.375000
#
# Coordination Sequence:
#
# PCOD9573922 Si02
#       7
#    32  32  32  16  16  32  32
#     4  10  22  45  66 100 140 177 237 299 348 422
#     4  11  26  40  65  98 144 181 229 295 351 420
#     4  12  23  40  60 104 141 180 233 284 356 416
#     4  12  26  42  76  98 132 192 236 290 364 434
#     4  12  24  40  75  96 134 200 234 294 364 417
#     4  10  22  43  69  97 134 182 245 290 339 439
#     4  11  26  43  65 101 139 177 232 287 363 429
#
# _framework density 22.764595
#
# number of rings (size 3 to 8) (size 9 to 14) (size 15 to 20)
#    0.000    1.000    5.000    0.000    9.333    0.000 
#    0.000    0.417    0.000    0.000    0.000    0.000 
#    0.000    0.000    0.000    0.000    0.000    0.000 
#
# Total GULP energy -535551.523130 kJ/mol
# GULP energy per Si atom -5578.661699 kJ/mol
# Density = 2.271278 g / cm^3
# Si number density = 22.764595 Si / 1000 Ang^3
#
#
#
# Elastic Constant Matrix: (Units=GPa)
#
#
# Indices 1 2 3 4 5 6 
#
# 1 82.5219 29.9222 34.3398 0.0000 0.0000 0.0000
# 2 29.9222 82.5223 34.3400 0.0000 0.0000 0.0000
# 3 34.3398 34.3400 228.6035 0.0000 0.0000 0.0000
# 4 0.0000 0.0000 0.0000 36.9457 0.0000 0.0000
# 5 0.0000 0.0000 0.0000 0.0000 36.9458 0.0000
# 6 0.0000 0.0000 0.0000 0.0000 0.0000 16.4759
#
#
#
# Elastic Compliance Matrix: (Units=1/GPa)
#
#
# Indices 1 2 3 4 5 6 
#
# 1 0.014402 -0.004610 -0.001471 0.000000 0.000000 0.000000
# 2 -0.004610 0.014402 -0.001471 0.000000 0.000000 0.000000
# 3 -0.001471 -0.001471 0.004816 0.000000 0.000000 0.000000
# 4 0.000000 0.000000 0.000000 0.027067 0.000000 0.000000
# 5 0.000000 0.000000 0.000000 0.000000 0.027067 0.000000
# 6 0.000000 0.000000 0.000000 0.000000 0.000000 0.060695
#
#
# Mechanical properties :
#
#
# Convention : Reuss Voigt Hill
#
# Bulk Modulus (GPa) = 54.00685 65.65019 59.82852
# Shear Modulus (GPa) = 29.45982 37.74321 33.60152
#
# Velocity S-wave (km/s) = 3.60127 4.07625 3.84610
# Velocity P-wave (km/s) = 6.40841 7.14533 6.78688
#
# Compressibility (1/GPa) = 0.01851617
#
# Stress axis : x y z
#
# Youngs Moduli (GPa) = 69.43674 69.43706 207.62907
#
# Poissons Ratio (x) = 0.32010 0.30539
# Poissons Ratio (y) = 0.32010 0.30539
# Poissons Ratio (z) = 0.10213 0.10213
#
# Static dielectric constant tensor:
#      x y z
#    x 1.877350 0.000000 0.000000 
#    y 0.000000 1.877350 0.000000 
#    z 0.000000 0.000000 1.955180 
# 
# From -- ./inp_files/5767.got.cif
#   From: 2010.05.17/outbox.cif.g08.bks.cpg/sg142_3_cif.got.tgz:5767.got - 2010.05.20 13:39:18.
