data_PCOD9573116
_publ_section_title
;
Structure prediction by ZEFSAII (Michael W. Deem and Ramdas Pophale) SiO2 
 PCOD9573116
Probable space group: I 41/A M D
;
_chemical_formula_sum "Si O2"
_cell_formula_units_Z 176
_cell_length_a 27.043476
_cell_length_b 27.043476
_cell_length_c 12.337426
_cell_angle_alpha 90.000000
_cell_angle_beta 90.000000
_cell_angle_gamma 90.000000
_cell_volume 9022.971498
_symmetry_space_group_name_H-M "I 41/A M D"
_symmetry_group_IT_number 141
_space_group.IT_coordinate_system_code '2'
_symmetry_cell_setting 'tetragonal'
loop_
_space_group_symop_operation_xyz
x,y,z
1/4-y,3/4+x,1/4+z
-x,1/2-y,z
1/4+y,1/4-x,3/4+z
x,-y,-z
-x,1/2+y,-z
1/4+y,3/4+x,1/4-z
1/4-y,1/4-x,3/4-z
-x,-y,-z
3/4+y,1/4-x,3/4-z
x,1/2+y,-z
3/4-y,3/4+x,1/4-z
-x,y,z
x,1/2-y,z
3/4-y,1/4-x,3/4+z
3/4+y,3/4+x,1/4+z
1/2+x,1/2+y,1/2+z
3/4-y,1/4+x,3/4+z
1/2-x,-y,1/2+z
3/4+y,3/4-x,1/4+z
1/2+x,1/2-y,1/2-z
1/2-x,y,1/2-z
3/4+y,1/4+x,3/4-z
3/4-y,3/4-x,1/4-z
1/2-x,1/2-y,1/2-z
1/4+y,3/4-x,1/4-z
1/2+x,y,1/2-z
1/4-y,1/4+x,3/4-z
1/2-x,1/2+y,1/2+z
1/2+x,-y,1/2+z
1/4-y,3/4-x,1/4+z
1/4+y,1/4+x,3/4+z
loop_
_atom_site_type_symbol
_atom_site_label
_atom_site_fract_x
_atom_site_fract_y
_atom_site_fract_z
Si Si1 0.442980 0.496038 0.870689
Si Si2 0.693682 0.575481 0.210599
Si Si3 0.441340 0.116567 0.820258
Si Si4 0.346265 0.536685 0.783297
Si Si5 0.060450 0.692795 0.503252
Si Si6 0.376768 0.873233 0.375000
O O1 0.500000 0.504036 0.836204
O O2 0.427178 0.439881 0.844735
O O3 0.403508 0.532336 0.817073
O O4 0.441165 0.500000 0.000000
O O5 0.750000 0.575877 0.250000
O O6 0.673959 0.519652 0.225140
O O7 0.664674 0.614848 0.284627
O O8 0.690107 0.588805 0.084459
O O9 0.500000 0.118572 0.830171
O O10 0.422084 0.155958 0.908827
O O11 0.425404 0.126199 0.697499
O O12 0.315549 0.565549 0.875000
O O13 0.076048 0.750000 0.486666
O O14 0.074300 0.675701 0.625000
O O15 0.000000 0.693185 0.503595
#
# Coordination Sequence:
#
# PCOD9573116 Si02
#       6
#    32  32  32  32  32  16
#     4  10  21  41  62  87 126 166 202 247 309 373
#     4  12  21  39  60  87 127 158 193 261 324 372
#     4  10  21  39  61  85 124 172 212 253 306 373
#     4  12  23  37  65  98 121 154 207 259 316 383
#     4   8  15  32  61  94 125 157 199 259 322 368
#     4  12  24  40  58  85 122 168 212 252 316 366
#
# _framework density 19.505769000000001
#
# number of rings (size 3 to 8) (size 9 to 14) (size 15 to 20)
#    0.000    1.455    3.636    3.273    0.000    0.727 
#    3.273    0.909    0.000    3.273    0.000    0.000 
#    0.000    0.364    0.000    0.000    0.000    0.000 
#
# Total GULP energy -491361.975314 kJ/mol
# GULP energy per Si atom -5583.658810 kJ/mol
# Density = 1.946137 g / cm^3
# Si number density = 19.505769 Si / 1000 Ang^3
#
#
#
# Elastic Constant Matrix: (Units=GPa)
#
#
# Indices 1 2 3 4 5 6 
#
# 1 27.8660 32.1960 22.4068 0.0000 0.0000 0.0000
# 2 32.1960 27.8659 22.4060 0.0000 0.0000 0.0000
# 3 22.4068 22.4060 138.1237 0.0000 0.0000 0.0000
# 4 0.0000 0.0000 0.0000 45.8663 0.0000 0.0000
# 5 0.0000 0.0000 0.0000 0.0000 45.8708 0.0000
# 6 0.0000 0.0000 0.0000 0.0000 0.0000 14.4583
#
#
#
# Elastic Compliance Matrix: (Units=1/GPa)
#
#
# Indices 1 2 3 4 5 6 
#
# 1 -0.106003 0.124945 -0.003072 0.000000 0.000000 0.000000
# 2 0.124945 -0.106002 -0.003073 0.000000 0.000000 0.000000
# 3 -0.003072 -0.003073 0.008237 0.000000 0.000000 0.000000
# 4 0.000000 0.000000 0.000000 0.021803 0.000000 0.000000
# 5 0.000000 0.000000 0.000000 0.000000 0.021800 0.000000
# 6 0.000000 0.000000 0.000000 0.000000 0.000000 0.069164
#
#
# Mechanical properties :
#
#
# Convention : Reuss Voigt Hill
#
# Bulk Modulus (GPa) = 29.55966 38.65259 34.10613
# Shear Modulus (GPa) = -15.75685 29.02885 6.63600
#
# Velocity S-wave (km/s) = -2.84527 3.86193 1.84647
# Velocity P-wave (km/s) = 2.09597 6.30436 4.69777
#
# Compressibility (1/GPa) = 0.03382989
#
# Stress axis : x y z
#
# Youngs Moduli (GPa) = -9.43371 -9.43376 121.40609
#
# Poissons Ratio (x) = 1.17870 0.37297
# Poissons Ratio (y) = 1.17869 0.37314
# Poissons Ratio (z) = -0.02898 -0.02899
#
# Static dielectric constant tensor:
#      x y z
#    x 1.712200 0.000000 0.000000 
#    y 0.000000 1.712200 0.000000 
#    z 0.000000 0.000000 1.637920 
# 
# From -- ./inp_files/5044.got.cif
#   From: 2010.05.17/outbox.cif.g08.bks.cpg/sg141_3_cif.got.tgz:5044.got - 2010.05.20 13:30:51.
