data_PCOD9573036
_publ_section_title
;
Structure prediction by ZEFSAII (Michael W. Deem and Ramdas Pophale) SiO2 
 PCOD9573036
Probable space group: I 41/A M D
;
_chemical_formula_sum "Si O2"
_cell_formula_units_Z 176
_cell_length_a 18.374543
_cell_length_b 18.374543
_cell_length_c 25.500216
_cell_angle_alpha 90.000000
_cell_angle_beta 90.000000
_cell_angle_gamma 90.000000
_cell_volume 8609.480603
_symmetry_space_group_name_H-M "I 41/A M D"
_symmetry_group_IT_number 141
_space_group.IT_coordinate_system_code '2'
_symmetry_cell_setting 'tetragonal'
loop_
_space_group_symop_operation_xyz
x,y,z
1/4-y,3/4+x,1/4+z
-x,1/2-y,z
1/4+y,1/4-x,3/4+z
x,-y,-z
-x,1/2+y,-z
1/4+y,3/4+x,1/4-z
1/4-y,1/4-x,3/4-z
-x,-y,-z
3/4+y,1/4-x,3/4-z
x,1/2+y,-z
3/4-y,3/4+x,1/4-z
-x,y,z
x,1/2-y,z
3/4-y,1/4-x,3/4+z
3/4+y,3/4+x,1/4+z
1/2+x,1/2+y,1/2+z
3/4-y,1/4+x,3/4+z
1/2-x,-y,1/2+z
3/4+y,3/4-x,1/4+z
1/2+x,1/2-y,1/2-z
1/2-x,y,1/2-z
3/4+y,1/4+x,3/4-z
3/4-y,3/4-x,1/4-z
1/2-x,1/2-y,1/2-z
1/4+y,3/4-x,1/4-z
1/2+x,y,1/2-z
1/4-y,1/4+x,3/4-z
1/2-x,1/2+y,1/2+z
1/2+x,-y,1/2+z
1/4-y,3/4-x,1/4+z
1/4+y,1/4+x,3/4+z
loop_
_atom_site_type_symbol
_atom_site_label
_atom_site_fract_x
_atom_site_fract_y
_atom_site_fract_z
Si Si1 0.638985 0.530112 0.581319
Si Si2 0.086306 0.063578 0.196628
Si Si3 0.279584 0.165383 0.309102
Si Si4 0.915325 0.878073 0.066955
Si Si5 0.213179 0.536822 0.625000
Si Si6 0.681438 0.330586 0.478054
O O1 0.605838 0.528600 0.639987
O O2 0.601827 0.462382 0.553262
O O3 0.725843 0.517428 0.581943
O O4 0.640077 0.611547 0.558689
O O5 0.139075 0.132962 0.195419
O O6 0.000000 0.078395 0.198420
O O7 0.102803 0.009280 0.245688
O O8 0.277834 0.250000 0.324495
O O9 0.250000 0.159054 0.250000
O O10 0.232983 0.114486 0.349475
O O11 0.887412 0.862589 0.125000
O O12 0.870088 0.828509 0.028342
O O13 0.000000 0.864109 0.063543
O O14 0.689168 0.250000 0.454599
#
# Coordination Sequence:
#
# PCOD9573036 Si02
#       6
#    32  32  32  32  16  32
#     4  11  21  37  64  90 113 157 210 254 300 370
#     4  10  21  40  63  88 124 164 204 260 322 381
#     4  10  21  38  61  91 124 160 209 263 314 380
#     4  12  23  39  59  82 115 159 206 250 303 365
#     4  10  20  38  64  89 115 158 200 250 310 370
#     4  11  24  40  59  88 124 159 203 257 315 372
#
# _framework density 20.442578999999999
#
# number of rings (size 3 to 8) (size 9 to 14) (size 15 to 20)
#    0.000    1.273    2.727    3.818    0.000    6.727 
#    0.000    0.909    0.000    1.364    0.000    0.000 
#    0.000    0.000    0.000    0.000    0.000    0.000 
#
# Total GULP energy -490810.823762 kJ/mol
# GULP energy per Si atom -5577.395725 kJ/mol
# Density = 2.039605 g / cm^3
# Si number density = 20.442579 Si / 1000 Ang^3
#
#
#
# Elastic Constant Matrix: (Units=GPa)
#
#
# Indices 1 2 3 4 5 6 
#
# 1 99.7438 24.9805 -0.9899 0.0000 0.0000 0.0000
# 2 24.9805 99.7491 -0.9885 0.0000 0.0000 0.0000
# 3 -0.9899 -0.9885 20.8785 0.0000 0.0000 0.0000
# 4 0.0000 0.0000 0.0000 -15.4900 0.0000 0.0000
# 5 0.0000 0.0000 0.0000 0.0000 -15.4099 0.0000
# 6 0.0000 0.0000 0.0000 0.0000 0.0000 5.6582
#
#
#
# Elastic Compliance Matrix: (Units=1/GPa)
#
#
# Indices 1 2 3 4 5 6 
#
# 1 0.010700 -0.002676 0.000381 0.000000 0.000000 0.000000
# 2 -0.002676 0.010699 0.000380 0.000000 0.000000 0.000000
# 3 0.000381 0.000380 0.047932 0.000000 0.000000 0.000000
# 4 0.000000 0.000000 0.000000 -0.064558 0.000000 0.000000
# 5 0.000000 0.000000 0.000000 0.000000 -0.064893 0.000000
# 6 0.000000 0.000000 0.000000 0.000000 0.000000 0.176736
#
#
# Mechanical properties :
#
#
# Convention : Reuss Voigt Hill
#
# Bulk Modulus (GPa) = 15.26722 29.59730 22.43226
# Shear Modulus (GPa) = 35.14202 8.10960 21.62581
#
# Velocity S-wave (km/s) = 4.15065 1.99390 3.25604
# Velocity P-wave (km/s) = 5.51862 4.45090 5.01326
#
# Compressibility (1/GPa) = 0.06549981
#
# Stress axis : x y z
#
# Youngs Moduli (GPa) = 93.46151 93.46659 20.86282
#
# Poissons Ratio (x) = 0.25009 -0.00794
# Poissons Ratio (y) = 0.25008 -0.00792
# Poissons Ratio (z) = -0.03557 -0.03549
#
# Static dielectric constant tensor:
#      x y z
#    x 1.746200 0.000000 0.000000 
#    y 0.000000 1.746200 0.000000 
#    z 0.000000 0.000000 1.541250 
# 
# From -- ./inp_files/12879.got.cif
#   From: 2010.05.17/outbox.cif.g08.bks.cpg/sg141_7_cif.got.tgz:12879.got - 2010.05.20 13:30:51.
