data_PCOD9573200
_publ_section_title
;
Structure prediction by ZEFSAII (Michael W. Deem and Ramdas Pophale) SiO2 
 PCOD9573200
Probable space group: I 41/A M D
;
_chemical_formula_sum "Si O2"
_cell_formula_units_Z 192
_cell_length_a 20.968824
_cell_length_b 20.968824
_cell_length_c 21.975437
_cell_angle_alpha 90.000000
_cell_angle_beta 90.000000
_cell_angle_gamma 90.000000
_cell_volume 9662.414614
_symmetry_space_group_name_H-M "I 41/A M D"
_symmetry_group_IT_number 141
_space_group.IT_coordinate_system_code '2'
_symmetry_cell_setting 'tetragonal'
loop_
_space_group_symop_operation_xyz
x,y,z
1/4-y,3/4+x,1/4+z
-x,1/2-y,z
1/4+y,1/4-x,3/4+z
x,-y,-z
-x,1/2+y,-z
1/4+y,3/4+x,1/4-z
1/4-y,1/4-x,3/4-z
-x,-y,-z
3/4+y,1/4-x,3/4-z
x,1/2+y,-z
3/4-y,3/4+x,1/4-z
-x,y,z
x,1/2-y,z
3/4-y,1/4-x,3/4+z
3/4+y,3/4+x,1/4+z
1/2+x,1/2+y,1/2+z
3/4-y,1/4+x,3/4+z
1/2-x,-y,1/2+z
3/4+y,3/4-x,1/4+z
1/2+x,1/2-y,1/2-z
1/2-x,y,1/2-z
3/4+y,1/4+x,3/4-z
3/4-y,3/4-x,1/4-z
1/2-x,1/2-y,1/2-z
1/4+y,3/4-x,1/4-z
1/2+x,y,1/2-z
1/4-y,1/4+x,3/4-z
1/2-x,1/2+y,1/2+z
1/2+x,-y,1/2+z
1/4-y,3/4-x,1/4+z
1/4+y,1/4+x,3/4+z
loop_
_atom_site_type_symbol
_atom_site_label
_atom_site_fract_x
_atom_site_fract_y
_atom_site_fract_z
Si Si1 0.142419 0.010506 0.347243
Si Si2 0.128972 0.824354 0.068350
Si Si3 0.572325 0.060689 0.955391
Si Si4 0.928206 0.519110 0.858148
Si Si5 0.642472 0.930013 0.528439
Si Si6 0.146767 0.178036 0.487438
O O1 0.202545 0.047456 0.375000
O O2 0.093693 0.063577 0.321805
O O3 0.111523 0.964298 0.397370
O O4 0.164044 0.966180 0.291472
O O5 0.081414 0.831414 0.125000
O O6 0.133744 0.750000 0.048820
O O7 0.197629 0.845578 0.096131
O O8 0.114910 0.873656 0.013817
O O9 0.500000 0.074347 0.936348
O O10 0.599408 0.121699 0.991722
O O11 0.573133 0.000000 0.000000
O O12 0.890575 0.561177 0.906310
O O13 0.930280 0.553814 0.793548
O O14 0.000000 0.512265 0.882232
O O15 0.635920 0.000000 0.500000
O O16 0.120311 0.250000 0.480133
#
# Coordination Sequence:
#
# PCOD9573200 Si02
#       6
#    32  32  32  32  32  32
#     4  12  25  38  64  98 135 167 216 275 339 392
#     4  11  24  43  65  93 131 171 213 267 331 393
#     4  11  24  43  66  95 127 168 219 275 333 393
#     4  10  22  41  62  89 125 165 208 259 321 388
#     4  12  25  37  65  98 126 165 218 269 319 384
#     4  11  23  43  67  93 128 174 218 266 333 404
#
# _framework density 19.870809000000001
#
# number of rings (size 3 to 8) (size 9 to 14) (size 15 to 20)
#    0.000    0.833    6.667    0.500    4.667    2.167 
#    0.000    0.000    0.000    0.000    0.000    0.000 
#    0.000    0.000    0.000    0.000    0.000    0.000 
#
# Total GULP energy -535832.549395 kJ/mol
# GULP energy per Si atom -5581.589056 kJ/mol
# Density = 1.982558 g / cm^3
# Si number density = 19.870809 Si / 1000 Ang^3
#
#
#
# Elastic Constant Matrix: (Units=GPa)
#
#
# Indices 1 2 3 4 5 6 
#
# 1 77.3677 26.5506 15.3921 0.0000 0.0000 0.0000
# 2 26.5506 77.3711 15.3933 0.0000 0.0000 0.0000
# 3 15.3921 15.3933 64.8405 0.0000 0.0000 0.0000
# 4 0.0000 0.0000 0.0000 17.0247 0.0000 0.0000
# 5 0.0000 0.0000 0.0000 0.0000 17.0261 0.0000
# 6 0.0000 0.0000 0.0000 0.0000 0.0000 12.1023
#
#
#
# Elastic Compliance Matrix: (Units=1/GPa)
#
#
# Indices 1 2 3 4 5 6 
#
# 1 0.015015 -0.004664 -0.002457 0.000000 0.000000 0.000000
# 2 -0.004664 0.015014 -0.002457 0.000000 0.000000 0.000000
# 3 -0.002457 -0.002457 0.016589 0.000000 0.000000 0.000000
# 4 0.000000 0.000000 0.000000 0.058738 0.000000 0.000000
# 5 0.000000 0.000000 0.000000 0.000000 0.058733 0.000000
# 6 0.000000 0.000000 0.000000 0.000000 0.000000 0.082629
#
#
# Mechanical properties :
#
#
# Convention : Reuss Voigt Hill
#
# Bulk Modulus (GPa) = 36.41429 37.13905 36.77667
# Shear Modulus (GPa) = 18.18000 20.04685 19.11343
#
# Velocity S-wave (km/s) = 3.02803 3.17970 3.10479
# Velocity P-wave (km/s) = 5.53088 5.67552 5.60366
#
# Compressibility (1/GPa) = 0.02746175
#
# Stress axis : x y z
#
# Youngs Moduli (GPa) = 66.60221 66.60476 60.28057
#
# Poissons Ratio (x) = 0.31061 0.14811
# Poissons Ratio (y) = 0.31060 0.14813
# Poissons Ratio (z) = 0.16365 0.16367
#
# Static dielectric constant tensor:
#      x y z
#    x 1.712870 0.000000 0.000000 
#    y 0.000000 1.712870 0.000000 
#    z 0.000000 0.000000 1.722350 
# 
# From -- ./inp_files/11694.got.cif
#   From: 2010.05.17/outbox.cif.g08.bks.cpg/sg141_6_cif.got.tgz:11694.got - 2010.05.20 13:30:51.
