data_PCOD9573740
_publ_section_title
;
Structure prediction by ZEFSAII (Michael W. Deem and Ramdas Pophale) SiO2 
 PCOD9573740
Probable space group: I 41/A C D
;
_chemical_formula_sum "Si O2"
_cell_formula_units_Z 176
_cell_length_a 31.025267
_cell_length_b 31.025267
_cell_length_c 10.441120
_cell_angle_alpha 90.000000
_cell_angle_beta 90.000000
_cell_angle_gamma 90.000000
_cell_volume 10050.279564
_symmetry_space_group_name_H-M "I 41/A C D"
_symmetry_group_IT_number 142
_space_group.IT_coordinate_system_code '2'
_symmetry_cell_setting 'tetragonal'
loop_
_space_group_symop_operation_xyz
x,y,z
1/4-y,3/4+x,1/4+z
-x,1/2-y,z
1/4+y,1/4-x,3/4+z
x,-y,1/2-z
1/2-x,y,-z
3/4+y,1/4+x,1/4-z
1/4-y,1/4-x,1/4-z
-x,-y,-z
3/4+y,1/4-x,3/4-z
x,1/2+y,-z
3/4-y,3/4+x,1/4-z
-x,y,1/2+z
1/2+x,-y,z
1/4-y,3/4-x,3/4+z
3/4+y,3/4+x,3/4+z
1/2+x,1/2+y,1/2+z
3/4-y,1/4+x,3/4+z
1/2-x,-y,1/2+z
3/4+y,3/4-x,1/4+z
1/2+x,1/2-y,-z
-x,1/2+y,1/2-z
1/4+y,3/4+x,3/4-z
3/4-y,3/4-x,3/4-z
1/2-x,1/2-y,1/2-z
1/4+y,3/4-x,1/4-z
1/2+x,y,1/2-z
1/4-y,1/4+x,3/4-z
1/2-x,1/2+y,z
x,1/2-y,1/2+z
3/4-y,1/4-x,1/4+z
1/4+y,1/4+x,1/4+z
loop_
_atom_site_type_symbol
_atom_site_label
_atom_site_fract_x
_atom_site_fract_y
_atom_site_fract_z
Si Si1 0.209319 0.108632 0.152556
Si Si2 0.750000 0.040370 0.000000
Si Si3 0.487390 0.450492 0.022712
Si Si4 0.391850 0.446091 0.131363
Si Si5 0.043465 0.947576 0.754973
Si Si6 0.362674 0.429571 0.687136
O O1 0.188575 0.061426 0.125000
O O2 0.260707 0.114177 0.150739
O O3 0.192959 0.122817 0.290586
O O4 0.192600 0.137613 0.034984
O O5 0.762166 0.012166 0.125000
O O6 0.710566 0.073444 0.022706
O O7 0.440394 0.450989 0.087488
O O8 0.521397 0.431707 0.123806
O O9 0.500000 0.500000 0.000000
O O10 0.481960 0.431736 0.880417
O O11 0.368256 0.406172 0.065663
O O12 0.093734 0.935994 0.764656
O O13 0.041569 0.000000 0.750000
#
# Coordination Sequence:
#
# PCOD9573740 Si02
#       6
#    32  16  32  32  32  32
#     4   9  19  33  50  77 105 149 187 234 276 323
#     4  12  28  40  56  74 112 154 204 250 280 326
#     4  10  22  34  53  79 101 140 181 231 283 340
#     4  10  21  33  56  75 113 143 191 234 280 333
#     4  10  21  35  55  76 105 136 181 230 288 334
#     4  11  22  37  55  77 108 146 191 238 286 329
#
# _framework density 17.511951
#
# number of rings (size 3 to 8) (size 9 to 14) (size 15 to 20)
#    0.000    1.818    0.909    3.273   12.727    5.818 
#    0.000    0.000    0.000    0.000    0.000    0.000 
#    0.000    0.727    0.000    3.273    0.000    0.000 
#
# Total GULP energy -491199.062001 kJ/mol
# GULP energy per Si atom -5581.807523 kJ/mol
# Density = 1.747209 g / cm^3
# Si number density = 17.511951 Si / 1000 Ang^3
#
#
#
# Elastic Constant Matrix: (Units=GPa)
#
#
# Indices 1 2 3 4 5 6 
#
# 1 50.2265 19.9738 29.2941 0.0000 0.0000 0.0000
# 2 19.9738 50.2264 29.2958 0.0000 0.0000 0.0000
# 3 29.2941 29.2958 105.0275 0.0000 0.0000 0.0000
# 4 0.0000 0.0000 0.0000 20.8003 0.0000 0.0000
# 5 0.0000 0.0000 0.0000 0.0000 20.7991 0.0000
# 6 0.0000 0.0000 0.0000 0.0000 0.0000 12.5695
#
#
#
# Elastic Compliance Matrix: (Units=1/GPa)
#
#
# Indices 1 2 3 4 5 6 
#
# 1 0.025811 -0.007244 -0.005179 0.000000 0.000000 0.000000
# 2 -0.007244 0.025811 -0.005179 0.000000 0.000000 0.000000
# 3 -0.005179 -0.005179 0.012410 0.000000 0.000000 0.000000
# 4 0.000000 0.000000 0.000000 0.048076 0.000000 0.000000
# 5 0.000000 0.000000 0.000000 0.000000 0.048079 0.000000
# 6 0.000000 0.000000 0.000000 0.000000 0.000000 0.079558
#
#
# Mechanical properties :
#
#
# Convention : Reuss Voigt Hill
#
# Bulk Modulus (GPa) = 34.68679 40.28974 37.48826
# Shear Modulus (GPa) = 17.57105 19.29488 18.43296
#
# Velocity S-wave (km/s) = 3.17105 3.32296 3.24789
# Velocity P-wave (km/s) = 5.76696 6.14652 5.95976
#
# Compressibility (1/GPa) = 0.02882942
#
# Stress axis : x y z
#
# Youngs Moduli (GPa) = 38.74345 38.74244 80.57759
#
# Poissons Ratio (x) = 0.28064 0.41728
# Poissons Ratio (y) = 0.28065 0.41733
# Poissons Ratio (z) = 0.20064 0.20066
#
# Static dielectric constant tensor:
#      x y z
#    x 1.583580 0.000000 0.000000 
#    y 0.000000 1.583570 0.000000 
#    z 0.000000 0.000000 1.663150 
# 
# From -- ./inp_files/4126.got.cif
#   From: 2010.05.17/outbox.cif.g08.bks.cpg/sg142_3_cif.got.tgz:4126.got - 2010.05.20 13:39:18.
