data_PCOD9573150
_publ_section_title
;
Structure prediction by ZEFSAII (Michael W. Deem and Ramdas Pophale) SiO2 
 PCOD9573150
Probable space group: I 41/A M D
;
_chemical_formula_sum "Si O2"
_cell_formula_units_Z 120
_cell_length_a 14.488923
_cell_length_b 14.488923
_cell_length_c 25.607677
_cell_angle_alpha 90.000000
_cell_angle_beta 90.000000
_cell_angle_gamma 90.000000
_cell_volume 5375.791200
_symmetry_space_group_name_H-M "I 41/A M D"
_symmetry_group_IT_number 141
_space_group.IT_coordinate_system_code '2'
_symmetry_cell_setting 'tetragonal'
loop_
_space_group_symop_operation_xyz
x,y,z
1/4-y,3/4+x,1/4+z
-x,1/2-y,z
1/4+y,1/4-x,3/4+z
x,-y,-z
-x,1/2+y,-z
1/4+y,3/4+x,1/4-z
1/4-y,1/4-x,3/4-z
-x,-y,-z
3/4+y,1/4-x,3/4-z
x,1/2+y,-z
3/4-y,3/4+x,1/4-z
-x,y,z
x,1/2-y,z
3/4-y,1/4-x,3/4+z
3/4+y,3/4+x,1/4+z
1/2+x,1/2+y,1/2+z
3/4-y,1/4+x,3/4+z
1/2-x,-y,1/2+z
3/4+y,3/4-x,1/4+z
1/2+x,1/2-y,1/2-z
1/2-x,y,1/2-z
3/4+y,1/4+x,3/4-z
3/4-y,3/4-x,1/4-z
1/2-x,1/2-y,1/2-z
1/4+y,3/4-x,1/4-z
1/2+x,y,1/2-z
1/4-y,1/4+x,3/4-z
1/2-x,1/2+y,1/2+z
1/2+x,-y,1/2+z
1/4-y,3/4-x,1/4+z
1/4+y,1/4+x,3/4+z
loop_
_atom_site_type_symbol
_atom_site_label
_atom_site_fract_x
_atom_site_fract_y
_atom_site_fract_z
Si Si1 0.654389 0.750000 0.870199
Si Si2 0.855243 0.250000 0.093434
Si Si3 0.000000 0.750000 0.253093
Si Si4 0.316935 0.566935 0.375000
Si Si5 0.655454 0.855292 0.073151
Si Si6 0.809819 0.750000 0.195794
Si Si7 0.500000 0.140038 0.011137
O O1 0.590241 0.659760 0.875000
O O2 0.743908 0.750000 0.906418
O O3 0.679724 0.750000 0.809159
O O4 0.909271 0.250000 0.039529
O O5 0.887767 0.338159 0.126804
O O6 0.087560 0.750000 0.217000
O O7 0.321043 0.484810 0.333166
O O8 0.410105 0.551924 0.408724
O O9 0.691129 0.750000 0.068632
O O10 0.590466 0.871507 0.023717
O O11 0.750000 0.750000 0.250000
O O12 0.500000 0.250000 0.028177
#
# Coordination Sequence:
#
# PCOD9573150 Si02
#       7
#    16  16   8  16  32  16  16
#     4  11  24  42  63 100 142 175 216 286 343 406
#     4  11  23  44  69  96 135 183 231 286 344 416
#     4  12  24  43  70 100 132 188 243 268 348 424
#     4  12  24  47  70 104 145 180 240 302 360 418
#     4  10  21  41  73  95 130 181 226 292 343 414
#     4  12  27  47  71 104 148 188 242 308 368 430
#     4   9  19  42  69  95 131 180 229 270 346 420
#
# _framework density 22.322295
#
# number of rings (size 3 to 8) (size 9 to 14) (size 15 to 20)
#    0.000    1.200    4.000    3.200    1.867    4.267 
#    4.800    0.000    0.000    0.000    0.000    0.000 
#    0.000    0.000    0.000    0.000    0.000    0.000 
#
# Total GULP energy -335440.783975 kJ/mol
# GULP energy per Si atom -5590.679733 kJ/mol
# Density = 2.227149 g / cm^3
# Si number density = 22.322295 Si / 1000 Ang^3
#
#
#
# Elastic Constant Matrix: (Units=GPa)
#
#
# Indices 1 2 3 4 5 6 
#
# 1 116.3750 11.2230 18.6054 0.0000 0.0000 0.0000
# 2 11.2230 116.3761 18.6063 0.0000 0.0000 0.0000
# 3 18.6054 18.6063 80.2244 0.0000 0.0000 0.0000
# 4 0.0000 0.0000 0.0000 42.1996 0.0000 0.0000
# 5 0.0000 0.0000 0.0000 0.0000 42.2278 0.0000
# 6 0.0000 0.0000 0.0000 0.0000 0.0000 345.2501
#
#
#
# Elastic Compliance Matrix: (Units=1/GPa)
#
#
# Indices 1 2 3 4 5 6 
#
# 1 0.008958 -0.000552 -0.001949 0.000000 0.000000 0.000000
# 2 -0.000552 0.008958 -0.001949 0.000000 0.000000 0.000000
# 3 -0.001949 -0.001949 0.013369 0.000000 0.000000 0.000000
# 4 0.000000 0.000000 0.000000 0.023697 0.000000 0.000000
# 5 0.000000 0.000000 0.000000 0.000000 0.023681 0.000000
# 6 0.000000 0.000000 0.000000 0.000000 0.000000 0.002896
#
#
# Mechanical properties :
#
#
# Convention : Reuss Voigt Hill
#
# Bulk Modulus (GPa) = 44.67738 45.53831 45.10784
# Shear Modulus (GPa) = 51.06085 103.57156 77.31620
#
# Velocity S-wave (km/s) = 4.78790 6.81902 5.89165
# Velocity P-wave (km/s) = 7.11502 9.07983 8.15680
#
# Compressibility (1/GPa) = 0.02238269
#
# Stress axis : x y z
#
# Youngs Moduli (GPa) = 111.63425 111.63500 74.79836
#
# Poissons Ratio (x) = 0.06164 0.14581
# Poissons Ratio (y) = 0.06164 0.14582
# Poissons Ratio (z) = 0.21762 0.21763
#
# Static dielectric constant tensor:
#      x y z
#    x 1.850170 0.000000 0.000000 
#    y 0.000000 1.850170 0.000000 
#    z 0.000000 0.000000 1.836790 
# 
# From -- ./inp_files/14175.got.cif
#   From: 2010.05.17/outbox.cif.g08.bks.cpg/sg141_8_cif.got.tgz:14175.got - 2010.05.20 13:30:51.
