data_PCOD9573532
_publ_section_title
;
Structure prediction by ZEFSAII (Michael W. Deem and Ramdas Pophale) SiO2 
 PCOD9573532
Probable space group: I 41/A C D
;
_chemical_formula_sum "Si O2"
_cell_formula_units_Z 240
_cell_length_a 26.420876
_cell_length_b 26.420876
_cell_length_c 17.272349
_cell_angle_alpha 90.000000
_cell_angle_beta 90.000000
_cell_angle_gamma 90.000000
_cell_volume 12057.182382
_symmetry_space_group_name_H-M "I 41/A C D"
_symmetry_group_IT_number 142
_space_group.IT_coordinate_system_code '2'
_symmetry_cell_setting 'tetragonal'
loop_
_space_group_symop_operation_xyz
x,y,z
1/4-y,3/4+x,1/4+z
-x,1/2-y,z
1/4+y,1/4-x,3/4+z
x,-y,1/2-z
1/2-x,y,-z
3/4+y,1/4+x,1/4-z
1/4-y,1/4-x,1/4-z
-x,-y,-z
3/4+y,1/4-x,3/4-z
x,1/2+y,-z
3/4-y,3/4+x,1/4-z
-x,y,1/2+z
1/2+x,-y,z
1/4-y,3/4-x,3/4+z
3/4+y,3/4+x,3/4+z
1/2+x,1/2+y,1/2+z
3/4-y,1/4+x,3/4+z
1/2-x,-y,1/2+z
3/4+y,3/4-x,1/4+z
1/2+x,1/2-y,-z
-x,1/2+y,1/2-z
1/4+y,3/4+x,3/4-z
3/4-y,3/4-x,3/4-z
1/2-x,1/2-y,1/2-z
1/4+y,3/4-x,1/4-z
1/2+x,y,1/2-z
1/4-y,1/4+x,3/4-z
1/2-x,1/2+y,z
x,1/2-y,1/2+z
3/4-y,1/4-x,1/4+z
1/4+y,1/4+x,1/4+z
loop_
_atom_site_type_symbol
_atom_site_label
_atom_site_fract_x
_atom_site_fract_y
_atom_site_fract_z
Si Si1 0.266123 0.682620 0.918874
Si Si2 0.778298 0.653319 0.271465
Si Si3 0.926614 0.279717 0.394535
Si Si4 0.821210 0.421945 0.921120
Si Si5 0.827057 0.592627 0.753127
Si Si6 0.428154 0.849144 0.042987
Si Si7 0.169841 0.752807 0.198012
Si Si8 0.724542 0.525459 0.125000
O O1 0.220656 0.664975 0.862596
O O2 0.295059 0.630835 0.938782
O O3 0.301648 0.716280 0.862980
O O4 0.250000 0.707186 0.000000
O O5 0.815455 0.611633 0.236448
O O6 0.723357 0.628041 0.253878
O O7 0.790854 0.706138 0.230153
O O8 0.943075 0.221368 0.403304
O O9 0.926139 0.308036 0.475327
O O10 0.874263 0.281100 0.349292
O O11 0.844086 0.418671 0.834432
O O12 0.783162 0.469209 0.907856
O O13 0.870187 0.625817 0.790968
O O14 0.811621 0.544571 0.804969
O O15 0.429257 0.820744 0.125000
O O16 0.470922 0.890112 0.015153
#
# Coordination Sequence:
#
# PCOD9573532 Si02
#       8
#    32  32  32  32  32  32  32  16
#     4  11  25  41  61  91 129 166 215 257 308 385
#     4  10  22  39  64  87 120 167 207 256 316 375
#     4   9  21  41  65  91 120 166 207 256 324 383
#     4  10  21  38  61  86 123 169 211 249 311 366
#     4  10  19  36  57  92 126 161 206 254 311 371
#     4  11  21  37  67  93 122 157 206 266 319 371
#     4  11  22  42  66  86 130 164 207 260 319 378
#     4  10  20  34  58  92 128 163 210 264 295 364
#
# _framework density 19.905148000000001
#
# number of rings (size 3 to 8) (size 9 to 14) (size 15 to 20)
#    0.000    1.733    3.333    1.600    1.867    4.800 
#    0.000    6.667    2.933    0.000    0.000    0.000 
#    0.000    0.000    0.000    0.000    0.000    0.000 
#
# Total GULP energy -669297.530548 kJ/mol
# GULP energy per Si atom -5577.479421 kJ/mol
# Density = 1.985984 g / cm^3
# Si number density = 19.905148 Si / 1000 Ang^3
#
#
#
# Elastic Constant Matrix: (Units=GPa)
#
#
# Indices 1 2 3 4 5 6 
#
# 1 58.8149 40.5371 34.9846 0.0000 0.0000 0.0000
# 2 40.5371 58.8146 34.9847 0.0000 0.0000 0.0000
# 3 34.9846 34.9847 111.0936 0.0000 0.0000 0.0000
# 4 0.0000 0.0000 0.0000 23.2589 0.0000 0.0000
# 5 0.0000 0.0000 0.0000 0.0000 23.2584 0.0000
# 6 0.0000 0.0000 0.0000 0.0000 0.0000 16.5251
#
#
#
# Elastic Compliance Matrix: (Units=1/GPa)
#
#
# Indices 1 2 3 4 5 6 
#
# 1 0.033823 -0.020889 -0.004073 0.000000 0.000000 0.000000
# 2 -0.020889 0.033823 -0.004073 0.000000 0.000000 0.000000
# 3 -0.004073 -0.004073 0.011567 0.000000 0.000000 0.000000
# 4 0.000000 0.000000 0.000000 0.042994 0.000000 0.000000
# 5 0.000000 0.000000 0.000000 0.000000 0.042995 0.000000
# 6 0.000000 0.000000 0.000000 0.000000 0.000000 0.060514
#
#
# Mechanical properties :
#
#
# Convention : Reuss Voigt Hill
#
# Bulk Modulus (GPa) = 47.29893 49.97067 48.63480
# Shear Modulus (GPa) = 17.19203 20.48960 18.84082
#
# Velocity S-wave (km/s) = 2.94206 3.21185 3.07991
# Velocity P-wave (km/s) = 5.94598 6.23807 6.09378
#
# Compressibility (1/GPa) = 0.02114213
#
# Stress axis : x y z
#
# Youngs Moduli (GPa) = 29.56612 29.56591 86.45547
#
# Poissons Ratio (x) = 0.61760 0.35212
# Poissons Ratio (y) = 0.61761 0.35213
# Poissons Ratio (z) = 0.12042 0.12042
#
# Static dielectric constant tensor:
#      x y z
#    x 1.721970 0.000000 0.000000 
#    y 0.000000 1.721970 0.000000 
#    z 0.000000 0.000000 1.750340 
# 
# From -- ./inp_files/7823.got.cif
#   From: 2010.05.17/outbox.cif.g08.bks.cpg/sg142_4_cif.got.tgz:7823.got - 2010.05.20 13:39:18.
