data_PCOD9573657
_publ_section_title
;
Structure prediction by ZEFSAII (Michael W. Deem and Ramdas Pophale) SiO2 
 PCOD9573657
Probable space group: I 41/A C D
;
_chemical_formula_sum "Si O2"
_cell_formula_units_Z 80
_cell_length_a 20.497875
_cell_length_b 20.497875
_cell_length_c 10.306845
_cell_angle_alpha 90.000000
_cell_angle_beta 90.000000
_cell_angle_gamma 90.000000
_cell_volume 4330.553674
_symmetry_space_group_name_H-M "I 41/A C D"
_symmetry_group_IT_number 142
_space_group.IT_coordinate_system_code '2'
_symmetry_cell_setting 'tetragonal'
loop_
_space_group_symop_operation_xyz
x,y,z
1/4-y,3/4+x,1/4+z
-x,1/2-y,z
1/4+y,1/4-x,3/4+z
x,-y,1/2-z
1/2-x,y,-z
3/4+y,1/4+x,1/4-z
1/4-y,1/4-x,1/4-z
-x,-y,-z
3/4+y,1/4-x,3/4-z
x,1/2+y,-z
3/4-y,3/4+x,1/4-z
-x,y,1/2+z
1/2+x,-y,z
1/4-y,3/4-x,3/4+z
3/4+y,3/4+x,3/4+z
1/2+x,1/2+y,1/2+z
3/4-y,1/4+x,3/4+z
1/2-x,-y,1/2+z
3/4+y,3/4-x,1/4+z
1/2+x,1/2-y,-z
-x,1/2+y,1/2-z
1/4+y,3/4+x,3/4-z
3/4-y,3/4-x,3/4-z
1/2-x,1/2-y,1/2-z
1/4+y,3/4-x,1/4-z
1/2+x,y,1/2-z
1/4-y,1/4+x,3/4-z
1/2-x,1/2+y,z
x,1/2-y,1/2+z
3/4-y,1/4-x,1/4+z
1/4+y,1/4+x,1/4+z
loop_
_atom_site_type_symbol
_atom_site_label
_atom_site_fract_x
_atom_site_fract_y
_atom_site_fract_z
Si Si1 0.295611 0.000000 0.750000
Si Si2 0.887148 0.125041 0.771902
Si Si3 0.702631 0.739370 0.875241
O O1 0.251438 0.001438 0.875000
O O2 0.341216 0.062367 0.744631
O O3 0.900756 0.150756 0.625000
O O4 0.950125 0.095892 0.844288
O O5 0.844739 0.178562 0.847161
O O6 0.750000 0.750000 0.750000
O O7 0.750000 0.731298 0.000000
#
# Coordination Sequence:
#
# PCOD9573657 Si02
#       3
#    16  32  32
#     4  10  20  38  60  92 130 170 220 280 338 396
#     4  11  23  45  67  94 143 183 222 291 349 408
#     4  12  24  45  71 102 139 183 233 286 349 416
#
# _framework density 18.473388
#
# number of rings (size 3 to 8) (size 9 to 14) (size 15 to 20)
#    0.000    0.800    6.000    2.400    2.800    2.400 
#    0.000    2.000    0.000    0.000    0.000    0.000 
#    0.000    0.000    0.000    0.000    0.000    0.000 
#
# Total GULP energy -223153.002669 kJ/mol
# GULP energy per Si atom -5578.825067 kJ/mol
# Density = 1.843134 g / cm^3
# Si number density = 18.473388 Si / 1000 Ang^3
#
#
#
# Elastic Constant Matrix: (Units=GPa)
#
#
# Indices 1 2 3 4 5 6 
#
# 1 136.4017 74.4300 76.7424 0.0000 0.0000 0.0000
# 2 74.4300 136.4017 76.7424 0.0000 0.0000 0.0000
# 3 76.7424 76.7424 160.7961 0.0000 0.0000 0.0000
# 4 0.0000 0.0000 0.0000 48.1104 0.0000 0.0000
# 5 0.0000 0.0000 0.0000 0.0000 48.1104 0.0000
# 6 0.0000 0.0000 0.0000 0.0000 0.0000 52.3174
#
#
#
# Elastic Compliance Matrix: (Units=1/GPa)
#
#
# Indices 1 2 3 4 5 6 
#
# 1 0.011702 -0.004434 -0.003469 0.000000 0.000000 0.000000
# 2 -0.004434 0.011702 -0.003469 0.000000 0.000000 0.000000
# 3 -0.003469 -0.003469 0.009530 0.000000 0.000000 0.000000
# 4 0.000000 0.000000 0.000000 0.020786 0.000000 0.000000
# 5 0.000000 0.000000 0.000000 0.000000 0.020786 0.000000
# 6 0.000000 0.000000 0.000000 0.000000 0.000000 0.019114
#
#
# Mechanical properties :
#
#
# Convention : Reuss Voigt Hill
#
# Bulk Modulus (GPa) = 98.12245 98.82548 98.47396
# Shear Modulus (GPa) = 41.74962 43.41995 42.58479
#
# Velocity S-wave (km/s) = 4.75909 4.85336 4.80645
# Velocity P-wave (km/s) = 9.13397 9.22058 9.17738
#
# Compressibility (1/GPa) = 0.01019135
#
# Stress axis : x y z
#
# Youngs Moduli (GPa) = 85.45200 85.45200 104.92785
#
# Poissons Ratio (x) = 0.37889 0.36400
# Poissons Ratio (y) = 0.37889 0.36400
# Poissons Ratio (z) = 0.29644 0.29644
#
# Static dielectric constant tensor:
#      x y z
#    x 1.667240 0.000000 0.000000 
#    y 0.000000 1.667240 0.000000 
#    z 0.000000 0.000000 1.695610 
# 
# From -- ./inp_files/1518.got.cif
#   From: 2010.05.17/outbox.cif.g08.bks.cpg/sg142_1_cif.got.tgz:1518.got - 2010.05.20 13:39:18.
