data_PCOD9573300
_publ_section_title
;
Structure prediction by ZEFSAII (Michael W. Deem and Ramdas Pophale) SiO2 
 PCOD9573300
Probable space group: I 41/A M D
;
_chemical_formula_sum "Si O2"
_cell_formula_units_Z 80
_cell_length_a 15.158471
_cell_length_b 15.158471
_cell_length_c 14.634388
_cell_angle_alpha 90.000000
_cell_angle_beta 90.000000
_cell_angle_gamma 90.000000
_cell_volume 3362.678597
_symmetry_space_group_name_H-M "I 41/A M D"
_symmetry_group_IT_number 141
_space_group.IT_coordinate_system_code '2'
_symmetry_cell_setting 'tetragonal'
loop_
_space_group_symop_operation_xyz
x,y,z
1/4-y,3/4+x,1/4+z
-x,1/2-y,z
1/4+y,1/4-x,3/4+z
x,-y,-z
-x,1/2+y,-z
1/4+y,3/4+x,1/4-z
1/4-y,1/4-x,3/4-z
-x,-y,-z
3/4+y,1/4-x,3/4-z
x,1/2+y,-z
3/4-y,3/4+x,1/4-z
-x,y,z
x,1/2-y,z
3/4-y,1/4-x,3/4+z
3/4+y,3/4+x,1/4+z
1/2+x,1/2+y,1/2+z
3/4-y,1/4+x,3/4+z
1/2-x,-y,1/2+z
3/4+y,3/4-x,1/4+z
1/2+x,1/2-y,1/2-z
1/2-x,y,1/2-z
3/4+y,1/4+x,3/4-z
3/4-y,3/4-x,1/4-z
1/2-x,1/2-y,1/2-z
1/4+y,3/4-x,1/4-z
1/2+x,y,1/2-z
1/4-y,1/4+x,3/4-z
1/2-x,1/2+y,1/2+z
1/2+x,-y,1/2+z
1/4-y,3/4-x,1/4+z
1/4+y,1/4+x,3/4+z
loop_
_atom_site_type_symbol
_atom_site_label
_atom_site_fract_x
_atom_site_fract_y
_atom_site_fract_z
Si Si1 0.777825 0.897973 0.469814
Si Si2 0.399015 0.852934 0.545514
Si Si3 0.404909 0.154909 0.125000
O O1 0.676619 0.868596 0.470747
O O2 0.831334 0.876771 0.378258
O O3 0.828103 0.849890 0.552108
O O4 0.782704 0.000000 0.500000
O O5 0.500000 0.870429 0.516930
O O6 0.394403 0.750000 0.574359
O O7 0.500000 0.149687 0.076891
#
# Coordination Sequence:
#
# PCOD9573300 Si02
#       3
#    32  32  16
#     4  12  23  40  63  95 133 171 214 267 326 392
#     4  11  24  42  66  96 132 173 217 271 330 390
#     4  11  22  36  60  92 128 167 206 258 320 383
#
# _framework density 23.790557
#
# number of rings (size 3 to 8) (size 9 to 14) (size 15 to 20)
#    0.000    0.600    4.000    4.800    0.000    5.600 
#    0.000    0.000    0.000    0.000    0.000    5.600 
#    0.000    0.000    0.000    0.000    0.000    0.000 
#
# Total GULP energy -223996.008486 kJ/mol
# GULP energy per Si atom -5599.900212 kJ/mol
# Density = 2.373641 g / cm^3
# Si number density = 23.790557 Si / 1000 Ang^3
#
#
#
# Elastic Constant Matrix: (Units=GPa)
#
#
# Indices 1 2 3 4 5 6 
#
# 1 203.6672 62.3035 43.4085 0.0000 0.0000 0.0000
# 2 62.3035 203.6672 43.4085 0.0000 0.0000 0.0000
# 3 43.4085 43.4085 81.2042 0.0000 0.0000 0.0000
# 4 0.0000 0.0000 0.0000 1.3193 0.0000 0.0000
# 5 0.0000 0.0000 0.0000 0.0000 1.3193 0.0000
# 6 0.0000 0.0000 0.0000 0.0000 0.0000 33.7991
#
#
#
# Elastic Compliance Matrix: (Units=1/GPa)
#
#
# Indices 1 2 3 4 5 6 
#
# 1 0.005814 -0.001260 -0.002435 0.000000 0.000000 0.000000
# 2 -0.001260 0.005814 -0.002435 0.000000 0.000000 0.000000
# 3 -0.002435 -0.002435 0.014918 0.000000 0.000000 0.000000
# 4 0.000000 0.000000 0.000000 0.757953 0.000000 0.000000
# 5 0.000000 0.000000 0.000000 0.000000 0.757953 0.000000
# 6 0.000000 0.000000 0.000000 0.000000 0.000000 0.029587
#
#
# Mechanical properties :
#
#
# Convention : Reuss Voigt Hill
#
# Bulk Modulus (GPa) = 69.98895 87.41995 78.70445
# Shear Modulus (GPa) = 3.14652 29.91542 16.53097
#
# Velocity S-wave (km/s) = 1.15129 3.54990 2.63887
# Velocity P-wave (km/s) = 5.59016 7.32310 6.51451
#
# Compressibility (1/GPa) = 0.01428797
#
# Stress axis : x y z
#
# Youngs Moduli (GPa) = 171.99152 171.99152 67.03499
#
# Poissons Ratio (x) = 0.21666 0.16321
# Poissons Ratio (y) = 0.21666 0.16321
# Poissons Ratio (z) = 0.41874 0.41874
#
# Static dielectric constant tensor:
#      x y z
#    x 1.919670 0.000000 0.000000 
#    y 0.000000 1.919670 0.000000 
#    z 0.000000 0.000000 1.845320 
# 
# From -- ./inp_files/9536.got.cif
#   From: 2010.05.17/outbox.cif.g08.bks.cpg/sg141_5_cif.got.tgz:9536.got - 2010.05.20 13:30:51.
