data_PCOD9573814
_publ_section_title
;
Structure prediction by ZEFSAII (Michael W. Deem and Ramdas Pophale) SiO2 
 PCOD9573814
Probable space group: I 41/A C D
;
_chemical_formula_sum "Si O2"
_cell_formula_units_Z 120
_cell_length_a 13.624348
_cell_length_b 13.624348
_cell_length_c 23.773136
_cell_angle_alpha 90.000000
_cell_angle_beta 90.000000
_cell_angle_gamma 90.000000
_cell_volume 4412.837458
_symmetry_space_group_name_H-M "I 41/A C D"
_symmetry_group_IT_number 142
_space_group.IT_coordinate_system_code '2'
_symmetry_cell_setting 'tetragonal'
loop_
_space_group_symop_operation_xyz
x,y,z
1/4-y,3/4+x,1/4+z
-x,1/2-y,z
1/4+y,1/4-x,3/4+z
x,-y,1/2-z
1/2-x,y,-z
3/4+y,1/4+x,1/4-z
1/4-y,1/4-x,1/4-z
-x,-y,-z
3/4+y,1/4-x,3/4-z
x,1/2+y,-z
3/4-y,3/4+x,1/4-z
-x,y,1/2+z
1/2+x,-y,z
1/4-y,3/4-x,3/4+z
3/4+y,3/4+x,3/4+z
1/2+x,1/2+y,1/2+z
3/4-y,1/4+x,3/4+z
1/2-x,-y,1/2+z
3/4+y,3/4-x,1/4+z
1/2+x,1/2-y,-z
-x,1/2+y,1/2-z
1/4+y,3/4+x,3/4-z
3/4-y,3/4-x,3/4-z
1/2-x,1/2-y,1/2-z
1/4+y,3/4-x,1/4-z
1/2+x,y,1/2-z
1/4-y,1/4+x,3/4-z
1/2-x,1/2+y,z
x,1/2-y,1/2+z
3/4-y,1/4-x,1/4+z
1/4+y,1/4+x,1/4+z
loop_
_atom_site_type_symbol
_atom_site_label
_atom_site_fract_x
_atom_site_fract_y
_atom_site_fract_z
Si Si1 0.306856 0.908475 0.787283
Si Si2 0.817093 0.567093 0.375000
Si Si3 0.824494 0.776014 0.549451
Si Si4 0.500000 0.250000 0.125000
Si Si5 0.022440 0.922004 0.902057
O O1 0.420849 0.887496 0.775356
O O2 0.222529 0.829348 0.796508
O O3 0.274659 0.000000 0.750000
O O4 0.317988 0.961204 0.847919
O O5 0.836251 0.657645 0.332752
O O6 0.750000 0.814313 0.500000
O O7 0.924491 0.808010 0.583073
O O8 0.748357 0.769473 0.600737
O O9 0.078862 0.828862 0.875000
#
# Coordination Sequence:
#
# PCOD9573814 Si02
#       5
#    32  16  32   8  32
#     4  10  21  41  66  97 137 184 244 307 361 460
#     4  10  23  42  64  95 142 184 242 304 368 457
#     4  10  23  43  68 107 143 191 265 311 374 472
#     4  12  20  44  84 104 158 220 240 336 408 438
#     4  11  22  42  66  96 146 190 231 315 382 446
#
# _framework density 27.193389
#
# number of rings (size 3 to 8) (size 9 to 14) (size 15 to 20)
#    0.000    1.600    4.000    0.400    0.000    2.133 
#   14.400    0.000    0.000    0.000    0.000    0.000 
#    0.000    0.000    0.000    0.000    0.000    0.000 
#
# Total GULP energy -334311.592398 kJ/mol
# GULP energy per Si atom -5571.859873 kJ/mol
# Density = 2.713150 g / cm^3
# Si number density = 27.193389 Si / 1000 Ang^3
#
#
#
# Elastic Constant Matrix: (Units=GPa)
#
#
# Indices 1 2 3 4 5 6 
#
# 1 104.3400 33.4321 13.1273 0.0000 0.0000 0.0000
# 2 33.4321 104.3400 13.1274 0.0000 0.0000 0.0000
# 3 13.1273 13.1274 91.4446 0.0000 0.0000 0.0000
# 4 0.0000 0.0000 0.0000 -6.9820 0.0000 0.0000
# 5 0.0000 0.0000 0.0000 0.0000 -6.9820 0.0000
# 6 0.0000 0.0000 0.0000 0.0000 0.0000 22.0475
#
#
#
# Elastic Compliance Matrix: (Units=1/GPa)
#
#
# Indices 1 2 3 4 5 6 
#
# 1 0.010783 -0.003320 -0.001071 0.000000 0.000000 0.000000
# 2 -0.003320 0.010783 -0.001071 0.000000 0.000000 0.000000
# 3 -0.001071 -0.001071 0.011243 0.000000 0.000000 0.000000
# 4 0.000000 0.000000 0.000000 -0.143226 0.000000 0.000000
# 5 0.000000 0.000000 0.000000 0.000000 -0.143226 0.000000
# 6 0.000000 0.000000 0.000000 0.000000 0.000000 0.045357
#
#
# Mechanical properties :
#
#
# Convention : Reuss Voigt Hill
#
# Bulk Modulus (GPa) = 45.69745 46.61090 46.15418
# Shear Modulus (GPa) = -26.30660 17.64589 -4.33035
#
# Velocity S-wave (km/s) = -3.11366 2.55012 -1.26328
# Velocity P-wave (km/s) = 1.97853 5.08415 3.85766
#
# Compressibility (1/GPa) = 0.02188306
#
# Stress axis : x y z
#
# Youngs Moduli (GPa) = 92.74158 92.74158 88.94293
#
# Poissons Ratio (x) = 0.30791 0.09528
# Poissons Ratio (y) = 0.30791 0.09528
# Poissons Ratio (z) = 0.09935 0.09935
#
# Static dielectric constant tensor:
#      x y z
#    x 2.213960 0.000000 0.000000 
#    y 0.000000 2.213960 0.000000 
#    z 0.000000 0.000000 2.366800 
# 
# From -- ./inp_files/12263.got.cif
#   From: 2010.05.17/outbox.cif.g08.bks.cpg/sg142_7_cif.got.tgz:12263.got - 2010.05.20 13:39:18.
