data_PCOD9573313
_publ_section_title
;
Structure prediction by ZEFSAII (Michael W. Deem and Ramdas Pophale) SiO2 
 PCOD9573313
Probable space group: I 41/A M D
;
_chemical_formula_sum "Si O2"
_cell_formula_units_Z 104
_cell_length_a 16.340001
_cell_length_b 16.340001
_cell_length_c 16.789111
_cell_angle_alpha 90.000000
_cell_angle_beta 90.000000
_cell_angle_gamma 90.000000
_cell_volume 4482.619314
_symmetry_space_group_name_H-M "I 41/A M D"
_symmetry_group_IT_number 141
_space_group.IT_coordinate_system_code '2'
_symmetry_cell_setting 'tetragonal'
loop_
_space_group_symop_operation_xyz
x,y,z
1/4-y,3/4+x,1/4+z
-x,1/2-y,z
1/4+y,1/4-x,3/4+z
x,-y,-z
-x,1/2+y,-z
1/4+y,3/4+x,1/4-z
1/4-y,1/4-x,3/4-z
-x,-y,-z
3/4+y,1/4-x,3/4-z
x,1/2+y,-z
3/4-y,3/4+x,1/4-z
-x,y,z
x,1/2-y,z
3/4-y,1/4-x,3/4+z
3/4+y,3/4+x,1/4+z
1/2+x,1/2+y,1/2+z
3/4-y,1/4+x,3/4+z
1/2-x,-y,1/2+z
3/4+y,3/4-x,1/4+z
1/2+x,1/2-y,1/2-z
1/2-x,y,1/2-z
3/4+y,1/4+x,3/4-z
3/4-y,3/4-x,1/4-z
1/2-x,1/2-y,1/2-z
1/4+y,3/4-x,1/4-z
1/2+x,y,1/2-z
1/4-y,1/4+x,3/4-z
1/2-x,1/2+y,1/2+z
1/2+x,-y,1/2+z
1/4-y,3/4-x,1/4+z
1/4+y,1/4+x,3/4+z
loop_
_atom_site_type_symbol
_atom_site_label
_atom_site_fract_x
_atom_site_fract_y
_atom_site_fract_z
Si Si1 0.821168 0.428833 0.875000
Si Si2 0.500000 0.000000 0.000000
Si Si3 0.348359 0.596246 0.704153
Si Si4 0.500000 0.656825 0.606240
Si Si5 0.096936 0.653065 0.625000
Si Si6 0.829171 0.250000 0.802348
O O1 0.813522 0.506727 0.815761
O O2 0.820917 0.335242 0.846540
O O3 0.574623 0.960219 0.054983
O O4 0.421716 0.612778 0.643258
O O5 0.381364 0.604215 0.795193
O O6 0.500000 0.750000 0.635710
O O7 0.500000 0.653114 0.510900
O O8 0.109639 0.750000 0.645744
O O9 0.750000 0.250000 0.750000
#
# Coordination Sequence:
#
# PCOD9573313 Si02
#       6
#    16   8  32  16  16  16
#     4  12  30  54  85 116 173 221 285 356 406 510
#     4  12  28  40  72 118 156 208 262 310 424 494
#     4  12  26  50  78 119 165 216 272 335 419 492
#     4  12  24  51  85 112 161 214 277 347 409 507
#     4  11  22  45  83 122 161 212 270 344 416 518
#     4  12  28  54  81 125 154 228 291 335 437 492
#
# _framework density 23.200721000000001
#
# number of rings (size 3 to 8) (size 9 to 14) (size 15 to 20)
#    0.000    0.154    7.692    0.000    4.308    3.692 
#    0.000    0.000    0.000    0.000    0.000    0.000 
#    0.000    0.000    0.000    0.000    0.000    0.000 
#
# Total GULP energy -289568.737143 kJ/mol
# GULP energy per Si atom -5568.629560 kJ/mol
# Density = 2.314792 g / cm^3
# Si number density = 23.200721 Si / 1000 Ang^3
#
#
#
# Elastic Constant Matrix: (Units=GPa)
#
#
# Indices 1 2 3 4 5 6 
#
# 1 183.1823 67.9217 58.9843 0.0000 0.0000 0.0000
# 2 67.9217 183.1809 58.9849 0.0000 0.0000 0.0000
# 3 58.9843 58.9849 105.0931 0.0000 0.0000 0.0000
# 4 0.0000 0.0000 0.0000 46.6746 0.0000 0.0000
# 5 0.0000 0.0000 0.0000 0.0000 46.6733 0.0000
# 6 0.0000 0.0000 0.0000 0.0000 0.0000 48.7625
#
#
#
# Elastic Compliance Matrix: (Units=1/GPa)
#
#
# Indices 1 2 3 4 5 6 
#
# 1 0.007042 -0.001634 -0.003036 0.000000 0.000000 0.000000
# 2 -0.001634 0.007042 -0.003036 0.000000 0.000000 0.000000
# 3 -0.003036 -0.003036 0.012923 0.000000 0.000000 0.000000
# 4 0.000000 0.000000 0.000000 0.021425 0.000000 0.000000
# 5 0.000000 0.000000 0.000000 0.000000 0.021426 0.000000
# 6 0.000000 0.000000 0.000000 0.000000 0.000000 0.020508
#
#
# Mechanical properties :
#
#
# Convention : Reuss Voigt Hill
#
# Bulk Modulus (GPa) = 86.22479 93.69310 89.95894
# Shear Modulus (GPa) = 45.60324 47.45978 46.53151
#
# Velocity S-wave (km/s) = 4.43831 4.52776 4.48326
# Velocity P-wave (km/s) = 7.96933 8.23441 8.10295
#
# Compressibility (1/GPa) = 0.01159759
#
# Stress axis : x y z
#
# Youngs Moduli (GPa) = 141.99993 141.99796 77.38194
#
# Poissons Ratio (x) = 0.23199 0.23490
# Poissons Ratio (y) = 0.23199 0.23491
# Poissons Ratio (z) = 0.43105 0.43106
#
# Static dielectric constant tensor:
#      x y z
#    x -3.127970 0.000010 0.000000 
#    y 0.000010 -3.201500 0.000000 
#    z 0.000000 0.000000 1.808870 
# 
# From -- ./inp_files/7881.got.cif
#   From: 2010.05.17/outbox.cif.g08.bks.cpg/sg141_4_cif.got.tgz:7881.got - 2010.05.20 13:30:51.
