data_PCOD9573484
_publ_section_title
;
Structure prediction by ZEFSAII (Michael W. Deem and Ramdas Pophale) SiO2 
 PCOD9573484
Probable space group: I 41/A C D
;
_chemical_formula_sum "Si O2"
_cell_formula_units_Z 144
_cell_length_a 19.810010
_cell_length_b 19.810010
_cell_length_c 16.537061
_cell_angle_alpha 90.000000
_cell_angle_beta 90.000000
_cell_angle_gamma 90.000000
_cell_volume 6489.746276
_symmetry_space_group_name_H-M "I 41/A C D"
_symmetry_group_IT_number 142
_space_group.IT_coordinate_system_code '2'
_symmetry_cell_setting 'tetragonal'
loop_
_space_group_symop_operation_xyz
x,y,z
1/4-y,3/4+x,1/4+z
-x,1/2-y,z
1/4+y,1/4-x,3/4+z
x,-y,1/2-z
1/2-x,y,-z
3/4+y,1/4+x,1/4-z
1/4-y,1/4-x,1/4-z
-x,-y,-z
3/4+y,1/4-x,3/4-z
x,1/2+y,-z
3/4-y,3/4+x,1/4-z
-x,y,1/2+z
1/2+x,-y,z
1/4-y,3/4-x,3/4+z
3/4+y,3/4+x,3/4+z
1/2+x,1/2+y,1/2+z
3/4-y,1/4+x,3/4+z
1/2-x,-y,1/2+z
3/4+y,3/4-x,1/4+z
1/2+x,1/2-y,-z
-x,1/2+y,1/2-z
1/4+y,3/4+x,3/4-z
3/4-y,3/4-x,3/4-z
1/2-x,1/2-y,1/2-z
1/4+y,3/4-x,1/4-z
1/2+x,y,1/2-z
1/4-y,1/4+x,3/4-z
1/2-x,1/2+y,z
x,1/2-y,1/2+z
3/4-y,1/4-x,1/4+z
1/4+y,1/4+x,1/4+z
loop_
_atom_site_type_symbol
_atom_site_label
_atom_site_fract_x
_atom_site_fract_y
_atom_site_fract_z
Si Si1 0.914737 0.164737 0.125000
Si Si2 0.854152 0.104152 0.625000
Si Si3 0.000000 0.250000 0.251084
Si Si4 0.268886 0.833100 0.411687
Si Si5 0.114413 0.158347 0.300358
Si Si6 0.045740 0.487433 0.080395
O O1 0.939943 0.216247 0.053924
O O2 0.923238 0.087581 0.090869
O O3 0.775870 0.118151 0.642238
O O4 0.885873 0.136862 0.544719
O O5 0.063575 0.220587 0.300314
O O6 0.250000 0.859164 0.500000
O O7 0.347264 0.833764 0.398540
O O8 0.240497 0.758711 0.402038
O O9 0.191907 0.164003 0.329962
O O10 0.000000 0.500000 0.000000
#
# Coordination Sequence:
#
# PCOD9573484 Si02
#       6
#    16  16  16  32  32  32
#     4  11  22  39  72  97 136 187 240 292 358 446
#     4  10  18  40  62  87 120 175 224 272 356 422
#     4  11  20  38  67  98 128 191 241 276 364 437
#     4  10  22  40  63  92 130 172 223 281 348 422
#     4  11  23  38  67  94 135 179 230 295 354 435
#     4  12  23  43  66 102 142 178 236 302 357 431
#
# _framework density 22.188849999999999
#
# number of rings (size 3 to 8) (size 9 to 14) (size 15 to 20)
#    0.000    1.111    4.444    4.000    0.000    2.667 
#    4.000    0.000    0.000    0.000    0.000    0.000 
#    0.000    0.000    0.000    0.000    0.000    0.000 
#
# Total GULP energy -400835.021782 kJ/mol
# GULP energy per Si atom -5567.153080 kJ/mol
# Density = 2.213835 g / cm^3
# Si number density = 22.188850 Si / 1000 Ang^3
#
#
#
# Elastic Constant Matrix: (Units=GPa)
#
#
# Indices 1 2 3 4 5 6 
#
# 1 141.6939 73.6614 30.4126 0.0000 0.0000 0.0000
# 2 73.6614 141.6939 30.4126 0.0000 0.0000 0.0000
# 3 30.4126 30.4126 30.1853 0.0000 0.0000 0.0000
# 4 0.0000 0.0000 0.0000 27.6964 0.0000 0.0000
# 5 0.0000 0.0000 0.0000 0.0000 27.6964 0.0000
# 6 0.0000 0.0000 0.0000 0.0000 0.0000 33.7488
#
#
#
# Elastic Compliance Matrix: (Units=1/GPa)
#
#
# Indices 1 2 3 4 5 6 
#
# 1 0.010595 -0.004104 -0.006539 0.000000 0.000000 0.000000
# 2 -0.004104 0.010595 -0.006539 0.000000 0.000000 0.000000
# 3 -0.006539 -0.006539 0.046306 0.000000 0.000000 0.000000
# 4 0.000000 0.000000 0.000000 0.036106 0.000000 0.000000
# 5 0.000000 0.000000 0.000000 0.000000 0.036106 0.000000
# 6 0.000000 0.000000 0.000000 0.000000 0.000000 0.029631
#
#
# Mechanical properties :
#
#
# Convention : Reuss Voigt Hill
#
# Bulk Modulus (GPa) = 30.18463 64.72733 47.45598
# Shear Modulus (GPa) = 23.28330 29.76743 26.52536
#
# Velocity S-wave (km/s) = 3.24284 3.66669 3.46126
# Velocity P-wave (km/s) = 5.25875 6.86736 6.11617
#
# Compressibility (1/GPa) = 0.03312944
#
# Stress axis : x y z
#
# Youngs Moduli (GPa) = 94.38717 94.38717 21.59555
#
# Poissons Ratio (x) = 0.38738 0.14122
# Poissons Ratio (y) = 0.38738 0.14122
# Poissons Ratio (z) = 0.61723 0.61723
#
# Static dielectric constant tensor:
#      x y z
#    x 1.915870 0.000000 0.000000 
#    y 0.000000 1.915870 0.000000 
#    z 0.000000 0.000000 1.968540 
# 
# From -- ./inp_files/7317.got.cif
#   From: 2010.05.17/outbox.cif.g08.bks.cpg/sg142_4_cif.got.tgz:7317.got - 2010.05.20 13:39:18.
