data_PCOD9573435
_publ_section_title
;
Structure prediction by ZEFSAII (Michael W. Deem and Ramdas Pophale) SiO2 
 PCOD9573435
Probable space group: I 41/A C D
;
_chemical_formula_sum "Si O2"
_cell_formula_units_Z 136
_cell_length_a 22.609622
_cell_length_b 22.609622
_cell_length_c 11.499155
_cell_angle_alpha 90.000000
_cell_angle_beta 90.000000
_cell_angle_gamma 90.000000
_cell_volume 5878.310621
_symmetry_space_group_name_H-M "I 41/A C D"
_symmetry_group_IT_number 142
_space_group.IT_coordinate_system_code '2'
_symmetry_cell_setting 'tetragonal'
loop_
_space_group_symop_operation_xyz
x,y,z
1/4-y,3/4+x,1/4+z
-x,1/2-y,z
1/4+y,1/4-x,3/4+z
x,-y,1/2-z
1/2-x,y,-z
3/4+y,1/4+x,1/4-z
1/4-y,1/4-x,1/4-z
-x,-y,-z
3/4+y,1/4-x,3/4-z
x,1/2+y,-z
3/4-y,3/4+x,1/4-z
-x,y,1/2+z
1/2+x,-y,z
1/4-y,3/4-x,3/4+z
3/4+y,3/4+x,3/4+z
1/2+x,1/2+y,1/2+z
3/4-y,1/4+x,3/4+z
1/2-x,-y,1/2+z
3/4+y,3/4-x,1/4+z
1/2+x,1/2-y,-z
-x,1/2+y,1/2-z
1/4+y,3/4+x,3/4-z
3/4-y,3/4-x,3/4-z
1/2-x,1/2-y,1/2-z
1/4+y,3/4-x,1/4-z
1/2+x,y,1/2-z
1/4-y,1/4+x,3/4-z
1/2-x,1/2+y,z
x,1/2-y,1/2+z
3/4-y,1/4-x,1/4+z
1/4+y,1/4+x,1/4+z
loop_
_atom_site_type_symbol
_atom_site_label
_atom_site_fract_x
_atom_site_fract_y
_atom_site_fract_z
Si Si1 0.993085 0.838861 0.571879
Si Si2 0.455786 0.438298 0.693808
Si Si3 0.750000 0.593832 0.500000
Si Si4 0.000000 0.250000 0.625000
Si Si5 0.263708 0.884751 0.754037
Si Si6 0.138750 0.611251 0.375000
O O1 0.052549 0.811208 0.626700
O O2 0.992971 0.903556 0.624432
O O3 0.998599 0.812325 0.443515
O O4 0.475407 0.500000 0.750000
O O5 0.411248 0.455989 0.590318
O O6 0.419251 0.401239 0.793755
O O7 0.735117 0.629296 0.616982
O O8 0.695154 0.549891 0.478094
O O9 0.195756 0.891367 0.791907
#
# Coordination Sequence:
#
# PCOD9573435 Si02
#       6
#    32  32  16   8  32  16
#     4   9  20  41  69  95 120 166 225 276 331 396
#     4  10  21  34  60  92 129 168 216 271 342 408
#     4  10  18  26  48  72 118 168 224 276 318 384
#     4   8  18  38  72 100 120 164 234 296 320 380
#     4  10  18  29  47  79 119 171 221 267 320 405
#     4  10  18  33  48  80 128 170 214 256 329 407
#
# _framework density 23.135898000000001
#
# number of rings (size 3 to 8) (size 9 to 14) (size 15 to 20)
#    0.000    2.588    2.353    1.412    1.647    5.647 
#    0.000    0.000    2.588   16.941    0.000    0.000 
#    0.000    0.000    0.000    0.000    0.000    0.000 
#
# Total GULP energy -379222.698752 kJ/mol
# GULP energy per Si atom -5576.804393 kJ/mol
# Density = 2.308324 g / cm^3
# Si number density = 23.135898 Si / 1000 Ang^3
#
#
#
# Elastic Constant Matrix: (Units=GPa)
#
#
# Indices 1 2 3 4 5 6 
#
# 1 170.5003 -98.8810 32.3733 0.0000 0.0000 0.0000
# 2 -98.8810 170.4962 32.3814 0.0000 0.0000 0.0000
# 3 32.3733 32.3814 147.9488 0.0000 0.0000 0.0000
# 4 0.0000 0.0000 0.0000 14.0973 0.0000 0.0000
# 5 0.0000 0.0000 0.0000 0.0000 14.0965 0.0000
# 6 0.0000 0.0000 0.0000 0.0000 0.0000 17.2966
#
#
#
# Elastic Compliance Matrix: (Units=1/GPa)
#
#
# Indices 1 2 3 4 5 6 
#
# 1 0.010560 0.006848 -0.003809 0.000000 0.000000 0.000000
# 2 0.006848 0.010560 -0.003810 0.000000 0.000000 0.000000
# 3 -0.003809 -0.003810 0.008426 0.000000 0.000000 0.000000
# 4 0.000000 0.000000 0.000000 0.070935 0.000000 0.000000
# 5 0.000000 0.000000 0.000000 0.000000 0.070940 0.000000
# 6 0.000000 0.000000 0.000000 0.000000 0.000000 0.057815
#
#
# Mechanical properties :
#
#
# Convention : Reuss Voigt Hill
#
# Bulk Modulus (GPa) = 35.70966 46.74363 41.22665
# Shear Modulus (GPa) = 20.82349 43.96952 32.39650
#
# Velocity S-wave (km/s) = 3.00334 4.36419 3.74608
# Velocity P-wave (km/s) = 5.24357 6.75594 6.04722
#
# Compressibility (1/GPa) = 0.02800362
#
# Stress axis : x y z
#
# Youngs Moduli (GPa) = 94.69988 94.69548 118.67391
#
# Poissons Ratio (x) = -0.64844 0.45207
# Poissons Ratio (y) = -0.64847 0.45211
# Poissons Ratio (z) = 0.36075 0.36076
#
# Static dielectric constant tensor:
#      x y z
#    x 1.668120 0.000000 0.000000 
#    y 0.000000 1.668120 0.000000 
#    z 0.000000 0.000000 1.798690 
# 
# From -- ./inp_files/3675.got.cif
#   From: 2010.05.17/outbox.cif.g08.bks.cpg/sg142_2_cif.got.tgz:3675.got - 2010.05.20 13:39:18.
