data_PCOD9573392
_publ_section_title
;
Structure prediction by ZEFSAII (Michael W. Deem and Ramdas Pophale) SiO2 
 PCOD9573392
Probable space group: I 41/A M D
;
_chemical_formula_sum "Si O2"
_cell_formula_units_Z 80
_cell_length_a 27.000000
_cell_length_b 27.000000
_cell_length_c 12.000000
_cell_angle_alpha 90.000000
_cell_angle_beta 90.000000
_cell_angle_gamma 90.000000
_cell_volume 8748.000000
_symmetry_space_group_name_H-M "I 41/A M D"
_symmetry_group_IT_number 141
_space_group.IT_coordinate_system_code '2'
_symmetry_cell_setting 'tetragonal'
loop_
_space_group_symop_operation_xyz
x,y,z
1/4-y,3/4+x,1/4+z
-x,1/2-y,z
1/4+y,1/4-x,3/4+z
x,-y,-z
-x,1/2+y,-z
1/4+y,3/4+x,1/4-z
1/4-y,1/4-x,3/4-z
-x,-y,-z
3/4+y,1/4-x,3/4-z
x,1/2+y,-z
3/4-y,3/4+x,1/4-z
-x,y,z
x,1/2-y,z
3/4-y,1/4-x,3/4+z
3/4+y,3/4+x,1/4+z
1/2+x,1/2+y,1/2+z
3/4-y,1/4+x,3/4+z
1/2-x,-y,1/2+z
3/4+y,3/4-x,1/4+z
1/2+x,1/2-y,1/2-z
1/2-x,y,1/2-z
3/4+y,1/4+x,3/4-z
3/4-y,3/4-x,1/4-z
1/2-x,1/2-y,1/2-z
1/4+y,3/4-x,1/4-z
1/2+x,y,1/2-z
1/4-y,1/4+x,3/4-z
1/2-x,1/2+y,1/2+z
1/2+x,-y,1/2+z
1/4-y,3/4-x,1/4+z
1/4+y,1/4+x,3/4+z
loop_
_atom_site_type_symbol
_atom_site_label
_atom_site_fract_x
_atom_site_fract_y
_atom_site_fract_z
Si Si1 0.559389 0.808030 0.749255
Si Si2 0.619831 0.632155 0.567894
Si Si3 0.848659 0.518842 0.123716
Si Si4 0.176129 0.440155 0.503336
Si Si5 0.324512 0.809854 0.373564
O O1 0.500000 0.812119 0.741340
O O2 0.571964 0.750000 0.736316
O O3 0.573484 0.823484 0.875000
O O4 0.585570 0.839699 0.655778
O O5 0.661284 0.604834 0.647828
O O6 0.643402 0.671624 0.480456
O O7 0.584429 0.597399 0.489937
O O8 0.822521 0.572521 0.125000
O O9 0.822076 0.482688 0.210309
O O10 0.907577 0.524499 0.141166
O O11 0.839760 0.500000 0.000000
O O12 0.167941 0.500000 0.500000
O O13 0.170523 0.420523 0.375000
O O14 0.320545 0.750000 0.367849
#
# Coordination Sequence:
#
# PCOD9573392 Si02
#       5
#    32  32  32  32  32
#     4   9  18  34  58  86 117 159 209 259 316 379
#     4  11  21  40  58  90 127 163 213 264 321 383
#     4  12  21  41  62  90 123 159 209 261 315 380
#     4  12  24  39  65  95 125 165 212 269 329 386
#     4  11  23  39  62  88 125 170 210 263 322 383
#
# _framework density 9.1449470000000002
#
# number of rings (size 3 to 8) (size 9 to 14) (size 15 to 20)
#    0.000    1.000    4.000    6.000    0.000    0.400 
#    0.000    0.000    0.000   18.000    0.000    0.000 
#    0.000    0.000    0.000    0.000    0.000    0.000 
#
# Total GULP energy -446174.322464 kJ/mol
# GULP energy per Si atom -5577.179031 kJ/mol
# Density = 0.912413 g / cm^3
# Si number density = 9.144947 Si / 1000 Ang^3
#
#
#
# Elastic Constant Matrix: (Units=GPa)
#
#
# Indices 1 2 3 4 5 6 
#
# 1 98.2091 31.3066 43.2073 0.0000 0.0000 0.0000
# 2 31.3066 98.2091 43.2073 0.0000 0.0000 0.0000
# 3 43.2073 43.2073 143.9157 0.0000 0.0000 0.0000
# 4 0.0000 0.0000 0.0000 34.8973 0.0000 0.0000
# 5 0.0000 0.0000 0.0000 0.0000 34.8973 0.0000
# 6 0.0000 0.0000 0.0000 0.0000 0.0000 33.6690
#
#
#
# Elastic Compliance Matrix: (Units=1/GPa)
#
#
# Indices 1 2 3 4 5 6 
#
# 1 0.012301 -0.002646 -0.002899 0.000000 0.000000 0.000000
# 2 -0.002646 0.012301 -0.002899 0.000000 0.000000 0.000000
# 3 -0.002899 -0.002899 0.008689 0.000000 0.000000 0.000000
# 4 0.000000 0.000000 0.000000 0.028656 0.000000 0.000000
# 5 0.000000 0.000000 0.000000 0.000000 0.028656 0.000000
# 6 0.000000 0.000000 0.000000 0.000000 0.000000 0.029701
#
#
# Mechanical properties :
#
#
# Convention : Reuss Voigt Hill
#
# Bulk Modulus (GPa) = 60.95915 63.97514 62.46714
# Shear Modulus (GPa) = 35.04878 35.53356 35.29117
#
# Velocity S-wave (km/s) = 4.38230 4.41250 4.39742
# Velocity P-wave (km/s) = 7.68165 7.81118 7.74669
#
# Compressibility (1/GPa) = 0.01640443
#
# Stress axis : x y z
#
# Youngs Moduli (GPa) = 81.29332 81.29332 115.08722
#
# Poissons Ratio (x) = 0.21510 0.33361
# Poissons Ratio (y) = 0.21510 0.33361
# Poissons Ratio (z) = 0.23565 0.23565
#
# Static dielectric constant tensor:
#      x y z
#    x 1.647610 0.000000 0.000000 
#    y 0.000000 1.647610 0.000000 
#    z 0.000000 0.000000 1.651600 
# 
# From -- ./inp_files/4830.got.cif
#   From: 2010.05.17/outbox.ucp.g08.bks.cvg/sg141_3_cif.got.tgz:4830.got - 2010.06.11 11:43:24.
