data_PCOD9573153
_publ_section_title
;
Structure prediction by ZEFSAII (Michael W. Deem and Ramdas Pophale) SiO2 
 PCOD9573153
Probable space group: I 41/A M D
;
_chemical_formula_sum "Si O2"
_cell_formula_units_Z 88
_cell_length_a 16.989178
_cell_length_b 16.989178
_cell_length_c 14.135317
_cell_angle_alpha 90.000000
_cell_angle_beta 90.000000
_cell_angle_gamma 90.000000
_cell_volume 4079.907207
_symmetry_space_group_name_H-M "I 41/A M D"
_symmetry_group_IT_number 141
_space_group.IT_coordinate_system_code '2'
_symmetry_cell_setting 'tetragonal'
loop_
_space_group_symop_operation_xyz
x,y,z
1/4-y,3/4+x,1/4+z
-x,1/2-y,z
1/4+y,1/4-x,3/4+z
x,-y,-z
-x,1/2+y,-z
1/4+y,3/4+x,1/4-z
1/4-y,1/4-x,3/4-z
-x,-y,-z
3/4+y,1/4-x,3/4-z
x,1/2+y,-z
3/4-y,3/4+x,1/4-z
-x,y,z
x,1/2-y,z
3/4-y,1/4-x,3/4+z
3/4+y,3/4+x,1/4+z
1/2+x,1/2+y,1/2+z
3/4-y,1/4+x,3/4+z
1/2-x,-y,1/2+z
3/4+y,3/4-x,1/4+z
1/2+x,1/2-y,1/2-z
1/2-x,y,1/2-z
3/4+y,1/4+x,3/4-z
3/4-y,3/4-x,1/4-z
1/2-x,1/2-y,1/2-z
1/4+y,3/4-x,1/4-z
1/2+x,y,1/2-z
1/4-y,1/4+x,3/4-z
1/2-x,1/2+y,1/2+z
1/2+x,-y,1/2+z
1/4-y,3/4-x,1/4+z
1/4+y,1/4+x,3/4+z
loop_
_atom_site_type_symbol
_atom_site_label
_atom_site_fract_x
_atom_site_fract_y
_atom_site_fract_z
Si Si1 0.000000 0.750000 0.336613
Si Si2 0.666246 0.250000 0.343858
Si Si3 0.500000 0.368278 0.578873
Si Si4 0.337154 0.915721 0.987437
Si Si5 0.500000 0.991401 0.708594
O O1 0.000000 0.675973 0.400085
O O2 0.919589 0.750000 0.274795
O O3 0.682321 0.168822 0.291234
O O4 0.701355 0.250000 0.449213
O O5 0.576385 0.326385 0.625000
O O6 0.500000 0.457681 0.612022
O O7 0.347429 0.902572 0.875000
O O8 0.302987 0.834031 0.030301
O O9 0.291288 0.000000 0.000000
#
# Coordination Sequence:
#
# PCOD9573153 Si02
#       5
#     8  16  16  32  16
#     4  10  21  42  69 104 130 194 235 290 354 451
#     4  12  23  46  71  94 146 185 247 295 361 441
#     4   9  18  38  68  90 137 181 224 286 350 425
#     4  12  26  46  71 103 145 190 241 309 369 439
#     4  12  24  44  71 107 140 192 240 298 382 428
#
# _framework density 21.569118
#
# number of rings (size 3 to 8) (size 9 to 14) (size 15 to 20)
#    0.000    0.909    7.273    2.727    0.000    1.455 
#    0.000    5.455    0.000    0.000    0.000    0.000 
#    0.000    0.000    0.000    0.000    0.000    0.000 
#
# Total GULP energy -245177.899987 kJ/mol
# GULP energy per Si atom -5572.225000 kJ/mol
# Density = 2.152003 g / cm^3
# Si number density = 21.569118 Si / 1000 Ang^3
#
#
#
# Elastic Constant Matrix: (Units=GPa)
#
#
# Indices 1 2 3 4 5 6 
#
# 1 113.3559 43.7016 -6.1193 0.0000 0.0000 0.0000
# 2 43.7016 113.3548 -6.1196 0.0000 0.0000 0.0000
# 3 -6.1193 -6.1196 32.2311 0.0000 0.0000 0.0000
# 4 0.0000 0.0000 0.0000 -380.7922 0.0000 0.0000
# 5 0.0000 0.0000 0.0000 0.0000 -380.8892 0.0000
# 6 0.0000 0.0000 0.0000 0.0000 0.0000 -487.0376
#
#
#
# Elastic Compliance Matrix: (Units=1/GPa)
#
#
# Indices 1 2 3 4 5 6 
#
# 1 0.010410 -0.003947 0.001227 0.000000 0.000000 0.000000
# 2 -0.003947 0.010410 0.001227 0.000000 0.000000 0.000000
# 3 0.001227 0.001227 0.031492 0.000000 0.000000 0.000000
# 4 0.000000 0.000000 0.000000 -0.002626 0.000000 0.000000
# 5 0.000000 0.000000 0.000000 0.000000 -0.002625 0.000000
# 6 0.000000 0.000000 0.000000 0.000000 0.000000 -0.002053
#
#
# Mechanical properties :
#
#
# Convention : Reuss Voigt Hill
#
# Bulk Modulus (GPa) = 20.27354 35.76303 28.01829
# Shear Modulus (GPa) = 77.59849 -234.57852 -78.49001
#
# Velocity S-wave (km/s) = 6.00456 -10.43996 -6.03896
# Velocity P-wave (km/s) = 7.58240 11.34491 5.96717
#
# Compressibility (1/GPa) = 0.04932538
#
# Stress axis : x y z
#
# Youngs Moduli (GPa) = 96.06440 96.06341 31.75427
#
# Poissons Ratio (x) = 0.37916 -0.03896
# Poissons Ratio (y) = 0.37917 -0.03897
# Poissons Ratio (z) = -0.11787 -0.11788
#
# Static dielectric constant tensor:
#      x y z
#    x 1.758370 0.000000 0.000000 
#    y 0.000000 1.758380 0.000000 
#    z 0.000000 0.000000 1.775710 
# 
# From -- ./inp_files/5877.got.cif
#   From: 2010.05.17/outbox.cif.g08.bks.cpg/sg141_3_cif.got.tgz:5877.got - 2010.05.20 13:30:51.
