data_PCOD9573298
_publ_section_title
;
Structure prediction by ZEFSAII (Michael W. Deem and Ramdas Pophale) SiO2 
 PCOD9573298
Probable space group: I 41/A M D
;
_chemical_formula_sum "Si O2"
_cell_formula_units_Z 192
_cell_length_a 18.561586
_cell_length_b 18.561586
_cell_length_c 31.879441
_cell_angle_alpha 90.000000
_cell_angle_beta 90.000000
_cell_angle_gamma 90.000000
_cell_volume 10983.502704
_symmetry_space_group_name_H-M "I 41/A M D"
_symmetry_group_IT_number 141
_space_group.IT_coordinate_system_code '2'
_symmetry_cell_setting 'tetragonal'
loop_
_space_group_symop_operation_xyz
x,y,z
1/4-y,3/4+x,1/4+z
-x,1/2-y,z
1/4+y,1/4-x,3/4+z
x,-y,-z
-x,1/2+y,-z
1/4+y,3/4+x,1/4-z
1/4-y,1/4-x,3/4-z
-x,-y,-z
3/4+y,1/4-x,3/4-z
x,1/2+y,-z
3/4-y,3/4+x,1/4-z
-x,y,z
x,1/2-y,z
3/4-y,1/4-x,3/4+z
3/4+y,3/4+x,1/4+z
1/2+x,1/2+y,1/2+z
3/4-y,1/4+x,3/4+z
1/2-x,-y,1/2+z
3/4+y,3/4-x,1/4+z
1/2+x,1/2-y,1/2-z
1/2-x,y,1/2-z
3/4+y,1/4+x,3/4-z
3/4-y,3/4-x,1/4-z
1/2-x,1/2-y,1/2-z
1/4+y,3/4-x,1/4-z
1/2+x,y,1/2-z
1/4-y,1/4+x,3/4-z
1/2-x,1/2+y,1/2+z
1/2+x,-y,1/2+z
1/4-y,3/4-x,1/4+z
1/4+y,1/4+x,3/4+z
loop_
_atom_site_type_symbol
_atom_site_label
_atom_site_fract_x
_atom_site_fract_y
_atom_site_fract_z
Si Si1 0.416308 0.663269 0.827149
Si Si2 0.086539 0.431825 0.746890
Si Si3 0.664716 0.913919 0.997542
Si Si4 0.329863 0.833795 0.409455
Si Si5 0.917270 0.836378 0.918441
Si Si6 0.657412 0.164899 0.917904
O O1 0.500000 0.640559 0.820638
O O2 0.414794 0.750000 0.824615
O O3 0.394629 0.644629 0.875000
O O4 0.365948 0.629392 0.791995
O O5 0.131512 0.504894 0.743472
O O6 0.100087 0.397139 0.792594
O O7 0.105484 0.380346 0.708459
O O8 0.000000 0.447976 0.745722
O O9 0.636103 0.879964 0.041159
O O10 0.664997 0.000000 0.000000
O O11 0.366394 0.883606 0.375000
O O12 0.346306 0.750000 0.400493
O O13 0.243236 0.841790 0.410618
O O14 0.917106 0.750000 0.915306
O O15 0.890908 0.868515 0.874551
O O16 0.000000 0.860529 0.924165
O O17 0.641869 0.250000 0.924945
#
# Coordination Sequence:
#
# PCOD9573298 Si02
#       6
#    32  32  32  32  32  32
#     4   9  19  37  59  80 104 137 174 212 260 314
#     4   9  19  36  54  73 104 141 171 207 263 320
#     4  11  22  34  52  79 108 139 176 215 253 300
#     4   9  18  32  50  71  97 132 169 207 254 309
#     4   9  18  33  55  80 100 126 172 222 260 301
#     4   9  19  36  52  69 102 141 170 203 258 320
#
# _framework density 17.480763
#
# number of rings (size 3 to 8) (size 9 to 14) (size 15 to 20)
#    0.000    2.667    0.000    3.000    0.000    5.833 
#    0.000    5.833    0.000    3.500    0.000    0.000 
#    0.000    0.000    0.000    0.000    0.000    0.000 
#
# Total GULP energy -535323.686270 kJ/mol
# GULP energy per Si atom -5576.288399 kJ/mol
# Density = 1.744098 g / cm^3
# Si number density = 17.480763 Si / 1000 Ang^3
#
#
#
# Elastic Constant Matrix: (Units=GPa)
#
#
# Indices 1 2 3 4 5 6 
#
# 1 45.5476 31.4282 64.3023 0.0000 0.0000 0.0000
# 2 31.4282 45.5476 64.3023 0.0000 0.0000 0.0000
# 3 64.3023 64.3023 174.2563 0.0000 0.0000 0.0000
# 4 0.0000 0.0000 0.0000 6.1539 0.0000 0.0000
# 5 0.0000 0.0000 0.0000 0.0000 6.1539 0.0000
# 6 0.0000 0.0000 0.0000 0.0000 0.0000 19.8823
#
#
#
# Elastic Compliance Matrix: (Units=1/GPa)
#
#
# Indices 1 2 3 4 5 6 
#
# 1 0.052350 -0.018474 -0.012501 0.000000 0.000000 0.000000
# 2 -0.018474 0.052350 -0.012501 0.000000 0.000000 0.000000
# 3 -0.012501 -0.012501 0.014964 0.000000 0.000000 0.000000
# 4 0.000000 0.000000 0.000000 0.162498 0.000000 0.000000
# 5 0.000000 0.000000 0.000000 0.000000 0.162498 0.000000
# 6 0.000000 0.000000 0.000000 0.000000 0.000000 0.050296
#
#
# Mechanical properties :
#
#
# Convention : Reuss Voigt Hill
#
# Bulk Modulus (GPa) = 30.56803 65.04636 47.80719
# Shear Modulus (GPa) = 8.43438 13.45929 10.94684
#
# Velocity S-wave (km/s) = 2.19896 2.77781 2.50516
# Velocity P-wave (km/s) = 4.89611 6.89778 5.98127
#
# Compressibility (1/GPa) = 0.03271392
#
# Stress axis : x y z
#
# Youngs Moduli (GPa) = 19.10214 19.10214 66.82575
#
# Poissons Ratio (x) = 0.35290 0.83536
# Poissons Ratio (y) = 0.35290 0.83536
# Poissons Ratio (z) = 0.23879 0.23879
#
# Static dielectric constant tensor:
#      x y z
#    x 1.584930 0.000000 0.000000 
#    y 0.000000 1.584930 0.000000 
#    z 0.000000 0.000000 1.594510 
# 
# From -- ./inp_files/11711.got.cif
#   From: 2010.05.17/outbox.cif.g08.bks.cpg/sg141_6_cif.got.tgz:11711.got - 2010.05.20 13:30:51.
