data_PCOD9573620
_publ_section_title
;
Structure prediction by ZEFSAII (Michael W. Deem and Ramdas Pophale) SiO2 
 PCOD9573620
Probable space group: I 41/A C D
;
_chemical_formula_sum "Si O2"
_cell_formula_units_Z 160
_cell_length_a 18.050751
_cell_length_b 18.050751
_cell_length_c 26.925772
_cell_angle_alpha 90.000000
_cell_angle_beta 90.000000
_cell_angle_gamma 90.000000
_cell_volume 8773.213835
_symmetry_space_group_name_H-M "I 41/A C D"
_symmetry_group_IT_number 142
_space_group.IT_coordinate_system_code '2'
_symmetry_cell_setting 'tetragonal'
loop_
_space_group_symop_operation_xyz
x,y,z
1/4-y,3/4+x,1/4+z
-x,1/2-y,z
1/4+y,1/4-x,3/4+z
x,-y,1/2-z
1/2-x,y,-z
3/4+y,1/4+x,1/4-z
1/4-y,1/4-x,1/4-z
-x,-y,-z
3/4+y,1/4-x,3/4-z
x,1/2+y,-z
3/4-y,3/4+x,1/4-z
-x,y,1/2+z
1/2+x,-y,z
1/4-y,3/4-x,3/4+z
3/4+y,3/4+x,3/4+z
1/2+x,1/2+y,1/2+z
3/4-y,1/4+x,3/4+z
1/2-x,-y,1/2+z
3/4+y,3/4-x,1/4+z
1/2+x,1/2-y,-z
-x,1/2+y,1/2-z
1/4+y,3/4+x,3/4-z
3/4-y,3/4-x,3/4-z
1/2-x,1/2-y,1/2-z
1/4+y,3/4-x,1/4-z
1/2+x,y,1/2-z
1/4-y,1/4+x,3/4-z
1/2-x,1/2+y,z
x,1/2-y,1/2+z
3/4-y,1/4-x,1/4+z
1/4+y,1/4+x,1/4+z
loop_
_atom_site_type_symbol
_atom_site_label
_atom_site_fract_x
_atom_site_fract_y
_atom_site_fract_z
Si Si1 0.912245 0.888302 0.568286
Si Si2 0.445132 0.813898 0.683524
Si Si3 0.907542 0.629362 0.570603
Si Si4 0.337227 0.736809 0.493621
Si Si5 0.576690 0.964112 0.016641
O O1 0.880101 0.867218 0.622313
O O2 0.875014 0.837643 0.526146
O O3 0.001658 0.871473 0.569564
O O4 0.893273 0.973016 0.553421
O O5 0.500000 0.750000 0.702892
O O6 0.440807 0.809194 0.625000
O O7 0.485441 0.886638 0.702656
O O8 0.363213 0.811504 0.705784
O O9 0.869941 0.700884 0.544403
O O10 0.883824 0.560810 0.534760
O O11 0.250000 0.730279 0.500000
O O12 0.500000 0.000000 0.000000
#
# Coordination Sequence:
#
# PCOD9573620 Si02
#       5
#    32  32  32  32  32
#     4  11  20  37  66  92 122 158 214 269 316 370
#     4  10  21  38  60  84 118 160 201 243 302 376
#     4  10  20  36  62  93 116 160 211 264 315 372
#     4  11  23  36  57  90 124 155 207 261 307 370
#     4   9  20  35  58  89 126 150 201 263 317 364
#
# _framework density 18.237331000000001
#
# number of rings (size 3 to 8) (size 9 to 14) (size 15 to 20)
#    0.000    1.800    2.000    4.200    2.800    0.000 
#    0.000    4.000    0.000    0.000    0.000    0.000 
#    0.000    0.000    0.000    0.000    0.000    0.000 
#
# Total GULP energy -445432.054377 kJ/mol
# GULP energy per Si atom -5567.900680 kJ/mol
# Density = 1.819582 g / cm^3
# Si number density = 18.237331 Si / 1000 Ang^3
#
#
#
# Elastic Constant Matrix: (Units=GPa)
#
#
# Indices 1 2 3 4 5 6 
#
# 1 115.8494 46.6833 47.7688 0.0000 0.0000 0.0000
# 2 46.6833 115.8496 47.7691 0.0000 0.0000 0.0000
# 3 47.7688 47.7691 116.1026 0.0000 0.0000 0.0000
# 4 0.0000 0.0000 0.0000 26.5687 0.0000 0.0000
# 5 0.0000 0.0000 0.0000 0.0000 26.5685 0.0000
# 6 0.0000 0.0000 0.0000 0.0000 0.0000 4.0477
#
#
#
# Elastic Compliance Matrix: (Units=1/GPa)
#
#
# Indices 1 2 3 4 5 6 
#
# 1 0.011287 -0.003171 -0.003339 0.000000 0.000000 0.000000
# 2 -0.003171 0.011287 -0.003339 0.000000 0.000000 0.000000
# 3 -0.003339 -0.003339 0.011361 0.000000 0.000000 0.000000
# 4 0.000000 0.000000 0.000000 0.037638 0.000000 0.000000
# 5 0.000000 0.000000 0.000000 0.000000 0.037639 0.000000
# 6 0.000000 0.000000 0.000000 0.000000 0.000000 0.247051
#
#
# Mechanical properties :
#
#
# Convention : Reuss Voigt Hill
#
# Bulk Modulus (GPa) = 70.24736 70.24932 70.24834
# Shear Modulus (GPa) = 13.13352 25.14234 19.13793
#
# Velocity S-wave (km/s) = 2.68646 3.71701 3.24293
# Velocity P-wave (km/s) = 6.94441 7.55147 7.25429
#
# Compressibility (1/GPa) = 0.01423541
#
# Stress axis : x y z
#
# Youngs Moduli (GPa) = 88.60075 88.60068 88.02361
#
# Poissons Ratio (x) = 0.28098 0.29390
# Poissons Ratio (y) = 0.28098 0.29391
# Poissons Ratio (z) = 0.29583 0.29583
#
# Static dielectric constant tensor:
#      x y z
#    x 1.590930 0.000000 0.000000 
#    y 0.000000 1.590930 0.000000 
#    z 0.000000 0.000000 1.646060 
# 
# From -- ./inp_files/11305.got.cif
#   From: 2010.05.17/outbox.cif.g08.bks.cpg/sg142_6_cif.got.tgz:11305.got - 2010.05.20 13:39:18.
