data_PCOD9573304
_publ_section_title
;
Structure prediction by ZEFSAII (Michael W. Deem and Ramdas Pophale) SiO2 
 PCOD9573304
Probable space group: I 41/A M D
;
_chemical_formula_sum "Si O2"
_cell_formula_units_Z 112
_cell_length_a 19.528203
_cell_length_b 19.528203
_cell_length_c 16.133592
_cell_angle_alpha 90.000000
_cell_angle_beta 90.000000
_cell_angle_gamma 90.000000
_cell_volume 6152.556803
_symmetry_space_group_name_H-M "I 41/A M D"
_symmetry_group_IT_number 141
_space_group.IT_coordinate_system_code '2'
_symmetry_cell_setting 'tetragonal'
loop_
_space_group_symop_operation_xyz
x,y,z
1/4-y,3/4+x,1/4+z
-x,1/2-y,z
1/4+y,1/4-x,3/4+z
x,-y,-z
-x,1/2+y,-z
1/4+y,3/4+x,1/4-z
1/4-y,1/4-x,3/4-z
-x,-y,-z
3/4+y,1/4-x,3/4-z
x,1/2+y,-z
3/4-y,3/4+x,1/4-z
-x,y,z
x,1/2-y,z
3/4-y,1/4-x,3/4+z
3/4+y,3/4+x,1/4+z
1/2+x,1/2+y,1/2+z
3/4-y,1/4+x,3/4+z
1/2-x,-y,1/2+z
3/4+y,3/4-x,1/4+z
1/2+x,1/2-y,1/2-z
1/2-x,y,1/2-z
3/4+y,1/4+x,3/4-z
3/4-y,3/4-x,1/4-z
1/2-x,1/2-y,1/2-z
1/4+y,3/4-x,1/4-z
1/2+x,y,1/2-z
1/4-y,1/4+x,3/4-z
1/2-x,1/2+y,1/2+z
1/2+x,-y,1/2+z
1/4-y,3/4-x,1/4+z
1/4+y,1/4+x,3/4+z
loop_
_atom_site_type_symbol
_atom_site_label
_atom_site_fract_x
_atom_site_fract_y
_atom_site_fract_z
Si Si1 0.000000 0.831412 0.862357
Si Si2 0.353298 0.379815 0.395154
Si Si3 0.500000 0.487960 0.903511
Si Si4 0.742606 0.068469 0.542948
Si Si5 0.393226 0.250000 0.086082
O O1 0.068540 0.857990 0.906351
O O2 0.000000 0.849747 0.763765
O O3 0.000000 0.750000 0.865283
O O4 0.307976 0.316156 0.365453
O O5 0.311311 0.402801 0.476703
O O6 0.357130 0.440940 0.327174
O O7 0.500000 0.562805 0.859809
O O8 0.500000 0.500000 0.000000
O O9 0.701419 0.048582 0.625000
O O10 0.771160 0.000000 0.500000
O O11 0.434367 0.184367 0.125000
#
# Coordination Sequence:
#
# PCOD9573304 Si02
#       5
#    16  32  16  32  16
#     4  12  22  40  58  81 123 161 201 249 301 356
#     4  11  22  39  61  89 121 160 203 252 305 364
#     4  12  23  34  58  91 125 166 205 240 298 366
#     4   9  20  40  63  89 119 152 199 257 304 358
#     4  11  22  38  56  87 129 170 202 247 295 362
#
# _framework density 18.203813
#
# number of rings (size 3 to 8) (size 9 to 14) (size 15 to 20)
#    0.000    1.286    2.857    4.286    0.000    3.429 
#    0.000    7.857    0.000    0.000    0.000    0.000 
#    0.000    0.000    0.000    0.000    0.000    0.000 
#
# Total GULP energy -312265.422586 kJ/mol
# GULP energy per Si atom -5576.168260 kJ/mol
# Density = 1.816238 g / cm^3
# Si number density = 18.203813 Si / 1000 Ang^3
#
#
#
# Elastic Constant Matrix: (Units=GPa)
#
#
# Indices 1 2 3 4 5 6 
#
# 1 133.2069 64.1335 26.8120 0.0000 0.0000 0.0000
# 2 64.1335 133.2076 26.8139 0.0000 0.0000 0.0000
# 3 26.8120 26.8139 70.2255 0.0000 0.0000 0.0000
# 4 0.0000 0.0000 0.0000 5.8387 0.0000 0.0000
# 5 0.0000 0.0000 0.0000 0.0000 5.8381 0.0000
# 6 0.0000 0.0000 0.0000 0.0000 0.0000 11.6446
#
#
#
# Elastic Compliance Matrix: (Units=1/GPa)
#
#
# Indices 1 2 3 4 5 6 
#
# 1 0.010066 -0.004412 -0.002159 0.000000 0.000000 0.000000
# 2 -0.004412 0.010066 -0.002159 0.000000 0.000000 0.000000
# 3 -0.002159 -0.002159 0.015888 0.000000 0.000000 0.000000
# 4 0.000000 0.000000 0.000000 0.171272 0.000000 0.000000
# 5 0.000000 0.000000 0.000000 0.000000 0.171288 0.000000
# 6 0.000000 0.000000 0.000000 0.000000 0.000000 0.085877
#
#
# Mechanical properties :
#
#
# Convention : Reuss Voigt Hill
#
# Bulk Modulus (GPa) = 53.87563 63.57321 58.72442
# Shear Modulus (GPa) = 10.24378 19.25631 14.75005
#
# Velocity S-wave (km/s) = 2.37476 3.25594 2.84962
# Velocity P-wave (km/s) = 6.09749 7.00954 6.56936
#
# Compressibility (1/GPa) = 0.01856127
#
# Stress axis : x y z
#
# Youngs Moduli (GPa) = 99.34812 99.34746 62.93924
#
# Poissons Ratio (x) = 0.43829 0.13586
# Poissons Ratio (y) = 0.43829 0.13588
# Poissons Ratio (z) = 0.21445 0.21449
#
# Static dielectric constant tensor:
#      x y z
#    x 1.329620 0.000000 0.000000 
#    y 0.000000 1.329100 0.000000 
#    z 0.000000 0.000000 1.571010 
# 
# From -- ./inp_files/7984.got.cif
#   From: 2010.05.17/outbox.cif.g08.bks.cpg/sg141_4_cif.got.tgz:7984.got - 2010.05.20 13:30:51.
