data_PCOD9573182
_publ_section_title
;
Structure prediction by ZEFSAII (Michael W. Deem and Ramdas Pophale) SiO2 
 PCOD9573182
Probable space group: I 41/A M D
;
_chemical_formula_sum "Si O2"
_cell_formula_units_Z 112
_cell_length_a 24.611251
_cell_length_b 24.611251
_cell_length_c 10.000069
_cell_angle_alpha 90.000000
_cell_angle_beta 90.000000
_cell_angle_gamma 90.000000
_cell_volume 6057.178552
_symmetry_space_group_name_H-M "I 41/A M D"
_symmetry_group_IT_number 141
_space_group.IT_coordinate_system_code '2'
_symmetry_cell_setting 'tetragonal'
loop_
_space_group_symop_operation_xyz
x,y,z
1/4-y,3/4+x,1/4+z
-x,1/2-y,z
1/4+y,1/4-x,3/4+z
x,-y,-z
-x,1/2+y,-z
1/4+y,3/4+x,1/4-z
1/4-y,1/4-x,3/4-z
-x,-y,-z
3/4+y,1/4-x,3/4-z
x,1/2+y,-z
3/4-y,3/4+x,1/4-z
-x,y,z
x,1/2-y,z
3/4-y,1/4-x,3/4+z
3/4+y,3/4+x,1/4+z
1/2+x,1/2+y,1/2+z
3/4-y,1/4+x,3/4+z
1/2-x,-y,1/2+z
3/4+y,3/4-x,1/4+z
1/2+x,1/2-y,1/2-z
1/2-x,y,1/2-z
3/4+y,1/4+x,3/4-z
3/4-y,3/4-x,1/4-z
1/2-x,1/2-y,1/2-z
1/4+y,3/4-x,1/4-z
1/2+x,y,1/2-z
1/4-y,1/4+x,3/4-z
1/2-x,1/2+y,1/2+z
1/2+x,-y,1/2+z
1/4-y,3/4-x,1/4+z
1/4+y,1/4+x,3/4+z
loop_
_atom_site_type_symbol
_atom_site_label
_atom_site_fract_x
_atom_site_fract_y
_atom_site_fract_z
Si Si1 0.937228 0.486571 0.711491
Si Si2 0.632598 0.882397 0.527892
Si Si3 0.359994 0.685392 0.962489
Si Si4 0.891038 0.500000 0.000000
O O1 0.900978 0.434914 0.672947
O O2 0.921535 0.547750 0.668097
O O3 0.000000 0.477278 0.676597
O O4 0.928668 0.490031 0.871838
O O5 0.616810 0.866810 0.375000
O O6 0.584414 0.879983 0.635247
O O7 0.644943 0.946637 0.519571
O O8 0.365411 0.750000 0.952336
O O9 0.402834 0.652834 0.875000
#
# Coordination Sequence:
#
# PCOD9573182 Si02
#       4
#    32  32  32  16
#     4   9  17  31  53  78 103 134 175 218 258 306
#     4   9  18  33  56  84 108 134 173 217 259 307
#     4  10  22  39  55  74 106 145 178 212 263 319
#     4   8  15  30  50  78 112 140 163 202 266 322
#
# _framework density 18.490456999999999
#
# number of rings (size 3 to 8) (size 9 to 14) (size 15 to 20)
#    0.000    2.857    0.000    0.429    0.000    9.429 
#    0.000   10.000    0.000    0.000    0.000    6.000 
#    0.000    0.000    0.000    0.000    0.000    0.000 
#
# Total GULP energy -311878.827487 kJ/mol
# GULP energy per Si atom -5569.264777 kJ/mol
# Density = 1.844837 g / cm^3
# Si number density = 18.490457 Si / 1000 Ang^3
#
#
#
# Elastic Constant Matrix: (Units=GPa)
#
#
# Indices 1 2 3 4 5 6 
#
# 1 97.4966 75.2506 21.4309 0.0000 0.0000 0.0000
# 2 75.2506 97.4966 21.4309 0.0000 0.0000 0.0000
# 3 21.4309 21.4309 36.6066 0.0000 0.0000 0.0000
# 4 0.0000 0.0000 0.0000 12.5196 0.0000 0.0000
# 5 0.0000 0.0000 0.0000 0.0000 12.5196 0.0000
# 6 0.0000 0.0000 0.0000 0.0000 0.0000 26.6105
#
#
#
# Elastic Compliance Matrix: (Units=1/GPa)
#
#
# Indices 1 2 3 4 5 6 
#
# 1 0.025862 -0.019090 -0.003965 0.000000 0.000000 0.000000
# 2 -0.019090 0.025862 -0.003965 0.000000 0.000000 0.000000
# 3 -0.003965 -0.003965 0.031960 0.000000 0.000000 0.000000
# 4 0.000000 0.000000 0.000000 0.079875 0.000000 0.000000
# 5 0.000000 0.000000 0.000000 0.000000 0.079875 0.000000
# 6 0.000000 0.000000 0.000000 0.000000 0.000000 0.037579
#
#
# Mechanical properties :
#
#
# Convention : Reuss Voigt Hill
#
# Bulk Modulus (GPa) = 33.73206 51.98050 42.85628
# Shear Modulus (GPa) = 14.49553 17.89576 16.19565
#
# Velocity S-wave (km/s) = 2.80294 3.11438 2.96276
# Velocity P-wave (km/s) = 5.36264 6.41137 5.91031
#
# Compressibility (1/GPa) = 0.02964539
#
# Stress axis : x y z
#
# Youngs Moduli (GPa) = 38.66642 38.66642 31.28913
#
# Poissons Ratio (x) = 0.73813 0.12406
# Poissons Ratio (y) = 0.73813 0.12406
# Poissons Ratio (z) = 0.15331 0.15331
#
# Static dielectric constant tensor:
#      x y z
#    x 1.626340 0.000000 0.000000 
#    y 0.000000 1.626340 0.000000 
#    z 0.000000 0.000000 1.708620 
# 
# From -- ./inp_files/4443.got.cif
#   From: 2010.05.17/outbox.cif.g08.bks.cpg/sg141_3_cif.got.tgz:4443.got - 2010.05.20 13:30:51.
