data_PCOD9573806
_publ_section_title
;
Structure prediction by ZEFSAII (Michael W. Deem and Ramdas Pophale) SiO2 
 PCOD9573806
Probable space group: I 41/A C D
;
_chemical_formula_sum "Si O2"
_cell_formula_units_Z 120
_cell_length_a 28.053414
_cell_length_b 28.053414
_cell_length_c 7.583334
_cell_angle_alpha 90.000000
_cell_angle_beta 90.000000
_cell_angle_gamma 90.000000
_cell_volume 5968.038639
_symmetry_space_group_name_H-M "I 41/A C D"
_symmetry_group_IT_number 142
_space_group.IT_coordinate_system_code '2'
_symmetry_cell_setting 'tetragonal'
loop_
_space_group_symop_operation_xyz
x,y,z
1/4-y,3/4+x,1/4+z
-x,1/2-y,z
1/4+y,1/4-x,3/4+z
x,-y,1/2-z
1/2-x,y,-z
3/4+y,1/4+x,1/4-z
1/4-y,1/4-x,1/4-z
-x,-y,-z
3/4+y,1/4-x,3/4-z
x,1/2+y,-z
3/4-y,3/4+x,1/4-z
-x,y,1/2+z
1/2+x,-y,z
1/4-y,3/4-x,3/4+z
3/4+y,3/4+x,3/4+z
1/2+x,1/2+y,1/2+z
3/4-y,1/4+x,3/4+z
1/2-x,-y,1/2+z
3/4+y,3/4-x,1/4+z
1/2+x,1/2-y,-z
-x,1/2+y,1/2-z
1/4+y,3/4+x,3/4-z
3/4-y,3/4-x,3/4-z
1/2-x,1/2-y,1/2-z
1/4+y,3/4-x,1/4-z
1/2+x,y,1/2-z
1/4-y,1/4+x,3/4-z
1/2-x,1/2+y,z
x,1/2-y,1/2+z
3/4-y,1/4-x,1/4+z
1/4+y,1/4+x,1/4+z
loop_
_atom_site_type_symbol
_atom_site_label
_atom_site_fract_x
_atom_site_fract_y
_atom_site_fract_z
Si Si1 0.457105 0.844721 0.771858
Si Si2 0.399216 0.350785 0.875000
Si Si3 0.701721 0.277327 0.899808
Si Si4 0.298817 0.324347 0.018682
Si Si5 0.500000 0.250000 0.875000
O O1 0.417243 0.832758 0.625000
O O2 0.471965 0.899374 0.740655
O O3 0.494082 0.800646 0.733968
O O4 0.437182 0.844425 0.968663
O O5 0.402759 0.402382 0.787953
O O6 0.696015 0.304023 0.715694
O O7 0.750000 0.294773 0.000000
O O8 0.709376 0.220552 0.886378
O O9 0.250000 0.353741 0.000000
#
# Coordination Sequence:
#
# PCOD9573806 Si02
#       5
#    32  16  32  32   8
#     4  10  21  41  61  88 131 172 224 264 329 396
#     4  12  22  40  66  92 126 169 218 284 327 416
#     4  11  21  40  64  90 126 165 222 281 321 389
#     4  11  22  38  62  93 122 165 214 271 334 383
#     4   8  20  40  60  86 138 184 216 272 314 424
#
# _framework density 20.107109999999999
#
# number of rings (size 3 to 8) (size 9 to 14) (size 15 to 20)
#    0.800    0.533    2.667    6.400    0.000    1.600 
#    0.000    0.000    0.000    0.000    0.000    5.600 
#    0.000    0.000    0.000    0.000    0.000    0.000 
#
# Total GULP energy -334618.067247 kJ/mol
# GULP energy per Si atom -5576.967787 kJ/mol
# Density = 2.006135 g / cm^3
# Si number density = 20.107110 Si / 1000 Ang^3
#
#
#
# Elastic Constant Matrix: (Units=GPa)
#
#
# Indices 1 2 3 4 5 6 
#
# 1 145.3095 63.0203 64.8585 0.0000 0.0000 0.0000
# 2 63.0203 145.3099 64.8602 0.0000 0.0000 0.0000
# 3 64.8585 64.8602 141.5372 0.0000 0.0000 0.0000
# 4 0.0000 0.0000 0.0000 33.5573 0.0000 0.0000
# 5 0.0000 0.0000 0.0000 0.0000 33.5591 0.0000
# 6 0.0000 0.0000 0.0000 0.0000 0.0000 19.0912
#
#
#
# Elastic Compliance Matrix: (Units=1/GPa)
#
#
# Indices 1 2 3 4 5 6 
#
# 1 0.009434 -0.002718 -0.003078 0.000000 0.000000 0.000000
# 2 -0.002718 0.009434 -0.003078 0.000000 0.000000 0.000000
# 3 -0.003078 -0.003078 0.009886 0.000000 0.000000 0.000000
# 4 0.000000 0.000000 0.000000 0.029800 0.000000 0.000000
# 5 0.000000 0.000000 0.000000 0.000000 0.029798 0.000000
# 6 0.000000 0.000000 0.000000 0.000000 0.000000 0.052380
#
#
# Mechanical properties :
#
#
# Convention : Reuss Voigt Hill
#
# Bulk Modulus (GPa) = 90.84472 90.84830 90.84651
# Shear Modulus (GPa) = 30.83578 33.20270 32.01924
#
# Velocity S-wave (km/s) = 3.92034 4.06802 3.99486
# Velocity P-wave (km/s) = 8.10990 8.20642 8.15830
#
# Compressibility (1/GPa) = 0.01100779
#
# Stress axis : x y z
#
# Youngs Moduli (GPa) = 105.99573 105.99481 101.15192
#
# Poissons Ratio (x) = 0.28808 0.31132
# Poissons Ratio (y) = 0.28808 0.31134
# Poissons Ratio (z) = 0.32623 0.32624
#
# Static dielectric constant tensor:
#      x y z
#    x 1.792150 0.000000 0.000000 
#    y 0.000000 1.792150 0.000000 
#    z 0.000000 0.000000 1.802190 
# 
# From -- ./inp_files/1889.got.cif
#   From: 2010.05.17/outbox.cif.g08.bks.cpg/sg142_1_cif.got.tgz:1889.got - 2010.05.20 13:39:18.
