data_PCOD9573191
_publ_section_title
;
Structure prediction by ZEFSAII (Michael W. Deem and Ramdas Pophale) SiO2 
 PCOD9573191
Probable space group: I 41/A M D
;
_chemical_formula_sum "Si O2"
_cell_formula_units_Z 160
_cell_length_a 18.948727
_cell_length_b 18.948727
_cell_length_c 19.362877
_cell_angle_alpha 90.000000
_cell_angle_beta 90.000000
_cell_angle_gamma 90.000000
_cell_volume 6952.323374
_symmetry_space_group_name_H-M "I 41/A M D"
_symmetry_group_IT_number 141
_space_group.IT_coordinate_system_code '2'
_symmetry_cell_setting 'tetragonal'
loop_
_space_group_symop_operation_xyz
x,y,z
1/4-y,3/4+x,1/4+z
-x,1/2-y,z
1/4+y,1/4-x,3/4+z
x,-y,-z
-x,1/2+y,-z
1/4+y,3/4+x,1/4-z
1/4-y,1/4-x,3/4-z
-x,-y,-z
3/4+y,1/4-x,3/4-z
x,1/2+y,-z
3/4-y,3/4+x,1/4-z
-x,y,z
x,1/2-y,z
3/4-y,1/4-x,3/4+z
3/4+y,3/4+x,1/4+z
1/2+x,1/2+y,1/2+z
3/4-y,1/4+x,3/4+z
1/2-x,-y,1/2+z
3/4+y,3/4-x,1/4+z
1/2+x,1/2-y,1/2-z
1/2-x,y,1/2-z
3/4+y,1/4+x,3/4-z
3/4-y,3/4-x,1/4-z
1/2-x,1/2-y,1/2-z
1/4+y,3/4-x,1/4-z
1/2+x,y,1/2-z
1/4-y,1/4+x,3/4-z
1/2-x,1/2+y,1/2+z
1/2+x,-y,1/2+z
1/4-y,3/4-x,1/4+z
1/4+y,1/4+x,3/4+z
loop_
_atom_site_type_symbol
_atom_site_label
_atom_site_fract_x
_atom_site_fract_y
_atom_site_fract_z
Si Si1 0.924529 0.541134 0.337708
Si Si2 0.684837 0.935624 0.047143
Si Si3 0.077628 0.120853 0.300206
Si Si4 0.920836 0.517083 0.116478
Si Si5 0.420781 0.383905 0.489583
O O1 0.858084 0.536070 0.387911
O O2 0.927372 0.463756 0.305742
O O3 0.913276 0.606122 0.285640
O O4 0.000000 0.552247 0.373880
O O5 0.747535 0.888085 0.077758
O O6 0.625970 0.889340 0.005952
O O7 0.710540 0.000000 0.000000
O O8 0.098196 0.151805 0.375000
O O9 0.000000 0.148076 0.279525
O O10 0.921318 0.449519 0.064457
O O11 0.000000 0.521829 0.146876
O O12 0.910381 0.583037 0.065483
O O13 0.500000 0.352293 0.486793
#
# Coordination Sequence:
#
# PCOD9573191 Si02
#       5
#    32  32  32  32  32
#     4  10  22  40  61  89 130 171 206 264 330 381
#     4  11  21  38  61  93 119 163 220 272 326 392
#     4  11  24  44  62  87 128 175 222 276 336 388
#     4   8  15  31  56  88 126 162 196 256 327 386
#     4   8  15  32  58  91 125 161 200 247 319 397
#
# _framework density 23.013888999999999
#
# number of rings (size 3 to 8) (size 9 to 14) (size 15 to 20)
#    0.000    2.400    2.000    1.800    0.000    2.600 
#   10.800    0.000    0.000    0.000    0.000    0.000 
#    0.000    7.200    0.000    0.000    0.000    0.000 
#
# Total GULP energy -446785.066214 kJ/mol
# GULP energy per Si atom -5584.813328 kJ/mol
# Density = 2.296151 g / cm^3
# Si number density = 23.013889 Si / 1000 Ang^3
#
#
#
# Elastic Constant Matrix: (Units=GPa)
#
#
# Indices 1 2 3 4 5 6 
#
# 1 102.0337 8.5856 29.6844 0.0000 0.0000 0.0000
# 2 8.5856 102.0328 29.6842 0.0000 0.0000 0.0000
# 3 29.6844 29.6842 72.0710 0.0000 0.0000 0.0000
# 4 0.0000 0.0000 0.0000 33.7309 0.0000 0.0000
# 5 0.0000 0.0000 0.0000 0.0000 33.7307 0.0000
# 6 0.0000 0.0000 0.0000 0.0000 0.0000 8.8408
#
#
#
# Elastic Compliance Matrix: (Units=1/GPa)
#
#
# Indices 1 2 3 4 5 6 
#
# 1 0.011153 0.000452 -0.004780 0.000000 0.000000 0.000000
# 2 0.000452 0.011153 -0.004780 0.000000 0.000000 0.000000
# 3 -0.004780 -0.004780 0.017813 0.000000 0.000000 0.000000
# 4 0.000000 0.000000 0.000000 0.029646 0.000000 0.000000
# 5 0.000000 0.000000 0.000000 0.000000 0.029647 0.000000
# 6 0.000000 0.000000 0.000000 0.000000 0.000000 0.113112
#
#
# Mechanical properties :
#
#
# Convention : Reuss Voigt Hill
#
# Bulk Modulus (GPa) = 45.65455 45.78289 45.71872
# Shear Modulus (GPa) = 21.00476 29.13935 25.07206
#
# Velocity S-wave (km/s) = 3.02437 3.56218 3.30423
# Velocity P-wave (km/s) = 5.66362 6.07088 5.87079
#
# Compressibility (1/GPa) = 0.02190362
#
# Stress axis : x y z
#
# Youngs Moduli (GPa) = 89.65979 89.65898 56.13959
#
# Poissons Ratio (x) = -0.04054 0.26835
# Poissons Ratio (y) = -0.04054 0.26835
# Poissons Ratio (z) = 0.42857 0.42857
#
# Static dielectric constant tensor:
#      x y z
#    x 1.885820 0.000000 0.000000 
#    y 0.000000 1.885820 0.000000 
#    z 0.000000 0.000000 1.875570 
# 
# From -- ./inp_files/8549.got.cif
#   From: 2010.05.17/outbox.cif.g08.bks.cpg/sg141_5_cif.got.tgz:8549.got - 2010.05.20 13:30:51.
