data_PCOD9573418
_publ_section_title
;
Structure prediction by ZEFSAII (Michael W. Deem and Ramdas Pophale) SiO2 
 PCOD9573418
Probable space group: I 41/A C D
;
_chemical_formula_sum "Si O2"
_cell_formula_units_Z 128
_cell_length_a 22.517286
_cell_length_b 22.517286
_cell_length_c 10.640631
_cell_angle_alpha 90.000000
_cell_angle_beta 90.000000
_cell_angle_gamma 90.000000
_cell_volume 5395.099651
_symmetry_space_group_name_H-M "I 41/A C D"
_symmetry_group_IT_number 142
_space_group.IT_coordinate_system_code '2'
_symmetry_cell_setting 'tetragonal'
loop_
_space_group_symop_operation_xyz
x,y,z
1/4-y,3/4+x,1/4+z
-x,1/2-y,z
1/4+y,1/4-x,3/4+z
x,-y,1/2-z
1/2-x,y,-z
3/4+y,1/4+x,1/4-z
1/4-y,1/4-x,1/4-z
-x,-y,-z
3/4+y,1/4-x,3/4-z
x,1/2+y,-z
3/4-y,3/4+x,1/4-z
-x,y,1/2+z
1/2+x,-y,z
1/4-y,3/4-x,3/4+z
3/4+y,3/4+x,3/4+z
1/2+x,1/2+y,1/2+z
3/4-y,1/4+x,3/4+z
1/2-x,-y,1/2+z
3/4+y,3/4-x,1/4+z
1/2+x,1/2-y,-z
-x,1/2+y,1/2-z
1/4+y,3/4+x,3/4-z
3/4-y,3/4-x,3/4-z
1/2-x,1/2-y,1/2-z
1/4+y,3/4-x,1/4-z
1/2+x,y,1/2-z
1/4-y,1/4+x,3/4-z
1/2-x,1/2+y,z
x,1/2-y,1/2+z
3/4-y,1/4-x,1/4+z
1/4+y,1/4+x,1/4+z
loop_
_atom_site_type_symbol
_atom_site_label
_atom_site_fract_x
_atom_site_fract_y
_atom_site_fract_z
Si Si1 0.010105 0.848977 0.111624
Si Si2 0.709076 0.111770 0.272944
Si Si3 0.854786 0.291909 0.118585
Si Si4 0.321125 0.593609 0.496210
O O1 0.950063 0.811790 0.137612
O O2 0.018199 0.893709 0.227736
O O3 0.004867 0.878599 0.975883
O O4 0.680809 0.069192 0.375000
O O5 0.705252 0.176049 0.336957
O O6 0.668425 0.114463 0.146811
O O7 0.773349 0.084206 0.253160
O O8 0.907673 0.342328 0.125000
O O9 0.250000 0.606608 0.500000
O O10 0.357658 0.607658 0.625000
#
# Coordination Sequence:
#
# PCOD9573418 Si02
#       4
#    32  32  32  32
#     4   9  16  30  50  72  98 127 163 212 260 298
#     4  10  17  28  47  77 106 129 164 207 252 300
#     4   9  18  29  46  76 101 124 161 205 250 302
#     4   9  17  30  50  76 104 134 169 210 251 292
#
# _framework density 23.725234
#
# number of rings (size 3 to 8) (size 9 to 14) (size 15 to 20)
#    0.000    2.750    0.000    3.750    0.000    3.000 
#    0.000    7.500    0.000    0.000    0.000  113.750 
#    0.000    0.000    0.000    0.000    0.000    0.000 
#
# Total GULP energy -356666.769265 kJ/mol
# GULP energy per Si atom -5572.918270 kJ/mol
# Density = 2.367123 g / cm^3
# Si number density = 23.725234 Si / 1000 Ang^3
#
#
#
# Elastic Constant Matrix: (Units=GPa)
#
#
# Indices 1 2 3 4 5 6 
#
# 1 -283.6694 -304.8295 -155.5978 0.0000 0.0000 0.0000
# 2 -304.8295 -283.7111 -155.6016 0.0000 0.0000 0.0000
# 3 -155.5978 -155.6016 72.2306 0.0000 0.0000 0.0000
# 4 0.0000 0.0000 0.0000 39.5564 0.0000 0.0000
# 5 0.0000 0.0000 0.0000 0.0000 39.5811 0.0000
# 6 0.0000 0.0000 0.0000 0.0000 0.0000 22.8577
#
#
#
# Elastic Compliance Matrix: (Units=1/GPa)
#
#
# Indices 1 2 3 4 5 6 
#
# 1 0.023257 -0.024050 -0.001710 0.000000 0.000000 0.000000
# 2 -0.024050 0.023254 -0.001712 0.000000 0.000000 0.000000
# 3 -0.001710 -0.001712 0.006472 0.000000 0.000000 0.000000
# 4 0.000000 0.000000 0.000000 0.025280 0.000000 0.000000
# 5 0.000000 0.000000 0.000000 0.000000 0.025265 0.000000
# 6 0.000000 0.000000 0.000000 0.000000 0.000000 0.043749
#
#
# Mechanical properties :
#
#
# Convention : Reuss Voigt Hill
#
# Bulk Modulus (GPa) = -509.87722 -191.91199 -350.89460
# Shear Modulus (GPa) = 24.80555 28.45764 26.63159
#
# Velocity S-wave (km/s) = 3.23698 3.46709 3.35401
# Velocity P-wave (km/s) = 14.19173 8.06458 11.54215
#
# Compressibility (1/GPa) = -0.00196126
#
# Stress axis : x y z
#
# Youngs Moduli (GPa) = 42.99852 43.00255 154.50914
#
# Poissons Ratio (x) = 1.03421 0.26422
# Poissons Ratio (y) = 1.03411 0.26456
# Poissons Ratio (z) = 0.07353 0.07363
#
# Static dielectric constant tensor:
#      x y z
#    x 1.973310 0.000000 0.000000 
#    y 0.000000 1.973270 0.000000 
#    z 0.000000 0.000000 -1.952950 
# 
# From -- ./inp_files/3479.got.cif
#   From: 2010.05.17/outbox.cif.g08.bks.cpg/sg142_2_cif.got.tgz:3479.got - 2010.05.20 13:39:18.
