data_PCOD9573004
_publ_section_title
;
Structure prediction by ZEFSAII (Michael W. Deem and Ramdas Pophale) SiO2 
 PCOD9573004
Probable space group: I 41/A M D
;
_chemical_formula_sum "Si O2"
_cell_formula_units_Z 96
_cell_length_a 16.626220
_cell_length_b 16.626220
_cell_length_c 14.380815
_cell_angle_alpha 90.000000
_cell_angle_beta 90.000000
_cell_angle_gamma 90.000000
_cell_volume 3975.305825
_symmetry_space_group_name_H-M "I 41/A M D"
_symmetry_group_IT_number 141
_space_group.IT_coordinate_system_code '2'
_symmetry_cell_setting 'tetragonal'
loop_
_space_group_symop_operation_xyz
x,y,z
1/4-y,3/4+x,1/4+z
-x,1/2-y,z
1/4+y,1/4-x,3/4+z
x,-y,-z
-x,1/2+y,-z
1/4+y,3/4+x,1/4-z
1/4-y,1/4-x,3/4-z
-x,-y,-z
3/4+y,1/4-x,3/4-z
x,1/2+y,-z
3/4-y,3/4+x,1/4-z
-x,y,z
x,1/2-y,z
3/4-y,1/4-x,3/4+z
3/4+y,3/4+x,1/4+z
1/2+x,1/2+y,1/2+z
3/4-y,1/4+x,3/4+z
1/2-x,-y,1/2+z
3/4+y,3/4-x,1/4+z
1/2+x,1/2-y,1/2-z
1/2-x,y,1/2-z
3/4+y,1/4+x,3/4-z
3/4-y,3/4-x,1/4-z
1/2-x,1/2-y,1/2-z
1/4+y,3/4-x,1/4-z
1/2+x,y,1/2-z
1/4-y,1/4+x,3/4-z
1/2-x,1/2+y,1/2+z
1/2+x,-y,1/2+z
1/4-y,3/4-x,1/4+z
1/4+y,1/4+x,3/4+z
loop_
_atom_site_type_symbol
_atom_site_label
_atom_site_fract_x
_atom_site_fract_y
_atom_site_fract_z
Si Si1 0.165477 0.412462 0.198517
Si Si2 0.095348 0.250000 0.530134
Si Si3 0.500000 0.095314 0.493983
Si Si4 0.671654 0.345449 0.510851
O O1 0.250000 0.404851 0.250000
O O2 0.087209 0.376742 0.252845
O O3 0.141615 0.505929 0.189268
O O4 0.176060 0.370143 0.098712
O O5 0.124670 0.250000 0.637512
O O6 0.000000 0.250000 0.524365
O O7 0.418198 0.128069 0.536349
O O8 0.500000 0.000000 0.500000
O O9 0.682397 0.250000 0.520826
#
# Coordination Sequence:
#
# PCOD9573004 Si02
#       4
#    32  16  16  32
#     4  11  22  40  67 100 137 179 237 295 351 426
#     4  10  22  42  66  95 132 181 228 279 356 421
#     4  10  20  36  62  96 128 176 225 281 341 413
#     4  11  23  42  68  99 138 184 239 286 361 430
#
# _framework density 24.149083999999998
#
# number of rings (size 3 to 8) (size 9 to 14) (size 15 to 20)
#    0.000    1.333    1.667    6.500    0.000    5.333 
#    0.000    0.000    0.000    0.000   34.667    0.000 
#    0.000    0.000    0.000    0.000    0.000    0.000 
#
# Total GULP energy -268931.553038 kJ/mol
# GULP energy per Si atom -5602.740688 kJ/mol
# Density = 2.409412 g / cm^3
# Si number density = 24.149084 Si / 1000 Ang^3
#
#
#
# Elastic Constant Matrix: (Units=GPa)
#
#
# Indices 1 2 3 4 5 6 
#
# 1 233.8469 72.1017 46.3885 0.0000 0.0000 0.0000
# 2 72.1017 233.8469 46.3885 0.0000 0.0000 0.0000
# 3 46.3885 46.3885 61.0921 0.0000 0.0000 0.0000
# 4 0.0000 0.0000 0.0000 19.4393 0.0000 0.0000
# 5 0.0000 0.0000 0.0000 0.0000 19.4393 0.0000
# 6 0.0000 0.0000 0.0000 0.0000 0.0000 51.9544
#
#
#
# Elastic Compliance Matrix: (Units=1/GPa)
#
#
# Indices 1 2 3 4 5 6 
#
# 1 0.005214 -0.000968 -0.003224 0.000000 0.000000 0.000000
# 2 -0.000968 0.005214 -0.003224 0.000000 0.000000 0.000000
# 3 -0.003224 -0.003224 0.021265 0.000000 0.000000 0.000000
# 4 0.000000 0.000000 0.000000 0.051442 0.000000 0.000000
# 5 0.000000 0.000000 0.000000 0.000000 0.051442 0.000000
# 6 0.000000 0.000000 0.000000 0.000000 0.000000 0.019248
#
#
# Mechanical properties :
#
#
# Convention : Reuss Voigt Hill
#
# Bulk Modulus (GPa) = 59.30961 95.39368 77.35164
# Shear Modulus (GPa) = 28.68948 42.42708 35.55828
#
# Velocity S-wave (km/s) = 3.45050 4.19606 3.84141
# Velocity P-wave (km/s) = 6.36299 7.94126 7.19553
#
# Compressibility (1/GPa) = 0.01686067
#
# Stress axis : x y z
#
# Youngs Moduli (GPa) = 191.77618 191.77618 47.02510
#
# Poissons Ratio (x) = 0.18567 0.15162
# Poissons Ratio (y) = 0.18567 0.15162
# Poissons Ratio (z) = 0.61834 0.61834
#
# Static dielectric constant tensor:
#      x y z
#    x 1.914950 0.000000 0.000000 
#    y 0.000000 1.914950 0.000000 
#    z 0.000000 0.000000 1.930360 
# 
# From -- ./inp_files/7708.got.cif
#   From: 2010.05.17/outbox.cif.g08.bks.cpg/sg141_4_cif.got.tgz:7708.got - 2010.05.20 13:30:51.
