data_PCOD9573021
_publ_section_title
;
Structure prediction by ZEFSAII (Michael W. Deem and Ramdas Pophale) SiO2 
 PCOD9573021
Probable space group: I 41/A M D
;
_chemical_formula_sum "Si O2"
_cell_formula_units_Z 144
_cell_length_a 28.728740
_cell_length_b 28.728740
_cell_length_c 8.586585
_cell_angle_alpha 90.000000
_cell_angle_beta 90.000000
_cell_angle_gamma 90.000000
_cell_volume 7086.856374
_symmetry_space_group_name_H-M "I 41/A M D"
_symmetry_group_IT_number 141
_space_group.IT_coordinate_system_code '2'
_symmetry_cell_setting 'tetragonal'
loop_
_space_group_symop_operation_xyz
x,y,z
1/4-y,3/4+x,1/4+z
-x,1/2-y,z
1/4+y,1/4-x,3/4+z
x,-y,-z
-x,1/2+y,-z
1/4+y,3/4+x,1/4-z
1/4-y,1/4-x,3/4-z
-x,-y,-z
3/4+y,1/4-x,3/4-z
x,1/2+y,-z
3/4-y,3/4+x,1/4-z
-x,y,z
x,1/2-y,z
3/4-y,1/4-x,3/4+z
3/4+y,3/4+x,1/4+z
1/2+x,1/2+y,1/2+z
3/4-y,1/4+x,3/4+z
1/2-x,-y,1/2+z
3/4+y,3/4-x,1/4+z
1/2+x,1/2-y,1/2-z
1/2-x,y,1/2-z
3/4+y,1/4+x,3/4-z
3/4-y,3/4-x,1/4-z
1/2-x,1/2-y,1/2-z
1/4+y,3/4-x,1/4-z
1/2+x,y,1/2-z
1/4-y,1/4+x,3/4-z
1/2-x,1/2+y,1/2+z
1/2+x,-y,1/2+z
1/4-y,3/4-x,1/4+z
1/4+y,1/4+x,3/4+z
loop_
_atom_site_type_symbol
_atom_site_label
_atom_site_fract_x
_atom_site_fract_y
_atom_site_fract_z
Si Si1 0.194604 0.500000 0.500000
Si Si2 0.446592 0.529466 0.350285
Si Si3 0.125474 0.169891 0.750555
Si Si4 0.114960 0.069226 0.596001
Si Si5 0.125055 0.697549 0.601341
O O1 0.228248 0.478248 0.375000
O O2 0.161023 0.541931 0.448387
O O3 0.429414 0.500000 0.500000
O O4 0.500000 0.515417 0.318853
O O5 0.442760 0.582327 0.407359
O O6 0.415597 0.532178 0.195581
O O7 0.128472 0.115206 0.697492
O O8 0.128438 0.195129 0.584696
O O9 0.082710 0.167291 0.875000
O O10 0.085695 0.089784 0.449084
O O11 0.130606 0.750000 0.658075
O O12 0.074000 0.676001 0.625000
#
# Coordination Sequence:
#
# PCOD9573021 Si02
#       5
#    16  32  32  32  32
#     4  12  28  46  65  92 122 164 227 286 336 402
#     4  10  21  35  58  92 123 157 207 261 316 388
#     4   9  19  37  58  83 118 163 201 249 317 387
#     4  10  23  41  61  87 127 167 212 267 337 394
#     4  10  20  37  64  92 126 170 213 262 324 392
#
# _framework density 20.319306000000001
#
# number of rings (size 3 to 8) (size 9 to 14) (size 15 to 20)
#    0.000    2.000    0.000    3.333    6.222    2.889 
#    0.000    2.222    0.000    0.000    0.000    0.000 
#    0.000    0.000    0.000    0.000    0.000    0.000 
#
# Total GULP energy -400871.951723 kJ/mol
# GULP energy per Si atom -5567.665996 kJ/mol
# Density = 2.027306 g / cm^3
# Si number density = 20.319306 Si / 1000 Ang^3
#
#
#
# Elastic Constant Matrix: (Units=GPa)
#
#
# Indices 1 2 3 4 5 6 
#
# 1 81.8853 43.6054 39.1741 0.0000 0.0000 0.0000
# 2 43.6054 81.8849 39.1763 0.0000 0.0000 0.0000
# 3 39.1741 39.1763 119.5462 0.0000 0.0000 0.0000
# 4 0.0000 0.0000 0.0000 48.4595 0.0000 0.0000
# 5 0.0000 0.0000 0.0000 0.0000 48.4579 0.0000
# 6 0.0000 0.0000 0.0000 0.0000 0.0000 38.3262
#
#
#
# Elastic Compliance Matrix: (Units=1/GPa)
#
#
# Indices 1 2 3 4 5 6 
#
# 1 0.018071 -0.008053 -0.003283 0.000000 0.000000 0.000000
# 2 -0.008053 0.018071 -0.003283 0.000000 0.000000 0.000000
# 3 -0.003283 -0.003283 0.010517 0.000000 0.000000 0.000000
# 4 0.000000 0.000000 0.000000 0.020636 0.000000 0.000000
# 5 0.000000 0.000000 0.000000 0.000000 0.020636 0.000000
# 6 0.000000 0.000000 0.000000 0.000000 0.000000 0.026092
#
#
# Mechanical properties :
#
#
# Convention : Reuss Voigt Hill
#
# Bulk Modulus (GPa) = 57.40044 58.58090 57.99067
# Shear Modulus (GPa) = 33.54191 37.80609 35.67400
#
# Velocity S-wave (km/s) = 4.06734 4.31815 4.19462
# Velocity P-wave (km/s) = 7.09706 7.33175 7.21536
#
# Compressibility (1/GPa) = 0.01742147
#
# Stress axis : x y z
#
# Youngs Moduli (GPa) = 55.33797 55.33645 95.08702
#
# Poissons Ratio (x) = 0.44560 0.31215
# Poissons Ratio (y) = 0.44561 0.31221
# Poissons Ratio (z) = 0.18166 0.18169
#
# Static dielectric constant tensor:
#      x y z
#    x 1.704820 0.000000 0.000000 
#    y 0.000000 1.704820 0.000000 
#    z 0.000000 0.000000 1.854540 
# 
# From -- ./inp_files/3135.got.cif
#   From: 2010.05.17/outbox.cif.g08.bks.cpg/sg141_2_cif.got.tgz:3135.got - 2010.05.20 13:30:51.
