data_PCOD9573847
_publ_section_title
;
Structure prediction by ZEFSAII (Michael W. Deem and Ramdas Pophale) SiO2 
 PCOD9573847
Probable space group: I 41/A C D
;
_chemical_formula_sum "Si O2"
_cell_formula_units_Z 176
_cell_length_a 18.156391
_cell_length_b 18.156391
_cell_length_c 22.116868
_cell_angle_alpha 90.000000
_cell_angle_beta 90.000000
_cell_angle_gamma 90.000000
_cell_volume 7290.925817
_symmetry_space_group_name_H-M "I 41/A C D"
_symmetry_group_IT_number 142
_space_group.IT_coordinate_system_code '2'
_symmetry_cell_setting 'tetragonal'
loop_
_space_group_symop_operation_xyz
x,y,z
1/4-y,3/4+x,1/4+z
-x,1/2-y,z
1/4+y,1/4-x,3/4+z
x,-y,1/2-z
1/2-x,y,-z
3/4+y,1/4+x,1/4-z
1/4-y,1/4-x,1/4-z
-x,-y,-z
3/4+y,1/4-x,3/4-z
x,1/2+y,-z
3/4-y,3/4+x,1/4-z
-x,y,1/2+z
1/2+x,-y,z
1/4-y,3/4-x,3/4+z
3/4+y,3/4+x,3/4+z
1/2+x,1/2+y,1/2+z
3/4-y,1/4+x,3/4+z
1/2-x,-y,1/2+z
3/4+y,3/4-x,1/4+z
1/2+x,1/2-y,-z
-x,1/2+y,1/2-z
1/4+y,3/4+x,3/4-z
3/4-y,3/4-x,3/4-z
1/2-x,1/2-y,1/2-z
1/4+y,3/4-x,1/4-z
1/2+x,y,1/2-z
1/4-y,1/4+x,3/4-z
1/2-x,1/2+y,z
x,1/2-y,1/2+z
3/4-y,1/4-x,1/4+z
1/4+y,1/4+x,1/4+z
loop_
_atom_site_type_symbol
_atom_site_label
_atom_site_fract_x
_atom_site_fract_y
_atom_site_fract_z
Si Si1 0.336416 0.794168 0.489580
Si Si2 0.233057 0.813784 0.827061
Si Si3 0.715421 0.034580 0.375000
Si Si4 0.171329 0.167026 0.206255
Si Si5 0.361431 0.108246 0.124352
Si Si6 0.163526 0.120898 0.505479
O O1 0.250000 0.815681 0.500000
O O2 0.395070 0.837749 0.531011
O O3 0.360796 0.824373 0.422499
O O4 0.341060 0.708881 0.507033
O O5 0.191179 0.736840 0.834408
O O6 0.288049 0.816339 0.769220
O O7 0.294737 0.825508 0.878330
O O8 0.171216 0.874029 0.810111
O O9 0.701740 0.093143 0.322936
O O10 0.795674 0.054635 0.397673
O O11 0.350934 0.130823 0.193684
O O12 0.250000 0.098646 0.500000
#
# Coordination Sequence:
#
# PCOD9573847 Si02
#       6
#    32  32  16  32  32  32
#     4  10  22  40  62  92 130 170 213 261 318 383
#     4  10  23  40  60  92 130 166 210 266 324 384
#     4  12  20  36  68  93 122 165 222 266 322 384
#     4  10  22  38  62  91 128 168 211 261 322 386
#     4  11  23  37  66  95 125 163 219 265 319 387
#     4  11  24  41  64  94 133 167 214 272 325 379
#
# _framework density 24.139596000000001
#
# number of rings (size 3 to 8) (size 9 to 14) (size 15 to 20)
#    0.000    1.455    3.636    1.091    2.545    2.182 
#    0.000    0.000    0.000    1.091    0.000    0.000 
#    0.000    0.000    0.000    0.000    0.000    0.000 
#
# Total GULP energy -491343.023239 kJ/mol
# GULP energy per Si atom -5583.443446 kJ/mol
# Density = 2.408465 g / cm^3
# Si number density = 24.139596 Si / 1000 Ang^3
#
#
#
# Elastic Constant Matrix: (Units=GPa)
#
#
# Indices 1 2 3 4 5 6 
#
# 1 57.2582 78.9577 -6.7436 0.0000 0.0000 0.0000
# 2 78.9577 57.2544 -6.7428 0.0000 0.0000 0.0000
# 3 -6.7436 -6.7428 52.6821 0.0000 0.0000 0.0000
# 4 0.0000 0.0000 0.0000 34.1452 0.0000 0.0000
# 5 0.0000 0.0000 0.0000 0.0000 34.1437 0.0000
# 6 0.0000 0.0000 0.0000 0.0000 0.0000 34.3736
#
#
#
# Elastic Compliance Matrix: (Units=1/GPa)
#
#
# Indices 1 2 3 4 5 6 
#
# 1 -0.019322 0.026758 0.000951 0.000000 0.000000 0.000000
# 2 0.026758 -0.019323 0.000952 0.000000 0.000000 0.000000
# 3 0.000951 0.000952 0.019225 0.000000 0.000000 0.000000
# 4 0.000000 0.000000 0.000000 0.029287 0.000000 0.000000
# 5 0.000000 0.000000 0.000000 0.000000 0.029288 0.000000
# 6 0.000000 0.000000 0.000000 0.000000 0.000000 0.029092
#
#
# Mechanical properties :
#
#
# Convention : Reuss Voigt Hill
#
# Bulk Modulus (GPa) = 26.38267 33.12635 29.75451
# Shear Modulus (GPa) = 212.22530 27.31407 119.76968
#
# Velocity S-wave (km/s) = 9.38652 3.36743 7.05146
# Velocity P-wave (km/s) = 11.33263 5.37328 8.86850
#
# Compressibility (1/GPa) = 0.03790367
#
# Stress axis : x y z
#
# Youngs Moduli (GPa) = -51.75573 -51.75238 52.01443
#
# Poissons Ratio (x) = 1.38478 -0.04949
# Poissons Ratio (y) = 1.38487 -0.04952
# Poissons Ratio (z) = 0.04924 0.04927
#
# Static dielectric constant tensor:
#      x y z
#    x 1.879030 0.000000 0.000000 
#    y 0.000000 1.879290 0.000000 
#    z 0.000000 0.000000 2.479360 
# 
# From -- ./inp_files/11422.got.cif
#   From: 2010.05.17/outbox.cif.g08.bks.cpg/sg142_6_cif.got.tgz:11422.got - 2010.05.20 13:39:18.
