data_PCOD9573682
_publ_section_title
;
Structure prediction by ZEFSAII (Michael W. Deem and Ramdas Pophale) SiO2 
 PCOD9573682
Probable space group: I 41/A C D
;
_chemical_formula_sum "Si O2"
_cell_formula_units_Z 160
_cell_length_a 20.396884
_cell_length_b 20.396884
_cell_length_c 20.425901
_cell_angle_alpha 90.000000
_cell_angle_beta 90.000000
_cell_angle_gamma 90.000000
_cell_volume 8497.846356
_symmetry_space_group_name_H-M "I 41/A C D"
_symmetry_group_IT_number 142
_space_group.IT_coordinate_system_code '2'
_symmetry_cell_setting 'tetragonal'
loop_
_space_group_symop_operation_xyz
x,y,z
1/4-y,3/4+x,1/4+z
-x,1/2-y,z
1/4+y,1/4-x,3/4+z
x,-y,1/2-z
1/2-x,y,-z
3/4+y,1/4+x,1/4-z
1/4-y,1/4-x,1/4-z
-x,-y,-z
3/4+y,1/4-x,3/4-z
x,1/2+y,-z
3/4-y,3/4+x,1/4-z
-x,y,1/2+z
1/2+x,-y,z
1/4-y,3/4-x,3/4+z
3/4+y,3/4+x,3/4+z
1/2+x,1/2+y,1/2+z
3/4-y,1/4+x,3/4+z
1/2-x,-y,1/2+z
3/4+y,3/4-x,1/4+z
1/2+x,1/2-y,-z
-x,1/2+y,1/2-z
1/4+y,3/4+x,3/4-z
3/4-y,3/4-x,3/4-z
1/2-x,1/2-y,1/2-z
1/4+y,3/4-x,1/4-z
1/2+x,y,1/2-z
1/4-y,1/4+x,3/4-z
1/2-x,1/2+y,z
x,1/2-y,1/2+z
3/4-y,1/4-x,1/4+z
1/4+y,1/4+x,1/4+z
loop_
_atom_site_type_symbol
_atom_site_label
_atom_site_fract_x
_atom_site_fract_y
_atom_site_fract_z
Si Si1 0.121225 0.724310 0.406763
Si Si2 0.428453 0.784373 0.470726
Si Si3 0.724677 0.702793 0.193399
Si Si4 0.854493 0.819050 0.619623
Si Si5 0.647676 0.579035 0.246195
O O1 0.056770 0.693231 0.375000
O O2 0.103030 0.780304 0.457769
O O3 0.166079 0.738502 0.344929
O O4 0.156381 0.666105 0.449872
O O5 0.500000 0.750000 0.472987
O O6 0.427855 0.854235 0.436293
O O7 0.386078 0.739595 0.421692
O O8 0.750000 0.750000 0.250000
O O9 0.780981 0.693720 0.140260
O O10 0.700914 0.630711 0.218011
O O11 0.854140 0.879603 0.569203
O O12 0.661028 0.500000 0.250000
#
# Coordination Sequence:
#
# PCOD9573682 Si02
#       5
#    32  32  32  32  32
#     4   9  21  38  59  89 119 159 207 248 306 374
#     4  11  21  36  61  89 123 159 199 253 314 375
#     4  11  23  38  64  92 119 160 212 264 304 370
#     4  11  20  37  61  89 120 158 203 251 316 371
#     4  10  20  39  64  87 117 166 210 247 302 382
#
# _framework density 18.828299000000001
#
# number of rings (size 3 to 8) (size 9 to 14) (size 15 to 20)
#    0.000    1.600    4.000    1.200    5.600    0.400 
#    0.000    0.000   13.200    0.000    0.000    0.000 
#    0.000    0.000    0.000    0.000    0.000    0.000 
#
# Total GULP energy -446186.155367 kJ/mol
# GULP energy per Si atom -5577.326942 kJ/mol
# Density = 1.878545 g / cm^3
# Si number density = 18.828299 Si / 1000 Ang^3
#
#
#
# Elastic Constant Matrix: (Units=GPa)
#
#
# Indices 1 2 3 4 5 6 
#
# 1 39.7344 16.7617 13.0272 0.0000 0.0000 0.0000
# 2 16.7617 39.7353 13.0285 0.0000 0.0000 0.0000
# 3 13.0272 13.0285 100.1223 0.0000 0.0000 0.0000
# 4 0.0000 0.0000 0.0000 218.7605 0.0000 0.0000
# 5 0.0000 0.0000 0.0000 0.0000 218.7604 0.0000
# 6 0.0000 0.0000 0.0000 0.0000 0.0000 19.5807
#
#
#
# Elastic Compliance Matrix: (Units=1/GPa)
#
#
# Indices 1 2 3 4 5 6 
#
# 1 0.031180 -0.012349 -0.002450 0.000000 0.000000 0.000000
# 2 -0.012349 0.031179 -0.002450 0.000000 0.000000 0.000000
# 3 -0.002450 -0.002450 0.010625 0.000000 0.000000 0.000000
# 4 0.000000 0.000000 0.000000 0.004571 0.000000 0.000000
# 5 0.000000 0.000000 0.000000 0.000000 0.004571 0.000000
# 6 0.000000 0.000000 0.000000 0.000000 0.000000 0.051071
#
#
# Mechanical properties :
#
#
# Convention : Reuss Voigt Hill
#
# Bulk Modulus (GPa) = 25.98408 29.46966 27.72687
# Shear Modulus (GPa) = 27.69690 100.53863 64.11777
#
# Velocity S-wave (km/s) = 3.83956 7.31529 5.84191
# Velocity P-wave (km/s) = 5.78677 9.32937 7.76286
#
# Compressibility (1/GPa) = 0.03848510
#
# Stress axis : x y z
#
# Youngs Moduli (GPa) = 32.07199 32.07251 94.11400
#
# Poissons Ratio (x) = 0.39608 0.23057
# Poissons Ratio (y) = 0.39607 0.23062
# Poissons Ratio (z) = 0.07857 0.07859
#
# Static dielectric constant tensor:
#      x y z
#    x 1.665280 0.000000 0.000000 
#    y 0.000000 1.665290 0.000000 
#    z 0.000000 0.000000 1.690750 
# 
# From -- ./inp_files/7353.got.cif
#   From: 2010.05.17/outbox.cif.g08.bks.cpg/sg142_4_cif.got.tgz:7353.got - 2010.05.20 13:39:18.
