data_PCOD9573057
_publ_section_title
;
Structure prediction by ZEFSAII (Michael W. Deem and Ramdas Pophale) SiO2 
 PCOD9573057
Probable space group: I 41/A M D
;
_chemical_formula_sum "Si O2"
_cell_formula_units_Z 192
_cell_length_a 18.779168
_cell_length_b 18.779168
_cell_length_c 31.061154
_cell_angle_alpha 90.000000
_cell_angle_beta 90.000000
_cell_angle_gamma 90.000000
_cell_volume 10953.938069
_symmetry_space_group_name_H-M "I 41/A M D"
_symmetry_group_IT_number 141
_space_group.IT_coordinate_system_code '2'
_symmetry_cell_setting 'tetragonal'
loop_
_space_group_symop_operation_xyz
x,y,z
1/4-y,3/4+x,1/4+z
-x,1/2-y,z
1/4+y,1/4-x,3/4+z
x,-y,-z
-x,1/2+y,-z
1/4+y,3/4+x,1/4-z
1/4-y,1/4-x,3/4-z
-x,-y,-z
3/4+y,1/4-x,3/4-z
x,1/2+y,-z
3/4-y,3/4+x,1/4-z
-x,y,z
x,1/2-y,z
3/4-y,1/4-x,3/4+z
3/4+y,3/4+x,1/4+z
1/2+x,1/2+y,1/2+z
3/4-y,1/4+x,3/4+z
1/2-x,-y,1/2+z
3/4+y,3/4-x,1/4+z
1/2+x,1/2-y,1/2-z
1/2-x,y,1/2-z
3/4+y,1/4+x,3/4-z
3/4-y,3/4-x,1/4-z
1/2-x,1/2-y,1/2-z
1/4+y,3/4-x,1/4-z
1/2+x,y,1/2-z
1/4-y,1/4+x,3/4-z
1/2-x,1/2+y,1/2+z
1/2+x,-y,1/2+z
1/4-y,3/4-x,1/4+z
1/4+y,1/4+x,3/4+z
loop_
_atom_site_type_symbol
_atom_site_label
_atom_site_fract_x
_atom_site_fract_y
_atom_site_fract_z
Si Si1 0.666166 0.413115 0.698601
Si Si2 0.915230 0.437796 0.198641
Si Si3 0.663866 0.915086 0.549012
Si Si4 0.188300 0.334220 0.452428
Si Si5 0.918574 0.335565 0.627119
Si Si6 0.083630 0.666371 0.125000
Si Si7 0.916393 0.333607 0.375000
O O1 0.630042 0.490492 0.691927
O O2 0.750879 0.415227 0.691123
O O3 0.655334 0.393607 0.748819
O O4 0.628649 0.359522 0.665957
O O5 0.905356 0.414055 0.248178
O O6 0.893927 0.377217 0.164861
O O7 0.000000 0.453282 0.192870
O O8 0.742081 0.881591 0.554153
O O9 0.613262 0.872786 0.581188
O O10 0.206155 0.250000 0.448160
O O11 0.129943 0.352049 0.416706
O O12 0.920696 0.250000 0.627942
O O13 0.000000 0.361992 0.625854
O O14 0.095379 0.750000 0.117046
O O15 0.905716 0.250000 0.365796
#
# Coordination Sequence:
#
# PCOD9573057 Si02
#       7
#    32  32  32  32  32  16  16
#     4  10  21  37  57  79 104 136 174 215 257 306
#     4   9  18  34  55  77 103 137 176 216 259 308
#     4  10  21  36  55  79 105 136 174 214 258 308
#     4   9  18  33  53  76 104 139 176 215 260 309
#     4  10  21  35  52  77 107 138 173 214 260 308
#     4  11  24  39  56  80 108 137 170 211 260 310
#     4   9  18  31  48  74 106 139 176 217 260 306
#
# _framework density 17.527941999999999
#
# number of rings (size 3 to 8) (size 9 to 14) (size 15 to 20)
#    0.000    2.333    0.000    2.000    0.000    7.333 
#    0.000    6.667    0.000    0.000    0.000    8.167 
#    0.000    0.000    0.000    0.000    0.000    0.000 
#
# Total GULP energy -535657.039562 kJ/mol
# GULP energy per Si atom -5579.760829 kJ/mol
# Density = 1.748805 g / cm^3
# Si number density = 17.527942 Si / 1000 Ang^3
#
#
#
# Elastic Constant Matrix: (Units=GPa)
#
#
# Indices 1 2 3 4 5 6 
#
# 1 69.0212 44.8951 61.5579 0.0000 0.0000 0.0000
# 2 44.8951 69.0200 61.5573 0.0000 0.0000 0.0000
# 3 61.5579 61.5573 95.4668 0.0000 0.0000 0.0000
# 4 0.0000 0.0000 0.0000 33.3255 0.0000 0.0000
# 5 0.0000 0.0000 0.0000 0.0000 33.3257 0.0000
# 6 0.0000 0.0000 0.0000 0.0000 0.0000 24.1240
#
#
#
# Elastic Compliance Matrix: (Units=1/GPa)
#
#
# Indices 1 2 3 4 5 6 
#
# 1 0.035205 -0.006245 -0.018674 0.000000 0.000000 0.000000
# 2 -0.006245 0.035205 -0.018674 0.000000 0.000000 0.000000
# 3 -0.018674 -0.018674 0.034557 0.000000 0.000000 0.000000
# 4 0.000000 0.000000 0.000000 0.030007 0.000000 0.000000
# 5 0.000000 0.000000 0.000000 0.000000 0.030007 0.000000
# 6 0.000000 0.000000 0.000000 0.000000 0.000000 0.041452
#
#
# Mechanical properties :
#
#
# Convention : Reuss Voigt Hill
#
# Bulk Modulus (GPa) = 56.23595 63.28096 59.75845
# Shear Modulus (GPa) = 16.69195 22.52153 19.60674
#
# Velocity S-wave (km/s) = 3.08929 3.58843 3.34818
# Velocity P-wave (km/s) = 6.69912 7.30413 7.00816
#
# Compressibility (1/GPa) = 0.01778222
#
# Stress axis : x y z
#
# Youngs Moduli (GPa) = 28.40517 28.40481 28.93789
#
# Poissons Ratio (x) = 0.17738 0.54038
# Poissons Ratio (y) = 0.17739 0.54038
# Poissons Ratio (z) = 0.53043 0.53042
#
# Static dielectric constant tensor:
#      x y z
#    x 1.578700 0.000000 0.000000 
#    y 0.000000 1.578700 0.000000 
#    z 0.000000 0.000000 1.590140 
# 
# From -- ./inp_files/14494.got.cif
#   From: 2010.05.17/outbox.cif.g08.bks.cpg/sg141_8_cif.got.tgz:14494.got - 2010.05.20 13:30:51.
