data_PCOD9573699
_publ_section_title
;
Structure prediction by ZEFSAII (Michael W. Deem and Ramdas Pophale) SiO2 
 PCOD9573699
Probable space group: I 41/A C D
;
_chemical_formula_sum "Si O2"
_cell_formula_units_Z 144
_cell_length_a 17.846231
_cell_length_b 17.846231
_cell_length_c 21.881363
_cell_angle_alpha 90.000000
_cell_angle_beta 90.000000
_cell_angle_gamma 90.000000
_cell_volume 6968.950684
_symmetry_space_group_name_H-M "I 41/A C D"
_symmetry_group_IT_number 142
_space_group.IT_coordinate_system_code '2'
_symmetry_cell_setting 'tetragonal'
loop_
_space_group_symop_operation_xyz
x,y,z
1/4-y,3/4+x,1/4+z
-x,1/2-y,z
1/4+y,1/4-x,3/4+z
x,-y,1/2-z
1/2-x,y,-z
3/4+y,1/4+x,1/4-z
1/4-y,1/4-x,1/4-z
-x,-y,-z
3/4+y,1/4-x,3/4-z
x,1/2+y,-z
3/4-y,3/4+x,1/4-z
-x,y,1/2+z
1/2+x,-y,z
1/4-y,3/4-x,3/4+z
3/4+y,3/4+x,3/4+z
1/2+x,1/2+y,1/2+z
3/4-y,1/4+x,3/4+z
1/2-x,-y,1/2+z
3/4+y,3/4-x,1/4+z
1/2+x,1/2-y,-z
-x,1/2+y,1/2-z
1/4+y,3/4+x,3/4-z
3/4-y,3/4-x,3/4-z
1/2-x,1/2-y,1/2-z
1/4+y,3/4-x,1/4-z
1/2+x,y,1/2-z
1/4-y,1/4+x,3/4-z
1/2-x,1/2+y,z
x,1/2-y,1/2+z
3/4-y,1/4-x,1/4+z
1/4+y,1/4+x,1/4+z
loop_
_atom_site_type_symbol
_atom_site_label
_atom_site_fract_x
_atom_site_fract_y
_atom_site_fract_z
Si Si1 0.183145 0.500000 0.750000
Si Si2 0.943402 0.984543 0.320754
Si Si3 0.220379 0.470379 0.125000
Si Si4 0.000000 0.750000 0.764432
Si Si5 0.010515 0.145072 0.843077
Si Si6 0.583654 0.380327 0.813582
O O1 0.232021 0.488649 0.812576
O O2 0.128444 0.571406 0.763210
O O3 0.867039 0.979516 0.357946
O O4 0.002532 0.917627 0.324436
O O5 0.924033 0.000000 0.250000
O O6 0.988082 0.057671 0.342645
O O7 0.968493 0.684104 0.720831
O O8 0.934569 0.793390 0.799337
O O9 0.069737 0.180562 0.889982
O O10 0.631490 0.381490 0.875000
#
# Coordination Sequence:
#
# PCOD9573699 Si02
#       6
#    16  32  16  16  32  32
#     4  12  26  52  72 106 148 196 246 298 378 434
#     4  12  25  45  69 101 146 192 233 303 371 424
#     4  12  30  48  71 105 150 198 242 298 366 458
#     4  10  20  40  64 100 136 170 236 282 358 419
#     4   9  21  38  68  99 129 186 233 294 346 437
#     4  12  26  43  74 103 141 192 241 308 360 434
#
# _framework density 20.663080999999998
#
# number of rings (size 3 to 8) (size 9 to 14) (size 15 to 20)
#    0.000    1.111    5.556    0.333   12.444    0.000 
#    0.000    1.111    0.000    0.000    0.000    0.000 
#    0.000    0.000    0.000    0.000    0.000    0.000 
#
# Total GULP energy -401600.722325 kJ/mol
# GULP energy per Si atom -5577.787810 kJ/mol
# Density = 2.061605 g / cm^3
# Si number density = 20.663081 Si / 1000 Ang^3
#
#
#
# Elastic Constant Matrix: (Units=GPa)
#
#
# Indices 1 2 3 4 5 6 
#
# 1 72.1952 19.5683 39.1441 0.0000 0.0000 0.0000
# 2 19.5683 72.1952 39.1441 0.0000 0.0000 0.0000
# 3 39.1441 39.1441 111.9145 0.0000 0.0000 0.0000
# 4 0.0000 0.0000 0.0000 30.2024 0.0000 0.0000
# 5 0.0000 0.0000 0.0000 0.0000 30.2024 0.0000
# 6 0.0000 0.0000 0.0000 0.0000 0.0000 17.0930
#
#
#
# Elastic Compliance Matrix: (Units=1/GPa)
#
#
# Indices 1 2 3 4 5 6 
#
# 1 0.017267 -0.001735 -0.005433 0.000000 0.000000 0.000000
# 2 -0.001735 0.017267 -0.005433 0.000000 0.000000 0.000000
# 3 -0.005433 -0.005433 0.012736 0.000000 0.000000 0.000000
# 4 0.000000 0.000000 0.000000 0.033110 0.000000 0.000000
# 5 0.000000 0.000000 0.000000 0.000000 0.033110 0.000000
# 6 0.000000 0.000000 0.000000 0.000000 0.000000 0.058504
#
#
# Mechanical properties :
#
#
# Convention : Reuss Voigt Hill
#
# Bulk Modulus (GPa) = 45.31078 50.22422 47.76750
# Shear Modulus (GPa) = 24.44383 26.06277 25.25330
#
# Velocity S-wave (km/s) = 3.44317 3.55536 3.49971
# Velocity P-wave (km/s) = 6.14680 6.41975 6.28476
#
# Compressibility (1/GPa) = 0.02206980
#
# Stress axis : x y z
#
# Youngs Moduli (GPa) = 57.91344 57.91344 78.51853
#
# Poissons Ratio (x) = 0.10045 0.42658
# Poissons Ratio (y) = 0.10045 0.42658
# Poissons Ratio (z) = 0.31463 0.31463
#
# Static dielectric constant tensor:
#      x y z
#    x 1.782640 0.000000 0.000000 
#    y 0.000000 1.782640 0.000000 
#    z 0.000000 0.000000 1.857740 
# 
# From -- ./inp_files/10159.got.cif
#   From: 2010.05.17/outbox.cif.g08.bks.cpg/sg142_6_cif.got.tgz:10159.got - 2010.05.20 13:39:18.
