data_PCOD9573090
_publ_section_title
;
Structure prediction by ZEFSAII (Michael W. Deem and Ramdas Pophale) SiO2 
 PCOD9573090
Probable space group: I 41/A M D
;
_chemical_formula_sum "Si O2"
_cell_formula_units_Z 96
_cell_length_a 16.329398
_cell_length_b 16.329398
_cell_length_c 20.908287
_cell_angle_alpha 90.000000
_cell_angle_beta 90.000000
_cell_angle_gamma 90.000000
_cell_volume 5575.178818
_symmetry_space_group_name_H-M "I 41/A M D"
_symmetry_group_IT_number 141
_space_group.IT_coordinate_system_code '2'
_symmetry_cell_setting 'tetragonal'
loop_
_space_group_symop_operation_xyz
x,y,z
1/4-y,3/4+x,1/4+z
-x,1/2-y,z
1/4+y,1/4-x,3/4+z
x,-y,-z
-x,1/2+y,-z
1/4+y,3/4+x,1/4-z
1/4-y,1/4-x,3/4-z
-x,-y,-z
3/4+y,1/4-x,3/4-z
x,1/2+y,-z
3/4-y,3/4+x,1/4-z
-x,y,z
x,1/2-y,z
3/4-y,1/4-x,3/4+z
3/4+y,3/4+x,1/4+z
1/2+x,1/2+y,1/2+z
3/4-y,1/4+x,3/4+z
1/2-x,-y,1/2+z
3/4+y,3/4-x,1/4+z
1/2+x,1/2-y,1/2-z
1/2-x,y,1/2-z
3/4+y,1/4+x,3/4-z
3/4-y,3/4-x,1/4-z
1/2-x,1/2-y,1/2-z
1/4+y,3/4-x,1/4-z
1/2+x,y,1/2-z
1/4-y,1/4+x,3/4-z
1/2-x,1/2+y,1/2+z
1/2+x,-y,1/2+z
1/4-y,3/4-x,1/4+z
1/4+y,1/4+x,3/4+z
loop_
_atom_site_type_symbol
_atom_site_label
_atom_site_fract_x
_atom_site_fract_y
_atom_site_fract_z
Si Si1 0.409071 0.400714 0.506578
Si Si2 0.744948 0.560794 0.059857
Si Si3 0.591643 0.346434 0.889222
O O1 0.412027 0.500000 0.500000
O O2 0.500000 0.375081 0.530026
O O3 0.327385 0.385532 0.547553
O O4 0.396495 0.363524 0.436142
O O5 0.761477 0.511477 0.125000
O O6 0.663047 0.611549 0.070797
O O7 0.736427 0.500000 0.000000
O O8 0.500000 0.378860 0.900603
O O9 0.591891 0.250000 0.903336
#
# Coordination Sequence:
#
# PCOD9573090 Si02
#       3
#    32  32  32
#     4   9  17  33  58  84 113 143 181 235 296 357
#     4  11  20  35  57  86 115 150 194 235 291 343
#     4  10  21  37  57  83 116 155 194 236 291 353
#
# _framework density 17.219179
#
# number of rings (size 3 to 8) (size 9 to 14) (size 15 to 20)
#    0.000    2.000    6.667    0.000    0.000    2.000 
#    0.000    0.000    0.000    0.000    0.000    2.333 
#    0.000    0.000    0.000    0.000    0.000    0.000 
#
# Total GULP energy -267390.090581 kJ/mol
# GULP energy per Si atom -5570.626887 kJ/mol
# Density = 1.717999 g / cm^3
# Si number density = 17.219179 Si / 1000 Ang^3
#
#
#
# Elastic Constant Matrix: (Units=GPa)
#
#
# Indices 1 2 3 4 5 6 
#
# 1 127.4998 42.7193 43.3247 0.0000 0.0000 0.0000
# 2 42.7193 127.4998 43.3247 0.0000 0.0000 0.0000
# 3 43.3247 43.3247 87.8652 0.0000 0.0000 0.0000
# 4 0.0000 0.0000 0.0000 25.1747 0.0000 0.0000
# 5 0.0000 0.0000 0.0000 0.0000 25.1747 0.0000
# 6 0.0000 0.0000 0.0000 0.0000 0.0000 26.2246
#
#
#
# Elastic Compliance Matrix: (Units=1/GPa)
#
#
# Indices 1 2 3 4 5 6 
#
# 1 0.009819 -0.001976 -0.003867 0.000000 0.000000 0.000000
# 2 -0.001976 0.009819 -0.003867 0.000000 0.000000 0.000000
# 3 -0.003867 -0.003867 0.015195 0.000000 0.000000 0.000000
# 4 0.000000 0.000000 0.000000 0.039722 0.000000 0.000000
# 5 0.000000 0.000000 0.000000 0.000000 0.039722 0.000000
# 6 0.000000 0.000000 0.000000 0.000000 0.000000 0.038132
#
#
# Mechanical properties :
#
#
# Convention : Reuss Voigt Hill
#
# Bulk Modulus (GPa) = 64.88406 66.84470 65.86438
# Shear Modulus (GPa) = 28.25343 29.54787 28.90065
#
# Velocity S-wave (km/s) = 4.05509 4.14694 4.10127
# Velocity P-wave (km/s) = 7.72580 7.86344 7.79493
#
# Compressibility (1/GPa) = 0.01541211
#
# Stress axis : x y z
#
# Youngs Moduli (GPa) = 101.83984 101.83984 65.81092
#
# Poissons Ratio (x) = 0.20122 0.25452
# Poissons Ratio (y) = 0.20122 0.25452
# Poissons Ratio (z) = 0.39386 0.39386
#
# Static dielectric constant tensor:
#      x y z
#    x 1.613990 0.000000 0.000000 
#    y 0.000000 1.613990 0.000000 
#    z 0.000000 0.000000 1.572940 
# 
# From -- ./inp_files/7641.got.cif
#   From: 2010.05.17/outbox.cif.g08.bks.cpg/sg141_4_cif.got.tgz:7641.got - 2010.05.20 13:30:51.
