data_PCOD9573440
_publ_section_title
;
Structure prediction by ZEFSAII (Michael W. Deem and Ramdas Pophale) SiO2 
 PCOD9573440
Probable space group: I 41/A C D
;
_chemical_formula_sum "Si O2"
_cell_formula_units_Z 128
_cell_length_a 15.888328
_cell_length_b 15.888328
_cell_length_c 22.516655
_cell_angle_alpha 90.000000
_cell_angle_beta 90.000000
_cell_angle_gamma 90.000000
_cell_volume 5684.081120
_symmetry_space_group_name_H-M "I 41/A C D"
_symmetry_group_IT_number 142
_space_group.IT_coordinate_system_code '2'
_symmetry_cell_setting 'tetragonal'
loop_
_space_group_symop_operation_xyz
x,y,z
1/4-y,3/4+x,1/4+z
-x,1/2-y,z
1/4+y,1/4-x,3/4+z
x,-y,1/2-z
1/2-x,y,-z
3/4+y,1/4+x,1/4-z
1/4-y,1/4-x,1/4-z
-x,-y,-z
3/4+y,1/4-x,3/4-z
x,1/2+y,-z
3/4-y,3/4+x,1/4-z
-x,y,1/2+z
1/2+x,-y,z
1/4-y,3/4-x,3/4+z
3/4+y,3/4+x,3/4+z
1/2+x,1/2+y,1/2+z
3/4-y,1/4+x,3/4+z
1/2-x,-y,1/2+z
3/4+y,3/4-x,1/4+z
1/2+x,1/2-y,-z
-x,1/2+y,1/2-z
1/4+y,3/4+x,3/4-z
3/4-y,3/4-x,3/4-z
1/2-x,1/2-y,1/2-z
1/4+y,3/4-x,1/4-z
1/2+x,y,1/2-z
1/4-y,1/4+x,3/4-z
1/2-x,1/2+y,z
x,1/2-y,1/2+z
3/4-y,1/4-x,1/4+z
1/4+y,1/4+x,1/4+z
loop_
_atom_site_type_symbol
_atom_site_label
_atom_site_fract_x
_atom_site_fract_y
_atom_site_fract_z
Si Si1 0.598968 0.161839 0.472915
Si Si2 0.381763 0.806901 0.390664
Si Si3 0.102283 0.153957 0.557106
Si Si4 0.089349 0.983371 0.034562
O O1 0.610300 0.158885 0.543656
O O2 0.499915 0.161270 0.453235
O O3 0.635371 0.250805 0.451900
O O4 0.634763 0.071950 0.454451
O O5 0.458591 0.847829 0.354383
O O6 0.302818 0.820467 0.349333
O O7 0.120280 0.129721 0.625000
O O8 0.131971 0.085606 0.508728
O O9 0.000000 0.000000 0.000000
#
# Coordination Sequence:
#
# PCOD9573440 Si02
#       4
#    32  32  32  32
#     4  10  18  31  53  86 122 155 204 259 310 382
#     4  11  16  29  54  83 119 157 199 253 309 358
#     4  10  18  32  55  85 124 156 193 259 331 372
#     4  10  19  31  52  92 121 150 215 261 306 387
#
# _framework density 22.519031999999999
#
# number of rings (size 3 to 8) (size 9 to 14) (size 15 to 20)
#    0.000    1.750    7.500    3.000    0.000    0.000 
#    0.000    0.000    0.000   21.000    0.000   24.500 
#    0.000    0.000    0.000    0.000    0.000    0.000 
#
# Total GULP energy -356915.942122 kJ/mol
# GULP energy per Si atom -5576.811596 kJ/mol
# Density = 2.246778 g / cm^3
# Si number density = 22.519032 Si / 1000 Ang^3
#
#
#
# Elastic Constant Matrix: (Units=GPa)
#
#
# Indices 1 2 3 4 5 6 
#
# 1 86.2210 -0.2621 18.6736 0.0000 0.0000 0.0000
# 2 -0.2621 86.2214 18.6740 0.0000 0.0000 0.0000
# 3 18.6736 18.6740 96.5528 0.0000 0.0000 0.0000
# 4 0.0000 0.0000 0.0000 2.3822 0.0000 0.0000
# 5 0.0000 0.0000 0.0000 0.0000 2.3822 0.0000
# 6 0.0000 0.0000 0.0000 0.0000 0.0000 -5.8148
#
#
#
# Elastic Compliance Matrix: (Units=1/GPa)
#
#
# Indices 1 2 3 4 5 6 
#
# 1 0.012132 0.000569 -0.002456 0.000000 0.000000 0.000000
# 2 0.000569 0.012132 -0.002456 0.000000 0.000000 0.000000
# 3 -0.002456 -0.002456 0.011307 0.000000 0.000000 0.000000
# 4 0.000000 0.000000 0.000000 0.419783 0.000000 0.000000
# 5 0.000000 0.000000 0.000000 0.000000 0.419773 0.000000
# 6 0.000000 0.000000 0.000000 0.000000 0.000000 -0.171975
#
#
# Mechanical properties :
#
#
# Convention : Reuss Voigt Hill
#
# Bulk Modulus (GPa) = 37.19816 38.12958 37.66387
# Shear Modulus (GPa) = 6.93673 15.25057 11.09365
#
# Velocity S-wave (km/s) = 1.75701 2.60519 2.22194
# Velocity P-wave (km/s) = 4.54648 5.10081 4.83160
#
# Compressibility (1/GPa) = 0.02688305
#
# Stress axis : x y z
#
# Youngs Moduli (GPa) = 82.42778 82.42807 88.43938
#
# Poissons Ratio (x) = -0.04689 0.21724
# Poissons Ratio (y) = -0.04689 0.21724
# Poissons Ratio (z) = 0.20247 0.20248
#
# Static dielectric constant tensor:
#      x y z
#    x 1.899830 0.000000 0.000000 
#    y 0.000000 1.899830 0.000000 
#    z 0.000000 0.000000 1.768180 
# 
# From -- ./inp_files/10008.got.cif
#   From: 2010.05.17/outbox.cif.g08.bks.cpg/sg142_6_cif.got.tgz:10008.got - 2010.05.20 13:39:18.
