data_PCOD9573822
_publ_section_title
;
Structure prediction by ZEFSAII (Michael W. Deem and Ramdas Pophale) SiO2 
 PCOD9573822
Probable space group: I 41/A C D
;
_chemical_formula_sum "Si O2"
_cell_formula_units_Z 216
_cell_length_a 19.197825
_cell_length_b 19.197825
_cell_length_c 29.626434
_cell_angle_alpha 90.000000
_cell_angle_beta 90.000000
_cell_angle_gamma 90.000000
_cell_volume 10919.014370
_symmetry_space_group_name_H-M "I 41/A C D"
_symmetry_group_IT_number 142
_space_group.IT_coordinate_system_code '2'
_symmetry_cell_setting 'tetragonal'
loop_
_space_group_symop_operation_xyz
x,y,z
1/4-y,3/4+x,1/4+z
-x,1/2-y,z
1/4+y,1/4-x,3/4+z
x,-y,1/2-z
1/2-x,y,-z
3/4+y,1/4+x,1/4-z
1/4-y,1/4-x,1/4-z
-x,-y,-z
3/4+y,1/4-x,3/4-z
x,1/2+y,-z
3/4-y,3/4+x,1/4-z
-x,y,1/2+z
1/2+x,-y,z
1/4-y,3/4-x,3/4+z
3/4+y,3/4+x,3/4+z
1/2+x,1/2+y,1/2+z
3/4-y,1/4+x,3/4+z
1/2-x,-y,1/2+z
3/4+y,3/4-x,1/4+z
1/2+x,1/2-y,-z
-x,1/2+y,1/2-z
1/4+y,3/4+x,3/4-z
3/4-y,3/4-x,3/4-z
1/2-x,1/2-y,1/2-z
1/4+y,3/4-x,1/4-z
1/2+x,y,1/2-z
1/4-y,1/4+x,3/4-z
1/2-x,1/2+y,z
x,1/2-y,1/2+z
3/4-y,1/4-x,1/4+z
1/4+y,1/4+x,1/4+z
loop_
_atom_site_type_symbol
_atom_site_label
_atom_site_fract_x
_atom_site_fract_y
_atom_site_fract_z
Si Si1 0.906665 0.000000 0.250000
Si Si2 0.302590 0.206625 0.962775
Si Si3 0.110313 0.718951 0.630879
Si Si4 0.982608 0.072348 0.974140
Si Si5 0.000000 0.250000 0.125000
Si Si6 0.648787 0.090330 0.679846
Si Si7 0.887452 0.202302 0.694433
Si Si8 0.105135 0.972391 0.380832
O O1 0.857495 0.978024 0.209179
O O2 0.963132 0.944751 0.270432
O O3 0.378419 0.172660 0.957471
O O4 0.270006 0.192530 0.913314
O O5 0.250000 0.173438 0.000000
O O6 0.079737 0.791824 0.611976
O O7 0.156996 0.732758 0.675466
O O8 0.150990 0.676283 0.593067
O O9 0.901466 0.083162 0.964934
O O10 0.006605 0.130104 0.009646
O O11 0.000000 0.000000 0.000000
O O12 0.066333 0.242515 0.157639
O O13 0.707961 0.103441 0.642901
O O14 0.811675 0.189233 0.671459
O O15 0.162775 0.912775 0.375000
#
# Coordination Sequence:
#
# PCOD9573822 Si02
#       8
#    16  32  32  32   8  32  32  32
#     4  10  26  40  62  98 130 170 216 278 330 394
#     4   9  22  40  68  91 127 169 224 262 329 408
#     4   9  22  40  66  97 127 168 218 272 338 394
#     4  11  24  40  66  99 132 166 217 275 333 400
#     4  12  24  40  68  92 134 160 224 280 324 408
#     4  11  24  43  64  95 138 171 216 281 327 403
#     4  11  23  40  64  99 124 175 215 275 336 396
#     4  10  21  45  63  91 132 175 224 261 332 407
#
# _framework density 19.782005999999999
#
# number of rings (size 3 to 8) (size 9 to 14) (size 15 to 20)
#    0.444    1.333    3.704    0.000   10.370    1.185 
#    8.000    0.000    1.630    0.000    0.000    0.000 
#    0.000    0.000    0.000    0.000    0.000    0.000 
#
# Total GULP energy -601273.131315 kJ/mol
# GULP energy per Si atom -5567.343808 kJ/mol
# Density = 1.973698 g / cm^3
# Si number density = 19.782006 Si / 1000 Ang^3
#
#
#
# Elastic Constant Matrix: (Units=GPa)
#
#
# Indices 1 2 3 4 5 6 
#
# 1 43.8822 1.0114 22.4199 0.0000 0.0000 0.0000
# 2 1.0114 43.8822 22.4199 0.0000 0.0000 0.0000
# 3 22.4199 22.4199 77.4178 0.0000 0.0000 0.0000
# 4 0.0000 0.0000 0.0000 31.6135 0.0000 0.0000
# 5 0.0000 0.0000 0.0000 0.0000 31.6135 0.0000
# 6 0.0000 0.0000 0.0000 0.0000 0.0000 16.5753
#
#
#
# Elastic Compliance Matrix: (Units=1/GPa)
#
#
# Indices 1 2 3 4 5 6 
#
# 1 0.027333 0.004007 -0.009076 0.000000 0.000000 0.000000
# 2 0.004007 0.027333 -0.009076 0.000000 0.000000 0.000000
# 3 -0.009076 -0.009076 0.018174 0.000000 0.000000 0.000000
# 4 0.000000 0.000000 0.000000 0.031632 0.000000 0.000000
# 5 0.000000 0.000000 0.000000 0.000000 0.031632 0.000000
# 6 0.000000 0.000000 0.000000 0.000000 0.000000 0.060331
#
#
# Mechanical properties :
#
#
# Convention : Reuss Voigt Hill
#
# Bulk Modulus (GPa) = 22.44679 28.54272 25.49475
# Shear Modulus (GPa) = 20.87038 23.91587 22.39313
#
# Velocity S-wave (km/s) = 3.25163 3.48080 3.36816
# Velocity P-wave (km/s) = 5.04670 5.53304 5.29546
#
# Compressibility (1/GPa) = 0.04454981
#
# Stress axis : x y z
#
# Youngs Moduli (GPa) = 36.58592 36.58592 55.02475
#
# Poissons Ratio (x) = -0.14660 0.49940
# Poissons Ratio (y) = -0.14660 0.49940
# Poissons Ratio (z) = 0.33205 0.33205
#
# Static dielectric constant tensor:
#      x y z
#    x 1.743690 0.000000 0.000000 
#    y 0.000000 1.743690 0.000000 
#    z 0.000000 0.000000 1.716130 
# 
# From -- ./inp_files/11658.got.cif
#   From: 2010.05.17/outbox.cif.g08.bks.cpg/sg142_6_cif.got.tgz:11658.got - 2010.05.20 13:39:18.
