data_PCOD9573689
_publ_section_title
;
Structure prediction by ZEFSAII (Michael W. Deem and Ramdas Pophale) SiO2 
 PCOD9573689
Probable space group: I 41/A C D
;
_chemical_formula_sum "Si O2"
_cell_formula_units_Z 176
_cell_length_a 18.036895
_cell_length_b 18.036895
_cell_length_c 25.981149
_cell_angle_alpha 90.000000
_cell_angle_beta 90.000000
_cell_angle_gamma 90.000000
_cell_volume 8452.436324
_symmetry_space_group_name_H-M "I 41/A C D"
_symmetry_group_IT_number 142
_space_group.IT_coordinate_system_code '2'
_symmetry_cell_setting 'tetragonal'
loop_
_space_group_symop_operation_xyz
x,y,z
1/4-y,3/4+x,1/4+z
-x,1/2-y,z
1/4+y,1/4-x,3/4+z
x,-y,1/2-z
1/2-x,y,-z
3/4+y,1/4+x,1/4-z
1/4-y,1/4-x,1/4-z
-x,-y,-z
3/4+y,1/4-x,3/4-z
x,1/2+y,-z
3/4-y,3/4+x,1/4-z
-x,y,1/2+z
1/2+x,-y,z
1/4-y,3/4-x,3/4+z
3/4+y,3/4+x,3/4+z
1/2+x,1/2+y,1/2+z
3/4-y,1/4+x,3/4+z
1/2-x,-y,1/2+z
3/4+y,3/4-x,1/4+z
1/2+x,1/2-y,-z
-x,1/2+y,1/2-z
1/4+y,3/4+x,3/4-z
3/4-y,3/4-x,3/4-z
1/2-x,1/2-y,1/2-z
1/4+y,3/4-x,1/4-z
1/2+x,y,1/2-z
1/4-y,1/4+x,3/4-z
1/2-x,1/2+y,z
x,1/2-y,1/2+z
3/4-y,1/4-x,1/4+z
1/4+y,1/4+x,1/4+z
loop_
_atom_site_type_symbol
_atom_site_label
_atom_site_fract_x
_atom_site_fract_y
_atom_site_fract_z
Si Si1 0.372295 0.500000 0.250000
Si Si2 0.000000 0.250000 0.294007
Si Si3 0.639667 0.389667 0.375000
Si Si4 0.607831 0.533900 0.507496
Si Si5 0.101328 0.448811 0.383147
Si Si6 0.137834 0.204931 0.726915
Si Si7 0.154876 0.804435 0.589894
O O1 0.319421 0.564184 0.225815
O O2 0.422284 0.543905 0.291450
O O3 0.063563 0.284318 0.258523
O O4 0.035126 0.180344 0.324315
O O5 0.630111 0.475307 0.359437
O O6 0.585466 0.375270 0.422728
O O7 0.604378 0.545421 0.445285
O O8 0.593184 0.446565 0.509834
O O9 0.536536 0.575826 0.530632
O O10 0.148887 0.375484 0.373146
O O11 0.017452 0.437439 0.366326
#
# Coordination Sequence:
#
# PCOD9573689 Si02
#       7
#    16  16  16  32  32  32  32
#     4  10  20  40  62 100 124 166 228 282 306 398
#     4  12  22  40  66 100 124 172 216 265 331 398
#     4  10  24  41  64  92 134 171 214 268 330 404
#     4   9  20  43  67  86 131 175 216 262 334 389
#     4  10  21  42  61  94 130 168 213 275 319 390
#     4  10  21  41  62  92 127 171 213 261 324 399
#     4  11  23  39  67  95 131 164 224 273 327 383
#
# _framework density 20.822399000000001
#
# number of rings (size 3 to 8) (size 9 to 14) (size 15 to 20)
#    0.000    1.818    3.636    1.091    2.545    0.364 
#    9.818    1.818    0.000    0.000    0.000    0.000 
#    0.000    0.000    0.000    0.000    0.000    0.000 
#
# Total GULP energy -491530.759130 kJ/mol
# GULP energy per Si atom -5585.576808 kJ/mol
# Density = 2.077501 g / cm^3
# Si number density = 20.822399 Si / 1000 Ang^3
#
#
#
# Elastic Constant Matrix: (Units=GPa)
#
#
# Indices 1 2 3 4 5 6 
#
# 1 129.4981 41.0656 33.7323 0.0000 0.0000 0.0000
# 2 41.0656 129.4981 33.7323 0.0000 0.0000 0.0000
# 3 33.7323 33.7323 61.7049 0.0000 0.0000 0.0000
# 4 0.0000 0.0000 0.0000 25.5331 0.0000 0.0000
# 5 0.0000 0.0000 0.0000 0.0000 25.5331 0.0000
# 6 0.0000 0.0000 0.0000 0.0000 0.0000 36.3576
#
#
#
# Elastic Compliance Matrix: (Units=1/GPa)
#
#
# Indices 1 2 3 4 5 6 
#
# 1 0.009394 -0.001914 -0.004089 0.000000 0.000000 0.000000
# 2 -0.001914 0.009394 -0.004089 0.000000 0.000000 0.000000
# 3 -0.004089 -0.004089 0.020677 0.000000 0.000000 0.000000
# 4 0.000000 0.000000 0.000000 0.039165 0.000000 0.000000
# 5 0.000000 0.000000 0.000000 0.000000 0.039165 0.000000
# 6 0.000000 0.000000 0.000000 0.000000 0.000000 0.027505
#
#
# Mechanical properties :
#
#
# Convention : Reuss Voigt Hill
#
# Bulk Modulus (GPa) = 51.86531 59.75129 55.80830
# Shear Modulus (GPa) = 29.08472 31.62951 30.35712
#
# Velocity S-wave (km/s) = 3.74143 3.90168 3.82240
# Velocity P-wave (km/s) = 6.60507 7.00396 6.80744
#
# Compressibility (1/GPa) = 0.01928071
#
# Stress axis : x y z
#
# Youngs Moduli (GPa) = 106.44836 106.44836 48.36251
#
# Poissons Ratio (x) = 0.20372 0.19777
# Poissons Ratio (y) = 0.20372 0.19777
# Poissons Ratio (z) = 0.43530 0.43530
#
# Static dielectric constant tensor:
#      x y z
#    x 1.775060 0.000000 0.000000 
#    y 0.000000 1.775060 0.000000 
#    z 0.000000 0.000000 1.761430 
# 
# From -- ./inp_files/11491.got.cif
#   From: 2010.05.17/outbox.cif.g08.bks.cpg/sg142_6_cif.got.tgz:11491.got - 2010.05.20 13:39:18.
