data_PCOD9573146
_publ_section_title
;
Structure prediction by ZEFSAII (Michael W. Deem and Ramdas Pophale) SiO2 
 PCOD9573146
Probable space group: I 41/A M D
;
_chemical_formula_sum "Si O2"
_cell_formula_units_Z 176
_cell_length_a 18.531069
_cell_length_b 18.531069
_cell_length_c 27.558402
_cell_angle_alpha 90.000000
_cell_angle_beta 90.000000
_cell_angle_gamma 90.000000
_cell_volume 9463.569530
_symmetry_space_group_name_H-M "I 41/A M D"
_symmetry_group_IT_number 141
_space_group.IT_coordinate_system_code '2'
_symmetry_cell_setting 'tetragonal'
loop_
_space_group_symop_operation_xyz
x,y,z
1/4-y,3/4+x,1/4+z
-x,1/2-y,z
1/4+y,1/4-x,3/4+z
x,-y,-z
-x,1/2+y,-z
1/4+y,3/4+x,1/4-z
1/4-y,1/4-x,3/4-z
-x,-y,-z
3/4+y,1/4-x,3/4-z
x,1/2+y,-z
3/4-y,3/4+x,1/4-z
-x,y,z
x,1/2-y,z
3/4-y,1/4-x,3/4+z
3/4+y,3/4+x,1/4+z
1/2+x,1/2+y,1/2+z
3/4-y,1/4+x,3/4+z
1/2-x,-y,1/2+z
3/4+y,3/4-x,1/4+z
1/2+x,1/2-y,1/2-z
1/2-x,y,1/2-z
3/4+y,1/4+x,3/4-z
3/4-y,3/4-x,1/4-z
1/2-x,1/2-y,1/2-z
1/4+y,3/4-x,1/4-z
1/2+x,y,1/2-z
1/4-y,1/4+x,3/4-z
1/2-x,1/2+y,1/2+z
1/2+x,-y,1/2+z
1/4-y,3/4-x,1/4+z
1/4+y,1/4+x,3/4+z
loop_
_atom_site_type_symbol
_atom_site_label
_atom_site_fract_x
_atom_site_fract_y
_atom_site_fract_z
Si Si1 0.085799 0.833418 0.488407
Si Si2 0.825539 0.336090 0.334992
Si Si3 0.083733 0.164221 0.060268
Si Si4 0.414367 0.428417 0.530991
Si Si5 0.684007 0.434007 0.625000
Si Si6 0.849643 0.083031 0.599772
O O1 0.102179 0.750000 0.500581
O O2 0.100361 0.886463 0.533324
O O3 0.128366 0.860570 0.441710
O O4 0.000000 0.837626 0.477720
O O5 0.872005 0.377996 0.375000
O O6 0.827346 0.250000 0.343287
O O7 0.743639 0.363905 0.337286
O O8 0.088904 0.250000 0.063921
O O9 0.136232 0.128455 0.099220
O O10 0.000000 0.142923 0.070485
O O11 0.099898 0.137038 0.006064
O O12 0.395043 0.500000 0.500000
O O13 0.500000 0.431785 0.540940
O O14 0.371252 0.423771 0.580761
O O15 0.676032 0.514364 0.645980
#
# Coordination Sequence:
#
# PCOD9573146 Si02
#       6
#    32  32  32  32  16  32
#     4  10  22  40  63  90 120 159 211 263 309 371
#     4  11  23  40  60  86 122 166 207 256 316 371
#     4  10  21  40  68  96 123 162 212 264 318 382
#     4  10  22  43  66  90 128 170 211 262 325 383
#     4  12  26  40  66  95 129 170 210 254 316 386
#     4  12  23  39  60  92 128 165 203 259 316 375
#
# _framework density 18.597632999999998
#
# number of rings (size 3 to 8) (size 9 to 14) (size 15 to 20)
#    0.000    1.273    2.727    3.273    0.000    8.182 
#    0.000    1.818    0.000    0.000    0.000    0.000 
#    0.000    0.000    0.000    0.000    0.000    0.000 
#
# Total GULP energy -491915.342914 kJ/mol
# GULP energy per Si atom -5589.947079 kJ/mol
# Density = 1.855530 g / cm^3
# Si number density = 18.597633 Si / 1000 Ang^3
#
#
#
# Elastic Constant Matrix: (Units=GPa)
#
#
# Indices 1 2 3 4 5 6 
#
# 1 84.8692 42.8623 55.3349 0.0000 0.0000 0.0000
# 2 42.8623 84.8696 55.3327 0.0000 0.0000 0.0000
# 3 55.3349 55.3327 107.5234 0.0000 0.0000 0.0000
# 4 0.0000 0.0000 0.0000 47.8532 0.0000 0.0000
# 5 0.0000 0.0000 0.0000 0.0000 47.8592 0.0000
# 6 0.0000 0.0000 0.0000 0.0000 0.0000 28.5514
#
#
#
# Elastic Compliance Matrix: (Units=1/GPa)
#
#
# Indices 1 2 3 4 5 6 
#
# 1 0.018967 -0.004839 -0.007271 0.000000 0.000000 0.000000
# 2 -0.004839 0.018966 -0.007270 0.000000 0.000000 0.000000
# 3 -0.007271 -0.007270 0.016784 0.000000 0.000000 0.000000
# 4 0.000000 0.000000 0.000000 0.020897 0.000000 0.000000
# 5 0.000000 0.000000 0.000000 0.000000 0.020895 0.000000
# 6 0.000000 0.000000 0.000000 0.000000 0.000000 0.035025
#
#
# Mechanical properties :
#
#
# Convention : Reuss Voigt Hill
#
# Bulk Modulus (GPa) = 62.66700 64.92466 63.79583
# Shear Modulus (GPa) = 28.47169 33.10159 30.78664
#
# Velocity S-wave (km/s) = 3.91696 4.22344 4.07308
# Velocity P-wave (km/s) = 7.36384 7.66611 7.51649
#
# Compressibility (1/GPa) = 0.01595736
#
# Stress axis : x y z
#
# Youngs Moduli (GPa) = 52.72213 52.72472 59.58185
#
# Poissons Ratio (x) = 0.25511 0.43323
# Poissons Ratio (y) = 0.25510 0.43317
# Poissons Ratio (z) = 0.38335 0.38332
#
# Static dielectric constant tensor:
#      x y z
#    x 1.631770 0.000000 0.000000 
#    y 0.000000 1.631770 0.000000 
#    z 0.000000 0.000000 1.617920 
# 
# From -- ./inp_files/12863.got.cif
#   From: 2010.05.17/outbox.cif.g08.bks.cpg/sg141_7_cif.got.tgz:12863.got - 2010.05.20 13:30:51.
