data_PCOD9573056
_publ_section_title
;
Structure prediction by ZEFSAII (Michael W. Deem and Ramdas Pophale) SiO2 
 PCOD9573056
Probable space group: I 41/A M D
;
_chemical_formula_sum "Si O2"
_cell_formula_units_Z 160
_cell_length_a 18.630896
_cell_length_b 18.630896
_cell_length_c 25.351889
_cell_angle_alpha 90.000000
_cell_angle_beta 90.000000
_cell_angle_gamma 90.000000
_cell_volume 8799.901435
_symmetry_space_group_name_H-M "I 41/A M D"
_symmetry_group_IT_number 141
_space_group.IT_coordinate_system_code '2'
_symmetry_cell_setting 'tetragonal'
loop_
_space_group_symop_operation_xyz
x,y,z
1/4-y,3/4+x,1/4+z
-x,1/2-y,z
1/4+y,1/4-x,3/4+z
x,-y,-z
-x,1/2+y,-z
1/4+y,3/4+x,1/4-z
1/4-y,1/4-x,3/4-z
-x,-y,-z
3/4+y,1/4-x,3/4-z
x,1/2+y,-z
3/4-y,3/4+x,1/4-z
-x,y,z
x,1/2-y,z
3/4-y,1/4-x,3/4+z
3/4+y,3/4+x,1/4+z
1/2+x,1/2+y,1/2+z
3/4-y,1/4+x,3/4+z
1/2-x,-y,1/2+z
3/4+y,3/4-x,1/4+z
1/2+x,1/2-y,1/2-z
1/2-x,y,1/2-z
3/4+y,1/4+x,3/4-z
3/4-y,3/4-x,1/4-z
1/2-x,1/2-y,1/2-z
1/4+y,3/4-x,1/4-z
1/2+x,y,1/2-z
1/4-y,1/4+x,3/4-z
1/2-x,1/2+y,1/2+z
1/2+x,-y,1/2+z
1/4-y,3/4-x,1/4+z
1/4+y,1/4+x,3/4+z
loop_
_atom_site_type_symbol
_atom_site_label
_atom_site_fract_x
_atom_site_fract_y
_atom_site_fract_z
Si Si1 0.917454 0.422465 0.023600
Si Si2 0.196642 0.334556 0.085636
Si Si3 0.290549 0.334210 0.986421
Si Si4 0.687309 0.168535 0.292857
Si Si5 0.585356 0.109110 0.679605
O O1 0.909750 0.367291 0.975038
O O2 0.000000 0.429165 0.041091
O O3 0.894498 0.500000 0.000000
O O4 0.866593 0.388800 0.068346
O O5 0.175942 0.250000 0.075997
O O6 0.213881 0.341973 0.147074
O O7 0.262002 0.349282 0.045666
O O8 0.305981 0.250000 0.982484
O O9 0.358623 0.379500 0.970306
O O10 0.221877 0.349747 0.949254
O O11 0.658139 0.250000 0.290089
O O12 0.750000 0.162731 0.250000
O O13 0.500000 0.118425 0.674697
O O14 0.622975 0.127026 0.625000
#
# Coordination Sequence:
#
# PCOD9573056 Si02
#       5
#    32  32  32  32  32
#     4  10  21  34  52  82 117 153 194 239 282 333
#     4   9  20  39  58  78 112 153 187 231 292 349
#     4   9  20  38  58  84 116 148 186 235 285 339
#     4  10  22  40  61  86 113 145 189 239 292 352
#     4  10  21  36  55  80 116 158 196 237 281 334
#
# _framework density 18.182022
#
# number of rings (size 3 to 8) (size 9 to 14) (size 15 to 20)
#    0.000    2.400    0.000    2.400    2.800    7.800 
#    0.000    2.000    0.000    0.000    0.000    5.600 
#    0.000    0.000    0.000    0.000    0.000    0.000 
#
# Total GULP energy -446360.632354 kJ/mol
# GULP energy per Si atom -5579.507904 kJ/mol
# Density = 1.814064 g / cm^3
# Si number density = 18.182022 Si / 1000 Ang^3
#
#
#
# Elastic Constant Matrix: (Units=GPa)
#
#
# Indices 1 2 3 4 5 6 
#
# 1 71.0420 59.9595 51.9491 0.0000 0.0000 0.0000
# 2 59.9595 71.0441 51.9490 0.0000 0.0000 0.0000
# 3 51.9491 51.9490 142.3506 0.0000 0.0000 0.0000
# 4 0.0000 0.0000 0.0000 14.4652 0.0000 0.0000
# 5 0.0000 0.0000 0.0000 0.0000 14.4639 0.0000
# 6 0.0000 0.0000 0.0000 0.0000 0.0000 38.3870
#
#
#
# Elastic Compliance Matrix: (Units=1/GPa)
#
#
# Indices 1 2 3 4 5 6 
#
# 1 0.050484 -0.039740 -0.003921 0.000000 0.000000 0.000000
# 2 -0.039740 0.050482 -0.003920 0.000000 0.000000 0.000000
# 3 -0.003921 -0.003920 0.009886 0.000000 0.000000 0.000000
# 4 0.000000 0.000000 0.000000 0.069131 0.000000 0.000000
# 5 0.000000 0.000000 0.000000 0.000000 0.069138 0.000000
# 6 0.000000 0.000000 0.000000 0.000000 0.000000 0.026050
#
#
# Mechanical properties :
#
#
# Convention : Reuss Voigt Hill
#
# Bulk Modulus (GPa) = 63.73452 68.01689 65.87570
# Shear Modulus (GPa) = 13.31327 21.50182 17.40754
#
# Velocity S-wave (km/s) = 2.70889 3.44261 3.09755
# Velocity P-wave (km/s) = 6.70178 7.30015 7.00735
#
# Compressibility (1/GPa) = 0.01569009
#
# Stress axis : x y z
#
# Youngs Moduli (GPa) = 19.80815 19.80898 101.14979
#
# Poissons Ratio (x) = 0.78722 0.39659
# Poissons Ratio (y) = 0.78719 0.39651
# Poissons Ratio (z) = 0.07766 0.07765
#
# Static dielectric constant tensor:
#      x y z
#    x 1.615470 0.000000 0.000000 
#    y 0.000000 1.615470 0.000000 
#    z 0.000000 0.000000 1.636140 
# 
# From -- ./inp_files/12726.got.cif
#   From: 2010.05.17/outbox.cif.g08.bks.cpg/sg141_7_cif.got.tgz:12726.got - 2010.05.20 13:30:51.
