data_PCOD9573645
_publ_section_title
;
Structure prediction by ZEFSAII (Michael W. Deem and Ramdas Pophale) SiO2 
 PCOD9573645
Probable space group: I 41/A C D
;
_chemical_formula_sum "Si O2"
_cell_formula_units_Z 240
_cell_length_a 19.924312
_cell_length_b 19.924312
_cell_length_c 27.252431
_cell_angle_alpha 90.000000
_cell_angle_beta 90.000000
_cell_angle_gamma 90.000000
_cell_volume 10818.621240
_symmetry_space_group_name_H-M "I 41/A C D"
_symmetry_group_IT_number 142
_space_group.IT_coordinate_system_code '2'
_symmetry_cell_setting 'tetragonal'
loop_
_space_group_symop_operation_xyz
x,y,z
1/4-y,3/4+x,1/4+z
-x,1/2-y,z
1/4+y,1/4-x,3/4+z
x,-y,1/2-z
1/2-x,y,-z
3/4+y,1/4+x,1/4-z
1/4-y,1/4-x,1/4-z
-x,-y,-z
3/4+y,1/4-x,3/4-z
x,1/2+y,-z
3/4-y,3/4+x,1/4-z
-x,y,1/2+z
1/2+x,-y,z
1/4-y,3/4-x,3/4+z
3/4+y,3/4+x,3/4+z
1/2+x,1/2+y,1/2+z
3/4-y,1/4+x,3/4+z
1/2-x,-y,1/2+z
3/4+y,3/4-x,1/4+z
1/2+x,1/2-y,-z
-x,1/2+y,1/2-z
1/4+y,3/4+x,3/4-z
3/4-y,3/4-x,3/4-z
1/2-x,1/2-y,1/2-z
1/4+y,3/4-x,1/4-z
1/2+x,y,1/2-z
1/4-y,1/4+x,3/4-z
1/2-x,1/2+y,z
x,1/2-y,1/2+z
3/4-y,1/4-x,1/4+z
1/4+y,1/4+x,1/4+z
loop_
_atom_site_type_symbol
_atom_site_label
_atom_site_fract_x
_atom_site_fract_y
_atom_site_fract_z
Si Si1 0.544392 0.665961 0.965171
Si Si2 0.246854 0.996854 0.375000
Si Si3 0.098979 0.825512 0.932283
Si Si4 0.097131 0.483137 0.868603
Si Si5 0.565338 0.987412 0.467925
Si Si6 0.545672 0.436930 0.781461
Si Si7 0.395507 0.195730 0.060009
Si Si8 0.204723 0.432555 0.219556
O O1 0.572311 0.592273 0.958191
O O2 0.592689 0.723754 0.943791
O O3 0.471702 0.669586 0.939514
O O4 0.542043 0.678410 0.024518
O O5 0.262686 0.921244 0.359903
O O6 0.258486 0.044280 0.329182
O O7 0.079175 0.829175 0.875000
O O8 0.146667 0.761857 0.940818
O O9 0.142097 0.890140 0.949480
O O10 0.054377 0.514655 0.913178
O O11 0.094401 0.530162 0.820932
O O12 0.074521 0.409119 0.850532
O O13 0.631988 0.001468 0.499128
O O14 0.500000 0.000000 0.500000
O O15 0.517171 0.500000 0.750000
O O16 0.576826 0.387302 0.741502
O O17 0.187381 0.500000 0.250000
#
# Coordination Sequence:
#
# PCOD9573645 Si02
#       8
#    32  16  32  32  32  32  32  32
#     4   9  21  41  66  96 135 167 221 287 344 409
#     4  12  26  44  64  98 131 185 232 268 364 416
#     4  10  20  37  64  97 128 172 223 274 344 416
#     4  11  25  42  65  95 130 180 230 275 344 430
#     4  11  26  42  63 102 135 176 224 291 351 409
#     4   9  20  40  62  91 125 173 219 270 331 410
#     4   9  20  44  68  94 130 174 222 279 347 408
#     4  11  23  44  66  92 138 176 225 285 339 422
#
# _framework density 22.183973999999999
#
# number of rings (size 3 to 8) (size 9 to 14) (size 15 to 20)
#    0.000    1.867    2.000    0.400    5.600    4.800 
#    0.000    6.000    0.000    0.000    0.000    0.000 
#    0.000    0.000    0.000    0.000    0.000    0.000 
#
# Total GULP energy -669673.761522 kJ/mol
# GULP energy per Si atom -5580.614679 kJ/mol
# Density = 2.213348 g / cm^3
# Si number density = 22.183974 Si / 1000 Ang^3
#
#
#
# Elastic Constant Matrix: (Units=GPa)
#
#
# Indices 1 2 3 4 5 6 
#
# 1 60.3791 13.5534 27.3037 0.0000 0.0000 0.0000
# 2 13.5534 60.3791 27.3037 0.0000 0.0000 0.0000
# 3 27.3037 27.3037 150.6213 0.0000 0.0000 0.0000
# 4 0.0000 0.0000 0.0000 27.1958 0.0000 0.0000
# 5 0.0000 0.0000 0.0000 0.0000 27.1958 0.0000
# 6 0.0000 0.0000 0.0000 0.0000 0.0000 17.8806
#
#
#
# Elastic Compliance Matrix: (Units=1/GPa)
#
#
# Indices 1 2 3 4 5 6 
#
# 1 0.018486 -0.002869 -0.002831 0.000000 0.000000 0.000000
# 2 -0.002869 0.018486 -0.002831 0.000000 0.000000 0.000000
# 3 -0.002831 -0.002831 0.007666 0.000000 0.000000 0.000000
# 4 0.000000 0.000000 0.000000 0.036770 0.000000 0.000000
# 5 0.000000 0.000000 0.000000 0.000000 0.036770 0.000000
# 6 0.000000 0.000000 0.000000 0.000000 0.000000 0.055927
#
#
# Mechanical properties :
#
#
# Convention : Reuss Voigt Hill
#
# Bulk Modulus (GPa) = 36.26413 45.30012 40.78212
# Shear Modulus (GPa) = 24.95509 28.00235 26.47872
#
# Velocity S-wave (km/s) = 3.35761 3.55671 3.45859
# Velocity P-wave (km/s) = 5.60481 6.10995 5.86282
#
# Compressibility (1/GPa) = 0.02757546
#
# Stress axis : x y z
#
# Youngs Moduli (GPa) = 54.09409 54.09409 130.45436
#
# Poissons Ratio (x) = 0.15522 0.36931
# Poissons Ratio (y) = 0.15522 0.36931
# Poissons Ratio (z) = 0.15314 0.15314
#
# Static dielectric constant tensor:
#      x y z
#    x 1.853540 0.000000 0.000000 
#    y 0.000000 1.853540 0.000000 
#    z 0.000000 0.000000 1.859850 
# 
# From -- ./inp_files/11681.got.cif
#   From: 2010.05.17/outbox.cif.g08.bks.cpg/sg142_6_cif.got.tgz:11681.got - 2010.05.20 13:39:18.
