data_PCOD9573961
_publ_section_title
;
Structure prediction by ZEFSAII (Michael W. Deem and Ramdas Pophale) SiO2 
 PCOD9573961
Probable space group: I 41/A C D
;
_chemical_formula_sum "Si O2"
_cell_formula_units_Z 104
_cell_length_a 15.074835
_cell_length_b 15.074835
_cell_length_c 20.294330
_cell_angle_alpha 90.000000
_cell_angle_beta 90.000000
_cell_angle_gamma 90.000000
_cell_volume 4611.899689
_symmetry_space_group_name_H-M "I 41/A C D"
_symmetry_group_IT_number 142
_space_group.IT_coordinate_system_code '2'
_symmetry_cell_setting 'tetragonal'
loop_
_space_group_symop_operation_xyz
x,y,z
1/4-y,3/4+x,1/4+z
-x,1/2-y,z
1/4+y,1/4-x,3/4+z
x,-y,1/2-z
1/2-x,y,-z
3/4+y,1/4+x,1/4-z
1/4-y,1/4-x,1/4-z
-x,-y,-z
3/4+y,1/4-x,3/4-z
x,1/2+y,-z
3/4-y,3/4+x,1/4-z
-x,y,1/2+z
1/2+x,-y,z
1/4-y,3/4-x,3/4+z
3/4+y,3/4+x,3/4+z
1/2+x,1/2+y,1/2+z
3/4-y,1/4+x,3/4+z
1/2-x,-y,1/2+z
3/4+y,3/4-x,1/4+z
1/2+x,1/2-y,-z
-x,1/2+y,1/2-z
1/4+y,3/4+x,3/4-z
3/4-y,3/4-x,3/4-z
1/2-x,1/2-y,1/2-z
1/4+y,3/4-x,1/4-z
1/2+x,y,1/2-z
1/4-y,1/4+x,3/4-z
1/2-x,1/2+y,z
x,1/2-y,1/2+z
3/4-y,1/4-x,1/4+z
1/4+y,1/4+x,1/4+z
loop_
_atom_site_type_symbol
_atom_site_label
_atom_site_fract_x
_atom_site_fract_y
_atom_site_fract_z
Si Si1 0.915656 0.953326 0.951796
Si Si2 0.521702 0.065203 0.310884
Si Si3 0.500000 0.250000 0.125000
Si Si4 0.420575 0.863405 0.985042
O O1 0.847764 0.872855 0.944389
O O2 0.975539 0.968486 0.885765
O O3 0.868421 0.045472 0.971025
O O4 0.983775 0.908180 0.002823
O O5 0.447867 0.140456 0.295883
O O6 0.503815 0.000000 0.250000
O O7 0.450264 0.180754 0.172410
#
# Coordination Sequence:
#
# PCOD9573961 Si02
#       4
#    32  32   8  32
#     4  10  23  40  64  96 130 169 228 276 336 416
#     4  11  22  42  65  93 134 177 217 278 348 409
#     4  12  20  36  66 100 128 176 232 274 348 408
#     4  11  22  39  65  96 129 175 224 279 337 411
#
# _framework density 22.550360000000001
#
# number of rings (size 3 to 8) (size 9 to 14) (size 15 to 20)
#    0.000    1.231    3.077    2.769    0.000    3.692 
#    0.000    0.000    0.000    0.000    0.000    0.000 
#    0.000    0.000    0.000    0.000    0.000    0.000 
#
# Total GULP energy -289653.763081 kJ/mol
# GULP energy per Si atom -5570.264675 kJ/mol
# Density = 2.249903 g / cm^3
# Si number density = 22.550360 Si / 1000 Ang^3
#
#
#
# Elastic Constant Matrix: (Units=GPa)
#
#
# Indices 1 2 3 4 5 6 
#
# 1 84.2598 1.3970 10.3456 0.0000 0.0000 0.0000
# 2 1.3970 84.2598 10.3456 0.0000 0.0000 0.0000
# 3 10.3456 10.3456 96.5055 0.0000 0.0000 0.0000
# 4 0.0000 0.0000 0.0000 27.7051 0.0000 0.0000
# 5 0.0000 0.0000 0.0000 0.0000 27.7051 0.0000
# 6 0.0000 0.0000 0.0000 0.0000 0.0000 4.9628
#
#
#
# Elastic Compliance Matrix: (Units=1/GPa)
#
#
# Indices 1 2 3 4 5 6 
#
# 1 0.012026 -0.000042 -0.001285 0.000000 0.000000 0.000000
# 2 -0.000042 0.012026 -0.001285 0.000000 0.000000 0.000000
# 3 -0.001285 -0.001285 0.010638 0.000000 0.000000 0.000000
# 4 0.000000 0.000000 0.000000 0.036094 0.000000 0.000000
# 5 0.000000 0.000000 0.000000 0.000000 0.036094 0.000000
# 6 0.000000 0.000000 0.000000 0.000000 0.000000 0.201499
#
#
# Mechanical properties :
#
#
# Convention : Reuss Voigt Hill
#
# Bulk Modulus (GPa) = 33.93506 34.35574 34.14540
# Shear Modulus (GPa) = 15.45961 28.27039 21.86500
#
# Velocity S-wave (km/s) = 2.62116 3.54454 3.11723
# Velocity P-wave (km/s) = 4.92360 5.65861 5.30386
#
# Compressibility (1/GPa) = 0.02946805
#
# Stress axis : x y z
#
# Youngs Moduli (GPa) = 83.14974 83.14974 94.00646
#
# Poissons Ratio (x) = 0.00346 0.12078
# Poissons Ratio (y) = 0.00346 0.12078
# Poissons Ratio (z) = 0.10683 0.10683
#
# Static dielectric constant tensor:
#      x y z
#    x 1.994920 0.000000 0.000000 
#    y 0.000000 1.994920 0.000000 
#    z 0.000000 0.000000 1.945310 
# 
# From -- ./inp_files/9721.got.cif
#   From: 2010.05.17/outbox.cif.g08.bks.cpg/sg142_5_cif.got.tgz:9721.got - 2010.05.20 13:39:18.
