data_PCOD9573476
_publ_section_title
;
Structure prediction by ZEFSAII (Michael W. Deem and Ramdas Pophale) SiO2 
 PCOD9573476
Probable space group: I 41/A C D
;
_chemical_formula_sum "Si O2"
_cell_formula_units_Z 112
_cell_length_a 13.628542
_cell_length_b 13.628542
_cell_length_c 23.757517
_cell_angle_alpha 90.000000
_cell_angle_beta 90.000000
_cell_angle_gamma 90.000000
_cell_volume 4412.653666
_symmetry_space_group_name_H-M "I 41/A C D"
_symmetry_group_IT_number 142
_space_group.IT_coordinate_system_code '2'
_symmetry_cell_setting 'tetragonal'
loop_
_space_group_symop_operation_xyz
x,y,z
1/4-y,3/4+x,1/4+z
-x,1/2-y,z
1/4+y,1/4-x,3/4+z
x,-y,1/2-z
1/2-x,y,-z
3/4+y,1/4+x,1/4-z
1/4-y,1/4-x,1/4-z
-x,-y,-z
3/4+y,1/4-x,3/4-z
x,1/2+y,-z
3/4-y,3/4+x,1/4-z
-x,y,1/2+z
1/2+x,-y,z
1/4-y,3/4-x,3/4+z
3/4+y,3/4+x,3/4+z
1/2+x,1/2+y,1/2+z
3/4-y,1/4+x,3/4+z
1/2-x,-y,1/2+z
3/4+y,3/4-x,1/4+z
1/2+x,1/2-y,-z
-x,1/2+y,1/2-z
1/4+y,3/4+x,3/4-z
3/4-y,3/4-x,3/4-z
1/2-x,1/2-y,1/2-z
1/4+y,3/4-x,1/4-z
1/2+x,y,1/2-z
1/4-y,1/4+x,3/4-z
1/2-x,1/2+y,z
x,1/2-y,1/2+z
3/4-y,1/4-x,1/4+z
1/4+y,1/4+x,1/4+z
loop_
_atom_site_type_symbol
_atom_site_label
_atom_site_fract_x
_atom_site_fract_y
_atom_site_fract_z
Si Si1 0.138904 0.401916 0.011753
Si Si2 0.250000 0.591865 0.000000
Si Si3 0.485364 0.904431 0.658651
Si Si4 0.143850 0.755667 0.650349
O O1 0.107933 0.329601 0.060953
O O2 0.250000 0.362646 0.000000
O O3 0.166332 0.515575 0.022901
O O4 0.065840 0.394090 0.958849
O O5 0.198248 0.659125 0.954427
O O6 0.421934 0.828067 0.625000
O O7 0.514508 0.997202 0.620381
O O8 0.076970 0.659256 0.645740
#
# Coordination Sequence:
#
# PCOD9573476 Si02
#       4
#    32  16  32  32
#     4  10  20  37  61  95 132 164 234 284 324 444
#     4  10  18  36  64  94 128 168 234 276 332 430
#     4  12  21  38  70  99 131 188 229 291 362 415
#     4  11  21  38  67  96 134 182 230 290 362 418
#
# _framework density 25.381551000000002
#
# number of rings (size 3 to 8) (size 9 to 14) (size 15 to 20)
#    0.857    0.286    7.143    0.000    0.000    0.000 
#    0.000    1.429   18.857    0.000    0.000    0.000 
#    0.000    0.000    0.000    0.000    0.000    0.000 
#
# Total GULP energy -313730.897158 kJ/mol
# GULP energy per Si atom -5602.337449 kJ/mol
# Density = 2.532378 g / cm^3
# Si number density = 25.381551 Si / 1000 Ang^3
#
#
#
# Elastic Constant Matrix: (Units=GPa)
#
#
# Indices 1 2 3 4 5 6 
#
# 1 157.5766 36.7776 73.5462 0.0000 0.0000 0.0000
# 2 36.7776 157.5739 73.5457 0.0000 0.0000 0.0000
# 3 73.5462 73.5457 142.2766 0.0000 0.0000 0.0000
# 4 0.0000 0.0000 0.0000 44.5433 0.0000 0.0000
# 5 0.0000 0.0000 0.0000 0.0000 44.5433 0.0000
# 6 0.0000 0.0000 0.0000 0.0000 0.0000 50.6062
#
#
#
# Elastic Compliance Matrix: (Units=1/GPa)
#
#
# Indices 1 2 3 4 5 6 
#
# 1 0.008365 0.000087 -0.004369 0.000000 0.000000 0.000000
# 2 0.000087 0.008365 -0.004369 0.000000 0.000000 0.000000
# 3 -0.004369 -0.004369 0.011545 0.000000 0.000000 0.000000
# 4 0.000000 0.000000 0.000000 0.022450 0.000000 0.000000
# 5 0.000000 0.000000 0.000000 0.000000 0.022450 0.000000
# 6 0.000000 0.000000 0.000000 0.000000 0.000000 0.019760
#
#
# Mechanical properties :
#
#
# Convention : Reuss Voigt Hill
#
# Bulk Modulus (GPa) = 91.13061 91.68513 91.40787
# Shear Modulus (GPa) = 43.89969 46.17573 45.03771
#
# Velocity S-wave (km/s) = 4.16335 4.26991 4.21696
# Velocity P-wave (km/s) = 7.68723 7.77886 7.73318
#
# Compressibility (1/GPa) = 0.01097326
#
# Stress axis : x y z
#
# Youngs Moduli (GPa) = 119.54593 119.54376 86.61489
#
# Poissons Ratio (x) = -0.01037 0.37841
# Poissons Ratio (y) = -0.01037 0.37842
# Poissons Ratio (z) = 0.52229 0.52228
#
# Static dielectric constant tensor:
#      x y z
#    x 1.982640 0.000000 0.000000 
#    y 0.000000 1.982640 0.000000 
#    z 0.000000 0.000000 2.055580 
# 
# From -- ./inp_files/9781.got.cif
#   From: 2010.05.17/outbox.cif.g08.bks.cpg/sg142_5_cif.got.tgz:9781.got - 2010.05.20 13:39:18.
