data_PCOD9573718
_publ_section_title
;
Structure prediction by ZEFSAII (Michael W. Deem and Ramdas Pophale) SiO2 
 PCOD9573718
Probable space group: I 41/A C D
;
_chemical_formula_sum "Si O2"
_cell_formula_units_Z 224
_cell_length_a 21.306683
_cell_length_b 21.306683
_cell_length_c 25.049919
_cell_angle_alpha 90.000000
_cell_angle_beta 90.000000
_cell_angle_gamma 90.000000
_cell_volume 11372.030477
_symmetry_space_group_name_H-M "I 41/A C D"
_symmetry_group_IT_number 142
_space_group.IT_coordinate_system_code '2'
_symmetry_cell_setting 'tetragonal'
loop_
_space_group_symop_operation_xyz
x,y,z
1/4-y,3/4+x,1/4+z
-x,1/2-y,z
1/4+y,1/4-x,3/4+z
x,-y,1/2-z
1/2-x,y,-z
3/4+y,1/4+x,1/4-z
1/4-y,1/4-x,1/4-z
-x,-y,-z
3/4+y,1/4-x,3/4-z
x,1/2+y,-z
3/4-y,3/4+x,1/4-z
-x,y,1/2+z
1/2+x,-y,z
1/4-y,3/4-x,3/4+z
3/4+y,3/4+x,3/4+z
1/2+x,1/2+y,1/2+z
3/4-y,1/4+x,3/4+z
1/2-x,-y,1/2+z
3/4+y,3/4-x,1/4+z
1/2+x,1/2-y,-z
-x,1/2+y,1/2-z
1/4+y,3/4+x,3/4-z
3/4-y,3/4-x,3/4-z
1/2-x,1/2-y,1/2-z
1/4+y,3/4-x,1/4-z
1/2+x,y,1/2-z
1/4-y,1/4+x,3/4-z
1/2-x,1/2+y,z
x,1/2-y,1/2+z
3/4-y,1/4-x,1/4+z
1/4+y,1/4+x,1/4+z
loop_
_atom_site_type_symbol
_atom_site_label
_atom_site_fract_x
_atom_site_fract_y
_atom_site_fract_z
Si Si1 0.250000 0.016653 0.500000
Si Si2 0.439647 0.907262 0.990595
Si Si3 0.565052 0.000000 0.250000
Si Si4 0.713006 0.704244 0.683704
Si Si5 0.274584 0.226979 0.586968
Si Si6 0.596202 0.760788 0.357170
Si Si7 0.634211 0.926488 0.683753
Si Si8 0.824198 0.918287 0.935470
O O1 0.282636 0.057612 0.454631
O O2 0.197918 0.972707 0.474512
O O3 0.488854 0.933530 0.033627
O O4 0.379590 0.878848 0.021897
O O5 0.475709 0.862247 0.948583
O O6 0.426824 0.971747 0.957874
O O7 0.519198 0.958266 0.286126
O O8 0.608392 0.960550 0.209838
O O9 0.733516 0.730970 0.627144
O O10 0.662991 0.648840 0.684606
O O11 0.338936 0.211875 0.618450
O O12 0.227824 0.171268 0.570248
O O13 0.565271 0.706134 0.394082
O O14 0.647613 0.897613 0.625000
O O15 0.810392 0.939609 0.875000
#
# Coordination Sequence:
#
# PCOD9573718 Si02
#       8
#    16  32  16  32  32  32  32  32
#     4  11  25  38  62  98 131 173 214 278 344 403
#     4  10  22  41  67  92 128 174 217 269 336 403
#     4  11  25  38  62  96 131 173 216 278 334 393
#     4  10  20  42  64  92 127 174 216 261 331 412
#     4  11  24  41  65  99 130 172 227 279 341 393
#     4  10  25  45  65  95 130 177 233 280 330 401
#     4  12  24  42  65  99 137 171 222 284 342 409
#     4  11  22  41  62  92 135 174 222 270 334 413
#
# _framework density 19.69745
#
# number of rings (size 3 to 8) (size 9 to 14) (size 15 to 20)
#    0.000    1.286    4.286    0.857    6.000    0.000 
#    2.571    0.000    0.000    0.000    0.000    0.000 
#    0.000    0.000    0.000    0.000    0.000    0.000 
#
# Total GULP energy -624301.133318 kJ/mol
# GULP energy per Si atom -5574.117262 kJ/mol
# Density = 1.965262 g / cm^3
# Si number density = 19.697450 Si / 1000 Ang^3
#
#
#
# Elastic Constant Matrix: (Units=GPa)
#
#
# Indices 1 2 3 4 5 6 
#
# 1 95.8737 27.2653 27.6261 0.0000 0.0000 0.0000
# 2 27.2653 95.8732 27.6257 0.0000 0.0000 0.0000
# 3 27.6261 27.6257 73.9401 0.0000 0.0000 0.0000
# 4 0.0000 0.0000 0.0000 19.4745 0.0000 0.0000
# 5 0.0000 0.0000 0.0000 0.0000 19.4713 0.0000
# 6 0.0000 0.0000 0.0000 0.0000 0.0000 28.8524
#
#
#
# Elastic Compliance Matrix: (Units=1/GPa)
#
#
# Indices 1 2 3 4 5 6 
#
# 1 0.012166 -0.002409 -0.003645 0.000000 0.000000 0.000000
# 2 -0.002409 0.012166 -0.003645 0.000000 0.000000 0.000000
# 3 -0.003645 -0.003645 0.016248 0.000000 0.000000 0.000000
# 4 0.000000 0.000000 0.000000 0.051349 0.000000 0.000000
# 5 0.000000 0.000000 0.000000 0.000000 0.051358 0.000000
# 6 0.000000 0.000000 0.000000 0.000000 0.000000 0.034659
#
#
# Mechanical properties :
#
#
# Convention : Reuss Voigt Hill
#
# Bulk Modulus (GPa) = 47.21363 47.85792 47.53577
# Shear Modulus (GPa) = 24.46100 25.77094 25.11597
#
# Velocity S-wave (km/s) = 3.52779 3.62102 3.57471
# Velocity P-wave (km/s) = 6.37301 6.46774 6.42055
#
# Compressibility (1/GPa) = 0.02118032
#
# Stress axis : x y z
#
# Youngs Moduli (GPa) = 82.19610 82.19589 61.54448
#
# Poissons Ratio (x) = 0.19805 0.22435
# Poissons Ratio (y) = 0.19805 0.22435
# Poissons Ratio (z) = 0.29963 0.29963
#
# Static dielectric constant tensor:
#      x y z
#    x 1.689960 0.000000 0.000000 
#    y 0.000000 1.689960 0.000000 
#    z 0.000000 0.000000 1.709430 
# 
# From -- ./inp_files/10587.got.cif
#   From: 2010.05.17/outbox.cif.g08.bks.cpg/sg142_6_cif.got.tgz:10587.got - 2010.05.20 13:39:18.
