data_PCOD9573202
_publ_section_title
;
Structure prediction by ZEFSAII (Michael W. Deem and Ramdas Pophale) SiO2 
 PCOD9573202
Probable space group: I 41/A M D
;
_chemical_formula_sum "Si O2"
_cell_formula_units_Z 96
_cell_length_a 15.917224
_cell_length_b 15.917224
_cell_length_c 17.190973
_cell_angle_alpha 90.000000
_cell_angle_beta 90.000000
_cell_angle_gamma 90.000000
_cell_volume 4355.470879
_symmetry_space_group_name_H-M "I 41/A M D"
_symmetry_group_IT_number 141
_space_group.IT_coordinate_system_code '2'
_symmetry_cell_setting 'tetragonal'
loop_
_space_group_symop_operation_xyz
x,y,z
1/4-y,3/4+x,1/4+z
-x,1/2-y,z
1/4+y,1/4-x,3/4+z
x,-y,-z
-x,1/2+y,-z
1/4+y,3/4+x,1/4-z
1/4-y,1/4-x,3/4-z
-x,-y,-z
3/4+y,1/4-x,3/4-z
x,1/2+y,-z
3/4-y,3/4+x,1/4-z
-x,y,z
x,1/2-y,z
3/4-y,1/4-x,3/4+z
3/4+y,3/4+x,1/4+z
1/2+x,1/2+y,1/2+z
3/4-y,1/4+x,3/4+z
1/2-x,-y,1/2+z
3/4+y,3/4-x,1/4+z
1/2+x,1/2-y,1/2-z
1/2-x,y,1/2-z
3/4+y,1/4+x,3/4-z
3/4-y,3/4-x,1/4-z
1/2-x,1/2-y,1/2-z
1/4+y,3/4-x,1/4-z
1/2+x,y,1/2-z
1/4-y,1/4+x,3/4-z
1/2-x,1/2+y,1/2+z
1/2+x,-y,1/2+z
1/4-y,3/4-x,1/4+z
1/4+y,1/4+x,3/4+z
loop_
_atom_site_type_symbol
_atom_site_label
_atom_site_fract_x
_atom_site_fract_y
_atom_site_fract_z
Si Si1 0.598177 0.250000 0.384342
Si Si2 0.170561 0.079440 0.875000
Si Si3 0.805465 0.750000 0.175330
Si Si4 0.756415 0.250000 0.494725
Si Si5 0.842239 0.593134 0.782312
O O1 0.500000 0.250000 0.408248
O O2 0.667108 0.250000 0.452516
O O3 0.618278 0.331606 0.331939
O O4 0.154400 0.158164 0.818551
O O5 0.260351 0.079837 0.915329
O O6 0.750000 0.750000 0.250000
O O7 0.762783 0.750000 0.088774
O O8 0.809789 0.333774 0.475011
O O9 0.750000 0.615809 0.750000
#
# Coordination Sequence:
#
# PCOD9573202 Si02
#       5
#    16  16  16  16  32
#     4  12  25  45  73 101 150 188 237 321 366 436
#     4  10  22  41  66 104 137 184 234 298 362 438
#     4  10  22  41  63  95 140 186 235 288 350 430
#     4  10  24  42  65 108 133 191 247 283 383 433
#     4  11  22  44  70 103 139 188 243 296 373 437
#
# _framework density 22.041245
#
# number of rings (size 3 to 8) (size 9 to 14) (size 15 to 20)
#    0.000    1.333    1.667    3.500    0.000    8.333 
#   12.000    0.000    0.000    0.000    0.000    0.000 
#    0.000    0.000    0.000    0.000    0.000    0.000 
#
# Total GULP energy -267512.569317 kJ/mol
# GULP energy per Si atom -5573.178527 kJ/mol
# Density = 2.199108 g / cm^3
# Si number density = 22.041245 Si / 1000 Ang^3
#
#
#
# Elastic Constant Matrix: (Units=GPa)
#
#
# Indices 1 2 3 4 5 6 
#
# 1 120.8635 44.2108 46.3650 0.0000 0.0000 0.0000
# 2 44.2108 120.8661 46.3617 0.0000 0.0000 0.0000
# 3 46.3650 46.3617 53.1805 0.0000 0.0000 0.0000
# 4 0.0000 0.0000 0.0000 44.3666 0.0000 0.0000
# 5 0.0000 0.0000 0.0000 0.0000 44.3664 0.0000
# 6 0.0000 0.0000 0.0000 0.0000 0.0000 49.2072
#
#
#
# Elastic Compliance Matrix: (Units=1/GPa)
#
#
# Indices 1 2 3 4 5 6 
#
# 1 0.012459 -0.000587 -0.010351 0.000000 0.000000 0.000000
# 2 -0.000587 0.012458 -0.010349 0.000000 0.000000 0.000000
# 3 -0.010351 -0.010349 0.036850 0.000000 0.000000 0.000000
# 4 0.000000 0.000000 0.000000 0.022539 0.000000 0.000000
# 5 0.000000 0.000000 0.000000 0.000000 0.022540 0.000000
# 6 0.000000 0.000000 0.000000 0.000000 0.000000 0.020322
#
#
# Mechanical properties :
#
#
# Convention : Reuss Voigt Hill
#
# Bulk Modulus (GPa) = 52.09953 63.19835 57.64894
# Shear Modulus (GPa) = 28.38665 38.11955 33.25310
#
# Velocity S-wave (km/s) = 3.59261 4.16319 3.88838
# Velocity P-wave (km/s) = 6.39513 7.20032 6.80964
#
# Compressibility (1/GPa) = 0.01919403
#
# Stress axis : x y z
#
# Youngs Moduli (GPa) = 80.26203 80.27024 27.13718
#
# Poissons Ratio (x) = 0.04712 0.28089
# Poissons Ratio (y) = 0.04712 0.28084
# Poissons Ratio (z) = 0.83076 0.83070
#
# Static dielectric constant tensor:
#      x y z
#    x 1.888240 0.000000 0.000000 
#    y 0.000000 1.888250 0.000000 
#    z 0.000000 0.000000 1.816640 
# 
# From -- ./inp_files/9820.got.cif
#   From: 2010.05.17/outbox.cif.g08.bks.cpg/sg141_5_cif.got.tgz:9820.got - 2010.05.20 13:30:51.
