data_PCOD9573128
_publ_section_title
;
Structure prediction by ZEFSAII (Michael W. Deem and Ramdas Pophale) SiO2 
 PCOD9573128
Probable space group: I 41/A M D
;
_chemical_formula_sum "Si O2"
_cell_formula_units_Z 240
_cell_length_a 20.073518
_cell_length_b 20.073518
_cell_length_c 28.155222
_cell_angle_alpha 90.000000
_cell_angle_beta 90.000000
_cell_angle_gamma 90.000000
_cell_volume 11345.037600
_symmetry_space_group_name_H-M "I 41/A M D"
_symmetry_group_IT_number 141
_space_group.IT_coordinate_system_code '2'
_symmetry_cell_setting 'tetragonal'
loop_
_space_group_symop_operation_xyz
x,y,z
1/4-y,3/4+x,1/4+z
-x,1/2-y,z
1/4+y,1/4-x,3/4+z
x,-y,-z
-x,1/2+y,-z
1/4+y,3/4+x,1/4-z
1/4-y,1/4-x,3/4-z
-x,-y,-z
3/4+y,1/4-x,3/4-z
x,1/2+y,-z
3/4-y,3/4+x,1/4-z
-x,y,z
x,1/2-y,z
3/4-y,1/4-x,3/4+z
3/4+y,3/4+x,1/4+z
1/2+x,1/2+y,1/2+z
3/4-y,1/4+x,3/4+z
1/2-x,-y,1/2+z
3/4+y,3/4-x,1/4+z
1/2+x,1/2-y,1/2-z
1/2-x,y,1/2-z
3/4+y,1/4+x,3/4-z
3/4-y,3/4-x,1/4-z
1/2-x,1/2-y,1/2-z
1/4+y,3/4-x,1/4-z
1/2+x,y,1/2-z
1/4-y,1/4+x,3/4-z
1/2-x,1/2+y,1/2+z
1/2+x,-y,1/2+z
1/4-y,3/4-x,1/4+z
1/4+y,1/4+x,3/4+z
loop_
_atom_site_type_symbol
_atom_site_label
_atom_site_fract_x
_atom_site_fract_y
_atom_site_fract_z
Si Si1 0.329424 0.983544 0.920180
Si Si2 0.927616 0.554542 0.882290
Si Si3 0.861484 0.171922 0.172465
Si Si4 0.781455 0.558442 0.300225
Si Si5 0.924184 0.465155 0.736948
Si Si6 0.136483 0.362818 0.478273
Si Si7 0.576826 0.673174 0.875000
Si Si8 0.662704 0.325901 0.587936
O O1 0.315170 0.934831 0.875000
O O2 0.254783 0.009533 0.929620
O O3 0.347164 0.939288 0.965463
O O4 0.384820 0.039849 0.914948
O O5 0.909352 0.624619 0.858405
O O6 0.872329 0.530539 0.918232
O O7 0.927784 0.492047 0.846951
O O8 0.000000 0.559719 0.904864
O O9 0.859126 0.250000 0.160193
O O10 0.884974 0.163350 0.227347
O O11 0.750000 0.571842 0.250000
O O12 0.860508 0.542102 0.297360
O O13 0.921590 0.545168 0.745319
O O14 0.909092 0.415810 0.781446
O O15 0.000000 0.450261 0.720483
O O16 0.112260 0.337127 0.426654
O O17 0.500000 0.660321 0.886735
O O18 0.624571 0.374571 0.625000
O O19 0.636821 0.250000 0.594757
#
# Coordination Sequence:
#
# PCOD9573128 Si02
#       8
#    32  32  32  32  32  32  16  32
#     4  11  22  42  65  99 128 172 222 282 347 404
#     4  11  25  43  65  97 134 178 230 278 333 406
#     4  12  26  43  67  97 136 182 229 282 346 414
#     4  11  23  39  67  97 130 174 219 283 348 402
#     4  10  21  39  64  94 127 171 223 270 331 408
#     4  11  22  42  63  91 129 169 222 286 344 404
#     4  11  24  38  56  84 120 170 224 274 336 404
#     4  10  21  39  68 100 131 170 218 277 342 410
#
# _framework density 21.154623000000001
#
# number of rings (size 3 to 8) (size 9 to 14) (size 15 to 20)
#    0.000    1.133    3.333    3.600    1.867    3.333 
#    0.000    0.667    0.000    0.800    0.000    0.000 
#    0.000    0.000    0.000    0.000    0.000    0.000 
#
# Total GULP energy -668758.861983 kJ/mol
# GULP energy per Si atom -5572.990517 kJ/mol
# Density = 2.110647 g / cm^3
# Si number density = 21.154623 Si / 1000 Ang^3
#
#
#
# Elastic Constant Matrix: (Units=GPa)
#
#
# Indices 1 2 3 4 5 6 
#
# 1 118.0201 -6.7898 14.2399 0.0000 0.0000 0.0000
# 2 -6.7898 118.0190 14.2386 0.0000 0.0000 0.0000
# 3 14.2399 14.2386 75.2252 0.0000 0.0000 0.0000
# 4 0.0000 0.0000 0.0000 19.3733 0.0000 0.0000
# 5 0.0000 0.0000 0.0000 0.0000 19.3738 0.0000
# 6 0.0000 0.0000 0.0000 0.0000 0.0000 23.8006
#
#
#
# Elastic Compliance Matrix: (Units=1/GPa)
#
#
# Indices 1 2 3 4 5 6 
#
# 1 0.008730 0.000718 -0.001789 0.000000 0.000000 0.000000
# 2 0.000718 0.008730 -0.001788 0.000000 0.000000 0.000000
# 3 -0.001789 -0.001788 0.013970 0.000000 0.000000 0.000000
# 4 0.000000 0.000000 0.000000 0.051617 0.000000 0.000000
# 5 0.000000 0.000000 0.000000 0.000000 0.051616 0.000000
# 6 0.000000 0.000000 0.000000 0.000000 0.000000 0.042016
#
#
# Mechanical properties :
#
#
# Convention : Reuss Voigt Hill
#
# Bulk Modulus (GPa) = 38.89042 39.40464 39.14753
# Shear Modulus (GPa) = 26.18223 31.81457 28.99840
#
# Velocity S-wave (km/s) = 3.52186 3.88223 3.70643
# Velocity P-wave (km/s) = 5.91285 6.22600 6.07144
#
# Compressibility (1/GPa) = 0.02571327
#
# Stress axis : x y z
#
# Youngs Moduli (GPa) = 114.54435 114.54381 71.57946
#
# Poissons Ratio (x) = -0.08225 0.12802
# Poissons Ratio (y) = -0.08225 0.12801
# Poissons Ratio (z) = 0.20487 0.20485
#
# Static dielectric constant tensor:
#      x y z
#    x 1.818850 0.000000 0.000000 
#    y 0.000000 1.818850 0.000000 
#    z 0.000000 0.000000 1.794190 
# 
# From -- ./inp_files/13184.got.cif
#   From: 2010.05.17/outbox.cif.g08.bks.cpg/sg141_7_cif.got.tgz:13184.got - 2010.05.20 13:30:51.
