data_PCOD9573853
_publ_section_title
;
Structure prediction by ZEFSAII (Michael W. Deem and Ramdas Pophale) SiO2 
 PCOD9573853
Probable space group: I 41/A C D
;
_chemical_formula_sum "Si O2"
_cell_formula_units_Z 112
_cell_length_a 13.941341
_cell_length_b 13.941341
_cell_length_c 24.606132
_cell_angle_alpha 90.000000
_cell_angle_beta 90.000000
_cell_angle_gamma 90.000000
_cell_volume 4782.472148
_symmetry_space_group_name_H-M "I 41/A C D"
_symmetry_group_IT_number 142
_space_group.IT_coordinate_system_code '2'
_symmetry_cell_setting 'tetragonal'
loop_
_space_group_symop_operation_xyz
x,y,z
1/4-y,3/4+x,1/4+z
-x,1/2-y,z
1/4+y,1/4-x,3/4+z
x,-y,1/2-z
1/2-x,y,-z
3/4+y,1/4+x,1/4-z
1/4-y,1/4-x,1/4-z
-x,-y,-z
3/4+y,1/4-x,3/4-z
x,1/2+y,-z
3/4-y,3/4+x,1/4-z
-x,y,1/2+z
1/2+x,-y,z
1/4-y,3/4-x,3/4+z
3/4+y,3/4+x,3/4+z
1/2+x,1/2+y,1/2+z
3/4-y,1/4+x,3/4+z
1/2-x,-y,1/2+z
3/4+y,3/4-x,1/4+z
1/2+x,1/2-y,-z
-x,1/2+y,1/2-z
1/4+y,3/4+x,3/4-z
3/4-y,3/4-x,3/4-z
1/2-x,1/2-y,1/2-z
1/4+y,3/4-x,1/4-z
1/2+x,y,1/2-z
1/4-y,1/4+x,3/4-z
1/2-x,1/2+y,z
x,1/2-y,1/2+z
3/4-y,1/4-x,1/4+z
1/4+y,1/4+x,1/4+z
loop_
_atom_site_type_symbol
_atom_site_label
_atom_site_fract_x
_atom_site_fract_y
_atom_site_fract_z
Si Si1 0.755077 0.759410 0.607418
Si Si2 0.364194 0.528143 0.046287
Si Si3 0.647704 0.901060 0.934621
Si Si4 0.602705 0.000000 0.750000
O O1 0.778597 0.854187 0.640665
O O2 0.851967 0.706513 0.586931
O O3 0.708286 0.790278 0.550096
O O4 0.936954 0.034289 0.596274
O O5 0.260772 0.574968 0.059533
O O6 0.401180 0.581428 0.992316
O O7 0.331875 0.422005 0.025738
#
# Coordination Sequence:
#
# PCOD9573853 Si02
#       4
#    32  32  32  16
#     4  12  21  40  67  99 136 181 234 291 346 424
#     4  10  23  44  66  99 140 185 238 284 360 427
#     4  10  23  39  66  97 136 182 228 288 354 416
#     4  10  22  38  66  98 132 186 234 288 352 420
#
# _framework density 23.418849999999999
#
# number of rings (size 3 to 8) (size 9 to 14) (size 15 to 20)
#    0.000    1.714    2.857    3.429    4.000    0.571 
#    0.000    0.000    0.000    0.000    0.000   16.000 
#    0.000    0.000    0.000    0.000    0.000    0.000 
#
# Total GULP energy -312278.333426 kJ/mol
# GULP energy per Si atom -5576.398811 kJ/mol
# Density = 2.336555 g / cm^3
# Si number density = 23.418850 Si / 1000 Ang^3
#
#
#
# Elastic Constant Matrix: (Units=GPa)
#
#
# Indices 1 2 3 4 5 6 
#
# 1 46.5913 5.7624 18.0103 0.0000 0.0000 0.0000
# 2 5.7624 46.5913 18.0103 0.0000 0.0000 0.0000
# 3 18.0103 18.0103 185.0331 0.0000 0.0000 0.0000
# 4 0.0000 0.0000 0.0000 34.6683 0.0000 0.0000
# 5 0.0000 0.0000 0.0000 0.0000 34.6683 0.0000
# 6 0.0000 0.0000 0.0000 0.0000 0.0000 0.7661
#
#
#
# Elastic Compliance Matrix: (Units=1/GPa)
#
#
# Indices 1 2 3 4 5 6 
#
# 1 0.022482 -0.002010 -0.001993 0.000000 0.000000 0.000000
# 2 -0.002010 0.022482 -0.001993 0.000000 0.000000 0.000000
# 3 -0.001993 -0.001993 0.005792 0.000000 0.000000 0.000000
# 4 0.000000 0.000000 0.000000 0.028845 0.000000 0.000000
# 5 0.000000 0.000000 0.000000 0.000000 0.028845 0.000000
# 6 0.000000 0.000000 0.000000 0.000000 0.000000 1.305309
#
#
# Mechanical properties :
#
#
# Convention : Reuss Voigt Hill
#
# Bulk Modulus (GPa) = 25.79617 40.19798 32.99707
# Shear Modulus (GPa) = 3.47544 29.78270 16.62907
#
# Velocity S-wave (km/s) = 1.21953 3.57002 2.66761
# Velocity P-wave (km/s) = 3.60861 5.84768 4.85888
#
# Compressibility (1/GPa) = 0.03876545
#
# Stress axis : x y z
#
# Youngs Moduli (GPa) = 44.47971 44.47971 172.64158
#
# Poissons Ratio (x) = 0.08942 0.34401
# Poissons Ratio (y) = 0.08942 0.34401
# Poissons Ratio (z) = 0.08863 0.08863
#
# Static dielectric constant tensor:
#      x y z
#    x 1.981870 0.000000 0.000000 
#    y 0.000000 1.981870 0.000000 
#    z 0.000000 0.000000 1.973460 
# 
# From -- ./inp_files/11075.got.cif
#   From: 2010.05.17/outbox.cif.g08.bks.cpg/sg142_6_cif.got.tgz:11075.got - 2010.05.20 13:39:18.
