data_PCOD9573926
_publ_section_title
;
Structure prediction by ZEFSAII (Michael W. Deem and Ramdas Pophale) SiO2 
 PCOD9573926
Probable space group: I 41/A C D
;
_chemical_formula_sum "Si O2"
_cell_formula_units_Z 136
_cell_length_a 17.666842
_cell_length_b 17.666842
_cell_length_c 19.933716
_cell_angle_alpha 90.000000
_cell_angle_beta 90.000000
_cell_angle_gamma 90.000000
_cell_volume 6221.657742
_symmetry_space_group_name_H-M "I 41/A C D"
_symmetry_group_IT_number 142
_space_group.IT_coordinate_system_code '2'
_symmetry_cell_setting 'tetragonal'
loop_
_space_group_symop_operation_xyz
x,y,z
1/4-y,3/4+x,1/4+z
-x,1/2-y,z
1/4+y,1/4-x,3/4+z
x,-y,1/2-z
1/2-x,y,-z
3/4+y,1/4+x,1/4-z
1/4-y,1/4-x,1/4-z
-x,-y,-z
3/4+y,1/4-x,3/4-z
x,1/2+y,-z
3/4-y,3/4+x,1/4-z
-x,y,1/2+z
1/2+x,-y,z
1/4-y,3/4-x,3/4+z
3/4+y,3/4+x,3/4+z
1/2+x,1/2+y,1/2+z
3/4-y,1/4+x,3/4+z
1/2-x,-y,1/2+z
3/4+y,3/4-x,1/4+z
1/2+x,1/2-y,-z
-x,1/2+y,1/2-z
1/4+y,3/4+x,3/4-z
3/4-y,3/4-x,3/4-z
1/2-x,1/2-y,1/2-z
1/4+y,3/4-x,1/4-z
1/2+x,y,1/2-z
1/4-y,1/4+x,3/4-z
1/2-x,1/2+y,z
x,1/2-y,1/2+z
3/4-y,1/4-x,1/4+z
1/4+y,1/4+x,1/4+z
loop_
_atom_site_type_symbol
_atom_site_label
_atom_site_fract_x
_atom_site_fract_y
_atom_site_fract_z
Si Si1 0.129607 0.003890 0.505363
Si Si2 0.000000 0.750000 0.375000
Si Si3 0.349232 0.417966 0.635391
Si Si4 0.014708 0.968471 0.174709
Si Si5 0.989113 0.908448 0.940743
O O1 0.178636 0.042815 0.448118
O O2 0.059343 0.061695 0.515736
O O3 0.160692 0.980513 0.577287
O O4 0.089262 0.928265 0.477116
O O5 0.927187 0.748701 0.328293
O O6 0.435459 0.424753 0.662142
O O7 0.328874 0.337032 0.601520
O O8 0.022229 0.000000 0.250000
O O9 0.010655 0.041468 0.126383
#
# Coordination Sequence:
#
# PCOD9573926 Si02
#       5
#    32   8  32  32  32
#     4   9  20  44  65  94 140 180 230 290 348 441
#     4  12  24  36  72  98 128 172 224 308 362 396
#     4  10  22  43  73  96 142 186 234 300 358 426
#     4  10  23  44  66 100 139 181 234 299 349 431
#     4   9  22  39  61  98 135 165 226 295 349 408
#
# _framework density 21.859124999999999
#
# number of rings (size 3 to 8) (size 9 to 14) (size 15 to 20)
#    0.000    2.353    0.000    1.412    6.588    0.471 
#    0.000    3.529    0.000    0.000    0.000    0.000 
#    0.000    0.000    0.000    0.000    0.000    0.000 
#
# Total GULP energy -380199.587644 kJ/mol
# GULP energy per Si atom -5591.170407 kJ/mol
# Density = 2.180937 g / cm^3
# Si number density = 21.859125 Si / 1000 Ang^3
#
#
#
# Elastic Constant Matrix: (Units=GPa)
#
#
# Indices 1 2 3 4 5 6 
#
# 1 95.0585 49.0423 33.1004 0.0000 0.0000 0.0000
# 2 49.0423 95.0585 33.1004 0.0000 0.0000 0.0000
# 3 33.1004 33.1004 149.3653 0.0000 0.0000 0.0000
# 4 0.0000 0.0000 0.0000 34.9507 0.0000 0.0000
# 5 0.0000 0.0000 0.0000 0.0000 34.9507 0.0000
# 6 0.0000 0.0000 0.0000 0.0000 0.0000 21.1431
#
#
#
# Elastic Compliance Matrix: (Units=1/GPa)
#
#
# Indices 1 2 3 4 5 6 
#
# 1 0.014729 -0.007003 -0.001712 0.000000 0.000000 0.000000
# 2 -0.007003 0.014729 -0.001712 0.000000 0.000000 0.000000
# 3 -0.001712 -0.001712 0.007454 0.000000 0.000000 0.000000
# 4 0.000000 0.000000 0.000000 0.028612 0.000000 0.000000
# 5 0.000000 0.000000 0.000000 0.000000 0.028612 0.000000
# 6 0.000000 0.000000 0.000000 0.000000 0.000000 0.047297
#
#
# Mechanical properties :
#
#
# Convention : Reuss Voigt Hill
#
# Bulk Modulus (GPa) = 62.27618 63.32982 62.80300
# Shear Modulus (GPa) = 29.82613 33.15818 31.49215
#
# Velocity S-wave (km/s) = 3.69788 3.89897 3.79976
# Velocity P-wave (km/s) = 6.83989 7.02168 6.93138
#
# Compressibility (1/GPa) = 0.01605750
#
# Stress axis : x y z
#
# Youngs Moduli (GPa) = 67.89408 67.89408 134.15877
#
# Poissons Ratio (x) = 0.47544 0.22970
# Poissons Ratio (y) = 0.47544 0.22970
# Poissons Ratio (z) = 0.11625 0.11625
#
# Static dielectric constant tensor:
#      x y z
#    x 1.806300 0.000000 0.000000 
#    y 0.000000 1.806300 0.000000 
#    z 0.000000 0.000000 2.156060 
# 
# From -- ./inp_files/8772.got.cif
#   From: 2010.05.17/outbox.cif.g08.bks.cpg/sg142_5_cif.got.tgz:8772.got - 2010.05.20 13:39:18.
