data_PCOD9573937
_publ_section_title
;
Structure prediction by ZEFSAII (Michael W. Deem and Ramdas Pophale) SiO2 
 PCOD9573937
Probable space group: I 41/A C D
;
_chemical_formula_sum "Si O2"
_cell_formula_units_Z 176
_cell_length_a 18.177640
_cell_length_b 18.177640
_cell_length_c 24.859719
_cell_angle_alpha 90.000000
_cell_angle_beta 90.000000
_cell_angle_gamma 90.000000
_cell_volume 8214.312326
_symmetry_space_group_name_H-M "I 41/A C D"
_symmetry_group_IT_number 142
_space_group.IT_coordinate_system_code '2'
_symmetry_cell_setting 'tetragonal'
loop_
_space_group_symop_operation_xyz
x,y,z
1/4-y,3/4+x,1/4+z
-x,1/2-y,z
1/4+y,1/4-x,3/4+z
x,-y,1/2-z
1/2-x,y,-z
3/4+y,1/4+x,1/4-z
1/4-y,1/4-x,1/4-z
-x,-y,-z
3/4+y,1/4-x,3/4-z
x,1/2+y,-z
3/4-y,3/4+x,1/4-z
-x,y,1/2+z
1/2+x,-y,z
1/4-y,3/4-x,3/4+z
3/4+y,3/4+x,3/4+z
1/2+x,1/2+y,1/2+z
3/4-y,1/4+x,3/4+z
1/2-x,-y,1/2+z
3/4+y,3/4-x,1/4+z
1/2+x,1/2-y,-z
-x,1/2+y,1/2-z
1/4+y,3/4+x,3/4-z
3/4-y,3/4-x,3/4-z
1/2-x,1/2-y,1/2-z
1/4+y,3/4-x,1/4-z
1/2+x,y,1/2-z
1/4-y,1/4+x,3/4-z
1/2-x,1/2+y,z
x,1/2-y,1/2+z
3/4-y,1/4-x,1/4+z
1/4+y,1/4+x,1/4+z
loop_
_atom_site_type_symbol
_atom_site_label
_atom_site_fract_x
_atom_site_fract_y
_atom_site_fract_z
Si Si1 0.430833 0.796859 0.452155
Si Si2 0.211712 0.843211 0.806253
Si Si3 0.671212 0.078789 0.375000
Si Si4 0.171411 0.187607 0.215088
Si Si5 0.345722 0.093054 0.125772
Si Si6 0.164128 0.165317 0.493157
O O1 0.500000 0.750000 0.432436
O O2 0.460569 0.858962 0.492802
O O3 0.384775 0.840735 0.407067
O O4 0.379485 0.740853 0.485015
O O5 0.193862 0.758523 0.819377
O O6 0.260313 0.838600 0.751457
O O7 0.265734 0.878598 0.849619
O O8 0.137329 0.885704 0.791167
O O9 0.645146 0.122097 0.322510
O O10 0.757927 0.094739 0.379236
O O11 0.371404 0.096648 0.187099
O O12 0.250000 0.179734 0.500000
#
# Coordination Sequence:
#
# PCOD9573937 Si02
#       6
#    32  32  16  32  32  32
#     4  11  26  45  67 102 142 186 234 291 354 428
#     4  10  22  45  67  94 139 181 225 285 358 412
#     4  12  24  44  71 104 138 185 250 288 364 432
#     4  10  23  42  66  95 139 187 224 282 353 422
#     4  11  27  42  75 104 139 183 236 297 356 431
#     4  12  26  43  71 104 141 177 238 294 352 421
#
# _framework density 21.426017999999999
#
# number of rings (size 3 to 8) (size 9 to 14) (size 15 to 20)
#    0.000    1.091    3.636    1.091    7.636    1.455 
#    0.000    0.455    0.000    0.000    0.000    0.000 
#    0.000    0.000    0.000    0.000    0.000    0.000 
#
# Total GULP energy -492381.501438 kJ/mol
# GULP energy per Si atom -5595.244335 kJ/mol
# Density = 2.137725 g / cm^3
# Si number density = 21.426018 Si / 1000 Ang^3
#
#
#
# Elastic Constant Matrix: (Units=GPa)
#
#
# Indices 1 2 3 4 5 6 
#
# 1 98.2417 13.4227 16.3853 0.0000 0.0000 0.0000
# 2 13.4227 98.2405 16.3854 0.0000 0.0000 0.0000
# 3 16.3853 16.3854 37.9080 0.0000 0.0000 0.0000
# 4 0.0000 0.0000 0.0000 16.0326 0.0000 0.0000
# 5 0.0000 0.0000 0.0000 0.0000 16.0334 0.0000
# 6 0.0000 0.0000 0.0000 0.0000 0.0000 19.0971
#
#
#
# Elastic Compliance Matrix: (Units=1/GPa)
#
#
# Indices 1 2 3 4 5 6 
#
# 1 0.011023 -0.000767 -0.004433 0.000000 0.000000 0.000000
# 2 -0.000767 0.011023 -0.004433 0.000000 0.000000 0.000000
# 3 -0.004433 -0.004433 0.030212 0.000000 0.000000 0.000000
# 4 0.000000 0.000000 0.000000 0.062373 0.000000 0.000000
# 5 0.000000 0.000000 0.000000 0.000000 0.062370 0.000000
# 6 0.000000 0.000000 0.000000 0.000000 0.000000 0.052364
#
#
# Mechanical properties :
#
#
# Convention : Reuss Voigt Hill
#
# Bulk Modulus (GPa) = 30.31031 36.30855 33.30943
# Shear Modulus (GPa) = 19.25825 22.77907 21.01866
#
# Velocity S-wave (km/s) = 3.00129 3.26414 3.13547
# Velocity P-wave (km/s) = 5.11738 5.58470 5.35614
#
# Compressibility (1/GPa) = 0.03299207
#
# Stress axis : x y z
#
# Youngs Moduli (GPa) = 90.71828 90.71711 33.09928
#
# Poissons Ratio (x) = 0.06955 0.14674
# Poissons Ratio (y) = 0.06955 0.14674
# Poissons Ratio (z) = 0.40218 0.40218
#
# Static dielectric constant tensor:
#      x y z
#    x 1.759080 0.000000 0.000000 
#    y 0.000000 1.759090 0.000000 
#    z 0.000000 0.000000 1.730930 
# 
# From -- ./inp_files/11423.got.cif
#   From: 2010.05.17/outbox.cif.g08.bks.cpg/sg142_6_cif.got.tgz:11423.got - 2010.05.20 13:39:18.
