data_PCOD9573495
_publ_section_title
;
Structure prediction by ZEFSAII (Michael W. Deem and Ramdas Pophale) SiO2 
 PCOD9573495
Probable space group: I 41/A C D
;
_chemical_formula_sum "Si O2"
_cell_formula_units_Z 160
_cell_length_a 22.124486
_cell_length_b 22.124486
_cell_length_c 16.384336
_cell_angle_alpha 90.000000
_cell_angle_beta 90.000000
_cell_angle_gamma 90.000000
_cell_volume 8020.015828
_symmetry_space_group_name_H-M "I 41/A C D"
_symmetry_group_IT_number 142
_space_group.IT_coordinate_system_code '2'
_symmetry_cell_setting 'tetragonal'
loop_
_space_group_symop_operation_xyz
x,y,z
1/4-y,3/4+x,1/4+z
-x,1/2-y,z
1/4+y,1/4-x,3/4+z
x,-y,1/2-z
1/2-x,y,-z
3/4+y,1/4+x,1/4-z
1/4-y,1/4-x,1/4-z
-x,-y,-z
3/4+y,1/4-x,3/4-z
x,1/2+y,-z
3/4-y,3/4+x,1/4-z
-x,y,1/2+z
1/2+x,-y,z
1/4-y,3/4-x,3/4+z
3/4+y,3/4+x,3/4+z
1/2+x,1/2+y,1/2+z
3/4-y,1/4+x,3/4+z
1/2-x,-y,1/2+z
3/4+y,3/4-x,1/4+z
1/2+x,1/2-y,-z
-x,1/2+y,1/2-z
1/4+y,3/4+x,3/4-z
3/4-y,3/4-x,3/4-z
1/2-x,1/2-y,1/2-z
1/4+y,3/4-x,1/4-z
1/2+x,y,1/2-z
1/4-y,1/4+x,3/4-z
1/2-x,1/2+y,z
x,1/2-y,1/2+z
3/4-y,1/4-x,1/4+z
1/4+y,1/4+x,1/4+z
loop_
_atom_site_type_symbol
_atom_site_label
_atom_site_fract_x
_atom_site_fract_y
_atom_site_fract_z
Si Si1 0.755730 0.650348 0.139366
Si Si2 0.773881 0.431412 0.912361
Si Si3 0.421143 0.097866 0.257128
Si Si4 0.901662 0.245966 0.395695
Si Si5 0.425377 0.439156 0.040705
O O1 0.772835 0.581530 0.165447
O O2 0.809741 0.664779 0.076944
O O3 0.741241 0.684670 0.223614
O O4 0.697968 0.662941 0.081179
O O5 0.720199 0.470199 0.875000
O O6 0.789189 0.374487 0.856039
O O7 0.750000 0.411030 0.000000
O O8 0.483512 0.132643 0.237120
O O9 0.366020 0.144321 0.258890
O O10 0.939255 0.302334 0.357942
O O11 0.843788 0.227570 0.341656
#
# Coordination Sequence:
#
# PCOD9573495 Si02
#       5
#    32  32  32  32  32
#     4  10  19  32  53  85 116 149 181 226 280 354
#     4  11  20  32  53  86 124 158 184 216 277 356
#     4   9  19  33  54  81 113 145 189 236 284 339
#     4   9  19  38  59  76 101 146 199 251 293 327
#     4  10  19  33  55  79 112 148 192 231 281 342
#
# _framework density 19.950085000000001
#
# number of rings (size 3 to 8) (size 9 to 14) (size 15 to 20)
#    0.000    2.200    2.000    1.800    2.800    0.800 
#    3.600    1.000    0.000    4.800    0.000    0.000 
#    0.000    0.000    0.000    0.000    0.000    0.000 
#
# Total GULP energy -445520.794487 kJ/mol
# GULP energy per Si atom -5569.009931 kJ/mol
# Density = 1.990468 g / cm^3
# Si number density = 19.950085 Si / 1000 Ang^3
#
#
#
# Elastic Constant Matrix: (Units=GPa)
#
#
# Indices 1 2 3 4 5 6 
#
# 1 63.2118 23.5054 39.0959 0.0000 0.0000 0.0000
# 2 23.5054 63.2118 39.0959 0.0000 0.0000 0.0000
# 3 39.0959 39.0959 100.6118 0.0000 0.0000 0.0000
# 4 0.0000 0.0000 0.0000 24.8309 0.0000 0.0000
# 5 0.0000 0.0000 0.0000 0.0000 24.8309 0.0000
# 6 0.0000 0.0000 0.0000 0.0000 0.0000 25.1547
#
#
#
# Elastic Compliance Matrix: (Units=1/GPa)
#
#
# Indices 1 2 3 4 5 6 
#
# 1 0.021468 -0.003717 -0.006898 0.000000 0.000000 0.000000
# 2 -0.003717 0.021468 -0.006898 0.000000 0.000000 0.000000
# 3 -0.006898 -0.006898 0.015300 0.000000 0.000000 0.000000
# 4 0.000000 0.000000 0.000000 0.040272 0.000000 0.000000
# 5 0.000000 0.000000 0.000000 0.000000 0.040272 0.000000
# 6 0.000000 0.000000 0.000000 0.000000 0.000000 0.039754
#
#
# Mechanical properties :
#
#
# Convention : Reuss Voigt Hill
#
# Bulk Modulus (GPa) = 43.08237 47.82553 45.45395
# Shear Modulus (GPa) = 22.59403 23.31916 22.95659
#
# Velocity S-wave (km/s) = 3.36896 3.42259 3.39588
# Velocity P-wave (km/s) = 6.06425 6.29631 6.18137
#
# Compressibility (1/GPa) = 0.02321135
#
# Stress axis : x y z
#
# Youngs Moduli (GPa) = 46.58057 46.58057 65.35956
#
# Poissons Ratio (x) = 0.17313 0.45084
# Poissons Ratio (y) = 0.17313 0.45084
# Poissons Ratio (z) = 0.32131 0.32131
#
# Static dielectric constant tensor:
#      x y z
#    x 1.741480 0.000000 0.000000 
#    y 0.000000 1.741480 0.000000 
#    z 0.000000 0.000000 1.721470 
# 
# From -- ./inp_files/5390.got.cif
#   From: 2010.05.17/outbox.cif.g08.bks.cpg/sg142_3_cif.got.tgz:5390.got - 2010.05.20 13:39:18.
