data_PCOD9573686
_publ_section_title
;
Structure prediction by ZEFSAII (Michael W. Deem and Ramdas Pophale) SiO2 
 PCOD9573686
Probable space group: I 41/A C D
;
_chemical_formula_sum "Si O2"
_cell_formula_units_Z 128
_cell_length_a 18.632192
_cell_length_b 18.632192
_cell_length_c 16.211967
_cell_angle_alpha 90.000000
_cell_angle_beta 90.000000
_cell_angle_gamma 90.000000
_cell_volume 5628.123422
_symmetry_space_group_name_H-M "I 41/A C D"
_symmetry_group_IT_number 142
_space_group.IT_coordinate_system_code '2'
_symmetry_cell_setting 'tetragonal'
loop_
_space_group_symop_operation_xyz
x,y,z
1/4-y,3/4+x,1/4+z
-x,1/2-y,z
1/4+y,1/4-x,3/4+z
x,-y,1/2-z
1/2-x,y,-z
3/4+y,1/4+x,1/4-z
1/4-y,1/4-x,1/4-z
-x,-y,-z
3/4+y,1/4-x,3/4-z
x,1/2+y,-z
3/4-y,3/4+x,1/4-z
-x,y,1/2+z
1/2+x,-y,z
1/4-y,3/4-x,3/4+z
3/4+y,3/4+x,3/4+z
1/2+x,1/2+y,1/2+z
3/4-y,1/4+x,3/4+z
1/2-x,-y,1/2+z
3/4+y,3/4-x,1/4+z
1/2+x,1/2-y,-z
-x,1/2+y,1/2-z
1/4+y,3/4+x,3/4-z
3/4-y,3/4-x,3/4-z
1/2-x,1/2-y,1/2-z
1/4+y,3/4-x,1/4-z
1/2+x,y,1/2-z
1/4-y,1/4+x,3/4-z
1/2-x,1/2+y,z
x,1/2-y,1/2+z
3/4-y,1/4-x,1/4+z
1/4+y,1/4+x,1/4+z
loop_
_atom_site_type_symbol
_atom_site_label
_atom_site_fract_x
_atom_site_fract_y
_atom_site_fract_z
Si Si1 0.994860 0.091724 0.095220
Si Si2 0.137844 0.066924 0.311813
Si Si3 0.075267 0.717184 0.001734
Si Si4 0.267285 0.353669 0.724343
O O1 0.043809 0.150752 0.050605
O O2 0.987397 0.125672 0.186596
O O3 0.926335 0.075004 0.038707
O O4 0.040107 0.017950 0.082957
O O5 0.068764 0.119864 0.315084
O O6 0.156351 0.045684 0.404555
O O7 0.203765 0.109969 0.273970
O O8 0.124045 0.000000 0.250000
O O9 0.000000 0.750000 0.031930
#
# Coordination Sequence:
#
# PCOD9573686 Si02
#       4
#    32  32  32  32
#     4   9  18  38  62  90 130 174 226 289 343 422
#     4  11  21  41  68  97 133 185 238 290 360 431
#     4  10  20  39  65  93 132 185 231 281 355 428
#     4  10  21  38  65  97 132 175 235 291 351 430
#
# _framework density 22.742926000000001
#
# number of rings (size 3 to 8) (size 9 to 14) (size 15 to 20)
#    0.000    2.000    2.500    2.250    0.000    0.000 
#   13.500    6.250    0.000    0.000    0.000    0.000 
#    0.000    0.000    0.000    0.000    0.000    0.000 
#
# Total GULP energy -356734.224982 kJ/mol
# GULP energy per Si atom -5573.972265 kJ/mol
# Density = 2.269116 g / cm^3
# Si number density = 22.742926 Si / 1000 Ang^3
#
#
#
# Elastic Constant Matrix: (Units=GPa)
#
#
# Indices 1 2 3 4 5 6 
#
# 1 91.0639 36.7357 43.3085 0.0000 0.0000 0.0000
# 2 36.7357 91.0639 43.3085 0.0000 0.0000 0.0000
# 3 43.3085 43.3085 113.6113 0.0000 0.0000 0.0000
# 4 0.0000 0.0000 0.0000 16.5257 0.0000 0.0000
# 5 0.0000 0.0000 0.0000 0.0000 16.5257 0.0000
# 6 0.0000 0.0000 0.0000 0.0000 0.0000 11.8200
#
#
#
# Elastic Compliance Matrix: (Units=1/GPa)
#
#
# Indices 1 2 3 4 5 6 
#
# 1 0.014479 -0.003928 -0.004022 0.000000 0.000000 0.000000
# 2 -0.003928 0.014479 -0.004022 0.000000 0.000000 0.000000
# 3 -0.004022 -0.004022 0.011868 0.000000 0.000000 0.000000
# 4 0.000000 0.000000 0.000000 0.060512 0.000000 0.000000
# 5 0.000000 0.000000 0.000000 0.000000 0.060512 0.000000
# 6 0.000000 0.000000 0.000000 0.000000 0.000000 0.084603
#
#
# Mechanical properties :
#
#
# Convention : Reuss Voigt Hill
#
# Bulk Modulus (GPa) = 59.23500 60.27159 59.75330
# Shear Modulus (GPa) = 18.11446 20.46670 19.29058
#
# Velocity S-wave (km/s) = 2.82527 3.00311 2.91555
# Velocity P-wave (km/s) = 6.06176 6.21158 6.13712
#
# Compressibility (1/GPa) = 0.01688191
#
# Stress axis : x y z
#
# Youngs Moduli (GPa) = 69.06734 69.06734 84.25873
#
# Poissons Ratio (x) = 0.27130 0.33888
# Poissons Ratio (y) = 0.27130 0.33888
# Poissons Ratio (z) = 0.27778 0.27778
#
# Static dielectric constant tensor:
#      x y z
#    x 1.928270 0.000000 0.000000 
#    y 0.000000 1.928270 0.000000 
#    z 0.000000 0.000000 1.897060 
# 
# From -- ./inp_files/7143.got.cif
#   From: 2010.05.17/outbox.cif.g08.bks.cpg/sg142_4_cif.got.tgz:7143.got - 2010.05.20 13:39:18.
