data_PCOD9573820
_publ_section_title
;
Structure prediction by ZEFSAII (Michael W. Deem and Ramdas Pophale) SiO2 
 PCOD9573820
Probable space group: I 41/A C D
;
_chemical_formula_sum "Si O2"
_cell_formula_units_Z 176
_cell_length_a 17.540780
_cell_length_b 17.540780
_cell_length_c 27.730845
_cell_angle_alpha 90.000000
_cell_angle_beta 90.000000
_cell_angle_gamma 90.000000
_cell_volume 8532.197633
_symmetry_space_group_name_H-M "I 41/A C D"
_symmetry_group_IT_number 142
_space_group.IT_coordinate_system_code '2'
_symmetry_cell_setting 'tetragonal'
loop_
_space_group_symop_operation_xyz
x,y,z
1/4-y,3/4+x,1/4+z
-x,1/2-y,z
1/4+y,1/4-x,3/4+z
x,-y,1/2-z
1/2-x,y,-z
3/4+y,1/4+x,1/4-z
1/4-y,1/4-x,1/4-z
-x,-y,-z
3/4+y,1/4-x,3/4-z
x,1/2+y,-z
3/4-y,3/4+x,1/4-z
-x,y,1/2+z
1/2+x,-y,z
1/4-y,3/4-x,3/4+z
3/4+y,3/4+x,3/4+z
1/2+x,1/2+y,1/2+z
3/4-y,1/4+x,3/4+z
1/2-x,-y,1/2+z
3/4+y,3/4-x,1/4+z
1/2+x,1/2-y,-z
-x,1/2+y,1/2-z
1/4+y,3/4+x,3/4-z
3/4-y,3/4-x,3/4-z
1/2-x,1/2-y,1/2-z
1/4+y,3/4-x,1/4-z
1/2+x,y,1/2-z
1/4-y,1/4+x,3/4-z
1/2-x,1/2+y,z
x,1/2-y,1/2+z
3/4-y,1/4-x,1/4+z
1/4+y,1/4+x,1/4+z
loop_
_atom_site_type_symbol
_atom_site_label
_atom_site_fract_x
_atom_site_fract_y
_atom_site_fract_z
Si Si1 0.688829 0.493813 0.306147
Si Si2 0.965428 0.419399 0.979887
Si Si3 0.000000 0.750000 0.487146
Si Si4 0.258276 0.659808 0.643848
Si Si5 0.123205 0.231637 0.093708
Si Si6 0.848359 0.438439 0.209641
O O1 0.666848 0.500000 0.250000
O O2 0.708345 0.407203 0.321840
O O3 0.627557 0.522033 0.344494
O O4 0.767610 0.538800 0.312465
O O5 0.949733 0.442509 0.924575
O O6 0.998712 0.332873 0.985648
O O7 0.890034 0.411559 0.012232
O O8 0.000000 0.500000 0.000000
O O9 0.924050 0.757815 0.453306
O O10 0.329440 0.710531 0.626414
O O11 0.060021 0.189980 0.125000
O O12 0.181809 0.166406 0.077476
O O13 0.867216 0.500000 0.250000
#
# Coordination Sequence:
#
# PCOD9573820 Si02
#       6
#    32  32  16  32  32  32
#     4  10  22  40  71 102 142 173 242 304 350 442
#     4  11  23  43  70 106 142 195 242 298 381 436
#     4  10  25  42  68 104 153 188 240 318 362 452
#     4  11  23  40  72 106 133 185 243 292 365 447
#     4  11  25  39  69 104 137 181 246 305 357 431
#     4  10  21  43  67  93 142 186 223 298 369 431
#
# _framework density 20.627745999999998
#
# number of rings (size 3 to 8) (size 9 to 14) (size 15 to 20)
#    0.000    1.455    3.636    2.455   12.727    0.727 
#    0.000    1.818    0.000    2.182    4.727    0.000 
#    0.000    0.000    0.000    0.000    0.000    0.000 
#
# Total GULP energy -490829.575705 kJ/mol
# GULP energy per Si atom -5577.608815 kJ/mol
# Density = 2.058080 g / cm^3
# Si number density = 20.627746 Si / 1000 Ang^3
#
#
#
# Elastic Constant Matrix: (Units=GPa)
#
#
# Indices 1 2 3 4 5 6 
#
# 1 96.6971 70.5976 51.2765 0.0000 0.0000 0.0000
# 2 70.5976 96.6985 51.2797 0.0000 0.0000 0.0000
# 3 51.2765 51.2797 125.3695 0.0000 0.0000 0.0000
# 4 0.0000 0.0000 0.0000 28.5323 0.0000 0.0000
# 5 0.0000 0.0000 0.0000 0.0000 28.5349 0.0000
# 6 0.0000 0.0000 0.0000 0.0000 0.0000 14.4254
#
#
#
# Elastic Compliance Matrix: (Units=1/GPa)
#
#
# Indices 1 2 3 4 5 6 
#
# 1 0.023146 -0.015168 -0.003262 0.000000 0.000000 0.000000
# 2 -0.015168 0.023146 -0.003264 0.000000 0.000000 0.000000
# 3 -0.003262 -0.003264 0.010646 0.000000 0.000000 0.000000
# 4 0.000000 0.000000 0.000000 0.035048 0.000000 0.000000
# 5 0.000000 0.000000 0.000000 0.000000 0.035045 0.000000
# 6 0.000000 0.000000 0.000000 0.000000 0.000000 0.069322
#
#
# Mechanical properties :
#
#
# Convention : Reuss Voigt Hill
#
# Bulk Modulus (GPa) = 73.80567 73.89696 73.85131
# Shear Modulus (GPa) = 20.47025 24.00595 22.23810
#
# Velocity S-wave (km/s) = 3.15360 3.41511 3.28696
# Velocity P-wave (km/s) = 7.00840 7.17304 7.09120
#
# Compressibility (1/GPa) = 0.01354909
#
# Stress axis : x y z
#
# Youngs Moduli (GPa) = 43.20470 43.20403 93.93483
#
# Poissons Ratio (x) = 0.65532 0.30646
# Poissons Ratio (y) = 0.65533 0.30656
# Poissons Ratio (z) = 0.14095 0.14100
#
# Static dielectric constant tensor:
#      x y z
#    x 1.758340 0.000000 0.000000 
#    y 0.000000 1.758330 0.000000 
#    z 0.000000 0.000000 1.769570 
# 
# From -- ./inp_files/12568.got.cif
#   From: 2010.05.17/outbox.cif.g08.bks.cpg/sg142_7_cif.got.tgz:12568.got - 2010.05.20 13:39:18.
