data_PCOD9573823
_publ_section_title
;
Structure prediction by ZEFSAII (Michael W. Deem and Ramdas Pophale) SiO2 
 PCOD9573823
Probable space group: I 41/A C D
;
_chemical_formula_sum "Si O2"
_cell_formula_units_Z 64
_cell_length_a 19.386796
_cell_length_b 19.386796
_cell_length_c 7.620284
_cell_angle_alpha 90.000000
_cell_angle_beta 90.000000
_cell_angle_gamma 90.000000
_cell_volume 2864.067427
_symmetry_space_group_name_H-M "I 41/A C D"
_symmetry_group_IT_number 142
_space_group.IT_coordinate_system_code '2'
_symmetry_cell_setting 'tetragonal'
loop_
_space_group_symop_operation_xyz
x,y,z
1/4-y,3/4+x,1/4+z
-x,1/2-y,z
1/4+y,1/4-x,3/4+z
x,-y,1/2-z
1/2-x,y,-z
3/4+y,1/4+x,1/4-z
1/4-y,1/4-x,1/4-z
-x,-y,-z
3/4+y,1/4-x,3/4-z
x,1/2+y,-z
3/4-y,3/4+x,1/4-z
-x,y,1/2+z
1/2+x,-y,z
1/4-y,3/4-x,3/4+z
3/4+y,3/4+x,3/4+z
1/2+x,1/2+y,1/2+z
3/4-y,1/4+x,3/4+z
1/2-x,-y,1/2+z
3/4+y,3/4-x,1/4+z
1/2+x,1/2-y,-z
-x,1/2+y,1/2-z
1/4+y,3/4+x,3/4-z
3/4-y,3/4-x,3/4-z
1/2-x,1/2-y,1/2-z
1/4+y,3/4-x,1/4-z
1/2+x,y,1/2-z
1/4-y,1/4+x,3/4-z
1/2-x,1/2+y,z
x,1/2-y,1/2+z
3/4-y,1/4-x,1/4+z
1/4+y,1/4+x,1/4+z
loop_
_atom_site_type_symbol
_atom_site_label
_atom_site_fract_x
_atom_site_fract_y
_atom_site_fract_z
Si Si1 0.925327 0.665489 0.668488
Si Si2 0.667316 0.955346 0.908035
O O1 0.907214 0.742894 0.608899
O O2 0.882142 0.608621 0.564070
O O3 0.909225 0.659225 0.875000
O O4 0.738299 0.926927 0.813839
O O5 0.635060 0.000000 0.750000
#
# Coordination Sequence:
#
# PCOD9573823 Si02
#       2
#    32  32
#     4  11  23  44  66  95 129 167 215 263 316 379
#     4  10  21  45  65  93 132 164 212 264 313 380
#
# _framework density 22.345845000000001
#
# number of rings (size 3 to 8) (size 9 to 14) (size 15 to 20)
#    0.000    1.500    5.000    3.000    0.000    2.000 
#   36.000    0.000    0.000    0.000    0.000    0.000 
#    0.000    0.000    0.000    0.000    0.000    0.000 
#
# Total GULP energy -178611.511563 kJ/mol
# GULP energy per Si atom -5581.609736 kJ/mol
# Density = 2.229498 g / cm^3
# Si number density = 22.345845 Si / 1000 Ang^3
#
#
#
# Elastic Constant Matrix: (Units=GPa)
#
#
# Indices 1 2 3 4 5 6 
#
# 1 137.9334 128.4545 22.2830 0.0000 0.0000 0.0000
# 2 128.4545 137.9334 22.2830 0.0000 0.0000 0.0000
# 3 22.2830 22.2830 142.7292 0.0000 0.0000 0.0000
# 4 0.0000 0.0000 0.0000 5.1664 0.0000 0.0000
# 5 0.0000 0.0000 0.0000 0.0000 5.1664 0.0000
# 6 0.0000 0.0000 0.0000 0.0000 0.0000 65.7245
#
#
#
# Elastic Compliance Matrix: (Units=1/GPa)
#
#
# Indices 1 2 3 4 5 6 
#
# 1 0.054676 -0.050821 -0.000602 0.000000 0.000000 0.000000
# 2 -0.050821 0.054676 -0.000602 0.000000 0.000000 0.000000
# 3 -0.000602 -0.000602 0.007194 0.000000 0.000000 0.000000
# 4 0.000000 0.000000 0.000000 0.193558 0.000000 0.000000
# 5 0.000000 0.000000 0.000000 0.000000 0.193558 0.000000
# 6 0.000000 0.000000 0.000000 0.000000 0.000000 0.015215
#
#
# Mechanical properties :
#
#
# Convention : Reuss Voigt Hill
#
# Bulk Modulus (GPa) = 80.02400 84.95963 82.49182
# Shear Modulus (GPa) = 7.97329 31.58315 19.77822
#
# Velocity S-wave (km/s) = 1.89100 3.76357 2.97828
# Velocity P-wave (km/s) = 6.37630 7.54909 6.98735
#
# Compressibility (1/GPa) = 0.01249625
#
# Stress axis : x y z
#
# Youngs Moduli (GPa) = 18.28955 18.28955 139.00127
#
# Poissons Ratio (x) = 0.92950 0.08365
# Poissons Ratio (y) = 0.92950 0.08365
# Poissons Ratio (z) = 0.01101 0.01101
#
# Static dielectric constant tensor:
#      x y z
#    x 1.822120 0.000000 0.000000 
#    y 0.000000 1.822120 0.000000 
#    z 0.000000 0.000000 1.960760 
# 
# From -- ./inp_files/1276.got.cif
#   From: 2010.05.17/outbox.cif.g08.bks.cpg/sg142_1_cif.got.tgz:1276.got - 2010.05.20 13:39:18.
