data_PCOD9573894
_publ_section_title
;
Structure prediction by ZEFSAII (Michael W. Deem and Ramdas Pophale) SiO2 
 PCOD9573894
Probable space group: I 41/A C D
;
_chemical_formula_sum "Si O2"
_cell_formula_units_Z 80
_cell_length_a 13.283515
_cell_length_b 13.283515
_cell_length_c 21.154759
_cell_angle_alpha 90.000000
_cell_angle_beta 90.000000
_cell_angle_gamma 90.000000
_cell_volume 3732.794685
_symmetry_space_group_name_H-M "I 41/A C D"
_symmetry_group_IT_number 142
_space_group.IT_coordinate_system_code '2'
_symmetry_cell_setting 'tetragonal'
loop_
_space_group_symop_operation_xyz
x,y,z
1/4-y,3/4+x,1/4+z
-x,1/2-y,z
1/4+y,1/4-x,3/4+z
x,-y,1/2-z
1/2-x,y,-z
3/4+y,1/4+x,1/4-z
1/4-y,1/4-x,1/4-z
-x,-y,-z
3/4+y,1/4-x,3/4-z
x,1/2+y,-z
3/4-y,3/4+x,1/4-z
-x,y,1/2+z
1/2+x,-y,z
1/4-y,3/4-x,3/4+z
3/4+y,3/4+x,3/4+z
1/2+x,1/2+y,1/2+z
3/4-y,1/4+x,3/4+z
1/2-x,-y,1/2+z
3/4+y,3/4-x,1/4+z
1/2+x,1/2-y,-z
-x,1/2+y,1/2-z
1/4+y,3/4+x,3/4-z
3/4-y,3/4-x,3/4-z
1/2-x,1/2-y,1/2-z
1/4+y,3/4-x,1/4-z
1/2+x,y,1/2-z
1/4-y,1/4+x,3/4-z
1/2-x,1/2+y,z
x,1/2-y,1/2+z
3/4-y,1/4-x,1/4+z
1/4+y,1/4+x,1/4+z
loop_
_atom_site_type_symbol
_atom_site_label
_atom_site_fract_x
_atom_site_fract_y
_atom_site_fract_z
Si Si1 0.008884 0.072768 0.194234
Si Si2 0.567137 0.547248 0.554760
Si Si3 0.250000 0.065009 0.500000
O O1 0.025777 0.027525 0.124787
O O2 0.082018 0.168397 0.199432
O O3 0.046632 0.000000 0.250000
O O4 0.890334 0.926884 0.290001
O O5 0.500000 0.500000 0.500000
O O6 0.677898 0.498836 0.545183
#
# Coordination Sequence:
#
# PCOD9573894 Si02
#       3
#    32  32  16
#     4   9  23  40  59  96 119 156 218 244 303 387
#     4  11  23  40  67  87 126 165 205 256 313 367
#     4  10  22  42  64  84 130 162 202 260 310 360
#
# _framework density 21.431664000000001
#
# number of rings (size 3 to 8) (size 9 to 14) (size 15 to 20)
#    1.200    0.800    2.000    0.000    5.600    3.200 
#    0.000    4.000    0.000    0.000    0.000    0.000 
#    0.000    0.000    0.000    0.000    0.000    0.000 
#
# Total GULP energy -222853.180315 kJ/mol
# GULP energy per Si atom -5571.329508 kJ/mol
# Density = 2.138288 g / cm^3
# Si number density = 21.431664 Si / 1000 Ang^3
#
#
#
# Elastic Constant Matrix: (Units=GPa)
#
#
# Indices 1 2 3 4 5 6 
#
# 1 87.0695 38.9824 41.0790 0.0000 0.0000 0.0000
# 2 38.9824 87.0695 41.0790 0.0000 0.0000 0.0000
# 3 41.0790 41.0790 176.8997 0.0000 0.0000 0.0000
# 4 0.0000 0.0000 0.0000 23.2415 0.0000 0.0000
# 5 0.0000 0.0000 0.0000 0.0000 23.2415 0.0000
# 6 0.0000 0.0000 0.0000 0.0000 0.0000 37.2560
#
#
#
# Elastic Compliance Matrix: (Units=1/GPa)
#
#
# Indices 1 2 3 4 5 6 
#
# 1 0.015072 -0.005724 -0.002171 0.000000 0.000000 0.000000
# 2 -0.005724 0.015072 -0.002171 0.000000 0.000000 0.000000
# 3 -0.002171 -0.002171 0.006661 0.000000 0.000000 0.000000
# 4 0.000000 0.000000 0.000000 0.043026 0.000000 0.000000
# 5 0.000000 0.000000 0.000000 0.000000 0.043026 0.000000
# 6 0.000000 0.000000 0.000000 0.000000 0.000000 0.026841
#
#
# Mechanical properties :
#
#
# Convention : Reuss Voigt Hill
#
# Bulk Modulus (GPa) = 59.97294 65.92441 62.94867
# Shear Modulus (GPa) = 28.50827 32.07435 30.29131
#
# Velocity S-wave (km/s) = 3.65114 3.87277 3.76359
# Velocity P-wave (km/s) = 6.76894 7.12916 6.95138
#
# Compressibility (1/GPa) = 0.01667419
#
# Stress axis : x y z
#
# Youngs Moduli (GPa) = 66.34880 66.34880 150.12518
#
# Poissons Ratio (x) = 0.37976 0.32589
# Poissons Ratio (y) = 0.37976 0.32589
# Poissons Ratio (z) = 0.14403 0.14403
#
# Static dielectric constant tensor:
#      x y z
#    x 1.806700 0.000000 0.000000 
#    y 0.000000 1.806700 0.000000 
#    z 0.000000 0.000000 1.716500 
# 
# From -- ./inp_files/4667.got.cif
#   From: 2010.05.17/outbox.cif.g08.bks.cpg/sg142_3_cif.got.tgz:4667.got - 2010.05.20 13:39:18.
