data_PCOD9573218
_publ_section_title
;
Structure prediction by ZEFSAII (Michael W. Deem and Ramdas Pophale) SiO2 
 PCOD9573218
Probable space group: I 41/A M D
;
_chemical_formula_sum "Si O2"
_cell_formula_units_Z 120
_cell_length_a 17.821657
_cell_length_b 17.821657
_cell_length_c 20.749581
_cell_angle_alpha 90.000000
_cell_angle_beta 90.000000
_cell_angle_gamma 90.000000
_cell_volume 6590.304679
_symmetry_space_group_name_H-M "I 41/A M D"
_symmetry_group_IT_number 141
_space_group.IT_coordinate_system_code '2'
_symmetry_cell_setting 'tetragonal'
loop_
_space_group_symop_operation_xyz
x,y,z
1/4-y,3/4+x,1/4+z
-x,1/2-y,z
1/4+y,1/4-x,3/4+z
x,-y,-z
-x,1/2+y,-z
1/4+y,3/4+x,1/4-z
1/4-y,1/4-x,3/4-z
-x,-y,-z
3/4+y,1/4-x,3/4-z
x,1/2+y,-z
3/4-y,3/4+x,1/4-z
-x,y,z
x,1/2-y,z
3/4-y,1/4-x,3/4+z
3/4+y,3/4+x,1/4+z
1/2+x,1/2+y,1/2+z
3/4-y,1/4+x,3/4+z
1/2-x,-y,1/2+z
3/4+y,3/4-x,1/4+z
1/2+x,1/2-y,1/2-z
1/2-x,y,1/2-z
3/4+y,1/4+x,3/4-z
3/4-y,3/4-x,1/4-z
1/2-x,1/2-y,1/2-z
1/4+y,3/4-x,1/4-z
1/2+x,y,1/2-z
1/4-y,1/4+x,3/4-z
1/2-x,1/2+y,1/2+z
1/2+x,-y,1/2+z
1/4-y,3/4-x,1/4+z
1/4+y,1/4+x,3/4+z
loop_
_atom_site_type_symbol
_atom_site_label
_atom_site_fract_x
_atom_site_fract_y
_atom_site_fract_z
Si Si1 0.000000 0.750000 0.837991
Si Si2 0.374553 0.029441 0.173939
Si Si3 0.500000 0.561403 0.308222
Si Si4 0.156660 0.593341 0.125000
Si Si5 0.851777 0.250000 0.503079
Si Si6 0.697448 0.000000 0.500000
Si Si7 0.000000 0.088868 0.658335
O O1 0.000000 0.676651 0.793385
O O2 0.921334 0.750000 0.877701
O O3 0.319807 0.069807 0.125000
O O4 0.428690 0.090013 0.207032
O O5 0.322359 0.993978 0.228455
O O6 0.427084 0.963569 0.143981
O O7 0.424766 0.585370 0.343505
O O8 0.500000 0.471375 0.298994
O O9 0.500000 0.594392 0.235902
O O10 0.219556 0.589073 0.182593
#
# Coordination Sequence:
#
# PCOD9573218 Si02
#       7
#     8  32  16  16  16  16  16
#     4  12  28  38  69  93 144 180 208 276 352 400
#     4  10  22  42  70  92 129 171 223 279 322 399
#     4  10  24  44  62  92 136 168 218 281 313 401
#     4  12  24  41  68  98 132 175 226 266 346 386
#     4  10  24  45  57  98 135 163 214 284 324 396
#     4  12  22  37  70 101 124 174 224 270 332 389
#     4  10  24  45  57 100 135 173 212 272 333 393
#
# _framework density 18.208566999999999
#
# number of rings (size 3 to 8) (size 9 to 14) (size 15 to 20)
#    0.000    1.600    6.667    0.000    7.467    4.000 
#    0.000    1.333    0.000    0.000    0.000    0.000 
#    0.000    0.000    0.000    0.000    0.000    0.000 
#
# Total GULP energy -334345.554368 kJ/mol
# GULP energy per Si atom -5572.425906 kJ/mol
# Density = 1.816712 g / cm^3
# Si number density = 18.208567 Si / 1000 Ang^3
#
#
#
# Elastic Constant Matrix: (Units=GPa)
#
#
# Indices 1 2 3 4 5 6 
#
# 1 90.5110 25.2362 42.7475 0.0000 0.0000 0.0000
# 2 25.2362 90.5112 42.7473 0.0000 0.0000 0.0000
# 3 42.7475 42.7473 86.3313 0.0000 0.0000 0.0000
# 4 0.0000 0.0000 0.0000 23.4015 0.0000 0.0000
# 5 0.0000 0.0000 0.0000 0.0000 23.4016 0.0000
# 6 0.0000 0.0000 0.0000 0.0000 0.0000 0.5252
#
#
#
# Elastic Compliance Matrix: (Units=1/GPa)
#
#
# Indices 1 2 3 4 5 6 
#
# 1 0.014471 -0.000849 -0.006745 0.000000 0.000000 0.000000
# 2 -0.000849 0.014471 -0.006745 0.000000 0.000000 0.000000
# 3 -0.006745 -0.006745 0.018263 0.000000 0.000000 0.000000
# 4 0.000000 0.000000 0.000000 0.042732 0.000000 0.000000
# 5 0.000000 0.000000 0.000000 0.000000 0.042732 0.000000
# 6 0.000000 0.000000 0.000000 0.000000 0.000000 1.904126
#
#
# Mechanical properties :
#
#
# Convention : Reuss Voigt Hill
#
# Bulk Modulus (GPa) = 53.97647 54.31282 54.14464
# Shear Modulus (GPa) = 2.41354 19.90716 11.16035
#
# Velocity S-wave (km/s) = 1.15255 3.31007 2.47840
# Velocity P-wave (km/s) = 5.61061 6.67096 6.16363
#
# Compressibility (1/GPa) = 0.01852659
#
# Stress axis : x y z
#
# Youngs Moduli (GPa) = 69.10544 69.10587 54.75665
#
# Poissons Ratio (x) = 0.05869 0.36932
# Poissons Ratio (y) = 0.05869 0.36931
# Poissons Ratio (z) = 0.46610 0.46609
#
# Static dielectric constant tensor:
#      x y z
#    x 1.608080 0.000000 0.000000 
#    y 0.000000 1.608080 0.000000 
#    z 0.000000 0.000000 1.662430 
# 
# From -- ./inp_files/10076.got.cif
#   From: 2010.05.17/outbox.cif.g08.bks.cpg/sg141_6_cif.got.tgz:10076.got - 2010.05.20 13:30:51.
