data_PCOD9573743
_publ_section_title
;
Structure prediction by ZEFSAII (Michael W. Deem and Ramdas Pophale) SiO2 
 PCOD9573743
Probable space group: I 41/A C D
;
_chemical_formula_sum "Si O2"
_cell_formula_units_Z 136
_cell_length_a 22.552360
_cell_length_b 22.552360
_cell_length_c 12.663938
_cell_angle_alpha 90.000000
_cell_angle_beta 90.000000
_cell_angle_gamma 90.000000
_cell_volume 6440.992102
_symmetry_space_group_name_H-M "I 41/A C D"
_symmetry_group_IT_number 142
_space_group.IT_coordinate_system_code '2'
_symmetry_cell_setting 'tetragonal'
loop_
_space_group_symop_operation_xyz
x,y,z
1/4-y,3/4+x,1/4+z
-x,1/2-y,z
1/4+y,1/4-x,3/4+z
x,-y,1/2-z
1/2-x,y,-z
3/4+y,1/4+x,1/4-z
1/4-y,1/4-x,1/4-z
-x,-y,-z
3/4+y,1/4-x,3/4-z
x,1/2+y,-z
3/4-y,3/4+x,1/4-z
-x,y,1/2+z
1/2+x,-y,z
1/4-y,3/4-x,3/4+z
3/4+y,3/4+x,3/4+z
1/2+x,1/2+y,1/2+z
3/4-y,1/4+x,3/4+z
1/2-x,-y,1/2+z
3/4+y,3/4-x,1/4+z
1/2+x,1/2-y,-z
-x,1/2+y,1/2-z
1/4+y,3/4+x,3/4-z
3/4-y,3/4-x,3/4-z
1/2-x,1/2-y,1/2-z
1/4+y,3/4-x,1/4-z
1/2+x,y,1/2-z
1/4-y,1/4+x,3/4-z
1/2-x,1/2+y,z
x,1/2-y,1/2+z
3/4-y,1/4-x,1/4+z
1/4+y,1/4+x,1/4+z
loop_
_atom_site_type_symbol
_atom_site_label
_atom_site_fract_x
_atom_site_fract_y
_atom_site_fract_z
Si Si1 0.500000 0.750000 0.625000
Si Si2 0.668766 0.987079 0.871055
Si Si3 0.876454 0.751206 0.750122
Si Si4 0.878244 0.137100 0.900138
Si Si5 0.199969 0.190367 0.584247
O O1 0.500374 0.808638 0.553068
O O2 0.732199 0.017802 0.875000
O O3 0.611420 0.023251 0.913396
O O4 0.653519 0.000000 0.750000
O O5 0.663799 0.917628 0.887063
O O6 0.871026 0.811160 0.685094
O O7 0.871178 0.695842 0.669820
O O8 0.828155 0.740296 0.841663
O O9 0.852538 0.162491 0.011839
O O10 0.250000 0.211960 0.500000
#
# Coordination Sequence:
#
# PCOD9573743 Si02
#       5
#     8  32  32  32  32
#     4  12  24  34  64  84 138 184 192 282 284 412
#     4   9  18  35  62  85 107 153 208 254 317 369
#     4  12  21  38  56  93 130 168 221 247 338 379
#     4  10  21  34  60  89 125 166 207 267 307 401
#     4   9  19  36  58  86 118 163 214 273 306 381
#
# _framework density 21.114757999999998
#
# number of rings (size 3 to 8) (size 9 to 14) (size 15 to 20)
#    0.000    2.353    2.353    4.235    0.000    3.765 
#    0.000    0.000    2.588    5.647    0.000    0.000 
#    0.000    0.000    0.000    0.000    0.000    0.000 
#
# Total GULP energy -378688.301979 kJ/mol
# GULP energy per Si atom -5568.945617 kJ/mol
# Density = 2.106670 g / cm^3
# Si number density = 21.114758 Si / 1000 Ang^3
#
#
#
# Elastic Constant Matrix: (Units=GPa)
#
#
# Indices 1 2 3 4 5 6 
#
# 1 80.1295 75.1299 28.8147 0.0000 0.0000 0.0000
# 2 75.1299 80.1313 28.8156 0.0000 0.0000 0.0000
# 3 28.8147 28.8156 43.4735 0.0000 0.0000 0.0000
# 4 0.0000 0.0000 0.0000 20.4805 0.0000 0.0000
# 5 0.0000 0.0000 0.0000 0.0000 20.4777 0.0000
# 6 0.0000 0.0000 0.0000 0.0000 0.0000 36.1426
#
#
#
# Elastic Compliance Matrix: (Units=1/GPa)
#
#
# Indices 1 2 3 4 5 6 
#
# 1 0.104261 -0.095718 -0.005660 0.000000 0.000000 0.000000
# 2 -0.095718 0.104260 -0.005664 0.000000 0.000000 0.000000
# 3 -0.005660 -0.005664 0.030508 0.000000 0.000000 0.000000
# 4 0.000000 0.000000 0.000000 0.048827 0.000000 0.000000
# 5 0.000000 0.000000 0.000000 0.000000 0.048834 0.000000
# 6 0.000000 0.000000 0.000000 0.000000 0.000000 0.027668
#
#
# Mechanical properties :
#
#
# Convention : Reuss Voigt Hill
#
# Bulk Modulus (GPa) = 40.08837 52.13941 46.11389
# Shear Modulus (GPa) = 8.52142 20.15177 14.33659
#
# Velocity S-wave (km/s) = 2.01110 3.09268 2.60856
# Velocity P-wave (km/s) = 4.94165 6.12371 5.56416
#
# Compressibility (1/GPa) = 0.02494489
#
# Stress axis : x y z
#
# Youngs Moduli (GPa) = 9.59134 9.59142 32.77779
#
# Poissons Ratio (x) = 0.91807 0.18553
# Poissons Ratio (y) = 0.91806 0.18566
# Poissons Ratio (z) = 0.05429 0.05433
#
# Static dielectric constant tensor:
#      x y z
#    x 2.016240 0.000000 0.000000 
#    y 0.000000 2.016290 0.000000 
#    z 0.000000 0.000000 1.809000 
# 
# From -- ./inp_files/5128.got.cif
#   From: 2010.05.17/outbox.cif.g08.bks.cpg/sg142_3_cif.got.tgz:5128.got - 2010.05.20 13:39:18.
