data_PCOD9573134
_publ_section_title
;
Structure prediction by ZEFSAII (Michael W. Deem and Ramdas Pophale) SiO2 
 PCOD9573134
Probable space group: I 41/A M D
;
_chemical_formula_sum "Si O2"
_cell_formula_units_Z 176
_cell_length_a 18.125222
_cell_length_b 18.125222
_cell_length_c 26.632923
_cell_angle_alpha 90.000000
_cell_angle_beta 90.000000
_cell_angle_gamma 90.000000
_cell_volume 8749.545675
_symmetry_space_group_name_H-M "I 41/A M D"
_symmetry_group_IT_number 141
_space_group.IT_coordinate_system_code '2'
_symmetry_cell_setting 'tetragonal'
loop_
_space_group_symop_operation_xyz
x,y,z
1/4-y,3/4+x,1/4+z
-x,1/2-y,z
1/4+y,1/4-x,3/4+z
x,-y,-z
-x,1/2+y,-z
1/4+y,3/4+x,1/4-z
1/4-y,1/4-x,3/4-z
-x,-y,-z
3/4+y,1/4-x,3/4-z
x,1/2+y,-z
3/4-y,3/4+x,1/4-z
-x,y,z
x,1/2-y,z
3/4-y,1/4-x,3/4+z
3/4+y,3/4+x,1/4+z
1/2+x,1/2+y,1/2+z
3/4-y,1/4+x,3/4+z
1/2-x,-y,1/2+z
3/4+y,3/4-x,1/4+z
1/2+x,1/2-y,1/2-z
1/2-x,y,1/2-z
3/4+y,1/4+x,3/4-z
3/4-y,3/4-x,1/4-z
1/2-x,1/2-y,1/2-z
1/4+y,3/4-x,1/4-z
1/2+x,y,1/2-z
1/4-y,1/4+x,3/4-z
1/2-x,1/2+y,1/2+z
1/2+x,-y,1/2+z
1/4-y,3/4-x,1/4+z
1/4+y,1/4+x,3/4+z
loop_
_atom_site_type_symbol
_atom_site_label
_atom_site_fract_x
_atom_site_fract_y
_atom_site_fract_z
Si Si1 0.412012 0.399380 0.898132
Si Si2 0.169107 0.935120 0.761845
Si Si3 0.306989 0.838231 0.905192
Si Si4 0.649515 0.926564 0.468893
Si Si5 0.412207 0.662207 0.375000
Si Si6 0.579302 0.162204 0.451848
O O1 0.500000 0.392878 0.904714
O O2 0.369731 0.382688 0.948891
O O3 0.396877 0.481363 0.875906
O O4 0.385881 0.345331 0.853957
O O5 0.250000 0.903454 0.750000
O O6 0.124781 0.945603 0.710378
O O7 0.184301 0.013228 0.789702
O O8 0.373270 0.876730 0.875000
O O9 0.314706 0.750000 0.909090
O O10 0.607540 0.894906 0.420186
O O11 0.640495 0.863027 0.510101
O O12 0.624360 0.000000 0.500000
O O13 0.403414 0.750000 0.388553
O O14 0.500000 0.135757 0.470685
O O15 0.578853 0.250000 0.449961
#
# Coordination Sequence:
#
# PCOD9573134 Si02
#       6
#    32  32  32  32  16  32
#     4  10  22  40  64  92 125 168 214 255 315 384
#     4  11  23  39  66  94 126 165 212 265 317 374
#     4  11  23  41  65  94 128 167 213 261 323 389
#     4  11  25  40  63  97 130 163 212 269 317 377
#     4  11  26  46  66  92 132 176 216 264 327 392
#     4  10  21  40  63  87 123 168 209 252 310 379
#
# _framework density 20.115331000000001
#
# number of rings (size 3 to 8) (size 9 to 14) (size 15 to 20)
#    0.000    1.364    3.636    1.091    2.545    5.636 
#    0.000    0.000    0.000    0.000    0.000    0.000 
#    0.000    0.000    0.000    0.000    0.000    0.000 
#
# Total GULP energy -490878.585398 kJ/mol
# GULP energy per Si atom -5578.165743 kJ/mol
# Density = 2.006955 g / cm^3
# Si number density = 20.115331 Si / 1000 Ang^3
#
#
#
# Elastic Constant Matrix: (Units=GPa)
#
#
# Indices 1 2 3 4 5 6 
#
# 1 48.4364 19.5855 30.0169 0.0000 0.0000 0.0000
# 2 19.5855 48.4364 30.0169 0.0000 0.0000 0.0000
# 3 30.0169 30.0169 104.4681 0.0000 0.0000 0.0000
# 4 0.0000 0.0000 0.0000 47.9827 0.0000 0.0000
# 5 0.0000 0.0000 0.0000 0.0000 47.9827 0.0000
# 6 0.0000 0.0000 0.0000 0.0000 0.0000 22.9949
#
#
#
# Elastic Compliance Matrix: (Units=1/GPa)
#
#
# Indices 1 2 3 4 5 6 
#
# 1 0.027178 -0.007483 -0.005659 0.000000 0.000000 0.000000
# 2 -0.007483 0.027178 -0.005659 0.000000 0.000000 0.000000
# 3 -0.005659 -0.005659 0.012824 0.000000 0.000000 0.000000
# 4 0.000000 0.000000 0.000000 0.020841 0.000000 0.000000
# 5 0.000000 0.000000 0.000000 0.000000 0.020841 0.000000
# 6 0.000000 0.000000 0.000000 0.000000 0.000000 0.043488
#
#
# Mechanical properties :
#
#
# Convention : Reuss Voigt Hill
#
# Bulk Modulus (GPa) = 33.80762 40.06439 36.93601
# Shear Modulus (GPa) = 25.02349 31.90685 28.46517
#
# Velocity S-wave (km/s) = 3.53087 3.98703 3.76586
# Velocity P-wave (km/s) = 5.78499 6.41528 6.10827
#
# Compressibility (1/GPa) = 0.02957913
#
# Stress axis : x y z
#
# Youngs Moduli (GPa) = 36.79402 36.79402 77.97635
#
# Poissons Ratio (x) = 0.27532 0.44128
# Poissons Ratio (y) = 0.27532 0.44128
# Poissons Ratio (z) = 0.20822 0.20822
#
# Static dielectric constant tensor:
#      x y z
#    x 1.734260 0.000000 0.000000 
#    y 0.000000 1.734260 0.000000 
#    z 0.000000 0.000000 1.701830 
# 
# From -- ./inp_files/12906.got.cif
#   From: 2010.05.17/outbox.cif.g08.bks.cpg/sg141_7_cif.got.tgz:12906.got - 2010.05.20 13:30:51.
