data_PCOD9573552
_publ_section_title
;
Structure prediction by ZEFSAII (Michael W. Deem and Ramdas Pophale) SiO2 
 PCOD9573552
Probable space group: I 41/A C D
;
_chemical_formula_sum "Si O2"
_cell_formula_units_Z 144
_cell_length_a 18.424226
_cell_length_b 18.424226
_cell_length_c 18.846333
_cell_angle_alpha 90.000000
_cell_angle_beta 90.000000
_cell_angle_gamma 90.000000
_cell_volume 6397.427384
_symmetry_space_group_name_H-M "I 41/A C D"
_symmetry_group_IT_number 142
_space_group.IT_coordinate_system_code '2'
_symmetry_cell_setting 'tetragonal'
loop_
_space_group_symop_operation_xyz
x,y,z
1/4-y,3/4+x,1/4+z
-x,1/2-y,z
1/4+y,1/4-x,3/4+z
x,-y,1/2-z
1/2-x,y,-z
3/4+y,1/4+x,1/4-z
1/4-y,1/4-x,1/4-z
-x,-y,-z
3/4+y,1/4-x,3/4-z
x,1/2+y,-z
3/4-y,3/4+x,1/4-z
-x,y,1/2+z
1/2+x,-y,z
1/4-y,3/4-x,3/4+z
3/4+y,3/4+x,3/4+z
1/2+x,1/2+y,1/2+z
3/4-y,1/4+x,3/4+z
1/2-x,-y,1/2+z
3/4+y,3/4-x,1/4+z
1/2+x,1/2-y,-z
-x,1/2+y,1/2-z
1/4+y,3/4+x,3/4-z
3/4-y,3/4-x,3/4-z
1/2-x,1/2-y,1/2-z
1/4+y,3/4-x,1/4-z
1/2+x,y,1/2-z
1/4-y,1/4+x,3/4-z
1/2-x,1/2+y,z
x,1/2-y,1/2+z
3/4-y,1/4-x,1/4+z
1/4+y,1/4+x,1/4+z
loop_
_atom_site_type_symbol
_atom_site_label
_atom_site_fract_x
_atom_site_fract_y
_atom_site_fract_z
Si Si1 0.389656 0.942258 0.494588
Si Si2 0.817454 0.271873 0.661097
Si Si3 0.424725 0.344466 0.625847
Si Si4 0.595494 0.599254 0.219659
Si Si5 0.781127 0.000000 0.250000
O O1 0.441490 0.926139 0.560229
O O2 0.380578 0.875108 0.441135
O O3 0.437615 0.997853 0.445549
O O4 0.316150 0.979411 0.521679
O O5 0.882239 0.321277 0.692332
O O6 0.820816 0.278913 0.576489
O O7 0.404281 0.260811 0.640614
O O8 0.411849 0.391670 0.696447
O O9 0.661317 0.543893 0.201560
#
# Coordination Sequence:
#
# PCOD9573552 Si02
#       5
#    32  32  32  32  16
#     4  10  20  40  65 101 138 177 220 288 332 407
#     4   9  19  37  68  93 130 174 223 267 336 406
#     4  11  23  40  66  94 130 177 232 285 337 405
#     4  10  19  38  66  98 126 184 223 267 333 424
#     4  10  22  38  68 102 142 178 230 270 356 404
#
# _framework density 22.509046999999999
#
# number of rings (size 3 to 8) (size 9 to 14) (size 15 to 20)
#    0.000    2.000    2.222    1.333    0.000    2.667 
#    0.000    4.444   24.444    0.000    0.000    0.000 
#    0.000    0.000    0.000    0.000    0.000    0.000 
#
# Total GULP energy -401625.984708 kJ/mol
# GULP energy per Si atom -5578.138676 kJ/mol
# Density = 2.245782 g / cm^3
# Si number density = 22.509047 Si / 1000 Ang^3
#
#
#
# Elastic Constant Matrix: (Units=GPa)
#
#
# Indices 1 2 3 4 5 6 
#
# 1 94.7965 36.8651 58.5004 0.0000 0.0000 0.0000
# 2 36.8651 94.7965 58.5004 0.0000 0.0000 0.0000
# 3 58.5004 58.5004 71.6949 0.0000 0.0000 0.0000
# 4 0.0000 0.0000 0.0000 13.4425 0.0000 0.0000
# 5 0.0000 0.0000 0.0000 0.0000 13.4425 0.0000
# 6 0.0000 0.0000 0.0000 0.0000 0.0000 24.1498
#
#
#
# Elastic Compliance Matrix: (Units=1/GPa)
#
#
# Indices 1 2 3 4 5 6 
#
# 1 0.022446 0.005184 -0.022545 0.000000 0.000000 0.000000
# 2 0.005184 0.022446 -0.022545 0.000000 0.000000 0.000000
# 3 -0.022545 -0.022545 0.050739 0.000000 0.000000 0.000000
# 4 0.000000 0.000000 0.000000 0.074391 0.000000 0.000000
# 5 0.000000 0.000000 0.000000 0.000000 0.074391 0.000000
# 6 0.000000 0.000000 0.000000 0.000000 0.000000 0.041408
#
#
# Mechanical properties :
#
#
# Convention : Reuss Voigt Hill
#
# Bulk Modulus (GPa) = 63.21278 63.22442 63.21860
# Shear Modulus (GPa) = 13.48053 17.36842 15.42448
#
# Velocity S-wave (km/s) = 2.44989 2.78082 2.62058
# Velocity P-wave (km/s) = 6.01222 6.20161 6.10765
#
# Compressibility (1/GPa) = 0.01581959
#
# Stress axis : x y z
#
# Youngs Moduli (GPa) = 44.55198 44.55198 19.70853
#
# Poissons Ratio (x) = -0.23095 0.44432
# Poissons Ratio (y) = -0.23095 0.44432
# Poissons Ratio (z) = 1.00441 1.00441
#
# Static dielectric constant tensor:
#      x y z
#    x 1.850140 0.000000 0.000000 
#    y 0.000000 1.850140 0.000000 
#    z 0.000000 0.000000 1.880550 
# 
# From -- ./inp_files/7274.got.cif
#   From: 2010.05.17/outbox.cif.g08.bks.cpg/sg142_4_cif.got.tgz:7274.got - 2010.05.20 13:39:18.
