data_PCOD9573028
_publ_section_title
;
Structure prediction by ZEFSAII (Michael W. Deem and Ramdas Pophale) SiO2 
 PCOD9573028
Probable space group: I 41/A M D
;
_chemical_formula_sum "Si O2"
_cell_formula_units_Z 240
_cell_length_a 20.395188
_cell_length_b 20.395188
_cell_length_c 30.190641
_cell_angle_alpha 90.000000
_cell_angle_beta 90.000000
_cell_angle_gamma 90.000000
_cell_volume 12558.210541
_symmetry_space_group_name_H-M "I 41/A M D"
_symmetry_group_IT_number 141
_space_group.IT_coordinate_system_code '2'
_symmetry_cell_setting 'tetragonal'
loop_
_space_group_symop_operation_xyz
x,y,z
1/4-y,3/4+x,1/4+z
-x,1/2-y,z
1/4+y,1/4-x,3/4+z
x,-y,-z
-x,1/2+y,-z
1/4+y,3/4+x,1/4-z
1/4-y,1/4-x,3/4-z
-x,-y,-z
3/4+y,1/4-x,3/4-z
x,1/2+y,-z
3/4-y,3/4+x,1/4-z
-x,y,z
x,1/2-y,z
3/4-y,1/4-x,3/4+z
3/4+y,3/4+x,1/4+z
1/2+x,1/2+y,1/2+z
3/4-y,1/4+x,3/4+z
1/2-x,-y,1/2+z
3/4+y,3/4-x,1/4+z
1/2+x,1/2-y,1/2-z
1/2-x,y,1/2-z
3/4+y,1/4+x,3/4-z
3/4-y,3/4-x,1/4-z
1/2-x,1/2-y,1/2-z
1/4+y,3/4-x,1/4-z
1/2+x,y,1/2-z
1/4-y,1/4+x,3/4-z
1/2-x,1/2+y,1/2+z
1/2+x,-y,1/2+z
1/4-y,3/4-x,1/4+z
1/4+y,1/4+x,3/4+z
loop_
_atom_site_type_symbol
_atom_site_label
_atom_site_fract_x
_atom_site_fract_y
_atom_site_fract_z
Si Si1 0.253436 0.490251 0.321848
Si Si2 0.928567 0.918841 0.320108
Si Si3 0.706064 0.853280 0.046938
Si Si4 0.858374 0.823486 0.034314
Si Si5 0.685556 0.137787 0.053118
Si Si6 0.423050 0.826951 0.875000
Si Si7 0.280359 0.139943 0.702922
Si Si8 0.930890 0.420075 0.109288
O O1 0.247892 0.497892 0.375000
O O2 0.319438 0.453914 0.307767
O O3 0.189469 0.452925 0.304717
O O4 0.261182 0.562958 0.301548
O O5 0.924644 0.895892 0.269067
O O6 0.871417 0.881161 0.344448
O O7 0.000000 0.901339 0.337949
O O8 0.919823 0.996983 0.320988
O O9 0.782486 0.832219 0.048286
O O10 0.672364 0.819414 0.088098
O O11 0.679035 0.840710 0.997945
O O12 0.881485 0.750000 0.047495
O O13 0.894822 0.890544 0.048796
O O14 0.624757 0.154901 0.084219
O O15 0.500000 0.836493 0.885784
O O16 0.250000 0.162749 0.750000
O O17 0.242014 0.173326 0.662506
O O18 0.000000 0.391764 0.092750
#
# Coordination Sequence:
#
# PCOD9573028 Si02
#       8
#    32  32  32  32  32  16  32  32
#     4  11  17  32  62  94 123 149 193 254 306 348
#     4  10  20  38  60  84 114 155 204 250 298 362
#     4  10  21  35  57  92 126 155 198 250 309 374
#     4   9  18  33  57  83 114 154 206 258 306 366
#     4  11  20  39  68  92 119 158 200 251 306 359
#     4  11  26  44  64  96 130 162 206 254 303 372
#     4  11  19  35  54  83 118 158 201 255 312 352
#     4  12  24  37  55  86 124 160 202 254 310 368
#
# _framework density 19.111003
#
# number of rings (size 3 to 8) (size 9 to 14) (size 15 to 20)
#    0.000    1.400    4.667    2.800    0.000    2.133 
#    0.000    0.667    0.000    2.000    0.000    0.000 
#    0.000    6.667    0.000    0.000    0.000    0.000 
#
# Total GULP energy -669809.620378 kJ/mol
# GULP energy per Si atom -5581.746836 kJ/mol
# Density = 1.906751 g / cm^3
# Si number density = 19.111003 Si / 1000 Ang^3
#
#
#
# Elastic Constant Matrix: (Units=GPa)
#
#
# Indices 1 2 3 4 5 6 
#
# 1 105.8788 34.1878 34.6109 0.0000 0.0000 0.0000
# 2 34.1878 105.8779 34.6106 0.0000 0.0000 0.0000
# 3 34.6109 34.6106 96.1482 0.0000 0.0000 0.0000
# 4 0.0000 0.0000 0.0000 -13.7429 0.0000 0.0000
# 5 0.0000 0.0000 0.0000 0.0000 -13.7453 0.0000
# 6 0.0000 0.0000 0.0000 0.0000 0.0000 1.1744
#
#
#
# Elastic Compliance Matrix: (Units=1/GPa)
#
#
# Indices 1 2 3 4 5 6 
#
# 1 0.011317 -0.002632 -0.003126 0.000000 0.000000 0.000000
# 2 -0.002632 0.011317 -0.003126 0.000000 0.000000 0.000000
# 3 -0.003126 -0.003126 0.012651 0.000000 0.000000 0.000000
# 4 0.000000 0.000000 0.000000 -0.072765 0.000000 0.000000
# 5 0.000000 0.000000 0.000000 0.000000 -0.072752 0.000000
# 6 0.000000 0.000000 0.000000 0.000000 0.000000 0.851469
#
#
# Mechanical properties :
#
#
# Convention : Reuss Voigt Hill
#
# Bulk Modulus (GPa) = 57.09224 57.19151 57.14187
# Shear Modulus (GPa) = 6.53728 8.37029 7.45379
#
# Velocity S-wave (km/s) = 1.85152 2.09507 1.97705
# Velocity P-wave (km/s) = 5.87449 5.98693 5.93098
#
# Compressibility (1/GPa) = 0.01751552
#
# Stress axis : x y z
#
# Youngs Moduli (GPa) = 88.36569 88.36503 79.04332
#
# Poissons Ratio (x) = 0.23259 0.24710
# Poissons Ratio (y) = 0.23260 0.24710
# Poissons Ratio (z) = 0.27625 0.27624
#
# Static dielectric constant tensor:
#      x y z
#    x 1.682410 0.000000 0.000000 
#    y 0.000000 1.682410 0.000000 
#    z 0.000000 0.000000 1.670830 
# 
# From -- ./inp_files/13175.got.cif
#   From: 2010.05.17/outbox.cif.g08.bks.cpg/sg141_7_cif.got.tgz:13175.got - 2010.05.20 13:30:51.
