data_PCOD9573172
_publ_section_title
;
Structure prediction by ZEFSAII (Michael W. Deem and Ramdas Pophale) SiO2 
 PCOD9573172
Probable space group: I 41/A M D
;
_chemical_formula_sum "Si O2"
_cell_formula_units_Z 176
_cell_length_a 15.066060
_cell_length_b 15.066060
_cell_length_c 34.236696
_cell_angle_alpha 90.000000
_cell_angle_beta 90.000000
_cell_angle_gamma 90.000000
_cell_volume 7771.256290
_symmetry_space_group_name_H-M "I 41/A M D"
_symmetry_group_IT_number 141
_space_group.IT_coordinate_system_code '2'
_symmetry_cell_setting 'tetragonal'
loop_
_space_group_symop_operation_xyz
x,y,z
1/4-y,3/4+x,1/4+z
-x,1/2-y,z
1/4+y,1/4-x,3/4+z
x,-y,-z
-x,1/2+y,-z
1/4+y,3/4+x,1/4-z
1/4-y,1/4-x,3/4-z
-x,-y,-z
3/4+y,1/4-x,3/4-z
x,1/2+y,-z
3/4-y,3/4+x,1/4-z
-x,y,z
x,1/2-y,z
3/4-y,1/4-x,3/4+z
3/4+y,3/4+x,1/4+z
1/2+x,1/2+y,1/2+z
3/4-y,1/4+x,3/4+z
1/2-x,-y,1/2+z
3/4+y,3/4-x,1/4+z
1/2+x,1/2-y,1/2-z
1/2-x,y,1/2-z
3/4+y,1/4+x,3/4-z
3/4-y,3/4-x,1/4-z
1/2-x,1/2-y,1/2-z
1/4+y,3/4-x,1/4-z
1/2+x,y,1/2-z
1/4-y,1/4+x,3/4-z
1/2-x,1/2+y,1/2+z
1/2+x,-y,1/2+z
1/4-y,3/4-x,1/4+z
1/4+y,1/4+x,3/4+z
loop_
_atom_site_type_symbol
_atom_site_label
_atom_site_fract_x
_atom_site_fract_y
_atom_site_fract_z
Si Si1 0.395377 0.974240 0.170116
Si Si2 0.393167 0.148241 0.668198
Si Si3 0.596338 0.400556 0.983495
Si Si4 0.855087 0.536168 0.245964
Si Si5 0.394732 0.144732 0.125000
Si Si6 0.099698 0.144291 0.145994
O O1 0.500000 0.977567 0.163664
O O2 0.368937 0.076475 0.160101
O O3 0.383037 0.928333 0.211984
O O4 0.353979 0.909535 0.137802
O O5 0.364729 0.114729 0.625000
O O6 0.500000 0.152283 0.665330
O O7 0.360804 0.250000 0.674437
O O8 0.373756 0.088109 0.706126
O O9 0.500000 0.358675 0.991832
O O10 0.686456 0.355401 0.997402
O O11 0.610014 0.399885 0.936998
O O12 0.592942 0.500000 0.000000
O O13 0.750000 0.527486 0.250000
O O14 0.500000 0.133676 0.114931
O O15 0.090170 0.250000 0.138463
O O16 0.000000 0.106728 0.149008
#
# Coordination Sequence:
#
# PCOD9573172 Si02
#       6
#    32  32  32  32  16  32
#     4  10  22  38  59  85 120 160 201 255 311 370
#     4   9  20  42  69  91 118 165 218 268 329 395
#     4   9  20  38  59  83 118 163 204 248 307 373
#     4  11  24  37  56  94 128 160 206 263 318 382
#     4   9  20  38  62  90 120 168 224 261 306 384
#     4   9  19  37  61  87 114 154 206 252 308 376
#
# _framework density 22.647562000000001
#
# number of rings (size 3 to 8) (size 9 to 14) (size 15 to 20)
#    0.000    2.455    0.000    1.091    5.091    4.727 
#    0.000    3.636    0.000    0.000    0.000    0.000 
#    0.000    0.000    0.000    0.000    0.000    0.000 
#
# Total GULP energy -490304.194867 kJ/mol
# GULP energy per Si atom -5571.638578 kJ/mol
# Density = 2.259601 g / cm^3
# Si number density = 22.647562 Si / 1000 Ang^3
#
#
#
# Elastic Constant Matrix: (Units=GPa)
#
#
# Indices 1 2 3 4 5 6 
#
# 1 82.4203 26.4303 50.0373 0.0000 0.0000 0.0000
# 2 26.4303 82.4203 50.0373 0.0000 0.0000 0.0000
# 3 50.0373 50.0373 151.3481 0.0000 0.0000 0.0000
# 4 0.0000 0.0000 0.0000 11.4494 0.0000 0.0000
# 5 0.0000 0.0000 0.0000 0.0000 11.4494 0.0000
# 6 0.0000 0.0000 0.0000 0.0000 0.0000 -6.7404
#
#
#
# Elastic Compliance Matrix: (Units=1/GPa)
#
#
# Indices 1 2 3 4 5 6 
#
# 1 0.015530 -0.002331 -0.004364 0.000000 0.000000 0.000000
# 2 -0.002331 0.015530 -0.004364 0.000000 0.000000 0.000000
# 3 -0.004364 -0.004364 0.009493 0.000000 0.000000 0.000000
# 4 0.000000 0.000000 0.000000 0.087341 0.000000 0.000000
# 5 0.000000 0.000000 0.000000 0.000000 0.087341 0.000000
# 6 0.000000 0.000000 0.000000 0.000000 0.000000 -0.148360
#
#
# Mechanical properties :
#
#
# Convention : Reuss Voigt Hill
#
# Bulk Modulus (GPa) = 54.24317 63.24428 58.74372
# Shear Modulus (GPa) = 52.55728 15.87729 34.21728
#
# Velocity S-wave (km/s) = 4.82255 2.65063 3.89119
# Velocity P-wave (km/s) = 7.41703 6.11178 6.79581
#
# Compressibility (1/GPa) = 0.01843550
#
# Stress axis : x y z
#
# Youngs Moduli (GPa) = 64.39347 64.39347 105.34506
#
# Poissons Ratio (x) = 0.15009 0.45969
# Poissons Ratio (y) = 0.15009 0.45969
# Poissons Ratio (z) = 0.28099 0.28099
#
# Static dielectric constant tensor:
#      x y z
#    x 1.896110 0.000000 0.000000 
#    y 0.000000 1.896110 0.000000 
#    z 0.000000 0.000000 1.935830 
# 
# From -- ./inp_files/12903.got.cif
#   From: 2010.05.17/outbox.cif.g08.bks.cpg/sg141_7_cif.got.tgz:12903.got - 2010.05.20 13:30:51.
