data_PCOD9573338
_publ_section_title
;
Structure prediction by ZEFSAII (Michael W. Deem and Ramdas Pophale) SiO2 
 PCOD9573338
Probable space group: I 41/A M D
;
_chemical_formula_sum "Si O2"
_cell_formula_units_Z 132
_cell_length_a 21.005903
_cell_length_b 21.005903
_cell_length_c 14.559276
_cell_angle_alpha 90.000000
_cell_angle_beta 90.000000
_cell_angle_gamma 90.000000
_cell_volume 6424.250846
_symmetry_space_group_name_H-M "I 41/A M D"
_symmetry_group_IT_number 141
_space_group.IT_coordinate_system_code '2'
_symmetry_cell_setting 'tetragonal'
loop_
_space_group_symop_operation_xyz
x,y,z
1/4-y,3/4+x,1/4+z
-x,1/2-y,z
1/4+y,1/4-x,3/4+z
x,-y,-z
-x,1/2+y,-z
1/4+y,3/4+x,1/4-z
1/4-y,1/4-x,3/4-z
-x,-y,-z
3/4+y,1/4-x,3/4-z
x,1/2+y,-z
3/4-y,3/4+x,1/4-z
-x,y,z
x,1/2-y,z
3/4-y,1/4-x,3/4+z
3/4+y,3/4+x,1/4+z
1/2+x,1/2+y,1/2+z
3/4-y,1/4+x,3/4+z
1/2-x,-y,1/2+z
3/4+y,3/4-x,1/4+z
1/2+x,1/2-y,1/2-z
1/2-x,y,1/2-z
3/4+y,1/4+x,3/4-z
3/4-y,3/4-x,1/4-z
1/2-x,1/2-y,1/2-z
1/4+y,3/4-x,1/4-z
1/2+x,y,1/2-z
1/4-y,1/4+x,3/4-z
1/2-x,1/2+y,1/2+z
1/2+x,-y,1/2+z
1/4-y,3/4-x,1/4+z
1/4+y,1/4+x,3/4+z
loop_
_atom_site_type_symbol
_atom_site_label
_atom_site_fract_x
_atom_site_fract_y
_atom_site_fract_z
Si Si1 0.648762 0.826798 0.460015
Si Si2 0.000000 0.883025 0.727746
Si Si3 0.500000 0.572845 0.977069
Si Si4 0.181197 0.001571 0.199609
Si Si5 0.000000 0.250000 0.375000
Si Si6 0.117350 0.372227 0.591408
O O1 0.657629 0.750000 0.447154
O O2 0.607783 0.857783 0.375000
O O3 0.716225 0.865034 0.480131
O O4 0.612827 0.840035 0.556718
O O5 0.000000 0.920511 0.632452
O O6 0.059730 0.892647 0.791956
O O7 0.000000 0.810713 0.690254
O O8 0.500000 0.500000 0.000000
O O9 0.437996 0.602683 0.024487
O O10 0.200828 0.950828 0.125000
O O11 0.250000 0.008633 0.250000
O O12 0.167241 0.070971 0.159292
#
# Coordination Sequence:
#
# PCOD9573338 Si02
#       6
#    32  16  16  32   4  32
#     4  11  27  49  72 106 143 186 249 308 361 433
#     4  12  26  44  69 102 144 192 236 288 360 441
#     4  12  26  44  67 107 146 184 238 298 359 439
#     4  11  24  46  72 105 143 188 238 296 369 436
#     4  12  20  52  60  92 150 184 220 288 340 432
#     4  12  25  44  75 104 141 192 236 297 369 437
#
# _framework density 20.547143999999999
#
# number of rings (size 3 to 8) (size 9 to 14) (size 15 to 20)
#    0.000    0.485    6.061    0.727    6.788    2.182 
#    0.000    1.212    0.000    0.000    0.000    0.000 
#    0.000    0.000    0.000    0.000    0.000    0.000 
#
# Total GULP energy -367434.091057 kJ/mol
# GULP energy per Si atom -5567.183198 kJ/mol
# Density = 2.050038 g / cm^3
# Si number density = 20.547144 Si / 1000 Ang^3
#
#
#
# Elastic Constant Matrix: (Units=GPa)
#
#
# Indices 1 2 3 4 5 6 
#
# 1 151.6312 38.1125 47.1423 0.0000 0.0000 0.0000
# 2 38.1125 151.6312 47.1423 0.0000 0.0000 0.0000
# 3 47.1423 47.1423 101.2392 0.0000 0.0000 0.0000
# 4 0.0000 0.0000 0.0000 27.6340 0.0000 0.0000
# 5 0.0000 0.0000 0.0000 0.0000 27.6340 0.0000
# 6 0.0000 0.0000 0.0000 0.0000 0.0000 19.7921
#
#
#
# Elastic Compliance Matrix: (Units=1/GPa)
#
#
# Indices 1 2 3 4 5 6 
#
# 1 0.007833 -0.000976 -0.003193 0.000000 0.000000 0.000000
# 2 -0.000976 0.007833 -0.003193 0.000000 0.000000 0.000000
# 3 -0.003193 -0.003193 0.012851 0.000000 0.000000 0.000000
# 4 0.000000 0.000000 0.000000 0.036187 0.000000 0.000000
# 5 0.000000 0.000000 0.000000 0.000000 0.036187 0.000000
# 6 0.000000 0.000000 0.000000 0.000000 0.000000 0.050525
#
#
# Mechanical properties :
#
#
# Convention : Reuss Voigt Hill
#
# Bulk Modulus (GPa) = 72.49935 74.36618 73.43276
# Shear Modulus (GPa) = 29.28452 33.15231 31.21842
#
# Velocity S-wave (km/s) = 3.77932 4.02117 3.90212
# Velocity P-wave (km/s) = 7.37600 7.60469 7.49122
#
# Compressibility (1/GPa) = 0.01379323
#
# Stress axis : x y z
#
# Youngs Moduli (GPa) = 127.66532 127.66532 77.81394
#
# Poissons Ratio (x) = 0.12462 0.24845
# Poissons Ratio (y) = 0.12462 0.24845
# Poissons Ratio (z) = 0.40762 0.40762
#
# Static dielectric constant tensor:
#      x y z
#    x 1.694830 0.000000 0.000000 
#    y 0.000000 1.694830 0.000000 
#    z 0.000000 0.000000 1.429770 
# 
# From -- ./inp_files/6323.got.cif
#   From: 2010.05.17/outbox.cif.g08.bks.cpg/sg141_4_cif.got.tgz:6323.got - 2010.05.20 13:30:51.
