data_PCOD9573468
_publ_section_title
;
Structure prediction by ZEFSAII (Michael W. Deem and Ramdas Pophale) SiO2 
 PCOD9573468
Probable space group: I 41/A C D
;
_chemical_formula_sum "Si O2"
_cell_formula_units_Z 112
_cell_length_a 26.893631
_cell_length_b 26.893631
_cell_length_c 7.834441
_cell_angle_alpha 90.000000
_cell_angle_beta 90.000000
_cell_angle_gamma 90.000000
_cell_volume 5666.395681
_symmetry_space_group_name_H-M "I 41/A C D"
_symmetry_group_IT_number 142
_space_group.IT_coordinate_system_code '2'
_symmetry_cell_setting 'tetragonal'
loop_
_space_group_symop_operation_xyz
x,y,z
1/4-y,3/4+x,1/4+z
-x,1/2-y,z
1/4+y,1/4-x,3/4+z
x,-y,1/2-z
1/2-x,y,-z
3/4+y,1/4+x,1/4-z
1/4-y,1/4-x,1/4-z
-x,-y,-z
3/4+y,1/4-x,3/4-z
x,1/2+y,-z
3/4-y,3/4+x,1/4-z
-x,y,1/2+z
1/2+x,-y,z
1/4-y,3/4-x,3/4+z
3/4+y,3/4+x,3/4+z
1/2+x,1/2+y,1/2+z
3/4-y,1/4+x,3/4+z
1/2-x,-y,1/2+z
3/4+y,3/4-x,1/4+z
1/2+x,1/2-y,-z
-x,1/2+y,1/2-z
1/4+y,3/4+x,3/4-z
3/4-y,3/4-x,3/4-z
1/2-x,1/2-y,1/2-z
1/4+y,3/4-x,1/4-z
1/2+x,y,1/2-z
1/4-y,1/4+x,3/4-z
1/2-x,1/2+y,z
x,1/2-y,1/2+z
3/4-y,1/4-x,1/4+z
1/4+y,1/4+x,1/4+z
loop_
_atom_site_type_symbol
_atom_site_label
_atom_site_fract_x
_atom_site_fract_y
_atom_site_fract_z
Si Si1 0.529600 0.943831 0.181071
Si Si2 0.306104 0.675274 0.448884
Si Si3 0.874020 0.592787 0.181965
Si Si4 0.815991 0.000000 0.750000
O O1 0.472154 0.928311 0.185731
O O2 0.566768 0.911611 0.298991
O O3 0.530050 0.000000 0.250000
O O4 0.551635 0.945479 0.991609
O O5 0.250000 0.659067 0.500000
O O6 0.346469 0.631635 0.439748
O O7 0.856739 0.606739 0.375000
O O8 0.851501 0.538121 0.149506
O O9 0.781281 0.031281 0.625000
#
# Coordination Sequence:
#
# PCOD9573468 Si02
#       4
#    32  32  32  16
#     4  10  18  35  52  73 105 138 175 227 268 313
#     4  10  20  33  53  79 103 138 183 222 269 325
#     4   9  19  34  52  72 105 143 173 212 274 321
#     4  10  20  34  48  70 104 144 172 210 264 322
#
# _framework density 19.765650999999998
#
# number of rings (size 3 to 8) (size 9 to 14) (size 15 to 20)
#    0.000    2.286    1.429    3.429    2.000    0.000 
#    0.000    5.714    0.000    0.857    0.000    6.000 
#    0.000    0.000    0.000    0.000    0.000    0.000 
#
# Total GULP energy -312582.039342 kJ/mol
# GULP energy per Si atom -5581.822131 kJ/mol
# Density = 1.972066 g / cm^3
# Si number density = 19.765651 Si / 1000 Ang^3
#
#
#
# Elastic Constant Matrix: (Units=GPa)
#
#
# Indices 1 2 3 4 5 6 
#
# 1 87.5094 49.1813 22.1831 0.0000 0.0000 0.0000
# 2 49.1813 87.5094 22.1831 0.0000 0.0000 0.0000
# 3 22.1831 22.1831 74.6044 0.0000 0.0000 0.0000
# 4 0.0000 0.0000 0.0000 29.4851 0.0000 0.0000
# 5 0.0000 0.0000 0.0000 0.0000 29.4851 0.0000
# 6 0.0000 0.0000 0.0000 0.0000 0.0000 25.3942
#
#
#
# Elastic Compliance Matrix: (Units=1/GPa)
#
#
# Indices 1 2 3 4 5 6 
#
# 1 0.017094 -0.008997 -0.002408 0.000000 0.000000 0.000000
# 2 -0.008997 0.017094 -0.002408 0.000000 0.000000 0.000000
# 3 -0.002408 -0.002408 0.014836 0.000000 0.000000 0.000000
# 4 0.000000 0.000000 0.000000 0.033915 0.000000 0.000000
# 5 0.000000 0.000000 0.000000 0.000000 0.033915 0.000000
# 6 0.000000 0.000000 0.000000 0.000000 0.000000 0.039379
#
#
# Mechanical properties :
#
#
# Convention : Reuss Voigt Hill
#
# Bulk Modulus (GPa) = 46.72963 48.52423 47.62693
# Shear Modulus (GPa) = 26.17928 27.27791 26.72859
#
# Velocity S-wave (km/s) = 3.64329 3.71895 3.68132
# Velocity P-wave (km/s) = 6.43361 6.56079 6.49751
#
# Compressibility (1/GPa) = 0.02139970
#
# Stress axis : x y z
#
# Youngs Moduli (GPa) = 58.50043 58.50043 67.40429
#
# Poissons Ratio (x) = 0.52631 0.16229
# Poissons Ratio (y) = 0.52631 0.16229
# Poissons Ratio (z) = 0.14085 0.14085
#
# Static dielectric constant tensor:
#      x y z
#    x 1.716810 0.000000 0.000000 
#    y 0.000000 1.716810 0.000000 
#    z 0.000000 0.000000 1.771940 
# 
# From -- ./inp_files/1962.got.cif
#   From: 2010.05.17/outbox.cif.g08.bks.cpg/sg142_1_cif.got.tgz:1962.got - 2010.05.20 13:39:18.
