data_PCOD9573168
_publ_section_title
;
Structure prediction by ZEFSAII (Michael W. Deem and Ramdas Pophale) SiO2 
 PCOD9573168
Probable space group: I 41/A M D
;
_chemical_formula_sum "Si O2"
_cell_formula_units_Z 116
_cell_length_a 25.745291
_cell_length_b 25.745291
_cell_length_c 8.254412
_cell_angle_alpha 90.000000
_cell_angle_beta 90.000000
_cell_angle_gamma 90.000000
_cell_volume 5471.189433
_symmetry_space_group_name_H-M "I 41/A M D"
_symmetry_group_IT_number 141
_space_group.IT_coordinate_system_code '2'
_symmetry_cell_setting 'tetragonal'
loop_
_space_group_symop_operation_xyz
x,y,z
1/4-y,3/4+x,1/4+z
-x,1/2-y,z
1/4+y,1/4-x,3/4+z
x,-y,-z
-x,1/2+y,-z
1/4+y,3/4+x,1/4-z
1/4-y,1/4-x,3/4-z
-x,-y,-z
3/4+y,1/4-x,3/4-z
x,1/2+y,-z
3/4-y,3/4+x,1/4-z
-x,y,z
x,1/2-y,z
3/4-y,1/4-x,3/4+z
3/4+y,3/4+x,1/4+z
1/2+x,1/2+y,1/2+z
3/4-y,1/4+x,3/4+z
1/2-x,-y,1/2+z
3/4+y,3/4-x,1/4+z
1/2+x,1/2-y,1/2-z
1/2-x,y,1/2-z
3/4+y,1/4+x,3/4-z
3/4-y,3/4-x,1/4-z
1/2-x,1/2-y,1/2-z
1/4+y,3/4-x,1/4-z
1/2+x,y,1/2-z
1/4-y,1/4+x,3/4-z
1/2-x,1/2+y,1/2+z
1/2+x,-y,1/2+z
1/4-y,3/4-x,1/4+z
1/4+y,1/4+x,3/4+z
loop_
_atom_site_type_symbol
_atom_site_label
_atom_site_fract_x
_atom_site_fract_y
_atom_site_fract_z
Si Si1 0.682447 0.500000 0.500000
Si Si2 0.500000 0.971863 0.828584
Si Si3 0.096444 0.653557 0.625000
Si Si4 0.313806 0.163651 0.877796
Si Si5 0.380053 0.750000 0.703232
Si Si6 0.500000 0.625685 0.424881
Si Si7 0.500000 0.250000 0.625000
O O1 0.719739 0.469739 0.625000
O O2 0.640774 0.541970 0.567088
O O3 0.450697 0.979831 0.711211
O O4 0.500000 0.913164 0.902767
O O5 0.500000 0.000000 0.000000
O O6 0.097411 0.601125 0.723530
O O7 0.089245 0.698282 0.757024
O O8 0.347222 0.199850 0.755288
O O9 0.363597 0.750000 0.517537
O O10 0.500000 0.689239 0.444696
#
# Coordination Sequence:
#
# PCOD9573168 Si02
#       7
#    16  16  16  32  16  16   4
#     4  12  32  51  74 100 134 193 260 344 394 448
#     4   9  21  40  69 108 135 184 236 290 368 455
#     4  10  22  41  64  99 140 184 224 285 352 451
#     4  10  25  45  70 102 144 185 249 302 384 453
#     4  10  22  37  65  99 145 188 229 277 348 437
#     4  11  24  41  71 116 148 197 235 290 370 458
#     4  12  24  36  68 110 156 188 224 270 356 472
#
# _framework density 21.201971
#
# number of rings (size 3 to 8) (size 9 to 14) (size 15 to 20)
#    0.000    1.655    0.000    2.483   11.586    4.690 
#    0.000    0.000    0.000    0.000    0.000    0.000 
#    0.000    0.000    0.000    0.000    0.000    0.000 
#
# Total GULP energy -322910.653813 kJ/mol
# GULP energy per Si atom -5567.425066 kJ/mol
# Density = 2.115371 g / cm^3
# Si number density = 21.201971 Si / 1000 Ang^3
#
#
#
# Elastic Constant Matrix: (Units=GPa)
#
#
# Indices 1 2 3 4 5 6 
#
# 1 121.0023 71.8580 61.9050 0.0000 0.0000 0.0000
# 2 71.8580 121.0011 61.9043 0.0000 0.0000 0.0000
# 3 61.9050 61.9043 137.3872 0.0000 0.0000 0.0000
# 4 0.0000 0.0000 0.0000 41.7229 0.0000 0.0000
# 5 0.0000 0.0000 0.0000 0.0000 41.7242 0.0000
# 6 0.0000 0.0000 0.0000 0.0000 0.0000 27.9858
#
#
#
# Elastic Compliance Matrix: (Units=1/GPa)
#
#
# Indices 1 2 3 4 5 6 
#
# 1 0.013822 -0.006527 -0.003287 0.000000 0.000000 0.000000
# 2 -0.006527 0.013822 -0.003287 0.000000 0.000000 0.000000
# 3 -0.003287 -0.003287 0.010241 0.000000 0.000000 0.000000
# 4 0.000000 0.000000 0.000000 0.023968 0.000000 0.000000
# 5 0.000000 0.000000 0.000000 0.000000 0.023967 0.000000
# 6 0.000000 0.000000 0.000000 0.000000 0.000000 0.035732
#
#
# Mechanical properties :
#
#
# Convention : Reuss Voigt Hill
#
# Bulk Modulus (GPa) = 85.59436 85.63615 85.61526
# Shear Modulus (GPa) = 32.97106 34.53479 33.75293
#
# Velocity S-wave (km/s) = 3.94775 4.04028 3.99428
# Velocity P-wave (km/s) = 7.82548 7.88945 7.85753
#
# Compressibility (1/GPa) = 0.01168301
#
# Stress axis : x y z
#
# Youngs Moduli (GPa) = 72.34901 72.34857 97.64657
#
# Poissons Ratio (x) = 0.47219 0.32099
# Poissons Ratio (y) = 0.47219 0.32098
# Poissons Ratio (z) = 0.23783 0.23782
#
# Static dielectric constant tensor:
#      x y z
#    x 1.905240 0.000000 0.000000 
#    y 0.000000 1.905250 0.000000 
#    z 0.000000 0.000000 1.737520 
# 
# From -- ./inp_files/2846.got.cif
#   From: 2010.05.17/outbox.cif.g08.bks.cpg/sg141_2_cif.got.tgz:2846.got - 2010.05.20 13:30:51.
