data_PCOD9573454
_publ_section_title
;
Structure prediction by ZEFSAII (Michael W. Deem and Ramdas Pophale) SiO2 
 PCOD9573454
Probable space group: I 41/A C D
;
_chemical_formula_sum "Si O2"
_cell_formula_units_Z 216
_cell_length_a 23.491326
_cell_length_b 23.491326
_cell_length_c 21.100231
_cell_angle_alpha 90.000000
_cell_angle_beta 90.000000
_cell_angle_gamma 90.000000
_cell_volume 11644.002057
_symmetry_space_group_name_H-M "I 41/A C D"
_symmetry_group_IT_number 142
_space_group.IT_coordinate_system_code '2'
_symmetry_cell_setting 'tetragonal'
loop_
_space_group_symop_operation_xyz
x,y,z
1/4-y,3/4+x,1/4+z
-x,1/2-y,z
1/4+y,1/4-x,3/4+z
x,-y,1/2-z
1/2-x,y,-z
3/4+y,1/4+x,1/4-z
1/4-y,1/4-x,1/4-z
-x,-y,-z
3/4+y,1/4-x,3/4-z
x,1/2+y,-z
3/4-y,3/4+x,1/4-z
-x,y,1/2+z
1/2+x,-y,z
1/4-y,3/4-x,3/4+z
3/4+y,3/4+x,3/4+z
1/2+x,1/2+y,1/2+z
3/4-y,1/4+x,3/4+z
1/2-x,-y,1/2+z
3/4+y,3/4-x,1/4+z
1/2+x,1/2-y,-z
-x,1/2+y,1/2-z
1/4+y,3/4+x,3/4-z
3/4-y,3/4-x,3/4-z
1/2-x,1/2-y,1/2-z
1/4+y,3/4-x,1/4-z
1/2+x,y,1/2-z
1/4-y,1/4+x,3/4-z
1/2-x,1/2+y,z
x,1/2-y,1/2+z
3/4-y,1/4-x,1/4+z
1/4+y,1/4+x,1/4+z
loop_
_atom_site_type_symbol
_atom_site_label
_atom_site_fract_x
_atom_site_fract_y
_atom_site_fract_z
Si Si1 0.135633 0.239976 0.346687
Si Si2 0.421043 0.561885 0.216414
Si Si3 0.111927 0.395065 0.959291
Si Si4 0.677493 0.927493 0.125000
Si Si5 0.633950 0.908285 0.931747
Si Si6 0.182851 0.714002 0.513526
Si Si7 0.812882 0.993099 0.502769
Si Si8 0.000000 0.750000 0.125000
O O1 0.145091 0.295095 0.303567
O O2 0.164012 0.183905 0.316920
O O3 0.166124 0.241447 0.416836
O O4 0.065859 0.234690 0.351537
O O5 0.419583 0.500000 0.250000
O O6 0.385712 0.562670 0.152114
O O7 0.387903 0.601732 0.265226
O O8 0.486404 0.579309 0.213118
O O9 0.137393 0.397945 0.888260
O O10 0.140067 0.338854 0.989594
O O11 0.137029 0.448050 0.996126
O O12 0.687058 0.969658 0.066820
O O13 0.672426 0.962479 0.947604
O O14 0.250000 0.698775 0.500000
O O15 0.750000 0.966777 0.500000
#
# Coordination Sequence:
#
# PCOD9573454 Si02
#       8
#    32  32  32  16  32  32  32   8
#     4  11  21  34  61  90 119 149 192 257 302 357
#     4  10  18  33  55  83 114 144 192 246 289 342
#     4  11  21  36  56  86 114 156 193 239 302 355
#     4  10  20  32  56  84 105 152 192 241 282 336
#     4  10  20  35  55  87 115 148 195 245 298 342
#     4  10  20  34  56  84 114 150 192 240 294 350
#     4  11  22  36  56  83 122 156 196 240 290 355
#     4  12  16  36  60  92 112 138 192 248 300 324
#
# _framework density 18.550324
#
# number of rings (size 3 to 8) (size 9 to 14) (size 15 to 20)
#    0.000    1.481    4.444    4.000    2.074    0.593 
#    0.000    0.000    0.000    0.000    0.000    4.148 
#    0.000    0.000    0.000    0.000    0.000    0.000 
#
# Total GULP energy -601233.073709 kJ/mol
# GULP energy per Si atom -5566.972905 kJ/mol
# Density = 1.850810 g / cm^3
# Si number density = 18.550324 Si / 1000 Ang^3
#
#
#
# Elastic Constant Matrix: (Units=GPa)
#
#
# Indices 1 2 3 4 5 6 
#
# 1 78.0607 -3.7920 0.4255 0.0000 0.0000 0.0000
# 2 -3.7920 78.0607 0.4255 0.0000 0.0000 0.0000
# 3 0.4255 0.4255 27.9489 0.0000 0.0000 0.0000
# 4 0.0000 0.0000 0.0000 12.5739 0.0000 0.0000
# 5 0.0000 0.0000 0.0000 0.0000 12.5739 0.0000
# 6 0.0000 0.0000 0.0000 0.0000 0.0000 25.4461
#
#
#
# Elastic Compliance Matrix: (Units=1/GPa)
#
#
# Indices 1 2 3 4 5 6 
#
# 1 0.012842 0.000625 -0.000205 0.000000 0.000000 0.000000
# 2 0.000625 0.012842 -0.000205 0.000000 0.000000 0.000000
# 3 -0.000205 -0.000205 0.035786 0.000000 0.000000 0.000000
# 4 0.000000 0.000000 0.000000 0.079530 0.000000 0.000000
# 5 0.000000 0.000000 0.000000 0.000000 0.079530 0.000000
# 6 0.000000 0.000000 0.000000 0.000000 0.000000 0.039299
#
#
# Mechanical properties :
#
#
# Convention : Reuss Voigt Hill
#
# Bulk Modulus (GPa) = 16.15520 19.79870 17.97695
# Shear Modulus (GPa) = 17.85509 22.58618 20.22063
#
# Velocity S-wave (km/s) = 3.10582 3.49314 3.30516
# Velocity P-wave (km/s) = 4.64642 5.19284 4.92721
#
# Compressibility (1/GPa) = 0.06189959
#
# Stress axis : x y z
#
# Youngs Moduli (GPa) = 77.86933 77.86933 27.94406
#
# Poissons Ratio (x) = -0.04867 0.00573
# Poissons Ratio (y) = -0.04867 0.00573
# Poissons Ratio (z) = 0.01597 0.01597
#
# Static dielectric constant tensor:
#      x y z
#    x 1.688140 0.000000 0.000000 
#    y 0.000000 1.688140 0.000000 
#    z 0.000000 0.000000 1.675530 
# 
# From -- ./inp_files/9279.got.cif
#   From: 2010.05.17/outbox.cif.g08.bks.cpg/sg142_5_cif.got.tgz:9279.got - 2010.05.20 13:39:18.
