data_PCOD9573492
_publ_section_title
;
Structure prediction by ZEFSAII (Michael W. Deem and Ramdas Pophale) SiO2 
 PCOD9573492
Probable space group: I 41/A C D
;
_chemical_formula_sum "Si O2"
_cell_formula_units_Z 160
_cell_length_a 29.825321
_cell_length_b 29.825321
_cell_length_c 9.021031
_cell_angle_alpha 90.000000
_cell_angle_beta 90.000000
_cell_angle_gamma 90.000000
_cell_volume 8024.656076
_symmetry_space_group_name_H-M "I 41/A C D"
_symmetry_group_IT_number 142
_space_group.IT_coordinate_system_code '2'
_symmetry_cell_setting 'tetragonal'
loop_
_space_group_symop_operation_xyz
x,y,z
1/4-y,3/4+x,1/4+z
-x,1/2-y,z
1/4+y,1/4-x,3/4+z
x,-y,1/2-z
1/2-x,y,-z
3/4+y,1/4+x,1/4-z
1/4-y,1/4-x,1/4-z
-x,-y,-z
3/4+y,1/4-x,3/4-z
x,1/2+y,-z
3/4-y,3/4+x,1/4-z
-x,y,1/2+z
1/2+x,-y,z
1/4-y,3/4-x,3/4+z
3/4+y,3/4+x,3/4+z
1/2+x,1/2+y,1/2+z
3/4-y,1/4+x,3/4+z
1/2-x,-y,1/2+z
3/4+y,3/4-x,1/4+z
1/2+x,1/2-y,-z
-x,1/2+y,1/2-z
1/4+y,3/4+x,3/4-z
3/4-y,3/4-x,3/4-z
1/2-x,1/2-y,1/2-z
1/4+y,3/4-x,1/4-z
1/2+x,y,1/2-z
1/4-y,1/4+x,3/4-z
1/2-x,1/2+y,z
x,1/2-y,1/2+z
3/4-y,1/4-x,1/4+z
1/4+y,1/4+x,1/4+z
loop_
_atom_site_type_symbol
_atom_site_label
_atom_site_fract_x
_atom_site_fract_y
_atom_site_fract_z
Si Si1 0.957166 0.707166 0.875000
Si Si2 0.311784 0.271966 0.637955
Si Si3 0.610853 0.360853 0.875000
Si Si4 0.475792 0.844516 0.425058
Si Si5 0.242700 0.319740 0.842165
Si Si6 0.900787 0.454015 0.185416
O O1 0.961153 0.670294 0.741234
O O2 0.945267 0.750115 0.769568
O O3 0.363995 0.260752 0.660874
O O4 0.288522 0.304592 0.759274
O O5 0.285490 0.225593 0.636254
O O6 0.300404 0.297079 0.484683
O O7 0.609577 0.316743 0.773061
O O8 0.655023 0.365141 0.976178
O O9 0.212818 0.350427 0.737717
O O10 0.250000 0.340854 0.000000
O O11 0.881853 0.500000 0.250000
#
# Coordination Sequence:
#
# PCOD9573492 Si02
#       6
#    16  32  16  32  32  32
#     4  12  28  43  58  78 114 169 224 259 294 329
#     4  10  19  35  56  85 118 153 193 243 309 358
#     4  12  24  43  62  90 122 157 202 259 304 363
#     4  12  26  42  61  85 119 168 217 261 291 357
#     4  10  19  31  59  92 116 149 187 244 319 366
#     4  10  21  38  59  88 123 153 194 246 306 371
#
# _framework density 19.938549999999999
#
# number of rings (size 3 to 8) (size 9 to 14) (size 15 to 20)
#    0.000    1.200    2.000    6.600    2.800    3.200 
#    0.000    0.000    0.000    0.000    0.000    1.400 
#    0.000    0.000    0.000    0.000    0.000    0.000 
#
# Total GULP energy -445733.261799 kJ/mol
# GULP energy per Si atom -5571.665772 kJ/mol
# Density = 1.989317 g / cm^3
# Si number density = 19.938550 Si / 1000 Ang^3
#
#
#
# Elastic Constant Matrix: (Units=GPa)
#
#
# Indices 1 2 3 4 5 6 
#
# 1 77.7563 23.0585 15.0773 0.0000 0.0000 0.0000
# 2 23.0585 77.7563 15.0773 0.0000 0.0000 0.0000
# 3 15.0773 15.0773 116.5863 0.0000 0.0000 0.0000
# 4 0.0000 0.0000 0.0000 16.0627 0.0000 0.0000
# 5 0.0000 0.0000 0.0000 0.0000 16.0627 0.0000
# 6 0.0000 0.0000 0.0000 0.0000 0.0000 10.9764
#
#
#
# Elastic Compliance Matrix: (Units=1/GPa)
#
#
# Indices 1 2 3 4 5 6 
#
# 1 0.014300 -0.003982 -0.001334 0.000000 0.000000 0.000000
# 2 -0.003982 0.014300 -0.001334 0.000000 0.000000 0.000000
# 3 -0.001334 -0.001334 0.008922 0.000000 0.000000 0.000000
# 4 0.000000 0.000000 0.000000 0.062256 0.000000 0.000000
# 5 0.000000 0.000000 0.000000 0.000000 0.062256 0.000000
# 6 0.000000 0.000000 0.000000 0.000000 0.000000 0.091104
#
#
# Mechanical properties :
#
#
# Convention : Reuss Voigt Hill
#
# Bulk Modulus (GPa) = 41.28561 42.05833 41.67197
# Shear Modulus (GPa) = 18.21396 23.21275 20.71336
#
# Velocity S-wave (km/s) = 3.02570 3.41576 3.22663
# Velocity P-wave (km/s) = 5.74090 6.05775 5.90145
#
# Compressibility (1/GPa) = 0.02422152
#
# Stress axis : x y z
#
# Youngs Moduli (GPa) = 69.92861 69.92861 112.07653
#
# Poissons Ratio (x) = 0.27846 0.14955
# Poissons Ratio (y) = 0.27846 0.14955
# Poissons Ratio (z) = 0.09331 0.09331
#
# Static dielectric constant tensor:
#      x y z
#    x 1.773090 0.000000 0.000000 
#    y 0.000000 1.773090 0.000000 
#    z 0.000000 0.000000 1.779540 
# 
# From -- ./inp_files/2229.got.cif
#   From: 2010.05.17/outbox.cif.g08.bks.cpg/sg142_2_cif.got.tgz:2229.got - 2010.05.20 13:39:18.
