data_PCOD9573561
_publ_section_title
;
Structure prediction by ZEFSAII (Michael W. Deem and Ramdas Pophale) SiO2 
 PCOD9573561
Probable space group: I 41/A C D
;
_chemical_formula_sum "Si O2"
_cell_formula_units_Z 112
_cell_length_a 14.288185
_cell_length_b 14.288185
_cell_length_c 29.791819
_cell_angle_alpha 90.000000
_cell_angle_beta 90.000000
_cell_angle_gamma 90.000000
_cell_volume 6082.066302
_symmetry_space_group_name_H-M "I 41/A C D"
_symmetry_group_IT_number 142
_space_group.IT_coordinate_system_code '2'
_symmetry_cell_setting 'tetragonal'
loop_
_space_group_symop_operation_xyz
x,y,z
1/4-y,3/4+x,1/4+z
-x,1/2-y,z
1/4+y,1/4-x,3/4+z
x,-y,1/2-z
1/2-x,y,-z
3/4+y,1/4+x,1/4-z
1/4-y,1/4-x,1/4-z
-x,-y,-z
3/4+y,1/4-x,3/4-z
x,1/2+y,-z
3/4-y,3/4+x,1/4-z
-x,y,1/2+z
1/2+x,-y,z
1/4-y,3/4-x,3/4+z
3/4+y,3/4+x,3/4+z
1/2+x,1/2+y,1/2+z
3/4-y,1/4+x,3/4+z
1/2-x,-y,1/2+z
3/4+y,3/4-x,1/4+z
1/2+x,1/2-y,-z
-x,1/2+y,1/2-z
1/4+y,3/4+x,3/4-z
3/4-y,3/4-x,3/4-z
1/2-x,1/2-y,1/2-z
1/4+y,3/4-x,1/4-z
1/2+x,y,1/2-z
1/4-y,1/4+x,3/4-z
1/2-x,1/2+y,z
x,1/2-y,1/2+z
3/4-y,1/4-x,1/4+z
1/4+y,1/4+x,1/4+z
loop_
_atom_site_type_symbol
_atom_site_label
_atom_site_fract_x
_atom_site_fract_y
_atom_site_fract_z
Si Si1 0.445121 0.344207 0.305555
Si Si2 0.699064 0.574841 0.843594
Si Si3 0.750000 0.108170 0.500000
Si Si4 0.724028 0.772462 0.134871
O O1 0.500000 0.250000 0.294461
O O2 0.422370 0.413011 0.265002
O O3 0.500542 0.403567 0.343475
O O4 0.345512 0.317503 0.328371
O O5 0.773986 0.523986 0.875000
O O6 0.699830 0.533538 0.793278
O O7 0.721973 0.683963 0.845896
O O8 0.599394 0.544705 0.864792
#
# Coordination Sequence:
#
# PCOD9573561 Si02
#       4
#    32  32  16  32
#     4  10  19  40  62  90 121 166 213 248 308 383
#     4  11  21  42  62  91 127 164 208 264 311 375
#     4  10  22  40  62  92 130 158 212 264 304 376
#     4  10  20  38  65  85 123 167 204 256 317 369
#
# _framework density 18.414795000000002
#
# number of rings (size 3 to 8) (size 9 to 14) (size 15 to 20)
#    0.000    1.714    5.714    3.429    0.000    1.714 
#   10.286    7.143    0.000    0.000    0.000    0.000 
#    0.000    0.000    0.000    0.000    0.000    0.000 
#
# Total GULP energy -312456.943565 kJ/mol
# GULP energy per Si atom -5579.588278 kJ/mol
# Density = 1.837288 g / cm^3
# Si number density = 18.414795 Si / 1000 Ang^3
#
#
#
# Elastic Constant Matrix: (Units=GPa)
#
#
# Indices 1 2 3 4 5 6 
#
# 1 97.4914 42.2217 47.2294 0.0000 0.0000 0.0000
# 2 42.2217 97.4914 47.2294 0.0000 0.0000 0.0000
# 3 47.2294 47.2294 98.4540 0.0000 0.0000 0.0000
# 4 0.0000 0.0000 0.0000 14.5634 0.0000 0.0000
# 5 0.0000 0.0000 0.0000 0.0000 14.5634 0.0000
# 6 0.0000 0.0000 0.0000 0.0000 0.0000 42.5048
#
#
#
# Elastic Compliance Matrix: (Units=1/GPa)
#
#
# Indices 1 2 3 4 5 6 
#
# 1 0.014343 -0.003750 -0.005082 0.000000 0.000000 0.000000
# 2 -0.003750 0.014343 -0.005082 0.000000 0.000000 0.000000
# 3 -0.005082 -0.005082 0.015032 0.000000 0.000000 0.000000
# 4 0.000000 0.000000 0.000000 0.068665 0.000000 0.000000
# 5 0.000000 0.000000 0.000000 0.000000 0.068665 0.000000
# 6 0.000000 0.000000 0.000000 0.000000 0.000000 0.023527
#
#
# Mechanical properties :
#
#
# Convention : Reuss Voigt Hill
#
# Bulk Modulus (GPa) = 62.92389 62.97752 62.95070
# Shear Modulus (GPa) = 21.03492 24.77675 22.90583
#
# Velocity S-wave (km/s) = 3.38344 3.67206 3.53070
# Velocity P-wave (km/s) = 7.03619 7.22858 7.13303
#
# Compressibility (1/GPa) = 0.01589222
#
# Stress axis : x y z
#
# Youngs Moduli (GPa) = 69.71977 69.71977 66.52269
#
# Poissons Ratio (x) = 0.26145 0.33805
# Poissons Ratio (y) = 0.26145 0.33805
# Poissons Ratio (z) = 0.35429 0.35429
#
# Static dielectric constant tensor:
#      x y z
#    x 1.635150 0.000000 0.000000 
#    y 0.000000 1.635150 0.000000 
#    z 0.000000 0.000000 1.640160 
# 
# From -- ./inp_files/11096.got.cif
#   From: 2010.05.17/outbox.cif.g08.bks.cpg/sg142_6_cif.got.tgz:11096.got - 2010.05.20 13:39:18.
