data_PCOD9573652
_publ_section_title
;
Structure prediction by ZEFSAII (Michael W. Deem and Ramdas Pophale) SiO2 
 PCOD9573652
Probable space group: I 41/A C D
;
_chemical_formula_sum "Si O2"
_cell_formula_units_Z 80
_cell_length_a 11.230706
_cell_length_b 11.230706
_cell_length_c 25.239745
_cell_angle_alpha 90.000000
_cell_angle_beta 90.000000
_cell_angle_gamma 90.000000
_cell_volume 3183.457670
_symmetry_space_group_name_H-M "I 41/A C D"
_symmetry_group_IT_number 142
_space_group.IT_coordinate_system_code '2'
_symmetry_cell_setting 'tetragonal'
loop_
_space_group_symop_operation_xyz
x,y,z
1/4-y,3/4+x,1/4+z
-x,1/2-y,z
1/4+y,1/4-x,3/4+z
x,-y,1/2-z
1/2-x,y,-z
3/4+y,1/4+x,1/4-z
1/4-y,1/4-x,1/4-z
-x,-y,-z
3/4+y,1/4-x,3/4-z
x,1/2+y,-z
3/4-y,3/4+x,1/4-z
-x,y,1/2+z
1/2+x,-y,z
1/4-y,3/4-x,3/4+z
3/4+y,3/4+x,3/4+z
1/2+x,1/2+y,1/2+z
3/4-y,1/4+x,3/4+z
1/2-x,-y,1/2+z
3/4+y,3/4-x,1/4+z
1/2+x,1/2-y,-z
-x,1/2+y,1/2-z
1/4+y,3/4+x,3/4-z
3/4-y,3/4-x,3/4-z
1/2-x,1/2-y,1/2-z
1/4+y,3/4-x,1/4-z
1/2+x,y,1/2-z
1/4-y,1/4+x,3/4-z
1/2-x,1/2+y,z
x,1/2-y,1/2+z
3/4-y,1/4-x,1/4+z
1/4+y,1/4+x,1/4+z
loop_
_atom_site_type_symbol
_atom_site_label
_atom_site_fract_x
_atom_site_fract_y
_atom_site_fract_z
Si Si1 0.097016 0.853382 0.052599
Si Si2 0.273339 0.311369 0.401264
Si Si3 0.237143 0.000000 0.250000
O O1 0.229967 0.804990 0.067658
O O2 0.059616 0.930105 0.103051
O O3 0.127158 0.939388 0.004369
O O4 0.000000 0.750000 0.042664
O O5 0.398671 0.351330 0.375000
O O6 0.248383 0.410046 0.446391
#
# Coordination Sequence:
#
# PCOD9573652 Si02
#       3
#    32  32  16
#     4  11  20  41  62  83 122 158 191 238 306 348
#     4  10  20  38  60  85 117 153 193 243 289 349
#     4  10  24  36  60  94 112 150 208 240 282 358
#
# _framework density 25.129908
#
# number of rings (size 3 to 8) (size 9 to 14) (size 15 to 20)
#    0.000    1.600    4.000    1.200    0.000    1.600 
#    7.200    0.000    0.000    0.000    0.000    0.000 
#    0.000    0.000    0.000    0.000    0.000    0.000 
#
# Total GULP energy -222990.606217 kJ/mol
# GULP energy per Si atom -5574.765155 kJ/mol
# Density = 2.507271 g / cm^3
# Si number density = 25.129908 Si / 1000 Ang^3
#
#
#
# Elastic Constant Matrix: (Units=GPa)
#
#
# Indices 1 2 3 4 5 6 
#
# 1 29.7742 36.7064 11.7936 0.0000 0.0000 0.0000
# 2 36.7064 29.7754 11.7935 0.0000 0.0000 0.0000
# 3 11.7936 11.7935 93.8864 0.0000 0.0000 0.0000
# 4 0.0000 0.0000 0.0000 0.4205 0.0000 0.0000
# 5 0.0000 0.0000 0.0000 0.0000 0.4193 0.0000
# 6 0.0000 0.0000 0.0000 0.0000 0.0000 45.4945
#
#
#
# Elastic Compliance Matrix: (Units=1/GPa)
#
#
# Indices 1 2 3 4 5 6 
#
# 1 -0.064263 0.080005 -0.001977 0.000000 0.000000 0.000000
# 2 0.080005 -0.064260 -0.001978 0.000000 0.000000 0.000000
# 3 -0.001977 -0.001978 0.011148 0.000000 0.000000 0.000000
# 4 0.000000 0.000000 0.000000 2.377932 0.000000 0.000000
# 5 0.000000 0.000000 0.000000 0.000000 2.385060 0.000000
# 6 0.000000 0.000000 0.000000 0.000000 0.000000 0.021981
#
#
# Mechanical properties :
#
#
# Convention : Reuss Voigt Hill
#
# Bulk Modulus (GPa) = 28.79812 30.44701 29.62256
# Shear Modulus (GPa) = 1.10447 15.47636 8.29041
#
# Velocity S-wave (km/s) = 0.66367 2.48433 1.81829
# Velocity P-wave (km/s) = 3.47446 4.51346 4.02761
#
# Compressibility (1/GPa) = 0.03472449
#
# Stress axis : x y z
#
# Youngs Moduli (GPa) = -15.56112 -15.56179 89.70209
#
# Poissons Ratio (x) = 1.24502 0.17738
# Poissons Ratio (y) = 1.24496 0.17742
# Poissons Ratio (z) = -0.03077 -0.03078
#
# Static dielectric constant tensor:
#      x y z
#    x 2.089830 0.000000 0.000000 
#    y 0.000000 2.089830 0.000000 
#    z 0.000000 0.000000 1.932750 
# 
# From -- ./inp_files/11849.got.cif
#   From: 2010.05.17/outbox.cif.g08.bks.cpg/sg142_6_cif.got.tgz:11849.got - 2010.05.20 13:39:18.
