data_PCOD9573102
_publ_section_title
;
Structure prediction by ZEFSAII (Michael W. Deem and Ramdas Pophale) SiO2 
 PCOD9573102
Probable space group: I 41/A M D
;
_chemical_formula_sum "Si O2"
_cell_formula_units_Z 160
_cell_length_a 21.574147
_cell_length_b 21.574147
_cell_length_c 15.854912
_cell_angle_alpha 90.000000
_cell_angle_beta 90.000000
_cell_angle_gamma 90.000000
_cell_volume 7379.570788
_symmetry_space_group_name_H-M "I 41/A M D"
_symmetry_group_IT_number 141
_space_group.IT_coordinate_system_code '2'
_symmetry_cell_setting 'tetragonal'
loop_
_space_group_symop_operation_xyz
x,y,z
1/4-y,3/4+x,1/4+z
-x,1/2-y,z
1/4+y,1/4-x,3/4+z
x,-y,-z
-x,1/2+y,-z
1/4+y,3/4+x,1/4-z
1/4-y,1/4-x,3/4-z
-x,-y,-z
3/4+y,1/4-x,3/4-z
x,1/2+y,-z
3/4-y,3/4+x,1/4-z
-x,y,z
x,1/2-y,z
3/4-y,1/4-x,3/4+z
3/4+y,3/4+x,1/4+z
1/2+x,1/2+y,1/2+z
3/4-y,1/4+x,3/4+z
1/2-x,-y,1/2+z
3/4+y,3/4-x,1/4+z
1/2+x,1/2-y,1/2-z
1/2-x,y,1/2-z
3/4+y,1/4+x,3/4-z
3/4-y,3/4-x,1/4-z
1/2-x,1/2-y,1/2-z
1/4+y,3/4-x,1/4-z
1/2+x,y,1/2-z
1/4-y,1/4+x,3/4-z
1/2-x,1/2+y,1/2+z
1/2+x,-y,1/2+z
1/4-y,3/4-x,1/4+z
1/4+y,1/4+x,3/4+z
loop_
_atom_site_type_symbol
_atom_site_label
_atom_site_fract_x
_atom_site_fract_y
_atom_site_fract_z
Si Si1 0.905716 0.927906 0.833020
Si Si2 0.568058 0.584559 0.860706
Si Si3 0.810600 0.365797 0.940119
Si Si4 0.430757 0.820275 0.531037
Si Si5 0.267633 0.916210 0.620600
O O1 0.933127 0.920264 0.740528
O O2 0.926406 0.875631 0.899675
O O3 0.831059 0.920115 0.828261
O O4 0.917519 0.000940 0.851655
O O5 0.600148 0.649853 0.875000
O O6 0.500000 0.579476 0.896738
O O7 0.612150 0.530254 0.895462
O O8 0.833879 0.416122 0.875000
O O9 0.871889 0.328230 0.969051
O O10 0.787470 0.398649 0.025638
O O11 0.500000 0.825245 0.491918
O O12 0.426358 0.750000 0.567284
O O13 0.229217 0.979217 0.625000
#
# Coordination Sequence:
#
# PCOD9573102 Si02
#       5
#    32  32  32  32  32
#     4  10  21  37  62  89 117 154 202 253 301 362
#     4  10  22  38  56  82 116 153 197 253 310 366
#     4  10  22  38  62  93 122 156 199 252 304 358
#     4  10  23  42  61  85 123 169 209 248 305 372
#     4   9  20  37  59  87 120 156 193 238 301 365
#
# _framework density 21.681477000000001
#
# number of rings (size 3 to 8) (size 9 to 14) (size 15 to 20)
#    0.000    2.200    0.000    1.200    0.000   25.000 
#    0.000    3.000    0.000    0.000    0.000    0.000 
#    0.000    0.000    0.000    0.000    0.000    0.000 
#
# Total GULP energy -446404.238111 kJ/mol
# GULP energy per Si atom -5580.052976 kJ/mol
# Density = 2.163213 g / cm^3
# Si number density = 21.681477 Si / 1000 Ang^3
#
#
#
# Elastic Constant Matrix: (Units=GPa)
#
#
# Indices 1 2 3 4 5 6 
#
# 1 147.6813 72.2609 19.2150 0.0000 0.0000 0.0000
# 2 72.2609 147.6884 19.2129 0.0000 0.0000 0.0000
# 3 19.2150 19.2129 30.5204 0.0000 0.0000 0.0000
# 4 0.0000 0.0000 0.0000 -6.1375 0.0000 0.0000
# 5 0.0000 0.0000 0.0000 0.0000 -6.1070 0.0000
# 6 0.0000 0.0000 0.0000 0.0000 0.0000 20.0462
#
#
#
# Elastic Compliance Matrix: (Units=1/GPa)
#
#
# Indices 1 2 3 4 5 6 
#
# 1 0.009184 -0.004075 -0.003217 0.000000 0.000000 0.000000
# 2 -0.004075 0.009183 -0.003215 0.000000 0.000000 0.000000
# 3 -0.003217 -0.003215 0.036814 0.000000 0.000000 0.000000
# 4 0.000000 0.000000 0.000000 -0.162933 0.000000 0.000000
# 5 0.000000 0.000000 0.000000 0.000000 -0.163747 0.000000
# 6 0.000000 0.000000 0.000000 0.000000 0.000000 0.049885
#
#
# Mechanical properties :
#
#
# Convention : Reuss Voigt Hill
#
# Bulk Modulus (GPa) = 29.26793 60.80754 45.03774
# Shear Modulus (GPa) = -26.42548 15.90710 -5.25919
#
# Velocity S-wave (km/s) = -3.49493 2.71158 -1.55914
# Velocity P-wave (km/s) = 1.66062 6.15713 4.19241
#
# Compressibility (1/GPa) = 0.03416709
#
# Stress axis : x y z
#
# Youngs Moduli (GPa) = 108.88784 108.89568 27.16342
#
# Poissons Ratio (x) = 0.44375 0.08738
# Poissons Ratio (y) = 0.44371 0.08734
# Poissons Ratio (z) = 0.35026 0.35014
#
# Static dielectric constant tensor:
#      x y z
#    x 1.819020 0.000000 0.000000 
#    y 0.000000 1.819020 0.000000 
#    z 0.000000 0.000000 1.796150 
# 
# From -- ./inp_files/8577.got.cif
#   From: 2010.05.17/outbox.cif.g08.bks.cpg/sg141_5_cif.got.tgz:8577.got - 2010.05.20 13:30:51.
