data_PCOD9573037
_publ_section_title
;
Structure prediction by ZEFSAII (Michael W. Deem and Ramdas Pophale) SiO2 
 PCOD9573037
Probable space group: I 41/A M D
;
_chemical_formula_sum "Si O2"
_cell_formula_units_Z 128
_cell_length_a 22.121519
_cell_length_b 22.121519
_cell_length_c 13.582173
_cell_angle_alpha 90.000000
_cell_angle_beta 90.000000
_cell_angle_gamma 90.000000
_cell_volume 6646.593950
_symmetry_space_group_name_H-M "I 41/A M D"
_symmetry_group_IT_number 141
_space_group.IT_coordinate_system_code '2'
_symmetry_cell_setting 'tetragonal'
loop_
_space_group_symop_operation_xyz
x,y,z
1/4-y,3/4+x,1/4+z
-x,1/2-y,z
1/4+y,1/4-x,3/4+z
x,-y,-z
-x,1/2+y,-z
1/4+y,3/4+x,1/4-z
1/4-y,1/4-x,3/4-z
-x,-y,-z
3/4+y,1/4-x,3/4-z
x,1/2+y,-z
3/4-y,3/4+x,1/4-z
-x,y,z
x,1/2-y,z
3/4-y,1/4-x,3/4+z
3/4+y,3/4+x,1/4+z
1/2+x,1/2+y,1/2+z
3/4-y,1/4+x,3/4+z
1/2-x,-y,1/2+z
3/4+y,3/4-x,1/4+z
1/2+x,1/2-y,1/2-z
1/2-x,y,1/2-z
3/4+y,1/4+x,3/4-z
3/4-y,3/4-x,1/4-z
1/2-x,1/2-y,1/2-z
1/4+y,3/4-x,1/4-z
1/2+x,y,1/2-z
1/4-y,1/4+x,3/4-z
1/2-x,1/2+y,1/2+z
1/2+x,-y,1/2+z
1/4-y,3/4-x,1/4+z
1/4+y,1/4+x,3/4+z
loop_
_atom_site_type_symbol
_atom_site_label
_atom_site_fract_x
_atom_site_fract_y
_atom_site_fract_z
Si Si1 0.500000 0.454999 0.152415
Si Si2 0.840001 0.250000 0.190066
Si Si3 0.867037 0.900005 0.362767
Si Si4 0.571843 0.589500 0.429776
Si Si5 0.761894 0.361870 0.526625
O O1 0.500000 0.521637 0.102711
O O2 0.557069 0.453557 0.223631
O O3 0.500000 0.411020 0.058703
O O4 0.863929 0.314850 0.150572
O O5 0.844421 0.847034 0.290024
O O6 0.815300 0.906622 0.444190
O O7 0.867034 0.961316 0.299979
O O8 0.604508 0.645492 0.375000
O O9 0.500000 0.593058 0.425442
O O10 0.592200 0.529326 0.370492
#
# Coordination Sequence:
#
# PCOD9573037 Si02
#       5
#    16  16  32  32  32
#     4   9  18  36  69  79 113 164 224 244 299 382
#     4   9  20  40  59  90 116 161 215 264 295 368
#     4  10  22  37  65  88 129 164 208 264 311 386
#     4  10  21  36  61  93 127 166 209 258 316 390
#     4  10  20  38  64  91 121 168 207 263 317 380
#
# _framework density 19.257982999999999
#
# number of rings (size 3 to 8) (size 9 to 14) (size 15 to 20)
#    0.000    2.250    1.250    0.750    7.000    2.250 
#    0.000    0.000   99.000    0.000    3.250    0.000 
#    0.000    0.000    0.000    0.000    0.000    0.000 
#
# Total GULP energy -356625.318208 kJ/mol
# GULP energy per Si atom -5572.270597 kJ/mol
# Density = 1.921415 g / cm^3
# Si number density = 19.257983 Si / 1000 Ang^3
#
#
#
# Elastic Constant Matrix: (Units=GPa)
#
#
# Indices 1 2 3 4 5 6 
#
# 1 96.7009 62.6221 46.5020 0.0000 0.0000 0.0000
# 2 62.6221 96.6988 46.4998 0.0000 0.0000 0.0000
# 3 46.5020 46.4998 82.0504 0.0000 0.0000 0.0000
# 4 0.0000 0.0000 0.0000 11.7829 0.0000 0.0000
# 5 0.0000 0.0000 0.0000 0.0000 11.7815 0.0000
# 6 0.0000 0.0000 0.0000 0.0000 0.0000 6.4337
#
#
#
# Elastic Compliance Matrix: (Units=1/GPa)
#
#
# Indices 1 2 3 4 5 6 
#
# 1 0.019362 -0.009983 -0.005316 0.000000 0.000000 0.000000
# 2 -0.009983 0.019362 -0.005315 0.000000 0.000000 0.000000
# 3 -0.005316 -0.005315 0.018213 0.000000 0.000000 0.000000
# 4 0.000000 0.000000 0.000000 0.084869 0.000000 0.000000
# 5 0.000000 0.000000 0.000000 0.000000 0.084879 0.000000
# 6 0.000000 0.000000 0.000000 0.000000 0.000000 0.155432
#
#
# Mechanical properties :
#
#
# Convention : Reuss Voigt Hill
#
# Bulk Modulus (GPa) = 63.65752 65.18866 64.42309
# Shear Modulus (GPa) = 11.66639 13.98802 12.82720
#
# Velocity S-wave (km/s) = 2.46396 2.69801 2.58364
# Velocity P-wave (km/s) = 6.42041 6.60525 6.51349
#
# Compressibility (1/GPa) = 0.01570906
#
# Stress axis : x y z
#
# Youngs Moduli (GPa) = 51.64710 51.64730 54.90619
#
# Poissons Ratio (x) = 0.51557 0.29189
# Poissons Ratio (y) = 0.51557 0.29185
# Poissons Ratio (z) = 0.27456 0.27452
#
# Static dielectric constant tensor:
#      x y z
#    x 1.659060 0.000000 0.000000 
#    y 0.000000 1.659060 0.000000 
#    z 0.000000 0.000000 1.759760 
# 
# From -- ./inp_files/6243.got.cif
#   From: 2010.05.17/outbox.cif.g08.bks.cpg/sg141_4_cif.got.tgz:6243.got - 2010.05.20 13:30:51.
