data_PCOD9573558
_publ_section_title
;
Structure prediction by ZEFSAII (Michael W. Deem and Ramdas Pophale) SiO2 
 PCOD9573558
Probable space group: I 41/A C D
;
_chemical_formula_sum "Si O2"
_cell_formula_units_Z 120
_cell_length_a 14.155692
_cell_length_b 14.155692
_cell_length_c 28.707337
_cell_angle_alpha 90.000000
_cell_angle_beta 90.000000
_cell_angle_gamma 90.000000
_cell_volume 5752.479994
_symmetry_space_group_name_H-M "I 41/A C D"
_symmetry_group_IT_number 142
_space_group.IT_coordinate_system_code '2'
_symmetry_cell_setting 'tetragonal'
loop_
_space_group_symop_operation_xyz
x,y,z
1/4-y,3/4+x,1/4+z
-x,1/2-y,z
1/4+y,1/4-x,3/4+z
x,-y,1/2-z
1/2-x,y,-z
3/4+y,1/4+x,1/4-z
1/4-y,1/4-x,1/4-z
-x,-y,-z
3/4+y,1/4-x,3/4-z
x,1/2+y,-z
3/4-y,3/4+x,1/4-z
-x,y,1/2+z
1/2+x,-y,z
1/4-y,3/4-x,3/4+z
3/4+y,3/4+x,3/4+z
1/2+x,1/2+y,1/2+z
3/4-y,1/4+x,3/4+z
1/2-x,-y,1/2+z
3/4+y,3/4-x,1/4+z
1/2+x,1/2-y,-z
-x,1/2+y,1/2-z
1/4+y,3/4+x,3/4-z
3/4-y,3/4-x,3/4-z
1/2-x,1/2-y,1/2-z
1/4+y,3/4-x,1/4-z
1/2+x,y,1/2-z
1/4-y,1/4+x,3/4-z
1/2-x,1/2+y,z
x,1/2-y,1/2+z
3/4-y,1/4-x,1/4+z
1/4+y,1/4+x,1/4+z
loop_
_atom_site_type_symbol
_atom_site_label
_atom_site_fract_x
_atom_site_fract_y
_atom_site_fract_z
Si Si1 0.672207 0.772524 0.056384
Si Si2 0.500000 0.750000 0.625000
Si Si3 0.750000 0.876915 0.500000
Si Si4 0.155370 0.272090 0.375456
Si Si5 0.767342 0.084060 0.676670
O O1 0.592130 0.750369 0.093487
O O2 0.668308 0.696157 0.015590
O O3 0.773896 0.760950 0.081304
O O4 0.660977 0.883500 0.046021
O O5 0.774955 0.943635 0.543264
O O6 0.101020 0.175105 0.365134
O O7 0.220440 0.314615 0.334376
O O8 0.790909 0.040909 0.625000
#
# Coordination Sequence:
#
# PCOD9573558 Si02
#       5
#    32   8  16  32  32
#     4  11  24  43  67 102 137 178 237 285 343 428
#     4  12  24  44  72  92 140 186 226 282 368 416
#     4  12  24  42  72 102 138 192 230 290 348 424
#     4  10  19  39  70  94 130 180 229 278 346 410
#     4  10  22  44  68  99 143 181 230 286 350 411
#
# _framework density 20.860568000000001
#
# number of rings (size 3 to 8) (size 9 to 14) (size 15 to 20)
#    0.000    1.333    6.667    0.800    1.867    0.000 
#    4.800    1.333    0.000    0.000    0.000    0.000 
#    0.000    0.000    0.000    0.000    0.000    0.000 
#
# Total GULP energy -334913.721512 kJ/mol
# GULP energy per Si atom -5581.895359 kJ/mol
# Density = 2.081309 g / cm^3
# Si number density = 20.860568 Si / 1000 Ang^3
#
#
#
# Elastic Constant Matrix: (Units=GPa)
#
#
# Indices 1 2 3 4 5 6 
#
# 1 109.8452 54.6734 23.5462 0.0000 0.0000 0.0000
# 2 54.6734 109.8452 23.5462 0.0000 0.0000 0.0000
# 3 23.5462 23.5462 55.7354 0.0000 0.0000 0.0000
# 4 0.0000 0.0000 0.0000 154.7261 0.0000 0.0000
# 5 0.0000 0.0000 0.0000 0.0000 154.7261 0.0000
# 6 0.0000 0.0000 0.0000 0.0000 0.0000 19.8412
#
#
#
# Elastic Compliance Matrix: (Units=1/GPa)
#
#
# Indices 1 2 3 4 5 6 
#
# 1 0.012520 -0.005605 -0.002921 0.000000 0.000000 0.000000
# 2 -0.005605 0.012520 -0.002921 0.000000 0.000000 0.000000
# 3 -0.002921 -0.002921 0.020410 0.000000 0.000000 0.000000
# 4 0.000000 0.000000 0.000000 0.006463 0.000000 0.000000
# 5 0.000000 0.000000 0.000000 0.000000 0.006463 0.000000
# 6 0.000000 0.000000 0.000000 0.000000 0.000000 0.050400
#
#
# Mechanical properties :
#
#
# Convention : Reuss Voigt Hill
#
# Bulk Modulus (GPa) = 44.33692 53.21746 48.77719
# Shear Modulus (GPa) = 35.92226 77.43602 56.67914
#
# Velocity S-wave (km/s) = 4.15422 6.09929 5.21818
# Velocity P-wave (km/s) = 6.65659 8.66996 7.72911
#
# Compressibility (1/GPa) = 0.02255456
#
# Stress axis : x y z
#
# Youngs Moduli (GPa) = 79.87323 79.87323 48.99543
#
# Poissons Ratio (x) = 0.44772 0.14312
# Poissons Ratio (y) = 0.44772 0.14312
# Poissons Ratio (z) = 0.23332 0.23332
#
# Static dielectric constant tensor:
#      x y z
#    x 1.767470 0.000000 0.000000 
#    y 0.000000 1.767470 0.000000 
#    z 0.000000 0.000000 1.782360 
# 
# From -- ./inp_files/12265.got.cif
#   From: 2010.05.17/outbox.cif.g08.bks.cpg/sg142_7_cif.got.tgz:12265.got - 2010.05.20 13:39:18.
