data_PCOD9573460
_publ_section_title
;
Structure prediction by ZEFSAII (Michael W. Deem and Ramdas Pophale) SiO2 
 PCOD9573460
Probable space group: I 41/A C D
;
_chemical_formula_sum "Si O2"
_cell_formula_units_Z 160
_cell_length_a 25.147720
_cell_length_b 25.147720
_cell_length_c 12.749265
_cell_angle_alpha 90.000000
_cell_angle_beta 90.000000
_cell_angle_gamma 90.000000
_cell_volume 8062.734901
_symmetry_space_group_name_H-M "I 41/A C D"
_symmetry_group_IT_number 142
_space_group.IT_coordinate_system_code '2'
_symmetry_cell_setting 'tetragonal'
loop_
_space_group_symop_operation_xyz
x,y,z
1/4-y,3/4+x,1/4+z
-x,1/2-y,z
1/4+y,1/4-x,3/4+z
x,-y,1/2-z
1/2-x,y,-z
3/4+y,1/4+x,1/4-z
1/4-y,1/4-x,1/4-z
-x,-y,-z
3/4+y,1/4-x,3/4-z
x,1/2+y,-z
3/4-y,3/4+x,1/4-z
-x,y,1/2+z
1/2+x,-y,z
1/4-y,3/4-x,3/4+z
3/4+y,3/4+x,3/4+z
1/2+x,1/2+y,1/2+z
3/4-y,1/4+x,3/4+z
1/2-x,-y,1/2+z
3/4+y,3/4-x,1/4+z
1/2+x,1/2-y,-z
-x,1/2+y,1/2-z
1/4+y,3/4+x,3/4-z
3/4-y,3/4-x,3/4-z
1/2-x,1/2-y,1/2-z
1/4+y,3/4-x,1/4-z
1/2+x,y,1/2-z
1/4-y,1/4+x,3/4-z
1/2-x,1/2+y,z
x,1/2-y,1/2+z
3/4-y,1/4-x,1/4+z
1/4+y,1/4+x,1/4+z
loop_
_atom_site_type_symbol
_atom_site_label
_atom_site_fract_x
_atom_site_fract_y
_atom_site_fract_z
Si Si1 0.617584 0.733280 0.263911
Si Si2 0.700228 0.695715 0.105492
Si Si3 0.686176 0.669811 0.862964
Si Si4 0.250000 0.205088 0.000000
Si Si5 0.061924 0.188077 0.125000
Si Si6 0.088702 0.889776 0.197961
O O1 0.650187 0.699914 0.178979
O O2 0.657039 0.778461 0.312748
O O3 0.569497 0.762705 0.204024
O O4 0.607287 0.693043 0.358203
O O5 0.750821 0.666658 0.157600
O O6 0.723556 0.754780 0.083572
O O7 0.684936 0.674359 0.990042
O O8 0.650437 0.622593 0.818487
O O9 0.202091 0.173193 0.948003
O O10 0.065478 0.135154 0.195672
#
# Coordination Sequence:
#
# PCOD9573460 Si02
#       6
#    32  32  32  16  16  32
#     4  11  18  33  60  82 114 152 185 235 292 336
#     4  10  18  35  57  83 110 143 200 243 270 342
#     4   9  20  32  51  84 113 145 189 243 280 334
#     4  10  18  34  54  90 110 142 190 240 292 342
#     4  10  22  36  54  89 120 142 192 242 274 358
#     4  11  21  33  55  84 117 149 191 236 302 337
#
# _framework density 19.844383000000001
#
# number of rings (size 3 to 8) (size 9 to 14) (size 15 to 20)
#    0.000    2.000    6.000    0.600    0.000    0.800 
#    0.000    0.000    0.000   36.000    0.000   22.400 
#    0.000    0.000    0.000    0.000    0.000    0.000 
#
# Total GULP energy -446268.904122 kJ/mol
# GULP energy per Si atom -5578.361302 kJ/mol
# Density = 1.979922 g / cm^3
# Si number density = 19.844383 Si / 1000 Ang^3
#
#
#
# Elastic Constant Matrix: (Units=GPa)
#
#
# Indices 1 2 3 4 5 6 
#
# 1 44.2027 33.4241 7.2673 0.0000 0.0000 0.0000
# 2 33.4241 44.2026 7.2667 0.0000 0.0000 0.0000
# 3 7.2673 7.2667 57.4252 0.0000 0.0000 0.0000
# 4 0.0000 0.0000 0.0000 24.7664 0.0000 0.0000
# 5 0.0000 0.0000 0.0000 0.0000 24.7669 0.0000
# 6 0.0000 0.0000 0.0000 0.0000 0.0000 26.1878
#
#
#
# Elastic Compliance Matrix: (Units=1/GPa)
#
#
# Indices 1 2 3 4 5 6 
#
# 1 0.052986 -0.039791 -0.001670 0.000000 0.000000 0.000000
# 2 -0.039791 0.052986 -0.001669 0.000000 0.000000 0.000000
# 3 -0.001670 -0.001669 0.017837 0.000000 0.000000 0.000000
# 4 0.000000 0.000000 0.000000 0.040377 0.000000 0.000000
# 5 0.000000 0.000000 0.000000 0.000000 0.040376 0.000000
# 6 0.000000 0.000000 0.000000 0.000000 0.000000 0.038186
#
#
# Mechanical properties :
#
#
# Convention : Reuss Voigt Hill
#
# Bulk Modulus (GPa) = 26.63322 26.86074 26.74698
# Shear Modulus (GPa) = 14.64022 21.66904 18.15463
#
# Velocity S-wave (km/s) = 2.71910 3.30805 3.02793
# Velocity P-wave (km/s) = 4.82786 5.30622 5.07268
#
# Compressibility (1/GPa) = 0.03754709
#
# Stress axis : x y z
#
# Youngs Moduli (GPa) = 18.87294 18.87293 56.06463
#
# Poissons Ratio (x) = 0.75098 0.09364
# Poissons Ratio (y) = 0.75098 0.09359
# Poissons Ratio (z) = 0.03152 0.03150
#
# Static dielectric constant tensor:
#      x y z
#    x 1.720120 0.000000 0.000000 
#    y 0.000000 1.720120 0.000000 
#    z 0.000000 0.000000 1.740250 
# 
# From -- ./inp_files/3898.got.cif
#   From: 2010.05.17/outbox.cif.g08.bks.cpg/sg142_2_cif.got.tgz:3898.got - 2010.05.20 13:39:18.
