data_PCOD9573382
_publ_section_title
;
Structure prediction by ZEFSAII (Michael W. Deem and Ramdas Pophale) SiO2 
 PCOD9573382
Probable space group: I 41/A M D
;
_chemical_formula_sum "Si O2"
_cell_formula_units_Z 80
_cell_length_a 21.000000
_cell_length_b 21.000000
_cell_length_c 18.000000
_cell_angle_alpha 90.000000
_cell_angle_beta 90.000000
_cell_angle_gamma 90.000000
_cell_volume 7938.000000
_symmetry_space_group_name_H-M "I 41/A M D"
_symmetry_group_IT_number 141
_space_group.IT_coordinate_system_code '2'
_symmetry_cell_setting 'tetragonal'
loop_
_space_group_symop_operation_xyz
x,y,z
1/4-y,3/4+x,1/4+z
-x,1/2-y,z
1/4+y,1/4-x,3/4+z
x,-y,-z
-x,1/2+y,-z
1/4+y,3/4+x,1/4-z
1/4-y,1/4-x,3/4-z
-x,-y,-z
3/4+y,1/4-x,3/4-z
x,1/2+y,-z
3/4-y,3/4+x,1/4-z
-x,y,z
x,1/2-y,z
3/4-y,1/4-x,3/4+z
3/4+y,3/4+x,1/4+z
1/2+x,1/2+y,1/2+z
3/4-y,1/4+x,3/4+z
1/2-x,-y,1/2+z
3/4+y,3/4-x,1/4+z
1/2+x,1/2-y,1/2-z
1/2-x,y,1/2-z
3/4+y,1/4+x,3/4-z
3/4-y,3/4-x,1/4-z
1/2-x,1/2-y,1/2-z
1/4+y,3/4-x,1/4-z
1/2+x,y,1/2-z
1/4-y,1/4+x,3/4-z
1/2-x,1/2+y,1/2+z
1/2+x,-y,1/2+z
1/4-y,3/4-x,1/4+z
1/4+y,1/4+x,3/4+z
loop_
_atom_site_type_symbol
_atom_site_label
_atom_site_fract_x
_atom_site_fract_y
_atom_site_fract_z
Si Si1 0.070929 0.673792 0.401893
Si Si2 0.748322 0.924877 0.995494
Si Si3 0.077358 0.105261 0.306466
Si Si4 0.927749 0.529229 0.122581
Si Si5 0.391241 0.412916 0.471704
O O1 0.069261 0.750000 0.396336
O O2 0.112065 0.660505 0.475775
O O3 0.098284 0.649542 0.323687
O O4 0.000000 0.648924 0.414138
O O5 0.765663 0.879738 0.068496
O O6 0.704068 0.877002 0.947443
O O7 0.818222 0.933332 0.961645
O O8 0.724080 0.000000 0.000000
O O9 0.099529 0.150472 0.375000
O O10 0.000000 0.092004 0.311405
O O11 0.930774 0.464391 0.074870
O O12 0.000000 0.540801 0.153308
O O13 0.910509 0.581343 0.058405
#
# Coordination Sequence:
#
# PCOD9573382 Si02
#       5
#    32  32  32  32  32
#     4  10  21  40  64  92 129 173 224 285 347 408
#     4  12  26  41  66 100 140 182 221 286 360 426
#     4  11  25  43  68  97 136 188 245 296 352 425
#     4  11  22  41  68  96 131 176 230 277 335 418
#     4  11  22  38  67  95 135 171 228 275 347 412
#
# _framework density 10.078105000000001
#
# number of rings (size 3 to 8) (size 9 to 14) (size 15 to 20)
#    0.000    1.000    4.000    4.200    2.800    2.600 
#    0.000    0.000    0.000    3.600    0.000    2.800 
#    0.000    0.000    0.000    0.000    0.000    0.000 
#
# Total GULP energy -445660.508008 kJ/mol
# GULP energy per Si atom -5570.756350 kJ/mol
# Density = 1.005517 g / cm^3
# Si number density = 10.078105 Si / 1000 Ang^3
#
#
#
# Elastic Constant Matrix: (Units=GPa)
#
#
# Indices 1 2 3 4 5 6 
#
# 1 121.2499 28.5199 24.6385 0.0000 0.0000 0.0000
# 2 28.5199 121.2492 24.6383 0.0000 0.0000 0.0000
# 3 24.6385 24.6383 88.9968 0.0000 0.0000 0.0000
# 4 0.0000 0.0000 0.0000 31.6555 0.0000 0.0000
# 5 0.0000 0.0000 0.0000 0.0000 31.6552 0.0000
# 6 0.0000 0.0000 0.0000 0.0000 0.0000 28.4880
#
#
#
# Elastic Compliance Matrix: (Units=1/GPa)
#
#
# Indices 1 2 3 4 5 6 
#
# 1 0.009065 -0.001719 -0.002034 0.000000 0.000000 0.000000
# 2 -0.001719 0.009065 -0.002034 0.000000 0.000000 0.000000
# 3 -0.002034 -0.002034 0.012362 0.000000 0.000000 0.000000
# 4 0.000000 0.000000 0.000000 0.031590 0.000000 0.000000
# 5 0.000000 0.000000 0.000000 0.000000 0.031590 0.000000
# 6 0.000000 0.000000 0.000000 0.000000 0.000000 0.035102
#
#
# Mechanical properties :
#
#
# Convention : Reuss Voigt Hill
#
# Bulk Modulus (GPa) = 52.85516 54.12104 53.48810
# Shear Modulus (GPa) = 34.09367 35.27304 34.68335
#
# Velocity S-wave (km/s) = 4.11721 4.18782 4.15267
# Velocity P-wave (km/s) = 6.99154 7.09175 7.04182
#
# Compressibility (1/GPa) = 0.01891963
#
# Stress axis : x y z
#
# Youngs Moduli (GPa) = 110.31402 110.31351 80.89036
#
# Poissons Ratio (x) = 0.18963 0.16451
# Poissons Ratio (y) = 0.18963 0.16451
# Poissons Ratio (z) = 0.22435 0.22435
#
# Static dielectric constant tensor:
#      x y z
#    x 1.756310 0.000000 0.000000 
#    y 0.000000 1.756310 0.000000 
#    z 0.000000 0.000000 1.746130 
# 
# From -- ./inp_files/8551.got.cif
#   From: 2010.05.17/outbox.ucp.g08.bks.cvg/sg141_5_cif.got.tgz:8551.got - 2010.06.11 11:43:24.
