data_PCOD9573401
_publ_section_title
;
Structure prediction by ZEFSAII (Michael W. Deem and Ramdas Pophale) SiO2 
 PCOD9573401
Probable space group: I 41/A C D
;
_chemical_formula_sum "Si O2"
_cell_formula_units_Z 240
_cell_length_a 25.954829
_cell_length_b 25.954829
_cell_length_c 19.172711
_cell_angle_alpha 90.000000
_cell_angle_beta 90.000000
_cell_angle_gamma 90.000000
_cell_volume 12915.757129
_symmetry_space_group_name_H-M "I 41/A C D"
_symmetry_group_IT_number 142
_space_group.IT_coordinate_system_code '2'
_symmetry_cell_setting 'tetragonal'
loop_
_space_group_symop_operation_xyz
x,y,z
1/4-y,3/4+x,1/4+z
-x,1/2-y,z
1/4+y,1/4-x,3/4+z
x,-y,1/2-z
1/2-x,y,-z
3/4+y,1/4+x,1/4-z
1/4-y,1/4-x,1/4-z
-x,-y,-z
3/4+y,1/4-x,3/4-z
x,1/2+y,-z
3/4-y,3/4+x,1/4-z
-x,y,1/2+z
1/2+x,-y,z
1/4-y,3/4-x,3/4+z
3/4+y,3/4+x,3/4+z
1/2+x,1/2+y,1/2+z
3/4-y,1/4+x,3/4+z
1/2-x,-y,1/2+z
3/4+y,3/4-x,1/4+z
1/2+x,1/2-y,-z
-x,1/2+y,1/2-z
1/4+y,3/4+x,3/4-z
3/4-y,3/4-x,3/4-z
1/2-x,1/2-y,1/2-z
1/4+y,3/4-x,1/4-z
1/2+x,y,1/2-z
1/4-y,1/4+x,3/4-z
1/2-x,1/2+y,z
x,1/2-y,1/2+z
3/4-y,1/4-x,1/4+z
1/4+y,1/4+x,1/4+z
loop_
_atom_site_type_symbol
_atom_site_label
_atom_site_fract_x
_atom_site_fract_y
_atom_site_fract_z
Si Si1 0.169532 0.179198 0.270371
Si Si2 0.539763 0.816843 0.699383
Si Si3 0.421094 0.973154 0.069677
Si Si4 0.125927 0.875927 0.875000
Si Si5 0.571172 0.364257 0.800570
Si Si6 0.820946 0.706714 0.670228
Si Si7 0.534570 0.680181 0.906799
Si Si8 0.214310 0.215114 0.120552
O O1 0.218111 0.153214 0.309561
O O2 0.116683 0.149528 0.253632
O O3 0.166160 0.233500 0.311319
O O4 0.191690 0.194120 0.193891
O O5 0.539036 0.789036 0.625000
O O6 0.583586 0.860432 0.684602
O O7 0.483781 0.838476 0.717073
O O8 0.560641 0.780717 0.760179
O O9 0.381689 0.933648 0.101715
O O10 0.473225 0.967267 0.116144
O O11 0.434954 0.949976 0.993410
O O12 0.590444 0.340444 0.875000
O O13 0.556546 0.424308 0.814070
O O14 0.876188 0.687061 0.646260
O O15 0.774296 0.699914 0.616417
O O16 0.478861 0.684346 0.872135
#
# Coordination Sequence:
#
# PCOD9573401 Si02
#       8
#    32  32  32  16  32  32  32  32
#     4   8  17  24  45  70 108 139 178 225 280 340
#     4  10  21  34  51  75 104 144 194 245 279 326
#     4   9  14  28  46  77 100 141 180 237 286 322
#     4  10  16  28  55  74 106 134 190 248 290 320
#     4  10  18  26  44  78 109 141 184 239 291 330
#     4   9  16  32  47  60 101 152 186 216 271 339
#     4  11  25  35  45  71 111 156 189 211 282 372
#     4   8  14  27  46  72  98 139 184 227 272 327
#
# _framework density 18.581952999999999
#
# number of rings (size 3 to 8) (size 9 to 14) (size 15 to 20)
#    0.400    2.267    2.667    1.600    7.467    0.267 
#    0.000    0.000    0.000    0.800    0.000    0.000 
#    0.000    0.000  104.267    0.000    0.533    7.333 
#
# Total GULP energy -668204.567072 kJ/mol
# GULP energy per Si atom -5568.371392 kJ/mol
# Density = 1.853966 g / cm^3
# Si number density = 18.581953 Si / 1000 Ang^3
#
#
#
# Elastic Constant Matrix: (Units=GPa)
#
#
# Indices 1 2 3 4 5 6 
#
# 1 0.4265 101.5332 36.5504 0.0000 0.0000 0.0000
# 2 101.5332 0.4265 36.5504 0.0000 0.0000 0.0000
# 3 36.5504 36.5504 49.4678 0.0000 0.0000 0.0000
# 4 0.0000 0.0000 0.0000 17.6368 0.0000 0.0000
# 5 0.0000 0.0000 0.0000 0.0000 17.6368 0.0000
# 6 0.0000 0.0000 0.0000 0.0000 0.0000 17.9820
#
#
#
# Elastic Compliance Matrix: (Units=1/GPa)
#
#
# Indices 1 2 3 4 5 6 
#
# 1 0.005483 0.015373 -0.015410 0.000000 0.000000 0.000000
# 2 0.015373 0.005483 -0.015410 0.000000 0.000000 0.000000
# 3 -0.015410 -0.015410 0.042987 0.000000 0.000000 0.000000
# 4 0.000000 0.000000 0.000000 0.056700 0.000000 0.000000
# 5 0.000000 0.000000 0.000000 0.000000 0.056700 0.000000
# 6 0.000000 0.000000 0.000000 0.000000 0.000000 0.055611
#
#
# Mechanical properties :
#
#
# Convention : Reuss Voigt Hill
#
# Bulk Modulus (GPa) = 43.36618 44.39873 43.88245
# Shear Modulus (GPa) = 19.11730 2.36357 10.74043
#
# Velocity S-wave (km/s) = 3.21099 1.12904 2.40678
# Velocity P-wave (km/s) = 6.09391 5.06409 5.60271
#
# Compressibility (1/GPa) = 0.02305945
#
# Stress axis : x y z
#
# Youngs Moduli (GPa) = 182.38891 182.38891 23.26271
#
# Poissons Ratio (x) = -2.80392 0.35848
# Poissons Ratio (y) = -2.80392 0.35848
# Poissons Ratio (z) = 2.81061 2.81061
#
# Static dielectric constant tensor:
#      x y z
#    x 1.684120 0.000000 0.000000 
#    y 0.000000 1.684120 0.000000 
#    z 0.000000 0.000000 1.719690 
# 
# From -- ./inp_files/9323.got.cif
#   From: 2010.05.17/outbox.cif.g08.bks.cpg/sg142_5_cif.got.tgz:9323.got - 2010.05.20 13:39:18.
