data_PCOD9573074
_publ_section_title
;
Structure prediction by ZEFSAII (Michael W. Deem and Ramdas Pophale) SiO2 
 PCOD9573074
Probable space group: I 41/A M D
;
_chemical_formula_sum "Si O2"
_cell_formula_units_Z 80
_cell_length_a 23.160766
_cell_length_b 23.160766
_cell_length_c 8.861006
_cell_angle_alpha 90.000000
_cell_angle_beta 90.000000
_cell_angle_gamma 90.000000
_cell_volume 4753.230424
_symmetry_space_group_name_H-M "I 41/A M D"
_symmetry_group_IT_number 141
_space_group.IT_coordinate_system_code '2'
_symmetry_cell_setting 'tetragonal'
loop_
_space_group_symop_operation_xyz
x,y,z
1/4-y,3/4+x,1/4+z
-x,1/2-y,z
1/4+y,1/4-x,3/4+z
x,-y,-z
-x,1/2+y,-z
1/4+y,3/4+x,1/4-z
1/4-y,1/4-x,3/4-z
-x,-y,-z
3/4+y,1/4-x,3/4-z
x,1/2+y,-z
3/4-y,3/4+x,1/4-z
-x,y,z
x,1/2-y,z
3/4-y,1/4-x,3/4+z
3/4+y,3/4+x,1/4+z
1/2+x,1/2+y,1/2+z
3/4-y,1/4+x,3/4+z
1/2-x,-y,1/2+z
3/4+y,3/4-x,1/4+z
1/2+x,1/2-y,1/2-z
1/2-x,y,1/2-z
3/4+y,1/4+x,3/4-z
3/4-y,3/4-x,1/4-z
1/2-x,1/2-y,1/2-z
1/4+y,3/4-x,1/4-z
1/2+x,y,1/2-z
1/4-y,1/4+x,3/4-z
1/2-x,1/2+y,1/2+z
1/2+x,-y,1/2+z
1/4-y,3/4-x,1/4+z
1/4+y,1/4+x,3/4+z
loop_
_atom_site_type_symbol
_atom_site_label
_atom_site_fract_x
_atom_site_fract_y
_atom_site_fract_z
Si Si1 0.750000 0.122183 0.750000
Si Si2 0.817546 0.904070 0.787731
Si Si3 0.347033 0.681654 0.451326
O O1 0.789073 0.084635 0.635235
O O2 0.705961 0.160883 0.654328
O O3 0.750000 0.905033 0.750000
O O4 0.847466 0.902535 0.625000
O O5 0.835498 0.850045 0.890132
O O6 0.349802 0.750000 0.463215
O O7 0.403666 0.653666 0.375000
#
# Coordination Sequence:
#
# PCOD9573074 Si02
#       3
#    16  32  32
#     4  10  21  36  56  84 114 154 185 226 282 344
#     4  11  22  34  55  88 121 152 185 225 289 347
#     4  10  22  39  58  81 111 148 194 236 281 332
#
# _framework density 16.830659000000001
#
# number of rings (size 3 to 8) (size 9 to 14) (size 15 to 20)
#    0.000    1.600    4.000    0.600    2.800    1.200 
#    0.000    2.000    0.000    0.000    0.000    0.000 
#    0.000    0.000    0.000    0.000    0.000    0.000 
#
# Total GULP energy -223368.317902 kJ/mol
# GULP energy per Si atom -5584.207948 kJ/mol
# Density = 1.679235 g / cm^3
# Si number density = 16.830659 Si / 1000 Ang^3
#
#
#
# Elastic Constant Matrix: (Units=GPa)
#
#
# Indices 1 2 3 4 5 6 
#
# 1 131.2612 90.5403 76.4975 0.0000 0.0000 0.0000
# 2 90.5403 131.2639 76.4992 0.0000 0.0000 0.0000
# 3 76.4975 76.4992 169.1994 0.0000 0.0000 0.0000
# 4 0.0000 0.0000 0.0000 12.3239 0.0000 0.0000
# 5 0.0000 0.0000 0.0000 0.0000 12.3230 0.0000
# 6 0.0000 0.0000 0.0000 0.0000 0.0000 8.4498
#
#
#
# Elastic Compliance Matrix: (Units=1/GPa)
#
#
# Indices 1 2 3 4 5 6 
#
# 1 0.015554 -0.009002 -0.002962 0.000000 0.000000 0.000000
# 2 -0.009002 0.015554 -0.002962 0.000000 0.000000 0.000000
# 3 -0.002962 -0.002962 0.008589 0.000000 0.000000 0.000000
# 4 0.000000 0.000000 0.000000 0.081143 0.000000 0.000000
# 5 0.000000 0.000000 0.000000 0.000000 0.081149 0.000000
# 6 0.000000 0.000000 0.000000 0.000000 0.000000 0.118346
#
#
# Mechanical properties :
#
#
# Convention : Reuss Voigt Hill
#
# Bulk Modulus (GPa) = 101.58960 102.08873 101.83917
# Shear Modulus (GPa) = 14.14548 19.16518 16.65533
#
# Velocity S-wave (km/s) = 2.90221 3.37813 3.14918
# Velocity P-wave (km/s) = 8.46884 8.71802 8.59433
#
# Compressibility (1/GPa) = 0.00984353
#
# Stress axis : x y z
#
# Youngs Moduli (GPa) = 64.29088 64.29170 116.43189
#
# Poissons Ratio (x) = 0.57878 0.34488
# Poissons Ratio (y) = 0.57877 0.34490
# Poissons Ratio (z) = 0.19044 0.19045
#
# Static dielectric constant tensor:
#      x y z
#    x 1.551710 0.000000 0.000000 
#    y 0.000000 1.551710 0.000000 
#    z 0.000000 0.000000 1.584460 
# 
# From -- ./inp_files/2274.got.cif
#   From: 2010.05.17/outbox.cif.g08.bks.cpg/sg141_2_cif.got.tgz:2274.got - 2010.05.20 13:30:51.
