data_PCOD9573526
_publ_section_title
;
Structure prediction by ZEFSAII (Michael W. Deem and Ramdas Pophale) SiO2 
 PCOD9573526
Probable space group: I 41/A C D
;
_chemical_formula_sum "Si O2"
_cell_formula_units_Z 176
_cell_length_a 15.867546
_cell_length_b 15.867546
_cell_length_c 35.094765
_cell_angle_alpha 90.000000
_cell_angle_beta 90.000000
_cell_angle_gamma 90.000000
_cell_volume 8836.125401
_symmetry_space_group_name_H-M "I 41/A C D"
_symmetry_group_IT_number 142
_space_group.IT_coordinate_system_code '2'
_symmetry_cell_setting 'tetragonal'
loop_
_space_group_symop_operation_xyz
x,y,z
1/4-y,3/4+x,1/4+z
-x,1/2-y,z
1/4+y,1/4-x,3/4+z
x,-y,1/2-z
1/2-x,y,-z
3/4+y,1/4+x,1/4-z
1/4-y,1/4-x,1/4-z
-x,-y,-z
3/4+y,1/4-x,3/4-z
x,1/2+y,-z
3/4-y,3/4+x,1/4-z
-x,y,1/2+z
1/2+x,-y,z
1/4-y,3/4-x,3/4+z
3/4+y,3/4+x,3/4+z
1/2+x,1/2+y,1/2+z
3/4-y,1/4+x,3/4+z
1/2-x,-y,1/2+z
3/4+y,3/4-x,1/4+z
1/2+x,1/2-y,-z
-x,1/2+y,1/2-z
1/4+y,3/4+x,3/4-z
3/4-y,3/4-x,3/4-z
1/2-x,1/2-y,1/2-z
1/4+y,3/4-x,1/4-z
1/2+x,y,1/2-z
1/4-y,1/4+x,3/4-z
1/2-x,1/2+y,z
x,1/2-y,1/2+z
3/4-y,1/4-x,1/4+z
1/4+y,1/4+x,1/4+z
loop_
_atom_site_type_symbol
_atom_site_label
_atom_site_fract_x
_atom_site_fract_y
_atom_site_fract_z
Si Si1 0.883809 0.329044 0.371954
Si Si2 0.054573 0.080900 0.958980
Si Si3 0.741663 0.373197 0.220889
Si Si4 0.831904 0.328807 0.520011
Si Si5 0.184332 0.003693 0.834976
Si Si6 0.500000 0.750000 0.251897
O O1 0.887813 0.228806 0.377163
O O2 0.839775 0.347440 0.331623
O O3 0.830062 0.371795 0.404489
O O4 0.973414 0.018452 0.956137
O O5 0.019911 0.171801 0.970845
O O6 0.114871 0.053587 0.993337
O O7 0.653121 0.397056 0.240255
O O8 0.755223 0.446752 0.190060
O O9 0.750000 0.285926 0.500000
O O10 0.809180 0.379042 0.558785
O O11 0.915820 0.272325 0.521953
O O12 0.215989 0.965989 0.875000
#
# Coordination Sequence:
#
# PCOD9573526 Si02
#       6
#    32  32  32  32  32  16
#     4  11  22  36  61  92 123 154 205 263 329 373
#     4  10  19  35  62  87 121 158 196 258 315 373
#     4   9  19  38  58  86 116 161 209 245 306 372
#     4   9  20  37  61  85 121 163 209 257 314 379
#     4  11  22  40  60  87 122 164 205 261 315 384
#     4  10  20  38  62  92 122 158 210 258 316 380
#
# _framework density 19.918230999999999
#
# number of rings (size 3 to 8) (size 9 to 14) (size 15 to 20)
#    0.000    2.000    1.818    2.182    5.091    0.000 
#    3.273    3.182    0.000    0.000    0.000    0.000 
#    0.000    0.000    0.000    0.000    0.000    0.000 
#
# Total GULP energy -490760.303614 kJ/mol
# GULP energy per Si atom -5576.821632 kJ/mol
# Density = 1.987290 g / cm^3
# Si number density = 19.918231 Si / 1000 Ang^3
#
#
#
# Elastic Constant Matrix: (Units=GPa)
#
#
# Indices 1 2 3 4 5 6 
#
# 1 55.1398 21.5275 29.2784 0.0000 0.0000 0.0000
# 2 21.5275 55.1398 29.2784 0.0000 0.0000 0.0000
# 3 29.2784 29.2784 127.8347 0.0000 0.0000 0.0000
# 4 0.0000 0.0000 0.0000 22.8959 0.0000 0.0000
# 5 0.0000 0.0000 0.0000 0.0000 22.8959 0.0000
# 6 0.0000 0.0000 0.0000 0.0000 0.0000 24.0081
#
#
#
# Elastic Compliance Matrix: (Units=1/GPa)
#
#
# Indices 1 2 3 4 5 6 
#
# 1 0.022780 -0.006971 -0.003621 0.000000 0.000000 0.000000
# 2 -0.006971 0.022780 -0.003621 0.000000 0.000000 0.000000
# 3 -0.003621 -0.003621 0.009481 0.000000 0.000000 0.000000
# 4 0.000000 0.000000 0.000000 0.043676 0.000000 0.000000
# 5 0.000000 0.000000 0.000000 0.000000 0.043676 0.000000
# 6 0.000000 0.000000 0.000000 0.000000 0.000000 0.041653
#
#
# Mechanical properties :
#
#
# Convention : Reuss Voigt Hill
#
# Bulk Modulus (GPa) = 37.57165 44.25363 40.91264
# Shear Modulus (GPa) = 22.58940 24.49530 23.54235
#
# Velocity S-wave (km/s) = 3.37130 3.51064 3.44168
# Velocity P-wave (km/s) = 5.83594 6.22083 6.03145
#
# Compressibility (1/GPa) = 0.02661581
#
# Stress axis : x y z
#
# Youngs Moduli (GPa) = 43.89834 43.89834 105.47252
#
# Poissons Ratio (x) = 0.30602 0.38189
# Poissons Ratio (y) = 0.30602 0.38189
# Poissons Ratio (z) = 0.15894 0.15894
#
# Static dielectric constant tensor:
#      x y z
#    x 1.744300 0.000000 0.000000 
#    y 0.000000 1.744300 0.000000 
#    z 0.000000 0.000000 1.714650 
# 
# From -- ./inp_files/11453.got.cif
#   From: 2010.05.17/outbox.cif.g08.bks.cpg/sg142_6_cif.got.tgz:11453.got - 2010.05.20 13:39:18.
