data_PCOD9573765
_publ_section_title
;
Structure prediction by ZEFSAII (Michael W. Deem and Ramdas Pophale) SiO2 
 PCOD9573765
Probable space group: I 41/A C D
;
_chemical_formula_sum "Si O2"
_cell_formula_units_Z 96
_cell_length_a 15.844559
_cell_length_b 15.844559
_cell_length_c 14.172423
_cell_angle_alpha 90.000000
_cell_angle_beta 90.000000
_cell_angle_gamma 90.000000
_cell_volume 3557.987501
_symmetry_space_group_name_H-M "I 41/A C D"
_symmetry_group_IT_number 142
_space_group.IT_coordinate_system_code '2'
_symmetry_cell_setting 'tetragonal'
loop_
_space_group_symop_operation_xyz
x,y,z
1/4-y,3/4+x,1/4+z
-x,1/2-y,z
1/4+y,1/4-x,3/4+z
x,-y,1/2-z
1/2-x,y,-z
3/4+y,1/4+x,1/4-z
1/4-y,1/4-x,1/4-z
-x,-y,-z
3/4+y,1/4-x,3/4-z
x,1/2+y,-z
3/4-y,3/4+x,1/4-z
-x,y,1/2+z
1/2+x,-y,z
1/4-y,3/4-x,3/4+z
3/4+y,3/4+x,3/4+z
1/2+x,1/2+y,1/2+z
3/4-y,1/4+x,3/4+z
1/2-x,-y,1/2+z
3/4+y,3/4-x,1/4+z
1/2+x,1/2-y,-z
-x,1/2+y,1/2-z
1/4+y,3/4+x,3/4-z
3/4-y,3/4-x,3/4-z
1/2-x,1/2-y,1/2-z
1/4+y,3/4-x,1/4-z
1/2+x,y,1/2-z
1/4-y,1/4+x,3/4-z
1/2-x,1/2+y,z
x,1/2-y,1/2+z
3/4-y,1/4-x,1/4+z
1/4+y,1/4+x,1/4+z
loop_
_atom_site_type_symbol
_atom_site_label
_atom_site_fract_x
_atom_site_fract_y
_atom_site_fract_z
Si Si1 0.011289 0.894863 0.413358
Si Si2 0.069139 0.385897 0.274832
Si Si3 0.703916 0.645304 0.402040
O O1 0.070071 0.820071 0.375000
O O2 0.956655 0.854184 0.495526
O O3 0.948236 0.923646 0.329097
O O4 0.072819 0.974569 0.421625
O O5 0.140664 0.415813 0.347543
O O6 0.976201 0.397305 0.317383
O O7 0.750000 0.617837 0.500000
#
# Coordination Sequence:
#
# PCOD9573765 Si02
#       3
#    32  32  32
#     4  10  22  40  64  95 128 168 225 281 335 400
#     4  10  21  37  65  89 122 170 213 274 323 405
#     4  10  23  37  63  96 130 162 222 274 340 396
#
# _framework density 26.981542999999999
#
# number of rings (size 3 to 8) (size 9 to 14) (size 15 to 20)
#    0.000    2.000    0.000    3.000   14.000    0.000 
#    0.000    0.000   22.000    0.000    0.000    0.000 
#    0.000    0.000    0.000    0.000    0.000    0.000 
#
# Total GULP energy -267955.424215 kJ/mol
# GULP energy per Si atom -5582.404671 kJ/mol
# Density = 2.692013 g / cm^3
# Si number density = 26.981543 Si / 1000 Ang^3
#
#
#
# Elastic Constant Matrix: (Units=GPa)
#
#
# Indices 1 2 3 4 5 6 
#
# 1 84.9010 82.4686 42.1558 0.0000 0.0000 0.0000
# 2 82.4686 84.9010 42.1558 0.0000 0.0000 0.0000
# 3 42.1558 42.1558 122.3774 0.0000 0.0000 0.0000
# 4 0.0000 0.0000 0.0000 28.7465 0.0000 0.0000
# 5 0.0000 0.0000 0.0000 0.0000 28.7465 0.0000
# 6 0.0000 0.0000 0.0000 0.0000 0.0000 44.4436
#
#
#
# Elastic Compliance Matrix: (Units=1/GPa)
#
#
# Indices 1 2 3 4 5 6 
#
# 1 0.209176 -0.201946 -0.002490 0.000000 0.000000 0.000000
# 2 -0.201946 0.209176 -0.002490 0.000000 0.000000 0.000000
# 3 -0.002490 -0.002490 0.009887 0.000000 0.000000 0.000000
# 4 0.000000 0.000000 0.000000 0.034787 0.000000 0.000000
# 5 0.000000 0.000000 0.000000 0.000000 0.034787 0.000000
# 6 0.000000 0.000000 0.000000 0.000000 0.000000 0.022500
#
#
# Mechanical properties :
#
#
# Convention : Reuss Voigt Hill
#
# Bulk Modulus (GPa) = 69.51929 69.52663 69.52296
# Shear Modulus (GPa) = 5.32503 28.74726 17.03614
#
# Velocity S-wave (km/s) = 1.40637 3.26765 2.51549
# Velocity P-wave (km/s) = 5.33466 6.32937 5.85318
#
# Compressibility (1/GPa) = 0.01438450
#
# Stress axis : x y z
#
# Youngs Moduli (GPa) = 4.78067 4.78067 101.14157
#
# Poissons Ratio (x) = 0.96544 0.25187
# Poissons Ratio (y) = 0.96544 0.25187
# Poissons Ratio (z) = 0.01191 0.01191
#
# Static dielectric constant tensor:
#      x y z
#    x 2.148880 0.000000 0.000000 
#    y 0.000000 2.148880 0.000000 
#    z 0.000000 0.000000 2.216370 
# 
# From -- ./inp_files/6593.got.cif
#   From: 2010.05.17/outbox.cif.g08.bks.cpg/sg142_4_cif.got.tgz:6593.got - 2010.05.20 13:39:18.
