data_PCOD9573086
_publ_section_title
;
Structure prediction by ZEFSAII (Michael W. Deem and Ramdas Pophale) SiO2 
 PCOD9573086
Probable space group: I 41/A M D
;
_chemical_formula_sum "Si O2"
_cell_formula_units_Z 96
_cell_length_a 25.419218
_cell_length_b 25.419218
_cell_length_c 7.355438
_cell_angle_alpha 90.000000
_cell_angle_beta 90.000000
_cell_angle_gamma 90.000000
_cell_volume 4752.618022
_symmetry_space_group_name_H-M "I 41/A M D"
_symmetry_group_IT_number 141
_space_group.IT_coordinate_system_code '2'
_symmetry_cell_setting 'tetragonal'
loop_
_space_group_symop_operation_xyz
x,y,z
1/4-y,3/4+x,1/4+z
-x,1/2-y,z
1/4+y,1/4-x,3/4+z
x,-y,-z
-x,1/2+y,-z
1/4+y,3/4+x,1/4-z
1/4-y,1/4-x,3/4-z
-x,-y,-z
3/4+y,1/4-x,3/4-z
x,1/2+y,-z
3/4-y,3/4+x,1/4-z
-x,y,z
x,1/2-y,z
3/4-y,1/4-x,3/4+z
3/4+y,3/4+x,1/4+z
1/2+x,1/2+y,1/2+z
3/4-y,1/4+x,3/4+z
1/2-x,-y,1/2+z
3/4+y,3/4-x,1/4+z
1/2+x,1/2-y,1/2-z
1/2-x,y,1/2-z
3/4+y,1/4+x,3/4-z
3/4-y,3/4-x,1/4-z
1/2-x,1/2-y,1/2-z
1/4+y,3/4-x,1/4-z
1/2+x,y,1/2-z
1/4-y,1/4+x,3/4-z
1/2-x,1/2+y,1/2+z
1/2+x,-y,1/2+z
1/4-y,3/4-x,1/4+z
1/4+y,1/4+x,3/4+z
loop_
_atom_site_type_symbol
_atom_site_label
_atom_site_fract_x
_atom_site_fract_y
_atom_site_fract_z
Si Si1 0.061343 0.586667 0.460420
Si Si2 0.699589 0.136219 0.622466
Si Si3 0.560271 0.624153 0.645408
O O1 0.094663 0.547157 0.335502
O O2 0.080584 0.645786 0.406733
O O3 0.069381 0.587093 0.677589
O O4 0.000000 0.578644 0.425812
O O5 0.750000 0.134119 0.750000
O O6 0.669126 0.080875 0.625000
O O7 0.660302 0.177868 0.719019
O O8 0.500000 0.642647 0.651652
#
# Coordination Sequence:
#
# PCOD9573086 Si02
#       3
#    32  32  32
#     4   9  18  32  51  78 110 143 176 210 252 305
#     4  10  21  37  56  72 100 132 173 222 275 321
#     4   9  18  32  51  78 110 143 176 210 252 303
#
# _framework density 20.199394000000002
#
# number of rings (size 3 to 8) (size 9 to 14) (size 15 to 20)
#    0.000    2.667    0.000    1.000    0.000    4.667 
#    0.000    6.667   14.667    6.000    0.000    0.000 
#    0.000    0.000    0.000    0.000    0.000    0.000 
#
# Total GULP energy -267663.226532 kJ/mol
# GULP energy per Si atom -5576.317219 kJ/mol
# Density = 2.015342 g / cm^3
# Si number density = 20.199394 Si / 1000 Ang^3
#
#
#
# Elastic Constant Matrix: (Units=GPa)
#
#
# Indices 1 2 3 4 5 6 
#
# 1 51.3172 18.6553 22.5877 0.0000 0.0000 0.0000
# 2 18.6553 51.3246 22.5907 0.0000 0.0000 0.0000
# 3 22.5877 22.5907 105.1421 0.0000 0.0000 0.0000
# 4 0.0000 0.0000 0.0000 23.9830 0.0000 0.0000
# 5 0.0000 0.0000 0.0000 0.0000 23.9804 0.0000
# 6 0.0000 0.0000 0.0000 0.0000 0.0000 3.9076
#
#
#
# Elastic Compliance Matrix: (Units=1/GPa)
#
#
# Indices 1 2 3 4 5 6 
#
# 1 0.023604 -0.007011 -0.003565 0.000000 0.000000 0.000000
# 2 -0.007011 0.023601 -0.003565 0.000000 0.000000 0.000000
# 3 -0.003565 -0.003565 0.011043 0.000000 0.000000 0.000000
# 4 0.000000 0.000000 0.000000 0.041696 0.000000 0.000000
# 5 0.000000 0.000000 0.000000 0.000000 0.041701 0.000000
# 6 0.000000 0.000000 0.000000 0.000000 0.000000 0.255911
#
#
# Mechanical properties :
#
#
# Convention : Reuss Voigt Hill
#
# Bulk Modulus (GPa) = 33.36905 37.27237 35.32071
# Shear Modulus (GPa) = 11.47249 19.97088 15.72169
#
# Velocity S-wave (km/s) = 2.38578 3.14775 2.79287
# Velocity P-wave (km/s) = 4.91375 5.63058 5.28433
#
# Compressibility (1/GPa) = 0.02996789
#
# Stress axis : x y z
#
# Youngs Moduli (GPa) = 42.36533 42.37096 90.55790
#
# Poissons Ratio (x) = 0.29705 0.32280
# Poissons Ratio (y) = 0.29701 0.32282
# Poissons Ratio (z) = 0.15102 0.15104
#
# Static dielectric constant tensor:
#      x y z
#    x 1.690830 0.000000 0.000000 
#    y 0.000000 1.690820 0.000000 
#    z 0.000000 0.000000 1.760110 
# 
# From -- ./inp_files/2487.got.cif
#   From: 2010.05.17/outbox.cif.g08.bks.cpg/sg141_2_cif.got.tgz:2487.got - 2010.05.20 13:30:51.
