data_PCOD9573533
_publ_section_title
;
Structure prediction by ZEFSAII (Michael W. Deem and Ramdas Pophale) SiO2 
 PCOD9573533
Probable space group: I 41/A C D
;
_chemical_formula_sum "Si O2"
_cell_formula_units_Z 128
_cell_length_a 22.068426
_cell_length_b 22.068426
_cell_length_c 14.922813
_cell_angle_alpha 90.000000
_cell_angle_beta 90.000000
_cell_angle_gamma 90.000000
_cell_volume 7267.640132
_symmetry_space_group_name_H-M "I 41/A C D"
_symmetry_group_IT_number 142
_space_group.IT_coordinate_system_code '2'
_symmetry_cell_setting 'tetragonal'
loop_
_space_group_symop_operation_xyz
x,y,z
1/4-y,3/4+x,1/4+z
-x,1/2-y,z
1/4+y,1/4-x,3/4+z
x,-y,1/2-z
1/2-x,y,-z
3/4+y,1/4+x,1/4-z
1/4-y,1/4-x,1/4-z
-x,-y,-z
3/4+y,1/4-x,3/4-z
x,1/2+y,-z
3/4-y,3/4+x,1/4-z
-x,y,1/2+z
1/2+x,-y,z
1/4-y,3/4-x,3/4+z
3/4+y,3/4+x,3/4+z
1/2+x,1/2+y,1/2+z
3/4-y,1/4+x,3/4+z
1/2-x,-y,1/2+z
3/4+y,3/4-x,1/4+z
1/2+x,1/2-y,-z
-x,1/2+y,1/2-z
1/4+y,3/4+x,3/4-z
3/4-y,3/4-x,3/4-z
1/2-x,1/2-y,1/2-z
1/4+y,3/4-x,1/4-z
1/2+x,y,1/2-z
1/4-y,1/4+x,3/4-z
1/2-x,1/2+y,z
x,1/2-y,1/2+z
3/4-y,1/4-x,1/4+z
1/4+y,1/4+x,1/4+z
loop_
_atom_site_type_symbol
_atom_site_label
_atom_site_fract_x
_atom_site_fract_y
_atom_site_fract_z
Si Si1 0.817116 0.704572 0.974559
Si Si2 0.488354 0.651513 0.367050
Si Si3 0.302558 0.799230 0.237331
Si Si4 0.682884 0.564762 0.018860
O O1 0.823408 0.703354 0.866970
O O2 0.820076 0.635203 0.011941
O O3 0.750000 0.726961 0.000000
O O4 0.865772 0.744212 0.026947
O O5 0.437079 0.701594 0.351882
O O6 0.467594 0.605631 0.444173
O O7 0.250000 0.750000 0.250000
O O8 0.283799 0.869392 0.257776
O O9 0.681675 0.568326 0.125000
O O10 0.750000 0.539082 0.000000
#
# Coordination Sequence:
#
# PCOD9573533 Si02
#       4
#    32  32  32  32
#     4  10  19  36  59  87 116 156 204 247 295 367
#     4  11  23  37  57  88 125 157 194 252 312 364
#     4  11  21  36  64  89 114 159 210 253 302 364
#     4   9  19  35  61  86 115 155 201 247 296 367
#
# _framework density 17.61232
#
# number of rings (size 3 to 8) (size 9 to 14) (size 15 to 20)
#    0.000    1.750    5.000    0.000    0.000    1.000 
#    0.000    2.500   11.000    0.000    0.000    0.000 
#    0.000    0.000    0.000    0.000    0.000    0.000 
#
# Total GULP energy -356459.509564 kJ/mol
# GULP energy per Si atom -5569.679837 kJ/mol
# Density = 1.757223 g / cm^3
# Si number density = 17.612320 Si / 1000 Ang^3
#
#
#
# Elastic Constant Matrix: (Units=GPa)
#
#
# Indices 1 2 3 4 5 6 
#
# 1 107.8060 48.0601 21.0713 0.0000 0.0000 0.0000
# 2 48.0601 107.8063 21.0712 0.0000 0.0000 0.0000
# 3 21.0713 21.0712 67.1371 0.0000 0.0000 0.0000
# 4 0.0000 0.0000 0.0000 22.7486 0.0000 0.0000
# 5 0.0000 0.0000 0.0000 0.0000 22.7485 0.0000
# 6 0.0000 0.0000 0.0000 0.0000 0.0000 24.8561
#
#
#
# Elastic Compliance Matrix: (Units=1/GPa)
#
#
# Indices 1 2 3 4 5 6 
#
# 1 0.011874 -0.004863 -0.002200 0.000000 0.000000 0.000000
# 2 -0.004863 0.011874 -0.002200 0.000000 0.000000 0.000000
# 3 -0.002200 -0.002200 0.016276 0.000000 0.000000 0.000000
# 4 0.000000 0.000000 0.000000 0.043959 0.000000 0.000000
# 5 0.000000 0.000000 0.000000 0.000000 0.043959 0.000000
# 6 0.000000 0.000000 0.000000 0.000000 0.000000 0.040232
#
#
# Mechanical properties :
#
#
# Convention : Reuss Voigt Hill
#
# Bulk Modulus (GPa) = 46.52010 51.46164 48.99087
# Shear Modulus (GPa) = 25.79088 26.90709 26.34899
#
# Velocity S-wave (km/s) = 3.83085 3.91288 3.87208
# Velocity P-wave (km/s) = 6.78513 7.04959 6.91862
#
# Compressibility (1/GPa) = 0.02149609
#
# Stress axis : x y z
#
# Youngs Moduli (GPa) = 84.21688 84.21718 61.43991
#
# Poissons Ratio (x) = 0.40958 0.13519
# Poissons Ratio (y) = 0.40958 0.13519
# Poissons Ratio (z) = 0.18531 0.18530
#
# Static dielectric constant tensor:
#      x y z
#    x 1.660430 0.000000 0.000000 
#    y 0.000000 1.660430 0.000000 
#    z 0.000000 0.000000 1.579860 
# 
# From -- ./inp_files/3485.got.cif
#   From: 2010.05.17/outbox.cif.g08.bks.cpg/sg142_2_cif.got.tgz:3485.got - 2010.05.20 13:39:18.
