data_PCOD9573442
_publ_section_title
;
Structure prediction by ZEFSAII (Michael W. Deem and Ramdas Pophale) SiO2 
 PCOD9573442
Probable space group: I 41/A C D
;
_chemical_formula_sum "Si O2"
_cell_formula_units_Z 112
_cell_length_a 26.934620
_cell_length_b 26.934620
_cell_length_c 5.409428
_cell_angle_alpha 90.000000
_cell_angle_beta 90.000000
_cell_angle_gamma 90.000000
_cell_volume 3924.398041
_symmetry_space_group_name_H-M "I 41/A C D"
_symmetry_group_IT_number 142
_space_group.IT_coordinate_system_code '2'
_symmetry_cell_setting 'tetragonal'
loop_
_space_group_symop_operation_xyz
x,y,z
1/4-y,3/4+x,1/4+z
-x,1/2-y,z
1/4+y,1/4-x,3/4+z
x,-y,1/2-z
1/2-x,y,-z
3/4+y,1/4+x,1/4-z
1/4-y,1/4-x,1/4-z
-x,-y,-z
3/4+y,1/4-x,3/4-z
x,1/2+y,-z
3/4-y,3/4+x,1/4-z
-x,y,1/2+z
1/2+x,-y,z
1/4-y,3/4-x,3/4+z
3/4+y,3/4+x,3/4+z
1/2+x,1/2+y,1/2+z
3/4-y,1/4+x,3/4+z
1/2-x,-y,1/2+z
3/4+y,3/4-x,1/4+z
1/2+x,1/2-y,-z
-x,1/2+y,1/2-z
1/4+y,3/4+x,3/4-z
3/4-y,3/4-x,3/4-z
1/2-x,1/2-y,1/2-z
1/4+y,3/4-x,1/4-z
1/2+x,y,1/2-z
1/4-y,1/4+x,3/4-z
1/2-x,1/2+y,z
x,1/2-y,1/2+z
3/4-y,1/4-x,1/4+z
1/4+y,1/4+x,1/4+z
loop_
_atom_site_type_symbol
_atom_site_label
_atom_site_fract_x
_atom_site_fract_y
_atom_site_fract_z
Si Si1 0.898558 0.732459 0.608358
Si Si2 0.695458 0.054543 0.375000
Si Si3 0.798668 0.699917 0.106973
Si Si4 0.102097 0.921273 0.137507
O O1 0.923148 0.749823 0.358073
O O2 0.845834 0.763475 0.613517
O O3 0.882173 0.675166 0.611077
O O4 0.750000 0.056456 0.500000
O O5 0.669660 0.088987 0.586967
O O6 0.804670 0.663924 0.869445
O O7 0.750000 0.728360 0.000000
O O8 0.800509 0.670337 0.367894
#
# Coordination Sequence:
#
# PCOD9573442 Si02
#       4
#    32  16  32  32
#     4   8  16  29  50  79 102 116 141 195 274 349
#     4  12  28  44  56  70  98 150 212 249 258 276
#     4  10  18  31  54  80  99 115 146 205 284 350
#     4  10  22  37  53  72  96 128 170 222 266 304
#
# _framework density 28.539408000000002
#
# number of rings (size 3 to 8) (size 9 to 14) (size 15 to 20)
#    0.000    2.286    0.000    2.571    0.000   16.000 
#    0.000    0.000    0.000    0.000    0.000    0.000 
#    0.000    0.000    0.000    0.000    0.000  347.143 
#
# Total GULP energy -312491.810524 kJ/mol
# GULP energy per Si atom -5580.210902 kJ/mol
# Density = 2.847445 g / cm^3
# Si number density = 28.539408 Si / 1000 Ang^3
#
#
#
# Elastic Constant Matrix: (Units=GPa)
#
#
# Indices 1 2 3 4 5 6 
#
# 1 103.2913 98.3565 45.2873 0.0000 0.0000 0.0000
# 2 98.3565 103.2873 45.2861 0.0000 0.0000 0.0000
# 3 45.2873 45.2861 271.3067 0.0000 0.0000 0.0000
# 4 0.0000 0.0000 0.0000 27.7661 0.0000 0.0000
# 5 0.0000 0.0000 0.0000 0.0000 27.7670 0.0000
# 6 0.0000 0.0000 0.0000 0.0000 0.0000 29.8126
#
#
#
# Elastic Compliance Matrix: (Units=1/GPa)
#
#
# Indices 1 2 3 4 5 6 
#
# 1 0.104041 -0.098682 -0.000895 0.000000 0.000000 0.000000
# 2 -0.098682 0.104045 -0.000895 0.000000 0.000000 0.000000
# 3 -0.000895 -0.000895 0.003985 0.000000 0.000000 0.000000
# 4 0.000000 0.000000 0.000000 0.036015 0.000000 0.000000
# 5 0.000000 0.000000 0.000000 0.000000 0.036014 0.000000
# 6 0.000000 0.000000 0.000000 0.000000 0.000000 0.033543
#
#
# Mechanical properties :
#
#
# Convention : Reuss Voigt Hill
#
# Bulk Modulus (GPa) = 89.86854 95.08280 92.47567
# Shear Modulus (GPa) = 9.57313 36.33284 22.95299
#
# Velocity S-wave (km/s) = 1.83348 3.57189 2.83902
# Velocity P-wave (km/s) = 6.00332 7.09928 6.57418
#
# Compressibility (1/GPa) = 0.01112736
#
# Stress axis : x y z
#
# Youngs Moduli (GPa) = 9.61159 9.61123 250.96528
#
# Poissons Ratio (x) = 0.94845 0.22462
# Poissons Ratio (y) = 0.94849 0.22455
# Poissons Ratio (z) = 0.00860 0.00860
#
# Static dielectric constant tensor:
#      x y z
#    x 2.382510 0.000000 0.000000 
#    y 0.000000 2.382510 0.000000 
#    z 0.000000 0.000000 2.320440 
# 
# From -- ./inp_files/717.got.cif
#   From: 2010.05.17/outbox.cif.g08.bks.cpg/sg142_1_cif.got.tgz:717.got - 2010.05.20 13:39:18.
