data_PCOD9573969
_publ_section_title
;
Structure prediction by ZEFSAII (Michael W. Deem and Ramdas Pophale) SiO2 
 PCOD9573969
Probable space group: I 41/A C D
;
_chemical_formula_sum "Si O2"
_cell_formula_units_Z 136
_cell_length_a 23.337653
_cell_length_b 23.337653
_cell_length_c 11.586503
_cell_angle_alpha 90.000000
_cell_angle_beta 90.000000
_cell_angle_gamma 90.000000
_cell_volume 6310.543064
_symmetry_space_group_name_H-M "I 41/A C D"
_symmetry_group_IT_number 142
_space_group.IT_coordinate_system_code '2'
_symmetry_cell_setting 'tetragonal'
loop_
_space_group_symop_operation_xyz
x,y,z
1/4-y,3/4+x,1/4+z
-x,1/2-y,z
1/4+y,1/4-x,3/4+z
x,-y,1/2-z
1/2-x,y,-z
3/4+y,1/4+x,1/4-z
1/4-y,1/4-x,1/4-z
-x,-y,-z
3/4+y,1/4-x,3/4-z
x,1/2+y,-z
3/4-y,3/4+x,1/4-z
-x,y,1/2+z
1/2+x,-y,z
1/4-y,3/4-x,3/4+z
3/4+y,3/4+x,3/4+z
1/2+x,1/2+y,1/2+z
3/4-y,1/4+x,3/4+z
1/2-x,-y,1/2+z
3/4+y,3/4-x,1/4+z
1/2+x,1/2-y,-z
-x,1/2+y,1/2-z
1/4+y,3/4+x,3/4-z
3/4-y,3/4-x,3/4-z
1/2-x,1/2-y,1/2-z
1/4+y,3/4-x,1/4-z
1/2+x,y,1/2-z
1/4-y,1/4+x,3/4-z
1/2-x,1/2+y,z
x,1/2-y,1/2+z
3/4-y,1/4-x,1/4+z
1/4+y,1/4+x,1/4+z
loop_
_atom_site_type_symbol
_atom_site_label
_atom_site_fract_x
_atom_site_fract_y
_atom_site_fract_z
Si Si1 0.500000 0.750000 0.875000
Si Si2 0.424287 0.153150 0.509919
Si Si3 0.785619 0.500000 0.750000
Si Si4 0.232818 0.814685 0.732423
Si Si5 0.821053 0.111495 0.865565
Si Si6 0.750000 0.378358 0.000000
O O1 0.471581 0.801491 0.948571
O O2 0.413004 0.163004 0.375000
O O3 0.436814 0.085671 0.520412
O O4 0.369544 0.156365 0.596895
O O5 0.755052 0.505052 0.875000
O O6 0.825098 0.444960 0.770494
O O7 0.250000 0.750000 0.750000
O O8 0.264725 0.855242 0.824605
O O9 0.256008 0.839449 0.612087
O O10 0.839193 0.061179 0.774242
#
# Coordination Sequence:
#
# PCOD9573969 Si02
#       6
#     8  32  16  32  32  16
#     4  12  26  48  68  90 124 172 230 284 328 386
#     4  11  25  44  67  95 127 172 223 274 332 394
#     4  12  23  37  64 100 144 183 213 262 330 416
#     4  11  24  42  67  98 135 175 224 281 337 404
#     4  11  22  41  66 101 136 176 219 272 343 416
#     4  10  23  41  64 100 142 181 221 274 346 418
#
# _framework density 21.551235999999999
#
# number of rings (size 3 to 8) (size 9 to 14) (size 15 to 20)
#    0.000    0.941    0.000    8.118    0.000    6.588 
#    0.000    7.059    0.000    0.000    0.000    0.000 
#    0.000    0.000    0.000    0.000    0.000    0.000 
#
# Total GULP energy -379405.230640 kJ/mol
# GULP energy per Si atom -5579.488686 kJ/mol
# Density = 2.150218 g / cm^3
# Si number density = 21.551236 Si / 1000 Ang^3
#
#
#
# Elastic Constant Matrix: (Units=GPa)
#
#
# Indices 1 2 3 4 5 6 
#
# 1 121.5675 78.6574 56.2293 0.0000 0.0000 0.0000
# 2 78.6574 121.5675 56.2293 0.0000 0.0000 0.0000
# 3 56.2293 56.2293 132.7552 0.0000 0.0000 0.0000
# 4 0.0000 0.0000 0.0000 32.7582 0.0000 0.0000
# 5 0.0000 0.0000 0.0000 0.0000 32.7582 0.0000
# 6 0.0000 0.0000 0.0000 0.0000 0.0000 54.9699
#
#
#
# Elastic Compliance Matrix: (Units=1/GPa)
#
#
# Indices 1 2 3 4 5 6 
#
# 1 0.014929 -0.008376 -0.002776 0.000000 0.000000 0.000000
# 2 -0.008376 0.014929 -0.002776 0.000000 0.000000 0.000000
# 3 -0.002776 -0.002776 0.009884 0.000000 0.000000 0.000000
# 4 0.000000 0.000000 0.000000 0.030527 0.000000 0.000000
# 5 0.000000 0.000000 0.000000 0.000000 0.030527 0.000000
# 6 0.000000 0.000000 0.000000 0.000000 0.000000 0.018192
#
#
# Mechanical properties :
#
#
# Convention : Reuss Voigt Hill
#
# Bulk Modulus (GPa) = 84.11921 84.23580 84.17750
# Shear Modulus (GPa) = 33.15567 36.41555 34.78561
#
# Velocity S-wave (km/s) = 3.92657 4.11508 4.02193
# Velocity P-wave (km/s) = 7.72491 7.85810 7.79179
#
# Compressibility (1/GPa) = 0.01188789
#
# Stress axis : x y z
#
# Youngs Moduli (GPa) = 66.98387 66.98387 101.17338
#
# Poissons Ratio (x) = 0.56103 0.28083
# Poissons Ratio (y) = 0.56103 0.28083
# Poissons Ratio (z) = 0.18593 0.18593
#
# Static dielectric constant tensor:
#      x y z
#    x 1.936540 0.000000 0.000000 
#    y 0.000000 1.936540 0.000000 
#    z 0.000000 0.000000 1.767460 
# 
# From -- ./inp_files/3656.got.cif
#   From: 2010.05.17/outbox.cif.g08.bks.cpg/sg142_2_cif.got.tgz:3656.got - 2010.05.20 13:39:18.
