data_PCOD9573907
_publ_section_title
;
Structure prediction by ZEFSAII (Michael W. Deem and Ramdas Pophale) SiO2 
 PCOD9573907
Probable space group: I 41/A C D
;
_chemical_formula_sum "Si O2"
_cell_formula_units_Z 120
_cell_length_a 24.179236
_cell_length_b 24.179236
_cell_length_c 9.910705
_cell_angle_alpha 90.000000
_cell_angle_beta 90.000000
_cell_angle_gamma 90.000000
_cell_volume 5794.149513
_symmetry_space_group_name_H-M "I 41/A C D"
_symmetry_group_IT_number 142
_space_group.IT_coordinate_system_code '2'
_symmetry_cell_setting 'tetragonal'
loop_
_space_group_symop_operation_xyz
x,y,z
1/4-y,3/4+x,1/4+z
-x,1/2-y,z
1/4+y,1/4-x,3/4+z
x,-y,1/2-z
1/2-x,y,-z
3/4+y,1/4+x,1/4-z
1/4-y,1/4-x,1/4-z
-x,-y,-z
3/4+y,1/4-x,3/4-z
x,1/2+y,-z
3/4-y,3/4+x,1/4-z
-x,y,1/2+z
1/2+x,-y,z
1/4-y,3/4-x,3/4+z
3/4+y,3/4+x,3/4+z
1/2+x,1/2+y,1/2+z
3/4-y,1/4+x,3/4+z
1/2-x,-y,1/2+z
3/4+y,3/4-x,1/4+z
1/2+x,1/2-y,-z
-x,1/2+y,1/2-z
1/4+y,3/4+x,3/4-z
3/4-y,3/4-x,3/4-z
1/2-x,1/2-y,1/2-z
1/4+y,3/4-x,1/4-z
1/2+x,y,1/2-z
1/4-y,1/4+x,3/4-z
1/2-x,1/2+y,z
x,1/2-y,1/2+z
3/4-y,1/4-x,1/4+z
1/4+y,1/4+x,1/4+z
loop_
_atom_site_type_symbol
_atom_site_label
_atom_site_fract_x
_atom_site_fract_y
_atom_site_fract_z
Si Si1 0.500000 0.250000 0.375000
Si Si2 0.617160 0.275447 0.506783
Si Si3 0.308771 0.500000 0.750000
Si Si4 0.691365 0.219625 0.733788
Si Si5 0.146743 0.888531 0.715022
O O1 0.556679 0.253104 0.463525
O O2 0.652662 0.244580 0.618411
O O3 0.655932 0.276892 0.372595
O O4 0.612489 0.337518 0.567748
O O5 0.273869 0.523869 0.625000
O O6 0.344255 0.548258 0.823056
O O7 0.750000 0.250000 0.750000
O O8 0.695468 0.155019 0.690626
O O9 0.144230 0.894230 0.875000
#
# Coordination Sequence:
#
# PCOD9573907 Si02
#       5
#     8  32  16  32  32
#     4  12  24  46  68 102 144 178 248 282 368 422
#     4  11  25  41  68  98 136 180 226 285 343 417
#     4  10  22  42  70  90 128 172 224 284 328 416
#     4  11  24  43  67  98 133 180 224 285 347 418
#     4   9  21  42  64  93 123 181 224 257 341 411
#
# _framework density 20.710546000000001
#
# number of rings (size 3 to 8) (size 9 to 14) (size 15 to 20)
#    0.000    1.600    4.000    0.800   14.933    1.067 
#    4.800    0.000    0.000    0.000    0.000    0.000 
#    0.000    0.000    0.000    0.000    0.000    0.000 
#
# Total GULP energy -334063.379204 kJ/mol
# GULP energy per Si atom -5567.722987 kJ/mol
# Density = 2.066341 g / cm^3
# Si number density = 20.710546 Si / 1000 Ang^3
#
#
#
# Elastic Constant Matrix: (Units=GPa)
#
#
# Indices 1 2 3 4 5 6 
#
# 1 156.9482 96.2206 26.9286 0.0000 0.0000 0.0000
# 2 96.2206 156.9482 26.9286 0.0000 0.0000 0.0000
# 3 26.9286 26.9286 76.9827 0.0000 0.0000 0.0000
# 4 0.0000 0.0000 0.0000 19.9767 0.0000 0.0000
# 5 0.0000 0.0000 0.0000 0.0000 19.9767 0.0000
# 6 0.0000 0.0000 0.0000 0.0000 0.0000 42.2005
#
#
#
# Elastic Compliance Matrix: (Units=1/GPa)
#
#
# Indices 1 2 3 4 5 6 
#
# 1 0.010367 -0.006100 -0.001493 0.000000 0.000000 0.000000
# 2 -0.006100 0.010367 -0.001493 0.000000 0.000000 0.000000
# 3 -0.001493 -0.001493 0.014034 0.000000 0.000000 0.000000
# 4 0.000000 0.000000 0.000000 0.050058 0.000000 0.000000
# 5 0.000000 0.000000 0.000000 0.000000 0.050058 0.000000
# 6 0.000000 0.000000 0.000000 0.000000 0.000000 0.023696
#
#
# Mechanical properties :
#
#
# Convention : Reuss Voigt Hill
#
# Bulk Modulus (GPa) = 60.24759 76.78164 68.51462
# Shear Modulus (GPa) = 27.42959 32.48421 29.95690
#
# Velocity S-wave (km/s) = 3.64321 3.96471 3.80736
# Velocity P-wave (km/s) = 6.84476 7.62317 7.24443
#
# Compressibility (1/GPa) = 0.01659817
#
# Stress axis : x y z
#
# Youngs Moduli (GPa) = 96.45773 96.45773 71.25417
#
# Poissons Ratio (x) = 0.58837 0.10637
# Poissons Ratio (y) = 0.58837 0.10637
# Poissons Ratio (z) = 0.14399 0.14399
#
# Static dielectric constant tensor:
#      x y z
#    x 1.972680 0.000000 0.000000 
#    y 0.000000 1.972680 0.000000 
#    z 0.000000 0.000000 1.737730 
# 
# From -- ./inp_files/3488.got.cif
#   From: 2010.05.17/outbox.cif.g08.bks.cpg/sg142_2_cif.got.tgz:3488.got - 2010.05.20 13:39:18.
