data_PCOD9573279
_publ_section_title
;
Structure prediction by ZEFSAII (Michael W. Deem and Ramdas Pophale) SiO2 
 PCOD9573279
Probable space group: I 41/A M D
;
_chemical_formula_sum "Si O2"
_cell_formula_units_Z 128
_cell_length_a 28.397649
_cell_length_b 28.397649
_cell_length_c 10.126646
_cell_angle_alpha 90.000000
_cell_angle_beta 90.000000
_cell_angle_gamma 90.000000
_cell_volume 8166.395374
_symmetry_space_group_name_H-M "I 41/A M D"
_symmetry_group_IT_number 141
_space_group.IT_coordinate_system_code '2'
_symmetry_cell_setting 'tetragonal'
loop_
_space_group_symop_operation_xyz
x,y,z
1/4-y,3/4+x,1/4+z
-x,1/2-y,z
1/4+y,1/4-x,3/4+z
x,-y,-z
-x,1/2+y,-z
1/4+y,3/4+x,1/4-z
1/4-y,1/4-x,3/4-z
-x,-y,-z
3/4+y,1/4-x,3/4-z
x,1/2+y,-z
3/4-y,3/4+x,1/4-z
-x,y,z
x,1/2-y,z
3/4-y,1/4-x,3/4+z
3/4+y,3/4+x,1/4+z
1/2+x,1/2+y,1/2+z
3/4-y,1/4+x,3/4+z
1/2-x,-y,1/2+z
3/4+y,3/4-x,1/4+z
1/2+x,1/2-y,1/2-z
1/2-x,y,1/2-z
3/4+y,1/4+x,3/4-z
3/4-y,3/4-x,1/4-z
1/2-x,1/2-y,1/2-z
1/4+y,3/4-x,1/4-z
1/2+x,y,1/2-z
1/4-y,1/4+x,3/4-z
1/2-x,1/2+y,1/2+z
1/2+x,-y,1/2+z
1/4-y,3/4-x,1/4+z
1/4+y,1/4+x,3/4+z
loop_
_atom_site_type_symbol
_atom_site_label
_atom_site_fract_x
_atom_site_fract_y
_atom_site_fract_z
Si Si1 0.290931 0.306831 0.847038
Si Si2 0.943250 0.646642 0.997431
Si Si3 0.792568 0.307439 0.346421
Si Si4 0.055901 0.146175 0.496066
O O1 0.286053 0.250000 0.854593
O O2 0.250000 0.324668 0.750000
O O3 0.341422 0.315630 0.780043
O O4 0.288631 0.323184 0.000145
O O5 0.919947 0.672874 0.874455
O O6 0.000000 0.653573 0.003895
O O7 0.917864 0.667864 0.125000
O O8 0.792343 0.250000 0.349049
O O9 0.750000 0.322082 0.250000
O O10 0.842841 0.322082 0.285625
O O11 0.071825 0.178176 0.375000
O O12 0.000000 0.144789 0.507414
#
# Coordination Sequence:
#
# PCOD9573279 Si02
#       4
#    32  32  32  32
#     4   9  18  33  51  70  95 128 168 217 266 302
#     4  11  23  36  49  72 106 143 181 213 247 301
#     4   9  18  32  51  73  94 124 169 218 267 306
#     4  11  21  34  51  72 103 140 177 214 249 297
#
# _framework density 15.67399
#
# number of rings (size 3 to 8) (size 9 to 14) (size 15 to 20)
#    0.000    2.000    2.500    1.500    3.500    3.000 
#    0.000    0.000    0.000    0.000    0.000    0.000 
#    0.000    6.000    0.000    0.000    0.000    0.000 
#
# Total GULP energy -356673.041241 kJ/mol
# GULP energy per Si atom -5573.016269 kJ/mol
# Density = 1.563832 g / cm^3
# Si number density = 15.673990 Si / 1000 Ang^3
#
#
#
# Elastic Constant Matrix: (Units=GPa)
#
#
# Indices 1 2 3 4 5 6 
#
# 1 79.0683 45.7766 66.5002 0.0000 0.0000 0.0000
# 2 45.7766 79.0601 66.4981 0.0000 0.0000 0.0000
# 3 66.5002 66.4981 181.1692 0.0000 0.0000 0.0000
# 4 0.0000 0.0000 0.0000 14.7018 0.0000 0.0000
# 5 0.0000 0.0000 0.0000 0.0000 14.7009 0.0000
# 6 0.0000 0.0000 0.0000 0.0000 0.0000 -3.0895
#
#
#
# Elastic Compliance Matrix: (Units=1/GPa)
#
#
# Indices 1 2 3 4 5 6 
#
# 1 0.021596 -0.008444 -0.004828 0.000000 0.000000 0.000000
# 2 -0.008444 0.021599 -0.004829 0.000000 0.000000 0.000000
# 3 -0.004828 -0.004829 0.009064 0.000000 0.000000 0.000000
# 4 0.000000 0.000000 0.000000 0.068019 0.000000 0.000000
# 5 0.000000 0.000000 0.000000 0.000000 0.068023 0.000000
# 6 0.000000 0.000000 0.000000 0.000000 0.000000 -0.323678
#
#
# Mechanical properties :
#
#
# Convention : Reuss Voigt Hill
#
# Bulk Modulus (GPa) = 62.26995 77.42747 69.84871
# Shear Modulus (GPa) = -53.29136 15.96417 -18.66360
#
# Velocity S-wave (km/s) = -5.83727 3.19488 -3.45445
# Velocity P-wave (km/s) = 2.37005 7.94453 5.36183
#
# Compressibility (1/GPa) = 0.01605911
#
# Stress axis : x y z
#
# Youngs Moduli (GPa) = 46.30436 46.29879 110.32482
#
# Poissons Ratio (x) = 0.39093 0.53264
# Poissons Ratio (y) = 0.39098 0.53270
# Poissons Ratio (z) = 0.22355 0.22355
#
# Static dielectric constant tensor:
#      x y z
#    x 1.515940 0.000000 0.000000 
#    y 0.000000 1.515930 0.000000 
#    z 0.000000 0.000000 1.486380 
# 
# From -- ./inp_files/4580.got.cif
#   From: 2010.05.17/outbox.cif.g08.bks.cpg/sg141_3_cif.got.tgz:4580.got - 2010.05.20 13:30:51.
