data_PCOD9573618
_publ_section_title
;
Structure prediction by ZEFSAII (Michael W. Deem and Ramdas Pophale) SiO2 
 PCOD9573618
Probable space group: I 41/A C D
;
_chemical_formula_sum "Si O2"
_cell_formula_units_Z 192
_cell_length_a 19.830351
_cell_length_b 19.830351
_cell_length_c 22.243948
_cell_angle_alpha 90.000000
_cell_angle_beta 90.000000
_cell_angle_gamma 90.000000
_cell_volume 8747.272857
_symmetry_space_group_name_H-M "I 41/A C D"
_symmetry_group_IT_number 142
_space_group.IT_coordinate_system_code '2'
_symmetry_cell_setting 'tetragonal'
loop_
_space_group_symop_operation_xyz
x,y,z
1/4-y,3/4+x,1/4+z
-x,1/2-y,z
1/4+y,1/4-x,3/4+z
x,-y,1/2-z
1/2-x,y,-z
3/4+y,1/4+x,1/4-z
1/4-y,1/4-x,1/4-z
-x,-y,-z
3/4+y,1/4-x,3/4-z
x,1/2+y,-z
3/4-y,3/4+x,1/4-z
-x,y,1/2+z
1/2+x,-y,z
1/4-y,3/4-x,3/4+z
3/4+y,3/4+x,3/4+z
1/2+x,1/2+y,1/2+z
3/4-y,1/4+x,3/4+z
1/2-x,-y,1/2+z
3/4+y,3/4-x,1/4+z
1/2+x,1/2-y,-z
-x,1/2+y,1/2-z
1/4+y,3/4+x,3/4-z
3/4-y,3/4-x,3/4-z
1/2-x,1/2-y,1/2-z
1/4+y,3/4-x,1/4-z
1/2+x,y,1/2-z
1/4-y,1/4+x,3/4-z
1/2-x,1/2+y,z
x,1/2-y,1/2+z
3/4-y,1/4-x,1/4+z
1/4+y,1/4+x,1/4+z
loop_
_atom_site_type_symbol
_atom_site_label
_atom_site_fract_x
_atom_site_fract_y
_atom_site_fract_z
Si Si1 0.878445 0.351621 0.432248
Si Si2 0.903672 0.005885 0.984443
Si Si3 0.380036 0.516707 0.623554
Si Si4 0.367979 0.204099 0.065382
Si Si5 0.781738 0.275480 0.122306
Si Si6 0.821225 0.887166 0.965516
O O1 0.902600 0.414747 0.471053
O O2 0.802013 0.371659 0.412250
O O3 0.923391 0.343444 0.372080
O O4 0.883554 0.277773 0.460569
O O5 0.963527 0.974225 0.944083
O O6 0.841289 0.964215 0.954722
O O7 0.893421 0.995078 0.054754
O O8 0.315242 0.565242 0.625000
O O9 0.449649 0.554085 0.642258
O O10 0.293061 0.215266 0.093847
O O11 0.370035 0.148647 0.013598
O O12 0.820315 0.336150 0.090196
O O13 0.750000 0.886924 0.000000
#
# Coordination Sequence:
#
# PCOD9573618 Si02
#       6
#    32  32  32  32  32  32
#     4  10  22  38  62  91 125 159 208 256 307 367
#     4  11  22  38  64  90 119 165 208 259 309 373
#     4  11  24  38  59  92 126 160 207 267 313 365
#     4   9  19  38  58  87 125 164 203 249 306 367
#     4   9  21  39  59  84 126 166 199 243 324 380
#     4  10  20  36  61  90 123 161 205 254 309 372
#
# _framework density 21.949697
#
# number of rings (size 3 to 8) (size 9 to 14) (size 15 to 20)
#    0.000    2.000    1.667    1.000    4.667    0.333 
#    0.000    0.000    0.000    2.000    0.000    0.000 
#    0.000    0.000    0.000    0.000    0.000    0.000 
#
# Total GULP energy -535083.719411 kJ/mol
# GULP energy per Si atom -5573.788744 kJ/mol
# Density = 2.189974 g / cm^3
# Si number density = 21.949697 Si / 1000 Ang^3
#
#
#
# Elastic Constant Matrix: (Units=GPa)
#
#
# Indices 1 2 3 4 5 6 
#
# 1 81.3953 13.8766 -9.8302 0.0000 0.0000 0.0000
# 2 13.8766 81.3953 -9.8302 0.0000 0.0000 0.0000
# 3 -9.8302 -9.8302 42.8502 0.0000 0.0000 0.0000
# 4 0.0000 0.0000 0.0000 16.1510 0.0000 0.0000
# 5 0.0000 0.0000 0.0000 0.0000 16.1510 0.0000
# 6 0.0000 0.0000 0.0000 0.0000 0.0000 6.5243
#
#
#
# Elastic Compliance Matrix: (Units=1/GPa)
#
#
# Indices 1 2 3 4 5 6 
#
# 1 0.012914 -0.001896 0.002528 0.000000 0.000000 0.000000
# 2 -0.001896 0.012914 0.002528 0.000000 0.000000 0.000000
# 3 0.002528 0.002528 0.024497 0.000000 0.000000 0.000000
# 4 0.000000 0.000000 0.000000 0.061916 0.000000 0.000000
# 5 0.000000 0.000000 0.000000 0.000000 0.061916 0.000000
# 6 0.000000 0.000000 0.000000 0.000000 0.000000 0.153273
#
#
# Mechanical properties :
#
#
# Convention : Reuss Voigt Hill
#
# Bulk Modulus (GPa) = 17.65445 21.56369 19.60907
# Shear Modulus (GPa) = 14.70615 21.86021 18.28318
#
# Velocity S-wave (km/s) = 2.59123 3.15925 2.88923
# Velocity P-wave (km/s) = 4.12471 4.81178 4.48143
#
# Compressibility (1/GPa) = 0.05664294
#
# Stress axis : x y z
#
# Youngs Moduli (GPa) = 77.43357 77.43357 40.82160
#
# Poissons Ratio (x) = 0.14685 -0.10318
# Poissons Ratio (y) = 0.14685 -0.10318
# Poissons Ratio (z) = -0.19572 -0.19572
#
# Static dielectric constant tensor:
#      x y z
#    x 1.848420 0.000000 0.000000 
#    y 0.000000 1.848420 0.000000 
#    z 0.000000 0.000000 1.834460 
# 
# From -- ./inp_files/10394.got.cif
#   From: 2010.05.17/outbox.cif.g08.bks.cpg/sg142_6_cif.got.tgz:10394.got - 2010.05.20 13:39:18.
