data_PCOD9573675
_publ_section_title
;
Structure prediction by ZEFSAII (Michael W. Deem and Ramdas Pophale) SiO2 
 PCOD9573675
Probable space group: I 41/A C D
;
_chemical_formula_sum "Si O2"
_cell_formula_units_Z 136
_cell_length_a 18.471880
_cell_length_b 18.471880
_cell_length_c 16.187272
_cell_angle_alpha 90.000000
_cell_angle_beta 90.000000
_cell_angle_gamma 90.000000
_cell_volume 5523.264757
_symmetry_space_group_name_H-M "I 41/A C D"
_symmetry_group_IT_number 142
_space_group.IT_coordinate_system_code '2'
_symmetry_cell_setting 'tetragonal'
loop_
_space_group_symop_operation_xyz
x,y,z
1/4-y,3/4+x,1/4+z
-x,1/2-y,z
1/4+y,1/4-x,3/4+z
x,-y,1/2-z
1/2-x,y,-z
3/4+y,1/4+x,1/4-z
1/4-y,1/4-x,1/4-z
-x,-y,-z
3/4+y,1/4-x,3/4-z
x,1/2+y,-z
3/4-y,3/4+x,1/4-z
-x,y,1/2+z
1/2+x,-y,z
1/4-y,3/4-x,3/4+z
3/4+y,3/4+x,3/4+z
1/2+x,1/2+y,1/2+z
3/4-y,1/4+x,3/4+z
1/2-x,-y,1/2+z
3/4+y,3/4-x,1/4+z
1/2+x,1/2-y,-z
-x,1/2+y,1/2-z
1/4+y,3/4+x,3/4-z
3/4-y,3/4-x,3/4-z
1/2-x,1/2-y,1/2-z
1/4+y,3/4-x,1/4-z
1/2+x,y,1/2-z
1/4-y,1/4+x,3/4-z
1/2-x,1/2+y,z
x,1/2-y,1/2+z
3/4-y,1/4-x,1/4+z
1/4+y,1/4+x,1/4+z
loop_
_atom_site_type_symbol
_atom_site_label
_atom_site_fract_x
_atom_site_fract_y
_atom_site_fract_z
Si Si1 0.021280 0.058290 0.183588
Si Si2 0.056580 0.187479 0.731783
Si Si3 0.500000 0.750000 0.375000
Si Si4 0.086746 0.040548 0.452205
Si Si5 0.166265 0.921569 0.215350
O O1 0.037894 0.012593 0.102892
O O2 0.095329 0.092877 0.224861
O O3 0.962364 0.120123 0.175756
O O4 0.995531 0.000000 0.250000
O O5 0.139812 0.198141 0.754206
O O6 0.000000 0.250000 0.706768
O O7 0.021503 0.179003 0.823968
O O8 0.122283 0.985166 0.517099
O O9 0.141462 0.070840 0.379905
O O10 0.188376 0.000000 0.250000
#
# Coordination Sequence:
#
# PCOD9573675 Si02
#       5
#    32  32   8  32  32
#     4   9  18  36  59  94 130 177 231 289 361 421
#     4  10  21  36  66  95 131 181 238 287 355 440
#     4   8  16  32  56  84 122 168 228 256 348 414
#     4  10  20  38  69  99 134 190 232 296 359 436
#     4   9  18  36  62  96 134 177 227 285 362 418
#
# _framework density 24.623118000000002
#
# number of rings (size 3 to 8) (size 9 to 14) (size 15 to 20)
#    0.706    2.353    0.000    5.647    0.000    0.941 
#    0.000    1.176   20.706    4.235    0.000    0.000 
#    0.000    0.000    0.000    0.000    0.000    0.000 
#
# Total GULP energy -379040.760454 kJ/mol
# GULP energy per Si atom -5574.128830 kJ/mol
# Density = 2.456707 g / cm^3
# Si number density = 24.623118 Si / 1000 Ang^3
#
#
#
# Elastic Constant Matrix: (Units=GPa)
#
#
# Indices 1 2 3 4 5 6 
#
# 1 119.7900 88.1830 55.5845 0.0000 0.0000 0.0000
# 2 88.1830 119.7900 55.5845 0.0000 0.0000 0.0000
# 3 55.5845 55.5845 118.4658 0.0000 0.0000 0.0000
# 4 0.0000 0.0000 0.0000 27.6218 0.0000 0.0000
# 5 0.0000 0.0000 0.0000 0.0000 27.6218 0.0000
# 6 0.0000 0.0000 0.0000 0.0000 0.0000 43.7597
#
#
#
# Elastic Compliance Matrix: (Units=1/GPa)
#
#
# Indices 1 2 3 4 5 6 
#
# 1 0.019028 -0.012610 -0.003011 0.000000 0.000000 0.000000
# 2 -0.012610 0.019028 -0.003011 0.000000 0.000000 0.000000
# 3 -0.003011 -0.003011 0.011267 0.000000 0.000000 0.000000
# 4 0.000000 0.000000 0.000000 0.036203 0.000000 0.000000
# 5 0.000000 0.000000 0.000000 0.000000 0.036203 0.000000
# 6 0.000000 0.000000 0.000000 0.000000 0.000000 0.022852
#
#
# Mechanical properties :
#
#
# Convention : Reuss Voigt Hill
#
# Bulk Modulus (GPa) = 82.93435 84.08332 83.50884
# Shear Modulus (GPa) = 26.90091 30.38027 28.64059
#
# Velocity S-wave (km/s) = 3.30889 3.51637 3.41421
# Velocity P-wave (km/s) = 6.95363 7.12101 7.03782
#
# Compressibility (1/GPa) = 0.01205773
#
# Stress axis : x y z
#
# Youngs Moduli (GPa) = 52.55341 52.55341 88.75398
#
# Poissons Ratio (x) = 0.66271 0.26727
# Poissons Ratio (y) = 0.66271 0.26727
# Poissons Ratio (z) = 0.15826 0.15826
#
# Static dielectric constant tensor:
#      x y z
#    x 1.957440 0.000000 0.000000 
#    y 0.000000 1.957440 0.000000 
#    z 0.000000 0.000000 2.120380 
# 
# From -- ./inp_files/8787.got.cif
#   From: 2010.05.17/outbox.cif.g08.bks.cpg/sg142_5_cif.got.tgz:8787.got - 2010.05.20 13:39:18.
