data_PCOD9573383
_publ_section_title
;
Structure prediction by ZEFSAII (Michael W. Deem and Ramdas Pophale) SiO2 
 PCOD9573383
Probable space group: I 41/A M D
;
_chemical_formula_sum "Si O2"
_cell_formula_units_Z 80
_cell_length_a 21.000000
_cell_length_b 21.000000
_cell_length_c 18.000000
_cell_angle_alpha 90.000000
_cell_angle_beta 90.000000
_cell_angle_gamma 90.000000
_cell_volume 7938.000000
_symmetry_space_group_name_H-M "I 41/A M D"
_symmetry_group_IT_number 141
_space_group.IT_coordinate_system_code '2'
_symmetry_cell_setting 'tetragonal'
loop_
_space_group_symop_operation_xyz
x,y,z
1/4-y,3/4+x,1/4+z
-x,1/2-y,z
1/4+y,1/4-x,3/4+z
x,-y,-z
-x,1/2+y,-z
1/4+y,3/4+x,1/4-z
1/4-y,1/4-x,3/4-z
-x,-y,-z
3/4+y,1/4-x,3/4-z
x,1/2+y,-z
3/4-y,3/4+x,1/4-z
-x,y,z
x,1/2-y,z
3/4-y,1/4-x,3/4+z
3/4+y,3/4+x,1/4+z
1/2+x,1/2+y,1/2+z
3/4-y,1/4+x,3/4+z
1/2-x,-y,1/2+z
3/4+y,3/4-x,1/4+z
1/2+x,1/2-y,1/2-z
1/2-x,y,1/2-z
3/4+y,1/4+x,3/4-z
3/4-y,3/4-x,1/4-z
1/2-x,1/2-y,1/2-z
1/4+y,3/4-x,1/4-z
1/2+x,y,1/2-z
1/4-y,1/4+x,3/4-z
1/2-x,1/2+y,1/2+z
1/2+x,-y,1/2+z
1/4-y,3/4-x,1/4+z
1/4+y,1/4+x,3/4+z
loop_
_atom_site_type_symbol
_atom_site_label
_atom_site_fract_x
_atom_site_fract_y
_atom_site_fract_z
Si Si1 0.924320 0.421921 0.719013
Si Si2 0.694892 0.364219 0.302025
Si Si3 0.340693 0.997001 0.669090
Si Si4 0.576274 0.822121 0.962369
Si Si5 0.815873 0.676763 0.297085
O O1 0.918268 0.440858 0.632470
O O2 0.883544 0.472693 0.766446
O O3 0.880105 0.358660 0.730462
O O4 0.000000 0.416633 0.738507
O O5 0.750000 0.336459 0.250000
O O6 0.706789 0.439956 0.310472
O O7 0.627213 0.355983 0.261395
O O8 0.301872 0.051872 0.625000
O O9 0.389414 0.957912 0.618425
O O10 0.500000 0.822411 0.974585
O O11 0.599322 0.750000 0.978206
O O12 0.585892 0.835892 0.875000
O O13 0.830889 0.750000 0.309853
O O14 0.750000 0.673638 0.250000
#
# Coordination Sequence:
#
# PCOD9573383 Si02
#       5
#    32  32  32  32  32
#     4  11  25  43  66  98 132 172 217 274 336 397
#     4  11  27  39  65  97 133 172 220 277 332 380
#     4  11  24  42  66  91 133 173 221 268 328 403
#     4   9  20  41  66  92 129 176 216 257 319 392
#     4  10  21  41  68  95 125 169 216 268 330 396
#
# _framework density 10.078105000000001
#
# number of rings (size 3 to 8) (size 9 to 14) (size 15 to 20)
#    0.000    1.600    2.000    1.800    8.400    6.000 
#    0.000    0.000    0.000    0.000    0.000    0.000 
#    0.000    0.000    0.000    0.000    0.000    0.000 
#
# Total GULP energy -446126.674919 kJ/mol
# GULP energy per Si atom -5576.583436 kJ/mol
# Density = 1.005517 g / cm^3
# Si number density = 10.078105 Si / 1000 Ang^3
#
#
#
# Elastic Constant Matrix: (Units=GPa)
#
#
# Indices 1 2 3 4 5 6 
#
# 1 64.9766 2.5566 21.0320 0.0000 0.0000 0.0000
# 2 2.5566 64.9766 21.0320 0.0000 0.0000 0.0000
# 3 21.0320 21.0320 45.8562 0.0000 0.0000 0.0000
# 4 0.0000 0.0000 0.0000 25.7434 0.0000 0.0000
# 5 0.0000 0.0000 0.0000 0.0000 25.7434 0.0000
# 6 0.0000 0.0000 0.0000 0.0000 0.0000 23.4783
#
#
#
# Elastic Compliance Matrix: (Units=1/GPa)
#
#
# Indices 1 2 3 4 5 6 
#
# 1 0.018375 0.002354 -0.009508 0.000000 0.000000 0.000000
# 2 0.002354 0.018375 -0.009508 0.000000 0.000000 0.000000
# 3 -0.009508 -0.009508 0.030529 0.000000 0.000000 0.000000
# 4 0.000000 0.000000 0.000000 0.038845 0.000000 0.000000
# 5 0.000000 0.000000 0.000000 0.000000 0.038845 0.000000
# 6 0.000000 0.000000 0.000000 0.000000 0.000000 0.042593
#
#
# Mechanical properties :
#
#
# Convention : Reuss Voigt Hill
#
# Bulk Modulus (GPa) = 29.44881 29.45005 29.44943
# Shear Modulus (GPa) = 21.53304 23.73894 22.63599
#
# Velocity S-wave (km/s) = 3.27204 3.43556 3.35480
# Velocity P-wave (km/s) = 5.37746 5.51181 5.44505
#
# Compressibility (1/GPa) = 0.03395722
#
# Stress axis : x y z
#
# Youngs Moduli (GPa) = 54.42184 54.42184 32.75618
#
# Poissons Ratio (x) = -0.12813 0.31143
# Poissons Ratio (y) = -0.12813 0.31143
# Poissons Ratio (z) = 0.51742 0.51742
#
# Static dielectric constant tensor:
#      x y z
#    x 1.731860 0.000000 0.000000 
#    y 0.000000 1.731860 0.000000 
#    z 0.000000 0.000000 1.799750 
# 
# From -- ./inp_files/8599.got.cif
#   From: 2010.05.17/outbox.ucp.g08.bks.cvg/sg141_5_cif.got.tgz:8599.got - 2010.06.11 11:43:24.
