data_PCOD9573263
_publ_section_title
;
Structure prediction by ZEFSAII (Michael W. Deem and Ramdas Pophale) SiO2 
 PCOD9573263
Probable space group: I 41/A M D
;
_chemical_formula_sum "Si O2"
_cell_formula_units_Z 160
_cell_length_a 19.100614
_cell_length_b 19.100614
_cell_length_c 31.869833
_cell_angle_alpha 90.000000
_cell_angle_beta 90.000000
_cell_angle_gamma 90.000000
_cell_volume 11627.181289
_symmetry_space_group_name_H-M "I 41/A M D"
_symmetry_group_IT_number 141
_space_group.IT_coordinate_system_code '2'
_symmetry_cell_setting 'tetragonal'
loop_
_space_group_symop_operation_xyz
x,y,z
1/4-y,3/4+x,1/4+z
-x,1/2-y,z
1/4+y,1/4-x,3/4+z
x,-y,-z
-x,1/2+y,-z
1/4+y,3/4+x,1/4-z
1/4-y,1/4-x,3/4-z
-x,-y,-z
3/4+y,1/4-x,3/4-z
x,1/2+y,-z
3/4-y,3/4+x,1/4-z
-x,y,z
x,1/2-y,z
3/4-y,1/4-x,3/4+z
3/4+y,3/4+x,1/4+z
1/2+x,1/2+y,1/2+z
3/4-y,1/4+x,3/4+z
1/2-x,-y,1/2+z
3/4+y,3/4-x,1/4+z
1/2+x,1/2-y,1/2-z
1/2-x,y,1/2-z
3/4+y,1/4+x,3/4-z
3/4-y,3/4-x,1/4-z
1/2-x,1/2-y,1/2-z
1/4+y,3/4-x,1/4-z
1/2+x,y,1/2-z
1/4-y,1/4+x,3/4-z
1/2-x,1/2+y,1/2+z
1/2+x,-y,1/2+z
1/4-y,3/4-x,1/4+z
1/4+y,1/4+x,3/4+z
loop_
_atom_site_type_symbol
_atom_site_label
_atom_site_fract_x
_atom_site_fract_y
_atom_site_fract_z
Si Si1 0.081921 0.032540 0.680430
Si Si2 0.419790 0.071134 0.101687
Si Si3 0.415033 0.328535 0.862390
Si Si4 0.323053 0.073506 0.228797
Si Si5 0.583170 0.167095 0.290237
O O1 0.106743 0.110528 0.669092
O O2 0.000000 0.032987 0.693628
O O3 0.084259 0.989762 0.636455
O O4 0.130521 0.991426 0.712804
O O5 0.389831 0.139831 0.125000
O O6 0.500000 0.079810 0.088736
O O7 0.371208 0.056900 0.061954
O O8 0.500000 0.328299 0.861736
O O9 0.391128 0.250000 0.851955
O O10 0.396942 0.343896 0.910936
O O11 0.250000 0.053211 0.250000
O O12 0.369569 0.120623 0.260100
O O13 0.500000 0.158871 0.281152
O O14 0.599597 0.250000 0.285780
#
# Coordination Sequence:
#
# PCOD9573263 Si02
#       5
#    32  32  32  32  32
#     4   9  17  30  43  55  76 102 130 163 196 233
#     4   9  18  29  39  53  75 107 142 170 194 221
#     4   8  14  26  45  63  74  91 125 166 200 229
#     4  11  20  27  38  57  82 110 135 159 193 235
#     4   9  17  28  41  58  79 102 132 169 201 224
#
# _framework density 13.760859
#
# number of rings (size 3 to 8) (size 9 to 14) (size 15 to 20)
#    0.000    2.800    0.000    3.600    0.000    4.200 
#    0.000    0.000    0.000    0.600    0.000    0.000 
#    0.000    0.000    0.000    0.000    0.000    0.400 
#
# Total GULP energy -445690.123106 kJ/mol
# GULP energy per Si atom -5571.126539 kJ/mol
# Density = 1.372954 g / cm^3
# Si number density = 13.760859 Si / 1000 Ang^3
#
#
#
# Elastic Constant Matrix: (Units=GPa)
#
#
# Indices 1 2 3 4 5 6 
#
# 1 73.5699 50.6550 46.6816 0.0000 0.0000 0.0000
# 2 50.6550 73.5699 46.6816 0.0000 0.0000 0.0000
# 3 46.6816 46.6816 57.5505 0.0000 0.0000 0.0000
# 4 0.0000 0.0000 0.0000 13.3901 0.0000 0.0000
# 5 0.0000 0.0000 0.0000 0.0000 13.3901 0.0000
# 6 0.0000 0.0000 0.0000 0.0000 0.0000 10.0002
#
#
#
# Elastic Compliance Matrix: (Units=1/GPa)
#
#
# Indices 1 2 3 4 5 6 
#
# 1 0.032130 -0.011509 -0.016727 0.000000 0.000000 0.000000
# 2 -0.011509 0.032130 -0.016727 0.000000 0.000000 0.000000
# 3 -0.016727 -0.016727 0.044511 0.000000 0.000000 0.000000
# 4 0.000000 0.000000 0.000000 0.074682 0.000000 0.000000
# 5 0.000000 0.000000 0.000000 0.000000 0.074682 0.000000
# 6 0.000000 0.000000 0.000000 0.000000 0.000000 0.099998
#
#
# Mechanical properties :
#
#
# Convention : Reuss Voigt Hill
#
# Bulk Modulus (GPa) = 53.05872 54.74743 53.90308
# Shear Modulus (GPa) = 11.00495 11.40090 11.20292
#
# Velocity S-wave (km/s) = 2.83101 2.88149 2.85637
# Velocity P-wave (km/s) = 7.02336 7.13736 7.08059
#
# Compressibility (1/GPa) = 0.01884704
#
# Stress axis : x y z
#
# Youngs Moduli (GPa) = 31.12319 31.12319 22.46623
#
# Poissons Ratio (x) = 0.35821 0.37578
# Poissons Ratio (y) = 0.35821 0.37578
# Poissons Ratio (z) = 0.52058 0.52058
#
# Static dielectric constant tensor:
#      x y z
#    x 1.453140 0.000000 0.000000 
#    y 0.000000 1.453140 0.000000 
#    z 0.000000 0.000000 1.441810 
# 
# From -- ./inp_files/12713.got.cif
#   From: 2010.05.17/outbox.cif.g08.bks.cpg/sg141_7_cif.got.tgz:12713.got - 2010.05.20 13:30:51.
