data_PCOD9573644
_publ_section_title
;
Structure prediction by ZEFSAII (Michael W. Deem and Ramdas Pophale) SiO2 
 PCOD9573644
Probable space group: I 41/A C D
;
_chemical_formula_sum "Si O2"
_cell_formula_units_Z 144
_cell_length_a 28.980849
_cell_length_b 28.980849
_cell_length_c 9.562861
_cell_angle_alpha 90.000000
_cell_angle_beta 90.000000
_cell_angle_gamma 90.000000
_cell_volume 8031.747584
_symmetry_space_group_name_H-M "I 41/A C D"
_symmetry_group_IT_number 142
_space_group.IT_coordinate_system_code '2'
_symmetry_cell_setting 'tetragonal'
loop_
_space_group_symop_operation_xyz
x,y,z
1/4-y,3/4+x,1/4+z
-x,1/2-y,z
1/4+y,1/4-x,3/4+z
x,-y,1/2-z
1/2-x,y,-z
3/4+y,1/4+x,1/4-z
1/4-y,1/4-x,1/4-z
-x,-y,-z
3/4+y,1/4-x,3/4-z
x,1/2+y,-z
3/4-y,3/4+x,1/4-z
-x,y,1/2+z
1/2+x,-y,z
1/4-y,3/4-x,3/4+z
3/4+y,3/4+x,3/4+z
1/2+x,1/2+y,1/2+z
3/4-y,1/4+x,3/4+z
1/2-x,-y,1/2+z
3/4+y,3/4-x,1/4+z
1/2+x,1/2-y,-z
-x,1/2+y,1/2-z
1/4+y,3/4+x,3/4-z
3/4-y,3/4-x,3/4-z
1/2-x,1/2-y,1/2-z
1/4+y,3/4-x,1/4-z
1/2+x,y,1/2-z
1/4-y,1/4+x,3/4-z
1/2-x,1/2+y,z
x,1/2-y,1/2+z
3/4-y,1/4-x,1/4+z
1/4+y,1/4+x,1/4+z
loop_
_atom_site_type_symbol
_atom_site_label
_atom_site_fract_x
_atom_site_fract_y
_atom_site_fract_z
Si Si1 0.200745 0.000000 0.250000
Si Si2 0.798219 0.724204 0.426114
Si Si3 0.361523 0.737679 0.339552
Si Si4 0.086524 0.349944 0.960959
Si Si5 0.374219 0.576122 0.254828
O O1 0.166885 0.041662 0.292599
O O2 0.231871 0.981871 0.375000
O O3 0.750000 0.739897 0.500000
O O4 0.837770 0.748362 0.516086
O O5 0.818287 0.731996 0.269168
O O6 0.799953 0.669421 0.450335
O O7 0.393158 0.781349 0.298624
O O8 0.392753 0.693019 0.372320
O O9 0.109769 0.393966 0.886449
O O10 0.097699 0.347699 0.125000
O O11 0.357250 0.607250 0.125000
#
# Coordination Sequence:
#
# PCOD9573644 Si02
#       5
#    16  32  32  32  32
#     4  10  22  40  62  92 120 160 210 258 308 384
#     4  11  21  38  61  90 122 156 206 257 309 373
#     4  11  23  39  62  90 125 163 209 258 312 383
#     4  11  23  41  61  91 128 164 208 260 319 379
#     4  10  20  37  64  84 119 164 199 249 315 375
#
# _framework density 17.928850000000001
#
# number of rings (size 3 to 8) (size 9 to 14) (size 15 to 20)
#    0.000    1.333    5.556    0.667    0.000    1.333 
#    0.000    1.111    2.444    0.000    0.000    0.000 
#    0.000    0.000    0.000    0.000    0.000    0.000 
#
# Total GULP energy -400924.098635 kJ/mol
# GULP energy per Si atom -5568.390259 kJ/mol
# Density = 1.788804 g / cm^3
# Si number density = 17.928850 Si / 1000 Ang^3
#
#
#
# Elastic Constant Matrix: (Units=GPa)
#
#
# Indices 1 2 3 4 5 6 
#
# 1 42.6553 29.4799 27.3924 0.0000 0.0000 0.0000
# 2 29.4799 42.6553 27.3924 0.0000 0.0000 0.0000
# 3 27.3924 27.3924 101.8982 0.0000 0.0000 0.0000
# 4 0.0000 0.0000 0.0000 12.6305 0.0000 0.0000
# 5 0.0000 0.0000 0.0000 0.0000 12.6305 0.0000
# 6 0.0000 0.0000 0.0000 0.0000 0.0000 25.7703
#
#
#
# Elastic Compliance Matrix: (Units=1/GPa)
#
#
# Indices 1 2 3 4 5 6 
#
# 1 0.046659 -0.029240 -0.004683 0.000000 0.000000 0.000000
# 2 -0.029240 0.046659 -0.004683 0.000000 0.000000 0.000000
# 3 -0.004683 -0.004683 0.012331 0.000000 0.000000 0.000000
# 4 0.000000 0.000000 0.000000 0.079173 0.000000 0.000000
# 5 0.000000 0.000000 0.000000 0.000000 0.079173 0.000000
# 6 0.000000 0.000000 0.000000 0.000000 0.000000 0.038804
#
#
# Mechanical properties :
#
#
# Convention : Reuss Voigt Hill
#
# Bulk Modulus (GPa) = 35.16285 39.52647 37.34466
# Shear Modulus (GPa) = 12.83730 17.06923 14.95327
#
# Velocity S-wave (km/s) = 2.67875 3.08888 2.89110
# Velocity P-wave (km/s) = 5.40579 5.90049 5.65855
#
# Compressibility (1/GPa) = 0.02843911
#
# Stress axis : x y z
#
# Youngs Moduli (GPa) = 21.43209 21.43209 81.09448
#
# Poissons Ratio (x) = 0.62667 0.37974
# Poissons Ratio (y) = 0.62667 0.37974
# Poissons Ratio (z) = 0.10036 0.10036
#
# Static dielectric constant tensor:
#      x y z
#    x 1.630560 0.000000 0.000000 
#    y 0.000000 1.630560 0.000000 
#    z 0.000000 0.000000 1.616550 
# 
# From -- ./inp_files/2104.got.cif
#   From: 2010.05.17/outbox.cif.g08.bks.cpg/sg142_2_cif.got.tgz:2104.got - 2010.05.20 13:39:18.
