data_PCOD9573672
_publ_section_title
;
Structure prediction by ZEFSAII (Michael W. Deem and Ramdas Pophale) SiO2 
 PCOD9573672
Probable space group: I 41/A C D
;
_chemical_formula_sum "Si O2"
_cell_formula_units_Z 112
_cell_length_a 19.430053
_cell_length_b 19.430053
_cell_length_c 11.942108
_cell_angle_alpha 90.000000
_cell_angle_beta 90.000000
_cell_angle_gamma 90.000000
_cell_volume 4508.467724
_symmetry_space_group_name_H-M "I 41/A C D"
_symmetry_group_IT_number 142
_space_group.IT_coordinate_system_code '2'
_symmetry_cell_setting 'tetragonal'
loop_
_space_group_symop_operation_xyz
x,y,z
1/4-y,3/4+x,1/4+z
-x,1/2-y,z
1/4+y,1/4-x,3/4+z
x,-y,1/2-z
1/2-x,y,-z
3/4+y,1/4+x,1/4-z
1/4-y,1/4-x,1/4-z
-x,-y,-z
3/4+y,1/4-x,3/4-z
x,1/2+y,-z
3/4-y,3/4+x,1/4-z
-x,y,1/2+z
1/2+x,-y,z
1/4-y,3/4-x,3/4+z
3/4+y,3/4+x,3/4+z
1/2+x,1/2+y,1/2+z
3/4-y,1/4+x,3/4+z
1/2-x,-y,1/2+z
3/4+y,3/4-x,1/4+z
1/2+x,1/2-y,-z
-x,1/2+y,1/2-z
1/4+y,3/4+x,3/4-z
3/4-y,3/4-x,3/4-z
1/2-x,1/2-y,1/2-z
1/4+y,3/4-x,1/4-z
1/2+x,y,1/2-z
1/4-y,1/4+x,3/4-z
1/2-x,1/2+y,z
x,1/2-y,1/2+z
3/4-y,1/4-x,1/4+z
1/4+y,1/4+x,1/4+z
loop_
_atom_site_type_symbol
_atom_site_label
_atom_site_fract_x
_atom_site_fract_y
_atom_site_fract_z
Si Si1 0.936919 0.186919 0.625000
Si Si2 0.328939 0.123764 0.035616
Si Si3 0.915593 0.482965 0.876760
Si Si4 0.532785 0.393900 0.517742
O O1 0.924545 0.120837 0.704444
O O2 0.923281 0.251443 0.707673
O O3 0.355620 0.044915 0.040279
O O4 0.353164 0.149420 0.157773
O O5 0.250000 0.127810 0.000000
O O6 0.895289 0.500000 0.750000
O O7 0.950576 0.552255 0.920978
O O8 0.974924 0.426062 0.900323
#
# Coordination Sequence:
#
# PCOD9573672 Si02
#       4
#    16  32  32  32
#     4  10  22  40  68  95 122 166 220 279 336 392
#     4  11  21  37  62  96 134 173 221 272 332 403
#     4  10  21  38  62  90 128 175 217 266 330 395
#     4  10  20  38  65  91 123 168 220 274 329 392
#
# _framework density 24.842141000000002
#
# number of rings (size 3 to 8) (size 9 to 14) (size 15 to 20)
#    0.000    1.714    0.000    7.714    0.000    1.143 
#    0.000   11.429    0.000   58.286    0.000    0.000 
#    0.000    0.000    0.000    0.000    0.000    0.000 
#
# Total GULP energy -312514.379690 kJ/mol
# GULP energy per Si atom -5580.613923 kJ/mol
# Density = 2.478560 g / cm^3
# Si number density = 24.842141 Si / 1000 Ang^3
#
#
#
# Elastic Constant Matrix: (Units=GPa)
#
#
# Indices 1 2 3 4 5 6 
#
# 1 88.6265 41.8151 26.7472 0.0000 0.0000 0.0000
# 2 41.8151 88.6265 26.7472 0.0000 0.0000 0.0000
# 3 26.7472 26.7472 98.3687 0.0000 0.0000 0.0000
# 4 0.0000 0.0000 0.0000 26.3681 0.0000 0.0000
# 5 0.0000 0.0000 0.0000 0.0000 26.3681 0.0000
# 6 0.0000 0.0000 0.0000 0.0000 0.0000 34.8891
#
#
#
# Elastic Compliance Matrix: (Units=1/GPa)
#
#
# Indices 1 2 3 4 5 6 
#
# 1 0.014995 -0.006367 -0.002346 0.000000 0.000000 0.000000
# 2 -0.006367 0.014995 -0.002346 0.000000 0.000000 0.000000
# 3 -0.002346 -0.002346 0.011442 0.000000 0.000000 0.000000
# 4 0.000000 0.000000 0.000000 0.037925 0.000000 0.000000
# 5 0.000000 0.000000 0.000000 0.000000 0.037925 0.000000
# 6 0.000000 0.000000 0.000000 0.000000 0.000000 0.028662
#
#
# Mechanical properties :
#
#
# Convention : Reuss Voigt Hill
#
# Bulk Modulus (GPa) = 51.77591 51.80453 51.79022
# Shear Modulus (GPa) = 28.65324 29.54587 29.09956
#
# Velocity S-wave (km/s) = 3.39988 3.45243 3.42625
# Velocity P-wave (km/s) = 6.02490 6.06557 6.04527
#
# Compressibility (1/GPa) = 0.01931400
#
# Stress axis : x y z
#
# Youngs Moduli (GPa) = 66.68721 66.68721 87.39954
#
# Poissons Ratio (x) = 0.42459 0.20505
# Poissons Ratio (y) = 0.42459 0.20505
# Poissons Ratio (z) = 0.15646 0.15646
#
# Static dielectric constant tensor:
#      x y z
#    x 2.023030 0.000000 0.000000 
#    y 0.000000 2.023030 0.000000 
#    z 0.000000 0.000000 1.999760 
# 
# From -- ./inp_files/3392.got.cif
#   From: 2010.05.17/outbox.cif.g08.bks.cpg/sg142_2_cif.got.tgz:3392.got - 2010.05.20 13:39:18.
