data_PCOD9573303
_publ_section_title
;
Structure prediction by ZEFSAII (Michael W. Deem and Ramdas Pophale) SiO2 
 PCOD9573303
Probable space group: I 41/A M D
;
_chemical_formula_sum "Si O2"
_cell_formula_units_Z 160
_cell_length_a 30.899031
_cell_length_b 30.899031
_cell_length_c 9.174108
_cell_angle_alpha 90.000000
_cell_angle_beta 90.000000
_cell_angle_gamma 90.000000
_cell_volume 8758.980684
_symmetry_space_group_name_H-M "I 41/A M D"
_symmetry_group_IT_number 141
_space_group.IT_coordinate_system_code '2'
_symmetry_cell_setting 'tetragonal'
loop_
_space_group_symop_operation_xyz
x,y,z
1/4-y,3/4+x,1/4+z
-x,1/2-y,z
1/4+y,1/4-x,3/4+z
x,-y,-z
-x,1/2+y,-z
1/4+y,3/4+x,1/4-z
1/4-y,1/4-x,3/4-z
-x,-y,-z
3/4+y,1/4-x,3/4-z
x,1/2+y,-z
3/4-y,3/4+x,1/4-z
-x,y,z
x,1/2-y,z
3/4-y,1/4-x,3/4+z
3/4+y,3/4+x,1/4+z
1/2+x,1/2+y,1/2+z
3/4-y,1/4+x,3/4+z
1/2-x,-y,1/2+z
3/4+y,3/4-x,1/4+z
1/2+x,1/2-y,1/2-z
1/2-x,y,1/2-z
3/4+y,1/4+x,3/4-z
3/4-y,3/4-x,1/4-z
1/2-x,1/2-y,1/2-z
1/4+y,3/4-x,1/4-z
1/2+x,y,1/2-z
1/4-y,1/4+x,3/4-z
1/2-x,1/2+y,1/2+z
1/2+x,-y,1/2+z
1/4-y,3/4-x,1/4+z
1/4+y,1/4+x,3/4+z
loop_
_atom_site_type_symbol
_atom_site_label
_atom_site_fract_x
_atom_site_fract_y
_atom_site_fract_z
Si Si1 0.448648 0.801353 0.875000
Si Si2 0.599005 0.461361 0.802377
Si Si3 0.806500 0.120911 0.378512
Si Si4 0.000000 0.026433 0.775601
Si Si5 0.374743 0.668606 0.085254
Si Si6 0.500000 0.565974 0.598588
Si Si7 0.134039 0.384039 0.875000
O O1 0.500000 0.808401 0.897366
O O2 0.432473 0.830623 0.740372
O O3 0.616678 0.510598 0.800626
O O4 0.546527 0.460695 0.791870
O O5 0.621550 0.432899 0.674886
O O6 0.611962 0.444417 0.962838
O O7 0.820427 0.070427 0.375000
O O8 0.844027 0.143117 0.472916
O O9 0.000000 0.974473 0.791374
O O10 0.000000 0.046411 0.937224
O O11 0.346235 0.709529 0.127068
O O12 0.380462 0.642105 0.232836
#
# Coordination Sequence:
#
# PCOD9573303 Si02
#       7
#    16  32  32  16  32  16  16
#     4  11  24  42  64  90 125 174 221 260 310 387
#     4  11  24  40  67  93 131 163 213 266 318 389
#     4  11  23  42  64  91 126 166 206 261 323 379
#     4  11  22  38  63 106 126 159 215 271 329 388
#     4  12  22  43  64  92 128 170 209 265 328 381
#     4  11  22  37  65  97 131 160 209 274 330 375
#     4  12  24  42  64  93 125 178 207 256 334 385
#
# _framework density 18.266966
#
# number of rings (size 3 to 8) (size 9 to 14) (size 15 to 20)
#    0.000    0.700    8.000    0.000    0.000    3.200 
#    7.200    0.000    8.800    1.200    0.000    0.000 
#    0.000    0.000    0.000    0.000    0.000    0.000 
#
# Total GULP energy -446318.931874 kJ/mol
# GULP energy per Si atom -5578.986648 kJ/mol
# Density = 1.822539 g / cm^3
# Si number density = 18.266966 Si / 1000 Ang^3
#
#
#
# Elastic Constant Matrix: (Units=GPa)
#
#
# Indices 1 2 3 4 5 6 
#
# 1 117.9833 76.3941 57.5669 0.0000 0.0000 0.0000
# 2 76.3941 117.9809 57.5668 0.0000 0.0000 0.0000
# 3 57.5669 57.5668 100.2826 0.0000 0.0000 0.0000
# 4 0.0000 0.0000 0.0000 31.9719 0.0000 0.0000
# 5 0.0000 0.0000 0.0000 0.0000 31.9709 0.0000
# 6 0.0000 0.0000 0.0000 0.0000 0.0000 18.9039
#
#
#
# Elastic Compliance Matrix: (Units=1/GPa)
#
#
# Indices 1 2 3 4 5 6 
#
# 1 0.015920 -0.008125 -0.004475 0.000000 0.000000 0.000000
# 2 -0.008125 0.015921 -0.004475 0.000000 0.000000 0.000000
# 3 -0.004475 -0.004475 0.015109 0.000000 0.000000 0.000000
# 4 0.000000 0.000000 0.000000 0.031277 0.000000 0.000000
# 5 0.000000 0.000000 0.000000 0.000000 0.031278 0.000000
# 6 0.000000 0.000000 0.000000 0.000000 0.000000 0.052899
#
#
# Mechanical properties :
#
#
# Convention : Reuss Voigt Hill
#
# Bulk Modulus (GPa) = 78.12203 79.92250 79.02226
# Shear Modulus (GPa) = 24.89777 26.21727 25.55752
#
# Velocity S-wave (km/s) = 3.69588 3.79255 3.74453
# Velocity P-wave (km/s) = 7.81488 7.93885 7.87711
#
# Compressibility (1/GPa) = 0.01280049
#
# Stress axis : x y z
#
# Youngs Moduli (GPa) = 62.81363 62.81199 66.18434
#
# Poissons Ratio (x) = 0.51036 0.29616
# Poissons Ratio (y) = 0.51037 0.29617
# Poissons Ratio (z) = 0.28107 0.28108
#
# Static dielectric constant tensor:
#      x y z
#    x 1.707580 0.000000 0.000000 
#    y 0.000000 1.707560 0.000000 
#    z 0.000000 0.000000 1.620480 
# 
# From -- ./inp_files/3337.got.cif
#   From: 2010.05.17/outbox.cif.g08.bks.cpg/sg141_2_cif.got.tgz:3337.got - 2010.05.20 13:30:51.
