data_PCOD9573905
_publ_section_title
;
Structure prediction by ZEFSAII (Michael W. Deem and Ramdas Pophale) SiO2 
 PCOD9573905
Probable space group: I 41/A C D
;
_chemical_formula_sum "Si O2"
_cell_formula_units_Z 192
_cell_length_a 19.300224
_cell_length_b 19.300224
_cell_length_c 21.896904
_cell_angle_alpha 90.000000
_cell_angle_beta 90.000000
_cell_angle_gamma 90.000000
_cell_volume 8156.567101
_symmetry_space_group_name_H-M "I 41/A C D"
_symmetry_group_IT_number 142
_space_group.IT_coordinate_system_code '2'
_symmetry_cell_setting 'tetragonal'
loop_
_space_group_symop_operation_xyz
x,y,z
1/4-y,3/4+x,1/4+z
-x,1/2-y,z
1/4+y,1/4-x,3/4+z
x,-y,1/2-z
1/2-x,y,-z
3/4+y,1/4+x,1/4-z
1/4-y,1/4-x,1/4-z
-x,-y,-z
3/4+y,1/4-x,3/4-z
x,1/2+y,-z
3/4-y,3/4+x,1/4-z
-x,y,1/2+z
1/2+x,-y,z
1/4-y,3/4-x,3/4+z
3/4+y,3/4+x,3/4+z
1/2+x,1/2+y,1/2+z
3/4-y,1/4+x,3/4+z
1/2-x,-y,1/2+z
3/4+y,3/4-x,1/4+z
1/2+x,1/2-y,-z
-x,1/2+y,1/2-z
1/4+y,3/4+x,3/4-z
3/4-y,3/4-x,3/4-z
1/2-x,1/2-y,1/2-z
1/4+y,3/4-x,1/4-z
1/2+x,y,1/2-z
1/4-y,1/4+x,3/4-z
1/2-x,1/2+y,z
x,1/2-y,1/2+z
3/4-y,1/4-x,1/4+z
1/4+y,1/4+x,1/4+z
loop_
_atom_site_type_symbol
_atom_site_label
_atom_site_fract_x
_atom_site_fract_y
_atom_site_fract_z
Si Si1 0.802335 0.131453 0.913322
Si Si2 0.382801 0.160766 0.058277
Si Si3 0.225409 0.975409 0.375000
Si Si4 0.985014 0.579970 0.483835
Si Si5 0.750000 0.614956 0.500000
Si Si6 0.945687 0.653688 0.737053
Si Si7 0.953287 0.408596 0.642261
O O1 0.871258 0.142493 0.871847
O O2 0.832785 0.152084 0.978312
O O3 0.738343 0.180931 0.899262
O O4 0.783344 0.052852 0.900826
O O5 0.413845 0.104631 0.011554
O O6 0.304483 0.164177 0.034717
O O7 0.413226 0.237693 0.055690
O O8 0.222290 0.929436 0.439313
O O9 0.038003 0.637105 0.511695
O O10 0.992129 0.590539 0.412183
O O11 0.000000 0.500000 0.500000
O O12 0.980659 0.638258 0.802519
O O13 0.882861 0.367140 0.625000
#
# Coordination Sequence:
#
# PCOD9573905 Si02
#       7
#    32  32  16  32  16  32  32
#     4  11  23  41  71  99 143 181 236 289 359 422
#     4  11  26  47  66 105 144 182 238 286 364 432
#     4  10  24  42  70 104 141 185 240 302 360 424
#     4  11  24  46  74 101 137 186 242 289 351 437
#     4  10  26  44  68 106 142 186 238 302 362 428
#     4  11  27  42  70 106 144 185 229 297 363 424
#     4  10  22  42  70 104 133 178 235 289 350 422
#
# _framework density 23.539314999999998
#
# number of rings (size 3 to 8) (size 9 to 14) (size 15 to 20)
#    0.000    1.333    2.500    1.000    9.333    2.000 
#    0.000    2.500    0.000    0.000    0.000    0.000 
#    0.000    0.000    0.000    0.000    0.000    0.000 
#
# Total GULP energy -535304.802019 kJ/mol
# GULP energy per Si atom -5576.091688 kJ/mol
# Density = 2.348574 g / cm^3
# Si number density = 23.539315 Si / 1000 Ang^3
#
#
#
# Elastic Constant Matrix: (Units=GPa)
#
#
# Indices 1 2 3 4 5 6 
#
# 1 81.8087 0.2594 5.5497 0.0000 0.0000 0.0000
# 2 0.2594 81.8093 5.5494 0.0000 0.0000 0.0000
# 3 5.5497 5.5494 57.2559 0.0000 0.0000 0.0000
# 4 0.0000 0.0000 0.0000 30.7287 0.0000 0.0000
# 5 0.0000 0.0000 0.0000 0.0000 30.7297 0.0000
# 6 0.0000 0.0000 0.0000 0.0000 0.0000 28.8947
#
#
#
# Elastic Compliance Matrix: (Units=1/GPa)
#
#
# Indices 1 2 3 4 5 6 
#
# 1 0.012305 0.000042 -0.001197 0.000000 0.000000 0.000000
# 2 0.000042 0.012305 -0.001197 0.000000 0.000000 0.000000
# 3 -0.001197 -0.001197 0.017697 0.000000 0.000000 0.000000
# 4 0.000000 0.000000 0.000000 0.032543 0.000000 0.000000
# 5 0.000000 0.000000 0.000000 0.000000 0.032542 0.000000
# 6 0.000000 0.000000 0.000000 0.000000 0.000000 0.034608
#
#
# Mechanical properties :
#
#
# Convention : Reuss Voigt Hill
#
# Bulk Modulus (GPa) = 26.59282 27.06568 26.82925
# Shear Modulus (GPa) = 31.39973 32.03832 31.71902
#
# Velocity S-wave (km/s) = 3.65626 3.69325 3.67480
# Velocity P-wave (km/s) = 5.39871 5.45067 5.42475
#
# Compressibility (1/GPa) = 0.03760413
#
# Stress axis : x y z
#
# Youngs Moduli (GPa) = 81.26986 81.27050 56.50537
#
# Poissons Ratio (x) = -0.00343 0.06762
# Poissons Ratio (y) = -0.00343 0.06762
# Poissons Ratio (z) = 0.09726 0.09726
#
# Static dielectric constant tensor:
#      x y z
#    x 1.904270 0.000000 0.000000 
#    y 0.000000 1.904270 0.000000 
#    z 0.000000 0.000000 2.117690 
# 
# From -- ./inp_files/10475.got.cif
#   From: 2010.05.17/outbox.cif.g08.bks.cpg/sg142_6_cif.got.tgz:10475.got - 2010.05.20 13:39:18.
