data_PCOD9573434
_publ_section_title
;
Structure prediction by ZEFSAII (Michael W. Deem and Ramdas Pophale) SiO2 
 PCOD9573434
Probable space group: I 41/A C D
;
_chemical_formula_sum "Si O2"
_cell_formula_units_Z 112
_cell_length_a 14.149421
_cell_length_b 14.149421
_cell_length_c 22.195535
_cell_angle_alpha 90.000000
_cell_angle_beta 90.000000
_cell_angle_gamma 90.000000
_cell_volume 4443.681825
_symmetry_space_group_name_H-M "I 41/A C D"
_symmetry_group_IT_number 142
_space_group.IT_coordinate_system_code '2'
_symmetry_cell_setting 'tetragonal'
loop_
_space_group_symop_operation_xyz
x,y,z
1/4-y,3/4+x,1/4+z
-x,1/2-y,z
1/4+y,1/4-x,3/4+z
x,-y,1/2-z
1/2-x,y,-z
3/4+y,1/4+x,1/4-z
1/4-y,1/4-x,1/4-z
-x,-y,-z
3/4+y,1/4-x,3/4-z
x,1/2+y,-z
3/4-y,3/4+x,1/4-z
-x,y,1/2+z
1/2+x,-y,z
1/4-y,3/4-x,3/4+z
3/4+y,3/4+x,3/4+z
1/2+x,1/2+y,1/2+z
3/4-y,1/4+x,3/4+z
1/2-x,-y,1/2+z
3/4+y,3/4-x,1/4+z
1/2+x,1/2-y,-z
-x,1/2+y,1/2-z
1/4+y,3/4+x,3/4-z
3/4-y,3/4-x,3/4-z
1/2-x,1/2-y,1/2-z
1/4+y,3/4-x,1/4-z
1/2+x,y,1/2-z
1/4-y,1/4+x,3/4-z
1/2-x,1/2+y,z
x,1/2-y,1/2+z
3/4-y,1/4-x,1/4+z
1/4+y,1/4+x,1/4+z
loop_
_atom_site_type_symbol
_atom_site_label
_atom_site_fract_x
_atom_site_fract_y
_atom_site_fract_z
Si Si1 0.510315 0.389832 0.404516
Si Si2 0.444059 0.000000 0.750000
Si Si3 0.793176 0.385126 0.877459
Si Si4 0.081938 0.681689 0.526101
O O1 0.609619 0.359619 0.375000
O O2 0.433845 0.316156 0.375000
O O3 0.460909 0.488312 0.392140
O O4 0.527124 0.378991 0.475711
O O5 0.380659 0.048802 0.698835
O O6 0.512420 0.088492 0.762534
O O7 0.725480 0.475480 0.875000
O O8 0.879085 0.384536 0.830768
O O9 0.000000 0.750000 0.550927
#
# Coordination Sequence:
#
# PCOD9573434 Si02
#       4
#    32  16  32  32
#     4  10  17  42  76 105 145 195 256 316 384 463
#     4  12  28  46  72 114 154 184 278 328 354 508
#     4  11  26  48  73 106 152 203 253 325 386 467
#     4  12  25  47  78 111 152 207 257 319 400 468
#
# _framework density 25.204325999999998
#
# number of rings (size 3 to 8) (size 9 to 14) (size 15 to 20)
#    0.000    0.857    5.714    2.571    4.000    1.143 
#    5.143    0.000    0.000    0.000    0.000    0.000 
#    0.000    0.000    0.000    0.000    0.000    0.000 
#
# Total GULP energy -312601.443522 kJ/mol
# GULP energy per Si atom -5582.168634 kJ/mol
# Density = 2.514696 g / cm^3
# Si number density = 25.204326 Si / 1000 Ang^3
#
#
#
# Elastic Constant Matrix: (Units=GPa)
#
#
# Indices 1 2 3 4 5 6 
#
# 1 68.1390 37.2035 24.4055 0.0000 0.0000 0.0000
# 2 37.2035 68.1389 24.4052 0.0000 0.0000 0.0000
# 3 24.4055 24.4052 151.3815 0.0000 0.0000 0.0000
# 4 0.0000 0.0000 0.0000 29.7052 0.0000 0.0000
# 5 0.0000 0.0000 0.0000 0.0000 29.7052 0.0000
# 6 0.0000 0.0000 0.0000 0.0000 0.0000 49.5452
#
#
#
# Elastic Compliance Matrix: (Units=1/GPa)
#
#
# Indices 1 2 3 4 5 6 
#
# 1 0.021292 -0.011033 -0.001654 0.000000 0.000000 0.000000
# 2 -0.011033 0.021292 -0.001654 0.000000 0.000000 0.000000
# 3 -0.001654 -0.001654 0.007139 0.000000 0.000000 0.000000
# 4 0.000000 0.000000 0.000000 0.033664 0.000000 0.000000
# 5 0.000000 0.000000 0.000000 0.000000 0.033664 0.000000
# 6 0.000000 0.000000 0.000000 0.000000 0.000000 0.020184
#
#
# Mechanical properties :
#
#
# Convention : Reuss Voigt Hill
#
# Bulk Modulus (GPa) = 47.52467 51.07641 49.30054
# Shear Modulus (GPa) = 28.91318 35.23414 32.07366
#
# Velocity S-wave (km/s) = 3.39064 3.74296 3.57115
# Velocity P-wave (km/s) = 5.85024 6.24409 6.05037
#
# Compressibility (1/GPa) = 0.02104170
#
# Stress axis : x y z
#
# Youngs Moduli (GPa) = 46.96531 46.96529 140.07324
#
# Poissons Ratio (x) = 0.51817 0.23168
# Poissons Ratio (y) = 0.51817 0.23167
# Poissons Ratio (z) = 0.07768 0.07768
#
# Static dielectric constant tensor:
#      x y z
#    x 2.071140 0.000000 0.000000 
#    y 0.000000 2.071150 0.000000 
#    z 0.000000 0.000000 2.113670 
# 
# From -- ./inp_files/9755.got.cif
#   From: 2010.05.17/outbox.cif.g08.bks.cpg/sg142_5_cif.got.tgz:9755.got - 2010.05.20 13:39:18.
