data_PCOD9573067
_publ_section_title
;
Structure prediction by ZEFSAII (Michael W. Deem and Ramdas Pophale) SiO2 
 PCOD9573067
Probable space group: I 41/A M D
;
_chemical_formula_sum "Si O2"
_cell_formula_units_Z 64
_cell_length_a 9.372183
_cell_length_b 9.372183
_cell_length_c 41.811929
_cell_angle_alpha 90.000000
_cell_angle_beta 90.000000
_cell_angle_gamma 90.000000
_cell_volume 3672.668450
_symmetry_space_group_name_H-M "I 41/A M D"
_symmetry_group_IT_number 141
_space_group.IT_coordinate_system_code '2'
_symmetry_cell_setting 'tetragonal'
loop_
_space_group_symop_operation_xyz
x,y,z
1/4-y,3/4+x,1/4+z
-x,1/2-y,z
1/4+y,1/4-x,3/4+z
x,-y,-z
-x,1/2+y,-z
1/4+y,3/4+x,1/4-z
1/4-y,1/4-x,3/4-z
-x,-y,-z
3/4+y,1/4-x,3/4-z
x,1/2+y,-z
3/4-y,3/4+x,1/4-z
-x,y,z
x,1/2-y,z
3/4-y,1/4-x,3/4+z
3/4+y,3/4+x,1/4+z
1/2+x,1/2+y,1/2+z
3/4-y,1/4+x,3/4+z
1/2-x,-y,1/2+z
3/4+y,3/4-x,1/4+z
1/2+x,1/2-y,1/2-z
1/2-x,y,1/2-z
3/4+y,1/4+x,3/4-z
3/4-y,3/4-x,1/4-z
1/2-x,1/2-y,1/2-z
1/4+y,3/4-x,1/4-z
1/2+x,y,1/2-z
1/4-y,1/4+x,3/4-z
1/2-x,1/2+y,1/2+z
1/2+x,-y,1/2+z
1/4-y,3/4-x,1/4+z
1/4+y,1/4+x,3/4+z
loop_
_atom_site_type_symbol
_atom_site_label
_atom_site_fract_x
_atom_site_fract_y
_atom_site_fract_z
Si Si1 0.832767 0.578812 0.217618
Si Si2 0.170941 0.082316 0.411793
O O1 0.818972 0.750000 0.213991
O O2 0.750000 0.537557 0.250000
O O3 0.762489 0.501915 0.187434
O O4 0.000000 0.544459 0.220401
O O5 0.205751 0.044249 0.375000
O O6 0.205666 0.250000 0.416465
O O7 0.000000 0.067726 0.415360
#
# Coordination Sequence:
#
# PCOD9573067 Si02
#       2
#    32  32
#     4  10  21  36  54  77 105 138 176 216 259 308
#     4   9  19  36  56  78 105 137 173 213 258 309
#
# _framework density 17.426022
#
# number of rings (size 3 to 8) (size 9 to 14) (size 15 to 20)
#    0.000    2.500    0.000    3.000    0.000    7.000 
#    0.000    7.500    0.000    0.000    0.000    0.000 
#    0.000    0.000    0.000    0.000    0.000    0.000 
#
# Total GULP energy -178601.220633 kJ/mol
# GULP energy per Si atom -5581.288145 kJ/mol
# Density = 1.738636 g / cm^3
# Si number density = 17.426022 Si / 1000 Ang^3
#
#
#
# Elastic Constant Matrix: (Units=GPa)
#
#
# Indices 1 2 3 4 5 6 
#
# 1 82.6972 66.2197 100.6275 0.0000 0.0000 0.0000
# 2 66.2197 82.6972 100.6275 0.0000 0.0000 0.0000
# 3 100.6275 100.6275 184.1601 0.0000 0.0000 0.0000
# 4 0.0000 0.0000 0.0000 40.6788 0.0000 0.0000
# 5 0.0000 0.0000 0.0000 0.0000 40.6788 0.0000
# 6 0.0000 0.0000 0.0000 0.0000 0.0000 33.4658
#
#
#
# Elastic Compliance Matrix: (Units=1/GPa)
#
#
# Indices 1 2 3 4 5 6 
#
# 1 0.043182 -0.017507 -0.014029 0.000000 0.000000 0.000000
# 2 -0.017507 0.043182 -0.014029 0.000000 0.000000 0.000000
# 3 -0.014029 -0.014029 0.020761 0.000000 0.000000 0.000000
# 4 0.000000 0.000000 0.000000 0.024583 0.000000 0.000000
# 5 0.000000 0.000000 0.000000 0.000000 0.024583 0.000000
# 6 0.000000 0.000000 0.000000 0.000000 0.000000 0.029881
#
#
# Mechanical properties :
#
#
# Convention : Reuss Voigt Hill
#
# Bulk Modulus (GPa) = 62.52021 98.27820 80.39920
# Shear Modulus (GPa) = 17.69074 28.43668 23.06371
#
# Velocity S-wave (km/s) = 3.18966 4.04400 3.64197
# Velocity P-wave (km/s) = 7.03709 8.85015 7.99518
#
# Compressibility (1/GPa) = 0.01599483
#
# Stress axis : x y z
#
# Youngs Moduli (GPa) = 23.15789 23.15789 48.16624
#
# Poissons Ratio (x) = 0.40542 0.67573
# Poissons Ratio (y) = 0.40542 0.67573
# Poissons Ratio (z) = 0.32488 0.32488
#
# Static dielectric constant tensor:
#      x y z
#    x 1.576290 0.000000 0.000000 
#    y 0.000000 1.576290 0.000000 
#    z 0.000000 0.000000 1.563280 
# 
# From -- ./inp_files/12130.got.cif
#   From: 2010.05.17/outbox.cif.g08.bks.cpg/sg141_7_cif.got.tgz:12130.got - 2010.05.20 13:30:51.
