data_PCOD9573717
_publ_section_title
;
Structure prediction by ZEFSAII (Michael W. Deem and Ramdas Pophale) SiO2 
 PCOD9573717
Probable space group: I 41/A C D
;
_chemical_formula_sum "Si O2"
_cell_formula_units_Z 144
_cell_length_a 17.153836
_cell_length_b 17.153836
_cell_length_c 23.700694
_cell_angle_alpha 90.000000
_cell_angle_beta 90.000000
_cell_angle_gamma 90.000000
_cell_volume 6974.026134
_symmetry_space_group_name_H-M "I 41/A C D"
_symmetry_group_IT_number 142
_space_group.IT_coordinate_system_code '2'
_symmetry_cell_setting 'tetragonal'
loop_
_space_group_symop_operation_xyz
x,y,z
1/4-y,3/4+x,1/4+z
-x,1/2-y,z
1/4+y,1/4-x,3/4+z
x,-y,1/2-z
1/2-x,y,-z
3/4+y,1/4+x,1/4-z
1/4-y,1/4-x,1/4-z
-x,-y,-z
3/4+y,1/4-x,3/4-z
x,1/2+y,-z
3/4-y,3/4+x,1/4-z
-x,y,1/2+z
1/2+x,-y,z
1/4-y,3/4-x,3/4+z
3/4+y,3/4+x,3/4+z
1/2+x,1/2+y,1/2+z
3/4-y,1/4+x,3/4+z
1/2-x,-y,1/2+z
3/4+y,3/4-x,1/4+z
1/2+x,1/2-y,-z
-x,1/2+y,1/2-z
1/4+y,3/4+x,3/4-z
3/4-y,3/4-x,3/4-z
1/2-x,1/2-y,1/2-z
1/4+y,3/4-x,1/4-z
1/2+x,y,1/2-z
1/4-y,1/4+x,3/4-z
1/2-x,1/2+y,z
x,1/2-y,1/2+z
3/4-y,1/4-x,1/4+z
1/4+y,1/4+x,1/4+z
loop_
_atom_site_type_symbol
_atom_site_label
_atom_site_fract_x
_atom_site_fract_y
_atom_site_fract_z
Si Si1 0.750000 0.934433 0.000000
Si Si2 0.983714 0.861780 0.155944
Si Si3 0.229948 0.804935 0.403230
Si Si4 0.579729 0.540176 0.522331
Si Si5 0.420788 0.222788 0.970434
O O1 0.751193 0.875667 0.054068
O O2 0.667345 0.980426 0.000350
O O3 0.065182 0.830718 0.128972
O O4 0.979825 0.839951 0.221557
O O5 0.989151 0.953803 0.152602
O O6 0.219906 0.833147 0.339739
O O7 0.151111 0.770678 0.428788
O O8 0.500000 0.500000 0.500000
O O9 0.572945 0.632549 0.511561
O O10 0.500000 0.250000 0.942941
#
# Coordination Sequence:
#
# PCOD9573717 Si02
#       5
#    16  32  32  32  32
#     4  10  20  42  62  92 132 182 222 270 350 412
#     4  11  20  35  64  97 128 173 226 274 324 400
#     4  11  22  39  67  95 132 176 219 279 349 406
#     4  11  24  41  66  97 132 177 227 281 344 414
#     4  11  21  41  65  94 127 170 222 273 335 406
#
# _framework density 20.648045
#
# number of rings (size 3 to 8) (size 9 to 14) (size 15 to 20)
#    0.000    1.111    6.667    4.000    0.000    1.778 
#    0.000    2.222    4.889    0.000    0.000    0.000 
#    0.000    0.000    0.000    0.000    0.000    0.000 
#
# Total GULP energy -401983.096014 kJ/mol
# GULP energy per Si atom -5583.098556 kJ/mol
# Density = 2.060105 g / cm^3
# Si number density = 20.648045 Si / 1000 Ang^3
#
#
#
# Elastic Constant Matrix: (Units=GPa)
#
#
# Indices 1 2 3 4 5 6 
#
# 1 119.1103 35.6695 27.0487 0.0000 0.0000 0.0000
# 2 35.6695 119.1103 27.0487 0.0000 0.0000 0.0000
# 3 27.0487 27.0487 147.2305 0.0000 0.0000 0.0000
# 4 0.0000 0.0000 0.0000 14.3630 0.0000 0.0000
# 5 0.0000 0.0000 0.0000 0.0000 14.3630 0.0000
# 6 0.0000 0.0000 0.0000 0.0000 0.0000 22.1747
#
#
#
# Elastic Compliance Matrix: (Units=1/GPa)
#
#
# Indices 1 2 3 4 5 6 
#
# 1 0.009444 -0.002540 -0.001268 0.000000 0.000000 0.000000
# 2 -0.002540 0.009444 -0.001268 0.000000 0.000000 0.000000
# 3 -0.001268 -0.001268 0.007258 0.000000 0.000000 0.000000
# 4 0.000000 0.000000 0.000000 0.069623 0.000000 0.000000
# 5 0.000000 0.000000 0.000000 0.000000 0.069623 0.000000
# 6 0.000000 0.000000 0.000000 0.000000 0.000000 0.045096
#
#
# Mechanical properties :
#
#
# Convention : Reuss Voigt Hill
#
# Bulk Modulus (GPa) = 62.52835 62.77611 62.65223
# Shear Modulus (GPa) = 22.12640 29.89243 26.00941
#
# Velocity S-wave (km/s) = 3.27708 3.80901 3.55301
# Velocity P-wave (km/s) = 6.68339 7.05788 6.87318
#
# Compressibility (1/GPa) = 0.01599275
#
# Stress axis : x y z
#
# Youngs Moduli (GPa) = 105.88360 105.88360 137.77665
#
# Poissons Ratio (x) = 0.26897 0.17476
# Poissons Ratio (y) = 0.26897 0.17476
# Poissons Ratio (z) = 0.13430 0.13430
#
# Static dielectric constant tensor:
#      x y z
#    x 1.770850 0.000000 0.000000 
#    y 0.000000 1.770850 0.000000 
#    z 0.000000 0.000000 1.754400 
# 
# From -- ./inp_files/10143.got.cif
#   From: 2010.05.17/outbox.cif.g08.bks.cpg/sg142_6_cif.got.tgz:10143.got - 2010.05.20 13:39:18.
