data_PCOD9573835
_publ_section_title
;
Structure prediction by ZEFSAII (Michael W. Deem and Ramdas Pophale) SiO2 
 PCOD9573835
Probable space group: I 41/A C D
;
_chemical_formula_sum "Si O2"
_cell_formula_units_Z 128
_cell_length_a 26.198685
_cell_length_b 26.198685
_cell_length_c 8.338433
_cell_angle_alpha 90.000000
_cell_angle_beta 90.000000
_cell_angle_gamma 90.000000
_cell_volume 5723.259395
_symmetry_space_group_name_H-M "I 41/A C D"
_symmetry_group_IT_number 142
_space_group.IT_coordinate_system_code '2'
_symmetry_cell_setting 'tetragonal'
loop_
_space_group_symop_operation_xyz
x,y,z
1/4-y,3/4+x,1/4+z
-x,1/2-y,z
1/4+y,1/4-x,3/4+z
x,-y,1/2-z
1/2-x,y,-z
3/4+y,1/4+x,1/4-z
1/4-y,1/4-x,1/4-z
-x,-y,-z
3/4+y,1/4-x,3/4-z
x,1/2+y,-z
3/4-y,3/4+x,1/4-z
-x,y,1/2+z
1/2+x,-y,z
1/4-y,3/4-x,3/4+z
3/4+y,3/4+x,3/4+z
1/2+x,1/2+y,1/2+z
3/4-y,1/4+x,3/4+z
1/2-x,-y,1/2+z
3/4+y,3/4-x,1/4+z
1/2+x,1/2-y,-z
-x,1/2+y,1/2-z
1/4+y,3/4+x,3/4-z
3/4-y,3/4-x,3/4-z
1/2-x,1/2-y,1/2-z
1/4+y,3/4-x,1/4-z
1/2+x,y,1/2-z
1/4-y,1/4+x,3/4-z
1/2-x,1/2+y,z
x,1/2-y,1/2+z
3/4-y,1/4-x,1/4+z
1/4+y,1/4+x,1/4+z
loop_
_atom_site_type_symbol
_atom_site_label
_atom_site_fract_x
_atom_site_fract_y
_atom_site_fract_z
Si Si1 0.096756 0.153245 0.625000
Si Si2 0.776849 0.184979 0.772759
Si Si3 0.177874 0.769625 0.907460
Si Si4 0.250000 0.064376 0.000000
Si Si5 0.355616 0.896730 0.443876
O O1 0.038884 0.129997 0.627216
O O2 0.120273 0.130616 0.790500
O O3 0.717818 0.197000 0.800048
O O4 0.803091 0.212000 0.620783
O O5 0.795245 0.127902 0.802256
O O6 0.806484 0.215723 0.913619
O O7 0.295036 0.099591 0.068533
O O8 0.222121 0.027880 0.125000
O O9 0.371041 0.878960 0.625000
#
# Coordination Sequence:
#
# PCOD9573835 Si02
#       5
#    16  32  32  16  32
#     4  10  22  36  60  80 115 150 186 248 296 348
#     4   9  19  36  54  81 112 148 198 238 297 344
#     4   9  19  34  56  82 108 151 189 248 295 345
#     4  10  24  36  50  78 110 164 198 232 280 344
#     4  10  23  38  53  83 113 155 197 235 290 351
#
# _framework density 22.364878999999998
#
# number of rings (size 3 to 8) (size 9 to 14) (size 15 to 20)
#    0.000    2.500    0.000    0.000   12.250    2.000 
#    0.000    0.000    0.000    0.000    0.000    0.875 
#    0.000    0.000    0.000    0.000    0.000    0.000 
#
# Total GULP energy -356365.164851 kJ/mol
# GULP energy per Si atom -5568.205701 kJ/mol
# Density = 2.231398 g / cm^3
# Si number density = 22.364879 Si / 1000 Ang^3
#
#
#
# Elastic Constant Matrix: (Units=GPa)
#
#
# Indices 1 2 3 4 5 6 
#
# 1 52.7686 -6.6681 -9.5804 0.0000 0.0000 0.0000
# 2 -6.6681 52.7713 -9.5862 0.0000 0.0000 0.0000
# 3 -9.5804 -9.5862 115.0484 0.0000 0.0000 0.0000
# 4 0.0000 0.0000 0.0000 15.1395 0.0000 0.0000
# 5 0.0000 0.0000 0.0000 0.0000 15.1405 0.0000
# 6 0.0000 0.0000 0.0000 0.0000 0.0000 35.8045
#
#
#
# Elastic Compliance Matrix: (Units=1/GPa)
#
#
# Indices 1 2 3 4 5 6 
#
# 1 0.019647 0.002822 0.001871 0.000000 0.000000 0.000000
# 2 0.002822 0.019646 0.001872 0.000000 0.000000 0.000000
# 3 0.001871 0.001872 0.009004 0.000000 0.000000 0.000000
# 4 0.000000 0.000000 0.000000 0.066052 0.000000 0.000000
# 5 0.000000 0.000000 0.000000 0.000000 0.066048 0.000000
# 6 0.000000 0.000000 0.000000 0.000000 0.000000 0.027929
#
#
# Mechanical properties :
#
#
# Convention : Reuss Voigt Hill
#
# Bulk Modulus (GPa) = 16.27900 18.76876 17.52388
# Shear Modulus (GPa) = 23.18336 29.64510 26.41423
#
# Velocity S-wave (km/s) = 3.22311 3.64472 3.44038
# Velocity P-wave (km/s) = 4.59847 5.11099 4.86149
#
# Compressibility (1/GPa) = 0.06142883
#
# Stress axis : x y z
#
# Youngs Moduli (GPa) = 50.89817 50.89991 111.06415
#
# Poissons Ratio (x) = -0.14366 -0.20783
# Poissons Ratio (y) = -0.14366 -0.20792
# Poissons Ratio (z) = -0.09524 -0.09529
#
# Static dielectric constant tensor:
#      x y z
#    x 1.900280 0.000000 0.000000 
#    y 0.000000 1.900280 0.000000 
#    z 0.000000 0.000000 1.378010 
# 
# From -- ./inp_files/2059.got.cif
#   From: 2010.05.17/outbox.cif.g08.bks.cpg/sg142_2_cif.got.tgz:2059.got - 2010.05.20 13:39:18.
