data_PCOD9573776
_publ_section_title
;
Structure prediction by ZEFSAII (Michael W. Deem and Ramdas Pophale) SiO2 
 PCOD9573776
Probable space group: I 41/A C D
;
_chemical_formula_sum "Si O2"
_cell_formula_units_Z 136
_cell_length_a 22.116858
_cell_length_b 22.116858
_cell_length_c 12.120811
_cell_angle_alpha 90.000000
_cell_angle_beta 90.000000
_cell_angle_gamma 90.000000
_cell_volume 5928.960247
_symmetry_space_group_name_H-M "I 41/A C D"
_symmetry_group_IT_number 142
_space_group.IT_coordinate_system_code '2'
_symmetry_cell_setting 'tetragonal'
loop_
_space_group_symop_operation_xyz
x,y,z
1/4-y,3/4+x,1/4+z
-x,1/2-y,z
1/4+y,1/4-x,3/4+z
x,-y,1/2-z
1/2-x,y,-z
3/4+y,1/4+x,1/4-z
1/4-y,1/4-x,1/4-z
-x,-y,-z
3/4+y,1/4-x,3/4-z
x,1/2+y,-z
3/4-y,3/4+x,1/4-z
-x,y,1/2+z
1/2+x,-y,z
1/4-y,3/4-x,3/4+z
3/4+y,3/4+x,3/4+z
1/2+x,1/2+y,1/2+z
3/4-y,1/4+x,3/4+z
1/2-x,-y,1/2+z
3/4+y,3/4-x,1/4+z
1/2+x,1/2-y,-z
-x,1/2+y,1/2-z
1/4+y,3/4+x,3/4-z
3/4-y,3/4-x,3/4-z
1/2-x,1/2-y,1/2-z
1/4+y,3/4-x,1/4-z
1/2+x,y,1/2-z
1/4-y,1/4+x,3/4-z
1/2-x,1/2+y,z
x,1/2-y,1/2+z
3/4-y,1/4-x,1/4+z
1/4+y,1/4+x,1/4+z
loop_
_atom_site_type_symbol
_atom_site_label
_atom_site_fract_x
_atom_site_fract_y
_atom_site_fract_z
Si Si1 0.123462 0.228566 0.504365
Si Si2 0.314679 0.147038 0.053358
Si Si3 0.806707 0.812659 0.306036
Si Si4 0.067396 0.419093 0.455611
Si Si5 0.000000 0.750000 0.875000
O O1 0.166476 0.286057 0.486009
O O2 0.153580 0.179403 0.585098
O O3 0.118791 0.199278 0.384565
O O4 0.059828 0.248706 0.551827
O O5 0.312864 0.152750 0.188246
O O6 0.366373 0.101762 0.008871
O O7 0.250000 0.132592 0.000000
O O8 0.824509 0.741936 0.281438
O O9 0.737113 0.820576 0.340323
#
# Coordination Sequence:
#
# PCOD9573776 Si02
#       5
#    32  32  32  32   8
#     4  11  22  40  61  92 131 166 208 261 325 389
#     4  11  23  38  62  94 128 166 214 269 320 380
#     4  10  21  39  64  91 124 169 209 256 320 386
#     4  10  21  38  63  91 125 168 213 257 313 385
#     4  12  24  36  66 100 128 162 204 272 330 380
#
# _framework density 22.938254000000001
#
# number of rings (size 3 to 8) (size 9 to 14) (size 15 to 20)
#    0.000    1.412    0.000    7.765    0.000    4.706 
#    0.000    4.706    0.000   11.294    0.000    0.000 
#    0.000    0.000    0.000    0.000    0.000    0.000 
#
# Total GULP energy -379806.918105 kJ/mol
# GULP energy per Si atom -5585.395854 kJ/mol
# Density = 2.288605 g / cm^3
# Si number density = 22.938254 Si / 1000 Ang^3
#
#
#
# Elastic Constant Matrix: (Units=GPa)
#
#
# Indices 1 2 3 4 5 6 
#
# 1 95.8911 15.4847 22.9046 0.0000 0.0000 0.0000
# 2 15.4847 95.8911 22.9046 0.0000 0.0000 0.0000
# 3 22.9046 22.9046 88.1038 0.0000 0.0000 0.0000
# 4 0.0000 0.0000 0.0000 28.4366 0.0000 0.0000
# 5 0.0000 0.0000 0.0000 0.0000 28.4366 0.0000
# 6 0.0000 0.0000 0.0000 0.0000 0.0000 29.2621
#
#
#
# Elastic Compliance Matrix: (Units=1/GPa)
#
#
# Indices 1 2 3 4 5 6 
#
# 1 0.011245 -0.001192 -0.002614 0.000000 0.000000 0.000000
# 2 -0.001192 0.011245 -0.002614 0.000000 0.000000 0.000000
# 3 -0.002614 -0.002614 0.012709 0.000000 0.000000 0.000000
# 4 0.000000 0.000000 0.000000 0.035166 0.000000 0.000000
# 5 0.000000 0.000000 0.000000 0.000000 0.035166 0.000000
# 6 0.000000 0.000000 0.000000 0.000000 0.000000 0.034174
#
#
# Mechanical properties :
#
#
# Convention : Reuss Voigt Hill
#
# Bulk Modulus (GPa) = 44.71915 44.71931 44.71923
# Shear Modulus (GPa) = 31.25055 31.79988 31.52521
#
# Velocity S-wave (km/s) = 3.69504 3.72738 3.71125
# Velocity P-wave (km/s) = 6.14347 6.16947 6.15648
#
# Compressibility (1/GPa) = 0.02236178
#
# Stress axis : x y z
#
# Youngs Moduli (GPa) = 88.92668 88.92668 78.68308
#
# Poissons Ratio (x) = 0.10596 0.20565
# Poissons Ratio (y) = 0.10596 0.20565
# Poissons Ratio (z) = 0.23242 0.23242
#
# Static dielectric constant tensor:
#      x y z
#    x 1.871100 0.000000 0.000000 
#    y 0.000000 1.871100 0.000000 
#    z 0.000000 0.000000 1.986970 
# 
# From -- ./inp_files/3592.got.cif
#   From: 2010.05.17/outbox.cif.g08.bks.cpg/sg142_2_cif.got.tgz:3592.got - 2010.05.20 13:39:18.
