data_PCOD9573344
_publ_section_title
;
Structure prediction by ZEFSAII (Michael W. Deem and Ramdas Pophale) SiO2 
 PCOD9573344
Probable space group: I 41/A M D
;
_chemical_formula_sum "Si O2"
_cell_formula_units_Z 96
_cell_length_a 15.188329
_cell_length_b 15.188329
_cell_length_c 16.825524
_cell_angle_alpha 90.000000
_cell_angle_beta 90.000000
_cell_angle_gamma 90.000000
_cell_volume 3881.401688
_symmetry_space_group_name_H-M "I 41/A M D"
_symmetry_group_IT_number 141
_space_group.IT_coordinate_system_code '2'
_symmetry_cell_setting 'tetragonal'
loop_
_space_group_symop_operation_xyz
x,y,z
1/4-y,3/4+x,1/4+z
-x,1/2-y,z
1/4+y,1/4-x,3/4+z
x,-y,-z
-x,1/2+y,-z
1/4+y,3/4+x,1/4-z
1/4-y,1/4-x,3/4-z
-x,-y,-z
3/4+y,1/4-x,3/4-z
x,1/2+y,-z
3/4-y,3/4+x,1/4-z
-x,y,z
x,1/2-y,z
3/4-y,1/4-x,3/4+z
3/4+y,3/4+x,1/4+z
1/2+x,1/2+y,1/2+z
3/4-y,1/4+x,3/4+z
1/2-x,-y,1/2+z
3/4+y,3/4-x,1/4+z
1/2+x,1/2-y,1/2-z
1/2-x,y,1/2-z
3/4+y,1/4+x,3/4-z
3/4-y,3/4-x,1/4-z
1/2-x,1/2-y,1/2-z
1/4+y,3/4-x,1/4-z
1/2+x,y,1/2-z
1/4-y,1/4+x,3/4-z
1/2-x,1/2+y,1/2+z
1/2+x,-y,1/2+z
1/4-y,3/4-x,1/4+z
1/4+y,1/4+x,3/4+z
loop_
_atom_site_type_symbol
_atom_site_label
_atom_site_fract_x
_atom_site_fract_y
_atom_site_fract_z
Si Si1 0.598991 0.355926 0.034033
Si Si2 0.600419 0.349702 0.756739
Si Si3 0.770771 0.104251 0.598926
O O1 0.621131 0.371131 0.125000
O O2 0.500000 0.384854 0.020069
O O3 0.603359 0.250000 0.022049
O O4 0.661622 0.397749 0.971399
O O5 0.500000 0.355938 0.790303
O O6 0.608282 0.250000 0.722012
O O7 0.608608 0.430384 0.693641
O O8 0.676597 0.356143 0.824807
O O9 0.740923 0.009078 0.625000
#
# Coordination Sequence:
#
# PCOD9573344 Si02
#       3
#    32  32  32
#     4   9  19  40  73 109 141 177 228 294 365 429
#     4  11  26  49  77 106 139 186 241 297 357 418
#     4  12  26  44  69 103 147 189 234 288 346 417
#
# _framework density 24.733332999999998
#
# number of rings (size 3 to 8) (size 9 to 14) (size 15 to 20)
#    0.000    1.333    0.000    6.000    0.000   12.000 
#    0.000    1.667    0.000   14.000    0.000    0.000 
#    0.000    6.000    0.000    0.000    0.000    0.000 
#
# Total GULP energy -268319.889815 kJ/mol
# GULP energy per Si atom -5589.997704 kJ/mol
# Density = 2.467704 g / cm^3
# Si number density = 24.733333 Si / 1000 Ang^3
#
#
#
# Elastic Constant Matrix: (Units=GPa)
#
#
# Indices 1 2 3 4 5 6 
#
# 1 203.4926 41.8570 91.2833 0.0000 0.0000 0.0000
# 2 41.8570 203.4955 91.2862 0.0000 0.0000 0.0000
# 3 91.2833 91.2862 151.6758 0.0000 0.0000 0.0000
# 4 0.0000 0.0000 0.0000 53.5159 0.0000 0.0000
# 5 0.0000 0.0000 0.0000 0.0000 53.5166 0.0000
# 6 0.0000 0.0000 0.0000 0.0000 0.0000 43.8315
#
#
#
# Elastic Compliance Matrix: (Units=1/GPa)
#
#
# Indices 1 2 3 4 5 6 
#
# 1 0.006784 0.000597 -0.004442 0.000000 0.000000 0.000000
# 2 0.000597 0.006784 -0.004443 0.000000 0.000000 0.000000
# 3 -0.004442 -0.004443 0.011940 0.000000 0.000000 0.000000
# 4 0.000000 0.000000 0.000000 0.018686 0.000000 0.000000
# 5 0.000000 0.000000 0.000000 0.000000 0.018686 0.000000
# 6 0.000000 0.000000 0.000000 0.000000 0.000000 0.022815
#
#
# Mechanical properties :
#
#
# Convention : Reuss Voigt Hill
#
# Bulk Modulus (GPa) = 111.93942 111.94633 111.94288
# Shear Modulus (GPa) = 47.50680 52.45529 49.98104
#
# Velocity S-wave (km/s) = 4.38740 4.61025 4.50020
# Velocity P-wave (km/s) = 8.42749 8.58480 8.50651
#
# Compressibility (1/GPa) = 0.00893340
#
# Stress axis : x y z
#
# Youngs Moduli (GPa) = 147.40338 147.40283 83.74942
#
# Poissons Ratio (x) = -0.08806 0.37205
# Poissons Ratio (y) = -0.08806 0.37206
# Poissons Ratio (z) = 0.65483 0.65485
#
# Static dielectric constant tensor:
#      x y z
#    x 1.987540 0.000000 0.000000 
#    y 0.000000 1.987530 0.000000 
#    z 0.000000 0.000000 2.127430 
# 
# From -- ./inp_files/9724.got.cif
#   From: 2010.05.17/outbox.cif.g08.bks.cpg/sg141_5_cif.got.tgz:9724.got - 2010.05.20 13:30:51.
