data_PCOD9573076
_publ_section_title
;
Structure prediction by ZEFSAII (Michael W. Deem and Ramdas Pophale) SiO2 
 PCOD9573076
Probable space group: I 41/A M D
;
_chemical_formula_sum "Si O2"
_cell_formula_units_Z 80
_cell_length_a 19.591760
_cell_length_b 19.591760
_cell_length_c 12.135023
_cell_angle_alpha 90.000000
_cell_angle_beta 90.000000
_cell_angle_gamma 90.000000
_cell_volume 4657.871550
_symmetry_space_group_name_H-M "I 41/A M D"
_symmetry_group_IT_number 141
_space_group.IT_coordinate_system_code '2'
_symmetry_cell_setting 'tetragonal'
loop_
_space_group_symop_operation_xyz
x,y,z
1/4-y,3/4+x,1/4+z
-x,1/2-y,z
1/4+y,1/4-x,3/4+z
x,-y,-z
-x,1/2+y,-z
1/4+y,3/4+x,1/4-z
1/4-y,1/4-x,3/4-z
-x,-y,-z
3/4+y,1/4-x,3/4-z
x,1/2+y,-z
3/4-y,3/4+x,1/4-z
-x,y,z
x,1/2-y,z
3/4-y,1/4-x,3/4+z
3/4+y,3/4+x,1/4+z
1/2+x,1/2+y,1/2+z
3/4-y,1/4+x,3/4+z
1/2-x,-y,1/2+z
3/4+y,3/4-x,1/4+z
1/2+x,1/2-y,1/2-z
1/2-x,y,1/2-z
3/4+y,1/4+x,3/4-z
3/4-y,3/4-x,1/4-z
1/2-x,1/2-y,1/2-z
1/4+y,3/4-x,1/4-z
1/2+x,y,1/2-z
1/4-y,1/4+x,3/4-z
1/2-x,1/2+y,1/2+z
1/2+x,-y,1/2+z
1/4-y,3/4-x,1/4+z
1/4+y,1/4+x,3/4+z
loop_
_atom_site_type_symbol
_atom_site_label
_atom_site_fract_x
_atom_site_fract_y
_atom_site_fract_z
Si Si1 0.576778 0.826778 0.375000
Si Si2 0.172984 0.565631 0.749448
Si Si3 0.694909 0.669924 0.551261
O O1 0.584184 0.750000 0.330674
O O2 0.630342 0.835357 0.471812
O O3 0.250000 0.534494 0.750000
O O4 0.158994 0.591007 0.625000
O O5 0.116276 0.507604 0.763137
O O6 0.178875 0.625577 0.839139
O O7 0.708420 0.750000 0.575191
#
# Coordination Sequence:
#
# PCOD9573076 Si02
#       3
#    16  32  32
#     4   9  20  36  52  76 110 144 180 226 273 318
#     4   9  20  35  54  80 110 144 177 233 279 322
#     4  10  21  36  57  81 110 149 188 228 279 337
#
# _framework density 17.175227
#
# number of rings (size 3 to 8) (size 9 to 14) (size 15 to 20)
#    0.000    2.600    0.000    0.000    8.400    8.800 
#    0.000    4.000    0.000    0.000    0.000    8.400 
#    0.000    0.000    0.000    0.000    0.000    0.000 
#
# Total GULP energy -222675.336658 kJ/mol
# GULP energy per Si atom -5566.883416 kJ/mol
# Density = 1.713614 g / cm^3
# Si number density = 17.175227 Si / 1000 Ang^3
#
#
#
# Elastic Constant Matrix: (Units=GPa)
#
#
# Indices 1 2 3 4 5 6 
#
# 1 115.6533 89.1264 48.3547 0.0000 0.0000 0.0000
# 2 89.1264 115.6530 48.3550 0.0000 0.0000 0.0000
# 3 48.3547 48.3550 58.6568 0.0000 0.0000 0.0000
# 4 0.0000 0.0000 0.0000 16.1878 0.0000 0.0000
# 5 0.0000 0.0000 0.0000 0.0000 16.1866 0.0000
# 6 0.0000 0.0000 0.0000 0.0000 0.0000 27.4560
#
#
#
# Elastic Compliance Matrix: (Units=1/GPa)
#
#
# Indices 1 2 3 4 5 6 
#
# 1 0.022847 -0.014851 -0.006592 0.000000 0.000000 0.000000
# 2 -0.014851 0.022847 -0.006592 0.000000 0.000000 0.000000
# 3 -0.006592 -0.006592 0.027917 0.000000 0.000000 0.000000
# 4 0.000000 0.000000 0.000000 0.061775 0.000000 0.000000
# 5 0.000000 0.000000 0.000000 0.000000 0.061780 0.000000
# 6 0.000000 0.000000 0.000000 0.000000 0.000000 0.036422
#
#
# Mechanical properties :
#
#
# Convention : Reuss Voigt Hill
#
# Bulk Modulus (GPa) = 57.00721 73.51502 65.26111
# Shear Modulus (GPa) = 16.92024 18.90788 17.91406
#
# Velocity S-wave (km/s) = 3.14212 3.32155 3.23308
# Velocity P-wave (km/s) = 6.81377 7.58987 7.21227
#
# Compressibility (1/GPa) = 0.01754164
#
# Stress axis : x y z
#
# Youngs Moduli (GPa) = 43.76937 43.76896 35.82068
#
# Poissons Ratio (x) = 0.65000 0.23612
# Poissons Ratio (y) = 0.65000 0.23614
# Poissons Ratio (z) = 0.28852 0.28853
#
# Static dielectric constant tensor:
#      x y z
#    x 1.603720 0.000000 0.000000 
#    y 0.000000 1.603720 0.000000 
#    z 0.000000 0.000000 1.591940 
# 
# From -- ./inp_files/4041.got.cif
#   From: 2010.05.17/outbox.cif.g08.bks.cpg/sg141_3_cif.got.tgz:4041.got - 2010.05.20 13:30:51.
