data_PCOD9573831
_publ_section_title
;
Structure prediction by ZEFSAII (Michael W. Deem and Ramdas Pophale) SiO2 
 PCOD9573831
Probable space group: I 41/A C D
;
_chemical_formula_sum "Si O2"
_cell_formula_units_Z 112
_cell_length_a 29.185641
_cell_length_b 29.185641
_cell_length_c 5.012761
_cell_angle_alpha 90.000000
_cell_angle_beta 90.000000
_cell_angle_gamma 90.000000
_cell_volume 4269.878044
_symmetry_space_group_name_H-M "I 41/A C D"
_symmetry_group_IT_number 142
_space_group.IT_coordinate_system_code '2'
_symmetry_cell_setting 'tetragonal'
loop_
_space_group_symop_operation_xyz
x,y,z
1/4-y,3/4+x,1/4+z
-x,1/2-y,z
1/4+y,1/4-x,3/4+z
x,-y,1/2-z
1/2-x,y,-z
3/4+y,1/4+x,1/4-z
1/4-y,1/4-x,1/4-z
-x,-y,-z
3/4+y,1/4-x,3/4-z
x,1/2+y,-z
3/4-y,3/4+x,1/4-z
-x,y,1/2+z
1/2+x,-y,z
1/4-y,3/4-x,3/4+z
3/4+y,3/4+x,3/4+z
1/2+x,1/2+y,1/2+z
3/4-y,1/4+x,3/4+z
1/2-x,-y,1/2+z
3/4+y,3/4-x,1/4+z
1/2+x,1/2-y,-z
-x,1/2+y,1/2-z
1/4+y,3/4+x,3/4-z
3/4-y,3/4-x,3/4-z
1/2-x,1/2-y,1/2-z
1/4+y,3/4-x,1/4-z
1/2+x,y,1/2-z
1/4-y,1/4+x,3/4-z
1/2-x,1/2+y,z
x,1/2-y,1/2+z
3/4-y,1/4-x,1/4+z
1/4+y,1/4+x,1/4+z
loop_
_atom_site_type_symbol
_atom_site_label
_atom_site_fract_x
_atom_site_fract_y
_atom_site_fract_z
Si Si1 0.891339 0.930617 0.300343
Si Si2 0.300305 0.696707 0.047458
Si Si3 0.596105 0.777969 0.995545
Si Si4 0.319810 0.500000 0.750000
O O1 0.868264 0.881737 0.375000
O O2 0.904485 0.951825 0.585494
O O3 0.854565 0.961686 0.141824
O O4 0.933511 0.937457 0.101690
O O5 0.348814 0.718782 0.965856
O O6 0.250000 0.718902 0.000000
O O7 0.573820 0.823820 0.125000
O O8 0.581801 0.738584 0.204120
O O9 0.284675 0.534675 0.625000
#
# Coordination Sequence:
#
# PCOD9573831 Si02
#       4
#    32  32  32  16
#     4  11  22  40  62  93 136 192 249 308 366 428
#     4  12  24  45  71 107 144 190 241 297 365 446
#     4  12  28  50  80 115 149 191 241 304 375 447
#     4  10  22  34  52  86 130 184 250 316 370 422
#
# _framework density 26.230259
#
# number of rings (size 3 to 8) (size 9 to 14) (size 15 to 20)
#    0.000    0.571    2.857    5.143    0.000    7.429 
#    0.000    0.000    0.000    0.000    0.000    0.000 
#    0.000    0.000    0.000    0.000    0.000    0.000 
#
# Total GULP energy -311926.898147 kJ/mol
# GULP energy per Si atom -5570.123181 kJ/mol
# Density = 2.617056 g / cm^3
# Si number density = 26.230259 Si / 1000 Ang^3
#
#
#
# Elastic Constant Matrix: (Units=GPa)
#
#
# Indices 1 2 3 4 5 6 
#
# 1 108.7477 65.1219 30.1830 0.0000 0.0000 0.0000
# 2 65.1219 108.7504 30.1838 0.0000 0.0000 0.0000
# 3 30.1830 30.1838 138.4888 0.0000 0.0000 0.0000
# 4 0.0000 0.0000 0.0000 25.6051 0.0000 0.0000
# 5 0.0000 0.0000 0.0000 0.0000 25.6041 0.0000
# 6 0.0000 0.0000 0.0000 0.0000 0.0000 46.2357
#
#
#
# Elastic Compliance Matrix: (Units=1/GPa)
#
#
# Indices 1 2 3 4 5 6 
#
# 1 0.014572 -0.008350 -0.001356 0.000000 0.000000 0.000000
# 2 -0.008350 0.014572 -0.001356 0.000000 0.000000 0.000000
# 3 -0.001356 -0.001356 0.007812 0.000000 0.000000 0.000000
# 4 0.000000 0.000000 0.000000 0.039055 0.000000 0.000000
# 5 0.000000 0.000000 0.000000 0.000000 0.039056 0.000000
# 6 0.000000 0.000000 0.000000 0.000000 0.000000 0.021628
#
#
# Mechanical properties :
#
#
# Convention : Reuss Voigt Hill
#
# Bulk Modulus (GPa) = 67.42227 67.44046 67.43137
# Shear Modulus (GPa) = 30.53200 34.85554 32.69377
#
# Velocity S-wave (km/s) = 3.41544 3.64927 3.53429
# Velocity P-wave (km/s) = 6.42756 6.59719 6.51293
#
# Compressibility (1/GPa) = 0.01483189
#
# Stress axis : x y z
#
# Youngs Moduli (GPa) = 68.62458 68.62622 128.00929
#
# Poissons Ratio (x) = 0.57300 0.17359
# Poissons Ratio (y) = 0.57299 0.17360
# Poissons Ratio (z) = 0.09306 0.09307
#
# Static dielectric constant tensor:
#      x y z
#    x 2.027260 0.000000 0.000000 
#    y 0.000000 2.027250 0.000000 
#    z 0.000000 0.000000 2.040180 
# 
# From -- ./inp_files/737.got.cif
#   From: 2010.05.17/outbox.cif.g08.bks.cpg/sg142_1_cif.got.tgz:737.got - 2010.05.20 13:39:18.
