data_PCOD9573345
_publ_section_title
;
Structure prediction by ZEFSAII (Michael W. Deem and Ramdas Pophale) SiO2 
 PCOD9573345
Probable space group: I 41/A M D
;
_chemical_formula_sum "Si O2"
_cell_formula_units_Z 80
_cell_length_a 11.118718
_cell_length_b 11.118718
_cell_length_c 31.064274
_cell_angle_alpha 90.000000
_cell_angle_beta 90.000000
_cell_angle_gamma 90.000000
_cell_volume 3840.348519
_symmetry_space_group_name_H-M "I 41/A M D"
_symmetry_group_IT_number 141
_space_group.IT_coordinate_system_code '2'
_symmetry_cell_setting 'tetragonal'
loop_
_space_group_symop_operation_xyz
x,y,z
1/4-y,3/4+x,1/4+z
-x,1/2-y,z
1/4+y,1/4-x,3/4+z
x,-y,-z
-x,1/2+y,-z
1/4+y,3/4+x,1/4-z
1/4-y,1/4-x,3/4-z
-x,-y,-z
3/4+y,1/4-x,3/4-z
x,1/2+y,-z
3/4-y,3/4+x,1/4-z
-x,y,z
x,1/2-y,z
3/4-y,1/4-x,3/4+z
3/4+y,3/4+x,1/4+z
1/2+x,1/2+y,1/2+z
3/4-y,1/4+x,3/4+z
1/2-x,-y,1/2+z
3/4+y,3/4-x,1/4+z
1/2+x,1/2-y,1/2-z
1/2-x,y,1/2-z
3/4+y,1/4+x,3/4-z
3/4-y,3/4-x,1/4-z
1/2-x,1/2-y,1/2-z
1/4+y,3/4-x,1/4-z
1/2+x,y,1/2-z
1/4-y,1/4+x,3/4-z
1/2-x,1/2+y,1/2+z
1/2+x,-y,1/2+z
1/4-y,3/4-x,1/4+z
1/4+y,1/4+x,3/4+z
loop_
_atom_site_type_symbol
_atom_site_label
_atom_site_fract_x
_atom_site_fract_y
_atom_site_fract_z
Si Si1 0.647045 0.750000 0.415727
Si Si2 0.639403 0.750000 0.159083
Si Si3 0.749321 0.022421 0.799277
Si Si4 0.862037 0.887964 0.625000
O O1 0.500000 0.750000 0.412596
O O2 0.747077 0.750000 0.375618
O O3 0.678428 0.630770 0.440830
O O4 0.500000 0.750000 0.142298
O O5 0.660090 0.867931 0.188381
O O6 0.750000 0.983879 0.750000
O O7 0.719050 0.921160 0.834271
O O8 0.844210 0.750000 0.612561
#
# Coordination Sequence:
#
# PCOD9573345 Si02
#       4
#    16  16  32  16
#     4  12  26  45  71 108 149 188 229 297 366 421
#     4  12  25  43  69 100 140 186 234 287 347 423
#     4  12  27  43  71 103 140 181 234 289 355 426
#     4  11  26  50  71  94 138 186 233 292 356 421
#
# _framework density 20.831443
#
# number of rings (size 3 to 8) (size 9 to 14) (size 15 to 20)
#    0.000    0.200    6.000    1.800    8.400    0.800 
#    0.000    0.000    0.000    0.000    0.000    0.000 
#    0.000    0.000    0.000    0.000    0.000    0.000 
#
# Total GULP energy -223161.920909 kJ/mol
# GULP energy per Si atom -5579.048023 kJ/mol
# Density = 2.078403 g / cm^3
# Si number density = 20.831443 Si / 1000 Ang^3
#
#
#
# Elastic Constant Matrix: (Units=GPa)
#
#
# Indices 1 2 3 4 5 6 
#
# 1 105.3894 38.3453 34.9142 0.0000 0.0000 0.0000
# 2 38.3453 105.3889 34.9145 0.0000 0.0000 0.0000
# 3 34.9142 34.9145 154.1140 0.0000 0.0000 0.0000
# 4 0.0000 0.0000 0.0000 43.2047 0.0000 0.0000
# 5 0.0000 0.0000 0.0000 0.0000 43.2038 0.0000
# 6 0.0000 0.0000 0.0000 0.0000 0.0000 31.6367
#
#
#
# Elastic Compliance Matrix: (Units=1/GPa)
#
#
# Indices 1 2 3 4 5 6 
#
# 1 0.011367 -0.003549 -0.001771 0.000000 0.000000 0.000000
# 2 -0.003549 0.011367 -0.001771 0.000000 0.000000 0.000000
# 3 -0.001771 -0.001771 0.007291 0.000000 0.000000 0.000000
# 4 0.000000 0.000000 0.000000 0.023146 0.000000 0.000000
# 5 0.000000 0.000000 0.000000 0.000000 0.023146 0.000000
# 6 0.000000 0.000000 0.000000 0.000000 0.000000 0.031609
#
#
# Mechanical properties :
#
#
# Convention : Reuss Voigt Hill
#
# Bulk Modulus (GPa) = 63.12245 64.58224 63.85235
# Shear Modulus (GPa) = 39.25013 40.72359 39.98686
#
# Velocity S-wave (km/s) = 4.34542 4.42623 4.38601
# Velocity P-wave (km/s) = 7.45280 7.56252 7.50786
#
# Compressibility (1/GPa) = 0.01584222
#
# Stress axis : x y z
#
# Youngs Moduli (GPa) = 87.97694 87.97630 137.15198
#
# Poissons Ratio (x) = 0.31222 0.24291
# Poissons Ratio (y) = 0.31223 0.24291
# Poissons Ratio (z) = 0.15581 0.15582
#
# Static dielectric constant tensor:
#      x y z
#    x 1.517260 0.000000 0.000000 
#    y 0.000000 1.517240 0.000000 
#    z 0.000000 0.000000 1.778580 
# 
# From -- ./inp_files/13647.got.cif
#   From: 2010.05.17/outbox.cif.g08.bks.cpg/sg141_7_cif.got.tgz:13647.got - 2010.05.20 13:30:51.
