data_PCOD9573616
_publ_section_title
;
Structure prediction by ZEFSAII (Michael W. Deem and Ramdas Pophale) SiO2 
 PCOD9573616
Probable space group: I 41/A C D
;
_chemical_formula_sum "Si O2"
_cell_formula_units_Z 160
_cell_length_a 25.630226
_cell_length_b 25.630226
_cell_length_c 13.243334
_cell_angle_alpha 90.000000
_cell_angle_beta 90.000000
_cell_angle_gamma 90.000000
_cell_volume 8699.658472
_symmetry_space_group_name_H-M "I 41/A C D"
_symmetry_group_IT_number 142
_space_group.IT_coordinate_system_code '2'
_symmetry_cell_setting 'tetragonal'
loop_
_space_group_symop_operation_xyz
x,y,z
1/4-y,3/4+x,1/4+z
-x,1/2-y,z
1/4+y,1/4-x,3/4+z
x,-y,1/2-z
1/2-x,y,-z
3/4+y,1/4+x,1/4-z
1/4-y,1/4-x,1/4-z
-x,-y,-z
3/4+y,1/4-x,3/4-z
x,1/2+y,-z
3/4-y,3/4+x,1/4-z
-x,y,1/2+z
1/2+x,-y,z
1/4-y,3/4-x,3/4+z
3/4+y,3/4+x,3/4+z
1/2+x,1/2+y,1/2+z
3/4-y,1/4+x,3/4+z
1/2-x,-y,1/2+z
3/4+y,3/4-x,1/4+z
1/2+x,1/2-y,-z
-x,1/2+y,1/2-z
1/4+y,3/4+x,3/4-z
3/4-y,3/4-x,3/4-z
1/2-x,1/2-y,1/2-z
1/4+y,3/4-x,1/4-z
1/2+x,y,1/2-z
1/4-y,1/4+x,3/4-z
1/2-x,1/2+y,z
x,1/2-y,1/2+z
3/4-y,1/4-x,1/4+z
1/4+y,1/4+x,1/4+z
loop_
_atom_site_type_symbol
_atom_site_label
_atom_site_fract_x
_atom_site_fract_y
_atom_site_fract_z
Si Si1 0.531344 0.802500 0.506776
Si Si2 0.128589 0.459591 0.159214
Si Si3 0.448880 0.970321 0.460131
Si Si4 0.145426 0.791162 0.019860
Si Si5 0.456874 0.120883 0.901761
O O1 0.500000 0.750000 0.481189
O O2 0.545946 0.795946 0.625000
O O3 0.585832 0.804174 0.448345
O O4 0.495846 0.853529 0.514451
O O5 0.138573 0.500000 0.250000
O O6 0.180494 0.430494 0.125000
O O7 0.096795 0.490308 0.072588
O O8 0.088675 0.416153 0.201628
O O9 0.462969 0.936561 0.360309
O O10 0.432690 0.929832 0.547019
O O11 0.500000 0.000000 0.500000
O O12 0.142910 0.740290 0.948041
O O13 0.414952 0.164952 0.875000
#
# Coordination Sequence:
#
# PCOD9573616 Si02
#       5
#    32  32  32  32  32
#     4   9  15  31  54  84 122 165 185 217 291 374
#     4  10  21  42  66  87 112 160 220 265 309 366
#     4  11  24  38  59  88 119 162 212 255 305 366
#     4  10  20  36  61  87 124 166 204 239 300 374
#     4  11  20  36  58  89 136 160 193 248 304 372
#
# _framework density 18.391525999999999
#
# number of rings (size 3 to 8) (size 9 to 14) (size 15 to 20)
#    0.000    1.800    6.000    1.800    0.000    1.600 
#    3.600    1.000    0.000    0.000    0.000    0.000 
#    0.000    0.000    0.000    0.000    0.000    0.000 
#
# Total GULP energy -446486.618556 kJ/mol
# GULP energy per Si atom -5581.082732 kJ/mol
# Density = 1.834967 g / cm^3
# Si number density = 18.391526 Si / 1000 Ang^3
#
#
#
# Elastic Constant Matrix: (Units=GPa)
#
#
# Indices 1 2 3 4 5 6 
#
# 1 105.7998 56.5631 31.0108 0.0000 0.0000 0.0000
# 2 56.5631 105.7998 31.0108 0.0000 0.0000 0.0000
# 3 31.0108 31.0108 59.4427 0.0000 0.0000 0.0000
# 4 0.0000 0.0000 0.0000 24.3183 0.0000 0.0000
# 5 0.0000 0.0000 0.0000 0.0000 24.3183 0.0000
# 6 0.0000 0.0000 0.0000 0.0000 0.0000 40.5220
#
#
#
# Elastic Compliance Matrix: (Units=1/GPa)
#
#
# Indices 1 2 3 4 5 6 
#
# 1 0.014001 -0.006309 -0.004013 0.000000 0.000000 0.000000
# 2 -0.006309 0.014001 -0.004013 0.000000 0.000000 0.000000
# 3 -0.004013 -0.004013 0.021010 0.000000 0.000000 0.000000
# 4 0.000000 0.000000 0.000000 0.041121 0.000000 0.000000
# 5 0.000000 0.000000 0.000000 0.000000 0.041121 0.000000
# 6 0.000000 0.000000 0.000000 0.000000 0.000000 0.024678
#
#
# Mechanical properties :
#
#
# Convention : Reuss Voigt Hill
#
# Bulk Modulus (GPa) = 49.15841 56.46797 52.81319
# Shear Modulus (GPa) = 26.12568 27.99555 27.06062
#
# Velocity S-wave (km/s) = 3.77308 3.90577 3.84000
# Velocity P-wave (km/s) = 6.76523 7.14912 6.95982
#
# Compressibility (1/GPa) = 0.02034240
#
# Stress axis : x y z
#
# Youngs Moduli (GPa) = 71.42358 71.42358 47.59679
#
# Poissons Ratio (x) = 0.45062 0.19100
# Poissons Ratio (y) = 0.45062 0.19100
# Poissons Ratio (z) = 0.28661 0.28661
#
# Static dielectric constant tensor:
#      x y z
#    x 1.663450 0.000000 0.000000 
#    y 0.000000 1.663450 0.000000 
#    z 0.000000 0.000000 1.668970 
# 
# From -- ./inp_files/5380.got.cif
#   From: 2010.05.17/outbox.cif.g08.bks.cpg/sg142_3_cif.got.tgz:5380.got - 2010.05.20 13:39:18.
