data_PCOD9573449
_publ_section_title
;
Structure prediction by ZEFSAII (Michael W. Deem and Ramdas Pophale) SiO2 
 PCOD9573449
Probable space group: I 41/A C D
;
_chemical_formula_sum "Si O2"
_cell_formula_units_Z 144
_cell_length_a 30.880498
_cell_length_b 30.880498
_cell_length_c 8.952195
_cell_angle_alpha 90.000000
_cell_angle_beta 90.000000
_cell_angle_gamma 90.000000
_cell_volume 8536.859316
_symmetry_space_group_name_H-M "I 41/A C D"
_symmetry_group_IT_number 142
_space_group.IT_coordinate_system_code '2'
_symmetry_cell_setting 'tetragonal'
loop_
_space_group_symop_operation_xyz
x,y,z
1/4-y,3/4+x,1/4+z
-x,1/2-y,z
1/4+y,1/4-x,3/4+z
x,-y,1/2-z
1/2-x,y,-z
3/4+y,1/4+x,1/4-z
1/4-y,1/4-x,1/4-z
-x,-y,-z
3/4+y,1/4-x,3/4-z
x,1/2+y,-z
3/4-y,3/4+x,1/4-z
-x,y,1/2+z
1/2+x,-y,z
1/4-y,3/4-x,3/4+z
3/4+y,3/4+x,3/4+z
1/2+x,1/2+y,1/2+z
3/4-y,1/4+x,3/4+z
1/2-x,-y,1/2+z
3/4+y,3/4-x,1/4+z
1/2+x,1/2-y,-z
-x,1/2+y,1/2-z
1/4+y,3/4+x,3/4-z
3/4-y,3/4-x,3/4-z
1/2-x,1/2-y,1/2-z
1/4+y,3/4-x,1/4-z
1/2+x,y,1/2-z
1/4-y,1/4+x,3/4-z
1/2-x,1/2+y,z
x,1/2-y,1/2+z
3/4-y,1/4-x,1/4+z
1/4+y,1/4+x,1/4+z
loop_
_atom_site_type_symbol
_atom_site_label
_atom_site_fract_x
_atom_site_fract_y
_atom_site_fract_z
Si Si1 0.392599 0.952636 0.728714
Si Si2 0.250000 0.447678 0.000000
Si Si3 0.941484 0.553048 0.765338
Si Si4 0.177886 0.387940 0.847384
Si Si5 0.706108 0.771218 0.823832
O O1 0.388115 0.942119 0.552965
O O2 0.363787 0.916737 0.811001
O O3 0.440416 0.957211 0.801852
O O4 0.371814 0.000000 0.750000
O O5 0.225795 0.475795 0.125000
O O6 0.284078 0.418577 0.091796
O O7 0.934601 0.500000 0.750000
O O8 0.898195 0.577284 0.722330
O O9 0.980227 0.564685 0.653420
O O10 0.956637 0.564265 0.930436
O O11 0.750000 0.750000 0.750000
#
# Coordination Sequence:
#
# PCOD9573449 Si02
#       5
#    32  16  32  32  32
#     4  11  22  37  55  76 110 149 189 241 293 343
#     4  12  28  40  54  72 102 154 208 250 286 336
#     4  10  18  33  52  78 103 137 179 232 286 348
#     4  11  24  37  54  77 108 144 194 242 292 341
#     4  10  20  33  57  79 106 139 184 234 294 356
#
# _framework density 16.868030000000001
#
# number of rings (size 3 to 8) (size 9 to 14) (size 15 to 20)
#    0.000    1.333    1.111    7.333    7.778    0.000 
#    0.000    0.000    0.000    0.000    0.000    0.000 
#    0.000    0.889    0.000   18.222    0.000    9.111 
#
# Total GULP energy -401350.117333 kJ/mol
# GULP energy per Si atom -5574.307185 kJ/mol
# Density = 1.682964 g / cm^3
# Si number density = 16.868030 Si / 1000 Ang^3
#
#
#
# Elastic Constant Matrix: (Units=GPa)
#
#
# Indices 1 2 3 4 5 6 
#
# 1 80.8533 37.6940 40.8163 0.0000 0.0000 0.0000
# 2 37.6940 80.8533 40.8163 0.0000 0.0000 0.0000
# 3 40.8163 40.8163 76.6994 0.0000 0.0000 0.0000
# 4 0.0000 0.0000 0.0000 32.0064 0.0000 0.0000
# 5 0.0000 0.0000 0.0000 0.0000 32.0064 0.0000
# 6 0.0000 0.0000 0.0000 0.0000 0.0000 6.3401
#
#
#
# Elastic Compliance Matrix: (Units=1/GPa)
#
#
# Indices 1 2 3 4 5 6 
#
# 1 0.018242 -0.004928 -0.007085 0.000000 0.000000 0.000000
# 2 -0.004928 0.018242 -0.007085 0.000000 0.000000 0.000000
# 3 -0.007085 -0.007085 0.020579 0.000000 0.000000 0.000000
# 4 0.000000 0.000000 0.000000 0.031244 0.000000 0.000000
# 5 0.000000 0.000000 0.000000 0.000000 0.031244 0.000000
# 6 0.000000 0.000000 0.000000 0.000000 0.000000 0.157725
#
#
# Mechanical properties :
#
#
# Convention : Reuss Voigt Hill
#
# Bulk Modulus (GPa) = 53.00442 53.00660 53.00551
# Shear Modulus (GPa) = 15.53942 22.00921 18.77431
#
# Velocity S-wave (km/s) = 3.03848 3.61610 3.33980
# Velocity P-wave (km/s) = 6.61823 6.99482 6.80913
#
# Compressibility (1/GPa) = 0.01886635
#
# Stress axis : x y z
#
# Youngs Moduli (GPa) = 54.81771 54.81771 48.59293
#
# Poissons Ratio (x) = 0.27013 0.34430
# Poissons Ratio (y) = 0.27013 0.34430
# Poissons Ratio (z) = 0.38841 0.38841
#
# Static dielectric constant tensor:
#      x y z
#    x 1.580340 0.000000 0.000000 
#    y 0.000000 1.580340 0.000000 
#    z 0.000000 0.000000 1.632740 
# 
# From -- ./inp_files/2117.got.cif
#   From: 2010.05.17/outbox.cif.g08.bks.cpg/sg142_2_cif.got.tgz:2117.got - 2010.05.20 13:39:18.
