data_PCOD9573177
_publ_section_title
;
Structure prediction by ZEFSAII (Michael W. Deem and Ramdas Pophale) SiO2 
 PCOD9573177
Probable space group: I 41/A M D
;
_chemical_formula_sum "Si O2"
_cell_formula_units_Z 192
_cell_length_a 16.942736
_cell_length_b 16.942736
_cell_length_c 32.107128
_cell_angle_alpha 90.000000
_cell_angle_beta 90.000000
_cell_angle_gamma 90.000000
_cell_volume 9216.553469
_symmetry_space_group_name_H-M "I 41/A M D"
_symmetry_group_IT_number 141
_space_group.IT_coordinate_system_code '2'
_symmetry_cell_setting 'tetragonal'
loop_
_space_group_symop_operation_xyz
x,y,z
1/4-y,3/4+x,1/4+z
-x,1/2-y,z
1/4+y,1/4-x,3/4+z
x,-y,-z
-x,1/2+y,-z
1/4+y,3/4+x,1/4-z
1/4-y,1/4-x,3/4-z
-x,-y,-z
3/4+y,1/4-x,3/4-z
x,1/2+y,-z
3/4-y,3/4+x,1/4-z
-x,y,z
x,1/2-y,z
3/4-y,1/4-x,3/4+z
3/4+y,3/4+x,1/4+z
1/2+x,1/2+y,1/2+z
3/4-y,1/4+x,3/4+z
1/2-x,-y,1/2+z
3/4+y,3/4-x,1/4+z
1/2+x,1/2-y,1/2-z
1/2-x,y,1/2-z
3/4+y,1/4+x,3/4-z
3/4-y,3/4-x,1/4-z
1/2-x,1/2-y,1/2-z
1/4+y,3/4-x,1/4-z
1/2+x,y,1/2-z
1/4-y,1/4+x,3/4-z
1/2-x,1/2+y,1/2+z
1/2+x,-y,1/2+z
1/4-y,3/4-x,1/4+z
1/4+y,1/4+x,3/4+z
loop_
_atom_site_type_symbol
_atom_site_label
_atom_site_fract_x
_atom_site_fract_y
_atom_site_fract_z
Si Si1 0.823345 0.037761 0.953338
Si Si2 0.846124 0.462730 0.332284
Si Si3 0.690001 0.343475 0.933296
Si Si4 0.311110 0.250000 0.711290
Si Si5 0.368121 0.660561 0.602617
Si Si6 0.000000 0.842458 0.961849
Si Si7 0.594628 0.158827 0.234973
O O1 0.771650 0.117177 0.948626
O O2 0.914712 0.051223 0.939767
O O3 0.769077 0.978122 0.927328
O O4 0.824781 0.000000 0.000000
O O5 0.832417 0.417584 0.375000
O O6 0.913109 0.528352 0.337427
O O7 0.862228 0.399778 0.296588
O O8 0.700665 0.250000 0.928967
O O9 0.650487 0.374126 0.890627
O O10 0.625278 0.359213 0.969122
O O11 0.250000 0.250000 0.750000
O O12 0.389051 0.250000 0.739544
O O13 0.393019 0.750000 0.614918
O O14 0.423392 0.631364 0.564435
O O15 0.000000 0.750000 0.958324
O O16 0.500000 0.154895 0.227495
O O17 0.619113 0.250000 0.231001
#
# Coordination Sequence:
#
# PCOD9573177 Si02
#       7
#    32  32  32  16  32  16  32
#     4  11  22  43  63  93 128 168 219 271 329 405
#     4  12  24  40  62  91 128 166 220 275 326 390
#     4  11  22  40  65  93 129 172 217 269 326 398
#     4  10  22  40  66  90 128 170 212 270 332 402
#     4  11  22  38  62  94 132 166 211 270 336 392
#     4  10  22  38  64 100 128 162 210 276 340 396
#     4  10  23  42  64  90 126 176 225 267 323 391
#
# _framework density 20.832082
#
# number of rings (size 3 to 8) (size 9 to 14) (size 15 to 20)
#    0.000    1.167    4.167    3.000    0.000    2.667 
#    0.000    1.667    0.000    0.000    0.000    0.000 
#    0.000    0.000    0.000    0.000    0.000    0.000 
#
# Total GULP energy -535883.196485 kJ/mol
# GULP energy per Si atom -5582.116630 kJ/mol
# Density = 2.078467 g / cm^3
# Si number density = 20.832082 Si / 1000 Ang^3
#
#
#
# Elastic Constant Matrix: (Units=GPa)
#
#
# Indices 1 2 3 4 5 6 
#
# 1 120.7668 46.7441 27.4287 0.0000 0.0000 0.0000
# 2 46.7441 120.7687 27.4297 0.0000 0.0000 0.0000
# 3 27.4287 27.4297 51.2929 0.0000 0.0000 0.0000
# 4 0.0000 0.0000 0.0000 20.8057 0.0000 0.0000
# 5 0.0000 0.0000 0.0000 0.0000 20.8050 0.0000
# 6 0.0000 0.0000 0.0000 0.0000 0.0000 26.2630
#
#
#
# Elastic Compliance Matrix: (Units=1/GPa)
#
#
# Indices 1 2 3 4 5 6 
#
# 1 0.010373 -0.003136 -0.003870 0.000000 0.000000 0.000000
# 2 -0.003136 0.010373 -0.003870 0.000000 0.000000 0.000000
# 3 -0.003870 -0.003870 0.023635 0.000000 0.000000 0.000000
# 4 0.000000 0.000000 0.000000 0.048064 0.000000 0.000000
# 5 0.000000 0.000000 0.000000 0.000000 0.048065 0.000000
# 6 0.000000 0.000000 0.000000 0.000000 0.000000 0.038076
#
#
# Mechanical properties :
#
#
# Convention : Reuss Voigt Hill
#
# Bulk Modulus (GPa) = 44.19134 55.11483 49.65309
# Shear Modulus (GPa) = 24.05207 26.32313 25.18760
#
# Velocity S-wave (km/s) = 3.40158 3.55855 3.48095
# Velocity P-wave (km/s) = 6.05697 6.58776 6.32793
#
# Compressibility (1/GPa) = 0.02262887
#
# Stress axis : x y z
#
# Youngs Moduli (GPa) = 96.40215 96.40296 42.31010
#
# Poissons Ratio (x) = 0.30232 0.16374
# Poissons Ratio (y) = 0.30232 0.16375
# Poissons Ratio (z) = 0.37308 0.37310
#
# Static dielectric constant tensor:
#      x y z
#    x 1.754350 0.000000 0.000000 
#    y 0.000000 1.754350 0.000000 
#    z 0.000000 0.000000 1.134060 
# 
# From -- ./inp_files/14468.got.cif
#   From: 2010.05.17/outbox.cif.g08.bks.cpg/sg141_8_cif.got.tgz:14468.got - 2010.05.20 13:30:51.
