data_PCOD9573445
_publ_section_title
;
Structure prediction by ZEFSAII (Michael W. Deem and Ramdas Pophale) SiO2 
 PCOD9573445
Probable space group: I 41/A C D
;
_chemical_formula_sum "Si O2"
_cell_formula_units_Z 168
_cell_length_a 19.564275
_cell_length_b 19.564275
_cell_length_c 23.665908
_cell_angle_alpha 90.000000
_cell_angle_beta 90.000000
_cell_angle_gamma 90.000000
_cell_volume 9058.383211
_symmetry_space_group_name_H-M "I 41/A C D"
_symmetry_group_IT_number 142
_space_group.IT_coordinate_system_code '2'
_symmetry_cell_setting 'tetragonal'
loop_
_space_group_symop_operation_xyz
x,y,z
1/4-y,3/4+x,1/4+z
-x,1/2-y,z
1/4+y,1/4-x,3/4+z
x,-y,1/2-z
1/2-x,y,-z
3/4+y,1/4+x,1/4-z
1/4-y,1/4-x,1/4-z
-x,-y,-z
3/4+y,1/4-x,3/4-z
x,1/2+y,-z
3/4-y,3/4+x,1/4-z
-x,y,1/2+z
1/2+x,-y,z
1/4-y,3/4-x,3/4+z
3/4+y,3/4+x,3/4+z
1/2+x,1/2+y,1/2+z
3/4-y,1/4+x,3/4+z
1/2-x,-y,1/2+z
3/4+y,3/4-x,1/4+z
1/2+x,1/2-y,-z
-x,1/2+y,1/2-z
1/4+y,3/4+x,3/4-z
3/4-y,3/4-x,3/4-z
1/2-x,1/2-y,1/2-z
1/4+y,3/4-x,1/4-z
1/2+x,y,1/2-z
1/4-y,1/4+x,3/4-z
1/2-x,1/2+y,z
x,1/2-y,1/2+z
3/4-y,1/4-x,1/4+z
1/4+y,1/4+x,1/4+z
loop_
_atom_site_type_symbol
_atom_site_label
_atom_site_fract_x
_atom_site_fract_y
_atom_site_fract_z
Si Si1 0.368555 0.700309 0.561638
Si Si2 0.830380 0.690202 0.237431
Si Si3 0.519946 0.360289 0.615217
Si Si4 0.000000 0.250000 0.625000
Si Si5 0.676901 0.309560 0.023858
Si Si6 0.691045 0.693282 0.180013
O O1 0.432429 0.744291 0.586704
O O2 0.340374 0.738862 0.507861
O O3 0.399104 0.625060 0.552148
O O4 0.313338 0.695290 0.612193
O O5 0.860103 0.747520 0.194596
O O6 0.884652 0.630156 0.242267
O O7 0.760405 0.666057 0.207735
O O8 0.816842 0.730204 0.295293
O O9 0.450887 0.324618 0.639348
O O10 0.547016 0.416431 0.659332
O O11 0.750000 0.331485 0.000000
#
# Coordination Sequence:
#
# PCOD9573445 Si02
#       6
#    32  32  32   8  32  32
#     4  10  18  32  52  78 100 128 173 210 256 296
#     4  10  19  34  51  75 104 132 168 205 258 305
#     4   9  18  31  50  73  99 132 169 210 252 298
#     4   8  16  28  52  76  94 116 156 224 252 274
#     4  11  21  32  50  74 104 134 166 209 249 302
#     4   9  19  33  55  74  98 131 164 215 256 299
#
# _framework density 18.546355999999999
#
# number of rings (size 3 to 8) (size 9 to 14) (size 15 to 20)
#    0.000    2.476    0.000    4.571    0.000    3.048 
#    0.000    0.952    0.000   20.571    0.000    0.000 
#    0.000    0.000    0.000    0.000    0.000    0.000 
#
# Total GULP energy -468547.054613 kJ/mol
# GULP energy per Si atom -5577.941126 kJ/mol
# Density = 1.850414 g / cm^3
# Si number density = 18.546356 Si / 1000 Ang^3
#
#
#
# Elastic Constant Matrix: (Units=GPa)
#
#
# Indices 1 2 3 4 5 6 
#
# 1 54.1510 14.7018 18.4776 0.0000 0.0000 0.0000
# 2 14.7018 54.1510 18.4776 0.0000 0.0000 0.0000
# 3 18.4776 18.4776 50.7961 0.0000 0.0000 0.0000
# 4 0.0000 0.0000 0.0000 17.9267 0.0000 0.0000
# 5 0.0000 0.0000 0.0000 0.0000 17.9267 0.0000
# 6 0.0000 0.0000 0.0000 0.0000 0.0000 13.2675
#
#
#
# Elastic Compliance Matrix: (Units=1/GPa)
#
#
# Indices 1 2 3 4 5 6 
#
# 1 0.021698 -0.003651 -0.006565 0.000000 0.000000 0.000000
# 2 -0.003651 0.021698 -0.006565 0.000000 0.000000 0.000000
# 3 -0.006565 -0.006565 0.024463 0.000000 0.000000 0.000000
# 4 0.000000 0.000000 0.000000 0.055783 0.000000 0.000000
# 5 0.000000 0.000000 0.000000 0.000000 0.055783 0.000000
# 6 0.000000 0.000000 0.000000 0.000000 0.000000 0.075372
#
#
# Mechanical properties :
#
#
# Convention : Reuss Voigt Hill
#
# Bulk Modulus (GPa) = 29.15652 29.15693 29.15673
# Shear Modulus (GPa) = 16.67831 16.98692 16.83262
#
# Velocity S-wave (km/s) = 3.00205 3.02969 3.01590
# Velocity P-wave (km/s) = 5.26986 5.29093 5.28041
#
# Compressibility (1/GPa) = 0.03429764
#
# Stress axis : x y z
#
# Youngs Moduli (GPa) = 46.08685 46.08685 40.87867
#
# Poissons Ratio (x) = 0.16826 0.26836
# Poissons Ratio (y) = 0.16826 0.26836
# Poissons Ratio (z) = 0.30256 0.30256
#
# Static dielectric constant tensor:
#      x y z
#    x 1.638880 0.000000 0.000000 
#    y 0.000000 1.638880 0.000000 
#    z 0.000000 0.000000 1.653780 
# 
# From -- ./inp_files/10334.got.cif
#   From: 2010.05.17/outbox.cif.g08.bks.cpg/sg142_6_cif.got.tgz:10334.got - 2010.05.20 13:39:18.
