data_PCOD9573736
_publ_section_title
;
Structure prediction by ZEFSAII (Michael W. Deem and Ramdas Pophale) SiO2 
 PCOD9573736
Probable space group: I 41/A C D
;
_chemical_formula_sum "Si O2"
_cell_formula_units_Z 160
_cell_length_a 27.338675
_cell_length_b 27.338675
_cell_length_c 9.992529
_cell_angle_alpha 90.000000
_cell_angle_beta 90.000000
_cell_angle_gamma 90.000000
_cell_volume 7468.447659
_symmetry_space_group_name_H-M "I 41/A C D"
_symmetry_group_IT_number 142
_space_group.IT_coordinate_system_code '2'
_symmetry_cell_setting 'tetragonal'
loop_
_space_group_symop_operation_xyz
x,y,z
1/4-y,3/4+x,1/4+z
-x,1/2-y,z
1/4+y,1/4-x,3/4+z
x,-y,1/2-z
1/2-x,y,-z
3/4+y,1/4+x,1/4-z
1/4-y,1/4-x,1/4-z
-x,-y,-z
3/4+y,1/4-x,3/4-z
x,1/2+y,-z
3/4-y,3/4+x,1/4-z
-x,y,1/2+z
1/2+x,-y,z
1/4-y,3/4-x,3/4+z
3/4+y,3/4+x,3/4+z
1/2+x,1/2+y,1/2+z
3/4-y,1/4+x,3/4+z
1/2-x,-y,1/2+z
3/4+y,3/4-x,1/4+z
1/2+x,1/2-y,-z
-x,1/2+y,1/2-z
1/4+y,3/4+x,3/4-z
3/4-y,3/4-x,3/4-z
1/2-x,1/2-y,1/2-z
1/4+y,3/4-x,1/4-z
1/2+x,y,1/2-z
1/4-y,1/4+x,3/4-z
1/2-x,1/2+y,z
x,1/2-y,1/2+z
3/4-y,1/4-x,1/4+z
1/4+y,1/4+x,1/4+z
loop_
_atom_site_type_symbol
_atom_site_label
_atom_site_fract_x
_atom_site_fract_y
_atom_site_fract_z
Si Si1 0.616237 0.161988 0.151755
Si Si2 0.642889 0.392889 0.375000
Si Si3 0.346229 0.096229 0.875000
Si Si4 0.750000 0.238676 0.000000
Si Si5 0.520830 0.601497 0.854051
Si Si6 0.421882 0.530677 0.524233
Si Si7 0.250000 0.373328 0.500000
O O1 0.650080 0.141022 0.270563
O O2 0.622491 0.219688 0.133750
O O3 0.562538 0.140194 0.188387
O O4 0.630514 0.138309 0.008273
O O5 0.627294 0.447991 0.410316
O O6 0.347199 0.048770 0.781837
O O7 0.695987 0.263588 0.006546
O O8 0.747792 0.203411 0.128757
O O9 0.543473 0.576603 0.987104
O O10 0.408051 0.507990 0.383094
#
# Coordination Sequence:
#
# PCOD9573736 Si02
#       7
#    32  16  16  16  32  32  16
#     4  11  25  42  71  98 150 184 241 292 366 431
#     4  10  20  46  59  99 132 186 215 299 344 430
#     4  12  26  46  71 107 142 188 235 313 360 438
#     4  12  23  40  72 103 138 186 241 298 352 429
#     4  11  24  41  66 106 140 190 238 294 359 429
#     4  11  24  41  72 101 141 174 241 292 358 424
#     4  12  25  48  72 109 138 188 235 310 366 437
#
# _framework density 21.423461
#
# number of rings (size 3 to 8) (size 9 to 14) (size 15 to 20)
#    0.000    0.800    6.000    2.400    2.800    0.400 
#    0.000    1.000    0.000    2.400    0.000    0.000 
#    0.000    0.000    0.000    0.000    0.000    0.000 
#
# Total GULP energy -446510.943264 kJ/mol
# GULP energy per Si atom -5581.386791 kJ/mol
# Density = 2.137470 g / cm^3
# Si number density = 21.423461 Si / 1000 Ang^3
#
#
#
# Elastic Constant Matrix: (Units=GPa)
#
#
# Indices 1 2 3 4 5 6 
#
# 1 106.3216 53.2215 26.0034 0.0000 0.0000 0.0000
# 2 53.2215 106.3216 26.0034 0.0000 0.0000 0.0000
# 3 26.0034 26.0034 107.3136 0.0000 0.0000 0.0000
# 4 0.0000 0.0000 0.0000 32.7149 0.0000 0.0000
# 5 0.0000 0.0000 0.0000 0.0000 32.7149 0.0000
# 6 0.0000 0.0000 0.0000 0.0000 0.0000 16.9397
#
#
#
# Elastic Compliance Matrix: (Units=1/GPa)
#
#
# Indices 1 2 3 4 5 6 
#
# 1 0.012819 -0.006013 -0.001649 0.000000 0.000000 0.000000
# 2 -0.006013 0.012819 -0.001649 0.000000 0.000000 0.000000
# 3 -0.001649 -0.001649 0.010118 0.000000 0.000000 0.000000
# 4 0.000000 0.000000 0.000000 0.030567 0.000000 0.000000
# 5 0.000000 0.000000 0.000000 0.000000 0.030567 0.000000
# 6 0.000000 0.000000 0.000000 0.000000 0.000000 0.059033
#
#
# Mechanical properties :
#
#
# Convention : Reuss Voigt Hill
#
# Bulk Modulus (GPa) = 58.36906 58.93482 58.65194
# Shear Modulus (GPa) = 27.73828 30.78916 29.26372
#
# Velocity S-wave (km/s) = 3.60218 3.79512 3.69991
# Velocity P-wave (km/s) = 6.67874 6.83908 6.75938
#
# Compressibility (1/GPa) = 0.01713237
#
# Stress axis : x y z
#
# Youngs Moduli (GPa) = 78.00983 78.00983 98.83719
#
# Poissons Ratio (x) = 0.46911 0.16299
# Poissons Ratio (y) = 0.46911 0.16299
# Poissons Ratio (z) = 0.12864 0.12864
#
# Static dielectric constant tensor:
#      x y z
#    x 1.820530 0.000000 0.000000 
#    y 0.000000 1.820530 0.000000 
#    z 0.000000 0.000000 1.808440 
# 
# From -- ./inp_files/2271.got.cif
#   From: 2010.05.17/outbox.cif.g08.bks.cpg/sg142_2_cif.got.tgz:2271.got - 2010.05.20 13:39:18.
