data_PCOD9573114
_publ_section_title
;
Structure prediction by ZEFSAII (Michael W. Deem and Ramdas Pophale) SiO2 
 PCOD9573114
Probable space group: I 41/A M D
;
_chemical_formula_sum "Si O2"
_cell_formula_units_Z 160
_cell_length_a 21.504814
_cell_length_b 21.504814
_cell_length_c 17.100235
_cell_angle_alpha 90.000000
_cell_angle_beta 90.000000
_cell_angle_gamma 90.000000
_cell_volume 7908.123808
_symmetry_space_group_name_H-M "I 41/A M D"
_symmetry_group_IT_number 141
_space_group.IT_coordinate_system_code '2'
_symmetry_cell_setting 'tetragonal'
loop_
_space_group_symop_operation_xyz
x,y,z
1/4-y,3/4+x,1/4+z
-x,1/2-y,z
1/4+y,1/4-x,3/4+z
x,-y,-z
-x,1/2+y,-z
1/4+y,3/4+x,1/4-z
1/4-y,1/4-x,3/4-z
-x,-y,-z
3/4+y,1/4-x,3/4-z
x,1/2+y,-z
3/4-y,3/4+x,1/4-z
-x,y,z
x,1/2-y,z
3/4-y,1/4-x,3/4+z
3/4+y,3/4+x,1/4+z
1/2+x,1/2+y,1/2+z
3/4-y,1/4+x,3/4+z
1/2-x,-y,1/2+z
3/4+y,3/4-x,1/4+z
1/2+x,1/2-y,1/2-z
1/2-x,y,1/2-z
3/4+y,1/4+x,3/4-z
3/4-y,3/4-x,1/4-z
1/2-x,1/2-y,1/2-z
1/4+y,3/4-x,1/4-z
1/2+x,y,1/2-z
1/4-y,1/4+x,3/4-z
1/2-x,1/2+y,1/2+z
1/2+x,-y,1/2+z
1/4-y,3/4-x,1/4+z
1/4+y,1/4+x,3/4+z
loop_
_atom_site_type_symbol
_atom_site_label
_atom_site_fract_x
_atom_site_fract_y
_atom_site_fract_z
Si Si1 0.070617 0.466676 0.084463
Si Si2 0.428081 0.948093 0.818474
Si Si3 0.156798 0.182634 0.919016
Si Si4 0.676758 0.143974 0.240649
Si Si5 0.160945 0.350858 0.089509
O O1 0.075907 0.520262 0.149972
O O2 0.123416 0.415175 0.092256
O O3 0.000000 0.440681 0.088470
O O4 0.076702 0.500000 0.000000
O O5 0.500000 0.949762 0.789542
O O6 0.378185 0.906039 0.773198
O O7 0.430828 0.926760 0.909379
O O8 0.396919 0.015759 0.822653
O O9 0.120757 0.129243 0.875000
O O10 0.140382 0.250000 0.884994
O O11 0.139000 0.181946 0.010165
O O12 0.750000 0.122015 0.250000
O O13 0.659252 0.176428 0.322763
#
# Coordination Sequence:
#
# PCOD9573114 Si02
#       5
#    32  32  32  32  32
#     4  10  21  39  59  81 115 160 207 258 316 376
#     4  10  21  40  64  92 128 164 201 256 322 378
#     4  11  23  39  57  83 117 157 203 254 315 371
#     4   9  21  39  60  94 129 163 203 253 311 378
#     4  11  21  35  60  89 117 157 205 253 303 378
#
# _framework density 20.232358999999999
#
# number of rings (size 3 to 8) (size 9 to 14) (size 15 to 20)
#    0.000    1.800    2.000    1.800    0.000    7.800 
#    7.200    0.000    0.000    6.600    0.000   16.800 
#    0.000    0.000    0.000    0.000    0.000    0.000 
#
# Total GULP energy -445385.364155 kJ/mol
# GULP energy per Si atom -5567.317052 kJ/mol
# Density = 2.018631 g / cm^3
# Si number density = 20.232359 Si / 1000 Ang^3
#
#
#
# Elastic Constant Matrix: (Units=GPa)
#
#
# Indices 1 2 3 4 5 6 
#
# 1 103.3582 92.2332 21.0013 0.0000 0.0000 0.0000
# 2 92.2332 103.3648 21.0035 0.0000 0.0000 0.0000
# 3 21.0013 21.0035 143.3506 0.0000 0.0000 0.0000
# 4 0.0000 0.0000 0.0000 15.0643 0.0000 0.0000
# 5 0.0000 0.0000 0.0000 0.0000 15.0657 0.0000
# 6 0.0000 0.0000 0.0000 0.0000 0.0000 40.1329
#
#
#
# Elastic Compliance Matrix: (Units=1/GPa)
#
#
# Indices 1 2 3 4 5 6 
#
# 1 0.047571 -0.042291 -0.000773 0.000000 0.000000 0.000000
# 2 -0.042291 0.047569 -0.000774 0.000000 0.000000 0.000000
# 3 -0.000773 -0.000774 0.007203 0.000000 0.000000 0.000000
# 4 0.000000 0.000000 0.000000 0.066382 0.000000 0.000000
# 5 0.000000 0.000000 0.000000 0.000000 0.066376 0.000000
# 6 0.000000 0.000000 0.000000 0.000000 0.000000 0.024917
#
#
# Mechanical properties :
#
#
# Convention : Reuss Voigt Hill
#
# Bulk Modulus (GPa) = 68.18315 68.72774 68.45544
# Shear Modulus (GPa) = 14.18107 28.44161 21.31134
#
# Velocity S-wave (km/s) = 2.65034 3.75340 3.24902
# Velocity P-wave (km/s) = 6.56803 7.26822 6.92697
#
# Compressibility (1/GPa) = 0.01466638
#
# Stress axis : x y z
#
# Youngs Moduli (GPa) = 21.02103 21.02227 138.84019
#
# Poissons Ratio (x) = 0.88906 0.10731
# Poissons Ratio (y) = 0.88901 0.10745
# Poissons Ratio (z) = 0.01625 0.01627
#
# Static dielectric constant tensor:
#      x y z
#    x 1.695280 0.000000 0.000000 
#    y 0.000000 1.695280 0.000000 
#    z 0.000000 0.000000 1.811980 
# 
# From -- ./inp_files/8586.got.cif
#   From: 2010.05.17/outbox.cif.g08.bks.cpg/sg141_5_cif.got.tgz:8586.got - 2010.05.20 13:30:51.
