data_PCOD9573700
_publ_section_title
;
Structure prediction by ZEFSAII (Michael W. Deem and Ramdas Pophale) SiO2 
 PCOD9573700
Probable space group: I 41/A C D
;
_chemical_formula_sum "Si O2"
_cell_formula_units_Z 152
_cell_length_a 23.961084
_cell_length_b 23.961084
_cell_length_c 11.182579
_cell_angle_alpha 90.000000
_cell_angle_beta 90.000000
_cell_angle_gamma 90.000000
_cell_volume 6420.293740
_symmetry_space_group_name_H-M "I 41/A C D"
_symmetry_group_IT_number 142
_space_group.IT_coordinate_system_code '2'
_symmetry_cell_setting 'tetragonal'
loop_
_space_group_symop_operation_xyz
x,y,z
1/4-y,3/4+x,1/4+z
-x,1/2-y,z
1/4+y,1/4-x,3/4+z
x,-y,1/2-z
1/2-x,y,-z
3/4+y,1/4+x,1/4-z
1/4-y,1/4-x,1/4-z
-x,-y,-z
3/4+y,1/4-x,3/4-z
x,1/2+y,-z
3/4-y,3/4+x,1/4-z
-x,y,1/2+z
1/2+x,-y,z
1/4-y,3/4-x,3/4+z
3/4+y,3/4+x,3/4+z
1/2+x,1/2+y,1/2+z
3/4-y,1/4+x,3/4+z
1/2-x,-y,1/2+z
3/4+y,3/4-x,1/4+z
1/2+x,1/2-y,-z
-x,1/2+y,1/2-z
1/4+y,3/4+x,3/4-z
3/4-y,3/4-x,3/4-z
1/2-x,1/2-y,1/2-z
1/4+y,3/4-x,1/4-z
1/2+x,y,1/2-z
1/4-y,1/4+x,3/4-z
1/2-x,1/2+y,z
x,1/2-y,1/2+z
3/4-y,1/4-x,1/4+z
1/4+y,1/4+x,1/4+z
loop_
_atom_site_type_symbol
_atom_site_label
_atom_site_fract_x
_atom_site_fract_y
_atom_site_fract_z
Si Si1 0.394255 0.295280 0.758017
Si Si2 0.636912 0.420541 0.010284
Si Si3 0.500000 0.250000 0.375000
Si Si4 0.858987 0.214035 0.921151
Si Si5 0.479821 0.500000 0.250000
Si Si6 0.714325 0.146871 0.696913
O O1 0.439248 0.251638 0.811188
O O2 0.429917 0.351781 0.758008
O O3 0.388570 0.270031 0.623562
O O4 0.330168 0.316688 0.772857
O O5 0.650754 0.400754 0.875000
O O6 0.637801 0.488143 0.014781
O O7 0.575394 0.403768 0.057896
O O8 0.679386 0.391599 0.104141
O O9 0.803514 0.232370 0.985601
O O10 0.440368 0.500830 0.365695
#
# Coordination Sequence:
#
# PCOD9573700 Si02
#       6
#    32  32   8  32  16  32
#     4  10  23  40  61 100 131 177 222 276 344 436
#     4  11  21  40  70  96 132 175 232 292 350 420
#     4  12  24  38  68  92 142 180 212 280 358 420
#     4  10  23  39  65  92 134 172 226 283 347 418
#     4  10  20  40  64  96 128 174 220 288 346 424
#     4  10  22  42  68  97 130 174 238 286 350 427
#
# _framework density 23.67493
#
# number of rings (size 3 to 8) (size 9 to 14) (size 15 to 20)
#    0.000    1.684    2.105    1.263    1.474    6.737 
#    0.000    0.000   34.737    0.000    0.000    0.000 
#    0.000    0.000    0.000    0.000    0.000    0.000 
#
# Total GULP energy -424056.739787 kJ/mol
# GULP energy per Si atom -5579.693945 kJ/mol
# Density = 2.362104 g / cm^3
# Si number density = 23.674930 Si / 1000 Ang^3
#
#
#
# Elastic Constant Matrix: (Units=GPa)
#
#
# Indices 1 2 3 4 5 6 
#
# 1 128.4002 75.4946 55.4030 0.0000 0.0000 0.0000
# 2 75.4946 128.4002 55.4030 0.0000 0.0000 0.0000
# 3 55.4030 55.4030 74.5980 0.0000 0.0000 0.0000
# 4 0.0000 0.0000 0.0000 24.5771 0.0000 0.0000
# 5 0.0000 0.0000 0.0000 0.0000 24.5771 0.0000
# 6 0.0000 0.0000 0.0000 0.0000 0.0000 44.9701
#
#
#
# Elastic Compliance Matrix: (Units=1/GPa)
#
#
# Indices 1 2 3 4 5 6 
#
# 1 0.013563 -0.005339 -0.006108 0.000000 0.000000 0.000000
# 2 -0.005339 0.013563 -0.006108 0.000000 0.000000 0.000000
# 3 -0.006108 -0.006108 0.022477 0.000000 0.000000 0.000000
# 4 0.000000 0.000000 0.000000 0.040688 0.000000 0.000000
# 5 0.000000 0.000000 0.000000 0.000000 0.040688 0.000000
# 6 0.000000 0.000000 0.000000 0.000000 0.000000 0.022237
#
#
# Mechanical properties :
#
#
# Convention : Reuss Voigt Hill
#
# Bulk Modulus (GPa) = 68.99333 78.22217 73.60775
# Shear Modulus (GPa) = 25.88583 28.49803 27.19193
#
# Velocity S-wave (km/s) = 3.31023 3.47323 3.39271
# Velocity P-wave (km/s) = 6.61931 7.01401 6.81952
#
# Compressibility (1/GPa) = 0.01449415
#
# Stress axis : x y z
#
# Youngs Moduli (GPa) = 73.73206 73.73206 44.48944
#
# Poissons Ratio (x) = 0.39365 0.27172
# Poissons Ratio (y) = 0.39365 0.27172
# Poissons Ratio (z) = 0.45033 0.45033
#
# Static dielectric constant tensor:
#      x y z
#    x 1.902170 0.000000 0.000000 
#    y 0.000000 1.902170 0.000000 
#    z 0.000000 0.000000 2.040000 
# 
# From -- ./inp_files/5487.got.cif
#   From: 2010.05.17/outbox.cif.g08.bks.cpg/sg142_3_cif.got.tgz:5487.got - 2010.05.20 13:39:18.
