data_PCOD9573133
_publ_section_title
;
Structure prediction by ZEFSAII (Michael W. Deem and Ramdas Pophale) SiO2 
 PCOD9573133
Probable space group: I 41/A M D
;
_chemical_formula_sum "Si O2"
_cell_formula_units_Z 176
_cell_length_a 25.847314
_cell_length_b 25.847314
_cell_length_c 13.807455
_cell_angle_alpha 90.000000
_cell_angle_beta 90.000000
_cell_angle_gamma 90.000000
_cell_volume 9224.534810
_symmetry_space_group_name_H-M "I 41/A M D"
_symmetry_group_IT_number 141
_space_group.IT_coordinate_system_code '2'
_symmetry_cell_setting 'tetragonal'
loop_
_space_group_symop_operation_xyz
x,y,z
1/4-y,3/4+x,1/4+z
-x,1/2-y,z
1/4+y,1/4-x,3/4+z
x,-y,-z
-x,1/2+y,-z
1/4+y,3/4+x,1/4-z
1/4-y,1/4-x,3/4-z
-x,-y,-z
3/4+y,1/4-x,3/4-z
x,1/2+y,-z
3/4-y,3/4+x,1/4-z
-x,y,z
x,1/2-y,z
3/4-y,1/4-x,3/4+z
3/4+y,3/4+x,1/4+z
1/2+x,1/2+y,1/2+z
3/4-y,1/4+x,3/4+z
1/2-x,-y,1/2+z
3/4+y,3/4-x,1/4+z
1/2+x,1/2-y,1/2-z
1/2-x,y,1/2-z
3/4+y,1/4+x,3/4-z
3/4-y,3/4-x,1/4-z
1/2-x,1/2-y,1/2-z
1/4+y,3/4-x,1/4-z
1/2+x,y,1/2-z
1/4-y,1/4+x,3/4-z
1/2-x,1/2+y,1/2+z
1/2+x,-y,1/2+z
1/4-y,3/4-x,1/4+z
1/4+y,1/4+x,3/4+z
loop_
_atom_site_type_symbol
_atom_site_label
_atom_site_fract_x
_atom_site_fract_y
_atom_site_fract_z
Si Si1 0.711924 0.957676 0.161335
Si Si2 0.440824 0.341817 0.732889
Si Si3 0.500000 0.002590 0.883569
Si Si4 0.903299 0.947072 0.282746
Si Si5 0.670460 0.750000 0.041018
Si Si6 0.768658 0.657839 0.360851
Si Si7 0.558080 0.750000 0.111844
O O1 0.750000 0.945840 0.250000
O O2 0.652538 0.967069 0.184763
O O3 0.713361 0.900850 0.112439
O O4 0.740363 0.009638 0.125000
O O5 0.500000 0.362251 0.730312
O O6 0.427538 0.322462 0.625000
O O7 0.402315 0.385961 0.768756
O O8 0.438932 0.297819 0.813748
O O9 0.551428 0.033678 0.852483
O O10 0.500000 0.950609 0.813800
O O11 0.500000 0.000000 0.000000
O O12 0.916779 0.968751 0.177246
O O13 0.690324 0.700078 0.101891
O O14 0.607942 0.750000 0.041723
O O15 0.750000 0.664068 0.250000
O O16 0.500000 0.750000 0.067055
#
# Coordination Sequence:
#
# PCOD9573133 Si02
#       7
#    32  32  16  32  16  32  16
#     4  11  22  38  56  86 129 166 209 259 328 395
#     4  11  22  35  58  95 140 182 219 255 317 398
#     4  10  24  48  70  91 118 164 232 288 335 392
#     4  11  23  40  63  92 125 170 217 269 327 394
#     4  10  21  40  62  92 123 166 218 271 328 388
#     4  10  22  34  56  89 128 166 203 254 318 399
#     4  10  22  36  58  92 130 177 219 262 314 384
#
# _framework density 19.079553000000001
#
# number of rings (size 3 to 8) (size 9 to 14) (size 15 to 20)
#    0.000    1.455    3.636    1.364    7.636    0.727 
#    0.000    0.000    0.000    0.000    2.364    0.000 
#    0.000    0.000    0.000    0.000    0.000    0.000 
#
# Total GULP energy -490101.303262 kJ/mol
# GULP energy per Si atom -5569.332992 kJ/mol
# Density = 1.903613 g / cm^3
# Si number density = 19.079553 Si / 1000 Ang^3
#
#
#
# Elastic Constant Matrix: (Units=GPa)
#
#
# Indices 1 2 3 4 5 6 
#
# 1 117.4893 34.9577 27.5550 0.0000 0.0000 0.0000
# 2 34.9577 117.4891 27.5542 0.0000 0.0000 0.0000
# 3 27.5550 27.5542 95.7168 0.0000 0.0000 0.0000
# 4 0.0000 0.0000 0.0000 20.6903 0.0000 0.0000
# 5 0.0000 0.0000 0.0000 0.0000 20.6913 0.0000
# 6 0.0000 0.0000 0.0000 0.0000 0.0000 27.5855
#
#
#
# Elastic Compliance Matrix: (Units=1/GPa)
#
#
# Indices 1 2 3 4 5 6 
#
# 1 0.009719 -0.002397 -0.002108 0.000000 0.000000 0.000000
# 2 -0.002397 0.009719 -0.002108 0.000000 0.000000 0.000000
# 3 -0.002108 -0.002108 0.011661 0.000000 0.000000 0.000000
# 4 0.000000 0.000000 0.000000 0.048332 0.000000 0.000000
# 5 0.000000 0.000000 0.000000 0.000000 0.048330 0.000000
# 6 0.000000 0.000000 0.000000 0.000000 0.000000 0.036251
#
#
# Mechanical properties :
#
#
# Convention : Reuss Voigt Hill
#
# Bulk Modulus (GPa) = 55.94925 56.75878 56.35402
# Shear Modulus (GPa) = 27.29328 29.83528 28.56428
#
# Velocity S-wave (km/s) = 3.78630 3.95869 3.87345
# Velocity P-wave (km/s) = 6.96438 7.12096 7.04310
#
# Compressibility (1/GPa) = 0.01787334
#
# Stress axis : x y z
#
# Youngs Moduli (GPa) = 102.89010 102.89036 85.75581
#
# Poissons Ratio (x) = 0.24668 0.18075
# Poissons Ratio (y) = 0.24668 0.18074
# Poissons Ratio (z) = 0.21687 0.21686
#
# Static dielectric constant tensor:
#      x y z
#    x 1.710380 0.000000 0.000000 
#    y 0.000000 1.710380 0.000000 
#    z 0.000000 0.000000 1.675940 
# 
# From -- ./inp_files/5096.got.cif
#   From: 2010.05.17/outbox.cif.g08.bks.cpg/sg141_3_cif.got.tgz:5096.got - 2010.05.20 13:30:51.
