data_PCOD9573249
_publ_section_title
;
Structure prediction by ZEFSAII (Michael W. Deem and Ramdas Pophale) SiO2 
 PCOD9573249
Probable space group: I 41/A M D
;
_chemical_formula_sum "Si O2"
_cell_formula_units_Z 84
_cell_length_a 10.752751
_cell_length_b 10.752751
_cell_length_c 35.661016
_cell_angle_alpha 90.000000
_cell_angle_beta 90.000000
_cell_angle_gamma 90.000000
_cell_volume 4123.185656
_symmetry_space_group_name_H-M "I 41/A M D"
_symmetry_group_IT_number 141
_space_group.IT_coordinate_system_code '2'
_symmetry_cell_setting 'tetragonal'
loop_
_space_group_symop_operation_xyz
x,y,z
1/4-y,3/4+x,1/4+z
-x,1/2-y,z
1/4+y,1/4-x,3/4+z
x,-y,-z
-x,1/2+y,-z
1/4+y,3/4+x,1/4-z
1/4-y,1/4-x,3/4-z
-x,-y,-z
3/4+y,1/4-x,3/4-z
x,1/2+y,-z
3/4-y,3/4+x,1/4-z
-x,y,z
x,1/2-y,z
3/4-y,1/4-x,3/4+z
3/4+y,3/4+x,1/4+z
1/2+x,1/2+y,1/2+z
3/4-y,1/4+x,3/4+z
1/2-x,-y,1/2+z
3/4+y,3/4-x,1/4+z
1/2+x,1/2-y,1/2-z
1/2-x,y,1/2-z
3/4+y,1/4+x,3/4-z
3/4-y,3/4-x,1/4-z
1/2-x,1/2-y,1/2-z
1/4+y,3/4-x,1/4-z
1/2+x,y,1/2-z
1/4-y,1/4+x,3/4-z
1/2-x,1/2+y,1/2+z
1/2+x,-y,1/2+z
1/4-y,3/4-x,1/4+z
1/4+y,1/4+x,3/4+z
loop_
_atom_site_type_symbol
_atom_site_label
_atom_site_fract_x
_atom_site_fract_y
_atom_site_fract_z
Si Si1 0.353772 0.750000 0.075975
Si Si2 0.747690 0.993327 0.544686
Si Si3 0.861143 0.250000 0.280560
Si Si4 0.500000 0.750000 0.375000
Si Si5 0.270287 0.250000 0.839268
O O1 0.500000 0.750000 0.067803
O O2 0.287839 0.629120 0.059042
O O3 0.336448 0.750000 0.120674
O O4 0.724664 0.000000 0.500000
O O5 0.869993 0.909157 0.551737
O O6 0.624360 0.951308 0.566060
O O7 0.750000 0.250000 0.250000
O O8 0.000000 0.250000 0.264673
O O9 0.623085 0.750000 0.349518
#
# Coordination Sequence:
#
# PCOD9573249 Si02
#       5
#    16  32  16   4  16
#     4  12  24  43  69  97 140 199 233 289 365 439
#     4  11  24  40  73 101 142 182 243 299 361 429
#     4  10  24  42  70 102 142 183 226 291 368 426
#     4  12  20  40  76  88 144 196 240 264 376 444
#     4  12  23  46  67 106 139 193 241 300 362 440
#
# _framework density 20.372599000000001
#
# number of rings (size 3 to 8) (size 9 to 14) (size 15 to 20)
#    0.000    0.762    5.714    0.571   10.667    1.524 
#    0.000    0.000    0.000    0.000    0.000    0.000 
#    0.000    0.000    0.000    0.000    0.000    0.000 
#
# Total GULP energy -234824.048107 kJ/mol
# GULP energy per Si atom -5591.048764 kJ/mol
# Density = 2.032623 g / cm^3
# Si number density = 20.372599 Si / 1000 Ang^3
#
#
#
# Elastic Constant Matrix: (Units=GPa)
#
#
# Indices 1 2 3 4 5 6 
#
# 1 161.9000 36.3408 60.8585 0.0000 0.0000 0.0000
# 2 36.3408 161.9000 60.8585 0.0000 0.0000 0.0000
# 3 60.8585 60.8585 152.4728 0.0000 0.0000 0.0000
# 4 0.0000 0.0000 0.0000 -8.2523 0.0000 0.0000
# 5 0.0000 0.0000 0.0000 0.0000 -8.2523 0.0000
# 6 0.0000 0.0000 0.0000 0.0000 0.0000 23.4070
#
#
#
# Elastic Compliance Matrix: (Units=1/GPa)
#
#
# Indices 1 2 3 4 5 6 
#
# 1 0.007323 -0.000641 -0.002667 0.000000 0.000000 0.000000
# 2 -0.000641 0.007323 -0.002667 0.000000 0.000000 0.000000
# 3 -0.002667 -0.002667 0.008688 0.000000 0.000000 0.000000
# 4 0.000000 0.000000 0.000000 -0.121178 0.000000 0.000000
# 5 0.000000 0.000000 0.000000 0.000000 -0.121178 0.000000
# 6 0.000000 0.000000 0.000000 0.000000 0.000000 0.042722
#
#
# Mechanical properties :
#
#
# Convention : Reuss Voigt Hill
#
# Bulk Modulus (GPa) = 87.84833 88.04316 87.94574
# Shear Modulus (GPa) = -31.14198 22.59481 -4.27358
#
# Velocity S-wave (km/s) = -3.91400 3.33390 -1.44992
# Velocity P-wave (km/s) = 4.77374 7.62431 6.36077
#
# Compressibility (1/GPa) = 0.01138326
#
# Stress axis : x y z
#
# Youngs Moduli (GPa) = 136.55363 136.55362 115.10658
#
# Poissons Ratio (x) = 0.08756 0.30699
# Poissons Ratio (y) = 0.08756 0.30699
# Poissons Ratio (z) = 0.36419 0.36419
#
# Static dielectric constant tensor:
#      x y z
#    x 1.740910 0.000000 0.000000 
#    y 0.000000 1.740910 0.000000 
#    z 0.000000 0.000000 1.715770 
# 
# From -- ./inp_files/13760.got.cif
#   From: 2010.05.17/outbox.cif.g08.bks.cpg/sg141_7_cif.got.tgz:13760.got - 2010.05.20 13:30:51.
