data_PCOD9573764
_publ_section_title
;
Structure prediction by ZEFSAII (Michael W. Deem and Ramdas Pophale) SiO2 
 PCOD9573764
Probable space group: I 41/A C D
;
_chemical_formula_sum "Si O2"
_cell_formula_units_Z 176
_cell_length_a 26.882048
_cell_length_b 26.882048
_cell_length_c 12.571218
_cell_angle_alpha 90.000000
_cell_angle_beta 90.000000
_cell_angle_gamma 90.000000
_cell_volume 9084.521605
_symmetry_space_group_name_H-M "I 41/A C D"
_symmetry_group_IT_number 142
_space_group.IT_coordinate_system_code '2'
_symmetry_cell_setting 'tetragonal'
loop_
_space_group_symop_operation_xyz
x,y,z
1/4-y,3/4+x,1/4+z
-x,1/2-y,z
1/4+y,1/4-x,3/4+z
x,-y,1/2-z
1/2-x,y,-z
3/4+y,1/4+x,1/4-z
1/4-y,1/4-x,1/4-z
-x,-y,-z
3/4+y,1/4-x,3/4-z
x,1/2+y,-z
3/4-y,3/4+x,1/4-z
-x,y,1/2+z
1/2+x,-y,z
1/4-y,3/4-x,3/4+z
3/4+y,3/4+x,3/4+z
1/2+x,1/2+y,1/2+z
3/4-y,1/4+x,3/4+z
1/2-x,-y,1/2+z
3/4+y,3/4-x,1/4+z
1/2+x,1/2-y,-z
-x,1/2+y,1/2-z
1/4+y,3/4+x,3/4-z
3/4-y,3/4-x,3/4-z
1/2-x,1/2-y,1/2-z
1/4+y,3/4-x,1/4-z
1/2+x,y,1/2-z
1/4-y,1/4+x,3/4-z
1/2-x,1/2+y,z
x,1/2-y,1/2+z
3/4-y,1/4-x,1/4+z
1/4+y,1/4+x,1/4+z
loop_
_atom_site_type_symbol
_atom_site_label
_atom_site_fract_x
_atom_site_fract_y
_atom_site_fract_z
Si Si1 0.698127 0.191671 0.193179
Si Si2 0.602295 0.550334 0.018393
Si Si3 0.037706 0.370843 0.629072
Si Si4 0.434612 0.815389 0.125000
Si Si5 0.653520 0.857608 0.508267
Si Si6 0.201336 0.288870 0.434638
O O1 0.741692 0.156449 0.236111
O O2 0.660374 0.210320 0.282825
O O3 0.670802 0.161016 0.103038
O O4 0.718561 0.239241 0.128291
O O5 0.586478 0.566015 0.139622
O O6 0.652697 0.582400 0.010799
O O7 0.573369 0.566441 0.912109
O O8 0.088018 0.338018 0.625000
O O9 0.031605 0.405149 0.734589
O O10 0.991584 0.332342 0.618137
O O11 0.411494 0.847410 0.221865
O O12 0.250000 0.306936 0.500000
#
# Coordination Sequence:
#
# PCOD9573764 Si02
#       6
#    32  32  32  16  32  32
#     4  12  22  39  65  92 122 164 215 267 320 376
#     4  10  21  37  62  93 128 160 207 275 316 374
#     4  12  26  42  63  89 127 174 214 256 317 388
#     4  10  21  44  56  86 130 170 208 252 300 382
#     4  10  21  38  64  95 128 164 209 259 324 383
#     4  12  23  38  62  95 124 162 216 274 323 369
#
# _framework density 19.373612999999999
#
# number of rings (size 3 to 8) (size 9 to 14) (size 15 to 20)
#    0.000    1.091    3.636    5.727    2.545    0.000 
#    0.000    0.000    4.000    0.000   14.182    0.000 
#    0.000    0.000    0.000    0.000    0.000    0.000 
#
# Total GULP energy -490034.296900 kJ/mol
# GULP energy per Si atom -5568.571556 kJ/mol
# Density = 1.932952 g / cm^3
# Si number density = 19.373613 Si / 1000 Ang^3
#
#
#
# Elastic Constant Matrix: (Units=GPa)
#
#
# Indices 1 2 3 4 5 6 
#
# 1 77.6802 30.7871 45.1289 0.0000 0.0000 0.0000
# 2 30.7871 77.6785 45.1281 0.0000 0.0000 0.0000
# 3 45.1289 45.1281 136.9900 0.0000 0.0000 0.0000
# 4 0.0000 0.0000 0.0000 28.0282 0.0000 0.0000
# 5 0.0000 0.0000 0.0000 0.0000 28.0281 0.0000
# 6 0.0000 0.0000 0.0000 0.0000 0.0000 23.6130
#
#
#
# Elastic Compliance Matrix: (Units=1/GPa)
#
#
# Indices 1 2 3 4 5 6 
#
# 1 0.017013 -0.004312 -0.004184 0.000000 0.000000 0.000000
# 2 -0.004312 0.017013 -0.004184 0.000000 0.000000 0.000000
# 3 -0.004184 -0.004184 0.010057 0.000000 0.000000 0.000000
# 4 0.000000 0.000000 0.000000 0.035678 0.000000 0.000000
# 5 0.000000 0.000000 0.000000 0.000000 0.035678 0.000000
# 6 0.000000 0.000000 0.000000 0.000000 0.000000 0.042350
#
#
# Mechanical properties :
#
#
# Convention : Reuss Voigt Hill
#
# Bulk Modulus (GPa) = 53.41223 59.38188 56.39705
# Shear Modulus (GPa) = 26.40041 27.35419 26.87730
#
# Velocity S-wave (km/s) = 3.69548 3.76164 3.72871
# Velocity P-wave (km/s) = 6.77039 7.04159 6.90732
#
# Compressibility (1/GPa) = 0.01872231
#
# Stress axis : x y z
#
# Youngs Moduli (GPa) = 58.77810 58.77700 99.43772
#
# Poissons Ratio (x) = 0.25346 0.41606
# Poissons Ratio (y) = 0.25346 0.41606
# Poissons Ratio (z) = 0.24594 0.24593
#
# Static dielectric constant tensor:
#      x y z
#    x 1.739160 0.000000 0.000000 
#    y 0.000000 1.739160 0.000000 
#    z 0.000000 0.000000 1.680000 
# 
# From -- ./inp_files/3991.got.cif
#   From: 2010.05.17/outbox.cif.g08.bks.cpg/sg142_2_cif.got.tgz:3991.got - 2010.05.20 13:39:18.
