data_PCOD9573955
_publ_section_title
;
Structure prediction by ZEFSAII (Michael W. Deem and Ramdas Pophale) SiO2 
 PCOD9573955
Probable space group: I 41/A C D
;
_chemical_formula_sum "Si O2"
_cell_formula_units_Z 192
_cell_length_a 19.968351
_cell_length_b 19.968351
_cell_length_c 21.882319
_cell_angle_alpha 90.000000
_cell_angle_beta 90.000000
_cell_angle_gamma 90.000000
_cell_volume 8725.247378
_symmetry_space_group_name_H-M "I 41/A C D"
_symmetry_group_IT_number 142
_space_group.IT_coordinate_system_code '2'
_symmetry_cell_setting 'tetragonal'
loop_
_space_group_symop_operation_xyz
x,y,z
1/4-y,3/4+x,1/4+z
-x,1/2-y,z
1/4+y,1/4-x,3/4+z
x,-y,1/2-z
1/2-x,y,-z
3/4+y,1/4+x,1/4-z
1/4-y,1/4-x,1/4-z
-x,-y,-z
3/4+y,1/4-x,3/4-z
x,1/2+y,-z
3/4-y,3/4+x,1/4-z
-x,y,1/2+z
1/2+x,-y,z
1/4-y,3/4-x,3/4+z
3/4+y,3/4+x,3/4+z
1/2+x,1/2+y,1/2+z
3/4-y,1/4+x,3/4+z
1/2-x,-y,1/2+z
3/4+y,3/4-x,1/4+z
1/2+x,1/2-y,-z
-x,1/2+y,1/2-z
1/4+y,3/4+x,3/4-z
3/4-y,3/4-x,3/4-z
1/2-x,1/2-y,1/2-z
1/4+y,3/4-x,1/4-z
1/2+x,y,1/2-z
1/4-y,1/4+x,3/4-z
1/2-x,1/2+y,z
x,1/2-y,1/2+z
3/4-y,1/4-x,1/4+z
1/4+y,1/4+x,1/4+z
loop_
_atom_site_type_symbol
_atom_site_label
_atom_site_fract_x
_atom_site_fract_y
_atom_site_fract_z
Si Si1 0.311424 0.503237 0.317917
Si Si2 0.562366 0.798687 0.286488
Si Si3 0.026269 0.982472 0.898200
Si Si4 0.824781 0.190465 0.268035
Si Si5 0.183841 0.301354 0.540362
Si Si6 0.113810 0.394356 0.366647
O O1 0.279928 0.500000 0.250000
O O2 0.266030 0.483971 0.375000
O O3 0.373595 0.451739 0.312806
O O4 0.340331 0.575869 0.336063
O O5 0.500000 0.750000 0.284806
O O6 0.625666 0.754362 0.264474
O O7 0.550151 0.864894 0.246285
O O8 0.582096 0.824734 0.353646
O O9 0.997252 0.932695 0.848398
O O10 0.065207 0.042646 0.865649
O O11 0.072895 0.951154 0.950396
O O12 0.964955 0.015374 0.936790
O O13 0.859247 0.128690 0.301540
O O14 0.250000 0.283787 0.500000
#
# Coordination Sequence:
#
# PCOD9573955 Si02
#       6
#    32  32  32  32  32  32
#     4  11  24  41  73 103 141 185 246 306 371 452
#     4  11  25  40  69 104 142 187 252 307 368 447
#     4  10  23  41  67  94 143 182 230 302 369 436
#     4  10  23  38  66 105 132 181 241 299 364 441
#     4  11  22  44  68 101 139 195 239 304 376 449
#     4  11  23  43  68 108 141 189 242 308 372 448
#
# _framework density 22.005106000000001
#
# number of rings (size 3 to 8) (size 9 to 14) (size 15 to 20)
#    0.000    1.333    5.000    0.000   11.667    0.000 
#    0.000    4.167    0.000    0.000    0.000    0.000 
#    0.000    0.000    0.000    0.000    0.000    0.000 
#
# Total GULP energy -537034.605245 kJ/mol
# GULP energy per Si atom -5594.110471 kJ/mol
# Density = 2.195502 g / cm^3
# Si number density = 22.005106 Si / 1000 Ang^3
#
#
#
# Elastic Constant Matrix: (Units=GPa)
#
#
# Indices 1 2 3 4 5 6 
#
# 1 60.8350 16.8162 34.3051 0.0000 0.0000 0.0000
# 2 16.8162 60.8352 34.3042 0.0000 0.0000 0.0000
# 3 34.3051 34.3042 132.7592 0.0000 0.0000 0.0000
# 4 0.0000 0.0000 0.0000 33.2545 0.0000 0.0000
# 5 0.0000 0.0000 0.0000 0.0000 33.2545 0.0000
# 6 0.0000 0.0000 0.0000 0.0000 0.0000 18.6579
#
#
#
# Elastic Compliance Matrix: (Units=1/GPa)
#
#
# Indices 1 2 3 4 5 6 
#
# 1 0.019703 -0.003015 -0.004312 0.000000 0.000000 0.000000
# 2 -0.003015 0.019703 -0.004312 0.000000 0.000000 0.000000
# 3 -0.004312 -0.004312 0.009761 0.000000 0.000000 0.000000
# 4 0.000000 0.000000 0.000000 0.030071 0.000000 0.000000
# 5 0.000000 0.000000 0.000000 0.000000 0.030071 0.000000
# 6 0.000000 0.000000 0.000000 0.000000 0.000000 0.053597
#
#
# Mechanical properties :
#
#
# Convention : Reuss Voigt Hill
#
# Bulk Modulus (GPa) = 38.62717 47.25338 42.94027
# Shear Modulus (GPa) = 25.66565 28.30032 26.98298
#
# Velocity S-wave (km/s) = 3.41889 3.59009 3.50553
# Velocity P-wave (km/s) = 5.75994 6.22137 5.99509
#
# Compressibility (1/GPa) = 0.02588852
#
# Stress axis : x y z
#
# Youngs Moduli (GPa) = 50.75380 50.75447 102.44919
#
# Poissons Ratio (x) = 0.15301 0.44179
# Poissons Ratio (y) = 0.15301 0.44177
# Poissons Ratio (z) = 0.21886 0.21886
#
# Static dielectric constant tensor:
#      x y z
#    x 1.839110 0.000000 0.000000 
#    y 0.000000 1.839110 0.000000 
#    z 0.000000 0.000000 1.818000 
# 
# From -- ./inp_files/10445.got.cif
#   From: 2010.05.17/outbox.cif.g08.bks.cpg/sg142_6_cif.got.tgz:10445.got - 2010.05.20 13:39:18.
