data_PCOD9573357
_publ_section_title
;
Structure prediction by ZEFSAII (Michael W. Deem and Ramdas Pophale) SiO2 
 PCOD9573357
Probable space group: I 41/A M D
;
_chemical_formula_sum "Si O2"
_cell_formula_units_Z 96
_cell_length_a 14.834181
_cell_length_b 14.834181
_cell_length_c 18.541920
_cell_angle_alpha 90.000000
_cell_angle_beta 90.000000
_cell_angle_gamma 90.000000
_cell_volume 4080.203749
_symmetry_space_group_name_H-M "I 41/A M D"
_symmetry_group_IT_number 141
_space_group.IT_coordinate_system_code '2'
_symmetry_cell_setting 'tetragonal'
loop_
_space_group_symop_operation_xyz
x,y,z
1/4-y,3/4+x,1/4+z
-x,1/2-y,z
1/4+y,1/4-x,3/4+z
x,-y,-z
-x,1/2+y,-z
1/4+y,3/4+x,1/4-z
1/4-y,1/4-x,3/4-z
-x,-y,-z
3/4+y,1/4-x,3/4-z
x,1/2+y,-z
3/4-y,3/4+x,1/4-z
-x,y,z
x,1/2-y,z
3/4-y,1/4-x,3/4+z
3/4+y,3/4+x,1/4+z
1/2+x,1/2+y,1/2+z
3/4-y,1/4+x,3/4+z
1/2-x,-y,1/2+z
3/4+y,3/4-x,1/4+z
1/2+x,1/2-y,1/2-z
1/2-x,y,1/2-z
3/4+y,1/4+x,3/4-z
3/4-y,3/4-x,1/4-z
1/2-x,1/2-y,1/2-z
1/4+y,3/4-x,1/4-z
1/2+x,y,1/2-z
1/4-y,1/4+x,3/4-z
1/2-x,1/2+y,1/2+z
1/2+x,-y,1/2+z
1/4-y,3/4-x,1/4+z
1/4+y,1/4+x,3/4+z
loop_
_atom_site_type_symbol
_atom_site_label
_atom_site_fract_x
_atom_site_fract_y
_atom_site_fract_z
Si Si1 0.355945 0.394056 0.125000
Si Si2 0.328341 0.429635 0.800692
Si Si3 0.606172 0.750000 0.465852
Si Si4 0.500000 0.650973 0.755022
Si Si5 0.760123 0.750000 0.374801
O O1 0.363525 0.501409 0.138433
O O2 0.411984 0.356760 0.193303
O O3 0.250000 0.472625 0.750000
O O4 0.412216 0.396809 0.754354
O O5 0.284790 0.340835 0.834134
O O6 0.500000 0.750000 0.470794
O O7 0.653688 0.750000 0.388505
O O8 0.500000 0.750000 0.719800
O O9 0.500000 0.571143 0.697246
#
# Coordination Sequence:
#
# PCOD9573357 Si02
#       5
#    16  32  16  16  16
#     4  12  23  48  74 104 151 184 244 306 368 438
#     4  12  27  50  72 109 148 194 250 311 366 450
#     4  12  26  49  73 105 148 194 243 304 373 434
#     4  12  26  47  74 112 146 191 240 309 376 454
#     4  12  27  50  74 108 150 192 252 306 374 437
#
# _framework density 23.528237000000001
#
# number of rings (size 3 to 8) (size 9 to 14) (size 15 to 20)
#    0.000    0.000    6.667    2.500    2.333    0.000 
#    3.000    2.500    0.000    0.000    0.000    0.000 
#    0.000    0.000    0.000    0.000    0.000    0.000 
#
# Total GULP energy -268689.932606 kJ/mol
# GULP energy per Si atom -5597.706929 kJ/mol
# Density = 2.347469 g / cm^3
# Si number density = 23.528237 Si / 1000 Ang^3
#
#
#
# Elastic Constant Matrix: (Units=GPa)
#
#
# Indices 1 2 3 4 5 6 
#
# 1 140.9958 30.8121 23.7704 0.0000 0.0000 0.0000
# 2 30.8121 140.9970 23.7710 0.0000 0.0000 0.0000
# 3 23.7704 23.7710 73.3848 0.0000 0.0000 0.0000
# 4 0.0000 0.0000 0.0000 68.9772 0.0000 0.0000
# 5 0.0000 0.0000 0.0000 0.0000 68.9767 0.0000
# 6 0.0000 0.0000 0.0000 0.0000 0.0000 12.3487
#
#
#
# Elastic Compliance Matrix: (Units=1/GPa)
#
#
# Indices 1 2 3 4 5 6 
#
# 1 0.007735 -0.001341 -0.002071 0.000000 0.000000 0.000000
# 2 -0.001341 0.007735 -0.002071 0.000000 0.000000 0.000000
# 3 -0.002071 -0.002071 0.014968 0.000000 0.000000 0.000000
# 4 0.000000 0.000000 0.000000 0.014498 0.000000 0.000000
# 5 0.000000 0.000000 0.000000 0.000000 0.014498 0.000000
# 6 0.000000 0.000000 0.000000 0.000000 0.000000 0.080980
#
#
# Mechanical properties :
#
#
# Convention : Reuss Voigt Hill
#
# Bulk Modulus (GPa) = 51.35693 56.89827 54.12760
# Shear Modulus (GPa) = 31.67169 48.52879 40.10024
#
# Velocity S-wave (km/s) = 3.67292 4.54649 4.13285
# Velocity P-wave (km/s) = 6.31366 7.19696 6.76973
#
# Compressibility (1/GPa) = 0.01947157
#
# Stress axis : x y z
#
# Youngs Moduli (GPa) = 129.28878 129.28953 66.80715
#
# Poissons Ratio (x) = 0.17339 0.13835
# Poissons Ratio (y) = 0.17339 0.13836
# Poissons Ratio (z) = 0.26775 0.26776
#
# Static dielectric constant tensor:
#      x y z
#    x 2.066880 0.000000 0.000000 
#    y 0.000000 2.066890 0.000000 
#    z 0.000000 0.000000 1.913720 
# 
# From -- ./inp_files/9826.got.cif
#   From: 2010.05.17/outbox.cif.g08.bks.cpg/sg141_5_cif.got.tgz:9826.got - 2010.05.20 13:30:51.
