data_PCOD9573376
_publ_section_title
;
Structure prediction by ZEFSAII (Michael W. Deem and Ramdas Pophale) SiO2 
 PCOD9573376
Probable space group: I 41/A M D
;
_chemical_formula_sum "Si O2"
_cell_formula_units_Z 80
_cell_length_a 27.000000
_cell_length_b 27.000000
_cell_length_c 12.000000
_cell_angle_alpha 90.000000
_cell_angle_beta 90.000000
_cell_angle_gamma 90.000000
_cell_volume 8748.000000
_symmetry_space_group_name_H-M "I 41/A M D"
_symmetry_group_IT_number 141
_space_group.IT_coordinate_system_code '2'
_symmetry_cell_setting 'tetragonal'
loop_
_space_group_symop_operation_xyz
x,y,z
1/4-y,3/4+x,1/4+z
-x,1/2-y,z
1/4+y,1/4-x,3/4+z
x,-y,-z
-x,1/2+y,-z
1/4+y,3/4+x,1/4-z
1/4-y,1/4-x,3/4-z
-x,-y,-z
3/4+y,1/4-x,3/4-z
x,1/2+y,-z
3/4-y,3/4+x,1/4-z
-x,y,z
x,1/2-y,z
3/4-y,1/4-x,3/4+z
3/4+y,3/4+x,1/4+z
1/2+x,1/2+y,1/2+z
3/4-y,1/4+x,3/4+z
1/2-x,-y,1/2+z
3/4+y,3/4-x,1/4+z
1/2+x,1/2-y,1/2-z
1/2-x,y,1/2-z
3/4+y,1/4+x,3/4-z
3/4-y,3/4-x,1/4-z
1/2-x,1/2-y,1/2-z
1/4+y,3/4-x,1/4-z
1/2+x,y,1/2-z
1/4-y,1/4+x,3/4-z
1/2-x,1/2+y,1/2+z
1/2+x,-y,1/2+z
1/4-y,3/4-x,1/4+z
1/4+y,1/4+x,3/4+z
loop_
_atom_site_type_symbol
_atom_site_label
_atom_site_fract_x
_atom_site_fract_y
_atom_site_fract_z
Si Si1 0.313902 0.808223 0.880636
Si Si2 0.557456 0.870697 0.072870
Si Si3 0.354390 0.307291 0.867500
Si Si4 0.626233 0.950920 0.436902
Si Si5 0.441883 0.534116 0.225964
O O1 0.310514 0.750000 0.849407
O O2 0.352582 0.827967 0.789657
O O3 0.257535 0.826765 0.888689
O O4 0.331351 0.811977 0.008540
O O5 0.500000 0.857345 0.056108
O O6 0.589442 0.824510 0.112291
O O7 0.561075 0.912808 0.167515
O O8 0.349631 0.250000 0.832166
O O9 0.329817 0.344377 0.778277
O O10 0.667587 0.917587 0.375000
O O11 0.588670 0.967265 0.339175
O O12 0.645719 0.000000 0.500000
O O13 0.500000 0.523907 0.248976
#
# Coordination Sequence:
#
# PCOD9573376 Si02
#       5
#    32  32  32  32  32
#     4   9  18  33  56  86 115 150 201 254 296 342
#     4  10  20  35  55  85 127 163 198 243 297 357
#     4  11  22  36  59  90 121 159 205 244 292 358
#     4  12  24  42  67  87 117 152 195 249 310 368
#     4  10  19  34  60  91 117 152 200 255 303 345
#
# _framework density 9.1449470000000002
#
# number of rings (size 3 to 8) (size 9 to 14) (size 15 to 20)
#    0.000    1.600    4.000    1.800    0.000    3.600 
#    0.000    0.000    4.400    3.600    0.000    0.000 
#    0.000    0.000    0.000    0.000    0.000    0.000 
#
# Total GULP energy -446063.527823 kJ/mol
# GULP energy per Si atom -5575.794098 kJ/mol
# Density = 0.912413 g / cm^3
# Si number density = 9.144947 Si / 1000 Ang^3
#
#
#
# Elastic Constant Matrix: (Units=GPa)
#
#
# Indices 1 2 3 4 5 6 
#
# 1 70.2722 37.4840 20.4475 0.0000 0.0000 0.0000
# 2 37.4840 70.2722 20.4475 0.0000 0.0000 0.0000
# 3 20.4475 20.4475 78.8578 0.0000 0.0000 0.0000
# 4 0.0000 0.0000 0.0000 30.5654 0.0000 0.0000
# 5 0.0000 0.0000 0.0000 0.0000 30.5654 0.0000
# 6 0.0000 0.0000 0.0000 0.0000 0.0000 19.5379
#
#
#
# Elastic Compliance Matrix: (Units=1/GPa)
#
#
# Indices 1 2 3 4 5 6 
#
# 1 0.020396 -0.010103 -0.002669 0.000000 0.000000 0.000000
# 2 -0.010103 0.020396 -0.002669 0.000000 0.000000 0.000000
# 3 -0.002669 -0.002669 0.014065 0.000000 0.000000 0.000000
# 4 0.000000 0.000000 0.000000 0.032717 0.000000 0.000000
# 5 0.000000 0.000000 0.000000 0.000000 0.032717 0.000000
# 6 0.000000 0.000000 0.000000 0.000000 0.000000 0.051182
#
#
# Mechanical properties :
#
#
# Convention : Reuss Voigt Hill
#
# Bulk Modulus (GPa) = 41.70917 41.79557 41.75237
# Shear Modulus (GPa) = 23.77033 25.53530 24.65282
#
# Velocity S-wave (km/s) = 3.60897 3.74055 3.67535
# Velocity P-wave (km/s) = 6.34194 6.44647 6.39442
#
# Compressibility (1/GPa) = 0.02397555
#
# Stress axis : x y z
#
# Youngs Moduli (GPa) = 49.02938 49.02938 71.09773
#
# Poissons Ratio (x) = 0.49534 0.18976
# Poissons Ratio (y) = 0.49534 0.18976
# Poissons Ratio (z) = 0.13086 0.13086
#
# Static dielectric constant tensor:
#      x y z
#    x 1.659150 0.000000 0.000000 
#    y 0.000000 1.659150 0.000000 
#    z 0.000000 0.000000 1.630730 
# 
# From -- ./inp_files/4825.got.cif
#   From: 2010.05.17/outbox.ucp.g08.bks.cvg/sg141_3_cif.got.tgz:4825.got - 2010.06.11 11:43:24.
