data_PCOD9573194
_publ_section_title
;
Structure prediction by ZEFSAII (Michael W. Deem and Ramdas Pophale) SiO2 
 PCOD9573194
Probable space group: I 41/A M D
;
_chemical_formula_sum "Si O2"
_cell_formula_units_Z 160
_cell_length_a 21.478822
_cell_length_b 21.478822
_cell_length_c 20.433030
_cell_angle_alpha 90.000000
_cell_angle_beta 90.000000
_cell_angle_gamma 90.000000
_cell_volume 9426.569861
_symmetry_space_group_name_H-M "I 41/A M D"
_symmetry_group_IT_number 141
_space_group.IT_coordinate_system_code '2'
_symmetry_cell_setting 'tetragonal'
loop_
_space_group_symop_operation_xyz
x,y,z
1/4-y,3/4+x,1/4+z
-x,1/2-y,z
1/4+y,1/4-x,3/4+z
x,-y,-z
-x,1/2+y,-z
1/4+y,3/4+x,1/4-z
1/4-y,1/4-x,3/4-z
-x,-y,-z
3/4+y,1/4-x,3/4-z
x,1/2+y,-z
3/4-y,3/4+x,1/4-z
-x,y,z
x,1/2-y,z
3/4-y,1/4-x,3/4+z
3/4+y,3/4+x,1/4+z
1/2+x,1/2+y,1/2+z
3/4-y,1/4+x,3/4+z
1/2-x,-y,1/2+z
3/4+y,3/4-x,1/4+z
1/2+x,1/2-y,1/2-z
1/2-x,y,1/2-z
3/4+y,1/4+x,3/4-z
3/4-y,3/4-x,1/4-z
1/2-x,1/2-y,1/2-z
1/4+y,3/4-x,1/4-z
1/2+x,y,1/2-z
1/4-y,1/4+x,3/4-z
1/2-x,1/2+y,1/2+z
1/2+x,-y,1/2+z
1/4-y,3/4-x,1/4+z
1/4+y,1/4+x,3/4+z
loop_
_atom_site_type_symbol
_atom_site_label
_atom_site_fract_x
_atom_site_fract_y
_atom_site_fract_z
Si Si1 0.204204 0.507853 0.309138
Si Si2 0.500000 0.553433 0.945355
Si Si3 0.885926 0.888336 0.355362
Si Si4 0.000000 0.525450 0.315662
Si Si5 0.846176 0.250000 0.496601
Si Si6 0.129545 0.614036 0.514592
Si Si7 0.423528 0.250000 0.867907
O O1 0.250000 0.518256 0.250000
O O2 0.238901 0.488901 0.375000
O O3 0.170309 0.573021 0.324136
O O4 0.165750 0.444831 0.288703
O O5 0.500000 0.523444 0.874622
O O6 0.434305 0.587568 0.956280
O O7 0.500000 0.500000 0.000000
O O8 0.942210 0.930024 0.328347
O O9 0.877697 0.891938 0.434978
O O10 0.901233 0.816284 0.337855
O O11 0.000000 0.479888 0.252403
O O12 0.866050 0.185689 0.465071
O O13 0.885112 0.250000 0.564066
O O14 0.500000 0.250000 0.875038
#
# Coordination Sequence:
#
# PCOD9573194 Si02
#       7
#    32  16  32  16  16  32  16
#     4  12  23  37  59  86 119 155 199 244 293 358
#     4  12  22  31  51  75 110 156 205 239 287 321
#     4  11  21  38  60  84 112 147 202 243 300 351
#     4  12  20  35  54  77 110 155 195 245 281 345
#     4  10  24  32  51  80 111 144 194 245 288 325
#     4  11  22  37  53  80 112 158 199 250 282 344
#     4  10  22  40  63  86 114 152 196 249 294 360
#
# _framework density 16.973300999999999
#
# number of rings (size 3 to 8) (size 9 to 14) (size 15 to 20)
#    0.000    0.800    7.000    1.800    4.200    0.000 
#    0.000    0.500    2.200    0.000    0.000    0.000 
#    0.000    0.000    0.000    0.000    0.000    0.000 
#
# Total GULP energy -445443.931684 kJ/mol
# GULP energy per Si atom -5568.049146 kJ/mol
# Density = 1.693467 g / cm^3
# Si number density = 16.973301 Si / 1000 Ang^3
#
#
#
# Elastic Constant Matrix: (Units=GPa)
#
#
# Indices 1 2 3 4 5 6 
#
# 1 107.4485 125.4004 38.3166 0.0000 0.0000 0.0000
# 2 125.4004 107.4485 38.3166 0.0000 0.0000 0.0000
# 3 38.3166 38.3166 36.2472 0.0000 0.0000 0.0000
# 4 0.0000 0.0000 0.0000 1.2692 0.0000 0.0000
# 5 0.0000 0.0000 0.0000 0.0000 1.2692 0.0000
# 6 0.0000 0.0000 0.0000 0.0000 0.0000 43.7170
#
#
#
# Elastic Compliance Matrix: (Units=1/GPa)
#
#
# Indices 1 2 3 4 5 6 
#
# 1 -0.024559 0.031145 -0.006962 0.000000 0.000000 0.000000
# 2 0.031145 -0.024559 -0.006962 0.000000 0.000000 0.000000
# 3 -0.006962 -0.006962 0.042307 0.000000 0.000000 0.000000
# 4 0.000000 0.000000 0.000000 0.787879 0.000000 0.000000
# 5 0.000000 0.000000 0.000000 0.000000 0.787880 0.000000
# 6 0.000000 0.000000 0.000000 0.000000 0.000000 0.022874
#
#
# Mechanical properties :
#
#
# Convention : Reuss Voigt Hill
#
# Bulk Modulus (GPa) = 36.19087 72.80124 54.49606
# Shear Modulus (GPa) = 3.19165 12.52514 7.85839
#
# Velocity S-wave (km/s) = 1.37276 2.71944 2.15404
# Velocity P-wave (km/s) = 4.88684 7.26947 6.19380
#
# Compressibility (1/GPa) = 0.02763128
#
# Stress axis : x y z
#
# Youngs Moduli (GPa) = -40.71791 -40.71791 23.63679
#
# Poissons Ratio (x) = 1.26816 0.16456
# Poissons Ratio (y) = 1.26816 0.16456
# Poissons Ratio (z) = -0.28347 -0.28347
#
# Static dielectric constant tensor:
#      x y z
#    x 1.649020 0.000000 0.000000 
#    y 0.000000 1.649020 0.000000 
#    z 0.000000 0.000000 1.585740 
# 
# From -- ./inp_files/8729.got.cif
#   From: 2010.05.17/outbox.cif.g08.bks.cpg/sg141_5_cif.got.tgz:8729.got - 2010.05.20 13:30:51.
