data_PCOD9573577
_publ_section_title
;
Structure prediction by ZEFSAII (Michael W. Deem and Ramdas Pophale) SiO2 
 PCOD9573577
Probable space group: I 41/A C D
;
_chemical_formula_sum "Si O2"
_cell_formula_units_Z 112
_cell_length_a 26.944289
_cell_length_b 26.944289
_cell_length_c 8.525023
_cell_angle_alpha 90.000000
_cell_angle_beta 90.000000
_cell_angle_gamma 90.000000
_cell_volume 6189.121598
_symmetry_space_group_name_H-M "I 41/A C D"
_symmetry_group_IT_number 142
_space_group.IT_coordinate_system_code '2'
_symmetry_cell_setting 'tetragonal'
loop_
_space_group_symop_operation_xyz
x,y,z
1/4-y,3/4+x,1/4+z
-x,1/2-y,z
1/4+y,1/4-x,3/4+z
x,-y,1/2-z
1/2-x,y,-z
3/4+y,1/4+x,1/4-z
1/4-y,1/4-x,1/4-z
-x,-y,-z
3/4+y,1/4-x,3/4-z
x,1/2+y,-z
3/4-y,3/4+x,1/4-z
-x,y,1/2+z
1/2+x,-y,z
1/4-y,3/4-x,3/4+z
3/4+y,3/4+x,3/4+z
1/2+x,1/2+y,1/2+z
3/4-y,1/4+x,3/4+z
1/2-x,-y,1/2+z
3/4+y,3/4-x,1/4+z
1/2+x,1/2-y,-z
-x,1/2+y,1/2-z
1/4+y,3/4+x,3/4-z
3/4-y,3/4-x,3/4-z
1/2-x,1/2-y,1/2-z
1/4+y,3/4-x,1/4-z
1/2+x,y,1/2-z
1/4-y,1/4+x,3/4-z
1/2-x,1/2+y,z
x,1/2-y,1/2+z
3/4-y,1/4-x,1/4+z
1/4+y,1/4+x,1/4+z
loop_
_atom_site_type_symbol
_atom_site_label
_atom_site_fract_x
_atom_site_fract_y
_atom_site_fract_z
Si Si1 0.909908 0.853498 0.700939
Si Si2 0.684019 0.206001 0.727807
Si Si3 0.975694 0.000000 0.250000
Si Si4 0.404351 0.228002 0.454031
O O1 0.912039 0.905289 0.608850
O O2 0.888080 0.811234 0.588283
O O3 0.967459 0.836914 0.730043
O O4 0.889568 0.860433 0.875000
O O5 0.723264 0.194808 0.863975
O O6 0.711275 0.239411 0.596514
O O7 0.639257 0.231874 0.825434
O O8 0.452210 0.202210 0.375000
#
# Coordination Sequence:
#
# PCOD9573577 Si02
#       4
#    32  32  16  32
#     4  11  21  32  50  68 104 137 177 225 249 297
#     4  10  20  33  50  73  87 125 173 229 271 288
#     4  10  20  34  58  64  92 120 174 252 242 318
#     4  10  21  33  46  70 103 136 182 221 249 291
#
# _framework density 18.096267000000001
#
# number of rings (size 3 to 8) (size 9 to 14) (size 15 to 20)
#    0.000    1.714    2.857    3.429    0.000    3.429 
#    0.000    0.000    0.000    0.000    0.000    0.000 
#    0.000    0.000    0.000    0.000    0.000  857.143 
#
# Total GULP energy -312191.078009 kJ/mol
# GULP energy per Si atom -5574.840679 kJ/mol
# Density = 1.805508 g / cm^3
# Si number density = 18.096267 Si / 1000 Ang^3
#
#
#
# Elastic Constant Matrix: (Units=GPa)
#
#
# Indices 1 2 3 4 5 6 
#
# 1 61.9170 7.1703 35.8006 0.0000 0.0000 0.0000
# 2 7.1703 61.9164 35.8004 0.0000 0.0000 0.0000
# 3 35.8006 35.8004 156.1760 0.0000 0.0000 0.0000
# 4 0.0000 0.0000 0.0000 45.5154 0.0000 0.0000
# 5 0.0000 0.0000 0.0000 0.0000 45.5151 0.0000
# 6 0.0000 0.0000 0.0000 0.0000 0.0000 8.3862
#
#
#
# Elastic Compliance Matrix: (Units=1/GPa)
#
#
# Indices 1 2 3 4 5 6 
#
# 1 0.018625 0.000359 -0.004352 0.000000 0.000000 0.000000
# 2 0.000359 0.018625 -0.004352 0.000000 0.000000 0.000000
# 3 -0.004352 -0.004352 0.008398 0.000000 0.000000 0.000000
# 4 0.000000 0.000000 0.000000 0.021971 0.000000 0.000000
# 5 0.000000 0.000000 0.000000 0.000000 0.021971 0.000000
# 6 0.000000 0.000000 0.000000 0.000000 0.000000 0.119244
#
#
# Mechanical properties :
#
#
# Convention : Reuss Voigt Hill
#
# Bulk Modulus (GPa) = 34.53022 48.61689 41.57356
# Shear Modulus (GPa) = 21.26060 33.29921 27.27990
#
# Velocity S-wave (km/s) = 3.43134 4.29431 3.88685
# Velocity P-wave (km/s) = 5.90099 7.17720 6.57015
#
# Compressibility (1/GPa) = 0.02896014
#
# Stress axis : x y z
#
# Youngs Moduli (GPa) = 53.69034 53.68985 119.07280
#
# Poissons Ratio (x) = -0.01929 0.51819
# Poissons Ratio (y) = -0.01930 0.51820
# Poissons Ratio (z) = 0.23366 0.23365
#
# Static dielectric constant tensor:
#      x y z
#    x 1.640800 0.000000 0.000000 
#    y 0.000000 1.640790 0.000000 
#    z 0.000000 0.000000 1.728480 
# 
# From -- ./inp_files/1959.got.cif
#   From: 2010.05.17/outbox.cif.g08.bks.cpg/sg142_1_cif.got.tgz:1959.got - 2010.05.20 13:39:18.
