data_PCOD9573189
_publ_section_title
;
Structure prediction by ZEFSAII (Michael W. Deem and Ramdas Pophale) SiO2 
 PCOD9573189
Probable space group: I 41/A M D
;
_chemical_formula_sum "Si O2"
_cell_formula_units_Z 52
_cell_length_a 7.619115
_cell_length_b 7.619115
_cell_length_c 46.500386
_cell_angle_alpha 90.000000
_cell_angle_beta 90.000000
_cell_angle_gamma 90.000000
_cell_volume 2699.389880
_symmetry_space_group_name_H-M "I 41/A M D"
_symmetry_group_IT_number 141
_space_group.IT_coordinate_system_code '2'
_symmetry_cell_setting 'tetragonal'
loop_
_space_group_symop_operation_xyz
x,y,z
1/4-y,3/4+x,1/4+z
-x,1/2-y,z
1/4+y,1/4-x,3/4+z
x,-y,-z
-x,1/2+y,-z
1/4+y,3/4+x,1/4-z
1/4-y,1/4-x,3/4-z
-x,-y,-z
3/4+y,1/4-x,3/4-z
x,1/2+y,-z
3/4-y,3/4+x,1/4-z
-x,y,z
x,1/2-y,z
3/4-y,1/4-x,3/4+z
3/4+y,3/4+x,1/4+z
1/2+x,1/2+y,1/2+z
3/4-y,1/4+x,3/4+z
1/2-x,-y,1/2+z
3/4+y,3/4-x,1/4+z
1/2+x,1/2-y,1/2-z
1/2-x,y,1/2-z
3/4+y,1/4+x,3/4-z
3/4-y,3/4-x,1/4-z
1/2-x,1/2-y,1/2-z
1/4+y,3/4-x,1/4-z
1/2+x,y,1/2-z
1/4-y,1/4+x,3/4-z
1/2-x,1/2+y,1/2+z
1/2+x,-y,1/2+z
1/4-y,3/4-x,1/4+z
1/4+y,1/4+x,3/4+z
loop_
_atom_site_type_symbol
_atom_site_label
_atom_site_fract_x
_atom_site_fract_y
_atom_site_fract_z
Si Si1 0.500000 0.750000 0.375000
Si Si2 0.212345 0.250000 0.576405
Si Si3 0.196519 0.463632 0.281976
O O1 0.327945 0.750000 0.395125
O O2 0.260185 0.416577 0.556548
O O3 0.000000 0.250000 0.581292
O O4 0.197490 0.250000 0.280843
O O5 0.250000 0.523375 0.250000
O O6 0.000000 0.522007 0.288430
#
# Coordination Sequence:
#
# PCOD9573189 Si02
#       3
#     4  16  32
#     4  12  28  44  56  80 116 160 216 240 280 340
#     4  10  22  40  60  82 115 158 195 246 290 342
#     4   9  15  28  57  92 119 146 183 230 298 361
#
# _framework density 19.263611999999998
#
# number of rings (size 3 to 8) (size 9 to 14) (size 15 to 20)
#    0.000    2.462    3.077    0.000    0.000    2.462 
#    0.000    1.538    0.000    0.000    0.000    0.000 
#    0.000    0.000    0.000    0.000    0.000    0.000 
#
# Total GULP energy -145161.697008 kJ/mol
# GULP energy per Si atom -5583.142193 kJ/mol
# Density = 1.921977 g / cm^3
# Si number density = 19.263612 Si / 1000 Ang^3
#
#
#
# Elastic Constant Matrix: (Units=GPa)
#
#
# Indices 1 2 3 4 5 6 
#
# 1 127.6712 37.4878 82.0226 0.0000 0.0000 0.0000
# 2 37.4878 127.6712 82.0226 0.0000 0.0000 0.0000
# 3 82.0226 82.0226 177.6782 0.0000 0.0000 0.0000
# 4 0.0000 0.0000 0.0000 60.2741 0.0000 0.0000
# 5 0.0000 0.0000 0.0000 0.0000 60.2741 0.0000
# 6 0.0000 0.0000 0.0000 0.0000 0.0000 -2.5308
#
#
#
# Elastic Compliance Matrix: (Units=1/GPa)
#
#
# Indices 1 2 3 4 5 6 
#
# 1 0.011135 0.000047 -0.005162 0.000000 0.000000 0.000000
# 2 0.000047 0.011135 -0.005162 0.000000 0.000000 0.000000
# 3 -0.005162 -0.005162 0.010394 0.000000 0.000000 0.000000
# 4 0.000000 0.000000 0.000000 0.016591 0.000000 0.000000
# 5 0.000000 0.000000 0.000000 0.000000 0.016591 0.000000
# 6 0.000000 0.000000 0.000000 0.000000 0.000000 -0.395130
#
#
# Mechanical properties :
#
#
# Convention : Reuss Voigt Hill
#
# Bulk Modulus (GPa) = 82.57629 92.89853 87.73741
# Shear Modulus (GPa) = -16.41000 39.03598 11.31299
#
# Velocity S-wave (km/s) = -2.92184 4.50645 2.42600
# Velocity P-wave (km/s) = 5.61931 8.68372 7.31381
#
# Compressibility (1/GPa) = 0.01211001
#
# Stress axis : x y z
#
# Youngs Moduli (GPa) = 89.80506 89.80507 96.20876
#
# Poissons Ratio (x) = -0.00420 0.49663
# Poissons Ratio (y) = -0.00420 0.49663
# Poissons Ratio (z) = 0.46357 0.46357
#
# Static dielectric constant tensor:
#      x y z
#    x 1.691360 0.000000 0.000000 
#    y 0.000000 1.691360 0.000000 
#    z 0.000000 0.000000 1.612930 
# 
# From -- ./inp_files/13385.got.cif
#   From: 2010.05.17/outbox.cif.g08.bks.cpg/sg141_7_cif.got.tgz:13385.got - 2010.05.20 13:30:51.
