data_PCOD9573679
_publ_section_title
;
Structure prediction by ZEFSAII (Michael W. Deem and Ramdas Pophale) SiO2 
 PCOD9573679
Probable space group: I 41/A C D
;
_chemical_formula_sum "Si O2"
_cell_formula_units_Z 144
_cell_length_a 16.621291
_cell_length_b 16.621291
_cell_length_c 25.845801
_cell_angle_alpha 90.000000
_cell_angle_beta 90.000000
_cell_angle_gamma 90.000000
_cell_volume 7140.350034
_symmetry_space_group_name_H-M "I 41/A C D"
_symmetry_group_IT_number 142
_space_group.IT_coordinate_system_code '2'
_symmetry_cell_setting 'tetragonal'
loop_
_space_group_symop_operation_xyz
x,y,z
1/4-y,3/4+x,1/4+z
-x,1/2-y,z
1/4+y,1/4-x,3/4+z
x,-y,1/2-z
1/2-x,y,-z
3/4+y,1/4+x,1/4-z
1/4-y,1/4-x,1/4-z
-x,-y,-z
3/4+y,1/4-x,3/4-z
x,1/2+y,-z
3/4-y,3/4+x,1/4-z
-x,y,1/2+z
1/2+x,-y,z
1/4-y,3/4-x,3/4+z
3/4+y,3/4+x,3/4+z
1/2+x,1/2+y,1/2+z
3/4-y,1/4+x,3/4+z
1/2-x,-y,1/2+z
3/4+y,3/4-x,1/4+z
1/2+x,1/2-y,-z
-x,1/2+y,1/2-z
1/4+y,3/4+x,3/4-z
3/4-y,3/4-x,3/4-z
1/2-x,1/2-y,1/2-z
1/4+y,3/4-x,1/4-z
1/2+x,y,1/2-z
1/4-y,1/4+x,3/4-z
1/2-x,1/2+y,z
x,1/2-y,1/2+z
3/4-y,1/4-x,1/4+z
1/4+y,1/4+x,1/4+z
loop_
_atom_site_type_symbol
_atom_site_label
_atom_site_fract_x
_atom_site_fract_y
_atom_site_fract_z
Si Si1 0.862421 0.700036 0.421596
Si Si2 0.701858 0.178711 0.628163
Si Si3 0.358421 0.318814 0.196357
Si Si4 0.336491 0.028630 0.974533
Si Si5 0.500000 0.250000 0.266383
O O1 0.915711 0.665711 0.375000
O O2 0.778604 0.723145 0.396818
O O3 0.837640 0.622547 0.456571
O O4 0.919194 0.763869 0.449966
O O5 0.655091 0.250124 0.654903
O O6 0.648304 0.137787 0.583958
O O7 0.730396 0.115945 0.673376
O O8 0.281358 0.345643 0.230564
O O9 0.424973 0.278208 0.232964
O O10 0.250000 0.007646 0.000000
#
# Coordination Sequence:
#
# PCOD9573679 Si02
#       5
#    32  32  32  32  16
#     4   9  19  37  64  85 119 164 216 268 325 387
#     4  11  22  39  62  91 131 172 215 274 338 395
#     4  11  22  38  61  94 130 169 214 270 338 394
#     4  10  20  39  63  88 120 174 220 263 328 402
#     4  10  21  37  62  90 122 164 220 266 320 400
#
# _framework density 20.167078
#
# number of rings (size 3 to 8) (size 9 to 14) (size 15 to 20)
#    0.000    1.778    2.222    2.333    0.000    0.000 
#    4.000    0.000    9.778    0.000    0.000    0.000 
#    0.000    0.000    0.000    0.000    0.000    0.000 
#
# Total GULP energy -401061.856593 kJ/mol
# GULP energy per Si atom -5570.303564 kJ/mol
# Density = 2.012118 g / cm^3
# Si number density = 20.167078 Si / 1000 Ang^3
#
#
#
# Elastic Constant Matrix: (Units=GPa)
#
#
# Indices 1 2 3 4 5 6 
#
# 1 71.1552 39.5392 39.0191 0.0000 0.0000 0.0000
# 2 39.5392 71.1552 39.0191 0.0000 0.0000 0.0000
# 3 39.0191 39.0191 93.1694 0.0000 0.0000 0.0000
# 4 0.0000 0.0000 0.0000 -6.4981 0.0000 0.0000
# 5 0.0000 0.0000 0.0000 0.0000 -6.4981 0.0000
# 6 0.0000 0.0000 0.0000 0.0000 0.0000 7.5056
#
#
#
# Elastic Compliance Matrix: (Units=1/GPa)
#
#
# Indices 1 2 3 4 5 6 
#
# 1 0.022224 -0.009405 -0.005368 0.000000 0.000000 0.000000
# 2 -0.009405 0.022224 -0.005368 0.000000 0.000000 0.000000
# 3 -0.005368 -0.005368 0.015230 0.000000 0.000000 0.000000
# 4 0.000000 0.000000 0.000000 -0.153890 0.000000 0.000000
# 5 0.000000 0.000000 0.000000 0.000000 -0.153890 0.000000
# 6 0.000000 0.000000 0.000000 0.000000 0.000000 0.133234
#
#
# Mechanical properties :
#
#
# Convention : Reuss Voigt Hill
#
# Bulk Modulus (GPa) = 51.56440 52.29275 51.92857
# Shear Modulus (GPa) = -73.39983 6.76203 -33.31890
#
# Velocity S-wave (km/s) = -6.03944 1.83311 -4.06907
# Velocity P-wave (km/s) = 4.79678 5.51964 1.93098
#
# Compressibility (1/GPa) = 0.01939323
#
# Stress axis : x y z
#
# Youngs Moduli (GPa) = 44.99640 44.99640 65.66140
#
# Poissons Ratio (x) = 0.42321 0.35249
# Poissons Ratio (y) = 0.42321 0.35249
# Poissons Ratio (z) = 0.24156 0.24156
#
# Static dielectric constant tensor:
#      x y z
#    x 1.737400 0.000000 0.000000 
#    y 0.000000 1.737400 0.000000 
#    z 0.000000 0.000000 1.861070 
# 
# From -- ./inp_files/10134.got.cif
#   From: 2010.05.17/outbox.cif.g08.bks.cpg/sg142_6_cif.got.tgz:10134.got - 2010.05.20 13:39:18.
