data_PCOD9573175
_publ_section_title
;
Structure prediction by ZEFSAII (Michael W. Deem and Ramdas Pophale) SiO2 
 PCOD9573175
Probable space group: I 41/A M D
;
_chemical_formula_sum "Si O2"
_cell_formula_units_Z 160
_cell_length_a 22.182511
_cell_length_b 22.182511
_cell_length_c 16.285497
_cell_angle_alpha 90.000000
_cell_angle_beta 90.000000
_cell_angle_gamma 90.000000
_cell_volume 8013.503445
_symmetry_space_group_name_H-M "I 41/A M D"
_symmetry_group_IT_number 141
_space_group.IT_coordinate_system_code '2'
_symmetry_cell_setting 'tetragonal'
loop_
_space_group_symop_operation_xyz
x,y,z
1/4-y,3/4+x,1/4+z
-x,1/2-y,z
1/4+y,1/4-x,3/4+z
x,-y,-z
-x,1/2+y,-z
1/4+y,3/4+x,1/4-z
1/4-y,1/4-x,3/4-z
-x,-y,-z
3/4+y,1/4-x,3/4-z
x,1/2+y,-z
3/4-y,3/4+x,1/4-z
-x,y,z
x,1/2-y,z
3/4-y,1/4-x,3/4+z
3/4+y,3/4+x,1/4+z
1/2+x,1/2+y,1/2+z
3/4-y,1/4+x,3/4+z
1/2-x,-y,1/2+z
3/4+y,3/4-x,1/4+z
1/2+x,1/2-y,1/2-z
1/2-x,y,1/2-z
3/4+y,1/4+x,3/4-z
3/4-y,3/4-x,1/4-z
1/2-x,1/2-y,1/2-z
1/4+y,3/4-x,1/4-z
1/2+x,y,1/2-z
1/4-y,1/4+x,3/4-z
1/2-x,1/2+y,1/2+z
1/2+x,-y,1/2+z
1/4-y,3/4-x,1/4+z
1/4+y,1/4+x,3/4+z
loop_
_atom_site_type_symbol
_atom_site_label
_atom_site_fract_x
_atom_site_fract_y
_atom_site_fract_z
Si Si1 0.126979 0.183718 0.252510
Si Si2 0.690561 0.364847 0.400149
Si Si3 0.652440 0.999426 0.598001
Si Si4 0.682846 0.682811 0.934597
Si Si5 0.342750 0.179149 0.574025
O O1 0.097336 0.250000 0.242117
O O2 0.174905 0.174531 0.179540
O O3 0.158395 0.184623 0.341341
O O4 0.085361 0.124061 0.258990
O O5 0.670246 0.432135 0.378918
O O6 0.760154 0.361412 0.428570
O O7 0.654476 0.340815 0.479145
O O8 0.645776 0.000000 0.500000
O O9 0.706287 0.043713 0.625000
O O10 0.594039 0.028571 0.640184
O O11 0.704880 0.750000 0.956694
O O12 0.392988 0.142988 0.625000
O O13 0.349083 0.250000 0.581952
#
# Coordination Sequence:
#
# PCOD9573175 Si02
#       5
#    32  32  32  32  32
#     4  10  22  38  60  92 127 167 215 267 315 377
#     4  12  22  39  65  95 129 166 212 268 327 384
#     4  11  23  41  64  99 130 166 210 262 324 385
#     4  10  22  39  60  90 127 174 216 255 322 389
#     4  11  24  45  67  93 128 171 218 269 327 386
#
# _framework density 19.966297999999998
#
# number of rings (size 3 to 8) (size 9 to 14) (size 15 to 20)
#    0.000    1.200    4.000    3.600    2.800    2.600 
#    0.000    3.000    0.000    2.400    0.000    0.000 
#    0.000    0.000    0.000    0.000    0.000    0.000 
#
# Total GULP energy -446622.102179 kJ/mol
# GULP energy per Si atom -5582.776277 kJ/mol
# Density = 1.992085 g / cm^3
# Si number density = 19.966298 Si / 1000 Ang^3
#
#
#
# Elastic Constant Matrix: (Units=GPa)
#
#
# Indices 1 2 3 4 5 6 
#
# 1 121.8381 42.9861 15.0743 0.0000 0.0000 0.0000
# 2 42.9861 121.8359 15.0749 0.0000 0.0000 0.0000
# 3 15.0743 15.0749 84.7949 0.0000 0.0000 0.0000
# 4 0.0000 0.0000 0.0000 17.0700 0.0000 0.0000
# 5 0.0000 0.0000 0.0000 0.0000 17.0699 0.0000
# 6 0.0000 0.0000 0.0000 0.0000 0.0000 19.2866
#
#
#
# Elastic Compliance Matrix: (Units=1/GPa)
#
#
# Indices 1 2 3 4 5 6 
#
# 1 0.009476 -0.003206 -0.001115 0.000000 0.000000 0.000000
# 2 -0.003206 0.009477 -0.001115 0.000000 0.000000 0.000000
# 3 -0.001115 -0.001115 0.012190 0.000000 0.000000 0.000000
# 4 0.000000 0.000000 0.000000 0.058582 0.000000 0.000000
# 5 0.000000 0.000000 0.000000 0.000000 0.058583 0.000000
# 6 0.000000 0.000000 0.000000 0.000000 0.000000 0.051850
#
#
# Mechanical properties :
#
#
# Convention : Reuss Voigt Hill
#
# Bulk Modulus (GPa) = 49.32854 52.74882 51.03868
# Shear Modulus (GPa) = 22.95839 27.70753 25.33296
#
# Velocity S-wave (km/s) = 3.39463 3.72925 3.56587
# Velocity P-wave (km/s) = 6.33437 6.70964 6.52471
#
# Compressibility (1/GPa) = 0.02027224
#
# Stress axis : x y z
#
# Youngs Moduli (GPa) = 105.52421 105.52202 82.03745
#
# Poissons Ratio (x) = 0.33826 0.09145
# Poissons Ratio (y) = 0.33826 0.09146
# Poissons Ratio (z) = 0.11764 0.11765
#
# Static dielectric constant tensor:
#      x y z
#    x 1.713620 0.000000 0.000000 
#    y 0.000000 1.713620 0.000000 
#    z 0.000000 0.000000 1.707400 
# 
# From -- ./inp_files/6637.got.cif
#   From: 2010.05.17/outbox.cif.g08.bks.cpg/sg141_4_cif.got.tgz:6637.got - 2010.05.20 13:30:51.
