data_PCOD9573353
_publ_section_title
;
Structure prediction by ZEFSAII (Michael W. Deem and Ramdas Pophale) SiO2 
 PCOD9573353
Probable space group: I 41/A M D
;
_chemical_formula_sum "Si O2"
_cell_formula_units_Z 112
_cell_length_a 14.999589
_cell_length_b 14.999589
_cell_length_c 27.872467
_cell_angle_alpha 90.000000
_cell_angle_beta 90.000000
_cell_angle_gamma 90.000000
_cell_volume 6270.961412
_symmetry_space_group_name_H-M "I 41/A M D"
_symmetry_group_IT_number 141
_space_group.IT_coordinate_system_code '2'
_symmetry_cell_setting 'tetragonal'
loop_
_space_group_symop_operation_xyz
x,y,z
1/4-y,3/4+x,1/4+z
-x,1/2-y,z
1/4+y,1/4-x,3/4+z
x,-y,-z
-x,1/2+y,-z
1/4+y,3/4+x,1/4-z
1/4-y,1/4-x,3/4-z
-x,-y,-z
3/4+y,1/4-x,3/4-z
x,1/2+y,-z
3/4-y,3/4+x,1/4-z
-x,y,z
x,1/2-y,z
3/4-y,1/4-x,3/4+z
3/4+y,3/4+x,1/4+z
1/2+x,1/2+y,1/2+z
3/4-y,1/4+x,3/4+z
1/2-x,-y,1/2+z
3/4+y,3/4-x,1/4+z
1/2+x,1/2-y,1/2-z
1/2-x,y,1/2-z
3/4+y,1/4+x,3/4-z
3/4-y,3/4-x,1/4-z
1/2-x,1/2-y,1/2-z
1/4+y,3/4-x,1/4-z
1/2+x,y,1/2-z
1/4-y,1/4+x,3/4-z
1/2-x,1/2+y,1/2+z
1/2+x,-y,1/2+z
1/4-y,3/4-x,1/4+z
1/4+y,1/4+x,3/4+z
loop_
_atom_site_type_symbol
_atom_site_label
_atom_site_fract_x
_atom_site_fract_y
_atom_site_fract_z
Si Si1 0.762295 0.987706 0.125000
Si Si2 0.696319 0.643197 0.051620
Si Si3 0.103138 0.750000 0.689028
Si Si4 0.897038 0.750000 0.804399
Si Si5 0.698528 0.642456 0.937290
O O1 0.761675 0.907803 0.086973
O O2 0.761149 0.078002 0.092893
O O3 0.698208 0.750000 0.057627
O O4 0.596596 0.609005 0.065991
O O5 0.710092 0.627389 0.994697
O O6 0.102984 0.750000 0.746624
O O7 0.138202 0.653472 0.675147
O O8 0.000000 0.750000 0.674946
O O9 0.000000 0.750000 0.820778
O O10 0.706141 0.750000 0.929029
#
# Coordination Sequence:
#
# PCOD9573353 Si02
#       5
#    16  32  16  16  32
#     4  12  22  28  53  81  96 132 178 210 246 298
#     4   9  19  36  51  69 103 138 169 209 253 299
#     4   7  12  27  43  61  98 143 159 176 235 297
#     4   7  12  27  51  65  86 133 171 192 235 297
#     4   9  19  32  47  73 109 137 161 202 250 300
#
# _framework density 17.860101
#
# number of rings (size 3 to 8) (size 9 to 14) (size 15 to 20)
#    0.000    3.143    0.000    4.286    4.000    0.000 
#    0.000    4.286    0.000    3.857    0.000    4.000 
#    0.000    0.000    0.000    0.000    0.000    0.000 
#
# Total GULP energy -311825.977718 kJ/mol
# GULP energy per Si atom -5568.321031 kJ/mol
# Density = 1.781945 g / cm^3
# Si number density = 17.860101 Si / 1000 Ang^3
#
#
#
# Elastic Constant Matrix: (Units=GPa)
#
#
# Indices 1 2 3 4 5 6 
#
# 1 39.5711 16.2955 40.3825 0.0000 0.0000 0.0000
# 2 16.2955 39.5723 40.3821 0.0000 0.0000 0.0000
# 3 40.3825 40.3821 103.1817 0.0000 0.0000 0.0000
# 4 0.0000 0.0000 0.0000 31.5920 0.0000 0.0000
# 5 0.0000 0.0000 0.0000 0.0000 31.5919 0.0000
# 6 0.0000 0.0000 0.0000 0.0000 0.0000 15.5715
#
#
#
# Elastic Compliance Matrix: (Units=1/GPa)
#
#
# Indices 1 2 3 4 5 6 
#
# 1 0.042094 -0.000870 -0.016134 0.000000 0.000000 0.000000
# 2 -0.000870 0.042091 -0.016133 0.000000 0.000000 0.000000
# 3 -0.016134 -0.016133 0.022320 0.000000 0.000000 0.000000
# 4 0.000000 0.000000 0.000000 0.031654 0.000000 0.000000
# 5 0.000000 0.000000 0.000000 0.000000 0.031654 0.000000
# 6 0.000000 0.000000 0.000000 0.000000 0.000000 0.064220
#
#
# Mechanical properties :
#
#
# Convention : Reuss Voigt Hill
#
# Bulk Modulus (GPa) = 24.85575 41.82726 33.34150
# Shear Modulus (GPa) = 15.93795 21.43541 18.68668
#
# Velocity S-wave (km/s) = 2.99051 3.46813 3.23814
# Velocity P-wave (km/s) = 5.08639 6.28549 5.71746
#
# Compressibility (1/GPa) = 0.04023214
#
# Stress axis : x y z
#
# Youngs Moduli (GPa) = 23.75633 23.75780 44.80284
#
# Poissons Ratio (x) = 0.02066 0.72285
# Poissons Ratio (y) = 0.02066 0.72280
# Poissons Ratio (z) = 0.38329 0.38328
#
# Static dielectric constant tensor:
#      x y z
#    x 1.644520 0.000000 0.000000 
#    y 0.000000 1.644520 0.000000 
#    z 0.000000 0.000000 1.623380 
# 
# From -- ./inp_files/12539.got.cif
#   From: 2010.05.17/outbox.cif.g08.bks.cpg/sg141_7_cif.got.tgz:12539.got - 2010.05.20 13:30:51.
