data_PCOD9573777
_publ_section_title
;
Structure prediction by ZEFSAII (Michael W. Deem and Ramdas Pophale) SiO2 
 PCOD9573777
Probable space group: I 41/A C D
;
_chemical_formula_sum "Si O2"
_cell_formula_units_Z 136
_cell_length_a 22.595836
_cell_length_b 22.595836
_cell_length_c 12.884631
_cell_angle_alpha 90.000000
_cell_angle_beta 90.000000
_cell_angle_gamma 90.000000
_cell_volume 6578.529300
_symmetry_space_group_name_H-M "I 41/A C D"
_symmetry_group_IT_number 142
_space_group.IT_coordinate_system_code '2'
_symmetry_cell_setting 'tetragonal'
loop_
_space_group_symop_operation_xyz
x,y,z
1/4-y,3/4+x,1/4+z
-x,1/2-y,z
1/4+y,1/4-x,3/4+z
x,-y,1/2-z
1/2-x,y,-z
3/4+y,1/4+x,1/4-z
1/4-y,1/4-x,1/4-z
-x,-y,-z
3/4+y,1/4-x,3/4-z
x,1/2+y,-z
3/4-y,3/4+x,1/4-z
-x,y,1/2+z
1/2+x,-y,z
1/4-y,3/4-x,3/4+z
3/4+y,3/4+x,3/4+z
1/2+x,1/2+y,1/2+z
3/4-y,1/4+x,3/4+z
1/2-x,-y,1/2+z
3/4+y,3/4-x,1/4+z
1/2+x,1/2-y,-z
-x,1/2+y,1/2-z
1/4+y,3/4+x,3/4-z
3/4-y,3/4-x,3/4-z
1/2-x,1/2-y,1/2-z
1/4+y,3/4-x,1/4-z
1/2+x,y,1/2-z
1/4-y,1/4+x,3/4-z
1/2-x,1/2+y,z
x,1/2-y,1/2+z
3/4-y,1/4-x,1/4+z
1/4+y,1/4+x,1/4+z
loop_
_atom_site_type_symbol
_atom_site_label
_atom_site_fract_x
_atom_site_fract_y
_atom_site_fract_z
Si Si1 0.221987 0.126384 0.218982
Si Si2 0.097276 0.279336 0.033576
Si Si3 0.000000 0.250000 0.375000
Si Si4 0.831366 0.500000 0.250000
Si Si5 0.795820 0.859209 0.412264
Si Si6 0.098915 0.848915 0.375000
O O1 0.250261 0.120993 0.104204
O O2 0.259831 0.158066 0.307741
O O3 0.156301 0.150848 0.198889
O O4 0.209281 0.058196 0.250986
O O5 0.061903 0.311903 0.125000
O O6 0.161507 0.309904 0.035902
O O7 0.101965 0.210528 0.059734
O O8 0.052475 0.282233 0.937836
O O9 0.750000 0.878751 0.500000
O O10 0.838254 0.911747 0.375000
#
# Coordination Sequence:
#
# PCOD9573777 Si02
#       6
#    32  32   8  16  32  16
#     4  10  21  38  64  93 136 177 218 288 346 423
#     4  11  24  46  69 102 129 182 243 287 347 423
#     4  12  22  44  84  86 132 196 238 296 348 426
#     4   8  18  36  60  94 124 184 230 252 348 432
#     4  11  26  42  66 104 144 180 230 292 359 427
#     4  10  21  44  66  94 136 170 236 286 356 413
#
# _framework density 20.673314000000001
#
# number of rings (size 3 to 8) (size 9 to 14) (size 15 to 20)
#    0.000    1.882    2.353    1.412    8.235    0.941 
#   12.706    0.000    0.000    0.000    0.000    0.000 
#    0.000    0.000    0.000    0.000    0.000    0.000 
#
# Total GULP energy -379488.912216 kJ/mol
# GULP energy per Si atom -5580.719297 kJ/mol
# Density = 2.062626 g / cm^3
# Si number density = 20.673314 Si / 1000 Ang^3
#
#
#
# Elastic Constant Matrix: (Units=GPa)
#
#
# Indices 1 2 3 4 5 6 
#
# 1 37.5928 54.9908 34.5126 0.0000 0.0000 0.0000
# 2 54.9908 37.5897 34.5092 0.0000 0.0000 0.0000
# 3 34.5126 34.5092 106.5134 0.0000 0.0000 0.0000
# 4 0.0000 0.0000 0.0000-2365.9649 0.0000 0.0000
# 5 0.0000 0.0000 0.0000 0.0000-2369.2866 0.0000
# 6 0.0000 0.0000 0.0000 0.0000 0.0000 16.4055
#
#
#
# Elastic Compliance Matrix: (Units=1/GPa)
#
#
# Indices 1 2 3 4 5 6 
#
# 1 -0.021615 0.035857 -0.004613 0.000000 0.000000 0.000000
# 2 0.035857 -0.021616 -0.004615 0.000000 0.000000 0.000000
# 3 -0.004613 -0.004615 0.012379 0.000000 0.000000 0.000000
# 4 0.000000 0.000000 0.000000 -0.000423 0.000000 0.000000
# 5 0.000000 0.000000 0.000000 0.000000 -0.000422 0.000000
# 6 0.000000 0.000000 0.000000 0.000000 0.000000 0.060955
#
#
# Mechanical properties :
#
#
# Convention : Reuss Voigt Hill
#
# Bulk Modulus (GPa) = 44.63471 47.74681 46.19076
# Shear Modulus (GPa) = -302.44867 -939.92365 -621.18616
#
# Velocity S-wave (km/s) = -12.10854 -21.34579 -17.35309
# Velocity P-wave (km/s) = 13.18528 24.17390 19.47086
#
# Compressibility (1/GPa) = 0.02240409
#
# Stress axis : x y z
#
# Youngs Moduli (GPa) = -46.26319 -46.26160 80.78481
#
# Poissons Ratio (x) = 1.65881 0.37270
# Poissons Ratio (y) = 1.65886 0.37283
# Poissons Ratio (z) = -0.21343 -0.21350
#
# Static dielectric constant tensor:
#      x y z
#    x 1.770100 0.000000 0.000000 
#    y 0.000000 1.770110 0.000000 
#    z 0.000000 0.000000 1.765900 
# 
# From -- ./inp_files/3672.got.cif
#   From: 2010.05.17/outbox.cif.g08.bks.cpg/sg142_2_cif.got.tgz:3672.got - 2010.05.20 13:39:18.
