data_PCOD9573789
_publ_section_title
;
Structure prediction by ZEFSAII (Michael W. Deem and Ramdas Pophale) SiO2 
 PCOD9573789
Probable space group: I 41/A C D
;
_chemical_formula_sum "Si O2"
_cell_formula_units_Z 104
_cell_length_a 13.683775
_cell_length_b 13.683775
_cell_length_c 22.134362
_cell_angle_alpha 90.000000
_cell_angle_beta 90.000000
_cell_angle_gamma 90.000000
_cell_volume 4144.564068
_symmetry_space_group_name_H-M "I 41/A C D"
_symmetry_group_IT_number 142
_space_group.IT_coordinate_system_code '2'
_symmetry_cell_setting 'tetragonal'
loop_
_space_group_symop_operation_xyz
x,y,z
1/4-y,3/4+x,1/4+z
-x,1/2-y,z
1/4+y,1/4-x,3/4+z
x,-y,1/2-z
1/2-x,y,-z
3/4+y,1/4+x,1/4-z
1/4-y,1/4-x,1/4-z
-x,-y,-z
3/4+y,1/4-x,3/4-z
x,1/2+y,-z
3/4-y,3/4+x,1/4-z
-x,y,1/2+z
1/2+x,-y,z
1/4-y,3/4-x,3/4+z
3/4+y,3/4+x,3/4+z
1/2+x,1/2+y,1/2+z
3/4-y,1/4+x,3/4+z
1/2-x,-y,1/2+z
3/4+y,3/4-x,1/4+z
1/2+x,1/2-y,-z
-x,1/2+y,1/2-z
1/4+y,3/4+x,3/4-z
3/4-y,3/4-x,3/4-z
1/2-x,1/2-y,1/2-z
1/4+y,3/4-x,1/4-z
1/2+x,y,1/2-z
1/4-y,1/4+x,3/4-z
1/2-x,1/2+y,z
x,1/2-y,1/2+z
3/4-y,1/4-x,1/4+z
1/4+y,1/4+x,1/4+z
loop_
_atom_site_type_symbol
_atom_site_label
_atom_site_fract_x
_atom_site_fract_y
_atom_site_fract_z
Si Si1 0.091774 0.358004 0.844185
Si Si2 0.340334 0.310886 0.278502
Si Si3 0.750000 0.470477 0.500000
Si Si4 0.781124 0.468877 0.625000
Si Si5 0.500000 0.750000 0.625000
O O1 0.131421 0.260517 0.876342
O O2 0.081823 0.331987 0.774509
O O3 0.172606 0.437604 0.856235
O O4 0.250000 0.250000 0.250000
O O5 0.285833 0.415735 0.281429
O O6 0.401484 0.262847 0.333172
O O7 0.794889 0.415556 0.558910
#
# Coordination Sequence:
#
# PCOD9573789 Si02
#       5
#    32  32  16  16   8
#     4  10  21  41  67  97 137 190 251 314 383 467
#     4  11  25  45  72 108 148 198 259 323 397 476
#     4  10  22  42  64 100 150 194 250 330 392 470
#     4  10  21  39  64  92 136 189 245 318 396 471
#     4  12  26  50  78 112 156 206 270 334 400 506
#
# _framework density 25.093109999999999
#
# number of rings (size 3 to 8) (size 9 to 14) (size 15 to 20)
#    0.000    1.538    0.000    4.615    0.000    7.385 
#    0.000    7.692    0.000    0.923    0.000    0.000 
#    0.000    0.000    0.000    0.000    0.000    0.000 
#
# Total GULP energy -289615.934849 kJ/mol
# GULP energy per Si atom -5569.537209 kJ/mol
# Density = 2.503600 g / cm^3
# Si number density = 25.093110 Si / 1000 Ang^3
#
#
#
# Elastic Constant Matrix: (Units=GPa)
#
#
# Indices 1 2 3 4 5 6 
#
# 1 109.7839 39.6103 7.7005 0.0000 0.0000 0.0000
# 2 39.6103 109.7861 7.7005 0.0000 0.0000 0.0000
# 3 7.7005 7.7005 183.8438 0.0000 0.0000 0.0000
# 4 0.0000 0.0000 0.0000 44.5944 0.0000 0.0000
# 5 0.0000 0.0000 0.0000 0.0000 44.5943 0.0000
# 6 0.0000 0.0000 0.0000 0.0000 0.0000 58.5230
#
#
#
# Elastic Compliance Matrix: (Units=1/GPa)
#
#
# Indices 1 2 3 4 5 6 
#
# 1 0.010487 -0.003764 -0.000282 0.000000 0.000000 0.000000
# 2 -0.003764 0.010486 -0.000282 0.000000 0.000000 0.000000
# 3 -0.000282 -0.000282 0.005463 0.000000 0.000000 0.000000
# 4 0.000000 0.000000 0.000000 0.022424 0.000000 0.000000
# 5 0.000000 0.000000 0.000000 0.000000 0.022424 0.000000
# 6 0.000000 0.000000 0.000000 0.000000 0.000000 0.017087
#
#
# Mechanical properties :
#
#
# Convention : Reuss Voigt Hill
#
# Bulk Modulus (GPa) = 56.23664 57.04848 56.64256
# Shear Modulus (GPa) = 48.56585 52.76918 50.66751
#
# Velocity S-wave (km/s) = 4.40412 4.59075 4.49840
# Velocity P-wave (km/s) = 6.95137 7.13331 7.04293
#
# Compressibility (1/GPa) = 0.01778200
#
# Stress axis : x y z
#
# Youngs Moduli (GPa) = 95.36051 95.36241 183.04993
#
# Poissons Ratio (x) = 0.35892 0.05154
# Poissons Ratio (y) = 0.35891 0.05154
# Poissons Ratio (z) = 0.02685 0.02685
#
# Static dielectric constant tensor:
#      x y z
#    x 2.055930 0.000000 0.000000 
#    y 0.000000 2.055930 0.000000 
#    z 0.000000 0.000000 2.169980 
# 
# From -- ./inp_files/9816.got.cif
#   From: 2010.05.17/outbox.cif.g08.bks.cpg/sg142_5_cif.got.tgz:9816.got - 2010.05.20 13:39:18.
