data_PCOD9573203
_publ_section_title
;
Structure prediction by ZEFSAII (Michael W. Deem and Ramdas Pophale) SiO2 
 PCOD9573203
Probable space group: I 41/A M D
;
_chemical_formula_sum "Si O2"
_cell_formula_units_Z 160
_cell_length_a 24.529656
_cell_length_b 24.529656
_cell_length_c 14.270885
_cell_angle_alpha 90.000000
_cell_angle_beta 90.000000
_cell_angle_gamma 90.000000
_cell_volume 8586.848923
_symmetry_space_group_name_H-M "I 41/A M D"
_symmetry_group_IT_number 141
_space_group.IT_coordinate_system_code '2'
_symmetry_cell_setting 'tetragonal'
loop_
_space_group_symop_operation_xyz
x,y,z
1/4-y,3/4+x,1/4+z
-x,1/2-y,z
1/4+y,1/4-x,3/4+z
x,-y,-z
-x,1/2+y,-z
1/4+y,3/4+x,1/4-z
1/4-y,1/4-x,3/4-z
-x,-y,-z
3/4+y,1/4-x,3/4-z
x,1/2+y,-z
3/4-y,3/4+x,1/4-z
-x,y,z
x,1/2-y,z
3/4-y,1/4-x,3/4+z
3/4+y,3/4+x,1/4+z
1/2+x,1/2+y,1/2+z
3/4-y,1/4+x,3/4+z
1/2-x,-y,1/2+z
3/4+y,3/4-x,1/4+z
1/2+x,1/2-y,1/2-z
1/2-x,y,1/2-z
3/4+y,1/4+x,3/4-z
3/4-y,3/4-x,1/4-z
1/2-x,1/2-y,1/2-z
1/4+y,3/4-x,1/4-z
1/2+x,y,1/2-z
1/4-y,1/4+x,3/4-z
1/2-x,1/2+y,1/2+z
1/2+x,-y,1/2+z
1/4-y,3/4-x,1/4+z
1/4+y,1/4+x,3/4+z
loop_
_atom_site_type_symbol
_atom_site_label
_atom_site_fract_x
_atom_site_fract_y
_atom_site_fract_z
Si Si1 0.562405 0.534555 0.094864
Si Si2 0.935560 0.607469 0.076752
Si Si3 0.935395 0.312114 0.274838
Si Si4 0.885474 0.891071 0.871720
Si Si5 0.062545 0.003252 0.195694
O O1 0.500000 0.557533 0.091042
O O2 0.610447 0.578386 0.106473
O O3 0.563484 0.501829 0.192245
O O4 0.569621 0.500000 0.000000
O O5 0.910889 0.660889 0.125000
O O6 0.926900 0.554456 0.143497
O O7 0.000000 0.611486 0.060589
O O8 0.903963 0.604060 0.978875
O O9 0.914684 0.335317 0.375000
O O10 0.915612 0.250000 0.259693
O O11 0.923940 0.351225 0.188839
O O12 0.000000 0.309076 0.287908
O O13 0.893932 0.951616 0.832966
O O14 0.000000 0.019495 0.168264
#
# Coordination Sequence:
#
# PCOD9573203 Si02
#       5
#    32  32  32  32  32
#     4  10  23  41  62  91 127 164 204 262 324 370
#     4  11  23  41  63  93 130 165 209 264 320 381
#     4   9  19  33  50  83 124 152 185 243 309 371
#     4  12  22  37  66  88 117 162 218 256 303 378
#     4  10  22  41  64  91 123 164 211 258 312 380
#
# _framework density 18.633146
#
# number of rings (size 3 to 8) (size 9 to 14) (size 15 to 20)
#    0.000    1.600    2.000    3.600    2.800    2.600 
#    0.000    0.000    4.400    0.000    0.000    0.000 
#    0.000    0.000    0.000    0.000    0.000    0.000 
#
# Total GULP energy -446014.898029 kJ/mol
# GULP energy per Si atom -5575.186225 kJ/mol
# Density = 1.859074 g / cm^3
# Si number density = 18.633146 Si / 1000 Ang^3
#
#
#
# Elastic Constant Matrix: (Units=GPa)
#
#
# Indices 1 2 3 4 5 6 
#
# 1 54.4753 55.0895 27.2050 0.0000 0.0000 0.0000
# 2 55.0895 54.4749 27.2051 0.0000 0.0000 0.0000
# 3 27.2050 27.2051 129.4515 0.0000 0.0000 0.0000
# 4 0.0000 0.0000 0.0000 93.0032 0.0000 0.0000
# 5 0.0000 0.0000 0.0000 0.0000 92.9677 0.0000
# 6 0.0000 0.0000 0.0000 0.0000 0.0000 32.4663
#
#
#
# Elastic Compliance Matrix: (Units=1/GPa)
#
#
# Indices 1 2 3 4 5 6 
#
# 1 -0.808798 0.818991 -0.002143 0.000000 0.000000 0.000000
# 2 0.818991 -0.808804 -0.002141 0.000000 0.000000 0.000000
# 3 -0.002143 -0.002141 0.008625 0.000000 0.000000 0.000000
# 4 0.000000 0.000000 0.000000 0.010752 0.000000 0.000000
# 5 0.000000 0.000000 0.000000 0.000000 0.010756 0.000000
# 6 0.000000 0.000000 0.000000 0.000000 0.000000 0.030801
#
#
# Mechanical properties :
#
#
# Convention : Reuss Voigt Hill
#
# Bulk Modulus (GPa) = 48.92431 50.82232 49.87332
# Shear Modulus (GPa) = -1.57269 52.28091 25.35411
#
# Velocity S-wave (km/s) = -0.91971 5.30273 3.69277
# Velocity P-wave (km/s) = 5.01854 8.05148 6.70866
#
# Compressibility (1/GPa) = 0.02043973
#
# Stress axis : x y z
#
# Youngs Moduli (GPa) = -1.23640 -1.23639 115.94141
#
# Poissons Ratio (x) = 1.01260 0.24841
# Poissons Ratio (y) = 1.01260 0.24820
# Poissons Ratio (z) = -0.00265 -0.00265
#
# Static dielectric constant tensor:
#      x y z
#    x 1.653810 0.000000 0.000000 
#    y 0.000000 1.653810 0.000000 
#    z 0.000000 0.000000 1.685040 
# 
# From -- ./inp_files/4884.got.cif
#   From: 2010.05.17/outbox.cif.g08.bks.cpg/sg141_3_cif.got.tgz:4884.got - 2010.05.20 13:30:51.
