data_PCOD9573170
_publ_section_title
;
Structure prediction by ZEFSAII (Michael W. Deem and Ramdas Pophale) SiO2 
 PCOD9573170
Probable space group: I 41/A M D
;
_chemical_formula_sum "Si O2"
_cell_formula_units_Z 112
_cell_length_a 14.237402
_cell_length_b 14.237402
_cell_length_c 23.731768
_cell_angle_alpha 90.000000
_cell_angle_beta 90.000000
_cell_angle_gamma 90.000000
_cell_volume 4810.515181
_symmetry_space_group_name_H-M "I 41/A M D"
_symmetry_group_IT_number 141
_space_group.IT_coordinate_system_code '2'
_symmetry_cell_setting 'tetragonal'
loop_
_space_group_symop_operation_xyz
x,y,z
1/4-y,3/4+x,1/4+z
-x,1/2-y,z
1/4+y,1/4-x,3/4+z
x,-y,-z
-x,1/2+y,-z
1/4+y,3/4+x,1/4-z
1/4-y,1/4-x,3/4-z
-x,-y,-z
3/4+y,1/4-x,3/4-z
x,1/2+y,-z
3/4-y,3/4+x,1/4-z
-x,y,z
x,1/2-y,z
3/4-y,1/4-x,3/4+z
3/4+y,3/4+x,1/4+z
1/2+x,1/2+y,1/2+z
3/4-y,1/4+x,3/4+z
1/2-x,-y,1/2+z
3/4+y,3/4-x,1/4+z
1/2+x,1/2-y,1/2-z
1/2-x,y,1/2-z
3/4+y,1/4+x,3/4-z
3/4-y,3/4-x,1/4-z
1/2-x,1/2-y,1/2-z
1/4+y,3/4-x,1/4-z
1/2+x,y,1/2-z
1/4-y,1/4+x,3/4-z
1/2-x,1/2+y,1/2+z
1/2+x,-y,1/2+z
1/4-y,3/4-x,1/4+z
1/4+y,1/4+x,3/4+z
loop_
_atom_site_type_symbol
_atom_site_label
_atom_site_fract_x
_atom_site_fract_y
_atom_site_fract_z
Si Si1 0.388581 0.055956 0.744607
Si Si2 0.112322 0.637679 0.125000
Si Si3 0.901176 0.138811 0.528634
Si Si4 0.235513 0.358636 0.110489
O O1 0.500000 0.073535 0.740190
O O2 0.353411 0.091673 0.683970
O O3 0.367427 0.945348 0.751567
O O4 0.362073 0.083447 0.808094
O O5 0.127730 0.750000 0.130310
O O6 0.899140 0.250000 0.540491
O O7 0.000000 0.117863 0.498278
O O8 0.897365 0.080642 0.585397
O O9 0.269099 0.250000 0.099710
O O10 0.319036 0.430965 0.125000
#
# Coordination Sequence:
#
# PCOD9573170 Si02
#       4
#    32  16  32  32
#     4   9  19  36  56  81 114 149 190 240 286 337
#     4   9  18  34  58  88 120 154 189 230 290 356
#     4   9  19  37  58  79 108 148 192 237 285 337
#     4  10  22  38  57  84 115 150 193 240 293 350
#
# _framework density 23.282330000000002
#
# number of rings (size 3 to 8) (size 9 to 14) (size 15 to 20)
#    0.000    2.714    0.000    0.000    2.000    3.714 
#    0.000   11.429    0.000    5.143    0.000    0.000 
#    0.000    0.000    0.000    0.000    0.000    0.000 
#
# Total GULP energy -312010.832943 kJ/mol
# GULP energy per Si atom -5571.622017 kJ/mol
# Density = 2.322934 g / cm^3
# Si number density = 23.282330 Si / 1000 Ang^3
#
#
#
# Elastic Constant Matrix: (Units=GPa)
#
#
# Indices 1 2 3 4 5 6 
#
# 1 44.6850 23.1259 6.1550 0.0000 0.0000 0.0000
# 2 23.1259 44.6874 6.1560 0.0000 0.0000 0.0000
# 3 6.1550 6.1560 91.7351 0.0000 0.0000 0.0000
# 4 0.0000 0.0000 0.0000 27.0350 0.0000 0.0000
# 5 0.0000 0.0000 0.0000 0.0000 27.0339 0.0000
# 6 0.0000 0.0000 0.0000 0.0000 0.0000 19.5007
#
#
#
# Elastic Compliance Matrix: (Units=1/GPa)
#
#
# Indices 1 2 3 4 5 6 
#
# 1 0.030656 -0.015726 -0.001002 0.000000 0.000000 0.000000
# 2 -0.015726 0.030654 -0.001002 0.000000 0.000000 0.000000
# 3 -0.001002 -0.001002 0.011035 0.000000 0.000000 0.000000
# 4 0.000000 0.000000 0.000000 0.036989 0.000000 0.000000
# 5 0.000000 0.000000 0.000000 0.000000 0.036991 0.000000
# 6 0.000000 0.000000 0.000000 0.000000 0.000000 0.051280
#
#
# Mechanical properties :
#
#
# Convention : Reuss Voigt Hill
#
# Bulk Modulus (GPa) = 27.11092 27.99792 27.55442
# Shear Modulus (GPa) = 20.37819 24.42529 22.40174
#
# Velocity S-wave (km/s) = 2.96170 3.24248 3.10526
# Velocity P-wave (km/s) = 4.83376 5.10585 4.97167
#
# Compressibility (1/GPa) = 0.03688551
#
# Stress axis : x y z
#
# Youngs Moduli (GPa) = 32.62026 32.62199 90.61762
#
# Poissons Ratio (x) = 0.51303 0.09076
# Poissons Ratio (y) = 0.51300 0.09079
# Poissons Ratio (z) = 0.03267 0.03268
#
# Static dielectric constant tensor:
#      x y z
#    x 1.926480 0.000000 0.000000 
#    y 0.000000 1.926480 0.000000 
#    z 0.000000 0.000000 1.982110 
# 
# From -- ./inp_files/11149.got.cif
#   From: 2010.05.17/outbox.cif.g08.bks.cpg/sg141_6_cif.got.tgz:11149.got - 2010.05.20 13:30:51.
