data_PCOD9573085
_publ_section_title
;
Structure prediction by ZEFSAII (Michael W. Deem and Ramdas Pophale) SiO2 
 PCOD9573085
Probable space group: I 41/A M D
;
_chemical_formula_sum "Si O2"
_cell_formula_units_Z 176
_cell_length_a 28.045513
_cell_length_b 28.045513
_cell_length_c 12.016450
_cell_angle_alpha 90.000000
_cell_angle_beta 90.000000
_cell_angle_gamma 90.000000
_cell_volume 9451.548354
_symmetry_space_group_name_H-M "I 41/A M D"
_symmetry_group_IT_number 141
_space_group.IT_coordinate_system_code '2'
_symmetry_cell_setting 'tetragonal'
loop_
_space_group_symop_operation_xyz
x,y,z
1/4-y,3/4+x,1/4+z
-x,1/2-y,z
1/4+y,1/4-x,3/4+z
x,-y,-z
-x,1/2+y,-z
1/4+y,3/4+x,1/4-z
1/4-y,1/4-x,3/4-z
-x,-y,-z
3/4+y,1/4-x,3/4-z
x,1/2+y,-z
3/4-y,3/4+x,1/4-z
-x,y,z
x,1/2-y,z
3/4-y,1/4-x,3/4+z
3/4+y,3/4+x,1/4+z
1/2+x,1/2+y,1/2+z
3/4-y,1/4+x,3/4+z
1/2-x,-y,1/2+z
3/4+y,3/4-x,1/4+z
1/2+x,1/2-y,1/2-z
1/2-x,y,1/2-z
3/4+y,1/4+x,3/4-z
3/4-y,3/4-x,1/4-z
1/2-x,1/2-y,1/2-z
1/4+y,3/4-x,1/4-z
1/2+x,y,1/2-z
1/4-y,1/4+x,3/4-z
1/2-x,1/2+y,1/2+z
1/2+x,-y,1/2+z
1/4-y,3/4-x,1/4+z
1/4+y,1/4+x,3/4+z
loop_
_atom_site_type_symbol
_atom_site_label
_atom_site_fract_x
_atom_site_fract_y
_atom_site_fract_z
Si Si1 0.306315 0.551397 0.749419
Si Si2 0.054778 0.695223 0.625000
Si Si3 0.599108 0.948223 0.058227
Si Si4 0.055532 0.590906 0.660682
Si Si5 0.222073 0.396126 0.862254
Si Si6 0.556103 0.492641 0.726964
O O1 0.250000 0.540904 0.750000
O O2 0.317281 0.596488 0.670961
O O3 0.332925 0.504586 0.711695
O O4 0.317620 0.567620 0.875000
O O5 0.057706 0.750000 0.671933
O O6 0.059015 0.646267 0.697222
O O7 0.568049 0.958941 0.166548
O O8 0.577537 0.915121 0.962317
O O9 0.603519 0.000000 0.000000
O O10 0.071690 0.547243 0.739585
O O11 0.000000 0.580277 0.645744
O O12 0.250000 0.409502 0.750000
O O13 0.171391 0.421391 0.875000
O O14 0.223413 0.339596 0.879324
O O15 0.500000 0.492195 0.703462
#
# Coordination Sequence:
#
# PCOD9573085 Si02
#       6
#    32  16  32  32  32  32
#     4  11  20  32  52  79 112 147 182 217 262 325
#     4   9  18  30  44  72 114 154 190 228 272 324
#     4   9  17  29  49  77 105 136 174 222 271 319
#     4   9  17  29  49  75 106 146 184 224 273 324
#     4  12  24  38  55  79 110 142 176 220 269 330
#     4  10  21  37  54  76 104 138 184 231 277 336
#
# _framework density 18.621286999999999
#
# number of rings (size 3 to 8) (size 9 to 14) (size 15 to 20)
#    0.000    1.909    0.000    7.091    3.818    2.545 
#    0.000    0.000    0.000    0.000    0.000    0.000 
#    0.000    0.364    0.000    0.000    0.000    2.000 
#
# Total GULP energy -490287.681944 kJ/mol
# GULP energy per Si atom -5571.450931 kJ/mol
# Density = 1.857890 g / cm^3
# Si number density = 18.621287 Si / 1000 Ang^3
#
#
#
# Elastic Constant Matrix: (Units=GPa)
#
#
# Indices 1 2 3 4 5 6 
#
# 1 96.7557 41.3889 15.2684 0.0000 0.0000 0.0000
# 2 41.3889 96.7561 15.2684 0.0000 0.0000 0.0000
# 3 15.2684 15.2684 45.0545 0.0000 0.0000 0.0000
# 4 0.0000 0.0000 0.0000 19.9325 0.0000 0.0000
# 5 0.0000 0.0000 0.0000 0.0000 19.9326 0.0000
# 6 0.0000 0.0000 0.0000 0.0000 0.0000 20.9429
#
#
#
# Elastic Compliance Matrix: (Units=1/GPa)
#
#
# Indices 1 2 3 4 5 6 
#
# 1 0.012943 -0.005118 -0.002652 0.000000 0.000000 0.000000
# 2 -0.005118 0.012943 -0.002652 0.000000 0.000000 0.000000
# 3 -0.002652 -0.002652 0.023993 0.000000 0.000000 0.000000
# 4 0.000000 0.000000 0.000000 0.050169 0.000000 0.000000
# 5 0.000000 0.000000 0.000000 0.000000 0.050169 0.000000
# 6 0.000000 0.000000 0.000000 0.000000 0.000000 0.047749
#
#
# Mechanical properties :
#
#
# Convention : Reuss Voigt Hill
#
# Bulk Modulus (GPa) = 34.44069 42.49086 38.46577
# Shear Modulus (GPa) = 21.88300 23.27099 22.57699
#
# Velocity S-wave (km/s) = 3.43178 3.53894 3.48577
# Velocity P-wave (km/s) = 5.85135 6.29021 6.07475
#
# Compressibility (1/GPa) = 0.02903543
#
# Stress axis : x y z
#
# Youngs Moduli (GPa) = 77.26090 77.26128 41.67946
#
# Poissons Ratio (x) = 0.39544 0.11052
# Poissons Ratio (y) = 0.39543 0.11052
# Poissons Ratio (z) = 0.20488 0.20488
#
# Static dielectric constant tensor:
#      x y z
#    x 1.700750 0.000000 0.000000 
#    y 0.000000 1.700750 0.000000 
#    z 0.000000 0.000000 1.685050 
# 
# From -- ./inp_files/5193.got.cif
#   From: 2010.05.17/outbox.cif.g08.bks.cpg/sg141_3_cif.got.tgz:5193.got - 2010.05.20 13:30:51.
