data_PCOD9573159
_publ_section_title
;
Structure prediction by ZEFSAII (Michael W. Deem and Ramdas Pophale) SiO2 
 PCOD9573159
Probable space group: I 41/A M D
;
_chemical_formula_sum "Si O2"
_cell_formula_units_Z 80
_cell_length_a 29.228369
_cell_length_b 29.228369
_cell_length_c 4.928994
_cell_angle_alpha 90.000000
_cell_angle_beta 90.000000
_cell_angle_gamma 90.000000
_cell_volume 4210.827520
_symmetry_space_group_name_H-M "I 41/A M D"
_symmetry_group_IT_number 141
_space_group.IT_coordinate_system_code '2'
_symmetry_cell_setting 'tetragonal'
loop_
_space_group_symop_operation_xyz
x,y,z
1/4-y,3/4+x,1/4+z
-x,1/2-y,z
1/4+y,1/4-x,3/4+z
x,-y,-z
-x,1/2+y,-z
1/4+y,3/4+x,1/4-z
1/4-y,1/4-x,3/4-z
-x,-y,-z
3/4+y,1/4-x,3/4-z
x,1/2+y,-z
3/4-y,3/4+x,1/4-z
-x,y,z
x,1/2-y,z
3/4-y,1/4-x,3/4+z
3/4+y,3/4+x,1/4+z
1/2+x,1/2+y,1/2+z
3/4-y,1/4+x,3/4+z
1/2-x,-y,1/2+z
3/4+y,3/4-x,1/4+z
1/2+x,1/2-y,1/2-z
1/2-x,y,1/2-z
3/4+y,1/4+x,3/4-z
3/4-y,3/4-x,1/4-z
1/2-x,1/2-y,1/2-z
1/4+y,3/4-x,1/4-z
1/2+x,y,1/2-z
1/4-y,1/4+x,3/4-z
1/2-x,1/2+y,1/2+z
1/2+x,-y,1/2+z
1/4-y,3/4-x,1/4+z
1/4+y,1/4+x,3/4+z
loop_
_atom_site_type_symbol
_atom_site_label
_atom_site_fract_x
_atom_site_fract_y
_atom_site_fract_z
Si Si1 0.550735 0.699266 0.875000
Si Si2 0.803711 0.802664 0.276522
Si Si3 0.083571 0.893756 0.461807
O O1 0.500000 0.695969 0.749482
O O2 0.594993 0.692645 0.684612
O O3 0.811409 0.750000 0.190079
O O4 0.750000 0.812131 0.250000
O O5 0.822578 0.807988 0.579891
O O6 0.832341 0.834975 0.076182
O O7 0.129260 0.879260 0.625000
#
# Coordination Sequence:
#
# PCOD9573159 Si02
#       3
#    16  32  32
#     4   9  18  32  52  76 112 160 194 222 266 330
#     4  11  21  36  57  79 107 148 196 243 288 333
#     4  10  22  36  52  80 114 147 191 233 282 329
#
# _framework density 18.998640999999999
#
# number of rings (size 3 to 8) (size 9 to 14) (size 15 to 20)
#    1.200    0.600    0.000    6.000    0.000    3.200 
#    0.000    2.000    0.000    7.200    0.000    0.000 
#    0.000   44.800    0.000    0.000    0.000    0.000 
#
# Total GULP energy -222839.495154 kJ/mol
# GULP energy per Si atom -5570.987379 kJ/mol
# Density = 1.895540 g / cm^3
# Si number density = 18.998641 Si / 1000 Ang^3
#
#
#
# Elastic Constant Matrix: (Units=GPa)
#
#
# Indices 1 2 3 4 5 6 
#
# 1 50.8742 30.6016 8.7322 0.0000 0.0000 0.0000
# 2 30.6016 50.8785 8.7319 0.0000 0.0000 0.0000
# 3 8.7322 8.7319 80.3282 0.0000 0.0000 0.0000
# 4 0.0000 0.0000 0.0000 13.4413 0.0000 0.0000
# 5 0.0000 0.0000 0.0000 0.0000 13.4420 0.0000
# 6 0.0000 0.0000 0.0000 0.0000 0.0000 14.3370
#
#
#
# Elastic Compliance Matrix: (Units=1/GPa)
#
#
# Indices 1 2 3 4 5 6 
#
# 1 0.030946 -0.018378 -0.001366 0.000000 0.000000 0.000000
# 2 -0.018378 0.030943 -0.001366 0.000000 0.000000 0.000000
# 3 -0.001366 -0.001366 0.012746 0.000000 0.000000 0.000000
# 4 0.000000 0.000000 0.000000 0.074398 0.000000 0.000000
# 5 0.000000 0.000000 0.000000 0.000000 0.074394 0.000000
# 6 0.000000 0.000000 0.000000 0.000000 0.000000 0.069749
#
#
# Mechanical properties :
#
#
# Convention : Reuss Voigt Hill
#
# Bulk Modulus (GPa) = 30.85082 30.91248 30.88165
# Shear Modulus (GPa) = 14.44251 17.17840 15.81045
#
# Velocity S-wave (km/s) = 2.76014 3.01024 2.88790
# Velocity P-wave (km/s) = 5.14116 5.32806 5.23545
#
# Compressibility (1/GPa) = 0.03241404
#
# Stress axis : x y z
#
# Youngs Moduli (GPa) = 32.31480 32.31765 78.45651
#
# Poissons Ratio (x) = 0.59394 0.10719
# Poissons Ratio (y) = 0.59389 0.10715
# Poissons Ratio (z) = 0.04415 0.04414
#
# Static dielectric constant tensor:
#      x y z
#    x 1.687970 0.000000 0.000000 
#    y 0.000000 1.687960 0.000000 
#    z 0.000000 0.000000 1.683660 
# 
# From -- ./inp_files/1090.got.cif
#   From: 2010.05.17/outbox.cif.g08.bks.cpg/sg141_1_cif.got.tgz:1090.got - 2010.05.20 13:30:51.
