data_PCOD9573744
_publ_section_title
;
Structure prediction by ZEFSAII (Michael W. Deem and Ramdas Pophale) SiO2 
 PCOD9573744
Probable space group: I 41/A C D
;
_chemical_formula_sum "Si O2"
_cell_formula_units_Z 160
_cell_length_a 16.077808
_cell_length_b 16.077808
_cell_length_c 29.767190
_cell_angle_alpha 90.000000
_cell_angle_beta 90.000000
_cell_angle_gamma 90.000000
_cell_volume 7694.696870
_symmetry_space_group_name_H-M "I 41/A C D"
_symmetry_group_IT_number 142
_space_group.IT_coordinate_system_code '2'
_symmetry_cell_setting 'tetragonal'
loop_
_space_group_symop_operation_xyz
x,y,z
1/4-y,3/4+x,1/4+z
-x,1/2-y,z
1/4+y,1/4-x,3/4+z
x,-y,1/2-z
1/2-x,y,-z
3/4+y,1/4+x,1/4-z
1/4-y,1/4-x,1/4-z
-x,-y,-z
3/4+y,1/4-x,3/4-z
x,1/2+y,-z
3/4-y,3/4+x,1/4-z
-x,y,1/2+z
1/2+x,-y,z
1/4-y,3/4-x,3/4+z
3/4+y,3/4+x,3/4+z
1/2+x,1/2+y,1/2+z
3/4-y,1/4+x,3/4+z
1/2-x,-y,1/2+z
3/4+y,3/4-x,1/4+z
1/2+x,1/2-y,-z
-x,1/2+y,1/2-z
1/4+y,3/4+x,3/4-z
3/4-y,3/4-x,3/4-z
1/2-x,1/2-y,1/2-z
1/4+y,3/4-x,1/4-z
1/2+x,y,1/2-z
1/4-y,1/4+x,3/4-z
1/2-x,1/2+y,z
x,1/2-y,1/2+z
3/4-y,1/4-x,1/4+z
1/4+y,1/4+x,1/4+z
loop_
_atom_site_type_symbol
_atom_site_label
_atom_site_fract_x
_atom_site_fract_y
_atom_site_fract_z
Si Si1 0.277781 0.832328 0.126895
Si Si2 0.184041 0.836670 0.772278
Si Si3 0.822089 0.259287 0.536154
Si Si4 0.414938 0.650585 0.890143
Si Si5 0.363540 0.340506 0.241340
O O1 0.344544 0.905457 0.125000
O O2 0.288886 0.802771 0.178185
O O3 0.294473 0.765785 0.087965
O O4 0.185319 0.868149 0.120192
O O5 0.101760 0.892289 0.776142
O O6 0.269941 0.878070 0.754642
O O7 0.155347 0.757376 0.744121
O O8 0.750000 0.244582 0.500000
O O9 0.884528 0.182779 0.527529
O O10 0.392161 0.735002 0.865248
O O11 0.391138 0.652088 0.942386
#
# Coordination Sequence:
#
# PCOD9573744 Si02
#       5
#    32  32  32  32  32
#     4   9  20  40  57  85 120 158 194 250 305 367
#     4   9  21  39  59  81 120 160 197 246 303 362
#     4  11  22  34  62  88 119 153 203 247 309 363
#     4  10  21  34  61  87 119 154 202 250 300 364
#     4  10  21  38  58  86 117 156 204 248 297 366
#
# _framework density 20.793541000000001
#
# number of rings (size 3 to 8) (size 9 to 14) (size 15 to 20)
#    0.000    2.200    0.000    1.800    8.400    1.600 
#    0.000    5.000    0.000    0.000    0.000    0.000 
#    0.000    0.000    0.000    0.000    0.000    0.000 
#
# Total GULP energy -445903.079743 kJ/mol
# GULP energy per Si atom -5573.788497 kJ/mol
# Density = 2.074621 g / cm^3
# Si number density = 20.793541 Si / 1000 Ang^3
#
#
#
# Elastic Constant Matrix: (Units=GPa)
#
#
# Indices 1 2 3 4 5 6 
#
# 1 55.5440 5.5349 17.9625 0.0000 0.0000 0.0000
# 2 5.5349 55.5482 17.9623 0.0000 0.0000 0.0000
# 3 17.9625 17.9623 59.9635 0.0000 0.0000 0.0000
# 4 0.0000 0.0000 0.0000 26.9865 0.0000 0.0000
# 5 0.0000 0.0000 0.0000 0.0000 26.9872 0.0000
# 6 0.0000 0.0000 0.0000 0.0000 0.0000 -5.7058
#
#
#
# Elastic Compliance Matrix: (Units=1/GPa)
#
#
# Indices 1 2 3 4 5 6 
#
# 1 0.019935 -0.000061 -0.005953 0.000000 0.000000 0.000000
# 2 -0.000061 0.019933 -0.005953 0.000000 0.000000 0.000000
# 3 -0.005953 -0.005953 0.020243 0.000000 0.000000 0.000000
# 4 0.000000 0.000000 0.000000 0.037056 0.000000 0.000000
# 5 0.000000 0.000000 0.000000 0.000000 0.037055 0.000000
# 6 0.000000 0.000000 0.000000 0.000000 0.000000 -0.175260
#
#
# Mechanical properties :
#
#
# Convention : Reuss Voigt Hill
#
# Bulk Modulus (GPa) = 27.64181 28.21946 27.93063
# Shear Modulus (GPa) = -991.18799 18.29330 -486.44734
#
# Velocity S-wave (km/s) = -21.85670 2.96929 -15.31174
# Velocity P-wave (km/s) = 24.97262 5.03550 17.29560
#
# Compressibility (1/GPa) = 0.03617709
#
# Stress axis : x y z
#
# Youngs Moduli (GPa) = 50.16275 50.16698 49.39887
#
# Poissons Ratio (x) = 0.00307 0.29409
# Poissons Ratio (y) = 0.00307 0.29406
# Poissons Ratio (z) = 0.29864 0.29863
#
# Static dielectric constant tensor:
#      x y z
#    x 1.770900 0.000000 0.000000 
#    y 0.000000 1.770900 0.000000 
#    z 0.000000 0.000000 1.772800 
# 
# From -- ./inp_files/12419.got.cif
#   From: 2010.05.17/outbox.cif.g08.bks.cpg/sg142_7_cif.got.tgz:12419.got - 2010.05.20 13:39:18.
