data_PCOD9573626
_publ_section_title
;
Structure prediction by ZEFSAII (Michael W. Deem and Ramdas Pophale) SiO2 
 PCOD9573626
Probable space group: I 41/A C D
;
_chemical_formula_sum "Si O2"
_cell_formula_units_Z 216
_cell_length_a 30.030245
_cell_length_b 30.030245
_cell_length_c 12.390623
_cell_angle_alpha 90.000000
_cell_angle_beta 90.000000
_cell_angle_gamma 90.000000
_cell_volume 11174.057298
_symmetry_space_group_name_H-M "I 41/A C D"
_symmetry_group_IT_number 142
_space_group.IT_coordinate_system_code '2'
_symmetry_cell_setting 'tetragonal'
loop_
_space_group_symop_operation_xyz
x,y,z
1/4-y,3/4+x,1/4+z
-x,1/2-y,z
1/4+y,1/4-x,3/4+z
x,-y,1/2-z
1/2-x,y,-z
3/4+y,1/4+x,1/4-z
1/4-y,1/4-x,1/4-z
-x,-y,-z
3/4+y,1/4-x,3/4-z
x,1/2+y,-z
3/4-y,3/4+x,1/4-z
-x,y,1/2+z
1/2+x,-y,z
1/4-y,3/4-x,3/4+z
3/4+y,3/4+x,3/4+z
1/2+x,1/2+y,1/2+z
3/4-y,1/4+x,3/4+z
1/2-x,-y,1/2+z
3/4+y,3/4-x,1/4+z
1/2+x,1/2-y,-z
-x,1/2+y,1/2-z
1/4+y,3/4+x,3/4-z
3/4-y,3/4-x,3/4-z
1/2-x,1/2-y,1/2-z
1/4+y,3/4-x,1/4-z
1/2+x,y,1/2-z
1/4-y,1/4+x,3/4-z
1/2-x,1/2+y,z
x,1/2-y,1/2+z
3/4-y,1/4-x,1/4+z
1/4+y,1/4+x,1/4+z
loop_
_atom_site_type_symbol
_atom_site_label
_atom_site_fract_x
_atom_site_fract_y
_atom_site_fract_z
Si Si1 0.792301 0.714514 0.568702
Si Si2 0.651574 0.212894 0.972857
Si Si3 0.359856 0.098647 0.213039
Si Si4 0.926105 0.722928 0.469051
Si Si5 0.422694 0.040816 0.449633
Si Si6 0.860053 0.357144 0.011254
Si Si7 0.250000 0.374534 0.000000
Si Si8 0.500000 0.250000 0.125000
O O1 0.750000 0.727985 0.500000
O O2 0.825591 0.757021 0.566458
O O3 0.779184 0.695171 0.685963
O O4 0.817332 0.674940 0.502737
O O5 0.609228 0.240324 0.934524
O O6 0.683914 0.209423 0.870855
O O7 0.643107 0.161712 0.005370
O O8 0.325914 0.132818 0.270995
O O9 0.350322 0.047026 0.240062
O O10 0.357255 0.108303 0.086080
O O11 0.958845 0.708845 0.375000
O O12 0.900616 0.677945 0.504465
O O13 0.954906 0.744827 0.560478
O O14 0.403709 0.005209 0.362241
O O15 0.868947 0.381054 0.125000
#
# Coordination Sequence:
#
# PCOD9573626 Si02
#       8
#    32  32  32  32  32  32  16   8
#     4  10  23  37  57  90 125 152 195 251 297 359
#     4  10  21  37  57  80 117 157 193 249 299 346
#     4  10  21  38  61  87 116 154 198 245 301 364
#     4  10  22  35  50  79 107 152 208 238 291 343
#     4  10  23  41  58  90 122 156 201 242 310 365
#     4   9  20  38  57  80 115 162 195 233 304 362
#     4  10  20  36  64  92 108 156 202 240 298 358
#     4  12  22  32  52  74 108 148 202 268 284 318
#
# _framework density 19.330490000000001
#
# number of rings (size 3 to 8) (size 9 to 14) (size 15 to 20)
#    0.000    2.074    0.000    2.889    6.222   10.074 
#    0.000    0.000    0.000    0.000   30.815    0.000 
#    0.000    0.000    0.000    0.000    0.000    0.000 
#
# Total GULP energy -602055.299065 kJ/mol
# GULP energy per Si atom -5574.586102 kJ/mol
# Density = 1.928649 g / cm^3
# Si number density = 19.330490 Si / 1000 Ang^3
#
#
#
# Elastic Constant Matrix: (Units=GPa)
#
#
# Indices 1 2 3 4 5 6 
#
# 1 77.4527 -0.7354 20.0702 0.0000 0.0000 0.0000
# 2 -0.7354 77.4514 20.0716 0.0000 0.0000 0.0000
# 3 20.0702 20.0716 87.1675 0.0000 0.0000 0.0000
# 4 0.0000 0.0000 0.0000 26.2361 0.0000 0.0000
# 5 0.0000 0.0000 0.0000 0.0000 26.2360 0.0000
# 6 0.0000 0.0000 0.0000 0.0000 0.0000 14.7976
#
#
#
# Elastic Compliance Matrix: (Units=1/GPa)
#
#
# Indices 1 2 3 4 5 6 
#
# 1 0.013805 0.001015 -0.003412 0.000000 0.000000 0.000000
# 2 0.001015 0.013805 -0.003413 0.000000 0.000000 0.000000
# 3 -0.003412 -0.003413 0.013044 0.000000 0.000000 0.000000
# 4 0.000000 0.000000 0.000000 0.038115 0.000000 0.000000
# 5 0.000000 0.000000 0.000000 0.000000 0.038116 0.000000
# 6 0.000000 0.000000 0.000000 0.000000 0.000000 0.067579
#
#
# Mechanical properties :
#
#
# Convention : Reuss Voigt Hill
#
# Bulk Modulus (GPa) = 34.44156 35.65383 35.04770
# Shear Modulus (GPa) = 24.30001 26.96494 25.63248
#
# Velocity S-wave (km/s) = 3.54938 3.73895 3.64540
# Velocity P-wave (km/s) = 5.88671 6.09295 5.99072
#
# Compressibility (1/GPa) = 0.02903469
#
# Stress axis : x y z
#
# Youngs Moduli (GPa) = 72.43754 72.43565 76.66545
#
# Poissons Ratio (x) = -0.07355 0.26161
# Poissons Ratio (y) = -0.07355 0.26163
# Poissons Ratio (z) = 0.24719 0.24720
#
# Static dielectric constant tensor:
#      x y z
#    x 1.682800 0.000000 0.000000 
#    y 0.000000 1.682800 0.000000 
#    z 0.000000 0.000000 1.697050 
# 
# From -- ./inp_files/4269.got.cif
#   From: 2010.05.17/outbox.cif.g08.bks.cpg/sg142_3_cif.got.tgz:4269.got - 2010.05.20 13:39:18.
