data_PCOD9573785
_publ_section_title
;
Structure prediction by ZEFSAII (Michael W. Deem and Ramdas Pophale) SiO2 
 PCOD9573785
Probable space group: I 41/A C D
;
_chemical_formula_sum "Si O2"
_cell_formula_units_Z 168
_cell_length_a 19.415046
_cell_length_b 19.415046
_cell_length_c 22.934765
_cell_angle_alpha 90.000000
_cell_angle_beta 90.000000
_cell_angle_gamma 90.000000
_cell_volume 8645.122315
_symmetry_space_group_name_H-M "I 41/A C D"
_symmetry_group_IT_number 142
_space_group.IT_coordinate_system_code '2'
_symmetry_cell_setting 'tetragonal'
loop_
_space_group_symop_operation_xyz
x,y,z
1/4-y,3/4+x,1/4+z
-x,1/2-y,z
1/4+y,1/4-x,3/4+z
x,-y,1/2-z
1/2-x,y,-z
3/4+y,1/4+x,1/4-z
1/4-y,1/4-x,1/4-z
-x,-y,-z
3/4+y,1/4-x,3/4-z
x,1/2+y,-z
3/4-y,3/4+x,1/4-z
-x,y,1/2+z
1/2+x,-y,z
1/4-y,3/4-x,3/4+z
3/4+y,3/4+x,3/4+z
1/2+x,1/2+y,1/2+z
3/4-y,1/4+x,3/4+z
1/2-x,-y,1/2+z
3/4+y,3/4-x,1/4+z
1/2+x,1/2-y,-z
-x,1/2+y,1/2-z
1/4+y,3/4+x,3/4-z
3/4-y,3/4-x,3/4-z
1/2-x,1/2-y,1/2-z
1/4+y,3/4-x,1/4-z
1/2+x,y,1/2-z
1/4-y,1/4+x,3/4-z
1/2-x,1/2+y,z
x,1/2-y,1/2+z
3/4-y,1/4-x,1/4+z
1/4+y,1/4+x,1/4+z
loop_
_atom_site_type_symbol
_atom_site_label
_atom_site_fract_x
_atom_site_fract_y
_atom_site_fract_z
Si Si1 0.845880 0.904121 0.875000
Si Si2 0.000000 0.750000 0.875000
Si Si3 0.169643 0.358288 0.008903
Si Si4 0.388235 0.786284 0.534975
Si Si5 0.817419 0.932582 0.375000
Si Si6 0.345344 0.935238 0.893540
Si Si7 0.559044 0.330677 0.657997
O O1 0.858024 0.851552 0.929350
O O2 0.767137 0.895335 0.853791
O O3 0.935170 0.751011 0.916593
O O4 0.159822 0.276270 0.013222
O O5 0.150529 0.397324 0.068167
O O6 0.250000 0.371961 0.000000
O O7 0.136193 0.395888 0.953572
O O8 0.431859 0.805225 0.477237
O O9 0.734618 0.922018 0.376680
O O10 0.395489 0.898930 0.847850
O O11 0.484340 0.339904 0.627496
#
# Coordination Sequence:
#
# PCOD9573785 Si02
#       7
#    16   8  32  32  16  32  32
#     4  10  26  41  63  99 130 161 213 261 330 378
#     4  10  22  42  60  84 124 156 210 256 318 366
#     4  10  21  39  62  90 123 165 212 257 315 381
#     4  11  23  40  64  91 124 169 207 266 314 377
#     4   9  21  39  64  92 124 168 212 257 329 383
#     4  10  22  41  62  94 130 166 206 268 319 382
#     4  11  23  40  63  93 127 171 221 261 317 382
#
# _framework density 19.432924
#
# number of rings (size 3 to 8) (size 9 to 14) (size 15 to 20)
#    0.000    1.714    1.905    1.714    5.333    0.000 
#    0.000    0.952    0.000    0.000    0.000    0.000 
#    0.000    0.000    0.000    0.000    0.000    0.000 
#
# Total GULP energy -468168.879669 kJ/mol
# GULP energy per Si atom -5573.439044 kJ/mol
# Density = 1.938869 g / cm^3
# Si number density = 19.432924 Si / 1000 Ang^3
#
#
#
# Elastic Constant Matrix: (Units=GPa)
#
#
# Indices 1 2 3 4 5 6 
#
# 1 64.9732 42.4135 25.3309 0.0000 0.0000 0.0000
# 2 42.4135 64.9742 25.3315 0.0000 0.0000 0.0000
# 3 25.3309 25.3315 120.9131 0.0000 0.0000 0.0000
# 4 0.0000 0.0000 0.0000 14.2796 0.0000 0.0000
# 5 0.0000 0.0000 0.0000 0.0000 14.2791 0.0000
# 6 0.0000 0.0000 0.0000 0.0000 0.0000 37.7834
#
#
#
# Elastic Compliance Matrix: (Units=1/GPa)
#
#
# Indices 1 2 3 4 5 6 
#
# 1 0.027330 -0.016996 -0.002165 0.000000 0.000000 0.000000
# 2 -0.016996 0.027329 -0.002165 0.000000 0.000000 0.000000
# 3 -0.002165 -0.002165 0.009177 0.000000 0.000000 0.000000
# 4 0.000000 0.000000 0.000000 0.070030 0.000000 0.000000
# 5 0.000000 0.000000 0.000000 0.000000 0.070032 0.000000
# 6 0.000000 0.000000 0.000000 0.000000 0.000000 0.026467
#
#
# Mechanical properties :
#
#
# Convention : Reuss Voigt Hill
#
# Bulk Modulus (GPa) = 47.20337 48.55691 47.88014
# Shear Modulus (GPa) = 17.85208 23.78740 20.81974
#
# Velocity S-wave (km/s) = 3.03421 3.50248 3.27672
# Velocity P-wave (km/s) = 6.05132 6.43410 6.24564
#
# Compressibility (1/GPa) = 0.02118493
#
# Stress axis : x y z
#
# Youngs Moduli (GPa) = 36.59007 36.59056 108.96255
#
# Poissons Ratio (x) = 0.62190 0.23588
# Poissons Ratio (y) = 0.62189 0.23589
# Poissons Ratio (z) = 0.07921 0.07922
#
# Static dielectric constant tensor:
#      x y z
#    x 1.690690 0.000000 0.000000 
#    y 0.000000 1.690680 0.000000 
#    z 0.000000 0.000000 1.765010 
# 
# From -- ./inp_files/9101.got.cif
#   From: 2010.05.17/outbox.cif.g08.bks.cpg/sg142_5_cif.got.tgz:9101.got - 2010.05.20 13:39:18.
