data_PCOD9573144
_publ_section_title
;
Structure prediction by ZEFSAII (Michael W. Deem and Ramdas Pophale) SiO2 
 PCOD9573144
Probable space group: I 41/A M D
;
_chemical_formula_sum "Si O2"
_cell_formula_units_Z 120
_cell_length_a 13.890953
_cell_length_b 13.890953
_cell_length_c 27.456740
_cell_angle_alpha 90.000000
_cell_angle_beta 90.000000
_cell_angle_gamma 90.000000
_cell_volume 5298.013431
_symmetry_space_group_name_H-M "I 41/A M D"
_symmetry_group_IT_number 141
_space_group.IT_coordinate_system_code '2'
_symmetry_cell_setting 'tetragonal'
loop_
_space_group_symop_operation_xyz
x,y,z
1/4-y,3/4+x,1/4+z
-x,1/2-y,z
1/4+y,1/4-x,3/4+z
x,-y,-z
-x,1/2+y,-z
1/4+y,3/4+x,1/4-z
1/4-y,1/4-x,3/4-z
-x,-y,-z
3/4+y,1/4-x,3/4-z
x,1/2+y,-z
3/4-y,3/4+x,1/4-z
-x,y,z
x,1/2-y,z
3/4-y,1/4-x,3/4+z
3/4+y,3/4+x,1/4+z
1/2+x,1/2+y,1/2+z
3/4-y,1/4+x,3/4+z
1/2-x,-y,1/2+z
3/4+y,3/4-x,1/4+z
1/2+x,1/2-y,1/2-z
1/2-x,y,1/2-z
3/4+y,1/4+x,3/4-z
3/4-y,3/4-x,1/4-z
1/2-x,1/2-y,1/2-z
1/4+y,3/4-x,1/4-z
1/2+x,y,1/2-z
1/4-y,1/4+x,3/4-z
1/2-x,1/2+y,1/2+z
1/2+x,-y,1/2+z
1/4-y,3/4-x,1/4+z
1/4+y,1/4+x,3/4+z
loop_
_atom_site_type_symbol
_atom_site_label
_atom_site_fract_x
_atom_site_fract_y
_atom_site_fract_z
Si Si1 0.177337 0.750000 0.470027
Si Si2 0.500000 0.427224 0.803373
Si Si3 0.286685 0.560861 0.693524
Si Si4 0.302672 0.250000 0.146306
Si Si5 0.500000 0.250000 0.204254
Si Si6 0.604248 0.463251 0.443870
O O1 0.276517 0.750000 0.500058
O O2 0.174511 0.849163 0.441242
O O3 0.090430 0.750000 0.508992
O O4 0.500000 0.518484 0.840392
O O5 0.598059 0.368088 0.809320
O O6 0.250000 0.566513 0.750000
O O7 0.240596 0.650924 0.666722
O O8 0.256219 0.455155 0.675642
O O9 0.408461 0.250000 0.169021
O O10 0.601155 0.500000 0.500000
O O11 0.500000 0.490165 0.422090
#
# Coordination Sequence:
#
# PCOD9573144 Si02
#       6
#    16  16  32  16   8  32
#     4  12  22  38  64  92 131 181 228 275 322 427
#     4  12  23  41  65 101 134 162 231 284 340 400
#     4  11  21  42  63  91 133 180 226 268 343 401
#     4  12  26  40  67  99 139 185 218 286 338 400
#     4  12  22  37  60  92 136 186 230 260 322 394
#     4  10  21  40  67  91 126 169 214 283 339 390
#
# _framework density 22.649999000000001
#
# number of rings (size 3 to 8) (size 9 to 14) (size 15 to 20)
#    0.000    0.800    8.000    1.600    0.000    4.800 
#    4.800    0.667    0.000    0.000    0.000    0.000 
#    0.000    0.000    0.000    0.000    0.000    0.000 
#
# Total GULP energy -335643.011471 kJ/mol
# GULP energy per Si atom -5594.050191 kJ/mol
# Density = 2.259845 g / cm^3
# Si number density = 22.649999 Si / 1000 Ang^3
#
#
#
# Elastic Constant Matrix: (Units=GPa)
#
#
# Indices 1 2 3 4 5 6 
#
# 1 213.8447 71.2414 32.9803 0.0000 0.0000 0.0000
# 2 71.2414 213.8447 32.9803 0.0000 0.0000 0.0000
# 3 32.9803 32.9803 49.7121 0.0000 0.0000 0.0000
# 4 0.0000 0.0000 0.0000 -1.0694 0.0000 0.0000
# 5 0.0000 0.0000 0.0000 0.0000 -1.0694 0.0000
# 6 0.0000 0.0000 0.0000 0.0000 0.0000 31.1727
#
#
#
# Elastic Compliance Matrix: (Units=1/GPa)
#
#
# Indices 1 2 3 4 5 6 
#
# 1 0.005578 -0.001434 -0.002749 0.000000 0.000000 0.000000
# 2 -0.001434 0.005578 -0.002749 0.000000 0.000000 0.000000
# 3 -0.002749 -0.002749 0.023763 0.000000 0.000000 0.000000
# 4 0.000000 0.000000 0.000000 -0.935105 0.000000 0.000000
# 5 0.000000 0.000000 0.000000 0.000000 -0.935105 0.000000
# 6 0.000000 0.000000 0.000000 0.000000 0.000000 0.032079
#
#
# Mechanical properties :
#
#
# Convention : Reuss Voigt Hill
#
# Bulk Modulus (GPa) = 47.49546 83.53396 65.51471
# Shear Modulus (GPa) = -2.80532 28.48674 12.84071
#
# Velocity S-wave (km/s) = -1.11411 3.55024 2.38359
# Velocity P-wave (km/s) = 4.39998 7.33253 6.04673
#
# Compressibility (1/GPa) = 0.02105464
#
# Stress axis : x y z
#
# Youngs Moduli (GPa) = 179.27203 179.27203 42.08143
#
# Poissons Ratio (x) = 0.25714 0.11569
# Poissons Ratio (y) = 0.25714 0.11569
# Poissons Ratio (z) = 0.49283 0.49283
#
# Static dielectric constant tensor:
#      x y z
#    x 1.858620 0.000000 0.000000 
#    y 0.000000 1.858620 0.000000 
#    z 0.000000 0.000000 1.853070 
# 
# From -- ./inp_files/14148.got.cif
#   From: 2010.05.17/outbox.cif.g08.bks.cpg/sg141_8_cif.got.tgz:14148.got - 2010.05.20 13:30:51.
