data_PCOD9573529
_publ_section_title
;
Structure prediction by ZEFSAII (Michael W. Deem and Ramdas Pophale) SiO2 
 PCOD9573529
Probable space group: I 41/A C D
;
_chemical_formula_sum "Si O2"
_cell_formula_units_Z 160
_cell_length_a 17.116639
_cell_length_b 17.116639
_cell_length_c 25.860687
_cell_angle_alpha 90.000000
_cell_angle_beta 90.000000
_cell_angle_gamma 90.000000
_cell_volume 7576.646768
_symmetry_space_group_name_H-M "I 41/A C D"
_symmetry_group_IT_number 142
_space_group.IT_coordinate_system_code '2'
_symmetry_cell_setting 'tetragonal'
loop_
_space_group_symop_operation_xyz
x,y,z
1/4-y,3/4+x,1/4+z
-x,1/2-y,z
1/4+y,1/4-x,3/4+z
x,-y,1/2-z
1/2-x,y,-z
3/4+y,1/4+x,1/4-z
1/4-y,1/4-x,1/4-z
-x,-y,-z
3/4+y,1/4-x,3/4-z
x,1/2+y,-z
3/4-y,3/4+x,1/4-z
-x,y,1/2+z
1/2+x,-y,z
1/4-y,3/4-x,3/4+z
3/4+y,3/4+x,3/4+z
1/2+x,1/2+y,1/2+z
3/4-y,1/4+x,3/4+z
1/2-x,-y,1/2+z
3/4+y,3/4-x,1/4+z
1/2+x,1/2-y,-z
-x,1/2+y,1/2-z
1/4+y,3/4+x,3/4-z
3/4-y,3/4-x,3/4-z
1/2-x,1/2-y,1/2-z
1/4+y,3/4-x,1/4-z
1/2+x,y,1/2-z
1/4-y,1/4+x,3/4-z
1/2-x,1/2+y,z
x,1/2-y,1/2+z
3/4-y,1/4-x,1/4+z
1/4+y,1/4+x,1/4+z
loop_
_atom_site_type_symbol
_atom_site_label
_atom_site_fract_x
_atom_site_fract_y
_atom_site_fract_z
Si Si1 0.591280 0.935737 0.079703
Si Si2 0.533437 0.164664 0.267708
Si Si3 0.315475 0.555833 0.850905
Si Si4 0.317501 0.308339 0.898762
Si Si5 0.592782 0.686822 0.400898
O O1 0.640362 0.890362 0.125000
O O2 0.585021 0.874113 0.033773
O O3 0.507056 0.952529 0.105413
O O4 0.640522 0.012206 0.063959
O O5 0.500000 0.250000 0.280214
O O6 0.487324 0.103639 0.302880
O O7 0.526656 0.149662 0.207140
O O8 0.258229 0.491772 0.875000
O O9 0.390709 0.506940 0.833879
O O10 0.345277 0.619005 0.892391
O O11 0.383358 0.366643 0.875000
O O12 0.506042 0.652154 0.391301
#
# Coordination Sequence:
#
# PCOD9573529 Si02
#       5
#    32  32  32  32  32
#     4   9  19  36  63  95 127 163 209 274 324 376
#     4  11  20  39  70 102 120 162 231 276 318 375
#     4  10  22  42  59  89 135 174 203 257 340 389
#     4  10  19  35  68  99 129 165 216 276 325 387
#     4  11  23  43  68  90 129 178 222 266 318 393
#
# _framework density 21.117521
#
# number of rings (size 3 to 8) (size 9 to 14) (size 15 to 20)
#    0.000    1.800    4.000    1.200    0.000    0.000 
#    0.000   26.000    0.000    0.000    0.000    0.000 
#    0.000    0.000    0.000    0.000    0.000    0.000 
#
# Total GULP energy -446613.528934 kJ/mol
# GULP energy per Si atom -5582.669112 kJ/mol
# Density = 2.106946 g / cm^3
# Si number density = 21.117521 Si / 1000 Ang^3
#
#
#
# Elastic Constant Matrix: (Units=GPa)
#
#
# Indices 1 2 3 4 5 6 
#
# 1 121.9948 53.3528 20.2057 0.0000 0.0000 0.0000
# 2 53.3528 121.9960 20.2057 0.0000 0.0000 0.0000
# 3 20.2057 20.2057 71.4841 0.0000 0.0000 0.0000
# 4 0.0000 0.0000 0.0000 5.6259 0.0000 0.0000
# 5 0.0000 0.0000 0.0000 0.0000 5.6344 0.0000
# 6 0.0000 0.0000 0.0000 0.0000 0.0000 60.3531
#
#
#
# Elastic Compliance Matrix: (Units=1/GPa)
#
#
# Indices 1 2 3 4 5 6 
#
# 1 0.010334 -0.004234 -0.001724 0.000000 0.000000 0.000000
# 2 -0.004234 0.010334 -0.001724 0.000000 0.000000 0.000000
# 3 -0.001724 -0.001724 0.014964 0.000000 0.000000 0.000000
# 4 0.000000 0.000000 0.000000 0.177751 0.000000 0.000000
# 5 0.000000 0.000000 0.000000 0.000000 0.177481 0.000000
# 6 0.000000 0.000000 0.000000 0.000000 0.000000 0.016569
#
#
# Mechanical properties :
#
#
# Convention : Reuss Voigt Hill
#
# Bulk Modulus (GPa) = 49.34058 55.88927 52.61493
# Shear Modulus (GPa) = 11.63998 29.10338 20.37168
#
# Velocity S-wave (km/s) = 2.35031 3.71639 3.10930
# Velocity P-wave (km/s) = 5.54804 6.70363 6.15303
#
# Compressibility (1/GPa) = 0.02026729
#
# Stress axis : x y z
#
# Youngs Moduli (GPa) = 96.76486 96.76590 66.82741
#
# Poissons Ratio (x) = 0.40970 0.11523
# Poissons Ratio (y) = 0.40970 0.11523
# Poissons Ratio (z) = 0.16686 0.16685
#
# Static dielectric constant tensor:
#      x y z
#    x 1.795860 0.000000 0.000000 
#    y 0.000000 1.795850 0.000000 
#    z 0.000000 0.000000 1.720460 
# 
# From -- ./inp_files/11296.got.cif
#   From: 2010.05.17/outbox.cif.g08.bks.cpg/sg142_6_cif.got.tgz:11296.got - 2010.05.20 13:39:18.
