data_PCOD9573539
_publ_section_title
;
Structure prediction by ZEFSAII (Michael W. Deem and Ramdas Pophale) SiO2 
 PCOD9573539
Probable space group: I 41/A C D
;
_chemical_formula_sum "Si O2"
_cell_formula_units_Z 96
_cell_length_a 16.237533
_cell_length_b 16.237533
_cell_length_c 14.638425
_cell_angle_alpha 90.000000
_cell_angle_beta 90.000000
_cell_angle_gamma 90.000000
_cell_volume 3859.530216
_symmetry_space_group_name_H-M "I 41/A C D"
_symmetry_group_IT_number 142
_space_group.IT_coordinate_system_code '2'
_symmetry_cell_setting 'tetragonal'
loop_
_space_group_symop_operation_xyz
x,y,z
1/4-y,3/4+x,1/4+z
-x,1/2-y,z
1/4+y,1/4-x,3/4+z
x,-y,1/2-z
1/2-x,y,-z
3/4+y,1/4+x,1/4-z
1/4-y,1/4-x,1/4-z
-x,-y,-z
3/4+y,1/4-x,3/4-z
x,1/2+y,-z
3/4-y,3/4+x,1/4-z
-x,y,1/2+z
1/2+x,-y,z
1/4-y,3/4-x,3/4+z
3/4+y,3/4+x,3/4+z
1/2+x,1/2+y,1/2+z
3/4-y,1/4+x,3/4+z
1/2-x,-y,1/2+z
3/4+y,3/4-x,1/4+z
1/2+x,1/2-y,-z
-x,1/2+y,1/2-z
1/4+y,3/4+x,3/4-z
3/4-y,3/4-x,3/4-z
1/2-x,1/2-y,1/2-z
1/4+y,3/4-x,1/4-z
1/2+x,y,1/2-z
1/4-y,1/4+x,3/4-z
1/2-x,1/2+y,z
x,1/2-y,1/2+z
3/4-y,1/4-x,1/4+z
1/4+y,1/4+x,1/4+z
loop_
_atom_site_type_symbol
_atom_site_label
_atom_site_fract_x
_atom_site_fract_y
_atom_site_fract_z
Si Si1 0.408139 0.397827 0.042309
Si Si2 0.694222 0.406234 0.715627
Si Si3 0.653333 0.234221 0.520142
O O1 0.327941 0.407635 0.108830
O O2 0.402835 0.479820 0.984267
O O3 0.397903 0.312696 0.989600
O O4 0.478683 0.393311 0.118990
O O5 0.707165 0.500000 0.750000
O O6 0.607418 0.379148 0.762184
O O7 0.750000 0.243539 0.500000
#
# Coordination Sequence:
#
# PCOD9573539 Si02
#       3
#    32  32  32
#     4  10  19  37  58  90 124 163 207 259 316 377
#     4   9  19  33  59  87 118 161 203 257 318 374
#     4   9  21  34  58  92 118 163 211 254 315 379
#
# _framework density 24.873494000000001
#
# number of rings (size 3 to 8) (size 9 to 14) (size 15 to 20)
#    2.000    0.667    0.000    2.000    0.000    2.000 
#    0.000    0.000    0.000    0.000    8.667    0.000 
#    0.000    0.000    0.000    0.000    0.000    0.000 
#
# Total GULP energy -267762.866846 kJ/mol
# GULP energy per Si atom -5578.393059 kJ/mol
# Density = 2.481688 g / cm^3
# Si number density = 24.873494 Si / 1000 Ang^3
#
#
#
# Elastic Constant Matrix: (Units=GPa)
#
#
# Indices 1 2 3 4 5 6 
#
# 1 105.4689 59.0894 7.0377 0.0000 0.0000 0.0000
# 2 59.0894 105.4689 7.0377 0.0000 0.0000 0.0000
# 3 7.0377 7.0377 33.5175 0.0000 0.0000 0.0000
# 4 0.0000 0.0000 0.0000 27.1235 0.0000 0.0000
# 5 0.0000 0.0000 0.0000 0.0000 27.1235 0.0000
# 6 0.0000 0.0000 0.0000 0.0000 0.0000 2.9764
#
#
#
# Elastic Compliance Matrix: (Units=1/GPa)
#
#
# Indices 1 2 3 4 5 6 
#
# 1 0.013875 -0.007687 -0.001299 0.000000 0.000000 0.000000
# 2 -0.007687 0.013875 -0.001299 0.000000 0.000000 0.000000
# 3 -0.001299 -0.001299 0.030381 0.000000 0.000000 0.000000
# 4 0.000000 0.000000 0.000000 0.036868 0.000000 0.000000
# 5 0.000000 0.000000 0.000000 0.000000 0.036868 0.000000
# 6 0.000000 0.000000 0.000000 0.000000 0.000000 0.335974
#
#
# Mechanical properties :
#
#
# Convention : Reuss Voigt Hill
#
# Bulk Modulus (GPa) = 26.62435 43.42052 35.02244
# Shear Modulus (GPa) = 9.98140 22.86403 16.42272
#
# Velocity S-wave (km/s) = 2.00539 3.03514 2.57232
# Velocity P-wave (km/s) = 4.01114 5.45685 4.78887
#
# Compressibility (1/GPa) = 0.03755960
#
# Stress axis : x y z
#
# Youngs Moduli (GPa) = 72.07402 72.07402 32.91555
#
# Poissons Ratio (x) = 0.55401 0.04277
# Poissons Ratio (y) = 0.55401 0.04277
# Poissons Ratio (z) = 0.09365 0.09365
#
# Static dielectric constant tensor:
#      x y z
#    x 2.054120 0.000000 0.000000 
#    y 0.000000 2.054120 0.000000 
#    z 0.000000 0.000000 1.995870 
# 
# From -- ./inp_files/6563.got.cif
#   From: 2010.05.17/outbox.cif.g08.bks.cpg/sg142_4_cif.got.tgz:6563.got - 2010.05.20 13:39:18.
