data_PCOD9573147
_publ_section_title
;
Structure prediction by ZEFSAII (Michael W. Deem and Ramdas Pophale) SiO2 
 PCOD9573147
Probable space group: I 41/A M D
;
_chemical_formula_sum "Si O2"
_cell_formula_units_Z 176
_cell_length_a 26.380083
_cell_length_b 26.380083
_cell_length_c 11.939008
_cell_angle_alpha 90.000000
_cell_angle_beta 90.000000
_cell_angle_gamma 90.000000
_cell_volume 8308.460481
_symmetry_space_group_name_H-M "I 41/A M D"
_symmetry_group_IT_number 141
_space_group.IT_coordinate_system_code '2'
_symmetry_cell_setting 'tetragonal'
loop_
_space_group_symop_operation_xyz
x,y,z
1/4-y,3/4+x,1/4+z
-x,1/2-y,z
1/4+y,1/4-x,3/4+z
x,-y,-z
-x,1/2+y,-z
1/4+y,3/4+x,1/4-z
1/4-y,1/4-x,3/4-z
-x,-y,-z
3/4+y,1/4-x,3/4-z
x,1/2+y,-z
3/4-y,3/4+x,1/4-z
-x,y,z
x,1/2-y,z
3/4-y,1/4-x,3/4+z
3/4+y,3/4+x,1/4+z
1/2+x,1/2+y,1/2+z
3/4-y,1/4+x,3/4+z
1/2-x,-y,1/2+z
3/4+y,3/4-x,1/4+z
1/2+x,1/2-y,1/2-z
1/2-x,y,1/2-z
3/4+y,1/4+x,3/4-z
3/4-y,3/4-x,1/4-z
1/2-x,1/2-y,1/2-z
1/4+y,3/4-x,1/4-z
1/2+x,y,1/2-z
1/4-y,1/4+x,3/4-z
1/2-x,1/2+y,1/2+z
1/2+x,-y,1/2+z
1/4-y,3/4-x,1/4+z
1/4+y,1/4+x,3/4+z
loop_
_atom_site_type_symbol
_atom_site_label
_atom_site_fract_x
_atom_site_fract_y
_atom_site_fract_z
Si Si1 0.612347 0.150335 0.498067
Si Si2 0.216192 0.645387 0.588905
Si Si3 0.828047 0.506987 0.878400
Si Si4 0.500000 0.619164 0.530085
Si Si5 0.861506 0.562990 0.424522
Si Si6 0.000000 0.426292 0.790104
Si Si7 0.500000 0.548217 0.747219
O O1 0.620851 0.129150 0.625000
O O2 0.551819 0.151801 0.479853
O O3 0.636197 0.118004 0.396958
O O4 0.644039 0.202032 0.496622
O O5 0.229155 0.616156 0.472441
O O6 0.188014 0.617948 0.692717
O O7 0.272886 0.653109 0.635170
O O8 0.190269 0.698322 0.562693
O O9 0.791876 0.458125 0.875000
O O10 0.792325 0.556804 0.866786
O O11 0.853985 0.500000 0.000000
O O12 0.500000 0.582274 0.423403
O O13 0.500000 0.582938 0.637326
O O14 0.000000 0.486841 0.771649
#
# Coordination Sequence:
#
# PCOD9573147 Si02
#       7
#    32  32  32  16  32  16  16
#     4  10  22  42  68 100 133 174 221 287 352 408
#     4  11  26  41  64  96 128 178 228 277 334 410
#     4  12  26  41  64  93 134 182 222 276 341 410
#     4  10  23  39  65  97 133 173 217 283 349 411
#     4  11  24  42  64  91 137 170 230 274 328 411
#     4  10  21  40  68  96 133 173 229 274 342 417
#     4  12  23  44  64  96 133 179 229 280 345 408
#
# _framework density 21.183226000000001
#
# number of rings (size 3 to 8) (size 9 to 14) (size 15 to 20)
#    0.000    1.091    3.636    1.909    5.091    4.000 
#    0.000    1.818    0.000    0.000    0.000    1.273 
#    0.000    0.000    0.000    0.000    0.000    0.000 
#
# Total GULP energy -490323.542193 kJ/mol
# GULP energy per Si atom -5571.858434 kJ/mol
# Density = 2.113501 g / cm^3
# Si number density = 21.183226 Si / 1000 Ang^3
#
#
#
# Elastic Constant Matrix: (Units=GPa)
#
#
# Indices 1 2 3 4 5 6 
#
# 1 81.7474 8.4278 64.7123 0.0000 0.0000 0.0000
# 2 8.4278 81.7502 64.7122 0.0000 0.0000 0.0000
# 3 64.7123 64.7122 187.6940 0.0000 0.0000 0.0000
# 4 0.0000 0.0000 0.0000 29.5470 0.0000 0.0000
# 5 0.0000 0.0000 0.0000 0.0000 29.5469 0.0000
# 6 0.0000 0.0000 0.0000 0.0000 0.0000 10.5280
#
#
#
# Elastic Compliance Matrix: (Units=1/GPa)
#
#
# Indices 1 2 3 4 5 6 
#
# 1 0.017796 0.004157 -0.007569 0.000000 0.000000 0.000000
# 2 0.004157 0.017795 -0.007568 0.000000 0.000000 0.000000
# 3 -0.007569 -0.007568 0.010547 0.000000 0.000000 0.000000
# 4 0.000000 0.000000 0.000000 0.033844 0.000000 0.000000
# 5 0.000000 0.000000 0.000000 0.000000 0.033845 0.000000
# 6 0.000000 0.000000 0.000000 0.000000 0.000000 0.094985
#
#
# Mechanical properties :
#
#
# Convention : Reuss Voigt Hill
#
# Bulk Modulus (GPa) = 41.36242 69.65513 55.50878
# Shear Modulus (GPa) = 20.93539 28.14701 24.54120
#
# Velocity S-wave (km/s) = 3.14714 3.64914 3.40740
# Velocity P-wave (km/s) = 5.72489 7.12100 6.46076
#
# Compressibility (1/GPa) = 0.02417653
#
# Stress axis : x y z
#
# Youngs Moduli (GPa) = 56.19342 56.19609 94.81683
#
# Poissons Ratio (x) = -0.23358 0.71763
# Poissons Ratio (y) = -0.23357 0.71760
# Poissons Ratio (z) = 0.42531 0.42531
#
# Static dielectric constant tensor:
#      x y z
#    x 1.833140 0.000000 0.000000 
#    y 0.000000 1.833140 0.000000 
#    z 0.000000 0.000000 1.836740 
# 
# From -- ./inp_files/5100.got.cif
#   From: 2010.05.17/outbox.cif.g08.bks.cpg/sg141_3_cif.got.tgz:5100.got - 2010.05.20 13:30:51.
