data_PCOD9573760
_publ_section_title
;
Structure prediction by ZEFSAII (Michael W. Deem and Ramdas Pophale) SiO2 
 PCOD9573760
Probable space group: I 41/A C D
;
_chemical_formula_sum "Si O2"
_cell_formula_units_Z 80
_cell_length_a 17.739862
_cell_length_b 17.739862
_cell_length_c 10.901391
_cell_angle_alpha 90.000000
_cell_angle_beta 90.000000
_cell_angle_gamma 90.000000
_cell_volume 3430.697223
_symmetry_space_group_name_H-M "I 41/A C D"
_symmetry_group_IT_number 142
_space_group.IT_coordinate_system_code '2'
_symmetry_cell_setting 'tetragonal'
loop_
_space_group_symop_operation_xyz
x,y,z
1/4-y,3/4+x,1/4+z
-x,1/2-y,z
1/4+y,1/4-x,3/4+z
x,-y,1/2-z
1/2-x,y,-z
3/4+y,1/4+x,1/4-z
1/4-y,1/4-x,1/4-z
-x,-y,-z
3/4+y,1/4-x,3/4-z
x,1/2+y,-z
3/4-y,3/4+x,1/4-z
-x,y,1/2+z
1/2+x,-y,z
1/4-y,3/4-x,3/4+z
3/4+y,3/4+x,3/4+z
1/2+x,1/2+y,1/2+z
3/4-y,1/4+x,3/4+z
1/2-x,-y,1/2+z
3/4+y,3/4-x,1/4+z
1/2+x,1/2-y,-z
-x,1/2+y,1/2-z
1/4+y,3/4+x,3/4-z
3/4-y,3/4-x,3/4-z
1/2-x,1/2-y,1/2-z
1/4+y,3/4-x,1/4-z
1/2+x,y,1/2-z
1/4-y,1/4+x,3/4-z
1/2-x,1/2+y,z
x,1/2-y,1/2+z
3/4-y,1/4-x,1/4+z
1/4+y,1/4+x,1/4+z
loop_
_atom_site_type_symbol
_atom_site_label
_atom_site_fract_x
_atom_site_fract_y
_atom_site_fract_z
Si Si1 0.876539 0.873462 0.875000
Si Si2 0.250000 0.796506 0.500000
Si Si3 0.666930 0.416930 0.375000
Si Si4 0.908836 0.080900 0.369987
O O1 0.899562 0.957150 0.841861
O O2 0.883386 0.836230 0.739748
O O3 0.199642 0.740070 0.580122
O O4 0.755649 0.394817 0.362381
O O5 0.626166 0.384991 0.253915
#
# Coordination Sequence:
#
# PCOD9573760 Si02
#       4
#    16  16  16  32
#     4  12  22  37  66  89 120 160 204 257 316 365
#     4  10  24  40  60  94 126 158 202 258 310 366
#     4   8  18  35  56  85 134 160 190 251 308 363
#     4  10  21  37  59  91 125 162 203 250 304 364
#
# _framework density 23.318874999999998
#
# number of rings (size 3 to 8) (size 9 to 14) (size 15 to 20)
#    0.000    2.400    0.000    3.600    0.000   14.400 
#    0.000    0.000    0.000   42.000    0.000    0.000 
#    0.000    0.000    0.000    0.000    0.000    0.000 
#
# Total GULP energy -222708.599435 kJ/mol
# GULP energy per Si atom -5567.714986 kJ/mol
# Density = 2.326580 g / cm^3
# Si number density = 23.318875 Si / 1000 Ang^3
#
#
#
# Elastic Constant Matrix: (Units=GPa)
#
#
# Indices 1 2 3 4 5 6 
#
# 1 37.7184 66.5867 38.0858 0.0000 0.0000 0.0000
# 2 66.5867 37.7227 38.0879 0.0000 0.0000 0.0000
# 3 38.0858 38.0879 221.9057 0.0000 0.0000 0.0000
# 4 0.0000 0.0000 0.0000 68.1005 0.0000 0.0000
# 5 0.0000 0.0000 0.0000 0.0000 68.1101 0.0000
# 6 0.0000 0.0000 0.0000 0.0000 0.0000 18.1900
#
#
#
# Elastic Compliance Matrix: (Units=1/GPa)
#
#
# Indices 1 2 3 4 5 6 
#
# 1 -0.011842 0.022802 -0.001881 0.000000 0.000000 0.000000
# 2 0.022802 -0.011840 -0.001881 0.000000 0.000000 0.000000
# 3 -0.001881 -0.001881 0.005152 0.000000 0.000000 0.000000
# 4 0.000000 0.000000 0.000000 0.014684 0.000000 0.000000
# 5 0.000000 0.000000 0.000000 0.000000 0.014682 0.000000
# 6 0.000000 0.000000 0.000000 0.000000 0.000000 0.054975
#
#
# Mechanical properties :
#
#
# Convention : Reuss Voigt Hill
#
# Bulk Modulus (GPa) = 51.15368 64.76307 57.95838
# Shear Modulus (GPa) = 145.98567 41.18589 93.58578
#
# Velocity S-wave (km/s) = 7.92086 4.20718 6.34194
# Velocity P-wave (km/s) = 10.27801 7.17172 8.86203
#
# Compressibility (1/GPa) = 0.01954893
#
# Stress axis : x y z
#
# Youngs Moduli (GPa) = -84.44849 -84.45823 194.09159
#
# Poissons Ratio (x) = 1.92580 0.36515
# Poissons Ratio (y) = 1.92558 0.36513
# Poissons Ratio (z) = -0.15888 -0.15889
#
# Static dielectric constant tensor:
#      x y z
#    x 1.875890 0.000000 0.000000 
#    y 0.000000 1.875880 0.000000 
#    z 0.000000 0.000000 1.830970 
# 
# From -- ./inp_files/3080.got.cif
#   From: 2010.05.17/outbox.cif.g08.bks.cpg/sg142_2_cif.got.tgz:3080.got - 2010.05.20 13:39:18.
