data_PCOD9573543
_publ_section_title
;
Structure prediction by ZEFSAII (Michael W. Deem and Ramdas Pophale) SiO2 
 PCOD9573543
Probable space group: I 41/A C D
;
_chemical_formula_sum "Si O2"
_cell_formula_units_Z 160
_cell_length_a 22.811993
_cell_length_b 22.811993
_cell_length_c 13.528132
_cell_angle_alpha 90.000000
_cell_angle_beta 90.000000
_cell_angle_gamma 90.000000
_cell_volume 7039.864360
_symmetry_space_group_name_H-M "I 41/A C D"
_symmetry_group_IT_number 142
_space_group.IT_coordinate_system_code '2'
_symmetry_cell_setting 'tetragonal'
loop_
_space_group_symop_operation_xyz
x,y,z
1/4-y,3/4+x,1/4+z
-x,1/2-y,z
1/4+y,1/4-x,3/4+z
x,-y,1/2-z
1/2-x,y,-z
3/4+y,1/4+x,1/4-z
1/4-y,1/4-x,1/4-z
-x,-y,-z
3/4+y,1/4-x,3/4-z
x,1/2+y,-z
3/4-y,3/4+x,1/4-z
-x,y,1/2+z
1/2+x,-y,z
1/4-y,3/4-x,3/4+z
3/4+y,3/4+x,3/4+z
1/2+x,1/2+y,1/2+z
3/4-y,1/4+x,3/4+z
1/2-x,-y,1/2+z
3/4+y,3/4-x,1/4+z
1/2+x,1/2-y,-z
-x,1/2+y,1/2-z
1/4+y,3/4+x,3/4-z
3/4-y,3/4-x,3/4-z
1/2-x,1/2-y,1/2-z
1/4+y,3/4-x,1/4-z
1/2+x,y,1/2-z
1/4-y,1/4+x,3/4-z
1/2-x,1/2+y,z
x,1/2-y,1/2+z
3/4-y,1/4-x,1/4+z
1/4+y,1/4+x,1/4+z
loop_
_atom_site_type_symbol
_atom_site_label
_atom_site_fract_x
_atom_site_fract_y
_atom_site_fract_z
Si Si1 0.889890 0.961742 0.165181
Si Si2 0.937135 0.655339 0.763961
Si Si3 0.387071 0.695716 0.915810
Si Si4 0.758593 0.276423 0.887313
Si Si5 0.327838 0.636897 0.215911
O O1 0.900961 0.899569 0.219600
O O2 0.955444 0.987971 0.139680
O O3 0.861082 0.000000 0.250000
O O4 0.859392 0.957030 0.059025
O O5 0.921293 0.671293 0.875000
O O6 0.926883 0.704783 0.680800
O O7 0.003986 0.637299 0.748014
O O8 0.322574 0.697592 0.865747
O O9 0.403505 0.637790 0.977141
O O10 0.708177 0.306979 0.823611
O O11 0.750000 0.295211 0.000000
O O12 0.345300 0.595300 0.125000
#
# Coordination Sequence:
#
# PCOD9573543 Si02
#       5
#    32  32  32  32  32
#     4   9  21  38  62  97 125 168 234 281 333 399
#     4  10  23  42  65  92 135 179 220 278 340 413
#     4  10  23  41  60  98 131 173 236 268 344 417
#     4  10  19  37  62  93 128 169 227 286 330 399
#     4  11  21  36  63  96 129 171 216 294 350 395
#
# _framework density 22.727709000000001
#
# number of rings (size 3 to 8) (size 9 to 14) (size 15 to 20)
#    0.000    2.000    2.000    0.600    2.800    5.200 
#    0.000    1.000    0.000    0.000   31.200    0.000 
#    0.000    0.000    0.000    0.000    0.000    0.000 
#
# Total GULP energy -446112.551834 kJ/mol
# GULP energy per Si atom -5576.406898 kJ/mol
# Density = 2.267598 g / cm^3
# Si number density = 22.727709 Si / 1000 Ang^3
#
#
#
# Elastic Constant Matrix: (Units=GPa)
#
#
# Indices 1 2 3 4 5 6 
#
# 1 42.7150 22.8430 36.6275 0.0000 0.0000 0.0000
# 2 22.8430 42.7150 36.6275 0.0000 0.0000 0.0000
# 3 36.6275 36.6275 232.8360 0.0000 0.0000 0.0000
# 4 0.0000 0.0000 0.0000 34.9936 0.0000 0.0000
# 5 0.0000 0.0000 0.0000 0.0000 34.9936 0.0000
# 6 0.0000 0.0000 0.0000 0.0000 0.0000 6.5475
#
#
#
# Elastic Compliance Matrix: (Units=1/GPa)
#
#
# Indices 1 2 3 4 5 6 
#
# 1 0.034414 -0.015908 -0.002911 0.000000 0.000000 0.000000
# 2 -0.015908 0.034414 -0.002911 0.000000 0.000000 0.000000
# 3 -0.002911 -0.002911 0.005211 0.000000 0.000000 0.000000
# 4 0.000000 0.000000 0.000000 0.028577 0.000000 0.000000
# 5 0.000000 0.000000 0.000000 0.000000 0.028577 0.000000
# 6 0.000000 0.000000 0.000000 0.000000 0.000000 0.152729
#
#
# Mechanical properties :
#
#
# Convention : Reuss Voigt Hill
#
# Bulk Modulus (GPa) = 32.70201 56.71798 44.71000
# Shear Modulus (GPa) = 14.81149 30.11815 22.46482
#
# Velocity S-wave (km/s) = 2.55560 3.64424 3.14735
# Velocity P-wave (km/s) = 4.80915 6.53582 5.73781
#
# Compressibility (1/GPa) = 0.03057916
#
# Stress axis : x y z
#
# Youngs Moduli (GPa) = 29.05758 29.05758 191.90822
#
# Poissons Ratio (x) = 0.46224 0.55870
# Poissons Ratio (y) = 0.46224 0.55870
# Poissons Ratio (z) = 0.08460 0.08460
#
# Static dielectric constant tensor:
#      x y z
#    x 1.947320 0.000000 0.000000 
#    y 0.000000 1.947320 0.000000 
#    z 0.000000 0.000000 1.864700 
# 
# From -- ./inp_files/5462.got.cif
#   From: 2010.05.17/outbox.cif.g08.bks.cpg/sg142_3_cif.got.tgz:5462.got - 2010.05.20 13:39:18.
