data_PCOD9573576
_publ_section_title
;
Structure prediction by ZEFSAII (Michael W. Deem and Ramdas Pophale) SiO2 
 PCOD9573576
Probable space group: I 41/A C D
;
_chemical_formula_sum "Si O2"
_cell_formula_units_Z 184
_cell_length_a 22.676651
_cell_length_b 22.676651
_cell_length_c 17.649708
_cell_angle_alpha 90.000000
_cell_angle_beta 90.000000
_cell_angle_gamma 90.000000
_cell_volume 9076.018180
_symmetry_space_group_name_H-M "I 41/A C D"
_symmetry_group_IT_number 142
_space_group.IT_coordinate_system_code '2'
_symmetry_cell_setting 'tetragonal'
loop_
_space_group_symop_operation_xyz
x,y,z
1/4-y,3/4+x,1/4+z
-x,1/2-y,z
1/4+y,1/4-x,3/4+z
x,-y,1/2-z
1/2-x,y,-z
3/4+y,1/4+x,1/4-z
1/4-y,1/4-x,1/4-z
-x,-y,-z
3/4+y,1/4-x,3/4-z
x,1/2+y,-z
3/4-y,3/4+x,1/4-z
-x,y,1/2+z
1/2+x,-y,z
1/4-y,3/4-x,3/4+z
3/4+y,3/4+x,3/4+z
1/2+x,1/2+y,1/2+z
3/4-y,1/4+x,3/4+z
1/2-x,-y,1/2+z
3/4+y,3/4-x,1/4+z
1/2+x,1/2-y,-z
-x,1/2+y,1/2-z
1/4+y,3/4+x,3/4-z
3/4-y,3/4-x,3/4-z
1/2-x,1/2-y,1/2-z
1/4+y,3/4-x,1/4-z
1/2+x,y,1/2-z
1/4-y,1/4+x,3/4-z
1/2-x,1/2+y,z
x,1/2-y,1/2+z
3/4-y,1/4-x,1/4+z
1/4+y,1/4+x,1/4+z
loop_
_atom_site_type_symbol
_atom_site_label
_atom_site_fract_x
_atom_site_fract_y
_atom_site_fract_z
Si Si1 0.401866 0.431963 0.214910
Si Si2 0.680672 0.281765 0.489670
Si Si3 0.500000 0.250000 0.625000
Si Si4 0.826074 0.161006 0.166671
Si Si5 0.654283 0.474205 0.009833
Si Si6 0.605606 0.167543 0.684030
Si Si7 0.263287 0.986714 0.625000
O O1 0.392751 0.500000 0.250000
O O2 0.464619 0.414222 0.247049
O O3 0.345482 0.395571 0.242304
O O4 0.409340 0.408463 0.127382
O O5 0.750000 0.291032 0.500000
O O6 0.671053 0.294737 0.402031
O O7 0.644675 0.323136 0.547306
O O8 0.554889 0.215011 0.664264
O O9 0.852132 0.102132 0.125000
O O10 0.763409 0.146971 0.204871
O O11 0.866345 0.182148 0.235051
O O12 0.678432 0.491154 0.926990
O O13 0.708687 0.484753 0.067990
#
# Coordination Sequence:
#
# PCOD9573576 Si02
#       7
#    32  32   8  32  32  32  16
#     4  11  22  39  65  96 140 178 216 285 345 419
#     4  10  22  42  66  98 136 176 227 284 348 412
#     4  12  24  48  78  92 116 196 254 288 344 428
#     4  10  22  39  67 101 130 169 228 293 340 414
#     4  11  20  37  60  95 137 175 215 265 345 418
#     4  11  23  45  73  96 129 180 241 289 349 422
#     4  10  20  32  56  94 130 176 214 252 322 428
#
# _framework density 20.273206999999999
#
# number of rings (size 3 to 8) (size 9 to 14) (size 15 to 20)
#    0.000    1.391    4.348    2.087    0.000    1.391 
#    0.000    9.130    0.000    0.000    0.000    0.000 
#    0.000    0.000    0.000    0.000    0.000    0.000 
#
# Total GULP energy -512236.234138 kJ/mol
# GULP energy per Si atom -5567.785154 kJ/mol
# Density = 2.022706 g / cm^3
# Si number density = 20.273207 Si / 1000 Ang^3
#
#
#
# Elastic Constant Matrix: (Units=GPa)
#
#
# Indices 1 2 3 4 5 6 
#
# 1 93.5452 43.1021 66.2499 0.0000 0.0000 0.0000
# 2 43.1021 93.5451 66.2507 0.0000 0.0000 0.0000
# 3 66.2499 66.2507 130.6552 0.0000 0.0000 0.0000
# 4 0.0000 0.0000 0.0000 4.9664 0.0000 0.0000
# 5 0.0000 0.0000 0.0000 0.0000 4.9657 0.0000
# 6 0.0000 0.0000 0.0000 0.0000 0.0000 277.8951
#
#
#
# Elastic Compliance Matrix: (Units=1/GPa)
#
#
# Indices 1 2 3 4 5 6 
#
# 1 0.017110 -0.002714 -0.007300 0.000000 0.000000 0.000000
# 2 -0.002714 0.017111 -0.007300 0.000000 0.000000 0.000000
# 3 -0.007300 -0.007300 0.015057 0.000000 0.000000 0.000000
# 4 0.000000 0.000000 0.000000 0.201352 0.000000 0.000000
# 5 0.000000 0.000000 0.000000 0.000000 0.201380 0.000000
# 6 0.000000 0.000000 0.000000 0.000000 0.000000 0.003598
#
#
# Mechanical properties :
#
#
# Convention : Reuss Voigt Hill
#
# Bulk Modulus (GPa) = 68.25896 74.32787 71.29342
# Shear Modulus (GPa) = 10.09858 67.04164 38.57011
#
# Velocity S-wave (km/s) = 2.23429 5.75681 4.36652
# Velocity P-wave (km/s) = 6.35600 8.99614 7.78875
#
# Compressibility (1/GPa) = 0.01465009
#
# Stress axis : x y z
#
# Youngs Moduli (GPa) = 58.44432 58.44347 66.41534
#
# Poissons Ratio (x) = 0.15861 0.48482
# Poissons Ratio (y) = 0.15861 0.48484
# Poissons Ratio (z) = 0.42663 0.42664
#
# Static dielectric constant tensor:
#      x y z
#    x 1.756350 0.000000 0.000000 
#    y 0.000000 1.756350 0.000000 
#    z 0.000000 0.000000 1.695010 
# 
# From -- ./inp_files/7666.got.cif
#   From: 2010.05.17/outbox.cif.g08.bks.cpg/sg142_4_cif.got.tgz:7666.got - 2010.05.20 13:39:18.
