data_PCOD9573317
_publ_section_title
;
Structure prediction by ZEFSAII (Michael W. Deem and Ramdas Pophale) SiO2 
 PCOD9573317
Probable space group: I 41/A M D
;
_chemical_formula_sum "Si O2"
_cell_formula_units_Z 144
_cell_length_a 19.946255
_cell_length_b 19.946255
_cell_length_c 19.413871
_cell_angle_alpha 90.000000
_cell_angle_beta 90.000000
_cell_angle_gamma 90.000000
_cell_volume 7723.868538
_symmetry_space_group_name_H-M "I 41/A M D"
_symmetry_group_IT_number 141
_space_group.IT_coordinate_system_code '2'
_symmetry_cell_setting 'tetragonal'
loop_
_space_group_symop_operation_xyz
x,y,z
1/4-y,3/4+x,1/4+z
-x,1/2-y,z
1/4+y,1/4-x,3/4+z
x,-y,-z
-x,1/2+y,-z
1/4+y,3/4+x,1/4-z
1/4-y,1/4-x,3/4-z
-x,-y,-z
3/4+y,1/4-x,3/4-z
x,1/2+y,-z
3/4-y,3/4+x,1/4-z
-x,y,z
x,1/2-y,z
3/4-y,1/4-x,3/4+z
3/4+y,3/4+x,1/4+z
1/2+x,1/2+y,1/2+z
3/4-y,1/4+x,3/4+z
1/2-x,-y,1/2+z
3/4+y,3/4-x,1/4+z
1/2+x,1/2-y,1/2-z
1/2-x,y,1/2-z
3/4+y,1/4+x,3/4-z
3/4-y,3/4-x,1/4-z
1/2-x,1/2-y,1/2-z
1/4+y,3/4-x,1/4-z
1/2+x,y,1/2-z
1/4-y,1/4+x,3/4-z
1/2-x,1/2+y,1/2+z
1/2+x,-y,1/2+z
1/4-y,3/4-x,1/4+z
1/4+y,1/4+x,3/4+z
loop_
_atom_site_type_symbol
_atom_site_label
_atom_site_fract_x
_atom_site_fract_y
_atom_site_fract_z
Si Si1 0.078875 0.601016 0.829461
Si Si2 0.000000 0.154557 0.414607
Si Si3 0.500000 0.997780 0.876741
Si Si4 0.764016 0.425685 0.675038
Si Si5 0.893081 0.250000 0.178954
Si Si6 0.133620 0.545591 0.688298
O O1 0.122214 0.555611 0.880646
O O2 0.084472 0.678890 0.851283
O O3 0.114820 0.589498 0.754984
O O4 0.000000 0.583415 0.824268
O O5 0.938101 0.188101 0.375000
O O6 0.000000 0.074983 0.411541
O O7 0.000000 0.172071 0.494095
O O8 0.567203 0.995550 0.831912
O O9 0.500000 0.062143 0.925142
O O10 0.704921 0.454921 0.625000
O O11 0.750000 0.394547 0.750000
O O12 0.808293 0.490790 0.696466
O O13 0.159743 0.590258 0.625000
#
# Coordination Sequence:
#
# PCOD9573317 Si02
#       6
#    32  16  16  32  16  32
#     4  12  25  42  64  92 129 170 211 259 315 379
#     4  11  25  38  53  84 130 178 214 254 295 362
#     4  12  20  38  56  83 121 168 216 248 303 358
#     4  11  23  43  67  94 125 157 205 266 323 372
#     4  12  25  39  58  88 126 167 212 255 303 360
#     4  11  23  37  61  92 128 167 210 257 309 365
#
# _framework density 18.643507
#
# number of rings (size 3 to 8) (size 9 to 14) (size 15 to 20)
#    0.000    0.556    5.556    4.000    3.111    0.444 
#    0.000    0.000    0.000    0.000    0.000    0.000 
#    0.000    0.000    0.000    0.000    0.000    0.000 
#
# Total GULP energy -401917.344217 kJ/mol
# GULP energy per Si atom -5582.185336 kJ/mol
# Density = 1.860107 g / cm^3
# Si number density = 18.643507 Si / 1000 Ang^3
#
#
#
# Elastic Constant Matrix: (Units=GPa)
#
#
# Indices 1 2 3 4 5 6 
#
# 1 91.1192 35.7613 43.1767 0.0000 0.0000 0.0000
# 2 35.7613 91.1202 43.1769 0.0000 0.0000 0.0000
# 3 43.1767 43.1769 122.0883 0.0000 0.0000 0.0000
# 4 0.0000 0.0000 0.0000 28.8054 0.0000 0.0000
# 5 0.0000 0.0000 0.0000 0.0000 28.8056 0.0000
# 6 0.0000 0.0000 0.0000 0.0000 0.0000 22.0001
#
#
#
# Elastic Compliance Matrix: (Units=1/GPa)
#
#
# Indices 1 2 3 4 5 6 
#
# 1 0.014222 -0.003842 -0.003671 0.000000 0.000000 0.000000
# 2 -0.003842 0.014222 -0.003671 0.000000 0.000000 0.000000
# 3 -0.003671 -0.003671 0.010787 0.000000 0.000000 0.000000
# 4 0.000000 0.000000 0.000000 0.034716 0.000000 0.000000
# 5 0.000000 0.000000 0.000000 0.000000 0.034716 0.000000
# 6 0.000000 0.000000 0.000000 0.000000 0.000000 0.045454
#
#
# Mechanical properties :
#
#
# Convention : Reuss Voigt Hill
#
# Bulk Modulus (GPa) = 59.30017 60.95083 60.12550
# Shear Modulus (GPa) = 27.45666 28.06975 27.76320
#
# Velocity S-wave (km/s) = 3.84177 3.88442 3.86315
# Velocity P-wave (km/s) = 7.18021 7.27201 7.22625
#
# Compressibility (1/GPa) = 0.01686336
#
# Stress axis : x y z
#
# Youngs Moduli (GPa) = 70.31370 70.31452 92.70274
#
# Poissons Ratio (x) = 0.27016 0.34029
# Poissons Ratio (y) = 0.27016 0.34029
# Poissons Ratio (z) = 0.25811 0.25811
#
# Static dielectric constant tensor:
#      x y z
#    x 1.681830 0.000000 0.000000 
#    y 0.000000 1.681830 0.000000 
#    z 0.000000 0.000000 1.650940 
# 
# From -- ./inp_files/8496.got.cif
#   From: 2010.05.17/outbox.cif.g08.bks.cpg/sg141_5_cif.got.tgz:8496.got - 2010.05.20 13:30:51.
