data_PCOD9573265
_publ_section_title
;
Structure prediction by ZEFSAII (Michael W. Deem and Ramdas Pophale) SiO2 
 PCOD9573265
Probable space group: I 41/A M D
;
_chemical_formula_sum "Si O2"
_cell_formula_units_Z 112
_cell_length_a 13.997543
_cell_length_b 13.997543
_cell_length_c 32.216256
_cell_angle_alpha 90.000000
_cell_angle_beta 90.000000
_cell_angle_gamma 90.000000
_cell_volume 6312.170021
_symmetry_space_group_name_H-M "I 41/A M D"
_symmetry_group_IT_number 141
_space_group.IT_coordinate_system_code '2'
_symmetry_cell_setting 'tetragonal'
loop_
_space_group_symop_operation_xyz
x,y,z
1/4-y,3/4+x,1/4+z
-x,1/2-y,z
1/4+y,1/4-x,3/4+z
x,-y,-z
-x,1/2+y,-z
1/4+y,3/4+x,1/4-z
1/4-y,1/4-x,3/4-z
-x,-y,-z
3/4+y,1/4-x,3/4-z
x,1/2+y,-z
3/4-y,3/4+x,1/4-z
-x,y,z
x,1/2-y,z
3/4-y,1/4-x,3/4+z
3/4+y,3/4+x,1/4+z
1/2+x,1/2+y,1/2+z
3/4-y,1/4+x,3/4+z
1/2-x,-y,1/2+z
3/4+y,3/4-x,1/4+z
1/2+x,1/2-y,1/2-z
1/2-x,y,1/2-z
3/4+y,1/4+x,3/4-z
3/4-y,3/4-x,1/4-z
1/2-x,1/2-y,1/2-z
1/4+y,3/4-x,1/4-z
1/2+x,y,1/2-z
1/4-y,1/4+x,3/4-z
1/2-x,1/2+y,1/2+z
1/2+x,-y,1/2+z
1/4-y,3/4-x,1/4+z
1/4+y,1/4+x,3/4+z
loop_
_atom_site_type_symbol
_atom_site_label
_atom_site_fract_x
_atom_site_fract_y
_atom_site_fract_z
Si Si1 0.864380 0.250000 0.751429
Si Si2 0.000000 0.413381 0.127864
Si Si3 0.000000 0.406461 0.626175
Si Si4 0.500000 0.618009 0.401341
Si Si5 0.841343 0.250000 0.529055
Si Si6 0.836697 0.250000 0.031314
Si Si7 0.000000 0.413932 0.532212
O O1 0.750000 0.250000 0.750000
O O2 0.894812 0.250000 0.800143
O O3 0.910774 0.157078 0.729167
O O4 0.910529 0.343513 0.123086
O O5 0.000000 0.504185 0.099118
O O6 0.000000 0.450973 0.174753
O O7 0.000000 0.452302 0.671496
O O8 0.000000 0.451398 0.580136
O O9 0.588699 0.661302 0.375000
O O10 0.755030 0.250000 0.497598
O O11 0.909485 0.156852 0.526075
O O12 0.000000 0.500000 0.500000
#
# Coordination Sequence:
#
# PCOD9573265 Si02
#       7
#    16  16  16  16  16  16  16
#     4  11  22  33  50  77 111 146 174 209 251 296
#     4   9  16  34  53  71  97 133 178 211 238 293
#     4   9  18  33  57  74  92 131 171 211 255 295
#     4  11  20  31  47  73 107 143 171 201 248 299
#     4   9  19  34  57  79 100 134 169 213 265 304
#     4  11  20  35  51  77 109 135 171 212 249 302
#     4   9  19  38  59  78  99 126 170 218 263 312
#
# _framework density 17.743503
#
# number of rings (size 3 to 8) (size 9 to 14) (size 15 to 20)
#    0.000    2.143    0.000    8.571    0.000    1.143 
#    0.000    7.143    0.000    1.714    0.000    0.000 
#    0.000    0.000    0.000    0.000    0.000    0.000 
#
# Total GULP energy -312016.115805 kJ/mol
# GULP energy per Si atom -5571.716354 kJ/mol
# Density = 1.770312 g / cm^3
# Si number density = 17.743503 Si / 1000 Ang^3
#
#
#
# Elastic Constant Matrix: (Units=GPa)
#
#
# Indices 1 2 3 4 5 6 
#
# 1 94.9171 5.6466 35.6853 0.0000 0.0000 0.0000
# 2 5.6466 94.9182 35.6855 0.0000 0.0000 0.0000
# 3 35.6853 35.6855 168.6521 0.0000 0.0000 0.0000
# 4 0.0000 0.0000 0.0000 28.7913 0.0000 0.0000
# 5 0.0000 0.0000 0.0000 0.0000 28.7913 0.0000
# 6 0.0000 0.0000 0.0000 0.0000 0.0000 -5.4124
#
#
#
# Elastic Compliance Matrix: (Units=1/GPa)
#
#
# Indices 1 2 3 4 5 6 
#
# 1 0.011451 0.000250 -0.002476 0.000000 0.000000 0.000000
# 2 0.000250 0.011451 -0.002476 0.000000 0.000000 0.000000
# 3 -0.002476 -0.002476 0.006977 0.000000 0.000000 0.000000
# 4 0.000000 0.000000 0.000000 0.034733 0.000000 0.000000
# 5 0.000000 0.000000 0.000000 0.000000 0.034733 0.000000
# 6 0.000000 0.000000 0.000000 0.000000 0.000000 -0.184760
#
#
# Mechanical properties :
#
#
# Convention : Reuss Voigt Hill
#
# Bulk Modulus (GPa) = 48.83825 56.94693 52.89259
# Shear Modulus (GPa) = -72.26938 29.19870 -21.53534
#
# Velocity S-wave (km/s) = -6.38893 4.06100 -3.48760
# Velocity P-wave (km/s) = 5.18076 7.35888 3.69546
#
# Compressibility (1/GPa) = 0.02047575
#
# Stress axis : x y z
#
# Youngs Moduli (GPa) = 87.32492 87.32595 143.32607
#
# Poissons Ratio (x) = -0.02179 0.35485
# Poissons Ratio (y) = -0.02179 0.35485
# Poissons Ratio (z) = 0.21620 0.21620
#
# Static dielectric constant tensor:
#      x y z
#    x 1.592280 0.000000 0.000000 
#    y 0.000000 1.592280 0.000000 
#    z 0.000000 0.000000 1.649050 
# 
# From -- ./inp_files/12572.got.cif
#   From: 2010.05.17/outbox.cif.g08.bks.cpg/sg141_7_cif.got.tgz:12572.got - 2010.05.20 13:30:51.
