data_PCOD9573966
_publ_section_title
;
Structure prediction by ZEFSAII (Michael W. Deem and Ramdas Pophale) SiO2 
 PCOD9573966
Probable space group: I 41/A C D
;
_chemical_formula_sum "Si O2"
_cell_formula_units_Z 80
_cell_length_a 13.446096
_cell_length_b 13.446096
_cell_length_c 17.916832
_cell_angle_alpha 90.000000
_cell_angle_beta 90.000000
_cell_angle_gamma 90.000000
_cell_volume 3239.318391
_symmetry_space_group_name_H-M "I 41/A C D"
_symmetry_group_IT_number 142
_space_group.IT_coordinate_system_code '2'
_symmetry_cell_setting 'tetragonal'
loop_
_space_group_symop_operation_xyz
x,y,z
1/4-y,3/4+x,1/4+z
-x,1/2-y,z
1/4+y,1/4-x,3/4+z
x,-y,1/2-z
1/2-x,y,-z
3/4+y,1/4+x,1/4-z
1/4-y,1/4-x,1/4-z
-x,-y,-z
3/4+y,1/4-x,3/4-z
x,1/2+y,-z
3/4-y,3/4+x,1/4-z
-x,y,1/2+z
1/2+x,-y,z
1/4-y,3/4-x,3/4+z
3/4+y,3/4+x,3/4+z
1/2+x,1/2+y,1/2+z
3/4-y,1/4+x,3/4+z
1/2-x,-y,1/2+z
3/4+y,3/4-x,1/4+z
1/2+x,1/2-y,-z
-x,1/2+y,1/2-z
1/4+y,3/4+x,3/4-z
3/4-y,3/4-x,3/4-z
1/2-x,1/2-y,1/2-z
1/4+y,3/4-x,1/4-z
1/2+x,y,1/2-z
1/4-y,1/4+x,3/4-z
1/2-x,1/2+y,z
x,1/2-y,1/2+z
3/4-y,1/4-x,1/4+z
1/4+y,1/4+x,1/4+z
loop_
_atom_site_type_symbol
_atom_site_label
_atom_site_fract_x
_atom_site_fract_y
_atom_site_fract_z
Si Si1 0.167915 0.082086 0.625000
Si Si2 0.633195 0.655231 0.857591
Si Si3 0.965723 0.859886 0.950935
O O1 0.280574 0.098100 0.598317
O O2 0.156473 0.178178 0.679033
O O3 0.523213 0.615172 0.874741
O O4 0.649827 0.651028 0.768389
O O5 0.904143 0.845858 0.875000
O O6 0.000000 0.750000 0.976485
#
# Coordination Sequence:
#
# PCOD9573966 Si02
#       3
#    16  32  32
#     4  10  23  40  72  99 138 182 248 276 346 423
#     4  11  22  43  72 101 139 185 231 292 351 415
#     4   9  19  42  69  95 147 186 216 294 354 404
#
# _framework density 24.696553999999999
#
# number of rings (size 3 to 8) (size 9 to 14) (size 15 to 20)
#    0.000    2.400    4.000    1.200    0.000    1.600 
#   14.400    0.000    0.000    0.000    0.000    0.000 
#    0.000    0.000    0.000    0.000    0.000    0.000 
#
# Total GULP energy -223367.524671 kJ/mol
# GULP energy per Si atom -5584.188117 kJ/mol
# Density = 2.464034 g / cm^3
# Si number density = 24.696554 Si / 1000 Ang^3
#
#
#
# Elastic Constant Matrix: (Units=GPa)
#
#
# Indices 1 2 3 4 5 6 
#
# 1 108.0928 60.7814 16.1658 0.0000 0.0000 0.0000
# 2 60.7814 108.0901 16.1653 0.0000 0.0000 0.0000
# 3 16.1658 16.1653 136.7141 0.0000 0.0000 0.0000
# 4 0.0000 0.0000 0.0000 6.3317 0.0000 0.0000
# 5 0.0000 0.0000 0.0000 0.0000 6.3309 0.0000
# 6 0.0000 0.0000 0.0000 0.0000 0.0000 17.3601
#
#
#
# Elastic Compliance Matrix: (Units=1/GPa)
#
#
# Indices 1 2 3 4 5 6 
#
# 1 0.013598 -0.007539 -0.000716 0.000000 0.000000 0.000000
# 2 -0.007539 0.013598 -0.000716 0.000000 0.000000 0.000000
# 3 -0.000716 -0.000716 0.007484 0.000000 0.000000 0.000000
# 4 0.000000 0.000000 0.000000 0.157935 0.000000 0.000000
# 5 0.000000 0.000000 0.000000 0.000000 0.157955 0.000000
# 6 0.000000 0.000000 0.000000 0.000000 0.000000 0.057603
#
#
# Mechanical properties :
#
#
# Convention : Reuss Voigt Hill
#
# Bulk Modulus (GPa) = 59.75192 59.90244 59.82718
# Shear Modulus (GPa) = 11.58224 23.32353 17.45288
#
# Velocity S-wave (km/s) = 2.16795 3.07645 2.66125
# Velocity P-wave (km/s) = 5.52391 6.07679 5.80694
#
# Compressibility (1/GPa) = 0.01673586
#
# Stress axis : x y z
#
# Youngs Moduli (GPa) = 73.54139 73.53957 133.61921
#
# Poissons Ratio (x) = 0.55443 0.09573
# Poissons Ratio (y) = 0.55444 0.09572
# Poissons Ratio (z) = 0.05269 0.05268
#
# Static dielectric constant tensor:
#      x y z
#    x 2.083810 0.000000 0.000000 
#    y 0.000000 2.083810 0.000000 
#    z 0.000000 0.000000 1.984800 
# 
# From -- ./inp_files/8181.got.cif
#   From: 2010.05.17/outbox.cif.g08.bks.cpg/sg142_5_cif.got.tgz:8181.got - 2010.05.20 13:39:18.
