data_PCOD9573458
_publ_section_title
;
Structure prediction by ZEFSAII (Michael W. Deem and Ramdas Pophale) SiO2 
 PCOD9573458
Probable space group: I 41/A C D
;
_chemical_formula_sum "Si O2"
_cell_formula_units_Z 176
_cell_length_a 19.356226
_cell_length_b 19.356226
_cell_length_c 20.957377
_cell_angle_alpha 90.000000
_cell_angle_beta 90.000000
_cell_angle_gamma 90.000000
_cell_volume 7851.963903
_symmetry_space_group_name_H-M "I 41/A C D"
_symmetry_group_IT_number 142
_space_group.IT_coordinate_system_code '2'
_symmetry_cell_setting 'tetragonal'
loop_
_space_group_symop_operation_xyz
x,y,z
1/4-y,3/4+x,1/4+z
-x,1/2-y,z
1/4+y,1/4-x,3/4+z
x,-y,1/2-z
1/2-x,y,-z
3/4+y,1/4+x,1/4-z
1/4-y,1/4-x,1/4-z
-x,-y,-z
3/4+y,1/4-x,3/4-z
x,1/2+y,-z
3/4-y,3/4+x,1/4-z
-x,y,1/2+z
1/2+x,-y,z
1/4-y,3/4-x,3/4+z
3/4+y,3/4+x,3/4+z
1/2+x,1/2+y,1/2+z
3/4-y,1/4+x,3/4+z
1/2-x,-y,1/2+z
3/4+y,3/4-x,1/4+z
1/2+x,1/2-y,-z
-x,1/2+y,1/2-z
1/4+y,3/4+x,3/4-z
3/4-y,3/4-x,3/4-z
1/2-x,1/2-y,1/2-z
1/4+y,3/4-x,1/4-z
1/2+x,y,1/2-z
1/4-y,1/4+x,3/4-z
1/2-x,1/2+y,z
x,1/2-y,1/2+z
3/4-y,1/4-x,1/4+z
1/4+y,1/4+x,1/4+z
loop_
_atom_site_type_symbol
_atom_site_label
_atom_site_fract_x
_atom_site_fract_y
_atom_site_fract_z
Si Si1 0.478041 0.400101 0.139464
Si Si2 0.052034 0.848227 0.003807
Si Si3 0.940614 0.837403 0.772009
Si Si4 0.307350 0.627890 0.450940
Si Si5 0.097903 0.976403 0.320467
Si Si6 0.743588 0.493588 0.875000
O O1 0.471080 0.351894 0.078151
O O2 0.437704 0.366188 0.199183
O O3 0.556451 0.418850 0.158795
O O4 0.438960 0.473141 0.129468
O O5 0.070460 0.772373 0.976973
O O6 0.123567 0.890828 0.007424
O O7 0.978508 0.859487 0.969815
O O8 0.923560 0.897402 0.820748
O O9 0.250000 0.653585 0.500000
O O10 0.272662 0.565710 0.410981
O O11 0.075149 0.000000 0.250000
O O12 0.179705 0.984734 0.326682
#
# Coordination Sequence:
#
# PCOD9573458 Si02
#       6
#    32  32  32  32  32  16
#     4  10  18  34  61  94 123 158 209 266 322 387
#     4  10  18  33  60  95 120 155 209 260 323 386
#     4   9  18  31  57  91 127 151 198 272 323 369
#     4  11  23  40  61  90 131 173 215 270 331 390
#     4  10  21  38  59  86 125 173 211 262 332 389
#     4  12  24  42  58  85 128 183 228 260 322 404
#
# _framework density 22.414774000000001
#
# number of rings (size 3 to 8) (size 9 to 14) (size 15 to 20)
#    0.000    1.818    1.818    5.455    2.545    2.909 
#    0.000    2.727    0.000    2.182    0.000    0.000 
#    0.000    0.000    0.000    0.000    0.000    0.000 
#
# Total GULP energy -490007.205500 kJ/mol
# GULP energy per Si atom -5568.263699 kJ/mol
# Density = 2.236376 g / cm^3
# Si number density = 22.414774 Si / 1000 Ang^3
#
#
#
# Elastic Constant Matrix: (Units=GPa)
#
#
# Indices 1 2 3 4 5 6 
#
# 1 125.1017 36.3854 19.2537 0.0000 0.0000 0.0000
# 2 36.3854 125.1017 19.2537 0.0000 0.0000 0.0000
# 3 19.2537 19.2537 30.9426 0.0000 0.0000 0.0000
# 4 0.0000 0.0000 0.0000 11.8069 0.0000 0.0000
# 5 0.0000 0.0000 0.0000 0.0000 11.8069 0.0000
# 6 0.0000 0.0000 0.0000 0.0000 0.0000 32.8142
#
#
#
# Elastic Compliance Matrix: (Units=1/GPa)
#
#
# Indices 1 2 3 4 5 6 
#
# 1 0.009272 -0.002000 -0.004525 0.000000 0.000000 0.000000
# 2 -0.002000 0.009272 -0.004525 0.000000 0.000000 0.000000
# 3 -0.004525 -0.004525 0.037949 0.000000 0.000000 0.000000
# 4 0.000000 0.000000 0.000000 0.084697 0.000000 0.000000
# 5 0.000000 0.000000 0.000000 0.000000 0.084696 0.000000
# 6 0.000000 0.000000 0.000000 0.000000 0.000000 0.030475
#
#
# Mechanical properties :
#
#
# Convention : Reuss Voigt Hill
#
# Bulk Modulus (GPa) = 29.07554 47.88131 38.47842
# Shear Modulus (GPa) = 17.24599 25.03579 21.14089
#
# Velocity S-wave (km/s) = 2.77682 3.34568 3.07444
# Velocity P-wave (km/s) = 4.82501 6.02766 5.45955
#
# Compressibility (1/GPa) = 0.03439317
#
# Stress axis : x y z
#
# Youngs Moduli (GPa) = 107.85608 107.85608 26.35147
#
# Poissons Ratio (x) = 0.21574 0.11923
# Poissons Ratio (y) = 0.21574 0.11923
# Poissons Ratio (z) = 0.48800 0.48800
#
# Static dielectric constant tensor:
#      x y z
#    x 1.796950 0.000000 0.000000 
#    y 0.000000 1.796950 0.000000 
#    z 0.000000 0.000000 1.862480 
# 
# From -- ./inp_files/11416.got.cif
#   From: 2010.05.17/outbox.cif.g08.bks.cpg/sg142_6_cif.got.tgz:11416.got - 2010.05.20 13:39:18.
