data_PCOD9573592
_publ_section_title
;
Structure prediction by ZEFSAII (Michael W. Deem and Ramdas Pophale) SiO2 
 PCOD9573592
Probable space group: I 41/A C D
;
_chemical_formula_sum "Si O2"
_cell_formula_units_Z 192
_cell_length_a 17.820147
_cell_length_b 17.820147
_cell_length_c 25.678990
_cell_angle_alpha 90.000000
_cell_angle_beta 90.000000
_cell_angle_gamma 90.000000
_cell_volume 8154.559439
_symmetry_space_group_name_H-M "I 41/A C D"
_symmetry_group_IT_number 142
_space_group.IT_coordinate_system_code '2'
_symmetry_cell_setting 'tetragonal'
loop_
_space_group_symop_operation_xyz
x,y,z
1/4-y,3/4+x,1/4+z
-x,1/2-y,z
1/4+y,1/4-x,3/4+z
x,-y,1/2-z
1/2-x,y,-z
3/4+y,1/4+x,1/4-z
1/4-y,1/4-x,1/4-z
-x,-y,-z
3/4+y,1/4-x,3/4-z
x,1/2+y,-z
3/4-y,3/4+x,1/4-z
-x,y,1/2+z
1/2+x,-y,z
1/4-y,3/4-x,3/4+z
3/4+y,3/4+x,3/4+z
1/2+x,1/2+y,1/2+z
3/4-y,1/4+x,3/4+z
1/2-x,-y,1/2+z
3/4+y,3/4-x,1/4+z
1/2+x,1/2-y,-z
-x,1/2+y,1/2-z
1/4+y,3/4+x,3/4-z
3/4-y,3/4-x,3/4-z
1/2-x,1/2-y,1/2-z
1/4+y,3/4-x,1/4-z
1/2+x,y,1/2-z
1/4-y,1/4+x,3/4-z
1/2-x,1/2+y,z
x,1/2-y,1/2+z
3/4-y,1/4-x,1/4+z
1/4+y,1/4+x,1/4+z
loop_
_atom_site_type_symbol
_atom_site_label
_atom_site_fract_x
_atom_site_fract_y
_atom_site_fract_z
Si Si1 0.900735 0.139183 0.312583
Si Si2 0.697956 0.783719 0.640483
Si Si3 0.658675 0.615320 0.048047
Si Si4 0.362362 0.204222 0.671379
Si Si5 0.874304 0.020757 0.595480
Si Si6 0.192098 0.419363 0.767388
O O1 0.901573 0.094116 0.258928
O O2 0.957901 0.126965 0.359660
O O3 0.903017 0.227925 0.300755
O O4 0.818976 0.124152 0.338929
O O5 0.637126 0.825104 0.676491
O O6 0.705972 0.837922 0.590215
O O7 0.772996 0.783767 0.675225
O O8 0.693121 0.696729 0.626247
O O9 0.680222 0.526807 0.041685
O O10 0.367811 0.123068 0.696929
O O11 0.801328 0.051328 0.625000
O O12 0.876521 0.047983 0.535821
O O13 0.164470 0.500000 0.750000
#
# Coordination Sequence:
#
# PCOD9573592 Si02
#       6
#    32  32  32  32  32  32
#     4  10  21  37  59  82 117 159 198 242 294 359
#     4   9  19  36  58  85 115 149 195 248 293 353
#     4   9  19  35  58  84 111 150 199 243 294 348
#     4  10  21  37  56  84 118 157 197 243 300 358
#     4  10  20  36  58  85 120 151 188 245 309 350
#     4  10  20  34  59  89 118 150 197 251 305 359
#
# _framework density 23.545110000000001
#
# number of rings (size 3 to 8) (size 9 to 14) (size 15 to 20)
#    0.000    2.333    0.000    2.000    4.667    4.333 
#    3.000    1.667    3.667    0.000    0.000    0.000 
#    0.000    0.000    0.000    0.000    0.000    0.000 
#
# Total GULP energy -535780.816547 kJ/mol
# GULP energy per Si atom -5581.050172 kJ/mol
# Density = 2.349152 g / cm^3
# Si number density = 23.545110 Si / 1000 Ang^3
#
#
#
# Elastic Constant Matrix: (Units=GPa)
#
#
# Indices 1 2 3 4 5 6 
#
# 1 46.1151 12.3869 11.4990 0.0000 0.0000 0.0000
# 2 12.3869 46.1151 11.4990 0.0000 0.0000 0.0000
# 3 11.4990 11.4990 117.6277 0.0000 0.0000 0.0000
# 4 0.0000 0.0000 0.0000 26.0887 0.0000 0.0000
# 5 0.0000 0.0000 0.0000 0.0000 26.0887 0.0000
# 6 0.0000 0.0000 0.0000 0.0000 0.0000 7.2020
#
#
#
# Elastic Compliance Matrix: (Units=1/GPa)
#
#
# Indices 1 2 3 4 5 6 
#
# 1 0.023713 -0.005936 -0.001738 0.000000 0.000000 0.000000
# 2 -0.005936 0.023713 -0.001738 0.000000 0.000000 0.000000
# 3 -0.001738 -0.001738 0.008841 0.000000 0.000000 0.000000
# 4 0.000000 0.000000 0.000000 0.038331 0.000000 0.000000
# 5 0.000000 0.000000 0.000000 0.000000 0.038331 0.000000
# 6 0.000000 0.000000 0.000000 0.000000 0.000000 0.138850
#
#
# Mechanical properties :
#
#
# Convention : Reuss Voigt Hill
#
# Bulk Modulus (GPa) = 26.70713 31.18084 28.94398
# Shear Modulus (GPa) = 16.49718 23.50744 20.00231
#
# Velocity S-wave (km/s) = 2.64987 3.16317 2.91783
# Velocity P-wave (km/s) = 4.55303 5.15875 4.86532
#
# Compressibility (1/GPa) = 0.03744318
#
# Stress axis : x y z
#
# Youngs Moduli (GPa) = 42.17156 42.17156 113.10733
#
# Poissons Ratio (x) = 0.25033 0.19656
# Poissons Ratio (y) = 0.25033 0.19656
# Poissons Ratio (z) = 0.07329 0.07329
#
# Static dielectric constant tensor:
#      x y z
#    x 1.983280 0.000000 0.000000 
#    y 0.000000 1.983280 0.000000 
#    z 0.000000 0.000000 1.930580 
# 
# From -- ./inp_files/10412.got.cif
#   From: 2010.05.17/outbox.cif.g08.bks.cpg/sg142_6_cif.got.tgz:10412.got - 2010.05.20 13:39:18.
