data_PCOD9573719
_publ_section_title
;
Structure prediction by ZEFSAII (Michael W. Deem and Ramdas Pophale) SiO2 
 PCOD9573719
Probable space group: I 41/A C D
;
_chemical_formula_sum "Si O2"
_cell_formula_units_Z 128
_cell_length_a 22.614386
_cell_length_b 22.614386
_cell_length_c 11.450333
_cell_angle_alpha 90.000000
_cell_angle_beta 90.000000
_cell_angle_gamma 90.000000
_cell_volume 5855.820000
_symmetry_space_group_name_H-M "I 41/A C D"
_symmetry_group_IT_number 142
_space_group.IT_coordinate_system_code '2'
_symmetry_cell_setting 'tetragonal'
loop_
_space_group_symop_operation_xyz
x,y,z
1/4-y,3/4+x,1/4+z
-x,1/2-y,z
1/4+y,1/4-x,3/4+z
x,-y,1/2-z
1/2-x,y,-z
3/4+y,1/4+x,1/4-z
1/4-y,1/4-x,1/4-z
-x,-y,-z
3/4+y,1/4-x,3/4-z
x,1/2+y,-z
3/4-y,3/4+x,1/4-z
-x,y,1/2+z
1/2+x,-y,z
1/4-y,3/4-x,3/4+z
3/4+y,3/4+x,3/4+z
1/2+x,1/2+y,1/2+z
3/4-y,1/4+x,3/4+z
1/2-x,-y,1/2+z
3/4+y,3/4-x,1/4+z
1/2+x,1/2-y,-z
-x,1/2+y,1/2-z
1/4+y,3/4+x,3/4-z
3/4-y,3/4-x,3/4-z
1/2-x,1/2-y,1/2-z
1/4+y,3/4-x,1/4-z
1/2+x,y,1/2-z
1/4-y,1/4+x,3/4-z
1/2-x,1/2+y,z
x,1/2-y,1/2+z
3/4-y,1/4-x,1/4+z
1/4+y,1/4+x,1/4+z
loop_
_atom_site_type_symbol
_atom_site_label
_atom_site_fract_x
_atom_site_fract_y
_atom_site_fract_z
Si Si1 0.004527 0.500000 0.750000
Si Si2 0.123673 0.815217 0.763330
Si Si3 0.443309 0.900940 0.395007
Si Si4 0.230931 0.480931 0.625000
Si Si5 0.748095 0.648244 0.697566
O O1 0.046361 0.489511 0.638791
O O2 0.968288 0.441942 0.788787
O O3 0.090522 0.844993 0.654101
O O4 0.131808 0.746514 0.730897
O O5 0.189967 0.842242 0.764297
O O6 0.085508 0.835508 0.875000
O O7 0.399210 0.944184 0.462794
O O8 0.257366 0.500000 0.750000
O O9 0.161661 0.495265 0.623828
#
# Coordination Sequence:
#
# PCOD9573719 Si02
#       5
#    16  32  32  16  32
#     4  10  20  42  64  92 130 178 230 266 334 416
#     4  11  24  44  66  98 132 175 230 282 339 405
#     4  11  23  41  69  97 131 179 224 284 336 409
#     4  12  26  44  66 104 145 178 222 285 358 418
#     4  11  23  42  67  97 134 181 224 276 345 417
#
# _framework density 21.858595999999999
#
# number of rings (size 3 to 8) (size 9 to 14) (size 15 to 20)
#    0.000    1.000    1.250    7.500    5.250    0.500 
#    4.500    1.250    0.000    0.000    0.000    0.000 
#    0.000    0.000    0.000    0.000    0.000    0.000 
#
# Total GULP energy -357762.813821 kJ/mol
# GULP energy per Si atom -5590.043966 kJ/mol
# Density = 2.180884 g / cm^3
# Si number density = 21.858596 Si / 1000 Ang^3
#
#
#
# Elastic Constant Matrix: (Units=GPa)
#
#
# Indices 1 2 3 4 5 6 
#
# 1 39.5223 35.1495 24.8480 0.0000 0.0000 0.0000
# 2 35.1495 39.5223 24.8480 0.0000 0.0000 0.0000
# 3 24.8480 24.8480 107.2427 0.0000 0.0000 0.0000
# 4 0.0000 0.0000 0.0000 25.6541 0.0000 0.0000
# 5 0.0000 0.0000 0.0000 0.0000 25.6541 0.0000
# 6 0.0000 0.0000 0.0000 0.0000 0.0000 17.1464
#
#
#
# Elastic Compliance Matrix: (Units=1/GPa)
#
#
# Indices 1 2 3 4 5 6 
#
# 1 0.122260 -0.106427 -0.003669 0.000000 0.000000 0.000000
# 2 -0.106427 0.122260 -0.003669 0.000000 0.000000 0.000000
# 3 -0.003669 -0.003669 0.011025 0.000000 0.000000 0.000000
# 4 0.000000 0.000000 0.000000 0.038980 0.000000 0.000000
# 5 0.000000 0.000000 0.000000 0.000000 0.038980 0.000000
# 6 0.000000 0.000000 0.000000 0.000000 0.000000 0.058321
#
#
# Mechanical properties :
#
#
# Convention : Reuss Voigt Hill
#
# Bulk Modulus (GPa) = 35.69234 39.55316 37.62275
# Shear Modulus (GPa) = 7.95299 20.45372 14.20335
#
# Velocity S-wave (km/s) = 1.90952 3.06229 2.55185
# Velocity P-wave (km/s) = 4.60716 5.53514 5.09233
#
# Compressibility (1/GPa) = 0.02801721
#
# Stress axis : x y z
#
# Youngs Moduli (GPa) = 8.17926 8.17926 90.70578
#
# Poissons Ratio (x) = 0.87049 0.33276
# Poissons Ratio (y) = 0.87049 0.33276
# Poissons Ratio (z) = 0.03001 0.03001
#
# Static dielectric constant tensor:
#      x y z
#    x 1.776670 0.000000 0.000000 
#    y 0.000000 1.776670 0.000000 
#    z 0.000000 0.000000 1.723110 
# 
# From -- ./inp_files/3503.got.cif
#   From: 2010.05.17/outbox.cif.g08.bks.cpg/sg142_2_cif.got.tgz:3503.got - 2010.05.20 13:39:18.
