data_PCOD9573748
_publ_section_title
;
Structure prediction by ZEFSAII (Michael W. Deem and Ramdas Pophale) SiO2 
 PCOD9573748
Probable space group: I 41/A C D
;
_chemical_formula_sum "Si O2"
_cell_formula_units_Z 240
_cell_length_a 21.102031
_cell_length_b 21.102031
_cell_length_c 28.284937
_cell_angle_alpha 90.000000
_cell_angle_beta 90.000000
_cell_angle_gamma 90.000000
_cell_volume 12595.161169
_symmetry_space_group_name_H-M "I 41/A C D"
_symmetry_group_IT_number 142
_space_group.IT_coordinate_system_code '2'
_symmetry_cell_setting 'tetragonal'
loop_
_space_group_symop_operation_xyz
x,y,z
1/4-y,3/4+x,1/4+z
-x,1/2-y,z
1/4+y,1/4-x,3/4+z
x,-y,1/2-z
1/2-x,y,-z
3/4+y,1/4+x,1/4-z
1/4-y,1/4-x,1/4-z
-x,-y,-z
3/4+y,1/4-x,3/4-z
x,1/2+y,-z
3/4-y,3/4+x,1/4-z
-x,y,1/2+z
1/2+x,-y,z
1/4-y,3/4-x,3/4+z
3/4+y,3/4+x,3/4+z
1/2+x,1/2+y,1/2+z
3/4-y,1/4+x,3/4+z
1/2-x,-y,1/2+z
3/4+y,3/4-x,1/4+z
1/2+x,1/2-y,-z
-x,1/2+y,1/2-z
1/4+y,3/4+x,3/4-z
3/4-y,3/4-x,3/4-z
1/2-x,1/2-y,1/2-z
1/4+y,3/4-x,1/4-z
1/2+x,y,1/2-z
1/4-y,1/4+x,3/4-z
1/2-x,1/2+y,z
x,1/2-y,1/2+z
3/4-y,1/4-x,1/4+z
1/4+y,1/4+x,1/4+z
loop_
_atom_site_type_symbol
_atom_site_label
_atom_site_fract_x
_atom_site_fract_y
_atom_site_fract_z
Si Si1 0.987743 0.602986 0.738118
Si Si2 0.202840 0.011719 0.677902
Si Si3 0.552857 0.006526 0.821494
Si Si4 0.576483 0.173518 0.375000
Si Si5 0.144823 0.988789 0.011603
Si Si6 0.621061 0.341414 0.766724
Si Si7 0.448494 0.376594 0.002749
Si Si8 0.450462 0.607740 0.609026
O O1 0.980555 0.558302 0.692496
O O2 0.965196 0.559030 0.782055
O O3 0.938064 0.660878 0.735849
O O4 0.059720 0.622275 0.747229
O O5 0.236026 0.949346 0.698845
O O6 0.223924 0.026077 0.625000
O O7 0.128040 0.997957 0.680841
O O8 0.217993 0.069907 0.713170
O O9 0.535836 0.038331 0.871212
O O10 0.590322 0.139485 0.425548
O O11 0.503024 0.154754 0.368532
O O12 0.089694 0.937341 0.022433
O O13 0.120190 0.060054 0.007735
O O14 0.620697 0.273449 0.740006
O O15 0.449016 0.386836 0.946384
O O16 0.381830 0.631830 0.625000
#
# Coordination Sequence:
#
# PCOD9573748 Si02
#       8
#    32  32  32  16  32  32  32  32
#     4  11  20  36  56  88 119 158 206 249 317 365
#     4  11  22  39  66  90 121 162 205 256 310 373
#     4  11  19  33  58  84 120 151 203 256 298 377
#     4  10  21  36  48  88 124 158 196 248 310 371
#     4  11  22  41  58  93 127 157 204 258 315 373
#     4  11  24  36  59  84 126 165 204 256 315 373
#     4  11  20  38  60  85 122 162 207 252 306 379
#     4  11  18  31  58  85 120 154 200 251 303 360
#
# _framework density 19.054936000000001
#
# number of rings (size 3 to 8) (size 9 to 14) (size 15 to 20)
#    0.000    1.067    5.333    3.000    0.933    4.267 
#    0.000    0.000    0.000    0.000    0.000    0.000 
#    8.000    0.000    0.000    0.000    0.000    0.000 
#
# Total GULP energy -669603.431057 kJ/mol
# GULP energy per Si atom -5580.028592 kJ/mol
# Density = 1.901157 g / cm^3
# Si number density = 19.054936 Si / 1000 Ang^3
#
#
#
# Elastic Constant Matrix: (Units=GPa)
#
#
# Indices 1 2 3 4 5 6 
#
# 1 109.4772 53.5608 9.8221 0.0000 0.0000 0.0000
# 2 53.5608 109.4788 9.8220 0.0000 0.0000 0.0000
# 3 9.8221 9.8220 44.4907 0.0000 0.0000 0.0000
# 4 0.0000 0.0000 0.0000 2.3363 0.0000 0.0000
# 5 0.0000 0.0000 0.0000 0.0000 2.3399 0.0000
# 6 0.0000 0.0000 0.0000 0.0000 0.0000 12.2771
#
#
#
# Elastic Compliance Matrix: (Units=1/GPa)
#
#
# Indices 1 2 3 4 5 6 
#
# 1 0.012092 -0.005791 -0.001391 0.000000 0.000000 0.000000
# 2 -0.005791 0.012092 -0.001391 0.000000 0.000000 0.000000
# 3 -0.001391 -0.001391 0.023091 0.000000 0.000000 0.000000
# 4 0.000000 0.000000 0.000000 0.428030 0.000000 0.000000
# 5 0.000000 0.000000 0.000000 0.000000 0.427362 0.000000
# 6 0.000000 0.000000 0.000000 0.000000 0.000000 0.081453
#
#
# Mechanical properties :
#
#
# Convention : Reuss Voigt Hill
#
# Bulk Modulus (GPa) = 33.19090 45.53961 39.36525
# Shear Modulus (GPa) = 4.94408 16.07345 10.50876
#
# Velocity S-wave (km/s) = 1.61254 2.90751 2.35095
# Velocity P-wave (km/s) = 4.57421 5.93486 5.29839
#
# Compressibility (1/GPa) = 0.03012874
#
# Stress axis : x y z
#
# Youngs Moduli (GPa) = 82.69624 82.69751 43.30730
#
# Poissons Ratio (x) = 0.47892 0.06025
# Poissons Ratio (y) = 0.47891 0.06024
# Poissons Ratio (z) = 0.11504 0.11503
#
# Static dielectric constant tensor:
#      x y z
#    x 1.680600 0.000000 0.000000 
#    y 0.000000 1.680600 0.000000 
#    z 0.000000 0.000000 1.641480 
# 
# From -- ./inp_files/11665.got.cif
#   From: 2010.05.17/outbox.cif.g08.bks.cpg/sg142_6_cif.got.tgz:11665.got - 2010.05.20 13:39:18.
