data_PCOD9573824
_publ_section_title
;
Structure prediction by ZEFSAII (Michael W. Deem and Ramdas Pophale) SiO2 
 PCOD9573824
Probable space group: I 41/A C D
;
_chemical_formula_sum "Si O2"
_cell_formula_units_Z 176
_cell_length_a 28.054659
_cell_length_b 28.054659
_cell_length_c 11.731965
_cell_angle_alpha 90.000000
_cell_angle_beta 90.000000
_cell_angle_gamma 90.000000
_cell_volume 9233.806029
_symmetry_space_group_name_H-M "I 41/A C D"
_symmetry_group_IT_number 142
_space_group.IT_coordinate_system_code '2'
_symmetry_cell_setting 'tetragonal'
loop_
_space_group_symop_operation_xyz
x,y,z
1/4-y,3/4+x,1/4+z
-x,1/2-y,z
1/4+y,1/4-x,3/4+z
x,-y,1/2-z
1/2-x,y,-z
3/4+y,1/4+x,1/4-z
1/4-y,1/4-x,1/4-z
-x,-y,-z
3/4+y,1/4-x,3/4-z
x,1/2+y,-z
3/4-y,3/4+x,1/4-z
-x,y,1/2+z
1/2+x,-y,z
1/4-y,3/4-x,3/4+z
3/4+y,3/4+x,3/4+z
1/2+x,1/2+y,1/2+z
3/4-y,1/4+x,3/4+z
1/2-x,-y,1/2+z
3/4+y,3/4-x,1/4+z
1/2+x,1/2-y,-z
-x,1/2+y,1/2-z
1/4+y,3/4+x,3/4-z
3/4-y,3/4-x,3/4-z
1/2-x,1/2-y,1/2-z
1/4+y,3/4-x,1/4-z
1/2+x,y,1/2-z
1/4-y,1/4+x,3/4-z
1/2-x,1/2+y,z
x,1/2-y,1/2+z
3/4-y,1/4-x,1/4+z
1/4+y,1/4+x,1/4+z
loop_
_atom_site_type_symbol
_atom_site_label
_atom_site_fract_x
_atom_site_fract_y
_atom_site_fract_z
Si Si1 0.921380 0.000000 0.750000
Si Si2 0.137379 0.034120 0.642529
Si Si3 0.845301 0.966510 0.936129
Si Si4 0.039585 0.100824 0.189031
Si Si5 0.597185 0.619522 0.467881
Si Si6 0.862096 0.178884 0.048765
O O1 0.884914 0.988305 0.852298
O O2 0.952752 0.951629 0.754310
O O3 0.170803 0.079198 0.625000
O O4 0.086021 0.059854 0.652319
O O5 0.143821 0.000000 0.750000
O O6 0.152832 0.002415 0.537929
O O7 0.795591 0.954410 0.875000
O O8 0.860704 0.915773 0.991220
O O9 0.077326 0.135570 0.251750
O O10 0.985507 0.116981 0.199000
O O11 0.055160 0.103559 0.055030
O O12 0.587460 0.614046 0.334018
O O13 0.902133 0.152133 0.125000
#
# Coordination Sequence:
#
# PCOD9573824 Si02
#       6
#    16  32  32  32  32  32
#     4  10  22  36  70  96 118 170 230 264 318 400
#     4  11  26  41  59  93 132 170 219 271 328 390
#     4  11  22  41  65  90 133 177 215 270 333 395
#     4  10  23  42  70  98 127 174 224 273 336 403
#     4  10  21  45  65  93 134 169 213 274 339 405
#     4  11  26  42  69  96 137 173 215 288 344 391
#
# _framework density 19.060396999999998
#
# number of rings (size 3 to 8) (size 9 to 14) (size 15 to 20)
#    0.000    1.455    5.455    0.000   11.455    0.727 
#    0.000    5.455    0.000    0.000    0.000    0.000 
#    0.000    0.000    0.000    0.000    0.000    0.000 
#
# Total GULP energy -490276.814323 kJ/mol
# GULP energy per Si atom -5571.327435 kJ/mol
# Density = 1.901701 g / cm^3
# Si number density = 19.060397 Si / 1000 Ang^3
#
#
#
# Elastic Constant Matrix: (Units=GPa)
#
#
# Indices 1 2 3 4 5 6 
#
# 1 90.9639 42.7529 30.7916 0.0000 0.0000 0.0000
# 2 42.7529 90.9358 30.7845 0.0000 0.0000 0.0000
# 3 30.7916 30.7845 84.8158 0.0000 0.0000 0.0000
# 4 0.0000 0.0000 0.0000 99.6335 0.0000 0.0000
# 5 0.0000 0.0000 0.0000 0.0000 99.3086 0.0000
# 6 0.0000 0.0000 0.0000 0.0000 0.0000 21.1004
#
#
#
# Elastic Compliance Matrix: (Units=1/GPa)
#
#
# Indices 1 2 3 4 5 6 
#
# 1 0.014862 -0.005884 -0.003260 0.000000 0.000000 0.000000
# 2 -0.005884 0.014867 -0.003260 0.000000 0.000000 0.000000
# 3 -0.003260 -0.003260 0.014157 0.000000 0.000000 0.000000
# 4 0.000000 0.000000 0.000000 0.010037 0.000000 0.000000
# 5 0.000000 0.000000 0.000000 0.000000 0.010070 0.000000
# 6 0.000000 0.000000 0.000000 0.000000 0.000000 0.047392
#
#
# Mechanical properties :
#
#
# Convention : Reuss Voigt Hill
#
# Bulk Modulus (GPa) = 52.41529 52.81929 52.61729
# Shear Modulus (GPa) = 35.07504 54.83428 44.95466
#
# Velocity S-wave (km/s) = 4.29442 5.36946 4.86175
# Velocity P-wave (km/s) = 7.22140 8.13715 7.69291
#
# Compressibility (1/GPa) = 0.01907840
#
# Stress axis : x y z
#
# Youngs Moduli (GPa) = 67.28445 67.26509 70.63654
#
# Poissons Ratio (x) = 0.39577 0.23028
# Poissons Ratio (y) = 0.39589 0.23027
# Poissons Ratio (z) = 0.21935 0.21928
#
# Static dielectric constant tensor:
#      x y z
#    x 1.683000 0.000000 0.000000 
#    y 0.000000 1.683040 0.000000 
#    z 0.000000 0.000000 1.629850 
# 
# From -- ./inp_files/3996.got.cif
#   From: 2010.05.17/outbox.cif.g08.bks.cpg/sg142_2_cif.got.tgz:3996.got - 2010.05.20 13:39:18.
