data_PCOD9573712
_publ_section_title
;
Structure prediction by ZEFSAII (Michael W. Deem and Ramdas Pophale) SiO2 
 PCOD9573712
Probable space group: I 41/A C D
;
_chemical_formula_sum "Si O2"
_cell_formula_units_Z 120
_cell_length_a 25.004593
_cell_length_b 25.004593
_cell_length_c 9.600066
_cell_angle_alpha 90.000000
_cell_angle_beta 90.000000
_cell_angle_gamma 90.000000
_cell_volume 6002.246108
_symmetry_space_group_name_H-M "I 41/A C D"
_symmetry_group_IT_number 142
_space_group.IT_coordinate_system_code '2'
_symmetry_cell_setting 'tetragonal'
loop_
_space_group_symop_operation_xyz
x,y,z
1/4-y,3/4+x,1/4+z
-x,1/2-y,z
1/4+y,1/4-x,3/4+z
x,-y,1/2-z
1/2-x,y,-z
3/4+y,1/4+x,1/4-z
1/4-y,1/4-x,1/4-z
-x,-y,-z
3/4+y,1/4-x,3/4-z
x,1/2+y,-z
3/4-y,3/4+x,1/4-z
-x,y,1/2+z
1/2+x,-y,z
1/4-y,3/4-x,3/4+z
3/4+y,3/4+x,3/4+z
1/2+x,1/2+y,1/2+z
3/4-y,1/4+x,3/4+z
1/2-x,-y,1/2+z
3/4+y,3/4-x,1/4+z
1/2+x,1/2-y,-z
-x,1/2+y,1/2-z
1/4+y,3/4+x,3/4-z
3/4-y,3/4-x,3/4-z
1/2-x,1/2-y,1/2-z
1/4+y,3/4-x,1/4-z
1/2+x,y,1/2-z
1/4-y,1/4+x,3/4-z
1/2-x,1/2+y,z
x,1/2-y,1/2+z
3/4-y,1/4-x,1/4+z
1/4+y,1/4+x,1/4+z
loop_
_atom_site_type_symbol
_atom_site_label
_atom_site_fract_x
_atom_site_fract_y
_atom_site_fract_z
Si Si1 0.175267 0.710564 0.986496
Si Si2 0.056180 0.306180 0.625000
Si Si3 0.903511 0.494674 0.450564
Si Si4 0.250000 0.806318 0.000000
Si Si5 0.786965 0.463036 0.125000
Si Si6 0.000000 0.250000 0.375000
O O1 0.115224 0.704550 0.935176
O O2 0.212941 0.696839 0.855021
O O3 0.192393 0.668370 0.107961
O O4 0.198110 0.768536 0.029412
O O5 0.044339 0.269349 0.761992
O O6 0.909659 0.486867 0.613632
O O7 0.847692 0.522240 0.411704
O O8 0.770979 0.500000 0.250000
#
# Coordination Sequence:
#
# PCOD9573712 Si02
#       6
#    32  16  32  16  16   8
#     4  10  20  41  70  93 134 166 209 270 326 384
#     4  11  25  44  69  92 136 178 216 270 332 383
#     4  10  22  41  64 102 124 167 216 260 331 385
#     4  10  22  38  68 106 122 156 226 274 308 392
#     4  12  25  44  63  86 138 175 210 265 318 393
#     4  10  28  46  60 102 132 178 228 262 324 394
#
# _framework density 19.992515000000001
#
# number of rings (size 3 to 8) (size 9 to 14) (size 15 to 20)
#    0.000    1.867    2.667    4.000    9.333    0.000 
#    0.000    0.000    0.000    0.000    0.000    0.000 
#    0.000    0.000    0.000    0.000    0.000    0.000 
#
# Total GULP energy -334329.979156 kJ/mol
# GULP energy per Si atom -5572.166319 kJ/mol
# Density = 1.994701 g / cm^3
# Si number density = 19.992515 Si / 1000 Ang^3
#
#
#
# Elastic Constant Matrix: (Units=GPa)
#
#
# Indices 1 2 3 4 5 6 
#
# 1 117.2583 5.0145 54.2531 0.0000 0.0000 0.0000
# 2 5.0145 117.2517 54.2532 0.0000 0.0000 0.0000
# 3 54.2531 54.2532 190.8109 0.0000 0.0000 0.0000
# 4 0.0000 0.0000 0.0000 20.7089 0.0000 0.0000
# 5 0.0000 0.0000 0.0000 0.0000 20.7070 0.0000
# 6 0.0000 0.0000 0.0000 0.0000 0.0000 10.8933
#
#
#
# Elastic Compliance Matrix: (Units=1/GPa)
#
#
# Indices 1 2 3 4 5 6 
#
# 1 0.009924 0.001015 -0.003110 0.000000 0.000000 0.000000
# 2 0.001015 0.009924 -0.003110 0.000000 0.000000 0.000000
# 3 -0.003110 -0.003110 0.007009 0.000000 0.000000 0.000000
# 4 0.000000 0.000000 0.000000 0.048289 0.000000 0.000000
# 5 0.000000 0.000000 0.000000 0.000000 0.048293 0.000000
# 6 0.000000 0.000000 0.000000 0.000000 0.000000 0.091800
#
#
# Mechanical properties :
#
#
# Convention : Reuss Voigt Hill
#
# Bulk Modulus (GPa) = 60.80462 72.48472 66.64467
# Shear Modulus (GPa) = 21.63265 31.24851 26.44058
#
# Velocity S-wave (km/s) = 3.29300 3.95778 3.64060
# Velocity P-wave (km/s) = 6.70360 7.56439 7.14697
#
# Compressibility (1/GPa) = 0.01644612
#
# Stress axis : x y z
#
# Youngs Moduli (GPa) = 100.76811 100.76152 142.66477
#
# Poissons Ratio (x) = -0.10224 0.44370
# Poissons Ratio (y) = -0.10225 0.44373
# Poissons Ratio (z) = 0.31340 0.31340
#
# Static dielectric constant tensor:
#      x y z
#    x 1.816520 0.000000 0.000000 
#    y 0.000000 1.816520 0.000000 
#    z 0.000000 0.000000 1.694690 
# 
# From -- ./inp_files/1906.got.cif
#   From: 2010.05.17/outbox.cif.g08.bks.cpg/sg142_1_cif.got.tgz:1906.got - 2010.05.20 13:39:18.
