data_PCOD9573621
_publ_section_title
;
Structure prediction by ZEFSAII (Michael W. Deem and Ramdas Pophale) SiO2 
 PCOD9573621
Probable space group: I 41/A C D
;
_chemical_formula_sum "Si O2"
_cell_formula_units_Z 176
_cell_length_a 24.598886
_cell_length_b 24.598886
_cell_length_c 12.578744
_cell_angle_alpha 90.000000
_cell_angle_beta 90.000000
_cell_angle_gamma 90.000000
_cell_volume 7611.463309
_symmetry_space_group_name_H-M "I 41/A C D"
_symmetry_group_IT_number 142
_space_group.IT_coordinate_system_code '2'
_symmetry_cell_setting 'tetragonal'
loop_
_space_group_symop_operation_xyz
x,y,z
1/4-y,3/4+x,1/4+z
-x,1/2-y,z
1/4+y,1/4-x,3/4+z
x,-y,1/2-z
1/2-x,y,-z
3/4+y,1/4+x,1/4-z
1/4-y,1/4-x,1/4-z
-x,-y,-z
3/4+y,1/4-x,3/4-z
x,1/2+y,-z
3/4-y,3/4+x,1/4-z
-x,y,1/2+z
1/2+x,-y,z
1/4-y,3/4-x,3/4+z
3/4+y,3/4+x,3/4+z
1/2+x,1/2+y,1/2+z
3/4-y,1/4+x,3/4+z
1/2-x,-y,1/2+z
3/4+y,3/4-x,1/4+z
1/2+x,1/2-y,-z
-x,1/2+y,1/2-z
1/4+y,3/4+x,3/4-z
3/4-y,3/4-x,3/4-z
1/2-x,1/2-y,1/2-z
1/4+y,3/4-x,1/4-z
1/2+x,y,1/2-z
1/4-y,1/4+x,3/4-z
1/2-x,1/2+y,z
x,1/2-y,1/2+z
3/4-y,1/4-x,1/4+z
1/4+y,1/4+x,1/4+z
loop_
_atom_site_type_symbol
_atom_site_label
_atom_site_fract_x
_atom_site_fract_y
_atom_site_fract_z
Si Si1 0.973209 0.825810 0.179573
Si Si2 0.350468 0.441391 0.644230
Si Si3 0.120587 0.218291 0.105875
Si Si4 0.300921 0.949080 0.125000
Si Si5 0.314224 0.217255 0.679209
Si Si6 0.077043 0.050821 0.320725
O O1 0.935067 0.777345 0.141680
O O2 0.953017 0.883727 0.144813
O O3 0.987259 0.830765 0.303126
O O4 0.340989 0.440781 0.773173
O O5 0.310174 0.487670 0.598248
O O6 0.408564 0.462980 0.593625
O O7 0.330996 0.380652 0.612832
O O8 0.083198 0.166803 0.125000
O O9 0.157951 0.227880 0.207059
O O10 0.159274 0.202448 0.010320
O O11 0.286853 0.275108 0.647653
O O12 0.094454 0.000000 0.250000
#
# Coordination Sequence:
#
# PCOD9573621 Si02
#       6
#    32  32  32  16  32  32
#     4  10  20  36  62  96 137 184 244 285 350 440
#     4  11  25  50  74 106 146 189 252 309 380 470
#     4  11  21  42  64  94 138 194 235 305 351 439
#     4  10  28  48  80 104 140 195 248 323 382 448
#     4  11  23  44  67  99 149 182 237 298 379 448
#     4  11  27  41  72 109 139 190 244 313 381 446
#
# _framework density 23.123017000000001
#
# number of rings (size 3 to 8) (size 9 to 14) (size 15 to 20)
#    0.000    1.273    3.636    1.091    7.636    4.364 
#    0.000    0.000    0.000    0.000    0.000    0.000 
#    0.000    0.000    0.000    0.000    0.000    0.000 
#
# Total GULP energy -490155.239662 kJ/mol
# GULP energy per Si atom -5569.945905 kJ/mol
# Density = 2.307039 g / cm^3
# Si number density = 23.123017 Si / 1000 Ang^3
#
#
#
# Elastic Constant Matrix: (Units=GPa)
#
#
# Indices 1 2 3 4 5 6 
#
# 1 78.7562 26.6420 27.8566 0.0000 0.0000 0.0000
# 2 26.6420 78.7584 27.8569 0.0000 0.0000 0.0000
# 3 27.8566 27.8569 129.6819 0.0000 0.0000 0.0000
# 4 0.0000 0.0000 0.0000 2.7664 0.0000 0.0000
# 5 0.0000 0.0000 0.0000 0.0000 2.8042 0.0000
# 6 0.0000 0.0000 0.0000 0.0000 0.0000 -175.0284
#
#
#
# Elastic Compliance Matrix: (Units=1/GPa)
#
#
# Indices 1 2 3 4 5 6 
#
# 1 0.014946 -0.004243 -0.002299 0.000000 0.000000 0.000000
# 2 -0.004243 0.014945 -0.002299 0.000000 0.000000 0.000000
# 3 -0.002299 -0.002299 0.008699 0.000000 0.000000 0.000000
# 4 0.000000 0.000000 0.000000 0.361485 0.000000 0.000000
# 5 0.000000 0.000000 0.000000 0.000000 0.356610 0.000000
# 6 0.000000 0.000000 0.000000 0.000000 0.000000 -0.005713
#
#
# Mechanical properties :
#
#
# Convention : Reuss Voigt Hill
#
# Bulk Modulus (GPa) = 47.82729 50.21193 49.01961
# Shear Modulus (GPa) = 6.44643 -20.23551 -6.89454
#
# Velocity S-wave (km/s) = 1.67151 -2.96146 -1.72863
# Velocity P-wave (km/s) = 4.94510 3.17311 4.15467
#
# Compressibility (1/GPa) = 0.02090857
#
# Stress axis : x y z
#
# Youngs Moduli (GPa) = 66.90831 66.91015 114.95693
#
# Poissons Ratio (x) = 0.28387 0.26430
# Poissons Ratio (y) = 0.28386 0.26430
# Poissons Ratio (z) = 0.15383 0.15383
#
# Static dielectric constant tensor:
#      x y z
#    x 1.871110 0.000000 0.000000 
#    y 0.000000 1.871150 0.000000 
#    z 0.000000 0.000000 1.983580 
# 
# From -- ./inp_files/3981.got.cif
#   From: 2010.05.17/outbox.cif.g08.bks.cpg/sg142_2_cif.got.tgz:3981.got - 2010.05.20 13:39:18.
