data_PCOD9573564
_publ_section_title
;
Structure prediction by ZEFSAII (Michael W. Deem and Ramdas Pophale) SiO2 
 PCOD9573564
Probable space group: I 41/A C D
;
_chemical_formula_sum "Si O2"
_cell_formula_units_Z 96
_cell_length_a 17.575701
_cell_length_b 17.575701
_cell_length_c 13.697829
_cell_angle_alpha 90.000000
_cell_angle_beta 90.000000
_cell_angle_gamma 90.000000
_cell_volume 4231.331506
_symmetry_space_group_name_H-M "I 41/A C D"
_symmetry_group_IT_number 142
_space_group.IT_coordinate_system_code '2'
_symmetry_cell_setting 'tetragonal'
loop_
_space_group_symop_operation_xyz
x,y,z
1/4-y,3/4+x,1/4+z
-x,1/2-y,z
1/4+y,1/4-x,3/4+z
x,-y,1/2-z
1/2-x,y,-z
3/4+y,1/4+x,1/4-z
1/4-y,1/4-x,1/4-z
-x,-y,-z
3/4+y,1/4-x,3/4-z
x,1/2+y,-z
3/4-y,3/4+x,1/4-z
-x,y,1/2+z
1/2+x,-y,z
1/4-y,3/4-x,3/4+z
3/4+y,3/4+x,3/4+z
1/2+x,1/2+y,1/2+z
3/4-y,1/4+x,3/4+z
1/2-x,-y,1/2+z
3/4+y,3/4-x,1/4+z
1/2+x,1/2-y,-z
-x,1/2+y,1/2-z
1/4+y,3/4+x,3/4-z
3/4-y,3/4-x,3/4-z
1/2-x,1/2-y,1/2-z
1/4+y,3/4-x,1/4-z
1/2+x,y,1/2-z
1/4-y,1/4+x,3/4-z
1/2-x,1/2+y,z
x,1/2-y,1/2+z
3/4-y,1/4-x,1/4+z
1/4+y,1/4+x,1/4+z
loop_
_atom_site_type_symbol
_atom_site_label
_atom_site_fract_x
_atom_site_fract_y
_atom_site_fract_z
Si Si1 0.874735 0.973470 0.561184
Si Si2 0.893280 0.143280 0.625000
Si Si3 0.891704 0.715211 0.576416
Si Si4 0.300377 0.550377 0.625000
O O1 0.934885 0.937894 0.634492
O O2 0.788775 0.949821 0.592508
O O3 0.869889 0.944605 0.450624
O O4 0.889336 0.063268 0.566824
O O5 0.898730 0.205622 0.539748
O O6 0.911204 0.797635 0.617707
#
# Coordination Sequence:
#
# PCOD9573564 Si02
#       4
#    32  16  32  16
#     4  10  19  40  65  97 124 163 211 266 331 380
#     4  11  22  45  70  89 128 175 214 283 335 380
#     4  11  26  43  62  93 133 178 217 264 335 397
#     4   9  18  34  68  96 124 154 206 274 317 374
#
# _framework density 22.687894
#
# number of rings (size 3 to 8) (size 9 to 14) (size 15 to 20)
#    0.000    1.667    3.333    1.000    0.000    6.667 
#   12.000    0.000    0.000    0.000    0.000    0.000 
#    0.000    0.000    0.000    0.000    0.000    0.000 
#
# Total GULP energy -267678.882257 kJ/mol
# GULP energy per Si atom -5576.643380 kJ/mol
# Density = 2.263626 g / cm^3
# Si number density = 22.687894 Si / 1000 Ang^3
#
#
#
# Elastic Constant Matrix: (Units=GPa)
#
#
# Indices 1 2 3 4 5 6 
#
# 1 9.0037 6.4331 4.0254 0.0000 0.0000 0.0000
# 2 6.4331 9.0037 4.0254 0.0000 0.0000 0.0000
# 3 4.0254 4.0254 120.8315 0.0000 0.0000 0.0000
# 4 0.0000 0.0000 0.0000 20.0328 0.0000 0.0000
# 5 0.0000 0.0000 0.0000 0.0000 20.0328 0.0000
# 6 0.0000 0.0000 0.0000 0.0000 0.0000 14.1574
#
#
#
# Elastic Compliance Matrix: (Units=1/GPa)
#
#
# Indices 1 2 3 4 5 6 
#
# 1 0.227468 -0.161542 -0.002196 0.000000 0.000000 0.000000
# 2 -0.161542 0.227468 -0.002196 0.000000 0.000000 0.000000
# 3 -0.002196 -0.002196 0.008422 0.000000 0.000000 0.000000
# 4 0.000000 0.000000 0.000000 0.049918 0.000000 0.000000
# 5 0.000000 0.000000 0.000000 0.000000 0.049918 0.000000
# 6 0.000000 0.000000 0.000000 0.000000 0.000000 0.070634
#
#
# Mechanical properties :
#
#
# Convention : Reuss Voigt Hill
#
# Bulk Modulus (GPa) = 7.60524 18.64521 13.12522
# Shear Modulus (GPa) = 4.95282 19.13492 12.04387
#
# Velocity S-wave (km/s) = 1.47911 2.90728 2.30652
# Velocity P-wave (km/s) = 2.50528 4.41652 3.59041
#
# Compressibility (1/GPa) = 0.13148830
#
# Stress axis : x y z
#
# Youngs Moduli (GPa) = 4.39623 4.39623 118.73207
#
# Poissons Ratio (x) = 0.71018 0.26077
# Poissons Ratio (y) = 0.71018 0.26077
# Poissons Ratio (z) = 0.00966 0.00966
#
# Static dielectric constant tensor:
#      x y z
#    x 1.839430 0.000000 0.000000 
#    y 0.000000 1.839430 0.000000 
#    z 0.000000 0.000000 1.968060 
# 
# From -- ./inp_files/4895.got.cif
#   From: 2010.05.17/outbox.cif.g08.bks.cpg/sg142_3_cif.got.tgz:4895.got - 2010.05.20 13:39:18.
