data_PCOD9573742
_publ_section_title
;
Structure prediction by ZEFSAII (Michael W. Deem and Ramdas Pophale) SiO2 
 PCOD9573742
Probable space group: I 41/A C D
;
_chemical_formula_sum "Si O2"
_cell_formula_units_Z 160
_cell_length_a 34.746639
_cell_length_b 34.746639
_cell_length_c 7.630642
_cell_angle_alpha 90.000000
_cell_angle_beta 90.000000
_cell_angle_gamma 90.000000
_cell_volume 9212.694778
_symmetry_space_group_name_H-M "I 41/A C D"
_symmetry_group_IT_number 142
_space_group.IT_coordinate_system_code '2'
_symmetry_cell_setting 'tetragonal'
loop_
_space_group_symop_operation_xyz
x,y,z
1/4-y,3/4+x,1/4+z
-x,1/2-y,z
1/4+y,1/4-x,3/4+z
x,-y,1/2-z
1/2-x,y,-z
3/4+y,1/4+x,1/4-z
1/4-y,1/4-x,1/4-z
-x,-y,-z
3/4+y,1/4-x,3/4-z
x,1/2+y,-z
3/4-y,3/4+x,1/4-z
-x,y,1/2+z
1/2+x,-y,z
1/4-y,3/4-x,3/4+z
3/4+y,3/4+x,3/4+z
1/2+x,1/2+y,1/2+z
3/4-y,1/4+x,3/4+z
1/2-x,-y,1/2+z
3/4+y,3/4-x,1/4+z
1/2+x,1/2-y,-z
-x,1/2+y,1/2-z
1/4+y,3/4+x,3/4-z
3/4-y,3/4-x,3/4-z
1/2-x,1/2-y,1/2-z
1/4+y,3/4-x,1/4-z
1/2+x,y,1/2-z
1/4-y,1/4+x,3/4-z
1/2-x,1/2+y,z
x,1/2-y,1/2+z
3/4-y,1/4-x,1/4+z
1/4+y,1/4+x,1/4+z
loop_
_atom_site_type_symbol
_atom_site_label
_atom_site_fract_x
_atom_site_fract_y
_atom_site_fract_z
Si Si1 0.698940 0.000000 0.750000
Si Si2 0.985992 0.543222 0.330408
Si Si3 0.560941 0.428538 0.521871
Si Si4 0.260958 0.170585 0.702986
Si Si5 0.368218 0.118218 0.375000
Si Si6 0.687471 0.600349 0.795507
O O1 0.724552 0.974552 0.625000
O O2 0.674745 0.971337 0.870274
O O3 0.989173 0.500000 0.250000
O O4 0.962221 0.572531 0.205951
O O5 0.960134 0.532365 0.499057
O O6 0.026531 0.561146 0.386305
O O7 0.583734 0.469163 0.542318
O O8 0.589200 0.395298 0.447602
O O9 0.250000 0.166551 0.500000
O O10 0.291094 0.138958 0.760434
O O11 0.359196 0.091491 0.206322
O O12 0.668273 0.581728 0.625000
#
# Coordination Sequence:
#
# PCOD9573742 Si02
#       6
#    16  32  32  32  16  32
#     4  12  24  44  54  76 102 150 220 268 296 338
#     4  10  21  34  60  89 112 152 195 237 300 357
#     4  11  21  37  58  87 117 154 190 241 297 358
#     4  11  19  37  58  80 115 148 194 248 293 359
#     4  12  24  40  58  86 124 153 192 234 308 362
#     4  12  25  41  60  81 112 156 197 254 309 351
#
# _framework density 17.367339000000001
#
# number of rings (size 3 to 8) (size 9 to 14) (size 15 to 20)
#    0.000    0.800    4.000    6.000    0.000    0.000 
#    0.000    0.000    0.000    0.000    0.000    0.000 
#    0.000    2.400    0.000    0.000    0.000    0.000 
#
# Total GULP energy -446105.830875 kJ/mol
# GULP energy per Si atom -5576.322886 kJ/mol
# Density = 1.732781 g / cm^3
# Si number density = 17.367339 Si / 1000 Ang^3
#
#
#
# Elastic Constant Matrix: (Units=GPa)
#
#
# Indices 1 2 3 4 5 6 
#
# 1 96.9855 56.6957 35.0347 0.0000 0.0000 0.0000
# 2 56.6957 96.9855 35.0344 0.0000 0.0000 0.0000
# 3 35.0347 35.0344 95.5674 0.0000 0.0000 0.0000
# 4 0.0000 0.0000 0.0000 27.0109 0.0000 0.0000
# 5 0.0000 0.0000 0.0000 0.0000 27.0092 0.0000
# 6 0.0000 0.0000 0.0000 0.0000 0.0000 33.2072
#
#
#
# Elastic Compliance Matrix: (Units=1/GPa)
#
#
# Indices 1 2 3 4 5 6 
#
# 1 0.016317 -0.008504 -0.002864 0.000000 0.000000 0.000000
# 2 -0.008504 0.016316 -0.002864 0.000000 0.000000 0.000000
# 3 -0.002864 -0.002864 0.012564 0.000000 0.000000 0.000000
# 4 0.000000 0.000000 0.000000 0.037022 0.000000 0.000000
# 5 0.000000 0.000000 0.000000 0.000000 0.037024 0.000000
# 6 0.000000 0.000000 0.000000 0.000000 0.000000 0.030114
#
#
# Mechanical properties :
#
#
# Convention : Reuss Voigt Hill
#
# Bulk Modulus (GPa) = 59.76259 60.34090 60.05174
# Shear Modulus (GPa) = 27.26297 28.29701 27.77999
#
# Velocity S-wave (km/s) = 3.96635 4.04087 4.00378
# Velocity P-wave (km/s) = 7.44725 7.52269 7.48506
#
# Compressibility (1/GPa) = 0.01673288
#
# Stress axis : x y z
#
# Youngs Moduli (GPa) = 61.28751 61.28773 79.59379
#
# Poissons Ratio (x) = 0.52117 0.22797
# Poissons Ratio (y) = 0.52117 0.22797
# Poissons Ratio (z) = 0.17554 0.17553
#
# Static dielectric constant tensor:
#      x y z
#    x 1.604120 0.000000 0.000000 
#    y 0.000000 1.604120 0.000000 
#    z 0.000000 0.000000 1.675090 
# 
# From -- ./inp_files/2220.got.cif
#   From: 2010.05.17/outbox.cif.g08.bks.cpg/sg142_2_cif.got.tgz:2220.got - 2010.05.20 13:39:18.
