data_PCOD9573714
_publ_section_title
;
Structure prediction by ZEFSAII (Michael W. Deem and Ramdas Pophale) SiO2 
 PCOD9573714
Probable space group: I 41/A C D
;
_chemical_formula_sum "Si O2"
_cell_formula_units_Z 216
_cell_length_a 27.982534
_cell_length_b 27.982534
_cell_length_c 11.377320
_cell_angle_alpha 90.000000
_cell_angle_beta 90.000000
_cell_angle_gamma 90.000000
_cell_volume 8908.694240
_symmetry_space_group_name_H-M "I 41/A C D"
_symmetry_group_IT_number 142
_space_group.IT_coordinate_system_code '2'
_symmetry_cell_setting 'tetragonal'
loop_
_space_group_symop_operation_xyz
x,y,z
1/4-y,3/4+x,1/4+z
-x,1/2-y,z
1/4+y,1/4-x,3/4+z
x,-y,1/2-z
1/2-x,y,-z
3/4+y,1/4+x,1/4-z
1/4-y,1/4-x,1/4-z
-x,-y,-z
3/4+y,1/4-x,3/4-z
x,1/2+y,-z
3/4-y,3/4+x,1/4-z
-x,y,1/2+z
1/2+x,-y,z
1/4-y,3/4-x,3/4+z
3/4+y,3/4+x,3/4+z
1/2+x,1/2+y,1/2+z
3/4-y,1/4+x,3/4+z
1/2-x,-y,1/2+z
3/4+y,3/4-x,1/4+z
1/2+x,1/2-y,-z
-x,1/2+y,1/2-z
1/4+y,3/4+x,3/4-z
3/4-y,3/4-x,3/4-z
1/2-x,1/2-y,1/2-z
1/4+y,3/4-x,1/4-z
1/2+x,y,1/2-z
1/4-y,1/4+x,3/4-z
1/2-x,1/2+y,z
x,1/2-y,1/2+z
3/4-y,1/4-x,1/4+z
1/4+y,1/4+x,1/4+z
loop_
_atom_site_type_symbol
_atom_site_label
_atom_site_fract_x
_atom_site_fract_y
_atom_site_fract_z
Si Si1 0.870005 0.865417 0.215379
Si Si2 0.221091 0.528910 0.875000
Si Si3 0.411444 0.890906 0.518377
Si Si4 0.173506 0.790476 0.940468
Si Si5 0.000000 0.250000 0.125000
Si Si6 0.160198 0.522368 0.449272
Si Si7 0.268279 0.184696 0.662265
Si Si8 0.102552 0.757823 0.772858
O O1 0.910634 0.893461 0.289746
O O2 0.818543 0.882104 0.256787
O O3 0.881360 0.808635 0.220293
O O4 0.873268 0.885489 0.084261
O O5 0.222362 0.500000 0.750000
O O6 0.240472 0.576802 0.812918
O O7 0.388566 0.861435 0.625000
O O8 0.427986 0.946603 0.523497
O O9 0.458454 0.865796 0.462684
O O10 0.215790 0.791840 0.842051
O O11 0.132994 0.754505 0.895736
O O12 0.201921 0.787185 0.062591
O O13 0.953019 0.245708 0.203361
O O14 0.205106 0.544895 0.375000
O O15 0.120721 0.492910 0.376298
#
# Coordination Sequence:
#
# PCOD9573714 Si02
#       8
#    32  16  32  32   8  32  32  32
#     4  11  23  45  77 104 146 202 261 320 396 482
#     4  12  30  42  66 114 162 206 270 340 402 492
#     4  11  28  44  67 103 160 206 244 324 413 486
#     4  10  20  41  75 106 134 190 249 323 372 474
#     4  12  24  40  82 116 150 184 248 340 406 492
#     4  12  24  46  76 110 151 206 271 333 395 470
#     4  10  23  41  74 102 139 196 257 306 383 471
#     4  12  23  46  76 112 149 192 256 325 410 485
#
# _framework density 24.245975999999999
#
# number of rings (size 3 to 8) (size 9 to 14) (size 15 to 20)
#    0.000    0.889    5.926    0.000    5.185    4.148 
#    0.000    0.000    0.000    0.000    0.000    0.000 
#    0.000    0.000    0.000    0.000    0.000    0.000 
#
# Total GULP energy -601378.109681 kJ/mol
# GULP energy per Si atom -5568.315830 kJ/mol
# Density = 2.419079 g / cm^3
# Si number density = 24.245976 Si / 1000 Ang^3
#
#
#
# Elastic Constant Matrix: (Units=GPa)
#
#
# Indices 1 2 3 4 5 6 
#
# 1 874.8879 -745.0397 23.0910 0.0000 0.0000 0.0000
# 2 -745.0397 874.8043 23.0726 0.0000 0.0000 0.0000
# 3 23.0910 23.0726 60.7834 0.0000 0.0000 0.0000
# 4 0.0000 0.0000 0.0000 27.5607 0.0000 0.0000
# 5 0.0000 0.0000 0.0000 0.0000 27.5612 0.0000
# 6 0.0000 0.0000 0.0000 0.0000 0.0000 37.3146
#
#
#
# Elastic Compliance Matrix: (Units=1/GPa)
#
#
# Indices 1 2 3 4 5 6 
#
# 1 0.004762 0.004145 -0.003382 0.000000 0.000000 0.000000
# 2 0.004145 0.004762 -0.003382 0.000000 0.000000 0.000000
# 3 -0.003382 -0.003382 0.019021 0.000000 0.000000 0.000000
# 4 0.000000 0.000000 0.000000 0.036284 0.000000 0.000000
# 5 0.000000 0.000000 0.000000 0.000000 0.036283 0.000000
# 6 0.000000 0.000000 0.000000 0.000000 0.000000 0.026799
#
#
# Mechanical properties :
#
#
# Convention : Reuss Voigt Hill
#
# Bulk Modulus (GPa) = 42.90920 45.85816 44.38368
# Shear Modulus (GPa) = 35.48166 185.77742 110.62954
#
# Velocity S-wave (km/s) = 3.82960 8.76289 6.76218
# Velocity P-wave (km/s) = 6.10658 11.01541 8.90588
#
# Compressibility (1/GPa) = 0.02330503
#
# Stress axis : x y z
#
# Youngs Moduli (GPa) = 210.00593 209.98906 52.57474
#
# Poissons Ratio (x) = -0.87033 0.17782
# Poissons Ratio (y) = -0.87040 0.17782
# Poissons Ratio (z) = 0.71028 0.71022
#
# Static dielectric constant tensor:
#      x y z
#    x 2.067530 0.000000 0.000000 
#    y 0.000000 2.067510 0.000000 
#    z 0.000000 0.000000 2.091510 
# 
# From -- ./inp_files/4260.got.cif
#   From: 2010.05.17/outbox.cif.g08.bks.cpg/sg142_3_cif.got.tgz:4260.got - 2010.05.20 13:39:18.
