data_PCOD9573762
_publ_section_title
;
Structure prediction by ZEFSAII (Michael W. Deem and Ramdas Pophale) SiO2 
 PCOD9573762
Probable space group: I 41/A C D
;
_chemical_formula_sum "Si O2"
_cell_formula_units_Z 112
_cell_length_a 13.086337
_cell_length_b 13.086337
_cell_length_c 30.962807
_cell_angle_alpha 90.000000
_cell_angle_beta 90.000000
_cell_angle_gamma 90.000000
_cell_volume 5302.449315
_symmetry_space_group_name_H-M "I 41/A C D"
_symmetry_group_IT_number 142
_space_group.IT_coordinate_system_code '2'
_symmetry_cell_setting 'tetragonal'
loop_
_space_group_symop_operation_xyz
x,y,z
1/4-y,3/4+x,1/4+z
-x,1/2-y,z
1/4+y,1/4-x,3/4+z
x,-y,1/2-z
1/2-x,y,-z
3/4+y,1/4+x,1/4-z
1/4-y,1/4-x,1/4-z
-x,-y,-z
3/4+y,1/4-x,3/4-z
x,1/2+y,-z
3/4-y,3/4+x,1/4-z
-x,y,1/2+z
1/2+x,-y,z
1/4-y,3/4-x,3/4+z
3/4+y,3/4+x,3/4+z
1/2+x,1/2+y,1/2+z
3/4-y,1/4+x,3/4+z
1/2-x,-y,1/2+z
3/4+y,3/4-x,1/4+z
1/2+x,1/2-y,-z
-x,1/2+y,1/2-z
1/4+y,3/4+x,3/4-z
3/4-y,3/4-x,3/4-z
1/2-x,1/2-y,1/2-z
1/4+y,3/4-x,1/4-z
1/2+x,y,1/2-z
1/4-y,1/4+x,3/4-z
1/2-x,1/2+y,z
x,1/2-y,1/2+z
3/4-y,1/4-x,1/4+z
1/4+y,1/4+x,1/4+z
loop_
_atom_site_type_symbol
_atom_site_label
_atom_site_fract_x
_atom_site_fract_y
_atom_site_fract_z
Si Si1 0.750000 0.207379 0.000000
Si Si2 0.896142 0.375464 0.979048
Si Si3 0.086186 0.104494 0.366234
Si Si4 0.378373 0.940365 0.954735
O O1 0.848256 0.279827 0.004498
O O2 0.780730 0.131392 0.961792
O O3 0.838604 0.373891 0.932531
O O4 0.015685 0.378754 0.965751
O O5 0.876447 0.470997 0.009920
O O6 0.130534 0.214007 0.382262
O O7 0.114149 0.027809 0.404831
#
# Coordination Sequence:
#
# PCOD9573762 Si02
#       4
#    16  32  32  32
#     4  12  20  36  56  92 118 156 190 260 306 352
#     4  10  21  37  62  88 118 158 206 251 303 361
#     4   9  16  34  63  86 110 159 213 242 286 369
#     4  10  21  37  62  88 118 158 206 251 303 361
#
# _framework density 21.122312999999998
#
# number of rings (size 3 to 8) (size 9 to 14) (size 15 to 20)
#    0.000    2.000    2.857    1.714    0.000    0.000 
#    0.000    5.714    0.000    0.000    7.429    0.000 
#    0.000    0.000    0.000    0.000    0.000    0.000 
#
# Total GULP energy -311986.147894 kJ/mol
# GULP energy per Si atom -5571.181212 kJ/mol
# Density = 2.107424 g / cm^3
# Si number density = 21.122313 Si / 1000 Ang^3
#
#
#
# Elastic Constant Matrix: (Units=GPa)
#
#
# Indices 1 2 3 4 5 6 
#
# 1 49.1857 17.4124 43.5871 0.0000 0.0000 0.0000
# 2 17.4124 49.1857 43.5871 0.0000 0.0000 0.0000
# 3 43.5871 43.5871 169.5024 0.0000 0.0000 0.0000
# 4 0.0000 0.0000 0.0000 28.3835 0.0000 0.0000
# 5 0.0000 0.0000 0.0000 0.0000 28.3835 0.0000
# 6 0.0000 0.0000 0.0000 0.0000 0.0000 31.3519
#
#
#
# Elastic Compliance Matrix: (Units=1/GPa)
#
#
# Indices 1 2 3 4 5 6 
#
# 1 0.027053 -0.004420 -0.005820 0.000000 0.000000 0.000000
# 2 -0.004420 0.027053 -0.005820 0.000000 0.000000 0.000000
# 3 -0.005820 -0.005820 0.008893 0.000000 0.000000 0.000000
# 4 0.000000 0.000000 0.000000 0.035232 0.000000 0.000000
# 5 0.000000 0.000000 0.000000 0.000000 0.035232 0.000000
# 6 0.000000 0.000000 0.000000 0.000000 0.000000 0.031896
#
#
# Mechanical properties :
#
#
# Convention : Reuss Voigt Hill
#
# Bulk Modulus (GPa) = 32.38367 53.00520 42.69443
# Shear Modulus (GPa) = 24.06475 28.50958 26.28717
#
# Velocity S-wave (km/s) = 3.37902 3.67786 3.53160
# Velocity P-wave (km/s) = 5.53069 6.57149 6.07342
#
# Compressibility (1/GPa) = 0.03087977
#
# Stress axis : x y z
#
# Youngs Moduli (GPa) = 36.96384 36.96384 112.44870
#
# Poissons Ratio (x) = 0.16336 0.65448
# Poissons Ratio (y) = 0.16336 0.65448
# Poissons Ratio (z) = 0.21514 0.21514
#
# Static dielectric constant tensor:
#      x y z
#    x 1.810620 0.000000 0.000000 
#    y 0.000000 1.810620 0.000000 
#    z 0.000000 0.000000 1.786810 
# 
# From -- ./inp_files/11051.got.cif
#   From: 2010.05.17/outbox.cif.g08.bks.cpg/sg142_6_cif.got.tgz:11051.got - 2010.05.20 13:39:18.
