data_PCOD9573902
_publ_section_title
;
Structure prediction by ZEFSAII (Michael W. Deem and Ramdas Pophale) SiO2 
 PCOD9573902
Probable space group: I 41/A C D
;
_chemical_formula_sum "Si O2"
_cell_formula_units_Z 144
_cell_length_a 17.990516
_cell_length_b 17.990516
_cell_length_c 19.382881
_cell_angle_alpha 90.000000
_cell_angle_beta 90.000000
_cell_angle_gamma 90.000000
_cell_volume 6273.437407
_symmetry_space_group_name_H-M "I 41/A C D"
_symmetry_group_IT_number 142
_space_group.IT_coordinate_system_code '2'
_symmetry_cell_setting 'tetragonal'
loop_
_space_group_symop_operation_xyz
x,y,z
1/4-y,3/4+x,1/4+z
-x,1/2-y,z
1/4+y,1/4-x,3/4+z
x,-y,1/2-z
1/2-x,y,-z
3/4+y,1/4+x,1/4-z
1/4-y,1/4-x,1/4-z
-x,-y,-z
3/4+y,1/4-x,3/4-z
x,1/2+y,-z
3/4-y,3/4+x,1/4-z
-x,y,1/2+z
1/2+x,-y,z
1/4-y,3/4-x,3/4+z
3/4+y,3/4+x,3/4+z
1/2+x,1/2+y,1/2+z
3/4-y,1/4+x,3/4+z
1/2-x,-y,1/2+z
3/4+y,3/4-x,1/4+z
1/2+x,1/2-y,-z
-x,1/2+y,1/2-z
1/4+y,3/4+x,3/4-z
3/4-y,3/4-x,3/4-z
1/2-x,1/2-y,1/2-z
1/4+y,3/4-x,1/4-z
1/2+x,y,1/2-z
1/4-y,1/4+x,3/4-z
1/2-x,1/2+y,z
x,1/2-y,1/2+z
3/4-y,1/4-x,1/4+z
1/4+y,1/4+x,1/4+z
loop_
_atom_site_type_symbol
_atom_site_label
_atom_site_fract_x
_atom_site_fract_y
_atom_site_fract_z
Si Si1 0.009777 0.579615 0.275240
Si Si2 0.164635 0.498512 0.502707
Si Si3 0.434338 0.858295 0.476090
Si Si4 0.623045 0.650405 0.323769
Si Si5 0.641264 0.108737 0.875000
O O1 0.976108 0.500000 0.250000
O O2 0.067178 0.594099 0.212827
O O3 0.059797 0.588449 0.344094
O O4 0.952752 0.648151 0.275589
O O5 0.250000 0.473212 0.500000
O O6 0.105367 0.434233 0.494992
O O7 0.139433 0.547318 0.568688
O O8 0.156008 0.553499 0.437916
O O9 0.404365 0.835260 0.400430
O O10 0.522592 0.868136 0.469095
#
# Coordination Sequence:
#
# PCOD9573902 Si02
#       5
#    32  32  32  32  16
#     4  11  23  42  68  98 132 181 226 283 346 418
#     4  11  23  43  68 102 136 183 233 288 350 427
#     4  12  23  41  69 102 137 178 238 290 349 419
#     4  11  23  41  70  96 138 183 234 282 356 422
#     4  10  22  42  69  92 136 182 217 276 356 408
#
# _framework density 22.953921999999999
#
# number of rings (size 3 to 8) (size 9 to 14) (size 15 to 20)
#    0.000    0.889    2.222    7.333    0.000    0.000 
#    0.000    8.889    0.000    0.000    0.000    0.000 
#    0.000    0.000    0.000    0.000    0.000    0.000 
#
# Total GULP energy -402464.602916 kJ/mol
# GULP energy per Si atom -5589.786152 kJ/mol
# Density = 2.290168 g / cm^3
# Si number density = 22.953922 Si / 1000 Ang^3
#
#
#
# Elastic Constant Matrix: (Units=GPa)
#
#
# Indices 1 2 3 4 5 6 
#
# 1 40.5768 36.8408 -12.9456 0.0000 0.0000 0.0000
# 2 36.8408 40.5763 -12.9435 0.0000 0.0000 0.0000
# 3 -12.9456 -12.9435 41.5715 0.0000 0.0000 0.0000
# 4 0.0000 0.0000 0.0000 23.2675 0.0000 0.0000
# 5 0.0000 0.0000 0.0000 0.0000 23.2670 0.0000
# 6 0.0000 0.0000 0.0000 0.0000 0.0000 14.2100
#
#
#
# Elastic Compliance Matrix: (Units=1/GPa)
#
#
# Indices 1 2 3 4 5 6 
#
# 1 0.141051 -0.126631 0.004497 0.000000 0.000000 0.000000
# 2 -0.126631 0.141048 0.004482 0.000000 0.000000 0.000000
# 3 0.004497 0.004482 0.026851 0.000000 0.000000 0.000000
# 4 0.000000 0.000000 0.000000 0.042978 0.000000 0.000000
# 5 0.000000 0.000000 0.000000 0.000000 0.042979 0.000000
# 6 0.000000 0.000000 0.000000 0.000000 0.000000 0.070373
#
#
# Mechanical properties :
#
#
# Convention : Reuss Voigt Hill
#
# Bulk Modulus (GPa) = 13.57846 16.06977 14.82411
# Shear Modulus (GPa) = 6.89527 19.60043 13.24785
#
# Velocity S-wave (km/s) = 1.73507 2.92533 2.40500
# Velocity P-wave (km/s) = 3.15315 4.29257 3.76620
#
# Compressibility (1/GPa) = 0.07364608
#
# Stress axis : x y z
#
# Youngs Moduli (GPa) = 7.08961 7.08977 37.24267
#
# Poissons Ratio (x) = 0.89779 -0.16747
# Poissons Ratio (y) = 0.89777 -0.16694
# Poissons Ratio (z) = -0.03188 -0.03178
#
# Static dielectric constant tensor:
#      x y z
#    x 1.904540 0.000000 0.000000 
#    y 0.000000 1.904540 0.000000 
#    z 0.000000 0.000000 1.878980 
# 
# From -- ./inp_files/10102.got.cif
#   From: 2010.05.17/outbox.cif.g08.bks.cpg/sg142_6_cif.got.tgz:10102.got - 2010.05.20 13:39:18.
