data_PCOD9573802
_publ_section_title
;
Structure prediction by ZEFSAII (Michael W. Deem and Ramdas Pophale) SiO2 
 PCOD9573802
Probable space group: I 41/A C D
;
_chemical_formula_sum "Si O2"
_cell_formula_units_Z 160
_cell_length_a 15.321103
_cell_length_b 15.321103
_cell_length_c 35.097350
_cell_angle_alpha 90.000000
_cell_angle_beta 90.000000
_cell_angle_gamma 90.000000
_cell_volume 8238.618469
_symmetry_space_group_name_H-M "I 41/A C D"
_symmetry_group_IT_number 142
_space_group.IT_coordinate_system_code '2'
_symmetry_cell_setting 'tetragonal'
loop_
_space_group_symop_operation_xyz
x,y,z
1/4-y,3/4+x,1/4+z
-x,1/2-y,z
1/4+y,1/4-x,3/4+z
x,-y,1/2-z
1/2-x,y,-z
3/4+y,1/4+x,1/4-z
1/4-y,1/4-x,1/4-z
-x,-y,-z
3/4+y,1/4-x,3/4-z
x,1/2+y,-z
3/4-y,3/4+x,1/4-z
-x,y,1/2+z
1/2+x,-y,z
1/4-y,3/4-x,3/4+z
3/4+y,3/4+x,3/4+z
1/2+x,1/2+y,1/2+z
3/4-y,1/4+x,3/4+z
1/2-x,-y,1/2+z
3/4+y,3/4-x,1/4+z
1/2+x,1/2-y,-z
-x,1/2+y,1/2-z
1/4+y,3/4+x,3/4-z
3/4-y,3/4-x,3/4-z
1/2-x,1/2-y,1/2-z
1/4+y,3/4-x,1/4-z
1/2+x,y,1/2-z
1/4-y,1/4+x,3/4-z
1/2-x,1/2+y,z
x,1/2-y,1/2+z
3/4-y,1/4-x,1/4+z
1/4+y,1/4+x,1/4+z
loop_
_atom_site_type_symbol
_atom_site_label
_atom_site_fract_x
_atom_site_fract_y
_atom_site_fract_z
Si Si1 0.956585 0.561330 0.085228
Si Si2 0.614573 0.810517 0.582400
Si Si3 0.808866 0.291392 0.418506
Si Si4 0.426040 0.174516 0.031007
Si Si5 0.876934 0.311217 0.196296
O O1 0.879735 0.632193 0.084820
O O2 0.924001 0.468189 0.070438
O O3 0.994964 0.552176 0.127480
O O4 0.032027 0.600452 0.057896
O O5 0.592473 0.842473 0.625000
O O6 0.713887 0.828242 0.571767
O O7 0.605312 0.793290 0.694755
O O8 0.600244 0.706347 0.578484
O O9 0.844850 0.221123 0.448628
O O10 0.500000 0.250000 0.027026
O O11 0.406714 0.137975 0.989312
#
# Coordination Sequence:
#
# PCOD9573802 Si02
#       5
#    32  32  32  32  32
#     4  11  22  40  66  97 126 168 218 266 326 389
#     4  11  23  42  65  92 124 170 217 262 324 391
#     4  11  23  40  66  97 130 166 220 272 324 391
#     4  10  21  40  66  91 129 170 210 263 329 392
#     4  11  22  43  67  90 127 175 213 263 331 393
#
# _framework density 19.420732000000001
#
# number of rings (size 3 to 8) (size 9 to 14) (size 15 to 20)
#    0.000    1.200    6.000    1.800    0.000    0.800 
#    7.200    0.000    4.400    0.000    0.000    0.000 
#    0.000    0.000    0.000    0.000    0.000    0.000 
#
# Total GULP energy -447109.675671 kJ/mol
# GULP energy per Si atom -5588.870946 kJ/mol
# Density = 1.937653 g / cm^3
# Si number density = 19.420732 Si / 1000 Ang^3
#
#
#
# Elastic Constant Matrix: (Units=GPa)
#
#
# Indices 1 2 3 4 5 6 
#
# 1 78.3185 -7.5282 26.5921 0.0000 0.0000 0.0000
# 2 -7.5282 78.3185 26.5921 0.0000 0.0000 0.0000
# 3 26.5921 26.5921 113.5887 0.0000 0.0000 0.0000
# 4 0.0000 0.0000 0.0000 12.6293 0.0000 0.0000
# 5 0.0000 0.0000 0.0000 0.0000 12.6293 0.0000
# 6 0.0000 0.0000 0.0000 0.0000 0.0000 9.9417
#
#
#
# Elastic Compliance Matrix: (Units=1/GPa)
#
#
# Indices 1 2 3 4 5 6 
#
# 1 0.014395 0.002746 -0.004013 0.000000 0.000000 0.000000
# 2 0.002746 0.014395 -0.004013 0.000000 0.000000 0.000000
# 3 -0.004013 -0.004013 0.010683 0.000000 0.000000 0.000000
# 4 0.000000 0.000000 0.000000 0.079181 0.000000 0.000000
# 5 0.000000 0.000000 0.000000 0.000000 0.079181 0.000000
# 6 0.000000 0.000000 0.000000 0.000000 0.000000 0.100586
#
#
# Mechanical properties :
#
#
# Convention : Reuss Voigt Hill
#
# Bulk Modulus (GPa) = 34.58625 40.17086 37.37855
# Shear Modulus (GPa) = 15.69282 22.01139 18.85210
#
# Velocity S-wave (km/s) = 2.84570 3.37025 3.11902
# Velocity P-wave (km/s) = 5.35209 5.98951 5.67975
#
# Compressibility (1/GPa) = 0.02891323
#
# Stress axis : x y z
#
# Youngs Moduli (GPa) = 69.46922 69.46922 93.61021
#
# Poissons Ratio (x) = -0.19078 0.37565
# Poissons Ratio (y) = -0.19078 0.37565
# Poissons Ratio (z) = 0.27877 0.27877
#
# Static dielectric constant tensor:
#      x y z
#    x 1.668970 0.000000 0.000000 
#    y 0.000000 1.668970 0.000000 
#    z 0.000000 0.000000 1.675040 
# 
# From -- ./inp_files/12418.got.cif
#   From: 2010.05.17/outbox.cif.g08.bks.cpg/sg142_7_cif.got.tgz:12418.got - 2010.05.20 13:39:18.
