data_PCOD9573957
_publ_section_title
;
Structure prediction by ZEFSAII (Michael W. Deem and Ramdas Pophale) SiO2 
 PCOD9573957
Probable space group: I 41/A C D
;
_chemical_formula_sum "Si O2"
_cell_formula_units_Z 120
_cell_length_a 14.204769
_cell_length_b 14.204769
_cell_length_c 31.348919
_cell_angle_alpha 90.000000
_cell_angle_beta 90.000000
_cell_angle_gamma 90.000000
_cell_volume 6325.442625
_symmetry_space_group_name_H-M "I 41/A C D"
_symmetry_group_IT_number 142
_space_group.IT_coordinate_system_code '2'
_symmetry_cell_setting 'tetragonal'
loop_
_space_group_symop_operation_xyz
x,y,z
1/4-y,3/4+x,1/4+z
-x,1/2-y,z
1/4+y,1/4-x,3/4+z
x,-y,1/2-z
1/2-x,y,-z
3/4+y,1/4+x,1/4-z
1/4-y,1/4-x,1/4-z
-x,-y,-z
3/4+y,1/4-x,3/4-z
x,1/2+y,-z
3/4-y,3/4+x,1/4-z
-x,y,1/2+z
1/2+x,-y,z
1/4-y,3/4-x,3/4+z
3/4+y,3/4+x,3/4+z
1/2+x,1/2+y,1/2+z
3/4-y,1/4+x,3/4+z
1/2-x,-y,1/2+z
3/4+y,3/4-x,1/4+z
1/2+x,1/2-y,-z
-x,1/2+y,1/2-z
1/4+y,3/4+x,3/4-z
3/4-y,3/4-x,3/4-z
1/2-x,1/2-y,1/2-z
1/4+y,3/4-x,1/4-z
1/2+x,y,1/2-z
1/4-y,1/4+x,3/4-z
1/2-x,1/2+y,z
x,1/2-y,1/2+z
3/4-y,1/4-x,1/4+z
1/4+y,1/4+x,1/4+z
loop_
_atom_site_type_symbol
_atom_site_label
_atom_site_fract_x
_atom_site_fract_y
_atom_site_fract_z
Si Si1 0.349874 0.400061 0.162605
Si Si2 0.147213 0.602788 0.875000
Si Si3 0.141497 0.108504 0.625000
Si Si4 0.500000 0.250000 0.625000
Si Si5 0.517056 0.651669 0.694152
Si Si6 0.104393 0.000000 0.250000
O O1 0.373637 0.494540 0.135410
O O2 0.245304 0.377134 0.145320
O O3 0.427609 0.318559 0.152222
O O4 0.344956 0.440184 0.211754
O O5 0.110804 0.660316 0.834608
O O6 0.125238 0.184989 0.588260
O O7 0.500000 0.750000 0.716129
O O8 0.536857 0.571808 0.726810
#
# Coordination Sequence:
#
# PCOD9573957 Si02
#       6
#    32  16  16   8  32  16
#     4  10  23  39  64  89 133 161 209 262 322 379
#     4   9  17  38  62  90 113 167 212 250 296 386
#     4  11  21  42  70  94 115 177 222 254 310 396
#     4  12  24  40  64  96 128 174 212 264 316 392
#     4  11  20  37  68  89 119 163 214 256 304 382
#     4  10  24  40  56  94 134 158 200 270 328 368
#
# _framework density 18.971005999999999
#
# number of rings (size 3 to 8) (size 9 to 14) (size 15 to 20)
#    0.000    1.600    2.667    3.200    1.867    1.067 
#    0.000    4.000    0.000    0.000    0.000    0.000 
#    0.000    0.000    0.000    0.000    0.000    0.000 
#
# Total GULP energy -334003.442789 kJ/mol
# GULP energy per Si atom -5566.724046 kJ/mol
# Density = 1.892783 g / cm^3
# Si number density = 18.971006 Si / 1000 Ang^3
#
#
#
# Elastic Constant Matrix: (Units=GPa)
#
#
# Indices 1 2 3 4 5 6 
#
# 1 -38.5600 182.6539 49.7044 0.0000 0.0000 0.0000
# 2 182.6539 -38.5501 49.6900 0.0000 0.0000 0.0000
# 3 49.7044 49.6900 99.9570 0.0000 0.0000 0.0000
# 4 0.0000 0.0000 0.0000 7.1595 0.0000 0.0000
# 5 0.0000 0.0000 0.0000 0.0000 7.1601 0.0000
# 6 0.0000 0.0000 0.0000 0.0000 0.0000 31.1605
#
#
#
# Elastic Compliance Matrix: (Units=1/GPa)
#
#
# Indices 1 2 3 4 5 6 
#
# 1 0.003020 0.007541 -0.005251 0.000000 0.000000 0.000000
# 2 0.007541 0.003021 -0.005252 0.000000 0.000000 0.000000
# 3 -0.005251 -0.005252 0.015226 0.000000 0.000000 0.000000
# 4 0.000000 0.000000 0.000000 0.139675 0.000000 0.000000
# 5 0.000000 0.000000 0.000000 0.000000 0.139663 0.000000
# 6 0.000000 0.000000 0.000000 0.000000 0.000000 0.032092
#
#
# Mechanical properties :
#
#
# Convention : Reuss Voigt Hill
#
# Bulk Modulus (GPa) = 65.16872 65.21595 65.19234
# Shear Modulus (GPa) = 14.54613 -8.18408 3.18102
#
# Velocity S-wave (km/s) = 2.77204 -2.07927 1.29631
# Velocity P-wave (km/s) = 6.68371 5.35601 6.05635
#
# Compressibility (1/GPa) = 0.01534478
#
# Stress axis : x y z
#
# Youngs Moduli (GPa) = 331.12750 331.00073 65.67758
#
# Poissons Ratio (x) = -2.49613 0.34484
# Poissons Ratio (y) = -2.49709 0.34492
# Poissons Ratio (z) = 1.73860 1.73834
#
# Static dielectric constant tensor:
#      x y z
#    x 1.767450 0.000000 0.000000 
#    y 0.000000 1.767440 0.000000 
#    z 0.000000 0.000000 1.656960 
# 
# From -- ./inp_files/12313.got.cif
#   From: 2010.05.17/outbox.cif.g08.bks.cpg/sg142_7_cif.got.tgz:12313.got - 2010.05.20 13:39:18.
