data_PCOD9573193
_publ_section_title
;
Structure prediction by ZEFSAII (Michael W. Deem and Ramdas Pophale) SiO2 
 PCOD9573193
Probable space group: I 41/A M D
;
_chemical_formula_sum "Si O2"
_cell_formula_units_Z 116
_cell_length_a 27.422972
_cell_length_b 27.422972
_cell_length_c 7.989001
_cell_angle_alpha 90.000000
_cell_angle_beta 90.000000
_cell_angle_gamma 90.000000
_cell_volume 6007.883685
_symmetry_space_group_name_H-M "I 41/A M D"
_symmetry_group_IT_number 141
_space_group.IT_coordinate_system_code '2'
_symmetry_cell_setting 'tetragonal'
loop_
_space_group_symop_operation_xyz
x,y,z
1/4-y,3/4+x,1/4+z
-x,1/2-y,z
1/4+y,1/4-x,3/4+z
x,-y,-z
-x,1/2+y,-z
1/4+y,3/4+x,1/4-z
1/4-y,1/4-x,3/4-z
-x,-y,-z
3/4+y,1/4-x,3/4-z
x,1/2+y,-z
3/4-y,3/4+x,1/4-z
-x,y,z
x,1/2-y,z
3/4-y,1/4-x,3/4+z
3/4+y,3/4+x,1/4+z
1/2+x,1/2+y,1/2+z
3/4-y,1/4+x,3/4+z
1/2-x,-y,1/2+z
3/4+y,3/4-x,1/4+z
1/2+x,1/2-y,1/2-z
1/2-x,y,1/2-z
3/4+y,1/4+x,3/4-z
3/4-y,3/4-x,1/4-z
1/2-x,1/2-y,1/2-z
1/4+y,3/4-x,1/4-z
1/2+x,y,1/2-z
1/4-y,1/4+x,3/4-z
1/2-x,1/2+y,1/2+z
1/2+x,-y,1/2+z
1/4-y,3/4-x,1/4+z
1/4+y,1/4+x,3/4+z
loop_
_atom_site_type_symbol
_atom_site_label
_atom_site_fract_x
_atom_site_fract_y
_atom_site_fract_z
Si Si1 0.500000 0.250000 0.625000
Si Si2 0.000000 0.139423 0.861892
Si Si3 0.902211 0.400565 0.726861
Si Si4 0.847218 0.902783 0.625000
Si Si5 0.087909 0.988203 0.687035
Si Si6 0.500000 0.049164 0.389188
O O1 0.443624 0.250000 0.690646
O O2 0.047359 0.128381 0.749359
O O3 0.000000 0.097875 0.003203
O O4 0.879581 0.393475 0.541801
O O5 0.908707 0.458142 0.763288
O O6 0.868516 0.381484 0.875000
O O7 0.791914 0.888249 0.576279
O O8 0.048522 0.954936 0.778459
O O9 0.070208 0.000000 0.500000
O O10 0.500000 0.000000 0.500000
#
# Coordination Sequence:
#
# PCOD9573193 Si02
#       6
#     4  16  32  16  32  16
#     4  12  28  44  56  98 152 180 226 284 352 434
#     4  12  24  40  65  99 131 174 229 277 339 408
#     4  11  22  41  66  94 128 175 221 273 327 400
#     4  10  24  38  64  93 133 166 204 274 351 400
#     4  10  22  40  62  97 130 164 221 287 338 399
#     4  12  21  36  71 102 120 167 236 292 338 393
#
# _framework density 19.307964999999999
#
# number of rings (size 3 to 8) (size 9 to 14) (size 15 to 20)
#    0.000    1.103    4.138    2.069    0.000    3.310 
#    0.000    2.759   27.310    0.000    0.000    0.000 
#    0.000    0.000    0.000    0.000    0.000    0.000 
#
# Total GULP energy -323371.249999 kJ/mol
# GULP energy per Si atom -5575.366379 kJ/mol
# Density = 1.926402 g / cm^3
# Si number density = 19.307965 Si / 1000 Ang^3
#
#
#
# Elastic Constant Matrix: (Units=GPa)
#
#
# Indices 1 2 3 4 5 6 
#
# 1 118.5573 23.6326 28.8567 0.0000 0.0000 0.0000
# 2 23.6326 118.5580 28.8552 0.0000 0.0000 0.0000
# 3 28.8567 28.8552 73.1311 0.0000 0.0000 0.0000
# 4 0.0000 0.0000 0.0000 19.6319 0.0000 0.0000
# 5 0.0000 0.0000 0.0000 0.0000 19.6305 0.0000
# 6 0.0000 0.0000 0.0000 0.0000 0.0000 30.5369
#
#
#
# Elastic Compliance Matrix: (Units=1/GPa)
#
#
# Indices 1 2 3 4 5 6 
#
# 1 0.009454 -0.001080 -0.003304 0.000000 0.000000 0.000000
# 2 -0.001080 0.009454 -0.003304 0.000000 0.000000 0.000000
# 3 -0.003304 -0.003304 0.016282 0.000000 0.000000 0.000000
# 4 0.000000 0.000000 0.000000 0.050938 0.000000 0.000000
# 5 0.000000 0.000000 0.000000 0.000000 0.050941 0.000000
# 6 0.000000 0.000000 0.000000 0.000000 0.000000 0.032747
#
#
# Mechanical properties :
#
#
# Convention : Reuss Voigt Hill
#
# Bulk Modulus (GPa) = 50.47256 52.54839 51.51047
# Shear Modulus (GPa) = 26.06912 29.21998 27.64455
#
# Velocity S-wave (km/s) = 3.67846 3.89442 3.78798
# Velocity P-wave (km/s) = 6.65124 6.89181 6.77259
#
# Compressibility (1/GPa) = 0.01981275
#
# Stress axis : x y z
#
# Youngs Moduli (GPa) = 105.77129 105.77327 61.41912
#
# Poissons Ratio (x) = 0.11427 0.20295
# Poissons Ratio (y) = 0.11427 0.20293
# Poissons Ratio (z) = 0.34950 0.34948
#
# Static dielectric constant tensor:
#      x y z
#    x 1.729010 0.000000 0.000000 
#    y 0.000000 1.729010 0.000000 
#    z 0.000000 0.000000 1.683390 
# 
# From -- ./inp_files/2810.got.cif
#   From: 2010.05.17/outbox.cif.g08.bks.cpg/sg141_2_cif.got.tgz:2810.got - 2010.05.20 13:30:51.
