data_PCOD9573431
_publ_section_title
;
Structure prediction by ZEFSAII (Michael W. Deem and Ramdas Pophale) SiO2 
 PCOD9573431
Probable space group: I 41/A C D
;
_chemical_formula_sum "Si O2"
_cell_formula_units_Z 112
_cell_length_a 15.344032
_cell_length_b 15.344032
_cell_length_c 16.767606
_cell_angle_alpha 90.000000
_cell_angle_beta 90.000000
_cell_angle_gamma 90.000000
_cell_volume 3947.753721
_symmetry_space_group_name_H-M "I 41/A C D"
_symmetry_group_IT_number 142
_space_group.IT_coordinate_system_code '2'
_symmetry_cell_setting 'tetragonal'
loop_
_space_group_symop_operation_xyz
x,y,z
1/4-y,3/4+x,1/4+z
-x,1/2-y,z
1/4+y,1/4-x,3/4+z
x,-y,1/2-z
1/2-x,y,-z
3/4+y,1/4+x,1/4-z
1/4-y,1/4-x,1/4-z
-x,-y,-z
3/4+y,1/4-x,3/4-z
x,1/2+y,-z
3/4-y,3/4+x,1/4-z
-x,y,1/2+z
1/2+x,-y,z
1/4-y,3/4-x,3/4+z
3/4+y,3/4+x,3/4+z
1/2+x,1/2+y,1/2+z
3/4-y,1/4+x,3/4+z
1/2-x,-y,1/2+z
3/4+y,3/4-x,1/4+z
1/2+x,1/2-y,-z
-x,1/2+y,1/2-z
1/4+y,3/4+x,3/4-z
3/4-y,3/4-x,3/4-z
1/2-x,1/2-y,1/2-z
1/4+y,3/4-x,1/4-z
1/2+x,y,1/2-z
1/4-y,1/4+x,3/4-z
1/2-x,1/2+y,z
x,1/2-y,1/2+z
3/4-y,1/4-x,1/4+z
1/4+y,1/4+x,1/4+z
loop_
_atom_site_type_symbol
_atom_site_label
_atom_site_fract_x
_atom_site_fract_y
_atom_site_fract_z
Si Si1 0.845481 0.543005 0.459310
Si Si2 0.112069 0.637932 0.375000
Si Si3 0.971207 0.343675 0.266604
Si Si4 0.703452 0.643366 0.913544
O O1 0.750000 0.545808 0.500000
O O2 0.842151 0.592151 0.375000
O O3 0.899133 0.616901 0.508649
O O4 0.855142 0.443190 0.426763
O O5 0.031131 0.645242 0.314181
O O6 0.109531 0.534251 0.399578
O O7 0.013837 0.408298 0.330450
O O8 0.000000 0.250000 0.291775
O O9 0.750000 0.640885 0.000000
#
# Coordination Sequence:
#
# PCOD9573431 Si02
#       4
#    32  16  32  32
#     4  11  22  41  71 104 137 187 246 298 363 436
#     4  10  17  38  64  92 125 182 234 284 346 432
#     4  11  23  38  65 103 139 181 237 301 366 440
#     4   9  20  37  64  94 127 182 235 284 351 424
#
# _framework density 28.370563000000001
#
# number of rings (size 3 to 8) (size 9 to 14) (size 15 to 20)
#    0.000    1.714    1.429    4.714    0.000    1.143 
#    0.000    2.857    0.000    0.000    0.000    0.000 
#    0.000    0.000    0.000    0.000    0.000    0.000 
#
# Total GULP energy -312133.040004 kJ/mol
# GULP energy per Si atom -5573.804286 kJ/mol
# Density = 2.830599 g / cm^3
# Si number density = 28.370563 Si / 1000 Ang^3
#
#
#
# Elastic Constant Matrix: (Units=GPa)
#
#
# Indices 1 2 3 4 5 6 
#
# 1 166.0882 61.9860 35.9761 0.0000 0.0000 0.0000
# 2 61.9860 166.0874 35.9774 0.0000 0.0000 0.0000
# 3 35.9761 35.9774 52.0094 0.0000 0.0000 0.0000
# 4 0.0000 0.0000 0.0000 38.2083 0.0000 0.0000
# 5 0.0000 0.0000 0.0000 0.0000 38.2081 0.0000
# 6 0.0000 0.0000 0.0000 0.0000 0.0000 28.5088
#
#
#
# Elastic Compliance Matrix: (Units=1/GPa)
#
#
# Indices 1 2 3 4 5 6 
#
# 1 0.007607 -0.001999 -0.003879 0.000000 0.000000 0.000000
# 2 -0.001999 0.007607 -0.003880 0.000000 0.000000 0.000000
# 3 -0.003879 -0.003880 0.024595 0.000000 0.000000 0.000000
# 4 0.000000 0.000000 0.000000 0.026172 0.000000 0.000000
# 5 0.000000 0.000000 0.000000 0.000000 0.026172 0.000000
# 6 0.000000 0.000000 0.000000 0.000000 0.000000 0.035077
#
#
# Mechanical properties :
#
#
# Convention : Reuss Voigt Hill
#
# Bulk Modulus (GPa) = 49.27757 72.45156 60.86457
# Shear Modulus (GPa) = 32.57096 37.66808 35.11952
#
# Velocity S-wave (km/s) = 3.39197 3.64774 3.52218
# Velocity P-wave (km/s) = 5.72255 6.58288 6.16774
#
# Compressibility (1/GPa) = 0.02029321
#
# Stress axis : x y z
#
# Youngs Moduli (GPa) = 131.45495 131.45256 40.65935
#
# Poissons Ratio (x) = 0.26274 0.15773
# Poissons Ratio (y) = 0.26275 0.15775
# Poissons Ratio (z) = 0.50997 0.51000
#
# Static dielectric constant tensor:
#      x y z
#    x 2.553120 0.000000 0.000000 
#    y 0.000000 2.553100 0.000000 
#    z 0.000000 0.000000 2.856360 
# 
# From -- ./inp_files/11045.got.cif
#   From: 2010.05.17/outbox.cif.g08.bks.cpg/sg142_6_cif.got.tgz:11045.got - 2010.05.20 13:39:18.
