data_PCOD9573810
_publ_section_title
;
Structure prediction by ZEFSAII (Michael W. Deem and Ramdas Pophale) SiO2 
 PCOD9573810
Probable space group: I 41/A C D
;
_chemical_formula_sum "Si O2"
_cell_formula_units_Z 176
_cell_length_a 24.230528
_cell_length_b 24.230528
_cell_length_c 13.205667
_cell_angle_alpha 90.000000
_cell_angle_beta 90.000000
_cell_angle_gamma 90.000000
_cell_volume 7753.291231
_symmetry_space_group_name_H-M "I 41/A C D"
_symmetry_group_IT_number 142
_space_group.IT_coordinate_system_code '2'
_symmetry_cell_setting 'tetragonal'
loop_
_space_group_symop_operation_xyz
x,y,z
1/4-y,3/4+x,1/4+z
-x,1/2-y,z
1/4+y,1/4-x,3/4+z
x,-y,1/2-z
1/2-x,y,-z
3/4+y,1/4+x,1/4-z
1/4-y,1/4-x,1/4-z
-x,-y,-z
3/4+y,1/4-x,3/4-z
x,1/2+y,-z
3/4-y,3/4+x,1/4-z
-x,y,1/2+z
1/2+x,-y,z
1/4-y,3/4-x,3/4+z
3/4+y,3/4+x,3/4+z
1/2+x,1/2+y,1/2+z
3/4-y,1/4+x,3/4+z
1/2-x,-y,1/2+z
3/4+y,3/4-x,1/4+z
1/2+x,1/2-y,-z
-x,1/2+y,1/2-z
1/4+y,3/4+x,3/4-z
3/4-y,3/4-x,3/4-z
1/2-x,1/2-y,1/2-z
1/4+y,3/4-x,1/4-z
1/2+x,y,1/2-z
1/4-y,1/4+x,3/4-z
1/2-x,1/2+y,z
x,1/2-y,1/2+z
3/4-y,1/4-x,1/4+z
1/4+y,1/4+x,1/4+z
loop_
_atom_site_type_symbol
_atom_site_label
_atom_site_fract_x
_atom_site_fract_y
_atom_site_fract_z
Si Si1 0.471319 0.615563 0.738963
Si Si2 0.079833 0.680564 0.756834
Si Si3 0.750000 0.231414 0.500000
Si Si4 0.273889 0.856725 0.345292
Si Si5 0.048346 0.371580 0.997367
Si Si6 0.843689 0.926265 0.994198
O O1 0.527346 0.645182 0.775271
O O2 0.480397 0.552484 0.770187
O O3 0.461882 0.617051 0.617220
O O4 0.419937 0.651369 0.775545
O O5 0.065049 0.684952 0.875000
O O6 0.091401 0.741477 0.718669
O O7 0.135008 0.645053 0.746325
O O8 0.762762 0.187610 0.590588
O O9 0.321717 0.818052 0.301371
O O10 0.239302 0.885217 0.255053
O O11 0.300256 0.902117 0.423663
O O12 0.826338 0.923663 0.875000
#
# Coordination Sequence:
#
# PCOD9573810 Si02
#       6
#    32  32  16  32  32  32
#     4  10  21  41  64  96 143 180 216 279 349 413
#     4   9  17  37  66  96 134 177 217 267 335 413
#     4  12  22  42  70  94 132 186 234 282 344 422
#     4  12  24  41  71 102 130 182 239 291 345 416
#     4  10  23  38  64 102 139 178 222 275 353 424
#     4  11  21  42  69  96 132 177 238 293 346 415
#
# _framework density 22.700037999999999
#
# number of rings (size 3 to 8) (size 9 to 14) (size 15 to 20)
#    0.000    1.455    3.636    2.727    0.000    8.000 
#    0.000    0.000   20.000    0.000    0.000    0.000 
#    0.000    0.000    0.000    0.000    0.000    0.000 
#
# Total GULP energy -491349.610382 kJ/mol
# GULP energy per Si atom -5583.518300 kJ/mol
# Density = 2.264837 g / cm^3
# Si number density = 22.700038 Si / 1000 Ang^3
#
#
#
# Elastic Constant Matrix: (Units=GPa)
#
#
# Indices 1 2 3 4 5 6 
#
# 1 104.2603 57.0194 27.9346 0.0000 0.0000 0.0000
# 2 57.0194 104.2604 27.9340 0.0000 0.0000 0.0000
# 3 27.9346 27.9340 83.7722 0.0000 0.0000 0.0000
# 4 0.0000 0.0000 0.0000 12.6812 0.0000 0.0000
# 5 0.0000 0.0000 0.0000 0.0000 12.6872 0.0000
# 6 0.0000 0.0000 0.0000 0.0000 0.0000 20.6845
#
#
#
# Elastic Compliance Matrix: (Units=1/GPa)
#
#
# Indices 1 2 3 4 5 6 
#
# 1 0.014089 -0.007079 -0.002338 0.000000 0.000000 0.000000
# 2 -0.007079 0.014089 -0.002337 0.000000 0.000000 0.000000
# 3 -0.002338 -0.002337 0.013496 0.000000 0.000000 0.000000
# 4 0.000000 0.000000 0.000000 0.078857 0.000000 0.000000
# 5 0.000000 0.000000 0.000000 0.000000 0.078819 0.000000
# 6 0.000000 0.000000 0.000000 0.000000 0.000000 0.048345
#
#
# Mechanical properties :
#
#
# Convention : Reuss Voigt Hill
#
# Bulk Modulus (GPa) = 55.04755 57.56319 56.30537
# Shear Modulus (GPa) = 18.03364 21.17091 19.60227
#
# Velocity S-wave (km/s) = 2.82162 3.05722 2.94178
# Velocity P-wave (km/s) = 5.90915 6.15430 6.03297
#
# Compressibility (1/GPa) = 0.01816611
#
# Stress axis : x y z
#
# Youngs Moduli (GPa) = 70.97657 70.97699 74.09552
#
# Poissons Ratio (x) = 0.50244 0.17321
# Poissons Ratio (y) = 0.50244 0.17320
# Poissons Ratio (z) = 0.16592 0.16591
#
# Static dielectric constant tensor:
#      x y z
#    x 1.843660 0.000000 0.000000 
#    y 0.000000 1.843670 0.000000 
#    z 0.000000 0.000000 1.956830 
# 
# From -- ./inp_files/5586.got.cif
#   From: 2010.05.17/outbox.cif.g08.bks.cpg/sg142_3_cif.got.tgz:5586.got - 2010.05.20 13:39:18.
