data_PCOD9573590
_publ_section_title
;
Structure prediction by ZEFSAII (Michael W. Deem and Ramdas Pophale) SiO2 
 PCOD9573590
Probable space group: I 41/A C D
;
_chemical_formula_sum "Si O2"
_cell_formula_units_Z 240
_cell_length_a 26.225275
_cell_length_b 26.225275
_cell_length_c 17.956917
_cell_angle_alpha 90.000000
_cell_angle_beta 90.000000
_cell_angle_gamma 90.000000
_cell_volume 12350.139897
_symmetry_space_group_name_H-M "I 41/A C D"
_symmetry_group_IT_number 142
_space_group.IT_coordinate_system_code '2'
_symmetry_cell_setting 'tetragonal'
loop_
_space_group_symop_operation_xyz
x,y,z
1/4-y,3/4+x,1/4+z
-x,1/2-y,z
1/4+y,1/4-x,3/4+z
x,-y,1/2-z
1/2-x,y,-z
3/4+y,1/4+x,1/4-z
1/4-y,1/4-x,1/4-z
-x,-y,-z
3/4+y,1/4-x,3/4-z
x,1/2+y,-z
3/4-y,3/4+x,1/4-z
-x,y,1/2+z
1/2+x,-y,z
1/4-y,3/4-x,3/4+z
3/4+y,3/4+x,3/4+z
1/2+x,1/2+y,1/2+z
3/4-y,1/4+x,3/4+z
1/2-x,-y,1/2+z
3/4+y,3/4-x,1/4+z
1/2+x,1/2-y,-z
-x,1/2+y,1/2-z
1/4+y,3/4+x,3/4-z
3/4-y,3/4-x,3/4-z
1/2-x,1/2-y,1/2-z
1/4+y,3/4-x,1/4-z
1/2+x,y,1/2-z
1/4-y,1/4+x,3/4-z
1/2-x,1/2+y,z
x,1/2-y,1/2+z
3/4-y,1/4-x,1/4+z
1/4+y,1/4+x,1/4+z
loop_
_atom_site_type_symbol
_atom_site_label
_atom_site_fract_x
_atom_site_fract_y
_atom_site_fract_z
Si Si1 0.615333 0.788593 0.092144
Si Si2 0.125077 0.375584 0.232639
Si Si3 0.196034 0.217499 0.959249
Si Si4 0.571897 0.038405 0.052327
Si Si5 0.938871 0.688871 0.875000
Si Si6 0.271832 0.905674 0.081339
Si Si7 0.680742 0.328187 0.614398
Si Si8 0.463002 0.067240 0.981882
O O1 0.589698 0.839698 0.125000
O O2 0.572628 0.744435 0.092430
O O3 0.652103 0.773314 0.159170
O O4 0.648996 0.789380 0.016914
O O5 0.183282 0.363538 0.252805
O O6 0.098894 0.328970 0.191168
O O7 0.121350 0.427731 0.185508
O O8 0.098893 0.387118 0.310835
O O9 0.193096 0.180693 0.887417
O O10 0.197946 0.275041 0.924898
O O11 0.250000 0.208873 0.000000
O O12 0.573268 0.978086 0.046634
O O13 0.517006 0.050581 0.016107
O O14 0.295606 0.954395 0.125000
O O15 0.227571 0.869152 0.115349
O O16 0.250000 0.921010 0.000000
O O17 0.660268 0.316019 0.696640
#
# Coordination Sequence:
#
# PCOD9573590 Si02
#       8
#    32  32  32  32  16  32  32  32
#     4  12  26  42  61  88 131 174 212 262 319 394
#     4  11  20  34  61  90 122 155 202 265 312 370
#     4  11  21  39  62  89 121 156 215 266 317 369
#     4  10  21  35  60  88 117 152 198 262 316 363
#     4  12  23  40  62  90 124 168 214 258 322 376
#     4  10  20  34  58  95 126 159 199 260 322 383
#     4  10  22  35  62  94 123 157 203 261 317 376
#     4  10  21  38  57  88 120 155 199 254 317 372
#
# _framework density 19.432977999999999
#
# number of rings (size 3 to 8) (size 9 to 14) (size 15 to 20)
#    0.000    1.333    4.667    2.200    1.867    0.000 
#    0.000    0.000    0.000   10.400    0.000    0.000 
#    0.000    0.000    0.000    0.000    0.000    0.000 
#
# Total GULP energy -668598.089305 kJ/mol
# GULP energy per Si atom -5571.650744 kJ/mol
# Density = 1.938875 g / cm^3
# Si number density = 19.432978 Si / 1000 Ang^3
#
#
#
# Elastic Constant Matrix: (Units=GPa)
#
#
# Indices 1 2 3 4 5 6 
#
# 1 32.4577 1.4989 8.7051 0.0000 0.0000 0.0000
# 2 1.4989 32.4575 8.7047 0.0000 0.0000 0.0000
# 3 8.7051 8.7047 98.3702 0.0000 0.0000 0.0000
# 4 0.0000 0.0000 0.0000 21.0084 0.0000 0.0000
# 5 0.0000 0.0000 0.0000 0.0000 21.0091 0.0000
# 6 0.0000 0.0000 0.0000 0.0000 0.0000 31.6857
#
#
#
# Elastic Compliance Matrix: (Units=1/GPa)
#
#
# Indices 1 2 3 4 5 6 
#
# 1 0.031575 -0.000726 -0.002730 0.000000 0.000000 0.000000
# 2 -0.000726 0.031575 -0.002730 0.000000 0.000000 0.000000
# 3 -0.002730 -0.002730 0.010649 0.000000 0.000000 0.000000
# 4 0.000000 0.000000 0.000000 0.047600 0.000000 0.000000
# 5 0.000000 0.000000 0.000000 0.000000 0.047599 0.000000
# 6 0.000000 0.000000 0.000000 0.000000 0.000000 0.031560
#
#
# Mechanical properties :
#
#
# Convention : Reuss Voigt Hill
#
# Bulk Modulus (GPa) = 16.27934 22.34474 19.31204
# Shear Modulus (GPa) = 21.42201 24.36575 22.89388
#
# Velocity S-wave (km/s) = 3.32377 3.54479 3.43606
# Velocity P-wave (km/s) = 4.80888 5.31765 5.06965
#
# Compressibility (1/GPa) = 0.06142754
#
# Stress axis : x y z
#
# Youngs Moduli (GPa) = 31.67058 31.67050 93.90708
#
# Poissons Ratio (x) = 0.02299 0.25636
# Poissons Ratio (y) = 0.02299 0.25635
# Poissons Ratio (z) = 0.08646 0.08645
#
# Static dielectric constant tensor:
#      x y z
#    x 1.729870 0.000000 0.000000 
#    y 0.000000 1.729870 0.000000 
#    z 0.000000 0.000000 1.766710 
# 
# From -- ./inp_files/7828.got.cif
#   From: 2010.05.17/outbox.cif.g08.bks.cpg/sg142_4_cif.got.tgz:7828.got - 2010.05.20 13:39:18.
