data_PCOD9573695
_publ_section_title
;
Structure prediction by ZEFSAII (Michael W. Deem and Ramdas Pophale) SiO2 
 PCOD9573695
Probable space group: I 41/A C D
;
_chemical_formula_sum "Si O2"
_cell_formula_units_Z 192
_cell_length_a 19.061927
_cell_length_b 19.061927
_cell_length_c 30.114107
_cell_angle_alpha 90.000000
_cell_angle_beta 90.000000
_cell_angle_gamma 90.000000
_cell_volume 10942.173413
_symmetry_space_group_name_H-M "I 41/A C D"
_symmetry_group_IT_number 142
_space_group.IT_coordinate_system_code '2'
_symmetry_cell_setting 'tetragonal'
loop_
_space_group_symop_operation_xyz
x,y,z
1/4-y,3/4+x,1/4+z
-x,1/2-y,z
1/4+y,1/4-x,3/4+z
x,-y,1/2-z
1/2-x,y,-z
3/4+y,1/4+x,1/4-z
1/4-y,1/4-x,1/4-z
-x,-y,-z
3/4+y,1/4-x,3/4-z
x,1/2+y,-z
3/4-y,3/4+x,1/4-z
-x,y,1/2+z
1/2+x,-y,z
1/4-y,3/4-x,3/4+z
3/4+y,3/4+x,3/4+z
1/2+x,1/2+y,1/2+z
3/4-y,1/4+x,3/4+z
1/2-x,-y,1/2+z
3/4+y,3/4-x,1/4+z
1/2+x,1/2-y,-z
-x,1/2+y,1/2-z
1/4+y,3/4+x,3/4-z
3/4-y,3/4-x,3/4-z
1/2-x,1/2-y,1/2-z
1/4+y,3/4-x,1/4-z
1/2+x,y,1/2-z
1/4-y,1/4+x,3/4-z
1/2-x,1/2+y,z
x,1/2-y,1/2+z
3/4-y,1/4-x,1/4+z
1/4+y,1/4+x,1/4+z
loop_
_atom_site_type_symbol
_atom_site_label
_atom_site_fract_x
_atom_site_fract_y
_atom_site_fract_z
Si Si1 0.836677 0.084038 0.699061
Si Si2 0.583885 0.166116 0.875000
Si Si3 0.904316 0.184872 0.374873
Si Si4 0.659923 0.080250 0.197270
Si Si5 0.068934 0.458768 0.950150
Si Si6 0.418723 0.831278 0.625000
Si Si7 0.205165 0.823782 0.803622
O O1 0.858642 0.089307 0.750683
O O2 0.757864 0.113142 0.696293
O O3 0.880275 0.135072 0.667366
O O4 0.840723 0.002404 0.686218
O O5 0.501030 0.157321 0.865637
O O6 0.593000 0.110718 0.915302
O O7 0.908492 0.267462 0.384302
O O8 0.871078 0.143236 0.415781
O O9 0.856158 0.175044 0.332146
O O10 0.736283 0.115623 0.191903
O O11 0.000274 0.504970 0.936456
O O12 0.064081 0.436152 0.001639
#
# Coordination Sequence:
#
# PCOD9573695 Si02
#       7
#    32  16  32  32  32  16  32
#     4  10  21  39  62  85 117 160 201 242 305 363
#     4  11  24  35  56  92 118 155 204 249 306 364
#     4  11  23  37  59  90 119 154 200 246 303 367
#     4  10  22  39  61  90 116 153 205 251 293 362
#     4  10  20  40  63  82 117 166 198 244 315 369
#     4  11  22  37  56  86 126 159 196 249 308 372
#     4  10  21  40  61  85 119 157 203 253 305 366
#
# _framework density 17.546789
#
# number of rings (size 3 to 8) (size 9 to 14) (size 15 to 20)
#    0.000    1.667    3.333    1.000    0.000    3.333 
#    0.000    3.333    0.000    2.000    0.000    0.000 
#    0.000    0.000    0.000    0.000    0.000    0.000 
#
# Total GULP energy -535446.389208 kJ/mol
# GULP energy per Si atom -5577.566554 kJ/mol
# Density = 1.750685 g / cm^3
# Si number density = 17.546789 Si / 1000 Ang^3
#
#
#
# Elastic Constant Matrix: (Units=GPa)
#
#
# Indices 1 2 3 4 5 6 
#
# 1 100.2106 60.6259 72.5298 0.0000 0.0000 0.0000
# 2 60.6259 100.2103 72.5295 0.0000 0.0000 0.0000
# 3 72.5298 72.5295 100.4090 0.0000 0.0000 0.0000
# 4 0.0000 0.0000 0.0000 16.3374 0.0000 0.0000
# 5 0.0000 0.0000 0.0000 0.0000 16.3132 0.0000
# 6 0.0000 0.0000 0.0000 0.0000 0.0000 22.9786
#
#
#
# Elastic Compliance Matrix: (Units=1/GPa)
#
#
# Indices 1 2 3 4 5 6 
#
# 1 0.021551 -0.003711 -0.012887 0.000000 0.000000 0.000000
# 2 -0.003711 0.021551 -0.012887 0.000000 0.000000 0.000000
# 3 -0.012887 -0.012887 0.028576 0.000000 0.000000 0.000000
# 4 0.000000 0.000000 0.000000 0.061209 0.000000 0.000000
# 5 0.000000 0.000000 0.000000 0.000000 0.061300 0.000000
# 6 0.000000 0.000000 0.000000 0.000000 0.000000 0.043519
#
#
# Mechanical properties :
#
#
# Convention : Reuss Voigt Hill
#
# Bulk Modulus (GPa) = 78.67838 79.13337 78.90588
# Shear Modulus (GPa) = 16.61617 17.46884 17.04250
#
# Velocity S-wave (km/s) = 3.08062 3.15867 3.11989
# Velocity P-wave (km/s) = 7.58882 7.64848 7.61871
#
# Compressibility (1/GPa) = 0.01270997
#
# Stress axis : x y z
#
# Youngs Moduli (GPa) = 46.40114 46.40119 34.99407
#
# Poissons Ratio (x) = 0.17220 0.45095
# Poissons Ratio (y) = 0.17220 0.45095
# Poissons Ratio (z) = 0.59795 0.59795
#
# Static dielectric constant tensor:
#      x y z
#    x 1.591700 0.000000 0.000000 
#    y 0.000000 1.591700 0.000000 
#    z 0.000000 0.000000 1.591680 
# 
# From -- ./inp_files/12609.got.cif
#   From: 2010.05.17/outbox.cif.g08.bks.cpg/sg142_7_cif.got.tgz:12609.got - 2010.05.20 13:39:18.
