data_PCOD9573548
_publ_section_title
;
Structure prediction by ZEFSAII (Michael W. Deem and Ramdas Pophale) SiO2 
 PCOD9573548
Probable space group: I 41/A C D
;
_chemical_formula_sum "Si O2"
_cell_formula_units_Z 144
_cell_length_a 19.772954
_cell_length_b 19.772954
_cell_length_c 19.588027
_cell_angle_alpha 90.000000
_cell_angle_beta 90.000000
_cell_angle_gamma 90.000000
_cell_volume 7658.325233
_symmetry_space_group_name_H-M "I 41/A C D"
_symmetry_group_IT_number 142
_space_group.IT_coordinate_system_code '2'
_symmetry_cell_setting 'tetragonal'
loop_
_space_group_symop_operation_xyz
x,y,z
1/4-y,3/4+x,1/4+z
-x,1/2-y,z
1/4+y,1/4-x,3/4+z
x,-y,1/2-z
1/2-x,y,-z
3/4+y,1/4+x,1/4-z
1/4-y,1/4-x,1/4-z
-x,-y,-z
3/4+y,1/4-x,3/4-z
x,1/2+y,-z
3/4-y,3/4+x,1/4-z
-x,y,1/2+z
1/2+x,-y,z
1/4-y,3/4-x,3/4+z
3/4+y,3/4+x,3/4+z
1/2+x,1/2+y,1/2+z
3/4-y,1/4+x,3/4+z
1/2-x,-y,1/2+z
3/4+y,3/4-x,1/4+z
1/2+x,1/2-y,-z
-x,1/2+y,1/2-z
1/4+y,3/4+x,3/4-z
3/4-y,3/4-x,3/4-z
1/2-x,1/2-y,1/2-z
1/4+y,3/4-x,1/4-z
1/2+x,y,1/2-z
1/4-y,1/4+x,3/4-z
1/2-x,1/2+y,z
x,1/2-y,1/2+z
3/4-y,1/4-x,1/4+z
1/4+y,1/4+x,1/4+z
loop_
_atom_site_type_symbol
_atom_site_label
_atom_site_fract_x
_atom_site_fract_y
_atom_site_fract_z
Si Si1 0.480993 0.173751 0.251155
Si Si2 0.937324 0.419618 0.457416
Si Si3 0.582639 0.937109 0.300882
Si Si4 0.815922 0.335924 0.248217
Si Si5 0.079623 0.170378 0.125000
O O1 0.500000 0.250000 0.228351
O O2 0.401920 0.161726 0.236747
O O3 0.524472 0.118231 0.212054
O O4 0.512737 0.168920 0.327646
O O5 0.916510 0.443241 0.381908
O O6 0.915719 0.485247 0.500072
O O7 0.018569 0.412766 0.461256
O O8 0.652973 0.903018 0.279421
O O9 0.570578 0.000000 0.250000
O O10 0.855141 0.329629 0.174997
#
# Coordination Sequence:
#
# PCOD9573548 Si02
#       5
#    32  32  32  32  16
#     4  11  21  34  62  92 122 153 196 252 298 351
#     4  11  21  36  61  91 121 147 205 253 301 347
#     4  11  23  40  60  86 121 164 202 243 304 366
#     4  10  22  38  61  89 119 163 197 247 298 368
#     4  10  19  38  58  90 124 164 198 230 306 367
#
# _framework density 18.803066999999999
#
# number of rings (size 3 to 8) (size 9 to 14) (size 15 to 20)
#    0.000    1.333    4.444    4.333    0.000    0.000 
#    0.000    1.111    0.000    8.000    0.000    0.000 
#    0.000    0.000    0.000    0.000    0.000    0.000 
#
# Total GULP energy -401156.239742 kJ/mol
# GULP energy per Si atom -5571.614441 kJ/mol
# Density = 1.876027 g / cm^3
# Si number density = 18.803067 Si / 1000 Ang^3
#
#
#
# Elastic Constant Matrix: (Units=GPa)
#
#
# Indices 1 2 3 4 5 6 
#
# 1 88.3931 27.0602 4.8060 0.0000 0.0000 0.0000
# 2 27.0602 88.3948 4.8051 0.0000 0.0000 0.0000
# 3 4.8060 4.8051 52.5292 0.0000 0.0000 0.0000
# 4 0.0000 0.0000 0.0000 21.9268 0.0000 0.0000
# 5 0.0000 0.0000 0.0000 0.0000 21.9266 0.0000
# 6 0.0000 0.0000 0.0000 0.0000 0.0000 20.0393
#
#
#
# Elastic Compliance Matrix: (Units=1/GPa)
#
#
# Indices 1 2 3 4 5 6 
#
# 1 0.012516 -0.003788 -0.000799 0.000000 0.000000 0.000000
# 2 -0.003788 0.012516 -0.000798 0.000000 0.000000 0.000000
# 3 -0.000799 -0.000798 0.019183 0.000000 0.000000 0.000000
# 4 0.000000 0.000000 0.000000 0.045606 0.000000 0.000000
# 5 0.000000 0.000000 0.000000 0.000000 0.045607 0.000000
# 6 0.000000 0.000000 0.000000 0.000000 0.000000 0.049902
#
#
# Mechanical properties :
#
#
# Convention : Reuss Voigt Hill
#
# Bulk Modulus (GPa) = 29.89972 33.62884 31.76428
# Shear Modulus (GPa) = 24.12561 25.62160 24.87360
#
# Velocity S-wave (km/s) = 3.58588 3.69538 3.64104
# Velocity P-wave (km/s) = 5.75159 6.01094 5.88269
#
# Compressibility (1/GPa) = 0.03344513
#
# Stress axis : x y z
#
# Youngs Moduli (GPa) = 79.89642 79.89809 52.12913
#
# Poissons Ratio (x) = 0.30267 0.04163
# Poissons Ratio (y) = 0.30266 0.04161
# Poissons Ratio (z) = 0.06381 0.06378
#
# Static dielectric constant tensor:
#      x y z
#    x 1.654770 0.000000 0.000000 
#    y 0.000000 1.654770 0.000000 
#    z 0.000000 0.000000 1.738480 
# 
# From -- ./inp_files/7250.got.cif
#   From: 2010.05.17/outbox.cif.g08.bks.cpg/sg142_4_cif.got.tgz:7250.got - 2010.05.20 13:39:18.
