data_PCOD9573731
_publ_section_title
;
Structure prediction by ZEFSAII (Michael W. Deem and Ramdas Pophale) SiO2 
 PCOD9573731
Probable space group: I 41/A C D
;
_chemical_formula_sum "Si O2"
_cell_formula_units_Z 160
_cell_length_a 29.274868
_cell_length_b 29.274868
_cell_length_c 9.491549
_cell_angle_alpha 90.000000
_cell_angle_beta 90.000000
_cell_angle_gamma 90.000000
_cell_volume 8134.427358
_symmetry_space_group_name_H-M "I 41/A C D"
_symmetry_group_IT_number 142
_space_group.IT_coordinate_system_code '2'
_symmetry_cell_setting 'tetragonal'
loop_
_space_group_symop_operation_xyz
x,y,z
1/4-y,3/4+x,1/4+z
-x,1/2-y,z
1/4+y,1/4-x,3/4+z
x,-y,1/2-z
1/2-x,y,-z
3/4+y,1/4+x,1/4-z
1/4-y,1/4-x,1/4-z
-x,-y,-z
3/4+y,1/4-x,3/4-z
x,1/2+y,-z
3/4-y,3/4+x,1/4-z
-x,y,1/2+z
1/2+x,-y,z
1/4-y,3/4-x,3/4+z
3/4+y,3/4+x,3/4+z
1/2+x,1/2+y,1/2+z
3/4-y,1/4+x,3/4+z
1/2-x,-y,1/2+z
3/4+y,3/4-x,1/4+z
1/2+x,1/2-y,-z
-x,1/2+y,1/2-z
1/4+y,3/4+x,3/4-z
3/4-y,3/4-x,3/4-z
1/2-x,1/2-y,1/2-z
1/4+y,3/4-x,1/4-z
1/2+x,y,1/2-z
1/4-y,1/4+x,3/4-z
1/2-x,1/2+y,z
x,1/2-y,1/2+z
3/4-y,1/4-x,1/4+z
1/4+y,1/4+x,1/4+z
loop_
_atom_site_type_symbol
_atom_site_label
_atom_site_fract_x
_atom_site_fract_y
_atom_site_fract_z
Si Si1 0.816620 0.795846 0.326398
Si Si2 0.831992 0.413251 0.372421
Si Si3 0.116307 0.133694 0.125000
Si Si4 0.250000 0.624130 0.000000
Si Si5 0.750000 0.637073 0.000000
Si Si6 0.048143 0.570366 0.765624
Si Si7 0.383011 0.866990 0.125000
O O1 0.779705 0.830720 0.395650
O O2 0.808484 0.747198 0.399489
O O3 0.866086 0.815116 0.380350
O O4 0.816071 0.793022 0.155064
O O5 0.849800 0.381147 0.248607
O O6 0.841634 0.466231 0.339209
O O7 0.782132 0.396694 0.411838
O O8 0.864558 0.397328 0.497459
O O9 0.066824 0.120108 0.185227
O O10 0.286147 0.660881 0.060627
#
# Coordination Sequence:
#
# PCOD9573731 Si02
#       7
#    32  32  16  16  16  32  16
#     4  11  24  41  65  99 127 168 213 271 326 393
#     4  10  22  38  67  82 127 177 219 274 319 378
#     4  10  22  42  62  92 128 172 204 262 336 382
#     4  10  21  42  62  93 128 170 224 269 325 366
#     4  10  25  40  66  95 130 176 230 273 329 374
#     4  11  25  39  67  96 130 164 217 269 327 391
#     4  10  20  44  60  90 130 170 206 260 332 392
#
# _framework density 19.669487
#
# number of rings (size 3 to 8) (size 9 to 14) (size 15 to 20)
#    0.000    1.600    4.000    0.600   11.200    1.600 
#    0.000    0.000    8.800   21.000    0.000    2.800 
#    0.000    0.000    0.000    0.000    0.000    0.000 
#
# Total GULP energy -445572.358446 kJ/mol
# GULP energy per Si atom -5569.654481 kJ/mol
# Density = 1.962472 g / cm^3
# Si number density = 19.669487 Si / 1000 Ang^3
#
#
#
# Elastic Constant Matrix: (Units=GPa)
#
#
# Indices 1 2 3 4 5 6 
#
# 1 75.5492 86.8858 46.1481 0.0000 0.0000 0.0000
# 2 86.8858 75.5507 46.1475 0.0000 0.0000 0.0000
# 3 46.1481 46.1475 143.7529 0.0000 0.0000 0.0000
# 4 0.0000 0.0000 0.0000 27.7211 0.0000 0.0000
# 5 0.0000 0.0000 0.0000 0.0000 27.7214 0.0000
# 6 0.0000 0.0000 0.0000 0.0000 0.0000 23.1756
#
#
#
# Elastic Compliance Matrix: (Units=1/GPa)
#
#
# Indices 1 2 3 4 5 6 
#
# 1 -0.040343 0.047873 -0.002417 0.000000 0.000000 0.000000
# 2 0.047873 -0.040342 -0.002418 0.000000 0.000000 0.000000
# 3 -0.002417 -0.002418 0.008508 0.000000 0.000000 0.000000
# 4 0.000000 0.000000 0.000000 0.036074 0.000000 0.000000
# 5 0.000000 0.000000 0.000000 0.000000 0.036073 0.000000
# 6 0.000000 0.000000 0.000000 0.000000 0.000000 0.043149
#
#
# Mechanical properties :
#
#
# Convention : Reuss Voigt Hill
#
# Bulk Modulus (GPa) = 71.94779 72.57951 72.26365
# Shear Modulus (GPa) = -130.46284 23.43505 -53.51389
#
# Velocity S-wave (km/s) = -8.15301 3.45547 -5.22165
# Velocity P-wave (km/s) = 7.20908 7.27324 0.68159
#
# Compressibility (1/GPa) = 0.01389897
#
# Stress axis : x y z
#
# Youngs Moduli (GPa) = -24.78715 -24.78793 117.53187
#
# Poissons Ratio (x) = 1.18666 0.28405
# Poissons Ratio (y) = 1.18662 0.28414
# Poissons Ratio (z) = -0.05991 -0.05993
#
# Static dielectric constant tensor:
#      x y z
#    x 1.766520 0.000000 0.000000 
#    y 0.000000 1.766520 0.000000 
#    z 0.000000 0.000000 1.695320 
# 
# From -- ./inp_files/2287.got.cif
#   From: 2010.05.17/outbox.cif.g08.bks.cpg/sg142_2_cif.got.tgz:2287.got - 2010.05.20 13:39:18.
