data_PCOD9573547
_publ_section_title
;
Structure prediction by ZEFSAII (Michael W. Deem and Ramdas Pophale) SiO2 
 PCOD9573547
Probable space group: I 41/A C D
;
_chemical_formula_sum "Si O2"
_cell_formula_units_Z 136
_cell_length_a 18.490525
_cell_length_b 18.490525
_cell_length_c 14.005267
_cell_angle_alpha 90.000000
_cell_angle_beta 90.000000
_cell_angle_gamma 90.000000
_cell_volume 4788.393992
_symmetry_space_group_name_H-M "I 41/A C D"
_symmetry_group_IT_number 142
_space_group.IT_coordinate_system_code '2'
_symmetry_cell_setting 'tetragonal'
loop_
_space_group_symop_operation_xyz
x,y,z
1/4-y,3/4+x,1/4+z
-x,1/2-y,z
1/4+y,1/4-x,3/4+z
x,-y,1/2-z
1/2-x,y,-z
3/4+y,1/4+x,1/4-z
1/4-y,1/4-x,1/4-z
-x,-y,-z
3/4+y,1/4-x,3/4-z
x,1/2+y,-z
3/4-y,3/4+x,1/4-z
-x,y,1/2+z
1/2+x,-y,z
1/4-y,3/4-x,3/4+z
3/4+y,3/4+x,3/4+z
1/2+x,1/2+y,1/2+z
3/4-y,1/4+x,3/4+z
1/2-x,-y,1/2+z
3/4+y,3/4-x,1/4+z
1/2+x,1/2-y,-z
-x,1/2+y,1/2-z
1/4+y,3/4+x,3/4-z
3/4-y,3/4-x,3/4-z
1/2-x,1/2-y,1/2-z
1/4+y,3/4-x,1/4-z
1/2+x,y,1/2-z
1/4-y,1/4+x,3/4-z
1/2-x,1/2+y,z
x,1/2-y,1/2+z
3/4-y,1/4-x,1/4+z
1/4+y,1/4+x,1/4+z
loop_
_atom_site_type_symbol
_atom_site_label
_atom_site_fract_x
_atom_site_fract_y
_atom_site_fract_z
Si Si1 0.620563 0.518048 0.361770
Si Si2 0.343517 0.236808 0.358571
Si Si3 0.478354 0.859355 0.333663
Si Si4 0.500000 0.250000 0.875000
Si Si5 0.624002 0.493031 0.857841
O O1 0.629306 0.500000 0.250000
O O2 0.591263 0.444139 0.412236
O O3 0.551288 0.567497 0.376227
O O4 0.689005 0.569667 0.382660
O O5 0.368924 0.236173 0.471576
O O6 0.424108 0.250322 0.316858
O O7 0.288345 0.302325 0.340131
O O8 0.551613 0.831438 0.380794
O O9 0.597787 0.500000 0.750000
O O10 0.677218 0.427218 0.875000
#
# Coordination Sequence:
#
# PCOD9573547 Si02
#       5
#    32  32  32   8  32
#     4  10  22  42  71 104 141 189 243 296 362 442
#     4  11  24  43  70 101 147 188 236 307 366 437
#     4  10  19  37  70 107 137 182 234 296 367 443
#     4  12  24  44  62  96 136 176 240 290 372 420
#     4  12  25  46  70 102 145 196 239 308 368 433
#
# _framework density 28.402007999999999
#
# number of rings (size 3 to 8) (size 9 to 14) (size 15 to 20)
#    0.000    1.176    1.176    7.059    1.647    0.000 
#    0.000    1.176    0.000    0.000    0.000    0.000 
#    0.000    0.000    0.000    0.000    0.000    0.000 
#
# Total GULP energy -379450.573987 kJ/mol
# GULP energy per Si atom -5580.155500 kJ/mol
# Density = 2.833736 g / cm^3
# Si number density = 28.402008 Si / 1000 Ang^3
#
#
#
# Elastic Constant Matrix: (Units=GPa)
#
#
# Indices 1 2 3 4 5 6 
#
# 1 338.0728 -48.5533 1.5038 0.0000 0.0000 0.0000
# 2 -48.5533 338.0728 1.5038 0.0000 0.0000 0.0000
# 3 1.5038 1.5038 130.8480 0.0000 0.0000 0.0000
# 4 0.0000 0.0000 0.0000 22.1288 0.0000 0.0000
# 5 0.0000 0.0000 0.0000 0.0000 22.1288 0.0000
# 6 0.0000 0.0000 0.0000 0.0000 0.0000 96.1900
#
#
#
# Elastic Compliance Matrix: (Units=1/GPa)
#
#
# Indices 1 2 3 4 5 6 
#
# 1 0.003020 0.000434 -0.000040 0.000000 0.000000 0.000000
# 2 0.000434 0.003020 -0.000040 0.000000 0.000000 0.000000
# 3 -0.000040 -0.000040 0.007643 0.000000 0.000000 0.000000
# 4 0.000000 0.000000 0.000000 0.045190 0.000000 0.000000
# 5 0.000000 0.000000 0.000000 0.000000 0.045190 0.000000
# 6 0.000000 0.000000 0.000000 0.000000 0.000000 0.010396
#
#
# Mechanical properties :
#
#
# Convention : Reuss Voigt Hill
#
# Bulk Modulus (GPa) = 69.47634 79.54469 74.51052
# Shear Modulus (GPa) = 42.17660 84.92546 63.55103
#
# Velocity S-wave (km/s) = 3.85773 5.47413 4.73541
# Velocity P-wave (km/s) = 6.66016 8.24757 7.49600
#
# Compressibility (1/GPa) = 0.01439339
#
# Stress axis : x y z
#
# Youngs Moduli (GPa) = 331.07709 331.07709 130.83236
#
# Poissons Ratio (x) = -0.14368 0.00519
# Poissons Ratio (y) = -0.14368 0.00519
# Poissons Ratio (z) = 0.01314 0.01314
#
# Static dielectric constant tensor:
#      x y z
#    x 2.214690 0.000000 0.000000 
#    y 0.000000 2.214690 0.000000 
#    z 0.000000 0.000000 2.625620 
# 
# From -- ./inp_files/8763.got.cif
#   From: 2010.05.17/outbox.cif.g08.bks.cpg/sg142_5_cif.got.tgz:8763.got - 2010.05.20 13:39:18.
