data_PCOD9573441
_publ_section_title
;
Structure prediction by ZEFSAII (Michael W. Deem and Ramdas Pophale) SiO2 
 PCOD9573441
Probable space group: I 41/A C D
;
_chemical_formula_sum "Si O2"
_cell_formula_units_Z 160
_cell_length_a 18.060575
_cell_length_b 18.060575
_cell_length_c 27.567521
_cell_angle_alpha 90.000000
_cell_angle_beta 90.000000
_cell_angle_gamma 90.000000
_cell_volume 8992.094451
_symmetry_space_group_name_H-M "I 41/A C D"
_symmetry_group_IT_number 142
_space_group.IT_coordinate_system_code '2'
_symmetry_cell_setting 'tetragonal'
loop_
_space_group_symop_operation_xyz
x,y,z
1/4-y,3/4+x,1/4+z
-x,1/2-y,z
1/4+y,1/4-x,3/4+z
x,-y,1/2-z
1/2-x,y,-z
3/4+y,1/4+x,1/4-z
1/4-y,1/4-x,1/4-z
-x,-y,-z
3/4+y,1/4-x,3/4-z
x,1/2+y,-z
3/4-y,3/4+x,1/4-z
-x,y,1/2+z
1/2+x,-y,z
1/4-y,3/4-x,3/4+z
3/4+y,3/4+x,3/4+z
1/2+x,1/2+y,1/2+z
3/4-y,1/4+x,3/4+z
1/2-x,-y,1/2+z
3/4+y,3/4-x,1/4+z
1/2+x,1/2-y,-z
-x,1/2+y,1/2-z
1/4+y,3/4+x,3/4-z
3/4-y,3/4-x,3/4-z
1/2-x,1/2-y,1/2-z
1/4+y,3/4-x,1/4-z
1/2+x,y,1/2-z
1/4-y,1/4+x,3/4-z
1/2-x,1/2+y,z
x,1/2-y,1/2+z
3/4-y,1/4-x,1/4+z
1/4+y,1/4+x,1/4+z
loop_
_atom_site_type_symbol
_atom_site_label
_atom_site_fract_x
_atom_site_fract_y
_atom_site_fract_z
Si Si1 0.173720 0.840629 0.722956
Si Si2 0.376012 0.746923 0.122455
Si Si3 0.947603 0.988001 0.065518
Si Si4 0.170461 0.473266 0.351518
Si Si5 0.681275 0.182167 0.966710
O O1 0.235839 0.839750 0.765252
O O2 0.179079 0.760710 0.698135
O O3 0.184243 0.903073 0.682252
O O4 0.098976 0.864381 0.751007
O O5 0.421536 0.671536 0.125000
O O6 0.435475 0.814526 0.125000
O O7 0.311384 0.762359 0.161511
O O8 0.340910 0.753744 0.069419
O O9 0.889313 0.960962 0.105666
O O10 0.244020 0.505981 0.375000
O O11 0.134403 0.537471 0.317462
O O12 0.750000 0.203238 0.000000
#
# Coordination Sequence:
#
# PCOD9573441 Si02
#       5
#    32  32  32  32  32
#     4  10  19  31  57  75 107 139 175 226 272 315
#     4  10  18  31  54  76 106 137 175 218 261 322
#     4  10  19  34  53  79 107 144 178 222 277 325
#     4  10  18  32  56  81 104 137 187 228 264 328
#     4   9  16  31  55  79  97 137 184 216 260 325
#
# _framework density 17.793406999999998
#
# number of rings (size 3 to 8) (size 9 to 14) (size 15 to 20)
#    0.000    2.200    4.000    1.200    0.000    0.800 
#    0.000    0.000   30.800    0.000    0.000    0.000 
#    0.000    0.000    0.000    0.000    0.000    0.000 
#
# Total GULP energy -445893.391762 kJ/mol
# GULP energy per Si atom -5573.667397 kJ/mol
# Density = 1.775291 g / cm^3
# Si number density = 17.793407 Si / 1000 Ang^3
#
#
#
# Elastic Constant Matrix: (Units=GPa)
#
#
# Indices 1 2 3 4 5 6 
#
# 1 53.8328 40.2913 48.0450 0.0000 0.0000 0.0000
# 2 40.2913 53.8356 48.0459 0.0000 0.0000 0.0000
# 3 48.0450 48.0459 128.9799 0.0000 0.0000 0.0000
# 4 0.0000 0.0000 0.0000 19.6193 0.0000 0.0000
# 5 0.0000 0.0000 0.0000 0.0000 19.6189 0.0000
# 6 0.0000 0.0000 0.0000 0.0000 0.0000 23.9629
#
#
#
# Elastic Compliance Matrix: (Units=1/GPa)
#
#
# Indices 1 2 3 4 5 6 
#
# 1 0.045493 -0.028348 -0.006386 0.000000 0.000000 0.000000
# 2 -0.028348 0.045490 -0.006386 0.000000 0.000000 0.000000
# 3 -0.006386 -0.006386 0.012511 0.000000 0.000000 0.000000
# 4 0.000000 0.000000 0.000000 0.050970 0.000000 0.000000
# 5 0.000000 0.000000 0.000000 0.000000 0.050971 0.000000
# 6 0.000000 0.000000 0.000000 0.000000 0.000000 0.041731
#
#
# Mechanical properties :
#
#
# Convention : Reuss Voigt Hill
#
# Bulk Modulus (GPa) = 47.05067 56.60142 51.82605
# Shear Modulus (GPa) = 14.85923 19.32463 17.09193
#
# Velocity S-wave (km/s) = 2.89294 3.29911 3.10268
# Velocity P-wave (km/s) = 6.13669 6.81114 6.48269
#
# Compressibility (1/GPa) = 0.02125368
#
# Stress axis : x y z
#
# Youngs Moduli (GPa) = 21.98145 21.98279 79.93126
#
# Poissons Ratio (x) = 0.62317 0.51046
# Poissons Ratio (y) = 0.62313 0.51042
# Poissons Ratio (z) = 0.14038 0.14038
#
# Static dielectric constant tensor:
#      x y z
#    x 1.607970 0.000000 0.000000 
#    y 0.000000 1.607970 0.000000 
#    z 0.000000 0.000000 1.631770 
# 
# From -- ./inp_files/11268.got.cif
#   From: 2010.05.17/outbox.cif.g08.bks.cpg/sg142_6_cif.got.tgz:11268.got - 2010.05.20 13:39:18.
