data_PCOD9573648
_publ_section_title
;
Structure prediction by ZEFSAII (Michael W. Deem and Ramdas Pophale) SiO2 
 PCOD9573648
Probable space group: I 41/A C D
;
_chemical_formula_sum "Si O2"
_cell_formula_units_Z 176
_cell_length_a 18.563825
_cell_length_b 18.563825
_cell_length_c 28.251347
_cell_angle_alpha 90.000000
_cell_angle_beta 90.000000
_cell_angle_gamma 90.000000
_cell_volume 9735.854859
_symmetry_space_group_name_H-M "I 41/A C D"
_symmetry_group_IT_number 142
_space_group.IT_coordinate_system_code '2'
_symmetry_cell_setting 'tetragonal'
loop_
_space_group_symop_operation_xyz
x,y,z
1/4-y,3/4+x,1/4+z
-x,1/2-y,z
1/4+y,1/4-x,3/4+z
x,-y,1/2-z
1/2-x,y,-z
3/4+y,1/4+x,1/4-z
1/4-y,1/4-x,1/4-z
-x,-y,-z
3/4+y,1/4-x,3/4-z
x,1/2+y,-z
3/4-y,3/4+x,1/4-z
-x,y,1/2+z
1/2+x,-y,z
1/4-y,3/4-x,3/4+z
3/4+y,3/4+x,3/4+z
1/2+x,1/2+y,1/2+z
3/4-y,1/4+x,3/4+z
1/2-x,-y,1/2+z
3/4+y,3/4-x,1/4+z
1/2+x,1/2-y,-z
-x,1/2+y,1/2-z
1/4+y,3/4+x,3/4-z
3/4-y,3/4-x,3/4-z
1/2-x,1/2-y,1/2-z
1/4+y,3/4-x,1/4-z
1/2+x,y,1/2-z
1/4-y,1/4+x,3/4-z
1/2-x,1/2+y,z
x,1/2-y,1/2+z
3/4-y,1/4-x,1/4+z
1/4+y,1/4+x,1/4+z
loop_
_atom_site_type_symbol
_atom_site_label
_atom_site_fract_x
_atom_site_fract_y
_atom_site_fract_z
Si Si1 0.759713 0.494951 0.803847
Si Si2 0.970110 0.497976 0.407894
Si Si3 0.387439 0.585087 0.575882
Si Si4 0.163859 0.586142 0.875000
Si Si5 0.364551 0.870240 0.282448
Si Si6 0.605751 0.760768 0.394810
O O1 0.737108 0.500000 0.750000
O O2 0.778988 0.571425 0.825366
O O3 0.695417 0.458835 0.831485
O O4 0.832207 0.446057 0.801792
O O5 0.915962 0.557992 0.386362
O O6 0.933308 0.449130 0.449194
O O7 0.039324 0.540778 0.424686
O O8 0.992771 0.436942 0.369908
O O9 0.379711 0.629711 0.625000
O O10 0.380052 0.622895 0.524278
O O11 0.439119 0.853691 0.308973
O O12 0.560005 0.686633 0.394364
#
# Coordination Sequence:
#
# PCOD9573648 Si02
#       6
#    32  32  32  16  32  32
#     4   9  18  32  56  85 108 143 199 243 286 340
#     4  10  21  35  61  81 116 156 193 240 292 351
#     4  11  20  33  59  85 113 157 191 230 295 358
#     4  10  20  38  55  80 118 151 190 254 278 340
#     4   9  19  36  56  88 116 144 193 247 287 355
#     4   9  18  33  57  88 114 140 185 247 297 338
#
# _framework density 18.077508000000002
#
# number of rings (size 3 to 8) (size 9 to 14) (size 15 to 20)
#    0.000    2.364    0.909    1.636    5.091    0.000 
#    0.000    2.273   20.000    0.000    0.000    0.000 
#    0.000    0.000    0.000    0.000    0.000    0.000 
#
# Total GULP energy -489911.612273 kJ/mol
# GULP energy per Si atom -5567.177412 kJ/mol
# Density = 1.803636 g / cm^3
# Si number density = 18.077508 Si / 1000 Ang^3
#
#
#
# Elastic Constant Matrix: (Units=GPa)
#
#
# Indices 1 2 3 4 5 6 
#
# 1 82.7908 41.2100 22.9184 0.0000 0.0000 0.0000
# 2 41.2100 82.7931 22.9178 0.0000 0.0000 0.0000
# 3 22.9184 22.9178 73.1313 0.0000 0.0000 0.0000
# 4 0.0000 0.0000 0.0000 16.4582 0.0000 0.0000
# 5 0.0000 0.0000 0.0000 0.0000 16.4586 0.0000
# 6 0.0000 0.0000 0.0000 0.0000 0.0000 19.1625
#
#
#
# Elastic Compliance Matrix: (Units=1/GPa)
#
#
# Indices 1 2 3 4 5 6 
#
# 1 0.016585 -0.007464 -0.002859 0.000000 0.000000 0.000000
# 2 -0.007464 0.016585 -0.002858 0.000000 0.000000 0.000000
# 3 -0.002859 -0.002858 0.015466 0.000000 0.000000 0.000000
# 4 0.000000 0.000000 0.000000 0.060760 0.000000 0.000000
# 5 0.000000 0.000000 0.000000 0.000000 0.060759 0.000000
# 6 0.000000 0.000000 0.000000 0.000000 0.000000 0.052185
#
#
# Mechanical properties :
#
#
# Convention : Reuss Voigt Hill
#
# Bulk Modulus (GPa) = 44.89529 45.86752 45.38140
# Shear Modulus (GPa) = 19.52171 20.52714 20.02443
#
# Velocity S-wave (km/s) = 3.28973 3.37338 3.33182
# Velocity P-wave (km/s) = 6.27045 6.37187 6.32137
#
# Compressibility (1/GPa) = 0.02227405
#
# Stress axis : x y z
#
# Youngs Moduli (GPa) = 60.29466 60.29675 64.65985
#
# Poissons Ratio (x) = 0.45005 0.18483
# Poissons Ratio (y) = 0.45004 0.18481
# Poissons Ratio (z) = 0.17235 0.17234
#
# Static dielectric constant tensor:
#      x y z
#    x 1.633900 0.000000 0.000000 
#    y 0.000000 1.633900 0.000000 
#    z 0.000000 0.000000 1.647890 
# 
# From -- ./inp_files/12567.got.cif
#   From: 2010.05.17/outbox.cif.g08.bks.cpg/sg142_7_cif.got.tgz:12567.got - 2010.05.20 13:39:18.
