data_PCOD9573254
_publ_section_title
;
Structure prediction by ZEFSAII (Michael W. Deem and Ramdas Pophale) SiO2 
 PCOD9573254
Probable space group: I 41/A M D
;
_chemical_formula_sum "Si O2"
_cell_formula_units_Z 84
_cell_length_a 18.713524
_cell_length_b 18.713524
_cell_length_c 11.144660
_cell_angle_alpha 90.000000
_cell_angle_beta 90.000000
_cell_angle_gamma 90.000000
_cell_volume 3902.815136
_symmetry_space_group_name_H-M "I 41/A M D"
_symmetry_group_IT_number 141
_space_group.IT_coordinate_system_code '2'
_symmetry_cell_setting 'tetragonal'
loop_
_space_group_symop_operation_xyz
x,y,z
1/4-y,3/4+x,1/4+z
-x,1/2-y,z
1/4+y,1/4-x,3/4+z
x,-y,-z
-x,1/2+y,-z
1/4+y,3/4+x,1/4-z
1/4-y,1/4-x,3/4-z
-x,-y,-z
3/4+y,1/4-x,3/4-z
x,1/2+y,-z
3/4-y,3/4+x,1/4-z
-x,y,z
x,1/2-y,z
3/4-y,1/4-x,3/4+z
3/4+y,3/4+x,1/4+z
1/2+x,1/2+y,1/2+z
3/4-y,1/4+x,3/4+z
1/2-x,-y,1/2+z
3/4+y,3/4-x,1/4+z
1/2+x,1/2-y,1/2-z
1/2-x,y,1/2-z
3/4+y,1/4+x,3/4-z
3/4-y,3/4-x,1/4-z
1/2-x,1/2-y,1/2-z
1/4+y,3/4-x,1/4-z
1/2+x,y,1/2-z
1/4-y,1/4+x,3/4-z
1/2-x,1/2+y,1/2+z
1/2+x,-y,1/2+z
1/4-y,3/4-x,1/4+z
1/4+y,1/4+x,3/4+z
loop_
_atom_site_type_symbol
_atom_site_label
_atom_site_fract_x
_atom_site_fract_y
_atom_site_fract_z
Si Si1 0.893096 0.043136 0.620838
Si Si2 0.500000 0.831325 0.104404
Si Si3 0.246119 0.620951 0.121261
Si Si4 0.000000 0.250000 0.375000
O O1 0.909980 0.000859 0.743603
O O2 0.809309 0.062318 0.617874
O O3 0.932760 0.119058 0.631532
O O4 0.911939 0.000000 0.500000
O O5 0.500000 0.750000 0.155640
O O6 0.500000 0.817123 0.962022
O O7 0.250000 0.659868 0.250000
O O8 0.171205 0.578796 0.125000
#
# Coordination Sequence:
#
# PCOD9573254 Si02
#       4
#    32  16  32   4
#     4  11  20  35  65  96 117 157 216 260 311 379
#     4  10  25  41  57  84 132 170 208 260 326 386
#     4   9  19  36  62  92 126 152 192 265 325 362
#     4   8  24  44  56  72 134 176 200 256 326 360
#
# _framework density 21.522925000000001
#
# number of rings (size 3 to 8) (size 9 to 14) (size 15 to 20)
#    0.571    1.524    0.000    5.143    5.333    0.000 
#    3.429    0.952   33.524    0.000    0.000    0.000 
#    0.000    0.000    0.000    0.000    0.000    0.000 
#
# Total GULP energy -233878.712800 kJ/mol
# GULP energy per Si atom -5568.540781 kJ/mol
# Density = 2.147394 g / cm^3
# Si number density = 21.522925 Si / 1000 Ang^3
#
#
#
# Elastic Constant Matrix: (Units=GPa)
#
#
# Indices 1 2 3 4 5 6 
#
# 1 63.6648 12.4011 38.7858 0.0000 0.0000 0.0000
# 2 12.4011 63.6633 38.7861 0.0000 0.0000 0.0000
# 3 38.7858 38.7861 219.2006 0.0000 0.0000 0.0000
# 4 0.0000 0.0000 0.0000 -20.2459 0.0000 0.0000
# 5 0.0000 0.0000 0.0000 0.0000 -20.2570 0.0000
# 6 0.0000 0.0000 0.0000 0.0000 0.0000 32.2276
#
#
#
# Elastic Compliance Matrix: (Units=1/GPa)
#
#
# Indices 1 2 3 4 5 6 
#
# 1 0.017774 -0.001733 -0.002838 0.000000 0.000000 0.000000
# 2 -0.001733 0.017774 -0.002838 0.000000 0.000000 0.000000
# 3 -0.002838 -0.002838 0.005566 0.000000 0.000000 0.000000
# 4 0.000000 0.000000 0.000000 -0.049393 0.000000 0.000000
# 5 0.000000 0.000000 0.000000 0.000000 -0.049366 0.000000
# 6 0.000000 0.000000 0.000000 0.000000 0.000000 0.031029
#
#
# Mechanical properties :
#
#
# Convention : Reuss Voigt Hill
#
# Bulk Modulus (GPa) = 38.02939 58.49717 48.26328
# Shear Modulus (GPa) = -1650.54748 15.44865 -817.54941
#
# Velocity S-wave (km/s) = -27.72262 2.68204 -19.51090
# Velocity P-wave (km/s) = 31.73353 6.06870 22.02485
#
# Compressibility (1/GPa) = 0.02629545
#
# Stress axis : x y z
#
# Youngs Moduli (GPa) = 56.26194 56.26039 179.64631
#
# Poissons Ratio (x) = 0.09750 0.50989
# Poissons Ratio (y) = 0.09750 0.50991
# Poissons Ratio (z) = 0.15969 0.15969
#
# Static dielectric constant tensor:
#      x y z
#    x 1.797370 0.000000 0.000000 
#    y 0.000000 1.797380 0.000000 
#    z 0.000000 0.000000 1.873290 
# 
# From -- ./inp_files/4111.got.cif
#   From: 2010.05.17/outbox.cif.g08.bks.cpg/sg141_3_cif.got.tgz:4111.got - 2010.05.20 13:30:51.
