data_PCOD9573859
_publ_section_title
;
Structure prediction by ZEFSAII (Michael W. Deem and Ramdas Pophale) SiO2 
 PCOD9573859
Probable space group: I 41/A C D
;
_chemical_formula_sum "Si O2"
_cell_formula_units_Z 184
_cell_length_a 24.512886
_cell_length_b 24.512886
_cell_length_c 17.860179
_cell_angle_alpha 90.000000
_cell_angle_beta 90.000000
_cell_angle_gamma 90.000000
_cell_volume 10731.852577
_symmetry_space_group_name_H-M "I 41/A C D"
_symmetry_group_IT_number 142
_space_group.IT_coordinate_system_code '2'
_symmetry_cell_setting 'tetragonal'
loop_
_space_group_symop_operation_xyz
x,y,z
1/4-y,3/4+x,1/4+z
-x,1/2-y,z
1/4+y,1/4-x,3/4+z
x,-y,1/2-z
1/2-x,y,-z
3/4+y,1/4+x,1/4-z
1/4-y,1/4-x,1/4-z
-x,-y,-z
3/4+y,1/4-x,3/4-z
x,1/2+y,-z
3/4-y,3/4+x,1/4-z
-x,y,1/2+z
1/2+x,-y,z
1/4-y,3/4-x,3/4+z
3/4+y,3/4+x,3/4+z
1/2+x,1/2+y,1/2+z
3/4-y,1/4+x,3/4+z
1/2-x,-y,1/2+z
3/4+y,3/4-x,1/4+z
1/2+x,1/2-y,-z
-x,1/2+y,1/2-z
1/4+y,3/4+x,3/4-z
3/4-y,3/4-x,3/4-z
1/2-x,1/2-y,1/2-z
1/4+y,3/4-x,1/4-z
1/2+x,y,1/2-z
1/4-y,1/4+x,3/4-z
1/2-x,1/2+y,z
x,1/2-y,1/2+z
3/4-y,1/4-x,1/4+z
1/4+y,1/4+x,1/4+z
loop_
_atom_site_type_symbol
_atom_site_label
_atom_site_fract_x
_atom_site_fract_y
_atom_site_fract_z
Si Si1 0.233376 0.150392 0.182963
Si Si2 0.000000 0.750000 0.625000
Si Si3 0.908051 0.440796 0.902456
Si Si4 0.716172 0.456953 0.575870
Si Si5 0.518657 0.040382 0.179685
Si Si6 0.932136 0.841361 0.712168
Si Si7 0.889257 0.360744 0.125000
O O1 0.220629 0.166490 0.268134
O O2 0.263627 0.092070 0.185308
O O3 0.269007 0.193986 0.138253
O O4 0.175385 0.146559 0.139847
O O5 0.968113 0.793016 0.677556
O O6 0.849679 0.456303 0.868481
O O7 0.956352 0.456785 0.846809
O O8 0.908926 0.376319 0.920456
O O9 0.750000 0.447504 0.500000
O O10 0.752656 0.497345 0.625000
O O11 0.538700 0.100900 0.199118
O O12 0.525497 0.000000 0.250000
O O13 0.919378 0.839280 0.800783
#
# Coordination Sequence:
#
# PCOD9573859 Si02
#       7
#    32   8  32  32  32  32  16
#     4  11  22  37  65  92 125 161 211 254 316 374
#     4  12  24  46  68  88 124 170 220 264 320 378
#     4  11  24  41  61  91 129 169 205 257 317 377
#     4  12  23  38  62  95 132 168 203 255 317 382
#     4  12  23  41  65  93 125 163 213 259 311 375
#     4  11  23  40  68  91 121 166 212 262 311 373
#     4  10  22  39  60  98 124 154 206 268 314 369
#
# _framework density 17.145222
#
# number of rings (size 3 to 8) (size 9 to 14) (size 15 to 20)
#    0.000    0.696    7.826    1.043    0.000    1.043 
#    0.000    0.000    0.000    0.000    0.000    0.000 
#    0.000    0.000    0.000    0.000    0.000    0.000 
#
# Total GULP energy -513992.486058 kJ/mol
# GULP energy per Si atom -5586.874848 kJ/mol
# Density = 1.710620 g / cm^3
# Si number density = 17.145222 Si / 1000 Ang^3
#
#
#
# Elastic Constant Matrix: (Units=GPa)
#
#
# Indices 1 2 3 4 5 6 
#
# 1 113.5022 59.0731 47.5869 0.0000 0.0000 0.0000
# 2 59.0731 113.4995 47.5871 0.0000 0.0000 0.0000
# 3 47.5869 47.5871 81.2635 0.0000 0.0000 0.0000
# 4 0.0000 0.0000 0.0000 26.4600 0.0000 0.0000
# 5 0.0000 0.0000 0.0000 0.0000 26.4662 0.0000
# 6 0.0000 0.0000 0.0000 0.0000 0.0000 26.9352
#
#
#
# Elastic Compliance Matrix: (Units=1/GPa)
#
#
# Indices 1 2 3 4 5 6 
#
# 1 0.013466 -0.004907 -0.005012 0.000000 0.000000 0.000000
# 2 -0.004907 0.013466 -0.005012 0.000000 0.000000 0.000000
# 3 -0.005012 -0.005012 0.018175 0.000000 0.000000 0.000000
# 4 0.000000 0.000000 0.000000 0.037793 0.000000 0.000000
# 5 0.000000 0.000000 0.000000 0.000000 0.037784 0.000000
# 6 0.000000 0.000000 0.000000 0.000000 0.000000 0.037126
#
#
# Mechanical properties :
#
#
# Convention : Reuss Voigt Hill
#
# Bulk Modulus (GPa) = 65.59395 68.52883 67.06139
# Shear Modulus (GPa) = 25.93985 26.24015 26.09000
#
# Velocity S-wave (km/s) = 3.89388 3.91636 3.90514
# Velocity P-wave (km/s) = 7.65228 7.77862 7.71571
#
# Compressibility (1/GPa) = 0.01524531
#
# Stress axis : x y z
#
# Youngs Moduli (GPa) = 74.26348 74.26083 55.01938
#
# Poissons Ratio (x) = 0.36441 0.27574
# Poissons Ratio (y) = 0.36442 0.27576
# Poissons Ratio (z) = 0.37218 0.37220
#
# Static dielectric constant tensor:
#      x y z
#    x 1.552690 0.000000 0.000000 
#    y 0.000000 1.552680 0.000000 
#    z 0.000000 0.000000 1.563920 
# 
# From -- ./inp_files/7659.got.cif
#   From: 2010.05.17/outbox.cif.g08.bks.cpg/sg142_4_cif.got.tgz:7659.got - 2010.05.20 13:39:18.
