data_PCOD9573572
_publ_section_title
;
Structure prediction by ZEFSAII (Michael W. Deem and Ramdas Pophale) SiO2 
 PCOD9573572
Probable space group: I 41/A C D
;
_chemical_formula_sum "Si O2"
_cell_formula_units_Z 184
_cell_length_a 23.425743
_cell_length_b 23.425743
_cell_length_c 18.112483
_cell_angle_alpha 90.000000
_cell_angle_beta 90.000000
_cell_angle_gamma 90.000000
_cell_volume 9939.504614
_symmetry_space_group_name_H-M "I 41/A C D"
_symmetry_group_IT_number 142
_space_group.IT_coordinate_system_code '2'
_symmetry_cell_setting 'tetragonal'
loop_
_space_group_symop_operation_xyz
x,y,z
1/4-y,3/4+x,1/4+z
-x,1/2-y,z
1/4+y,1/4-x,3/4+z
x,-y,1/2-z
1/2-x,y,-z
3/4+y,1/4+x,1/4-z
1/4-y,1/4-x,1/4-z
-x,-y,-z
3/4+y,1/4-x,3/4-z
x,1/2+y,-z
3/4-y,3/4+x,1/4-z
-x,y,1/2+z
1/2+x,-y,z
1/4-y,3/4-x,3/4+z
3/4+y,3/4+x,3/4+z
1/2+x,1/2+y,1/2+z
3/4-y,1/4+x,3/4+z
1/2-x,-y,1/2+z
3/4+y,3/4-x,1/4+z
1/2+x,1/2-y,-z
-x,1/2+y,1/2-z
1/4+y,3/4+x,3/4-z
3/4-y,3/4-x,3/4-z
1/2-x,1/2-y,1/2-z
1/4+y,3/4-x,1/4-z
1/2+x,y,1/2-z
1/4-y,1/4+x,3/4-z
1/2-x,1/2+y,z
x,1/2-y,1/2+z
3/4-y,1/4-x,1/4+z
1/4+y,1/4+x,1/4+z
loop_
_atom_site_type_symbol
_atom_site_label
_atom_site_fract_x
_atom_site_fract_y
_atom_site_fract_z
Si Si1 0.731698 0.518303 0.125000
Si Si2 0.813374 0.640364 0.471557
Si Si3 0.079632 0.654168 0.655669
Si Si4 0.993706 0.419877 0.927310
Si Si5 0.951738 0.965809 0.923413
Si Si6 0.245928 0.417374 0.728032
Si Si7 0.000000 0.250000 0.375000
O O1 0.730776 0.562545 0.192692
O O2 0.726278 0.456292 0.164305
O O3 0.750000 0.653849 0.500000
O O4 0.860852 0.661566 0.527854
O O5 0.817566 0.671630 0.392978
O O6 0.818138 0.571674 0.471073
O O7 0.138051 0.688891 0.641752
O O8 0.049131 0.618371 0.590986
O O9 0.034013 0.703912 0.672826
O O10 0.005351 0.484059 0.898991
O O11 0.980061 0.426777 0.014089
O O12 0.899369 0.999481 0.962908
#
# Coordination Sequence:
#
# PCOD9573572 Si02
#       7
#    16  32  32  32  32  32   8
#     4  10  20  30  52  86 120 167 200 241 304 396
#     4  12  19  33  61  95 122 155 199 266 317 375
#     4  10  20  38  60  87 116 162 208 258 309 370
#     4  10  22  35  59  87 122 156 205 253 313 372
#     4  11  21  35  57  95 123 154 199 266 317 369
#     4  11  19  33  53  86 126 157 205 249 309 376
#     4   8  20  40  60  82 112 168 220 246 300 380
#
# _framework density 18.511990000000001
#
# number of rings (size 3 to 8) (size 9 to 14) (size 15 to 20)
#    0.000    1.391    6.957    0.000    0.000    0.000 
#    0.000    0.000    0.000   38.609    0.000    0.000 
#    0.000    0.000    0.000    0.000    0.000    0.000 
#
# Total GULP energy -512871.709798 kJ/mol
# GULP energy per Si atom -5574.692498 kJ/mol
# Density = 1.846986 g / cm^3
# Si number density = 18.511990 Si / 1000 Ang^3
#
#
#
# Elastic Constant Matrix: (Units=GPa)
#
#
# Indices 1 2 3 4 5 6 
#
# 1 75.3820 24.7102 27.1861 0.0000 0.0000 0.0000
# 2 24.7102 75.3810 27.1858 0.0000 0.0000 0.0000
# 3 27.1861 27.1858 73.9425 0.0000 0.0000 0.0000
# 4 0.0000 0.0000 0.0000 26.7688 0.0000 0.0000
# 5 0.0000 0.0000 0.0000 0.0000 26.7686 0.0000
# 6 0.0000 0.0000 0.0000 0.0000 0.0000 24.7928
#
#
#
# Elastic Compliance Matrix: (Units=1/GPa)
#
#
# Indices 1 2 3 4 5 6 
#
# 1 0.016110 -0.003625 -0.004590 0.000000 0.000000 0.000000
# 2 -0.003625 0.016110 -0.004590 0.000000 0.000000 0.000000
# 3 -0.004590 -0.004590 0.016899 0.000000 0.000000 0.000000
# 4 0.000000 0.000000 0.000000 0.037357 0.000000 0.000000
# 5 0.000000 0.000000 0.000000 0.000000 0.037357 0.000000
# 6 0.000000 0.000000 0.000000 0.000000 0.000000 0.040334
#
#
# Mechanical properties :
#
#
# Convention : Reuss Voigt Hill
#
# Bulk Modulus (GPa) = 42.53936 42.54108 42.54022
# Shear Modulus (GPa) = 25.30192 25.37427 25.33810
#
# Velocity S-wave (km/s) = 3.70102 3.70631 3.70366
# Velocity P-wave (km/s) = 6.42593 6.43007 6.42800
#
# Compressibility (1/GPa) = 0.02350764
#
# Stress axis : x y z
#
# Youngs Moduli (GPa) = 62.07511 62.07439 59.17458
#
# Poissons Ratio (x) = 0.22504 0.27161
# Poissons Ratio (y) = 0.22505 0.27161
# Poissons Ratio (z) = 0.28492 0.28492
#
# Static dielectric constant tensor:
#      x y z
#    x 1.675870 0.000000 0.000000 
#    y 0.000000 1.675870 0.000000 
#    z 0.000000 0.000000 1.649950 
# 
# From -- ./inp_files/7669.got.cif
#   From: 2010.05.17/outbox.cif.g08.bks.cpg/sg142_4_cif.got.tgz:7669.got - 2010.05.20 13:39:18.
