data_PCOD9573240
_publ_section_title
;
Structure prediction by ZEFSAII (Michael W. Deem and Ramdas Pophale) SiO2 
 PCOD9573240
Probable space group: I 41/A M D
;
_chemical_formula_sum "Si O2"
_cell_formula_units_Z 112
_cell_length_a 28.853137
_cell_length_b 28.853137
_cell_length_c 6.143202
_cell_angle_alpha 90.000000
_cell_angle_beta 90.000000
_cell_angle_gamma 90.000000
_cell_volume 5114.237257
_symmetry_space_group_name_H-M "I 41/A M D"
_symmetry_group_IT_number 141
_space_group.IT_coordinate_system_code '2'
_symmetry_cell_setting 'tetragonal'
loop_
_space_group_symop_operation_xyz
x,y,z
1/4-y,3/4+x,1/4+z
-x,1/2-y,z
1/4+y,1/4-x,3/4+z
x,-y,-z
-x,1/2+y,-z
1/4+y,3/4+x,1/4-z
1/4-y,1/4-x,3/4-z
-x,-y,-z
3/4+y,1/4-x,3/4-z
x,1/2+y,-z
3/4-y,3/4+x,1/4-z
-x,y,z
x,1/2-y,z
3/4-y,1/4-x,3/4+z
3/4+y,3/4+x,1/4+z
1/2+x,1/2+y,1/2+z
3/4-y,1/4+x,3/4+z
1/2-x,-y,1/2+z
3/4+y,3/4-x,1/4+z
1/2+x,1/2-y,1/2-z
1/2-x,y,1/2-z
3/4+y,1/4+x,3/4-z
3/4-y,3/4-x,1/4-z
1/2-x,1/2-y,1/2-z
1/4+y,3/4-x,1/4-z
1/2+x,y,1/2-z
1/4-y,1/4+x,3/4-z
1/2-x,1/2+y,1/2+z
1/2+x,-y,1/2+z
1/4-y,3/4-x,1/4+z
1/4+y,1/4+x,3/4+z
loop_
_atom_site_type_symbol
_atom_site_label
_atom_site_fract_x
_atom_site_fract_y
_atom_site_fract_z
Si Si1 0.370868 0.196387 0.098485
Si Si2 0.052339 0.039138 0.684383
Si Si3 0.379681 0.567020 0.528353
Si Si4 0.298695 0.048695 0.125000
O O1 0.418043 0.168043 0.125000
O O2 0.377939 0.250000 0.045596
O O3 0.338711 0.193854 0.313807
O O4 0.341706 0.170074 0.914531
O O5 0.000000 0.035163 0.776433
O O6 0.056755 0.000000 0.500000
O O7 0.093377 0.035008 0.855550
O O8 0.353014 0.603014 0.375000
O O9 0.340817 0.550874 0.701564
O O10 0.250000 0.051324 0.250000
#
# Coordination Sequence:
#
# PCOD9573240 Si02
#       4
#    32  32  32  16
#     4  11  23  44  70 108 151 193 249 305 368 440
#     4  10  23  44  73 110 148 189 246 311 373 438
#     4  12  24  47  75 105 143 195 247 301 363 437
#     4  12  32  54  72 108 149 196 242 300 371 450
#
# _framework density 21.899647999999999
#
# number of rings (size 3 to 8) (size 9 to 14) (size 15 to 20)
#    0.000    0.857    4.286    0.857    2.000    8.286 
#    0.000    4.286    0.000    2.571    0.000    0.000 
#    0.000    0.000    0.000    0.000    0.000    0.000 
#
# Total GULP energy -313607.835562 kJ/mol
# GULP energy per Si atom -5600.139921 kJ/mol
# Density = 2.184980 g / cm^3
# Si number density = 21.899648 Si / 1000 Ang^3
#
#
#
# Elastic Constant Matrix: (Units=GPa)
#
#
# Indices 1 2 3 4 5 6 
#
# 1 141.8617 107.3559 70.7991 0.0000 0.0000 0.0000
# 2 107.3559 141.8617 70.7991 0.0000 0.0000 0.0000
# 3 70.7991 70.7991 107.6899 0.0000 0.0000 0.0000
# 4 0.0000 0.0000 0.0000 23.2990 0.0000 0.0000
# 5 0.0000 0.0000 0.0000 0.0000 23.2990 0.0000
# 6 0.0000 0.0000 0.0000 0.0000 0.0000 35.2668
#
#
#
# Elastic Compliance Matrix: (Units=1/GPa)
#
#
# Indices 1 2 3 4 5 6 
#
# 1 0.017693 -0.011288 -0.004211 0.000000 0.000000 0.000000
# 2 -0.011288 0.017693 -0.004211 0.000000 0.000000 0.000000
# 3 -0.004211 -0.004211 0.014823 0.000000 0.000000 0.000000
# 4 0.000000 0.000000 0.000000 0.042920 0.000000 0.000000
# 5 0.000000 0.000000 0.000000 0.000000 0.042920 0.000000
# 6 0.000000 0.000000 0.000000 0.000000 0.000000 0.028355
#
#
# Mechanical properties :
#
#
# Convention : Reuss Voigt Hill
#
# Bulk Modulus (GPa) = 92.68520 98.81349 95.74934
# Shear Modulus (GPa) = 24.10566 25.87023 24.98795
#
# Velocity S-wave (km/s) = 3.32133 3.44074 3.38156
# Velocity P-wave (km/s) = 7.55797 7.81050 7.68527
#
# Compressibility (1/GPa) = 0.01078921
#
# Stress axis : x y z
#
# Youngs Moduli (GPa) = 56.51997 56.51997 67.46391
#
# Poissons Ratio (x) = 0.63799 0.28409
# Poissons Ratio (y) = 0.63799 0.28409
# Poissons Ratio (z) = 0.23800 0.23800
#
# Static dielectric constant tensor:
#      x y z
#    x 1.799120 0.000000 0.000000 
#    y 0.000000 1.799120 0.000000 
#    z 0.000000 0.000000 1.827170 
# 
# From -- ./inp_files/1284.got.cif
#   From: 2010.05.17/outbox.cif.g08.bks.cpg/sg141_1_cif.got.tgz:1284.got - 2010.05.20 13:30:51.
