data_PCOD9573220
_publ_section_title
;
Structure prediction by ZEFSAII (Michael W. Deem and Ramdas Pophale) SiO2 
 PCOD9573220
Probable space group: I 41/A M D
;
_chemical_formula_sum "Si O2"
_cell_formula_units_Z 72
_cell_length_a 13.431254
_cell_length_b 13.431254
_cell_length_c 13.991899
_cell_angle_alpha 90.000000
_cell_angle_beta 90.000000
_cell_angle_gamma 90.000000
_cell_volume 2524.118767
_symmetry_space_group_name_H-M "I 41/A M D"
_symmetry_group_IT_number 141
_space_group.IT_coordinate_system_code '2'
_symmetry_cell_setting 'tetragonal'
loop_
_space_group_symop_operation_xyz
x,y,z
1/4-y,3/4+x,1/4+z
-x,1/2-y,z
1/4+y,1/4-x,3/4+z
x,-y,-z
-x,1/2+y,-z
1/4+y,3/4+x,1/4-z
1/4-y,1/4-x,3/4-z
-x,-y,-z
3/4+y,1/4-x,3/4-z
x,1/2+y,-z
3/4-y,3/4+x,1/4-z
-x,y,z
x,1/2-y,z
3/4-y,1/4-x,3/4+z
3/4+y,3/4+x,1/4+z
1/2+x,1/2+y,1/2+z
3/4-y,1/4+x,3/4+z
1/2-x,-y,1/2+z
3/4+y,3/4-x,1/4+z
1/2+x,1/2-y,1/2-z
1/2-x,y,1/2-z
3/4+y,1/4+x,3/4-z
3/4-y,3/4-x,1/4-z
1/2-x,1/2-y,1/2-z
1/4+y,3/4-x,1/4-z
1/2+x,y,1/2-z
1/4-y,1/4+x,3/4-z
1/2-x,1/2+y,1/2+z
1/2+x,-y,1/2+z
1/4-y,3/4-x,1/4+z
1/4+y,1/4+x,3/4+z
loop_
_atom_site_type_symbol
_atom_site_label
_atom_site_fract_x
_atom_site_fract_y
_atom_site_fract_z
Si Si1 0.000000 0.250000 0.168071
Si Si2 0.390597 0.382020 0.512717
Si Si3 0.366649 0.412088 0.230404
O O1 0.914716 0.160979 0.193097
O O2 0.394392 0.500000 0.500000
O O3 0.500000 0.343038 0.475581
O O4 0.390876 0.359125 0.625000
O O5 0.278925 0.352206 0.481878
O O6 0.250000 0.415545 0.250000
O O7 0.381647 0.368354 0.125000
#
# Coordination Sequence:
#
# PCOD9573220 Si02
#       3
#     8  32  32
#     4  12  27  44  72  94 138 188 251 302 353 414
#     4  10  22  42  72 105 152 193 235 291 364 445
#     4  11  23  45  71 104 142 187 243 300 360 432
#
# _framework density 28.524806000000002
#
# number of rings (size 3 to 8) (size 9 to 14) (size 15 to 20)
#    0.000    1.333    0.000    8.000    3.111    0.444 
#    4.000    0.000    4.889    0.000    0.000    0.000 
#    0.000    0.000    0.000    0.000    0.000    0.000 
#
# Total GULP energy -200622.877904 kJ/mol
# GULP energy per Si atom -5572.857720 kJ/mol
# Density = 2.845988 g / cm^3
# Si number density = 28.524806 Si / 1000 Ang^3
#
#
#
# Elastic Constant Matrix: (Units=GPa)
#
#
# Indices 1 2 3 4 5 6 
#
# 1 295.2526 35.8748 -25.7283 0.0000 0.0000 0.0000
# 2 35.8748 295.2504 -25.7287 0.0001 0.0000 0.0000
# 3 -25.7283 -25.7287 84.9004 0.0001 0.0000 0.0000
# 4 0.0000 0.0001 0.0001-1969.8393 -0.0020 0.0006
# 5 0.0000 0.0000 0.0000 -0.0020-1975.1427 -0.0013
# 6 0.0000 0.0000 0.0000 0.0006 -0.0013 923.9812
#
#
#
# Elastic Compliance Matrix: (Units=1/GPa)
#
#
# Indices 1 2 3 4 5 6 
#
# 1 0.003512 -0.000343 0.000960 0.000000 0.000000 0.000000
# 2 -0.000343 0.003512 0.000960 0.000000 0.000000 0.000000
# 3 0.000960 0.000960 0.012361 0.000000 0.000000 0.000000
# 4 0.000000 0.000000 0.000000 -0.000508 0.000000 0.000000
# 5 0.000000 0.000000 0.000000 0.000000 -0.000506 0.000000
# 6 0.000000 0.000000 0.000000 0.000000 0.000000 0.001082
#
#
# Mechanical properties :
#
#
# Convention : Reuss Voigt Hill
#
# Bulk Modulus (GPa) = 44.36406 71.58212 57.97309
# Shear Modulus (GPa) = 209.98135 -558.13446 -174.07656
#
# Velocity S-wave (km/s) = 8.58914 -14.00325 -7.82041
# Velocity P-wave (km/s) = 10.67479 15.37224 7.82159
#
# Compressibility (1/GPa) = 0.02254077
#
# Stress axis : x y z
#
# Youngs Moduli (GPa) = 284.71328 284.71081 80.90219
#
# Poissons Ratio (x) = 0.09768 -0.07770
# Poissons Ratio (y) = 0.09768 -0.07770
# Poissons Ratio (z) = -0.27344 -0.27345
#
# Static dielectric constant tensor:
#      x y z
#    x 2.179250 0.000000 0.000000 
#    y 0.000000 2.179260 0.000000 
#    z 0.000000 0.000000 2.692290 
# 
# From -- ./inp_files/7436.got.cif
#   From: 2010.05.17/outbox.cif.g08.bks.cpg/sg141_4_cif.got.tgz:7436.got - 2010.05.20 13:30:51.
