data_PCOD9573506
_publ_section_title
;
Structure prediction by ZEFSAII (Michael W. Deem and Ramdas Pophale) SiO2 
 PCOD9573506
Probable space group: I 41/A C D
;
_chemical_formula_sum "Si O2"
_cell_formula_units_Z 96
_cell_length_a 21.914755
_cell_length_b 21.914755
_cell_length_c 8.604643
_cell_angle_alpha 90.000000
_cell_angle_beta 90.000000
_cell_angle_gamma 90.000000
_cell_volume 4132.435617
_symmetry_space_group_name_H-M "I 41/A C D"
_symmetry_group_IT_number 142
_space_group.IT_coordinate_system_code '2'
_symmetry_cell_setting 'tetragonal'
loop_
_space_group_symop_operation_xyz
x,y,z
1/4-y,3/4+x,1/4+z
-x,1/2-y,z
1/4+y,1/4-x,3/4+z
x,-y,1/2-z
1/2-x,y,-z
3/4+y,1/4+x,1/4-z
1/4-y,1/4-x,1/4-z
-x,-y,-z
3/4+y,1/4-x,3/4-z
x,1/2+y,-z
3/4-y,3/4+x,1/4-z
-x,y,1/2+z
1/2+x,-y,z
1/4-y,3/4-x,3/4+z
3/4+y,3/4+x,3/4+z
1/2+x,1/2+y,1/2+z
3/4-y,1/4+x,3/4+z
1/2-x,-y,1/2+z
3/4+y,3/4-x,1/4+z
1/2+x,1/2-y,-z
-x,1/2+y,1/2-z
1/4+y,3/4+x,3/4-z
3/4-y,3/4-x,3/4-z
1/2-x,1/2-y,1/2-z
1/4+y,3/4-x,1/4-z
1/2+x,y,1/2-z
1/4-y,1/4+x,3/4-z
1/2-x,1/2+y,z
x,1/2-y,1/2+z
3/4-y,1/4-x,1/4+z
1/4+y,1/4+x,1/4+z
loop_
_atom_site_type_symbol
_atom_site_label
_atom_site_fract_x
_atom_site_fract_y
_atom_site_fract_z
Si Si1 0.310708 0.336352 0.040201
Si Si2 0.807183 0.293351 0.102444
Si Si3 0.921155 0.188402 0.388610
O O1 0.304774 0.315083 0.221058
O O2 0.381887 0.353368 0.036794
O O3 0.250000 0.375405 0.000000
O O4 0.305030 0.279539 0.921355
O O5 0.750000 0.317327 0.000000
O O6 0.870950 0.309038 0.022164
O O7 0.924361 0.257523 0.321024
#
# Coordination Sequence:
#
# PCOD9573506 Si02
#       3
#    32  32  32
#     4  10  19  34  52  77 112 152 194 242 298 368
#     4  10  19  34  52  77 111 153 194 241 300 367
#     4   9  19  36  57  84 118 157 203 261 319 367
#
# _framework density 23.230851000000001
#
# number of rings (size 3 to 8) (size 9 to 14) (size 15 to 20)
#    0.000    2.333    0.000    5.000    0.000    0.000 
#    0.000   86.667    0.000    0.000    0.000    9.333 
#    0.000    2.667    0.000    0.000    0.000    0.000 
#
# Total GULP energy -267353.687575 kJ/mol
# GULP energy per Si atom -5569.868491 kJ/mol
# Density = 2.317798 g / cm^3
# Si number density = 23.230851 Si / 1000 Ang^3
#
#
#
# Elastic Constant Matrix: (Units=GPa)
#
#
# Indices 1 2 3 4 5 6 
#
# 1 143.1282 39.8277 44.5474 0.0000 0.0000 0.0000
# 2 39.8277 143.1282 44.5474 0.0000 0.0000 0.0000
# 3 44.5474 44.5474 145.6641 0.0000 0.0000 0.0000
# 4 0.0000 0.0000 0.0000 43.6780 0.0000 0.0000
# 5 0.0000 0.0000 0.0000 0.0000 43.6780 0.0000
# 6 0.0000 0.0000 0.0000 0.0000 0.0000 17.7022
#
#
#
# Elastic Compliance Matrix: (Units=1/GPa)
#
#
# Indices 1 2 3 4 5 6 
#
# 1 0.008051 -0.001629 -0.001964 0.000000 0.000000 0.000000
# 2 -0.001629 0.008051 -0.001964 0.000000 0.000000 0.000000
# 3 -0.001964 -0.001964 0.008066 0.000000 0.000000 0.000000
# 4 0.000000 0.000000 0.000000 0.022895 0.000000 0.000000
# 5 0.000000 0.000000 0.000000 0.000000 0.022895 0.000000
# 6 0.000000 0.000000 0.000000 0.000000 0.000000 0.056490
#
#
# Mechanical properties :
#
#
# Convention : Reuss Voigt Hill
#
# Bulk Modulus (GPa) = 76.60110 76.64061 76.62085
# Shear Modulus (GPa) = 35.23234 41.21151 38.22192
#
# Velocity S-wave (km/s) = 3.89860 4.21646 4.06064
# Velocity P-wave (km/s) = 7.30143 7.53440 7.41883
#
# Compressibility (1/GPa) = 0.01305464
#
# Stress axis : x y z
#
# Youngs Moduli (GPa) = 124.20240 124.20240 123.97069
#
# Poissons Ratio (x) = 0.20234 0.24349
# Poissons Ratio (y) = 0.20234 0.24349
# Poissons Ratio (z) = 0.24394 0.24394
#
# Static dielectric constant tensor:
#      x y z
#    x 1.994140 0.000000 0.000000 
#    y 0.000000 1.994140 0.000000 
#    z 0.000000 0.000000 1.940930 
# 
# From -- ./inp_files/1588.got.cif
#   From: 2010.05.17/outbox.cif.g08.bks.cpg/sg142_1_cif.got.tgz:1588.got - 2010.05.20 13:39:18.
