data_PCOD9573166
_publ_section_title
;
Structure prediction by ZEFSAII (Michael W. Deem and Ramdas Pophale) SiO2 
 PCOD9573166
Probable space group: I 41/A M D
;
_chemical_formula_sum "Si O2"
_cell_formula_units_Z 136
_cell_length_a 17.490302
_cell_length_b 17.490302
_cell_length_c 21.045544
_cell_angle_alpha 90.000000
_cell_angle_beta 90.000000
_cell_angle_gamma 90.000000
_cell_volume 6438.056340
_symmetry_space_group_name_H-M "I 41/A M D"
_symmetry_group_IT_number 141
_space_group.IT_coordinate_system_code '2'
_symmetry_cell_setting 'tetragonal'
loop_
_space_group_symop_operation_xyz
x,y,z
1/4-y,3/4+x,1/4+z
-x,1/2-y,z
1/4+y,1/4-x,3/4+z
x,-y,-z
-x,1/2+y,-z
1/4+y,3/4+x,1/4-z
1/4-y,1/4-x,3/4-z
-x,-y,-z
3/4+y,1/4-x,3/4-z
x,1/2+y,-z
3/4-y,3/4+x,1/4-z
-x,y,z
x,1/2-y,z
3/4-y,1/4-x,3/4+z
3/4+y,3/4+x,1/4+z
1/2+x,1/2+y,1/2+z
3/4-y,1/4+x,3/4+z
1/2-x,-y,1/2+z
3/4+y,3/4-x,1/4+z
1/2+x,1/2-y,1/2-z
1/2-x,y,1/2-z
3/4+y,1/4+x,3/4-z
3/4-y,3/4-x,1/4-z
1/2-x,1/2-y,1/2-z
1/4+y,3/4-x,1/4-z
1/2+x,y,1/2-z
1/4-y,1/4+x,3/4-z
1/2-x,1/2+y,1/2+z
1/2+x,-y,1/2+z
1/4-y,3/4-x,1/4+z
1/4+y,1/4+x,3/4+z
loop_
_atom_site_type_symbol
_atom_site_label
_atom_site_fract_x
_atom_site_fract_y
_atom_site_fract_z
Si Si1 0.159607 0.666023 0.736007
Si Si2 0.737290 0.841055 0.951316
Si Si3 0.294600 0.838150 0.406924
Si Si4 0.000000 0.250000 0.077479
Si Si5 0.623173 0.132518 0.874450
O O1 0.144200 0.750000 0.708526
O O2 0.250000 0.661179 0.750000
O O3 0.132317 0.593453 0.697291
O O4 0.114679 0.657402 0.803162
O O5 0.726632 0.750000 0.949051
O O6 0.795617 0.866617 0.897792
O O7 0.776269 0.859202 0.019736
O O8 0.354601 0.895400 0.375000
O O9 0.321465 0.750000 0.404828
O O10 0.211351 0.843023 0.373789
O O11 0.933680 0.317201 0.082462
#
# Coordination Sequence:
#
# PCOD9573166 Si02
#       5
#    32  32  32   8  32
#     4  10  22  37  59  90 123 163 203 244 310 376
#     4  10  22  38  60  90 119 158 203 259 310 356
#     4  10  23  41  59  87 122 160 206 249 320 373
#     4  12  20  40  66  94 121 165 212 262 294 356
#     4  11  22  39  64  92 122 158 210 262 301 365
#
# _framework density 21.124389000000001
#
# number of rings (size 3 to 8) (size 9 to 14) (size 15 to 20)
#    0.000    1.647    3.529    0.000    8.235    0.706 
#    2.118    1.176    0.000    0.000    0.000    3.294 
#    0.000    0.000    0.000    0.000    0.000    0.000 
#
# Total GULP energy -379182.265958 kJ/mol
# GULP energy per Si atom -5576.209794 kJ/mol
# Density = 2.107631 g / cm^3
# Si number density = 21.124389 Si / 1000 Ang^3
#
#
#
# Elastic Constant Matrix: (Units=GPa)
#
#
# Indices 1 2 3 4 5 6 
#
# 1 104.4922 40.8474 26.0404 0.0000 0.0000 0.0000
# 2 40.8474 104.4931 26.0393 0.0000 0.0000 0.0000
# 3 26.0404 26.0393 55.0648 0.0000 0.0000 0.0000
# 4 0.0000 0.0000 0.0000 28.9230 0.0000 0.0000
# 5 0.0000 0.0000 0.0000 0.0000 28.9251 0.0000
# 6 0.0000 0.0000 0.0000 0.0000 0.0000 53.8382
#
#
#
# Elastic Compliance Matrix: (Units=1/GPa)
#
#
# Indices 1 2 3 4 5 6 
#
# 1 0.011998 -0.003714 -0.003918 0.000000 0.000000 0.000000
# 2 -0.003714 0.011998 -0.003917 0.000000 0.000000 0.000000
# 3 -0.003918 -0.003917 0.021866 0.000000 0.000000 0.000000
# 4 0.000000 0.000000 0.000000 0.034575 0.000000 0.000000
# 5 0.000000 0.000000 0.000000 0.000000 0.034572 0.000000
# 6 0.000000 0.000000 0.000000 0.000000 0.000000 0.018574
#
#
# Mechanical properties :
#
#
# Convention : Reuss Voigt Hill
#
# Bulk Modulus (GPa) = 43.92942 49.98935 46.95938
# Shear Modulus (GPa) = 30.43794 33.74546 32.09170
#
# Velocity S-wave (km/s) = 3.80002 4.00117 3.90189
# Velocity P-wave (km/s) = 6.33201 6.71278 6.52517
#
# Compressibility (1/GPa) = 0.02276379
#
# Stress axis : x y z
#
# Youngs Moduli (GPa) = 83.34535 83.34716 45.73395
#
# Poissons Ratio (x) = 0.30955 0.17918
# Poissons Ratio (y) = 0.30954 0.17915
# Poissons Ratio (z) = 0.32653 0.32650
#
# Static dielectric constant tensor:
#      x y z
#    x 1.745420 0.000000 0.000000 
#    y 0.000000 1.745420 0.000000 
#    z 0.000000 0.000000 1.801470 
# 
# From -- ./inp_files/10092.got.cif
#   From: 2010.05.17/outbox.cif.g08.bks.cpg/sg141_6_cif.got.tgz:10092.got - 2010.05.20 13:30:51.
