data_PCOD9573464
_publ_section_title
;
Structure prediction by ZEFSAII (Michael W. Deem and Ramdas Pophale) SiO2 
 PCOD9573464
Probable space group: I 41/A C D
;
_chemical_formula_sum "Si O2"
_cell_formula_units_Z 96
_cell_length_a 14.152450
_cell_length_b 14.152450
_cell_length_c 18.971934
_cell_angle_alpha 90.000000
_cell_angle_beta 90.000000
_cell_angle_gamma 90.000000
_cell_volume 3799.923588
_symmetry_space_group_name_H-M "I 41/A C D"
_symmetry_group_IT_number 142
_space_group.IT_coordinate_system_code '2'
_symmetry_cell_setting 'tetragonal'
loop_
_space_group_symop_operation_xyz
x,y,z
1/4-y,3/4+x,1/4+z
-x,1/2-y,z
1/4+y,1/4-x,3/4+z
x,-y,1/2-z
1/2-x,y,-z
3/4+y,1/4+x,1/4-z
1/4-y,1/4-x,1/4-z
-x,-y,-z
3/4+y,1/4-x,3/4-z
x,1/2+y,-z
3/4-y,3/4+x,1/4-z
-x,y,1/2+z
1/2+x,-y,z
1/4-y,3/4-x,3/4+z
3/4+y,3/4+x,3/4+z
1/2+x,1/2+y,1/2+z
3/4-y,1/4+x,3/4+z
1/2-x,-y,1/2+z
3/4+y,3/4-x,1/4+z
1/2+x,1/2-y,-z
-x,1/2+y,1/2-z
1/4+y,3/4+x,3/4-z
3/4-y,3/4-x,3/4-z
1/2-x,1/2-y,1/2-z
1/4+y,3/4-x,1/4-z
1/2+x,y,1/2-z
1/4-y,1/4+x,3/4-z
1/2-x,1/2+y,z
x,1/2-y,1/2+z
3/4-y,1/4-x,1/4+z
1/4+y,1/4+x,1/4+z
loop_
_atom_site_type_symbol
_atom_site_label
_atom_site_fract_x
_atom_site_fract_y
_atom_site_fract_z
Si Si1 0.006234 0.599580 0.459891
Si Si2 0.194827 0.699698 0.930456
Si Si3 0.577093 0.624046 0.901700
O O1 0.902769 0.648793 0.453891
O O2 0.026860 0.583517 0.377869
O O3 0.000000 0.500000 0.500000
O O4 0.079870 0.645431 0.514203
O O5 0.275142 0.641052 0.883941
O O6 0.250000 0.727097 0.000000
O O7 0.464657 0.628986 0.885448
#
# Coordination Sequence:
#
# PCOD9573464 Si02
#       3
#    32  32  32
#     4   9  19  34  58  93 117 162 217 268 324 391
#     4  10  18  34  59  89 122 166 211 271 328 387
#     4  10  19  33  57  91 124 171 218 264 330 408
#
# _framework density 25.263665
#
# number of rings (size 3 to 8) (size 9 to 14) (size 15 to 20)
#    0.000    2.333    3.333    0.000    0.000    0.000 
#    0.000    1.667    0.000   18.000    0.000    0.000 
#    0.000    0.000    0.000    0.000    0.000    0.000 
#
# Total GULP energy -267259.965268 kJ/mol
# GULP energy per Si atom -5567.915943 kJ/mol
# Density = 2.520616 g / cm^3
# Si number density = 25.263665 Si / 1000 Ang^3
#
#
#
# Elastic Constant Matrix: (Units=GPa)
#
#
# Indices 1 2 3 4 5 6 
#
# 1 62.0920 39.8111 29.1732 0.0000 0.0000 0.0000
# 2 39.8111 62.0920 29.1732 0.0000 0.0000 0.0000
# 3 29.1732 29.1732 291.7622 0.0000 0.0000 0.0000
# 4 0.0000 0.0000 0.0000 41.1417 0.0000 0.0000
# 5 0.0000 0.0000 0.0000 0.0000 41.1417 0.0000
# 6 0.0000 0.0000 0.0000 0.0000 0.0000 3.3798
#
#
#
# Elastic Compliance Matrix: (Units=1/GPa)
#
#
# Indices 1 2 3 4 5 6 
#
# 1 0.027645 -0.017236 -0.001041 0.000000 0.000000 0.000000
# 2 -0.017236 0.027645 -0.001041 0.000000 0.000000 0.000000
# 3 -0.001041 -0.001041 0.003636 0.000000 0.000000 0.000000
# 4 0.000000 0.000000 0.000000 0.024306 0.000000 0.000000
# 5 0.000000 0.000000 0.000000 0.000000 0.024306 0.000000
# 6 0.000000 0.000000 0.000000 0.000000 0.000000 0.295880
#
#
# Mechanical properties :
#
#
# Convention : Reuss Voigt Hill
#
# Bulk Modulus (GPa) = 49.28365 68.02902 58.65633
# Shear Modulus (GPa) = 11.14039 38.31854 24.72946
#
# Velocity S-wave (km/s) = 2.10219 3.89877 3.13206
# Velocity P-wave (km/s) = 5.04404 6.87410 6.02891
#
# Compressibility (1/GPa) = 0.02029071
#
# Stress axis : x y z
#
# Youngs Moduli (GPa) = 36.17253 36.17253 275.05854
#
# Poissons Ratio (x) = 0.62347 0.28628
# Poissons Ratio (y) = 0.62347 0.28628
# Poissons Ratio (z) = 0.03765 0.03765
#
# Static dielectric constant tensor:
#      x y z
#    x 2.082360 0.000000 0.000000 
#    y 0.000000 2.082360 0.000000 
#    z 0.000000 0.000000 2.202830 
# 
# From -- ./inp_files/8543.got.cif
#   From: 2010.05.17/outbox.cif.g08.bks.cpg/sg142_5_cif.got.tgz:8543.got - 2010.05.20 13:39:18.
