data_PCOD9573724
_publ_section_title
;
Structure prediction by ZEFSAII (Michael W. Deem and Ramdas Pophale) SiO2 
 PCOD9573724
Probable space group: I 41/A C D
;
_chemical_formula_sum "Si O2"
_cell_formula_units_Z 120
_cell_length_a 26.242618
_cell_length_b 26.242618
_cell_length_c 9.224485
_cell_angle_alpha 90.000000
_cell_angle_beta 90.000000
_cell_angle_gamma 90.000000
_cell_volume 6352.672203
_symmetry_space_group_name_H-M "I 41/A C D"
_symmetry_group_IT_number 142
_space_group.IT_coordinate_system_code '2'
_symmetry_cell_setting 'tetragonal'
loop_
_space_group_symop_operation_xyz
x,y,z
1/4-y,3/4+x,1/4+z
-x,1/2-y,z
1/4+y,1/4-x,3/4+z
x,-y,1/2-z
1/2-x,y,-z
3/4+y,1/4+x,1/4-z
1/4-y,1/4-x,1/4-z
-x,-y,-z
3/4+y,1/4-x,3/4-z
x,1/2+y,-z
3/4-y,3/4+x,1/4-z
-x,y,1/2+z
1/2+x,-y,z
1/4-y,3/4-x,3/4+z
3/4+y,3/4+x,3/4+z
1/2+x,1/2+y,1/2+z
3/4-y,1/4+x,3/4+z
1/2-x,-y,1/2+z
3/4+y,3/4-x,1/4+z
1/2+x,1/2-y,-z
-x,1/2+y,1/2-z
1/4+y,3/4+x,3/4-z
3/4-y,3/4-x,3/4-z
1/2-x,1/2-y,1/2-z
1/4+y,3/4-x,1/4-z
1/2+x,y,1/2-z
1/4-y,1/4+x,3/4-z
1/2-x,1/2+y,z
x,1/2-y,1/2+z
3/4-y,1/4-x,1/4+z
1/4+y,1/4+x,1/4+z
loop_
_atom_site_type_symbol
_atom_site_label
_atom_site_fract_x
_atom_site_fract_y
_atom_site_fract_z
Si Si1 0.000000 0.750000 0.125000
Si Si2 0.710327 0.460327 0.875000
Si Si3 0.102623 0.484911 0.482145
Si Si4 0.939525 0.810476 0.375000
Si Si5 0.435625 0.426933 0.777487
Si Si6 0.471448 0.000000 0.750000
O O1 0.039449 0.721136 0.234763
O O2 0.719469 0.500000 0.750000
O O3 0.721502 0.405140 0.808699
O O4 0.089267 0.436651 0.379840
O O5 0.097827 0.536046 0.383042
O O6 0.062172 0.496174 0.607490
O O7 0.879518 0.806515 0.413480
O O8 0.490836 0.452242 0.757359
#
# Coordination Sequence:
#
# PCOD9573724 Si02
#       6
#     8  16  32  16  32  16
#     4  10  28  50  56 110 140 178 236 282 344 422
#     4  12  28  43  64  93 144 183 216 283 325 418
#     4  10  23  43  64 104 128 170 231 270 343 400
#     4  11  26  45  72  93 142 184 222 282 355 404
#     4  10  23  41  73  94 133 173 220 287 335 407
#     4  10  20  42  68 104 126 162 234 288 322 398
#
# _framework density 18.889688
#
# number of rings (size 3 to 8) (size 9 to 14) (size 15 to 20)
#    0.000    1.867    1.333    3.200   14.933    0.000 
#    0.000    0.000    0.000    0.000    0.000    0.000 
#    0.000    0.000    0.000    0.000    0.000    0.000 
#
# Total GULP energy -334491.686301 kJ/mol
# GULP energy per Si atom -5574.861438 kJ/mol
# Density = 1.884669 g / cm^3
# Si number density = 18.889688 Si / 1000 Ang^3
#
#
#
# Elastic Constant Matrix: (Units=GPa)
#
#
# Indices 1 2 3 4 5 6 
#
# 1 -472.2231 692.7592 79.1777 0.0000 0.0000 0.0000
# 2 692.7592 -472.2141 79.1812 0.0000 0.0000 0.0000
# 3 79.1777 79.1812 164.7879 0.0000 0.0000 0.0000
# 4 0.0000 0.0000 0.0000 76.1926 0.0000 0.0000
# 5 0.0000 0.0000 0.0000 0.0000 76.1867 0.0000
# 6 0.0000 0.0000 0.0000 0.0000 0.0000 8.7134
#
#
#
# Elastic Compliance Matrix: (Units=1/GPa)
#
#
# Indices 1 2 3 4 5 6 
#
# 1 0.003032 0.003891 -0.003326 0.000000 0.000000 0.000000
# 2 0.003891 0.003032 -0.003326 0.000000 0.000000 0.000000
# 3 -0.003326 -0.003326 0.009265 0.000000 0.000000 0.000000
# 4 0.000000 0.000000 0.000000 0.013125 0.000000 0.000000
# 5 0.000000 0.000000 0.000000 0.000000 0.013126 0.000000
# 6 0.000000 0.000000 0.000000 0.000000 0.000000 0.114766
#
#
# Mechanical properties :
#
#
# Convention : Reuss Voigt Hill
#
# Bulk Modulus (GPa) = 101.98713 102.50966 102.24840
# Shear Modulus (GPa) = 30.27764 -76.49931 -23.11084
#
# Velocity S-wave (km/s) = 4.00792 -6.37070 -3.50160
# Velocity P-wave (km/s) = 8.69057 0.52046 6.15617
#
# Compressibility (1/GPa) = 0.00980516
#
# Stress axis : x y z
#
# Youngs Moduli (GPa) = 329.79454 329.79088 107.93314
#
# Poissons Ratio (x) = -1.28308 0.35902
# Poissons Ratio (y) = -1.28310 0.35902
# Poissons Ratio (z) = 1.09702 1.09700
#
# Static dielectric constant tensor:
#      x y z
#    x 1.735330 0.000000 0.000000 
#    y 0.000000 1.735310 0.000000 
#    z 0.000000 0.000000 1.534060 
# 
# From -- ./inp_files/1902.got.cif
#   From: 2010.05.17/outbox.cif.g08.bks.cpg/sg142_1_cif.got.tgz:1902.got - 2010.05.20 13:39:18.
