data_PCOD9573623
_publ_section_title
;
Structure prediction by ZEFSAII (Michael W. Deem and Ramdas Pophale) SiO2 
 PCOD9573623
Probable space group: I 41/A C D
;
_chemical_formula_sum "Si O2"
_cell_formula_units_Z 184
_cell_length_a 23.257468
_cell_length_b 23.257468
_cell_length_c 18.359617
_cell_angle_alpha 90.000000
_cell_angle_beta 90.000000
_cell_angle_gamma 90.000000
_cell_volume 9930.897086
_symmetry_space_group_name_H-M "I 41/A C D"
_symmetry_group_IT_number 142
_space_group.IT_coordinate_system_code '2'
_symmetry_cell_setting 'tetragonal'
loop_
_space_group_symop_operation_xyz
x,y,z
1/4-y,3/4+x,1/4+z
-x,1/2-y,z
1/4+y,1/4-x,3/4+z
x,-y,1/2-z
1/2-x,y,-z
3/4+y,1/4+x,1/4-z
1/4-y,1/4-x,1/4-z
-x,-y,-z
3/4+y,1/4-x,3/4-z
x,1/2+y,-z
3/4-y,3/4+x,1/4-z
-x,y,1/2+z
1/2+x,-y,z
1/4-y,3/4-x,3/4+z
3/4+y,3/4+x,3/4+z
1/2+x,1/2+y,1/2+z
3/4-y,1/4+x,3/4+z
1/2-x,-y,1/2+z
3/4+y,3/4-x,1/4+z
1/2+x,1/2-y,-z
-x,1/2+y,1/2-z
1/4+y,3/4+x,3/4-z
3/4-y,3/4-x,3/4-z
1/2-x,1/2-y,1/2-z
1/4+y,3/4-x,1/4-z
1/2+x,y,1/2-z
1/4-y,1/4+x,3/4-z
1/2-x,1/2+y,z
x,1/2-y,1/2+z
3/4-y,1/4-x,1/4+z
1/4+y,1/4+x,1/4+z
loop_
_atom_site_type_symbol
_atom_site_label
_atom_site_fract_x
_atom_site_fract_y
_atom_site_fract_z
Si Si1 0.250000 0.312702 0.000000
Si Si2 0.327655 0.279949 0.340351
Si Si3 0.531076 0.354346 0.539006
Si Si4 0.705481 0.714799 0.398206
Si Si5 0.250000 0.614289 0.000000
Si Si6 0.000000 0.750000 0.125000
Si Si7 0.864219 0.321319 0.559959
Si Si8 0.336852 0.413149 0.375000
O O1 0.211695 0.270617 0.949264
O O2 0.300521 0.345304 0.958210
O O3 0.359992 0.252817 0.272213
O O4 0.258841 0.274103 0.343450
O O5 0.352875 0.243397 0.409240
O O6 0.334131 0.347934 0.346441
O O7 0.543315 0.397979 0.603995
O O8 0.492791 0.304125 0.572640
O O9 0.589123 0.327393 0.504305
O O10 0.715384 0.658735 0.448076
O O11 0.208212 0.581189 0.942723
O O12 0.892370 0.357631 0.625000
#
# Coordination Sequence:
#
# PCOD9573623 Si02
#       8
#    16  32  32  32  16   8  32  16
#     4   9  16  34  58  75 108 150 191 239 270 334
#     4   9  20  35  60  83 108 155 195 244 289 348
#     4  11  22  35  50  83 125 149 188 240 298 360
#     4   9  18  35  59  82 106 147 208 238 274 340
#     4   9  20  36  62  91 106 154 197 257 290 352
#     4  12  28  28  42  84 124 168 168 230 312 376
#     4   9  19  35  54  83 112 146 193 236 290 352
#     4  10  20  36  63  88 116 150 212 244 298 353
#
# _framework density 18.528034000000002
#
# number of rings (size 3 to 8) (size 9 to 14) (size 15 to 20)
#    0.000    2.435    0.000    2.609    4.870    0.000 
#    0.000    0.000    0.000    4.174    2.261    0.000 
#    0.000    0.000    0.000    0.000    0.000    0.000 
#
# Total GULP energy -512243.417135 kJ/mol
# GULP energy per Si atom -5567.863230 kJ/mol
# Density = 1.848586 g / cm^3
# Si number density = 18.528034 Si / 1000 Ang^3
#
#
#
# Elastic Constant Matrix: (Units=GPa)
#
#
# Indices 1 2 3 4 5 6 
#
# 1 74.3196 24.5686 36.5863 0.0000 0.0000 0.0000
# 2 24.5686 74.3212 36.5878 0.0000 0.0000 0.0000
# 3 36.5863 36.5878 92.6775 0.0000 0.0000 0.0000
# 4 0.0000 0.0000 0.0000 21.0202 0.0000 0.0000
# 5 0.0000 0.0000 0.0000 0.0000 21.0198 0.0000
# 6 0.0000 0.0000 0.0000 0.0000 0.0000 56.7203
#
#
#
# Elastic Compliance Matrix: (Units=1/GPa)
#
#
# Indices 1 2 3 4 5 6 
#
# 1 0.017193 -0.002907 -0.005639 0.000000 0.000000 0.000000
# 2 -0.002907 0.017193 -0.005640 0.000000 0.000000 0.000000
# 3 -0.005639 -0.005640 0.015243 0.000000 0.000000 0.000000
# 4 0.000000 0.000000 0.000000 0.047573 0.000000 0.000000
# 5 0.000000 0.000000 0.000000 0.000000 0.047574 0.000000
# 6 0.000000 0.000000 0.000000 0.000000 0.000000 0.017630
#
#
# Mechanical properties :
#
#
# Convention : Reuss Voigt Hill
#
# Bulk Modulus (GPa) = 47.04686 48.53376 47.79031
# Shear Modulus (GPa) = 25.26990 29.32375 27.29682
#
# Velocity S-wave (km/s) = 3.69707 3.98259 3.84249
# Velocity P-wave (km/s) = 6.60847 6.88474 6.74802
#
# Compressibility (1/GPa) = 0.02125541
#
# Stress axis : x y z
#
# Youngs Moduli (GPa) = 58.16439 58.16476 65.60439
#
# Poissons Ratio (x) = 0.16910 0.36997
# Poissons Ratio (y) = 0.16909 0.36999
# Poissons Ratio (z) = 0.32801 0.32803
#
# Static dielectric constant tensor:
#      x y z
#    x 1.659830 0.000000 0.000000 
#    y 0.000000 1.659830 0.000000 
#    z 0.000000 0.000000 1.716150 
# 
# From -- ./inp_files/7679.got.cif
#   From: 2010.05.17/outbox.cif.g08.bks.cpg/sg142_4_cif.got.tgz:7679.got - 2010.05.20 13:39:18.
