data_PCOD9573038
_publ_section_title
;
Structure prediction by ZEFSAII (Michael W. Deem and Ramdas Pophale) SiO2 
 PCOD9573038
Probable space group: I 41/A M D
;
_chemical_formula_sum "Si O2"
_cell_formula_units_Z 160
_cell_length_a 22.632227
_cell_length_b 22.632227
_cell_length_c 15.900251
_cell_angle_alpha 90.000000
_cell_angle_beta 90.000000
_cell_angle_gamma 90.000000
_cell_volume 8144.389980
_symmetry_space_group_name_H-M "I 41/A M D"
_symmetry_group_IT_number 141
_space_group.IT_coordinate_system_code '2'
_symmetry_cell_setting 'tetragonal'
loop_
_space_group_symop_operation_xyz
x,y,z
1/4-y,3/4+x,1/4+z
-x,1/2-y,z
1/4+y,1/4-x,3/4+z
x,-y,-z
-x,1/2+y,-z
1/4+y,3/4+x,1/4-z
1/4-y,1/4-x,3/4-z
-x,-y,-z
3/4+y,1/4-x,3/4-z
x,1/2+y,-z
3/4-y,3/4+x,1/4-z
-x,y,z
x,1/2-y,z
3/4-y,1/4-x,3/4+z
3/4+y,3/4+x,1/4+z
1/2+x,1/2+y,1/2+z
3/4-y,1/4+x,3/4+z
1/2-x,-y,1/2+z
3/4+y,3/4-x,1/4+z
1/2+x,1/2-y,1/2-z
1/2-x,y,1/2-z
3/4+y,1/4+x,3/4-z
3/4-y,3/4-x,1/4-z
1/2-x,1/2-y,1/2-z
1/4+y,3/4-x,1/4-z
1/2+x,y,1/2-z
1/4-y,1/4+x,3/4-z
1/2-x,1/2+y,1/2+z
1/2+x,-y,1/2+z
1/4-y,3/4-x,1/4+z
1/4+y,1/4+x,3/4+z
loop_
_atom_site_type_symbol
_atom_site_label
_atom_site_fract_x
_atom_site_fract_y
_atom_site_fract_z
Si Si1 0.570002 0.100327 0.673220
Si Si2 0.930635 0.039902 0.391441
Si Si3 0.132096 0.098291 0.238182
Si Si4 0.345074 0.998014 0.398474
Si Si5 0.568476 0.899608 0.137540
O O1 0.500000 0.093051 0.673051
O O2 0.591862 0.158139 0.625000
O O3 0.601689 0.044507 0.631008
O O4 0.592976 0.105277 0.768647
O O5 0.881813 0.069446 0.452902
O O6 0.912971 0.065359 0.299786
O O7 0.000000 0.053587 0.412484
O O8 0.925754 0.968964 0.387845
O O9 0.108184 0.151326 0.180930
O O10 0.153635 0.054481 0.163641
O O11 0.284940 0.965061 0.375000
O O12 0.347815 0.000000 0.500000
O O13 0.500000 0.886011 0.141488
#
# Coordination Sequence:
#
# PCOD9573038 Si02
#       5
#    32  32  32  32  32
#     4  10  21  40  62  86 119 157 204 261 314 368
#     4  10  22  39  60  90 126 161 215 266 305 379
#     4  11  21  36  62  90 118 167 211 250 325 374
#     4  11  24  40  56  87 131 166 205 260 314 386
#     4  10  20  39  60  83 120 160 206 259 306 373
#
# _framework density 19.645424999999999
#
# number of rings (size 3 to 8) (size 9 to 14) (size 15 to 20)
#    0.000    1.600    2.000    3.600    0.000    3.800 
#    0.000    3.000    0.000   11.400    0.000    0.000 
#    0.000    0.000    0.000    0.000    0.000    0.000 
#
# Total GULP energy -445838.829469 kJ/mol
# GULP energy per Si atom -5572.985368 kJ/mol
# Density = 1.960071 g / cm^3
# Si number density = 19.645425 Si / 1000 Ang^3
#
#
#
# Elastic Constant Matrix: (Units=GPa)
#
#
# Indices 1 2 3 4 5 6 
#
# 1 68.2904 -14.7933 30.1138 0.0000 0.0000 0.0000
# 2 -14.7933 68.3179 30.1234 0.0000 0.0000 0.0000
# 3 30.1138 30.1234 162.2739 0.0000 0.0000 0.0000
# 4 0.0000 0.0000 0.0000 12.2174 0.0000 0.0000
# 5 0.0000 0.0000 0.0000 0.0000 12.2171 0.0000
# 6 0.0000 0.0000 0.0000 0.0000 0.0000 17.6374
#
#
#
# Elastic Compliance Matrix: (Units=1/GPa)
#
#
# Indices 1 2 3 4 5 6 
#
# 1 0.017832 0.005795 -0.004385 0.000000 0.000000 0.000000
# 2 0.005795 0.017825 -0.004384 0.000000 0.000000 0.000000
# 3 -0.004385 -0.004384 0.007790 0.000000 0.000000 0.000000
# 4 0.000000 0.000000 0.000000 0.081851 0.000000 0.000000
# 5 0.000000 0.000000 0.000000 0.000000 0.081852 0.000000
# 6 0.000000 0.000000 0.000000 0.000000 0.000000 0.056698
#
#
# Mechanical properties :
#
#
# Convention : Reuss Voigt Hill
#
# Bulk Modulus (GPa) = 26.66761 43.30777 34.98769
# Shear Modulus (GPa) = 17.71186 25.31028 21.51107
#
# Velocity S-wave (km/s) = 3.00588 3.59326 3.31262
# Velocity P-wave (km/s) = 5.06469 6.26960 5.69908
#
# Compressibility (1/GPa) = 0.03749868
#
# Stress axis : x y z
#
# Youngs Moduli (GPa) = 56.07833 56.09968 128.36938
#
# Poissons Ratio (x) = -0.32508 0.56289
# Poissons Ratio (y) = -0.32496 0.56282
# Poissons Ratio (z) = 0.24590 0.24596
#
# Static dielectric constant tensor:
#      x y z
#    x 1.710140 0.000000 0.000000 
#    y 0.000000 1.710140 0.000000 
#    z 0.000000 0.000000 1.756960 
# 
# From -- ./inp_files/6597.got.cif
#   From: 2010.05.17/outbox.cif.g08.bks.cpg/sg141_4_cif.got.tgz:6597.got - 2010.05.20 13:30:51.
