data_PCOD9573560
_publ_section_title
;
Structure prediction by ZEFSAII (Michael W. Deem and Ramdas Pophale) SiO2 
 PCOD9573560
Probable space group: I 41/A C D
;
_chemical_formula_sum "Si O2"
_cell_formula_units_Z 144
_cell_length_a 20.011180
_cell_length_b 20.011180
_cell_length_c 17.123389
_cell_angle_alpha 90.000000
_cell_angle_beta 90.000000
_cell_angle_gamma 90.000000
_cell_volume 6857.015320
_symmetry_space_group_name_H-M "I 41/A C D"
_symmetry_group_IT_number 142
_space_group.IT_coordinate_system_code '2'
_symmetry_cell_setting 'tetragonal'
loop_
_space_group_symop_operation_xyz
x,y,z
1/4-y,3/4+x,1/4+z
-x,1/2-y,z
1/4+y,1/4-x,3/4+z
x,-y,1/2-z
1/2-x,y,-z
3/4+y,1/4+x,1/4-z
1/4-y,1/4-x,1/4-z
-x,-y,-z
3/4+y,1/4-x,3/4-z
x,1/2+y,-z
3/4-y,3/4+x,1/4-z
-x,y,1/2+z
1/2+x,-y,z
1/4-y,3/4-x,3/4+z
3/4+y,3/4+x,3/4+z
1/2+x,1/2+y,1/2+z
3/4-y,1/4+x,3/4+z
1/2-x,-y,1/2+z
3/4+y,3/4-x,1/4+z
1/2+x,1/2-y,-z
-x,1/2+y,1/2-z
1/4+y,3/4+x,3/4-z
3/4-y,3/4-x,3/4-z
1/2-x,1/2-y,1/2-z
1/4+y,3/4-x,1/4-z
1/2+x,y,1/2-z
1/4-y,1/4+x,3/4-z
1/2-x,1/2+y,z
x,1/2-y,1/2+z
3/4-y,1/4-x,1/4+z
1/4+y,1/4+x,1/4+z
loop_
_atom_site_type_symbol
_atom_site_label
_atom_site_fract_x
_atom_site_fract_y
_atom_site_fract_z
Si Si1 0.715682 0.652100 0.226455
Si Si2 0.858084 0.717072 0.470336
Si Si3 0.280617 0.261919 0.622703
Si Si4 0.173611 0.068874 0.216136
Si Si5 0.582856 0.167145 0.875000
O O1 0.706745 0.681482 0.313185
O O2 0.766024 0.696760 0.174282
O O3 0.758091 0.585303 0.238941
O O4 0.644826 0.656129 0.184402
O O5 0.790003 0.723853 0.419575
O O6 0.837464 0.742079 0.556840
O O7 0.872017 0.637506 0.474629
O O8 0.909235 0.764913 0.424870
O O9 0.187309 0.062692 0.125000
O O10 0.146704 0.000000 0.250000
#
# Coordination Sequence:
#
# PCOD9573560 Si02
#       5
#    32  32  32  32  16
#     4  10  21  38  62  97 125 165 214 275 314 397
#     4  10  19  40  61  90 121 176 209 261 322 404
#     4   9  18  38  64  82 125 174 208 241 338 398
#     4  12  23  38  62  93 128 167 214 264 331 393
#     4  10  24  40  67  98 128 164 224 275 334 384
#
# _framework density 21.000389999999999
#
# number of rings (size 3 to 8) (size 9 to 14) (size 15 to 20)
#    0.000    1.778    4.444    0.000    1.556    3.556 
#    4.000    0.556    0.000    0.000    5.778    0.000 
#    0.000    0.000    0.000    0.000    0.000    0.000 
#
# Total GULP energy -401596.621109 kJ/mol
# GULP energy per Si atom -5577.730849 kJ/mol
# Density = 2.095259 g / cm^3
# Si number density = 21.000390 Si / 1000 Ang^3
#
#
#
# Elastic Constant Matrix: (Units=GPa)
#
#
# Indices 1 2 3 4 5 6 
#
# 1 50.7145 13.7612 31.8068 0.0000 0.0000 0.0000
# 2 13.7612 50.7149 31.8069 0.0000 0.0000 0.0000
# 3 31.8068 31.8069 133.0027 0.0000 0.0000 0.0000
# 4 0.0000 0.0000 0.0000 18.3426 0.0000 0.0000
# 5 0.0000 0.0000 0.0000 0.0000 18.3430 0.0000
# 6 0.0000 0.0000 0.0000 0.0000 0.0000 19.6317
#
#
#
# Elastic Compliance Matrix: (Units=1/GPa)
#
#
# Indices 1 2 3 4 5 6 
#
# 1 0.023680 -0.003381 -0.004854 0.000000 0.000000 0.000000
# 2 -0.003381 0.023680 -0.004854 0.000000 0.000000 0.000000
# 3 -0.004854 -0.004854 0.009840 0.000000 0.000000 0.000000
# 4 0.000000 0.000000 0.000000 0.054518 0.000000 0.000000
# 5 0.000000 0.000000 0.000000 0.000000 0.054517 0.000000
# 6 0.000000 0.000000 0.000000 0.000000 0.000000 0.050938
#
#
# Mechanical properties :
#
#
# Convention : Reuss Voigt Hill
#
# Bulk Modulus (GPa) = 32.23611 43.24241 37.73926
# Shear Modulus (GPa) = 19.70883 21.73393 20.72138
#
# Velocity S-wave (km/s) = 3.06682 3.22052 3.14461
# Velocity P-wave (km/s) = 5.28432 5.87069 5.58520
#
# Compressibility (1/GPa) = 0.03102111
#
# Stress axis : x y z
#
# Youngs Moduli (GPa) = 42.22931 42.22968 101.62118
#
# Poissons Ratio (x) = 0.14278 0.49332
# Poissons Ratio (y) = 0.14277 0.49331
# Poissons Ratio (z) = 0.20500 0.20500
#
# Static dielectric constant tensor:
#      x y z
#    x 1.796800 0.000000 0.000000 
#    y 0.000000 1.796800 0.000000 
#    z 0.000000 0.000000 1.747530 
# 
# From -- ./inp_files/7288.got.cif
#   From: 2010.05.17/outbox.cif.g08.bks.cpg/sg142_4_cif.got.tgz:7288.got - 2010.05.20 13:39:18.
