data_PCOD9573801
_publ_section_title
;
Structure prediction by ZEFSAII (Michael W. Deem and Ramdas Pophale) SiO2 
 PCOD9573801
Probable space group: I 41/A C D
;
_chemical_formula_sum "Si O2"
_cell_formula_units_Z 160
_cell_length_a 18.936439
_cell_length_b 18.936439
_cell_length_c 21.878127
_cell_angle_alpha 90.000000
_cell_angle_beta 90.000000
_cell_angle_gamma 90.000000
_cell_volume 7845.249601
_symmetry_space_group_name_H-M "I 41/A C D"
_symmetry_group_IT_number 142
_space_group.IT_coordinate_system_code '2'
_symmetry_cell_setting 'tetragonal'
loop_
_space_group_symop_operation_xyz
x,y,z
1/4-y,3/4+x,1/4+z
-x,1/2-y,z
1/4+y,1/4-x,3/4+z
x,-y,1/2-z
1/2-x,y,-z
3/4+y,1/4+x,1/4-z
1/4-y,1/4-x,1/4-z
-x,-y,-z
3/4+y,1/4-x,3/4-z
x,1/2+y,-z
3/4-y,3/4+x,1/4-z
-x,y,1/2+z
1/2+x,-y,z
1/4-y,3/4-x,3/4+z
3/4+y,3/4+x,3/4+z
1/2+x,1/2+y,1/2+z
3/4-y,1/4+x,3/4+z
1/2-x,-y,1/2+z
3/4+y,3/4-x,1/4+z
1/2+x,1/2-y,-z
-x,1/2+y,1/2-z
1/4+y,3/4+x,3/4-z
3/4-y,3/4-x,3/4-z
1/2-x,1/2-y,1/2-z
1/4+y,3/4-x,1/4-z
1/2+x,y,1/2-z
1/4-y,1/4+x,3/4-z
1/2-x,1/2+y,z
x,1/2-y,1/2+z
3/4-y,1/4-x,1/4+z
1/4+y,1/4+x,1/4+z
loop_
_atom_site_type_symbol
_atom_site_label
_atom_site_fract_x
_atom_site_fract_y
_atom_site_fract_z
Si Si1 0.207286 0.191344 0.144170
Si Si2 0.688713 0.849751 0.673153
Si Si3 0.136514 0.176216 0.804413
Si Si4 0.418262 0.890534 0.420845
Si Si5 0.821590 0.382400 0.023556
O O1 0.174020 0.267624 0.156905
O O2 0.288387 0.188512 0.162705
O O3 0.200455 0.175285 0.072905
O O4 0.175116 0.129987 0.187415
O O5 0.654199 0.904199 0.625000
O O6 0.653754 0.859638 0.739823
O O7 0.774942 0.849457 0.676109
O O8 0.088403 0.132314 0.850665
O O9 0.114682 0.257996 0.800426
O O10 0.359293 0.854990 0.463165
O O11 0.750000 0.420659 0.000000
#
# Coordination Sequence:
#
# PCOD9573801 Si02
#       5
#    32  32  32  32  32
#     4  10  21  40  65  89 129 170 202 262 334 375
#     4  11  24  44  62  89 131 174 211 262 325 384
#     4  11  22  43  64  89 132 169 205 268 321 380
#     4  11  23  41  67  92 127 169 213 263 325 379
#     4  11  20  36  67  98 117 159 221 259 311 385
#
# _framework density 20.394507000000001
#
# number of rings (size 3 to 8) (size 9 to 14) (size 15 to 20)
#    0.000    1.200    6.000    1.200    0.000    4.400 
#    0.000    2.000    0.000    0.000    0.000    0.000 
#    0.000    0.000    0.000    0.000    0.000    0.000 
#
# Total GULP energy -445684.541310 kJ/mol
# GULP energy per Si atom -5571.056766 kJ/mol
# Density = 2.034809 g / cm^3
# Si number density = 20.394507 Si / 1000 Ang^3
#
#
#
# Elastic Constant Matrix: (Units=GPa)
#
#
# Indices 1 2 3 4 5 6 
#
# 1 38.4756 -4.7708 24.2192 0.0000 0.0000 0.0000
# 2 -4.7708 38.4756 24.2192 0.0000 0.0000 0.0000
# 3 24.2192 24.2192 141.9505 0.0000 0.0000 0.0000
# 4 0.0000 0.0000 0.0000 30.5625 0.0000 0.0000
# 5 0.0000 0.0000 0.0000 0.0000 30.5625 0.0000
# 6 0.0000 0.0000 0.0000 0.0000 0.0000 18.3182
#
#
#
# Elastic Compliance Matrix: (Units=1/GPa)
#
#
# Indices 1 2 3 4 5 6 
#
# 1 0.031215 0.008092 -0.006707 0.000000 0.000000 0.000000
# 2 0.008092 0.031215 -0.006707 0.000000 0.000000 0.000000
# 3 -0.006707 -0.006707 0.009333 0.000000 0.000000 0.000000
# 4 0.000000 0.000000 0.000000 0.032720 0.000000 0.000000
# 5 0.000000 0.000000 0.000000 0.000000 0.032720 0.000000
# 6 0.000000 0.000000 0.000000 0.000000 0.000000 0.054591
#
#
# Mechanical properties :
#
#
# Convention : Reuss Voigt Hill
#
# Bulk Modulus (GPa) = 16.36070 34.02634 25.19352
# Shear Modulus (GPa) = 22.44062 27.57092 25.00577
#
# Velocity S-wave (km/s) = 3.32072 3.68078 3.50537
# Velocity P-wave (km/s) = 4.76890 5.89784 5.36316
#
# Compressibility (1/GPa) = 0.06112209
#
# Stress axis : x y z
#
# Youngs Moduli (GPa) = 32.03546 32.03546 107.14419
#
# Poissons Ratio (x) = -0.25923 0.71857
# Poissons Ratio (y) = -0.25923 0.71857
# Poissons Ratio (z) = 0.21485 0.21485
#
# Static dielectric constant tensor:
#      x y z
#    x 1.770680 0.000000 0.000000 
#    y 0.000000 1.770680 0.000000 
#    z 0.000000 0.000000 1.750440 
# 
# From -- ./inp_files/7395.got.cif
#   From: 2010.05.17/outbox.cif.g08.bks.cpg/sg142_4_cif.got.tgz:7395.got - 2010.05.20 13:39:18.
