data_PCOD9573518
_publ_section_title
;
Structure prediction by ZEFSAII (Michael W. Deem and Ramdas Pophale) SiO2 
 PCOD9573518
Probable space group: I 41/A C D
;
_chemical_formula_sum "Si O2"
_cell_formula_units_Z 64
_cell_length_a 24.716709
_cell_length_b 24.716709
_cell_length_c 4.867616
_cell_angle_alpha 90.000000
_cell_angle_beta 90.000000
_cell_angle_gamma 90.000000
_cell_volume 2973.703054
_symmetry_space_group_name_H-M "I 41/A C D"
_symmetry_group_IT_number 142
_space_group.IT_coordinate_system_code '2'
_symmetry_cell_setting 'tetragonal'
loop_
_space_group_symop_operation_xyz
x,y,z
1/4-y,3/4+x,1/4+z
-x,1/2-y,z
1/4+y,1/4-x,3/4+z
x,-y,1/2-z
1/2-x,y,-z
3/4+y,1/4+x,1/4-z
1/4-y,1/4-x,1/4-z
-x,-y,-z
3/4+y,1/4-x,3/4-z
x,1/2+y,-z
3/4-y,3/4+x,1/4-z
-x,y,1/2+z
1/2+x,-y,z
1/4-y,3/4-x,3/4+z
3/4+y,3/4+x,3/4+z
1/2+x,1/2+y,1/2+z
3/4-y,1/4+x,3/4+z
1/2-x,-y,1/2+z
3/4+y,3/4-x,1/4+z
1/2+x,1/2-y,-z
-x,1/2+y,1/2-z
1/4+y,3/4+x,3/4-z
3/4-y,3/4-x,3/4-z
1/2-x,1/2-y,1/2-z
1/4+y,3/4-x,1/4-z
1/2+x,y,1/2-z
1/4-y,1/4+x,3/4-z
1/2-x,1/2+y,z
x,1/2-y,1/2+z
3/4-y,1/4-x,1/4+z
1/4+y,1/4+x,1/4+z
loop_
_atom_site_type_symbol
_atom_site_label
_atom_site_fract_x
_atom_site_fract_y
_atom_site_fract_z
Si Si1 0.030778 0.434826 0.211860
Si Si2 0.640092 0.440711 0.614100
O O1 0.028883 0.500000 0.250000
O O2 0.017774 0.415026 0.515529
O O3 0.086519 0.424970 0.056038
O O4 0.634513 0.500000 0.750000
O O5 0.685614 0.435614 0.375000
O O6 0.653626 0.403626 0.875000
#
# Coordination Sequence:
#
# PCOD9573518 Si02
#       2
#    32  32
#     4  10  19  35  58  79 101 135 182 238 289 316
#     4  12  24  38  54  78 114 153 189 221 258 320
#
# _framework density 21.521988
#
# number of rings (size 3 to 8) (size 9 to 14) (size 15 to 20)
#    0.000    1.000    0.000   12.000    0.000    2.000 
#    0.000    2.500    0.000    0.000    0.000    0.000 
#    0.000   70.000    0.000    0.000    0.000    0.000 
#
# Total GULP energy -178547.672161 kJ/mol
# GULP energy per Si atom -5579.614755 kJ/mol
# Density = 2.147300 g / cm^3
# Si number density = 21.521988 Si / 1000 Ang^3
#
#
#
# Elastic Constant Matrix: (Units=GPa)
#
#
# Indices 1 2 3 4 5 6 
#
# 1 66.0849 31.5063 37.4460 0.0000 0.0000 0.0000
# 2 31.5063 66.0849 37.4460 0.0000 0.0000 0.0000
# 3 37.4460 37.4460 160.3597 0.0000 0.0000 0.0000
# 4 0.0000 0.0000 0.0000 43.6632 0.0000 0.0000
# 5 0.0000 0.0000 0.0000 0.0000 43.6632 0.0000
# 6 0.0000 0.0000 0.0000 0.0000 0.0000 -0.7678
#
#
#
# Elastic Compliance Matrix: (Units=1/GPa)
#
#
# Indices 1 2 3 4 5 6 
#
# 1 0.020702 -0.008218 -0.002915 0.000000 0.000000 0.000000
# 2 -0.008218 0.020702 -0.002915 0.000000 0.000000 0.000000
# 3 -0.002915 -0.002915 0.007597 0.000000 0.000000 0.000000
# 4 0.000000 0.000000 0.000000 0.022903 0.000000 0.000000
# 5 0.000000 0.000000 0.000000 0.000000 0.022903 0.000000
# 6 0.000000 0.000000 0.000000 0.000000 0.000000 -1.302418
#
#
# Mechanical properties :
#
#
# Convention : Reuss Voigt Hill
#
# Bulk Modulus (GPa) = 47.83619 56.14734 51.99177
# Shear Modulus (GPa) = -4.26422 29.72048 12.72813
#
# Velocity S-wave (km/s) = -1.40912 3.72013 2.43451
# Velocity P-wave (km/s) = 4.43028 6.67813 5.66678
#
# Compressibility (1/GPa) = 0.02090467
#
# Stress axis : x y z
#
# Youngs Moduli (GPa) = 48.30500 48.30500 131.62350
#
# Poissons Ratio (x) = 0.39696 0.38370
# Poissons Ratio (y) = 0.39696 0.38370
# Poissons Ratio (z) = 0.14082 0.14082
#
# Static dielectric constant tensor:
#      x y z
#    x 1.861600 0.000000 0.000000 
#    y 0.000000 1.861600 0.000000 
#    z 0.000000 0.000000 1.785420 
# 
# From -- ./inp_files/478.got.cif
#   From: 2010.05.17/outbox.cif.g08.bks.cpg/sg142_1_cif.got.tgz:478.got - 2010.05.20 13:39:18.
