data_PCOD9573993
_publ_section_title
;
Structure prediction by ZEFSAII (Michael W. Deem and Ramdas Pophale) SiO2 
 PCOD9573993
Probable space group: I 41/A C D
;
_chemical_formula_sum "Si O2"
_cell_formula_units_Z 96
_cell_length_a 19.233065
_cell_length_b 19.233065
_cell_length_c 11.171935
_cell_angle_alpha 90.000000
_cell_angle_beta 90.000000
_cell_angle_gamma 90.000000
_cell_volume 4132.619294
_symmetry_space_group_name_H-M "I 41/A C D"
_symmetry_group_IT_number 142
_space_group.IT_coordinate_system_code '2'
_symmetry_cell_setting 'tetragonal'
loop_
_space_group_symop_operation_xyz
x,y,z
1/4-y,3/4+x,1/4+z
-x,1/2-y,z
1/4+y,1/4-x,3/4+z
x,-y,1/2-z
1/2-x,y,-z
3/4+y,1/4+x,1/4-z
1/4-y,1/4-x,1/4-z
-x,-y,-z
3/4+y,1/4-x,3/4-z
x,1/2+y,-z
3/4-y,3/4+x,1/4-z
-x,y,1/2+z
1/2+x,-y,z
1/4-y,3/4-x,3/4+z
3/4+y,3/4+x,3/4+z
1/2+x,1/2+y,1/2+z
3/4-y,1/4+x,3/4+z
1/2-x,-y,1/2+z
3/4+y,3/4-x,1/4+z
1/2+x,1/2-y,-z
-x,1/2+y,1/2-z
1/4+y,3/4+x,3/4-z
3/4-y,3/4-x,3/4-z
1/2-x,1/2-y,1/2-z
1/4+y,3/4-x,1/4-z
1/2+x,y,1/2-z
1/4-y,1/4+x,3/4-z
1/2-x,1/2+y,z
x,1/2-y,1/2+z
3/4-y,1/4-x,1/4+z
1/4+y,1/4+x,1/4+z
loop_
_atom_site_type_symbol
_atom_site_label
_atom_site_fract_x
_atom_site_fract_y
_atom_site_fract_z
Si Si1 0.519551 0.346608 0.185937
Si Si2 0.400475 0.150475 0.875000
Si Si3 0.207572 0.957572 0.875000
Si Si4 0.429191 0.528795 0.944866
O O1 0.464493 0.326253 0.078666
O O2 0.471632 0.348984 0.300767
O O3 0.551885 0.421295 0.165459
O O4 0.334236 0.147981 0.789066
O O5 0.223224 0.878251 0.839897
O O6 0.223812 0.000000 0.750000
O O7 0.500000 0.500000 0.000000
#
# Coordination Sequence:
#
# PCOD9573993 Si02
#       4
#    32  16  16  32
#     4   9  21  41  69 110 148 193 252 322 398 467
#     4  10  23  45  73 106 160 195 256 326 404 476
#     4  12  31  56  79 117 168 218 272 339 402 492
#     4  11  27  45  77 109 151 211 266 327 402 482
#
# _framework density 23.229818999999999
#
# number of rings (size 3 to 8) (size 9 to 14) (size 15 to 20)
#    0.000    1.667    0.000    1.000   14.000   10.667 
#    0.000    0.000    0.000    0.000    0.000    0.000 
#    0.000    0.000    0.000    0.000    0.000    0.000 
#
# Total GULP energy -268500.364318 kJ/mol
# GULP energy per Si atom -5593.757590 kJ/mol
# Density = 2.317695 g / cm^3
# Si number density = 23.229819 Si / 1000 Ang^3
#
#
#
# Elastic Constant Matrix: (Units=GPa)
#
#
# Indices 1 2 3 4 5 6 
#
# 1 127.4541 87.4690 51.1484 0.0000 0.0000 0.0000
# 2 87.4690 127.4541 51.1484 0.0000 0.0000 0.0000
# 3 51.1484 51.1484 131.4530 0.0000 0.0000 0.0000
# 4 0.0000 0.0000 0.0000 26.3923 0.0000 0.0000
# 5 0.0000 0.0000 0.0000 0.0000 26.3923 0.0000
# 6 0.0000 0.0000 0.0000 0.0000 0.0000 48.5150
#
#
#
# Elastic Compliance Matrix: (Units=1/GPa)
#
#
# Indices 1 2 3 4 5 6 
#
# 1 0.015360 -0.009649 -0.002222 0.000000 0.000000 0.000000
# 2 -0.009649 0.015360 -0.002222 0.000000 0.000000 0.000000
# 3 -0.002222 -0.002222 0.009336 0.000000 0.000000 0.000000
# 4 0.000000 0.000000 0.000000 0.037890 0.000000 0.000000
# 5 0.000000 0.000000 0.000000 0.000000 0.037890 0.000000
# 6 0.000000 0.000000 0.000000 0.000000 0.000000 0.020612
#
#
# Mechanical properties :
#
#
# Convention : Reuss Voigt Hill
#
# Bulk Modulus (GPa) = 84.24955 85.09920 84.67438
# Shear Modulus (GPa) = 29.65753 33.36625 31.51189
#
# Velocity S-wave (km/s) = 3.57697 3.79404 3.68710
# Velocity P-wave (km/s) = 7.30796 7.47704 7.39298
#
# Compressibility (1/GPa) = 0.01186950
#
# Stress axis : x y z
#
# Youngs Moduli (GPa) = 65.10472 65.10472 107.10793
#
# Poissons Ratio (x) = 0.62823 0.23798
# Poissons Ratio (y) = 0.62823 0.23798
# Poissons Ratio (z) = 0.14466 0.14466
#
# Static dielectric constant tensor:
#      x y z
#    x 1.721160 0.000000 0.000000 
#    y 0.000000 1.721160 0.000000 
#    z 0.000000 0.000000 1.960060 
# 
# From -- ./inp_files/3206.got.cif
#   From: 2010.05.17/outbox.cif.g08.bks.cpg/sg142_2_cif.got.tgz:3206.got - 2010.05.20 13:39:18.
