data_PCOD9573340
_publ_section_title
;
Structure prediction by ZEFSAII (Michael W. Deem and Ramdas Pophale) SiO2 
 PCOD9573340
Probable space group: I 41/A M D
;
_chemical_formula_sum "Si O2"
_cell_formula_units_Z 88
_cell_length_a 12.611340
_cell_length_b 12.611340
_cell_length_c 23.970923
_cell_angle_alpha 90.000000
_cell_angle_beta 90.000000
_cell_angle_gamma 90.000000
_cell_volume 3812.476941
_symmetry_space_group_name_H-M "I 41/A M D"
_symmetry_group_IT_number 141
_space_group.IT_coordinate_system_code '2'
_symmetry_cell_setting 'tetragonal'
loop_
_space_group_symop_operation_xyz
x,y,z
1/4-y,3/4+x,1/4+z
-x,1/2-y,z
1/4+y,1/4-x,3/4+z
x,-y,-z
-x,1/2+y,-z
1/4+y,3/4+x,1/4-z
1/4-y,1/4-x,3/4-z
-x,-y,-z
3/4+y,1/4-x,3/4-z
x,1/2+y,-z
3/4-y,3/4+x,1/4-z
-x,y,z
x,1/2-y,z
3/4-y,1/4-x,3/4+z
3/4+y,3/4+x,1/4+z
1/2+x,1/2+y,1/2+z
3/4-y,1/4+x,3/4+z
1/2-x,-y,1/2+z
3/4+y,3/4-x,1/4+z
1/2+x,1/2-y,1/2-z
1/2-x,y,1/2-z
3/4+y,1/4+x,3/4-z
3/4-y,3/4-x,1/4-z
1/2-x,1/2-y,1/2-z
1/4+y,3/4-x,1/4-z
1/2+x,y,1/2-z
1/4-y,1/4+x,3/4-z
1/2-x,1/2+y,1/2+z
1/2+x,-y,1/2+z
1/4-y,3/4-x,1/4+z
1/4+y,1/4+x,3/4+z
loop_
_atom_site_type_symbol
_atom_site_label
_atom_site_fract_x
_atom_site_fract_y
_atom_site_fract_z
Si Si1 0.000000 0.750000 0.810213
Si Si2 0.718863 0.968863 0.875000
Si Si3 0.500000 0.015728 0.256716
Si Si4 0.723658 0.750000 0.629587
Si Si5 0.316718 0.365707 0.695907
O O1 0.000000 0.859735 0.773684
O O2 0.102661 0.750000 0.850463
O O3 0.606222 0.973997 0.904556
O O4 0.829339 0.979658 0.906975
O O5 0.500000 0.995415 0.188640
O O6 0.597393 0.953240 0.286180
O O7 0.356387 0.250000 0.675333
O O8 0.250000 0.347562 0.750000
#
# Coordination Sequence:
#
# PCOD9573340 Si02
#       5
#     8  16  16  16  32
#     4  12  28  48  80 115 164 203 268 334 398 482
#     4  12  26  47  71 108 146 194 252 316 390 464
#     4  12  25  48  74 110 148 205 254 327 402 474
#     4  12  28  47  75 105 150 202 254 320 395 471
#     4  11  25  44  70 105 145 190 252 316 391 471
#
# _framework density 23.082106
#
# number of rings (size 3 to 8) (size 9 to 14) (size 15 to 20)
#    0.000    0.364    7.273    0.545    7.636    1.818 
#    0.000    3.636    0.000    0.000    0.000    0.000 
#    0.000    0.000    0.000    0.000    0.000    0.000 
#
# Total GULP energy -244981.847879 kJ/mol
# GULP energy per Si atom -5567.769270 kJ/mol
# Density = 2.302957 g / cm^3
# Si number density = 23.082106 Si / 1000 Ang^3
#
#
#
# Elastic Constant Matrix: (Units=GPa)
#
#
# Indices 1 2 3 4 5 6 
#
# 1 165.4609 47.4213 11.3901 0.0000 0.0000 0.0000
# 2 47.4213 165.4609 11.3901 0.0000 0.0000 0.0000
# 3 11.3901 11.3901 75.9320 0.0000 0.0000 0.0000
# 4 0.0000 0.0000 0.0000 22.4928 0.0000 0.0000
# 5 0.0000 0.0000 0.0000 0.0000 22.4928 0.0000
# 6 0.0000 0.0000 0.0000 0.0000 0.0000 16.7355
#
#
#
# Elastic Compliance Matrix: (Units=1/GPa)
#
#
# Indices 1 2 3 4 5 6 
#
# 1 0.006623 -0.001849 -0.000716 0.000000 0.000000 0.000000
# 2 -0.001849 0.006623 -0.000716 0.000000 0.000000 0.000000
# 3 -0.000716 -0.000716 0.013385 0.000000 0.000000 0.000000
# 4 0.000000 0.000000 0.000000 0.044459 0.000000 0.000000
# 5 0.000000 0.000000 0.000000 0.000000 0.044459 0.000000
# 6 0.000000 0.000000 0.000000 0.000000 0.000000 0.059753
#
#
# Mechanical properties :
#
#
# Convention : Reuss Voigt Hill
#
# Bulk Modulus (GPa) = 49.83020 60.80628 55.31824
# Shear Modulus (GPa) = 26.51780 34.78769 30.65275
#
# Velocity S-wave (km/s) = 3.39314 3.88639 3.64811
# Velocity P-wave (km/s) = 6.08164 6.82197 6.46242
#
# Compressibility (1/GPa) = 0.02006815
#
# Stress axis : x y z
#
# Youngs Moduli (GPa) = 150.99125 150.99125 74.71315
#
# Poissons Ratio (x) = 0.27916 0.05350
# Poissons Ratio (y) = 0.27916 0.05350
# Poissons Ratio (z) = 0.10813 0.10813
#
# Static dielectric constant tensor:
#      x y z
#    x 1.958160 0.000000 0.000000 
#    y 0.000000 1.958160 0.000000 
#    z 0.000000 0.000000 1.561330 
# 
# From -- ./inp_files/13801.got.cif
#   From: 2010.05.17/outbox.cif.g08.bks.cpg/sg141_7_cif.got.tgz:13801.got - 2010.05.20 13:30:51.
