data_PCOD9573830
_publ_section_title
;
Structure prediction by ZEFSAII (Michael W. Deem and Ramdas Pophale) SiO2 
 PCOD9573830
Probable space group: I 41/A C D
;
_chemical_formula_sum "Si O2"
_cell_formula_units_Z 112
_cell_length_a 32.714834
_cell_length_b 32.714834
_cell_length_c 4.882042
_cell_angle_alpha 90.000000
_cell_angle_beta 90.000000
_cell_angle_gamma 90.000000
_cell_volume 5225.056046
_symmetry_space_group_name_H-M "I 41/A C D"
_symmetry_group_IT_number 142
_space_group.IT_coordinate_system_code '2'
_symmetry_cell_setting 'tetragonal'
loop_
_space_group_symop_operation_xyz
x,y,z
1/4-y,3/4+x,1/4+z
-x,1/2-y,z
1/4+y,1/4-x,3/4+z
x,-y,1/2-z
1/2-x,y,-z
3/4+y,1/4+x,1/4-z
1/4-y,1/4-x,1/4-z
-x,-y,-z
3/4+y,1/4-x,3/4-z
x,1/2+y,-z
3/4-y,3/4+x,1/4-z
-x,y,1/2+z
1/2+x,-y,z
1/4-y,3/4-x,3/4+z
3/4+y,3/4+x,3/4+z
1/2+x,1/2+y,1/2+z
3/4-y,1/4+x,3/4+z
1/2-x,-y,1/2+z
3/4+y,3/4-x,1/4+z
1/2+x,1/2-y,-z
-x,1/2+y,1/2-z
1/4+y,3/4+x,3/4-z
3/4-y,3/4-x,3/4-z
1/2-x,1/2-y,1/2-z
1/4+y,3/4-x,1/4-z
1/2+x,y,1/2-z
1/4-y,1/4+x,3/4-z
1/2-x,1/2+y,z
x,1/2-y,1/2+z
3/4-y,1/4-x,1/4+z
1/4+y,1/4+x,1/4+z
loop_
_atom_site_type_symbol
_atom_site_label
_atom_site_fract_x
_atom_site_fract_y
_atom_site_fract_z
Si Si1 0.906295 0.276928 0.552117
Si Si2 0.294747 0.955254 0.625000
Si Si3 0.407499 0.089304 0.436461
Si Si4 0.710257 0.864151 0.199980
O O1 0.944792 0.305209 0.625000
O O2 0.907110 0.263553 0.237777
O O3 0.866079 0.302612 0.628976
O O4 0.250000 0.954063 0.500000
O O5 0.294858 0.912112 0.781683
O O6 0.369335 0.119335 0.375000
O O7 0.401393 0.075163 0.746953
O O8 0.407565 0.049560 0.236988
O O9 0.750000 0.860693 0.000000
#
# Coordination Sequence:
#
# PCOD9573830 Si02
#       4
#    32  16  32  32
#     4  11  24  41  67  98 127 160 188 237 303 374
#     4  10  22  34  52  86 128 166 205 256 314 362
#     4  11  21  40  61  85 120 158 210 248 298 363
#     4  11  22  38  59  86 119 166 213 262 301 347
#
# _framework density 21.435178000000001
#
# number of rings (size 3 to 8) (size 9 to 14) (size 15 to 20)
#    0.000    1.143    2.857    3.429    0.000   10.857 
#    0.000    0.000    0.000   17.143    0.000    0.000 
#    0.000    0.000    0.000    0.000    0.000    0.000 
#
# Total GULP energy -312334.143395 kJ/mol
# GULP energy per Si atom -5577.395418 kJ/mol
# Density = 2.138639 g / cm^3
# Si number density = 21.435178 Si / 1000 Ang^3
#
#
#
# Elastic Constant Matrix: (Units=GPa)
#
#
# Indices 1 2 3 4 5 6 
#
# 1 63.0108 34.2134 4.0771 0.0000 0.0000 0.0000
# 2 34.2134 63.0153 4.0784 0.0000 0.0000 0.0000
# 3 4.0771 4.0784 88.5492 0.0000 0.0000 0.0000
# 4 0.0000 0.0000 0.0000 26.0104 0.0000 0.0000
# 5 0.0000 0.0000 0.0000 0.0000 26.0128 0.0000
# 6 0.0000 0.0000 0.0000 0.0000 0.0000 30.1379
#
#
#
# Elastic Compliance Matrix: (Units=1/GPa)
#
#
# Indices 1 2 3 4 5 6 
#
# 1 0.022525 -0.012199 -0.000475 0.000000 0.000000 0.000000
# 2 -0.012199 0.022523 -0.000476 0.000000 0.000000 0.000000
# 3 -0.000475 -0.000476 0.011337 0.000000 0.000000 0.000000
# 4 0.000000 0.000000 0.000000 0.038446 0.000000 0.000000
# 5 0.000000 0.000000 0.000000 0.000000 0.038443 0.000000
# 6 0.000000 0.000000 0.000000 0.000000 0.000000 0.033181
#
#
# Mechanical properties :
#
#
# Convention : Reuss Voigt Hill
#
# Bulk Modulus (GPa) = 33.23880 33.25702 33.24791
# Shear Modulus (GPa) = 24.65698 27.91263 26.28481
#
# Velocity S-wave (km/s) = 3.39529 3.61250 3.50558
# Velocity P-wave (km/s) = 5.55977 5.74013 5.65067
#
# Compressibility (1/GPa) = 0.03008532
#
# Stress axis : x y z
#
# Youngs Moduli (GPa) = 44.39576 44.39883 88.20716
#
# Poissons Ratio (x) = 0.54161 0.04192
# Poissons Ratio (y) = 0.54157 0.04196
# Poissons Ratio (z) = 0.02110 0.02112
#
# Static dielectric constant tensor:
#      x y z
#    x 2.299070 0.000000 0.000000 
#    y 0.000000 2.300810 0.000000 
#    z 0.000000 0.000000 1.772830 
# 
# From -- ./inp_files/716.got.cif
#   From: 2010.05.17/outbox.cif.g08.bks.cpg/sg142_1_cif.got.tgz:716.got - 2010.05.20 13:39:18.
