data_PCOD9573211
_publ_section_title
;
Structure prediction by ZEFSAII (Michael W. Deem and Ramdas Pophale) SiO2 
 PCOD9573211
Probable space group: I 41/A M D
;
_chemical_formula_sum "Si O2"
_cell_formula_units_Z 132
_cell_length_a 20.927505
_cell_length_b 20.927505
_cell_length_c 15.699392
_cell_angle_alpha 90.000000
_cell_angle_beta 90.000000
_cell_angle_gamma 90.000000
_cell_volume 6875.713029
_symmetry_space_group_name_H-M "I 41/A M D"
_symmetry_group_IT_number 141
_space_group.IT_coordinate_system_code '2'
_symmetry_cell_setting 'tetragonal'
loop_
_space_group_symop_operation_xyz
x,y,z
1/4-y,3/4+x,1/4+z
-x,1/2-y,z
1/4+y,1/4-x,3/4+z
x,-y,-z
-x,1/2+y,-z
1/4+y,3/4+x,1/4-z
1/4-y,1/4-x,3/4-z
-x,-y,-z
3/4+y,1/4-x,3/4-z
x,1/2+y,-z
3/4-y,3/4+x,1/4-z
-x,y,z
x,1/2-y,z
3/4-y,1/4-x,3/4+z
3/4+y,3/4+x,1/4+z
1/2+x,1/2+y,1/2+z
3/4-y,1/4+x,3/4+z
1/2-x,-y,1/2+z
3/4+y,3/4-x,1/4+z
1/2+x,1/2-y,1/2-z
1/2-x,y,1/2-z
3/4+y,1/4+x,3/4-z
3/4-y,3/4-x,1/4-z
1/2-x,1/2-y,1/2-z
1/4+y,3/4-x,1/4-z
1/2+x,y,1/2-z
1/4-y,1/4+x,3/4-z
1/2-x,1/2+y,1/2+z
1/2+x,-y,1/2+z
1/4-y,3/4-x,1/4+z
1/4+y,1/4+x,3/4+z
loop_
_atom_site_type_symbol
_atom_site_label
_atom_site_fract_x
_atom_site_fract_y
_atom_site_fract_z
Si Si1 0.898480 0.990562 0.731204
Si Si2 0.500000 0.827339 0.584695
Si Si3 0.118489 0.822236 0.039908
Si Si4 0.865926 0.750000 0.524331
Si Si5 0.500000 0.750000 0.875000
Si Si6 0.698249 0.037965 0.913215
O O1 0.942042 0.931746 0.702199
O O2 0.860054 0.958696 0.809468
O O3 0.928562 0.058245 0.758548
O O4 0.851926 0.014632 0.656226
O O5 0.500000 0.750000 0.601409
O O6 0.435261 0.841599 0.530123
O O7 0.500000 0.865910 0.673610
O O8 0.113642 0.863642 0.125000
O O9 0.100447 0.750000 0.064831
O O10 0.933850 0.750000 0.571702
O O11 0.765230 0.015230 0.875000
O O12 0.684000 0.000000 0.000000
#
# Coordination Sequence:
#
# PCOD9573211 Si02
#       6
#    32  16  32  16   4  32
#     4  11  22  41  65  96 132 170 226 276 326 399
#     4  10  22  41  68  92 139 180 221 266 332 400
#     4  11  21  39  64 100 134 180 214 262 330 396
#     4  12  26  47  66  97 129 169 228 280 328 402
#     4  12  32  48  68  92 126 180 212 288 356 364
#     4   9  20  38  63  90 126 172 210 272 336 381
#
# _framework density 19.198008999999999
#
# number of rings (size 3 to 8) (size 9 to 14) (size 15 to 20)
#    0.000    1.455    3.030    2.182    5.091    0.000 
#    0.000    5.455    0.000    0.000    0.000    0.000 
#    0.000    0.000    0.000    0.000    0.000    0.000 
#
# Total GULP energy -367489.461449 kJ/mol
# GULP energy per Si atom -5568.022143 kJ/mol
# Density = 1.915431 g / cm^3
# Si number density = 19.198009 Si / 1000 Ang^3
#
#
#
# Elastic Constant Matrix: (Units=GPa)
#
#
# Indices 1 2 3 4 5 6 
#
# 1 114.6087 48.3276 35.4442 0.0000 0.0000 0.0000
# 2 48.3276 114.6087 35.4442 0.0000 0.0000 0.0000
# 3 35.4442 35.4442 78.2220 0.0000 0.0000 0.0000
# 4 0.0000 0.0000 0.0000 7.9299 0.0000 0.0000
# 5 0.0000 0.0000 0.0000 0.0000 7.9299 0.0000
# 6 0.0000 0.0000 0.0000 0.0000 0.0000 26.6844
#
#
#
# Elastic Compliance Matrix: (Units=1/GPa)
#
#
# Indices 1 2 3 4 5 6 
#
# 1 0.011366 -0.003721 -0.003464 0.000000 0.000000 0.000000
# 2 -0.003721 0.011366 -0.003464 0.000000 0.000000 0.000000
# 3 -0.003464 -0.003464 0.015923 0.000000 0.000000 0.000000
# 4 0.000000 0.000000 0.000000 0.126105 0.000000 0.000000
# 5 0.000000 0.000000 0.000000 0.000000 0.126105 0.000000
# 6 0.000000 0.000000 0.000000 0.000000 0.000000 0.037475
#
#
# Mechanical properties :
#
#
# Convention : Reuss Voigt Hill
#
# Bulk Modulus (GPa) = 57.61495 60.65235 59.13365
# Shear Modulus (GPa) = 14.06772 21.05707 17.56239
#
# Velocity S-wave (km/s) = 2.70991 3.31544 3.02785
# Velocity P-wave (km/s) = 6.31407 6.80572 6.56450
#
# Compressibility (1/GPa) = 0.01735660
#
# Stress axis : x y z
#
# Youngs Moduli (GPa) = 87.98314 87.98314 62.80144
#
# Poissons Ratio (x) = 0.32742 0.21753
# Poissons Ratio (y) = 0.32742 0.21753
# Poissons Ratio (z) = 0.30476 0.30476
#
# Static dielectric constant tensor:
#      x y z
#    x 1.800490 0.000000 0.000000 
#    y 0.000000 1.800490 0.000000 
#    z 0.000000 0.000000 1.659970 
# 
# From -- ./inp_files/6292.got.cif
#   From: 2010.05.17/outbox.cif.g08.bks.cpg/sg141_4_cif.got.tgz:6292.got - 2010.05.20 13:30:51.
