data_PCOD9573297
_publ_section_title
;
Structure prediction by ZEFSAII (Michael W. Deem and Ramdas Pophale) SiO2 
 PCOD9573297
Probable space group: I 41/A M D
;
_chemical_formula_sum "Si O2"
_cell_formula_units_Z 160
_cell_length_a 21.841436
_cell_length_b 21.841436
_cell_length_c 17.394799
_cell_angle_alpha 90.000000
_cell_angle_beta 90.000000
_cell_angle_gamma 90.000000
_cell_volume 8298.159753
_symmetry_space_group_name_H-M "I 41/A M D"
_symmetry_group_IT_number 141
_space_group.IT_coordinate_system_code '2'
_symmetry_cell_setting 'tetragonal'
loop_
_space_group_symop_operation_xyz
x,y,z
1/4-y,3/4+x,1/4+z
-x,1/2-y,z
1/4+y,1/4-x,3/4+z
x,-y,-z
-x,1/2+y,-z
1/4+y,3/4+x,1/4-z
1/4-y,1/4-x,3/4-z
-x,-y,-z
3/4+y,1/4-x,3/4-z
x,1/2+y,-z
3/4-y,3/4+x,1/4-z
-x,y,z
x,1/2-y,z
3/4-y,1/4-x,3/4+z
3/4+y,3/4+x,1/4+z
1/2+x,1/2+y,1/2+z
3/4-y,1/4+x,3/4+z
1/2-x,-y,1/2+z
3/4+y,3/4-x,1/4+z
1/2+x,1/2-y,1/2-z
1/2-x,y,1/2-z
3/4+y,1/4+x,3/4-z
3/4-y,3/4-x,1/4-z
1/2-x,1/2-y,1/2-z
1/4+y,3/4-x,1/4-z
1/2+x,y,1/2-z
1/4-y,1/4+x,3/4-z
1/2-x,1/2+y,1/2+z
1/2+x,-y,1/2+z
1/4-y,3/4-x,1/4+z
1/4+y,1/4+x,3/4+z
loop_
_atom_site_type_symbol
_atom_site_label
_atom_site_fract_x
_atom_site_fract_y
_atom_site_fract_z
Si Si1 0.303247 0.678895 0.685396
Si Si2 0.066894 0.930833 0.965590
Si Si3 0.817457 0.060435 0.784331
Si Si4 0.785003 0.119295 0.429708
Si Si5 0.136668 0.181715 0.543210
O O1 0.307750 0.750000 0.665373
O O2 0.250000 0.672881 0.750000
O O3 0.274142 0.640545 0.616774
O O4 0.370627 0.655075 0.707299
O O5 0.071683 0.926135 0.872769
O O6 0.000000 0.903362 0.985422
O O7 0.127713 0.900852 0.001729
O O8 0.064965 0.000000 0.000000
O O9 0.750000 0.062998 0.750000
O O10 0.815022 0.065022 0.875000
O O11 0.839780 0.994493 0.755667
O O12 0.825042 0.075042 0.375000
O O13 0.824657 0.174230 0.464732
O O14 0.107957 0.250000 0.544145
#
# Coordination Sequence:
#
# PCOD9573297 Si02
#       5
#    32  32  32  32  32
#     4  11  24  43  64  90 123 164 212 266 324 385
#     4   9  18  35  56  82 119 158 198 243 300 366
#     4  11  22  33  55  90 124 158 204 254 315 383
#     4  12  23  37  62  92 130 162 205 261 322 381
#     4  11  23  41  64  92 124 166 213 259 315 382
#
# _framework density 19.281383999999999
#
# number of rings (size 3 to 8) (size 9 to 14) (size 15 to 20)
#    0.000    1.200    4.000    3.600    2.800    0.400 
#    0.000    1.000    0.000    0.000    0.000    0.000 
#    0.000    0.000    0.000    0.000    0.000    0.000 
#
# Total GULP energy -445410.653924 kJ/mol
# GULP energy per Si atom -5567.633174 kJ/mol
# Density = 1.923750 g / cm^3
# Si number density = 19.281384 Si / 1000 Ang^3
#
#
#
# Elastic Constant Matrix: (Units=GPa)
#
#
# Indices 1 2 3 4 5 6 
#
# 1 95.8868 40.9160 29.5636 0.0000 0.0000 0.0000
# 2 40.9160 95.8868 29.5636 0.0000 0.0000 0.0000
# 3 29.5636 29.5636 82.1605 0.0000 0.0000 0.0000
# 4 0.0000 0.0000 0.0000 20.4407 0.0000 0.0000
# 5 0.0000 0.0000 0.0000 0.0000 20.4407 0.0000
# 6 0.0000 0.0000 0.0000 0.0000 0.0000 12.8626
#
#
#
# Elastic Compliance Matrix: (Units=1/GPa)
#
#
# Indices 1 2 3 4 5 6 
#
# 1 0.013424 -0.004768 -0.003115 0.000000 0.000000 0.000000
# 2 -0.004768 0.013424 -0.003115 0.000000 0.000000 0.000000
# 3 -0.003115 -0.003115 0.014413 0.000000 0.000000 0.000000
# 4 0.000000 0.000000 0.000000 0.048922 0.000000 0.000000
# 5 0.000000 0.000000 0.000000 0.000000 0.048922 0.000000
# 6 0.000000 0.000000 0.000000 0.000000 0.000000 0.077745
#
#
# Mechanical properties :
#
#
# Convention : Reuss Voigt Hill
#
# Bulk Modulus (GPa) = 51.90464 52.66893 52.28679
# Shear Modulus (GPa) = 20.38610 22.34154 21.36382
#
# Velocity S-wave (km/s) = 3.25513 3.40768 3.33228
# Velocity P-wave (km/s) = 6.41139 6.54662 6.47936
#
# Compressibility (1/GPa) = 0.01926610
#
# Stress axis : x y z
#
# Youngs Moduli (GPa) = 74.49507 74.49507 69.38293
#
# Poissons Ratio (x) = 0.35517 0.21610
# Poissons Ratio (y) = 0.35517 0.21610
# Poissons Ratio (z) = 0.23203 0.23203
#
# Static dielectric constant tensor:
#      x y z
#    x 1.716770 0.000000 0.000000 
#    y 0.000000 1.716770 0.000000 
#    z 0.000000 0.000000 1.721040 
# 
# From -- ./inp_files/6562.got.cif
#   From: 2010.05.17/outbox.cif.g08.bks.cpg/sg141_4_cif.got.tgz:6562.got - 2010.05.20 13:30:51.
