data_PCOD9573296
_publ_section_title
;
Structure prediction by ZEFSAII (Michael W. Deem and Ramdas Pophale) SiO2 
 PCOD9573296
Probable space group: I 41/A M D
;
_chemical_formula_sum "Si O2"
_cell_formula_units_Z 144
_cell_length_a 26.911336
_cell_length_b 26.911336
_cell_length_c 11.849326
_cell_angle_alpha 90.000000
_cell_angle_beta 90.000000
_cell_angle_gamma 90.000000
_cell_volume 8581.518939
_symmetry_space_group_name_H-M "I 41/A M D"
_symmetry_group_IT_number 141
_space_group.IT_coordinate_system_code '2'
_symmetry_cell_setting 'tetragonal'
loop_
_space_group_symop_operation_xyz
x,y,z
1/4-y,3/4+x,1/4+z
-x,1/2-y,z
1/4+y,1/4-x,3/4+z
x,-y,-z
-x,1/2+y,-z
1/4+y,3/4+x,1/4-z
1/4-y,1/4-x,3/4-z
-x,-y,-z
3/4+y,1/4-x,3/4-z
x,1/2+y,-z
3/4-y,3/4+x,1/4-z
-x,y,z
x,1/2-y,z
3/4-y,1/4-x,3/4+z
3/4+y,3/4+x,1/4+z
1/2+x,1/2+y,1/2+z
3/4-y,1/4+x,3/4+z
1/2-x,-y,1/2+z
3/4+y,3/4-x,1/4+z
1/2+x,1/2-y,1/2-z
1/2-x,y,1/2-z
3/4+y,1/4+x,3/4-z
3/4-y,3/4-x,1/4-z
1/2-x,1/2-y,1/2-z
1/4+y,3/4-x,1/4-z
1/2+x,y,1/2-z
1/4-y,1/4+x,3/4-z
1/2-x,1/2+y,1/2+z
1/2+x,-y,1/2+z
1/4-y,3/4-x,1/4+z
1/4+y,1/4+x,3/4+z
loop_
_atom_site_type_symbol
_atom_site_label
_atom_site_fract_x
_atom_site_fract_y
_atom_site_fract_z
Si Si1 0.329431 0.398060 0.003725
Si Si2 0.750000 0.529254 0.250000
Si Si3 0.647684 0.039367 0.802994
Si Si4 0.055945 0.931588 0.896839
Si Si5 0.199579 0.193944 0.901422
O O1 0.353967 0.396034 0.125000
O O2 0.269678 0.402234 0.025922
O O3 0.349642 0.444972 0.933062
O O4 0.339645 0.349633 0.929164
O O5 0.747482 0.502519 0.375000
O O6 0.699827 0.560840 0.244379
O O7 0.599359 0.059507 0.740773
O O8 0.000000 0.914253 0.869773
O O9 0.056548 0.991041 0.873198
O O10 0.064601 0.924528 0.030037
O O11 0.187195 0.250000 0.940185
#
# Coordination Sequence:
#
# PCOD9573296 Si02
#       5
#    32  16  32  32  32
#     4  11  22  32  44  67  99 135 167 196 244 290
#     4  12  24  32  44  68 104 140 178 196 244 300
#     4  11  22  30  47  66 100 134 169 205 239 297
#     4   8  16  31  50  65  86 119 163 208 245 285
#     4   8  16  31  49  68  86 119 167 214 249 278
#
# _framework density 16.780246000000002
#
# number of rings (size 3 to 8) (size 9 to 14) (size 15 to 20)
#    0.000    2.222    2.222    2.667    3.111    0.000 
#    0.000    1.111    0.000    5.333    0.000    0.000 
#    0.000    3.111    0.000    9.778    0.000    0.889 
#
# Total GULP energy -401084.553464 kJ/mol
# GULP energy per Si atom -5570.618798 kJ/mol
# Density = 1.674205 g / cm^3
# Si number density = 16.780246 Si / 1000 Ang^3
#
#
#
# Elastic Constant Matrix: (Units=GPa)
#
#
# Indices 1 2 3 4 5 6 
#
# 1 83.4353 11.5962 47.5868 0.0000 0.0000 0.0000
# 2 11.5962 83.4350 47.5870 0.0000 0.0000 0.0000
# 3 47.5868 47.5870 130.4964 0.0000 0.0000 0.0000
# 4 0.0000 0.0000 0.0000 20.4087 0.0000 0.0000
# 5 0.0000 0.0000 0.0000 0.0000 20.4097 0.0000
# 6 0.0000 0.0000 0.0000 0.0000 0.0000 5.4515
#
#
#
# Elastic Compliance Matrix: (Units=1/GPa)
#
#
# Indices 1 2 3 4 5 6 
#
# 1 0.015248 0.001328 -0.006045 0.000000 0.000000 0.000000
# 2 0.001328 0.015248 -0.006045 0.000000 0.000000 0.000000
# 3 -0.006045 -0.006045 0.012072 0.000000 0.000000 0.000000
# 4 0.000000 0.000000 0.000000 0.048999 0.000000 0.000000
# 5 0.000000 0.000000 0.000000 0.000000 0.048996 0.000000
# 6 0.000000 0.000000 0.000000 0.000000 0.000000 0.183435
#
#
# Mechanical properties :
#
#
# Convention : Reuss Voigt Hill
#
# Bulk Modulus (GPa) = 47.51558 56.76739 52.14149
# Shear Modulus (GPa) = 14.18292 21.96043 18.07167
#
# Velocity S-wave (km/s) = 2.91041 3.62153 3.28527
# Velocity P-wave (km/s) = 6.29856 7.16873 6.74768
#
# Compressibility (1/GPa) = 0.02104573
#
# Stress axis : x y z
#
# Youngs Moduli (GPa) = 65.58072 65.58031 82.83808
#
# Poissons Ratio (x) = -0.08712 0.50075
# Poissons Ratio (y) = -0.08712 0.50075
# Poissons Ratio (z) = 0.39643 0.39643
#
# Static dielectric constant tensor:
#      x y z
#    x 1.597170 0.000000 0.000000 
#    y 0.000000 1.597170 0.000000 
#    z 0.000000 0.000000 1.613720 
# 
# From -- ./inp_files/4777.got.cif
#   From: 2010.05.17/outbox.cif.g08.bks.cpg/sg141_3_cif.got.tgz:4777.got - 2010.05.20 13:30:51.
