data_PCOD9573728
_publ_section_title
;
Structure prediction by ZEFSAII (Michael W. Deem and Ramdas Pophale) SiO2 
 PCOD9573728
Probable space group: I 41/A C D
;
_chemical_formula_sum "Si O2"
_cell_formula_units_Z 72
_cell_length_a 10.546324
_cell_length_b 10.546324
_cell_length_c 26.082928
_cell_angle_alpha 90.000000
_cell_angle_beta 90.000000
_cell_angle_gamma 90.000000
_cell_volume 2901.072360
_symmetry_space_group_name_H-M "I 41/A C D"
_symmetry_group_IT_number 142
_space_group.IT_coordinate_system_code '2'
_symmetry_cell_setting 'tetragonal'
loop_
_space_group_symop_operation_xyz
x,y,z
1/4-y,3/4+x,1/4+z
-x,1/2-y,z
1/4+y,1/4-x,3/4+z
x,-y,1/2-z
1/2-x,y,-z
3/4+y,1/4+x,1/4-z
1/4-y,1/4-x,1/4-z
-x,-y,-z
3/4+y,1/4-x,3/4-z
x,1/2+y,-z
3/4-y,3/4+x,1/4-z
-x,y,1/2+z
1/2+x,-y,z
1/4-y,3/4-x,3/4+z
3/4+y,3/4+x,3/4+z
1/2+x,1/2+y,1/2+z
3/4-y,1/4+x,3/4+z
1/2-x,-y,1/2+z
3/4+y,3/4-x,1/4+z
1/2+x,1/2-y,-z
-x,1/2+y,1/2-z
1/4+y,3/4+x,3/4-z
3/4-y,3/4-x,3/4-z
1/2-x,1/2-y,1/2-z
1/4+y,3/4-x,1/4-z
1/2+x,y,1/2-z
1/4-y,1/4+x,3/4-z
1/2-x,1/2+y,z
x,1/2-y,1/2+z
3/4-y,1/4-x,1/4+z
1/4+y,1/4+x,1/4+z
loop_
_atom_site_type_symbol
_atom_site_label
_atom_site_fract_x
_atom_site_fract_y
_atom_site_fract_z
Si Si1 0.500000 0.750000 0.553070
Si Si2 0.599029 0.000000 0.250000
Si Si3 0.053474 0.017574 0.942436
Si Si4 0.500000 0.750000 0.875000
O O1 0.629340 0.731508 0.519257
O O2 0.476006 0.617937 0.581300
O O3 0.686285 0.946916 0.296348
O O4 0.987629 0.127587 0.910607
O O5 0.000000 0.000000 0.000000
#
# Coordination Sequence:
#
# PCOD9573728 Si02
#       4
#    16  16  32   8
#     4  10  21  42  75 110 152 204 256 322 401 468
#     4  10  20  42  76 114 156 206 256 334 406 466
#     4  10  22  44  75 113 157 207 265 331 393 473
#     4  12  26  48  84 122 162 220 272 326 418 494
#
# _framework density 24.818408000000002
#
# number of rings (size 3 to 8) (size 9 to 14) (size 15 to 20)
#    0.000    1.778    0.000    6.667    0.000    3.556 
#    0.000   22.222    0.000   10.667    0.000    0.000 
#    0.000    0.000    0.000    0.000    0.000    0.000 
#
# Total GULP energy -201130.142171 kJ/mol
# GULP energy per Si atom -5586.948394 kJ/mol
# Density = 2.476192 g / cm^3
# Si number density = 24.818408 Si / 1000 Ang^3
#
#
#
# Elastic Constant Matrix: (Units=GPa)
#
#
# Indices 1 2 3 4 5 6 
#
# 1 190.6581 46.6344 40.2765 0.0000 0.0000 0.0000
# 2 46.6344 190.6581 40.2765 0.0000 0.0000 0.0000
# 3 40.2765 40.2765 104.5648 0.0000 0.0000 0.0000
# 4 0.0000 0.0000 0.0000 31.0360 0.0000 0.0000
# 5 0.0000 0.0000 0.0000 0.0000 31.0360 0.0000
# 6 0.0000 0.0000 0.0000 0.0000 0.0000 49.4510
#
#
#
# Elastic Compliance Matrix: (Units=1/GPa)
#
#
# Indices 1 2 3 4 5 6 
#
# 1 0.005896 -0.001048 -0.001867 0.000000 0.000000 0.000000
# 2 -0.001048 0.005896 -0.001867 0.000000 0.000000 0.000000
# 3 -0.001867 -0.001867 0.011002 0.000000 0.000000 0.000000
# 4 0.000000 0.000000 0.000000 0.032221 0.000000 0.000000
# 5 0.000000 0.000000 0.000000 0.000000 0.032221 0.000000
# 6 0.000000 0.000000 0.000000 0.000000 0.000000 0.020222
#
#
# Mechanical properties :
#
#
# Convention : Reuss Voigt Hill
#
# Bulk Modulus (GPa) = 75.59355 82.25068 78.92211
# Shear Modulus (GPa) = 41.17555 46.21749 43.69652
#
# Velocity S-wave (km/s) = 4.07759 4.32003 4.20056
# Velocity P-wave (km/s) = 7.25905 7.62211 7.44279
#
# Compressibility (1/GPa) = 0.01322864
#
# Stress axis : x y z
#
# Youngs Moduli (GPa) = 169.61464 169.61464 90.89220
#
# Poissons Ratio (x) = 0.17769 0.16973
# Poissons Ratio (y) = 0.17769 0.16973
# Poissons Ratio (z) = 0.31674 0.31674
#
# Static dielectric constant tensor:
#      x y z
#    x 2.031230 0.000000 0.000000 
#    y 0.000000 2.031230 0.000000 
#    z 0.000000 0.000000 2.027520 
# 
# From -- ./inp_files/10828.got.cif
#   From: 2010.05.17/outbox.cif.g08.bks.cpg/sg142_6_cif.got.tgz:10828.got - 2010.05.20 13:39:18.
