data_PCOD9573504
_publ_section_title
;
Structure prediction by ZEFSAII (Michael W. Deem and Ramdas Pophale) SiO2 
 PCOD9573504
Probable space group: I 41/A C D
;
_chemical_formula_sum "Si O2"
_cell_formula_units_Z 128
_cell_length_a 23.303794
_cell_length_b 23.303794
_cell_length_c 11.370748
_cell_angle_alpha 90.000000
_cell_angle_beta 90.000000
_cell_angle_gamma 90.000000
_cell_volume 6175.075898
_symmetry_space_group_name_H-M "I 41/A C D"
_symmetry_group_IT_number 142
_space_group.IT_coordinate_system_code '2'
_symmetry_cell_setting 'tetragonal'
loop_
_space_group_symop_operation_xyz
x,y,z
1/4-y,3/4+x,1/4+z
-x,1/2-y,z
1/4+y,1/4-x,3/4+z
x,-y,1/2-z
1/2-x,y,-z
3/4+y,1/4+x,1/4-z
1/4-y,1/4-x,1/4-z
-x,-y,-z
3/4+y,1/4-x,3/4-z
x,1/2+y,-z
3/4-y,3/4+x,1/4-z
-x,y,1/2+z
1/2+x,-y,z
1/4-y,3/4-x,3/4+z
3/4+y,3/4+x,3/4+z
1/2+x,1/2+y,1/2+z
3/4-y,1/4+x,3/4+z
1/2-x,-y,1/2+z
3/4+y,3/4-x,1/4+z
1/2+x,1/2-y,-z
-x,1/2+y,1/2-z
1/4+y,3/4+x,3/4-z
3/4-y,3/4-x,3/4-z
1/2-x,1/2-y,1/2-z
1/4+y,3/4-x,1/4-z
1/2+x,y,1/2-z
1/4-y,1/4+x,3/4-z
1/2-x,1/2+y,z
x,1/2-y,1/2+z
3/4-y,1/4-x,1/4+z
1/4+y,1/4+x,1/4+z
loop_
_atom_site_type_symbol
_atom_site_label
_atom_site_fract_x
_atom_site_fract_y
_atom_site_fract_z
Si Si1 0.182362 0.585615 0.004889
Si Si2 0.466300 0.431610 0.228948
Si Si3 0.274378 0.879896 0.126463
Si Si4 0.485867 0.433043 0.976162
O O1 0.176789 0.649173 0.054723
O O2 0.147020 0.533830 0.058298
O O3 0.250000 0.570580 0.000000
O O4 0.159543 0.590458 0.875000
O O5 0.476678 0.500000 0.250000
O O6 0.481784 0.408570 0.360049
O O7 0.496182 0.408594 0.108694
O O8 0.313517 0.936484 0.125000
O O9 0.312062 0.830227 0.184783
O O10 0.250000 0.861784 0.000000
O O11 0.500000 0.500000 0.000000
#
# Coordination Sequence:
#
# PCOD9573504 Si02
#       4
#    32  32  32  32
#     4  11  20  32  48  71 108 149 186 222 274 344
#     4   9  18  32  50  69  93 135 185 232 270 320
#     4  12  22  32  49  76 111 147 181 223 278 338
#     4  10  19  34  51  70  98 139 189 233 272 322
#
# _framework density 20.728491000000002
#
# number of rings (size 3 to 8) (size 9 to 14) (size 15 to 20)
#    0.000    1.500    0.000   11.250    0.000    0.000 
#    0.000    0.000    0.000    0.000    0.000    0.000 
#    0.000    9.000    0.000   76.250    0.000   22.750 
#
# Total GULP energy -356442.143143 kJ/mol
# GULP energy per Si atom -5569.408487 kJ/mol
# Density = 2.068131 g / cm^3
# Si number density = 20.728491 Si / 1000 Ang^3
#
#
#
# Elastic Constant Matrix: (Units=GPa)
#
#
# Indices 1 2 3 4 5 6 
#
# 1 56.8032 2.1188 17.0903 0.0000 0.0000 0.0000
# 2 2.1188 56.7988 17.0895 0.0000 0.0000 0.0000
# 3 17.0903 17.0895 156.0154 0.0000 0.0000 0.0000
# 4 0.0000 0.0000 0.0000 20.3224 0.0000 0.0000
# 5 0.0000 0.0000 0.0000 0.0000 20.3289 0.0000
# 6 0.0000 0.0000 0.0000 0.0000 0.0000 2.5206
#
#
#
# Elastic Compliance Matrix: (Units=1/GPa)
#
#
# Indices 1 2 3 4 5 6 
#
# 1 0.018205 -0.000082 -0.001985 0.000000 0.000000 0.000000
# 2 -0.000082 0.018206 -0.001985 0.000000 0.000000 0.000000
# 3 -0.001985 -0.001985 0.006845 0.000000 0.000000 0.000000
# 4 0.000000 0.000000 0.000000 0.049207 0.000000 0.000000
# 5 0.000000 0.000000 0.000000 0.000000 0.049191 0.000000
# 6 0.000000 0.000000 0.000000 0.000000 0.000000 0.396727
#
#
# Mechanical properties :
#
#
# Convention : Reuss Voigt Hill
#
# Bulk Modulus (GPa) = 28.44853 38.02386 33.23620
# Shear Modulus (GPa) = 8.95733 24.18895 16.57314
#
# Velocity S-wave (km/s) = 2.08102 3.41976 2.83067
# Velocity P-wave (km/s) = 4.41909 5.82894 5.17228
#
# Compressibility (1/GPa) = 0.03515120
#
# Stress axis : x y z
#
# Youngs Moduli (GPa) = 54.92995 54.92577 146.10146
#
# Poissons Ratio (x) = 0.00449 0.29005
# Poissons Ratio (y) = 0.00449 0.29006
# Poissons Ratio (z) = 0.10905 0.10905
#
# Static dielectric constant tensor:
#      x y z
#    x 1.771840 0.000000 0.000000 
#    y 0.000000 1.771790 0.000000 
#    z 0.000000 0.000000 1.867870 
# 
# From -- ./inp_files/3453.got.cif
#   From: 2010.05.17/outbox.cif.g08.bks.cpg/sg142_2_cif.got.tgz:3453.got - 2010.05.20 13:39:18.
