data_PCOD9573398
_publ_section_title
;
Structure prediction by ZEFSAII (Michael W. Deem and Ramdas Pophale) SiO2 
 PCOD9573398
Probable space group: I 41/A C D
;
_chemical_formula_sum "Si O2"
_cell_formula_units_Z 160
_cell_length_a 23.768255
_cell_length_b 23.768255
_cell_length_c 15.252854
_cell_angle_alpha 90.000000
_cell_angle_beta 90.000000
_cell_angle_gamma 90.000000
_cell_volume 8616.793983
_symmetry_space_group_name_H-M "I 41/A C D"
_symmetry_group_IT_number 142
_space_group.IT_coordinate_system_code '2'
_symmetry_cell_setting 'tetragonal'
loop_
_space_group_symop_operation_xyz
x,y,z
1/4-y,3/4+x,1/4+z
-x,1/2-y,z
1/4+y,1/4-x,3/4+z
x,-y,1/2-z
1/2-x,y,-z
3/4+y,1/4+x,1/4-z
1/4-y,1/4-x,1/4-z
-x,-y,-z
3/4+y,1/4-x,3/4-z
x,1/2+y,-z
3/4-y,3/4+x,1/4-z
-x,y,1/2+z
1/2+x,-y,z
1/4-y,3/4-x,3/4+z
3/4+y,3/4+x,3/4+z
1/2+x,1/2+y,1/2+z
3/4-y,1/4+x,3/4+z
1/2-x,-y,1/2+z
3/4+y,3/4-x,1/4+z
1/2+x,1/2-y,-z
-x,1/2+y,1/2-z
1/4+y,3/4+x,3/4-z
3/4-y,3/4-x,3/4-z
1/2-x,1/2-y,1/2-z
1/4+y,3/4-x,1/4-z
1/2+x,y,1/2-z
1/4-y,1/4+x,3/4-z
1/2-x,1/2+y,z
x,1/2-y,1/2+z
3/4-y,1/4-x,1/4+z
1/4+y,1/4+x,1/4+z
loop_
_atom_site_type_symbol
_atom_site_label
_atom_site_fract_x
_atom_site_fract_y
_atom_site_fract_z
Si Si1 0.105322 0.855322 0.375000
Si Si2 0.512116 0.684585 0.500328
Si Si3 0.411046 0.661046 0.625000
Si Si4 0.827930 0.255064 0.847611
Si Si5 0.807087 0.696133 0.970061
Si Si6 0.284428 0.796475 0.667428
O O1 0.077315 0.823968 0.290279
O O2 0.090990 0.921230 0.379455
O O3 0.500000 0.750000 0.486982
O O4 0.470461 0.661896 0.576094
O O5 0.493132 0.644288 0.421585
O O6 0.409106 0.609066 0.690337
O O7 0.803832 0.216007 0.767480
O O8 0.782884 0.306328 0.839295
O O9 0.823594 0.231323 0.944582
O O10 0.793452 0.739969 0.891438
O O11 0.750000 0.665569 0.000000
#
# Coordination Sequence:
#
# PCOD9573398 Si02
#       6
#    16  32  16  32  32  32
#     4  10  15  30  54  74 109 156 183 231 305 338
#     4  11  18  33  51  80 122 160 189 232 307 368
#     4  12  19  36  52  76 117 152 193 259 303 368
#     4   9  19  33  52  76 107 163 203 235 287 367
#     4  10  20  36  56  77 111 157 201 244 304 360
#     4   9  17  34  53  74 113 154 202 248 281 361
#
# _framework density 18.568391999999999
#
# number of rings (size 3 to 8) (size 9 to 14) (size 15 to 20)
#    0.000    2.000    6.000    0.000    0.000    0.000 
#   10.800    1.000    0.000    0.000    0.000    1.400 
#    0.000    0.000    0.000    0.000    0.000    0.000 
#
# Total GULP energy -445337.139330 kJ/mol
# GULP energy per Si atom -5566.714242 kJ/mol
# Density = 1.852613 g / cm^3
# Si number density = 18.568392 Si / 1000 Ang^3
#
#
#
# Elastic Constant Matrix: (Units=GPa)
#
#
# Indices 1 2 3 4 5 6 
#
# 1 103.5316 27.4100 11.7511 0.0000 0.0000 0.0000
# 2 27.4100 103.5316 11.7511 0.0000 0.0000 0.0000
# 3 11.7511 11.7511 85.0726 0.0000 0.0000 0.0000
# 4 0.0000 0.0000 0.0000 23.6294 0.0000 0.0000
# 5 0.0000 0.0000 0.0000 0.0000 23.6294 0.0000
# 6 0.0000 0.0000 0.0000 0.0000 0.0000 20.4841
#
#
#
# Elastic Compliance Matrix: (Units=1/GPa)
#
#
# Indices 1 2 3 4 5 6 
#
# 1 0.010484 -0.002653 -0.001082 0.000000 0.000000 0.000000
# 2 -0.002653 0.010484 -0.001082 0.000000 0.000000 0.000000
# 3 -0.001082 -0.001082 0.012054 0.000000 0.000000 0.000000
# 4 0.000000 0.000000 0.000000 0.042320 0.000000 0.000000
# 5 0.000000 0.000000 0.000000 0.000000 0.042320 0.000000
# 6 0.000000 0.000000 0.000000 0.000000 0.000000 0.048818
#
#
# Mechanical properties :
#
#
# Convention : Reuss Voigt Hill
#
# Bulk Modulus (GPa) = 42.75527 43.77335 43.26431
# Shear Modulus (GPa) = 27.18735 29.63016 28.40875
#
# Velocity S-wave (km/s) = 3.83060 3.99899 3.91570
# Velocity P-wave (km/s) = 6.52997 6.70432 6.61772
#
# Compressibility (1/GPa) = 0.02338893
#
# Stress axis : x y z
#
# Youngs Moduli (GPa) = 95.38335 95.38335 82.96342
#
# Poissons Ratio (x) = 0.25304 0.08974
# Poissons Ratio (y) = 0.25304 0.08974
# Poissons Ratio (z) = 0.10318 0.10318
#
# Static dielectric constant tensor:
#      x y z
#    x 1.725110 0.000000 0.000000 
#    y 0.000000 1.725110 0.000000 
#    z 0.000000 0.000000 1.689460 
# 
# From -- ./inp_files/5478.got.cif
#   From: 2010.05.17/outbox.cif.g08.bks.cpg/sg142_3_cif.got.tgz:5478.got - 2010.05.20 13:39:18.
