data_PCOD9573942
_publ_section_title
;
Structure prediction by ZEFSAII (Michael W. Deem and Ramdas Pophale) SiO2 
 PCOD9573942
Probable space group: I 41/A C D
;
_chemical_formula_sum "Si O2"
_cell_formula_units_Z 80
_cell_length_a 12.919118
_cell_length_b 12.919118
_cell_length_c 21.056970
_cell_angle_alpha 90.000000
_cell_angle_beta 90.000000
_cell_angle_gamma 90.000000
_cell_volume 3514.484307
_symmetry_space_group_name_H-M "I 41/A C D"
_symmetry_group_IT_number 142
_space_group.IT_coordinate_system_code '2'
_symmetry_cell_setting 'tetragonal'
loop_
_space_group_symop_operation_xyz
x,y,z
1/4-y,3/4+x,1/4+z
-x,1/2-y,z
1/4+y,1/4-x,3/4+z
x,-y,1/2-z
1/2-x,y,-z
3/4+y,1/4+x,1/4-z
1/4-y,1/4-x,1/4-z
-x,-y,-z
3/4+y,1/4-x,3/4-z
x,1/2+y,-z
3/4-y,3/4+x,1/4-z
-x,y,1/2+z
1/2+x,-y,z
1/4-y,3/4-x,3/4+z
3/4+y,3/4+x,3/4+z
1/2+x,1/2+y,1/2+z
3/4-y,1/4+x,3/4+z
1/2-x,-y,1/2+z
3/4+y,3/4-x,1/4+z
1/2+x,1/2-y,-z
-x,1/2+y,1/2-z
1/4+y,3/4+x,3/4-z
3/4-y,3/4-x,3/4-z
1/2-x,1/2-y,1/2-z
1/4+y,3/4-x,1/4-z
1/2+x,y,1/2-z
1/4-y,1/4+x,3/4-z
1/2-x,1/2+y,z
x,1/2-y,1/2+z
3/4-y,1/4-x,1/4+z
1/4+y,1/4+x,1/4+z
loop_
_atom_site_type_symbol
_atom_site_label
_atom_site_fract_x
_atom_site_fract_y
_atom_site_fract_z
Si Si1 0.211516 0.187498 0.810483
Si Si2 0.750000 0.932984 0.000000
Si Si3 0.513268 0.431379 0.191480
O O1 0.250000 0.250000 0.750000
O O2 0.239548 0.248992 0.874543
O O3 0.415346 0.161343 0.564131
O O4 0.258185 0.071733 0.800475
O O5 0.829559 0.855701 0.036296
O O6 0.556171 0.500000 0.250000
#
# Coordination Sequence:
#
# PCOD9573942 Si02
#       3
#    32  16  32
#     4  12  24  44  76 100 146 198 235 306 377 436
#     4  10  22  46  68  96 146 182 234 306 360 434
#     4  10  25  44  68 107 138 181 254 291 363 454
#
# _framework density 22.762941999999999
#
# number of rings (size 3 to 8) (size 9 to 14) (size 15 to 20)
#    1.200    0.000    2.000    3.600    0.000    7.200 
#    0.000    0.000    8.800    0.000    0.000    0.000 
#    0.000    0.000    0.000    0.000    0.000    0.000 
#
# Total GULP energy -222781.148338 kJ/mol
# GULP energy per Si atom -5569.528708 kJ/mol
# Density = 2.271113 g / cm^3
# Si number density = 22.762942 Si / 1000 Ang^3
#
#
#
# Elastic Constant Matrix: (Units=GPa)
#
#
# Indices 1 2 3 4 5 6 
#
# 1 83.6054 41.5124 36.8679 0.0000 0.0000 0.0000
# 2 41.5124 83.6054 36.8679 0.0000 0.0000 0.0000
# 3 36.8679 36.8679 198.8256 0.0000 0.0000 0.0000
# 4 0.0000 0.0000 0.0000 25.4329 0.0000 0.0000
# 5 0.0000 0.0000 0.0000 0.0000 25.4329 0.0000
# 6 0.0000 0.0000 0.0000 0.0000 0.0000 19.6635
#
#
#
# Elastic Compliance Matrix: (Units=1/GPa)
#
#
# Indices 1 2 3 4 5 6 
#
# 1 0.016365 -0.007392 -0.001664 0.000000 0.000000 0.000000
# 2 -0.007392 0.016365 -0.001664 0.000000 0.000000 0.000000
# 3 -0.001664 -0.001664 0.005647 0.000000 0.000000 0.000000
# 4 0.000000 0.000000 0.000000 0.039319 0.000000 0.000000
# 5 0.000000 0.000000 0.000000 0.000000 0.039319 0.000000
# 6 0.000000 0.000000 0.000000 0.000000 0.000000 0.050856
#
#
# Mechanical properties :
#
#
# Convention : Reuss Voigt Hill
#
# Bulk Modulus (GPa) = 59.04154 66.28142 62.66148
# Shear Modulus (GPa) = 25.64686 30.82506 28.23596
#
# Velocity S-wave (km/s) = 3.36027 3.68391 3.52580
# Velocity P-wave (km/s) = 6.40695 6.87577 6.64550
#
# Compressibility (1/GPa) = 0.01693723
#
# Stress axis : x y z
#
# Youngs Moduli (GPa) = 61.10611 61.10611 177.09820
#
# Poissons Ratio (x) = 0.45169 0.29467
# Poissons Ratio (y) = 0.45169 0.29467
# Poissons Ratio (z) = 0.10167 0.10167
#
# Static dielectric constant tensor:
#      x y z
#    x 1.897800 0.000000 0.000000 
#    y 0.000000 1.897800 0.000000 
#    z 0.000000 0.000000 1.903800 
# 
# From -- ./inp_files/4644.got.cif
#   From: 2010.05.17/outbox.cif.g08.bks.cpg/sg142_3_cif.got.tgz:4644.got - 2010.05.20 13:39:18.
