data_PCOD9573479
_publ_section_title
;
Structure prediction by ZEFSAII (Michael W. Deem and Ramdas Pophale) SiO2 
 PCOD9573479
Probable space group: I 41/A C D
;
_chemical_formula_sum "Si O2"
_cell_formula_units_Z 144
_cell_length_a 19.689945
_cell_length_b 19.689945
_cell_length_c 21.035752
_cell_angle_alpha 90.000000
_cell_angle_beta 90.000000
_cell_angle_gamma 90.000000
_cell_volume 8155.433450
_symmetry_space_group_name_H-M "I 41/A C D"
_symmetry_group_IT_number 142
_space_group.IT_coordinate_system_code '2'
_symmetry_cell_setting 'tetragonal'
loop_
_space_group_symop_operation_xyz
x,y,z
1/4-y,3/4+x,1/4+z
-x,1/2-y,z
1/4+y,1/4-x,3/4+z
x,-y,1/2-z
1/2-x,y,-z
3/4+y,1/4+x,1/4-z
1/4-y,1/4-x,1/4-z
-x,-y,-z
3/4+y,1/4-x,3/4-z
x,1/2+y,-z
3/4-y,3/4+x,1/4-z
-x,y,1/2+z
1/2+x,-y,z
1/4-y,3/4-x,3/4+z
3/4+y,3/4+x,3/4+z
1/2+x,1/2+y,1/2+z
3/4-y,1/4+x,3/4+z
1/2-x,-y,1/2+z
3/4+y,3/4-x,1/4+z
1/2+x,1/2-y,-z
-x,1/2+y,1/2-z
1/4+y,3/4+x,3/4-z
3/4-y,3/4-x,3/4-z
1/2-x,1/2-y,1/2-z
1/4+y,3/4-x,1/4-z
1/2+x,y,1/2-z
1/4-y,1/4+x,3/4-z
1/2-x,1/2+y,z
x,1/2-y,1/2+z
3/4-y,1/4-x,1/4+z
1/4+y,1/4+x,1/4+z
loop_
_atom_site_type_symbol
_atom_site_label
_atom_site_fract_x
_atom_site_fract_y
_atom_site_fract_z
Si Si1 0.027629 0.871866 0.336459
Si Si2 0.175832 0.852614 0.532349
Si Si3 0.255144 0.146105 0.710270
Si Si4 0.265314 0.795317 0.343867
Si Si5 0.124340 0.625661 0.375000
O O1 0.058869 0.808869 0.375000
O O2 0.062265 0.878413 0.267502
O O3 0.946040 0.872564 0.335307
O O4 0.047443 0.939409 0.376587
O O5 0.250000 0.853143 0.500000
O O6 0.184171 0.815702 0.599908
O O7 0.151289 0.929307 0.542300
O O8 0.276816 0.219822 0.682900
O O9 0.233046 0.155614 0.783341
O O10 0.190332 0.124340 0.669326
#
# Coordination Sequence:
#
# PCOD9573479 Si02
#       5
#    32  32  32  32  16
#     4  10  18  37  59  84 109 152 197 230 279 355
#     4  10  21  35  61  85 112 154 196 234 288 358
#     4  10  20  38  55  82 120 151 187 245 293 340
#     4   9  20  36  57  79 115 156 186 231 298 344
#     4  10  23  34  58  88 114 148 194 239 288 336
#
# _framework density 17.656939999999999
#
# number of rings (size 3 to 8) (size 9 to 14) (size 15 to 20)
#    0.000    2.222    2.222    0.333    0.000    3.556 
#    0.000    5.556    0.000    0.000    0.000    0.000 
#    0.000    0.000    0.000    0.000    0.000    0.000 
#
# Total GULP energy -401572.806548 kJ/mol
# GULP energy per Si atom -5577.400091 kJ/mol
# Density = 1.761675 g / cm^3
# Si number density = 17.656940 Si / 1000 Ang^3
#
#
#
# Elastic Constant Matrix: (Units=GPa)
#
#
# Indices 1 2 3 4 5 6 
#
# 1 62.9660 33.7535 47.5127 0.0000 0.0000 0.0000
# 2 33.7535 62.9666 47.5126 0.0000 0.0000 0.0000
# 3 47.5127 47.5126 127.8449 0.0000 0.0000 0.0000
# 4 0.0000 0.0000 0.0000 17.4315 0.0000 0.0000
# 5 0.0000 0.0000 0.0000 0.0000 17.4314 0.0000
# 6 0.0000 0.0000 0.0000 0.0000 0.0000 22.1896
#
#
#
# Elastic Compliance Matrix: (Units=1/GPa)
#
#
# Indices 1 2 3 4 5 6 
#
# 1 0.025259 -0.008973 -0.006052 0.000000 0.000000 0.000000
# 2 -0.008973 0.025258 -0.006052 0.000000 0.000000 0.000000
# 3 -0.006052 -0.006052 0.012321 0.000000 0.000000 0.000000
# 4 0.000000 0.000000 0.000000 0.057368 0.000000 0.000000
# 5 0.000000 0.000000 0.000000 0.000000 0.057368 0.000000
# 6 0.000000 0.000000 0.000000 0.000000 0.000000 0.045066
#
#
# Mechanical properties :
#
#
# Convention : Reuss Voigt Hill
#
# Bulk Modulus (GPa) = 48.35102 56.81500 52.58301
# Shear Modulus (GPa) = 18.40340 19.74373 19.07356
#
# Velocity S-wave (km/s) = 3.23193 3.34756 3.29025
# Velocity P-wave (km/s) = 6.43197 6.86939 6.65427
#
# Compressibility (1/GPa) = 0.02068209
#
# Stress axis : x y z
#
# Youngs Moduli (GPa) = 39.59030 39.59085 81.16467
#
# Poissons Ratio (x) = 0.35525 0.49125
# Poissons Ratio (y) = 0.35524 0.49123
# Poissons Ratio (z) = 0.23962 0.23962
#
# Static dielectric constant tensor:
#      x y z
#    x 1.593870 0.000000 0.000000 
#    y 0.000000 1.593870 0.000000 
#    z 0.000000 0.000000 1.592670 
# 
# From -- ./inp_files/9001.got.cif
#   From: 2010.05.17/outbox.cif.g08.bks.cpg/sg142_5_cif.got.tgz:9001.got - 2010.05.20 13:39:18.
