data_PCOD9573883
_publ_section_title
;
Structure prediction by ZEFSAII (Michael W. Deem and Ramdas Pophale) SiO2 
 PCOD9573883
Probable space group: I 41/A C D
;
_chemical_formula_sum "Si O2"
_cell_formula_units_Z 192
_cell_length_a 27.590705
_cell_length_b 27.590705
_cell_length_c 10.378590
_cell_angle_alpha 90.000000
_cell_angle_beta 90.000000
_cell_angle_gamma 90.000000
_cell_volume 7900.670527
_symmetry_space_group_name_H-M "I 41/A C D"
_symmetry_group_IT_number 142
_space_group.IT_coordinate_system_code '2'
_symmetry_cell_setting 'tetragonal'
loop_
_space_group_symop_operation_xyz
x,y,z
1/4-y,3/4+x,1/4+z
-x,1/2-y,z
1/4+y,1/4-x,3/4+z
x,-y,1/2-z
1/2-x,y,-z
3/4+y,1/4+x,1/4-z
1/4-y,1/4-x,1/4-z
-x,-y,-z
3/4+y,1/4-x,3/4-z
x,1/2+y,-z
3/4-y,3/4+x,1/4-z
-x,y,1/2+z
1/2+x,-y,z
1/4-y,3/4-x,3/4+z
3/4+y,3/4+x,3/4+z
1/2+x,1/2+y,1/2+z
3/4-y,1/4+x,3/4+z
1/2-x,-y,1/2+z
3/4+y,3/4-x,1/4+z
1/2+x,1/2-y,-z
-x,1/2+y,1/2-z
1/4+y,3/4+x,3/4-z
3/4-y,3/4-x,3/4-z
1/2-x,1/2-y,1/2-z
1/4+y,3/4-x,1/4-z
1/2+x,y,1/2-z
1/4-y,1/4+x,3/4-z
1/2-x,1/2+y,z
x,1/2-y,1/2+z
3/4-y,1/4-x,1/4+z
1/4+y,1/4+x,1/4+z
loop_
_atom_site_type_symbol
_atom_site_label
_atom_site_fract_x
_atom_site_fract_y
_atom_site_fract_z
Si Si1 0.380528 0.500000 0.250000
Si Si2 0.663508 0.090238 0.617581
Si Si3 0.863460 0.247729 0.094403
Si Si4 0.989500 0.171389 0.902919
Si Si5 0.331735 0.500000 0.750000
Si Si6 0.430430 0.459007 0.492045
Si Si7 0.411828 0.053528 0.415665
O O1 0.354615 0.551437 0.252705
O O2 0.409535 0.494163 0.380724
O O3 0.611551 0.071651 0.565987
O O4 0.665651 0.135429 0.718203
O O5 0.692548 0.043372 0.674646
O O6 0.906389 0.242738 0.198448
O O7 0.826768 0.283009 0.171604
O O8 0.840204 0.194672 0.085901
O O9 0.878852 0.266379 0.953675
O O10 0.947279 0.210132 0.883090
O O11 0.365968 0.530846 0.655941
O O12 0.446449 0.504653 0.578777
#
# Coordination Sequence:
#
# PCOD9573883 Si02
#       7
#    16  32  32  32  16  32  32
#     4  10  22  41  65  96 142 184 240 297 351 430
#     4  10  22  42  65  96 141 188 236 302 354 418
#     4  12  27  44  80 106 137 196 235 293 374 433
#     4  11  28  50  70 104 145 182 238 303 363 438
#     4  10  22  41  65  96 142 184 240 297 351 430
#     4  10  24  43  67 103 144 183 242 302 354 430
#     4  10  24  43  67 103 144 183 242 302 354 430
#
# _framework density 24.301735999999998
#
# number of rings (size 3 to 8) (size 9 to 14) (size 15 to 20)
#    0.000    1.500    0.000    2.500   11.667    4.667 
#    0.000   24.167    0.000    0.000    0.000    0.000 
#    0.000    0.000    0.000    0.000    0.000    0.000 
#
# Total GULP energy -535137.382834 kJ/mol
# GULP energy per Si atom -5574.347738 kJ/mol
# Density = 2.424642 g / cm^3
# Si number density = 24.301736 Si / 1000 Ang^3
#
#
#
# Elastic Constant Matrix: (Units=GPa)
#
#
# Indices 1 2 3 4 5 6 
#
# 1 56.7498 23.3503 6.1225 0.0000 0.0000 0.0000
# 2 23.3503 56.7498 6.1225 0.0000 0.0000 0.0000
# 3 6.1225 6.1225 54.8062 0.0000 0.0000 0.0000
# 4 0.0000 0.0000 0.0000 39.0622 0.0000 0.0000
# 5 0.0000 0.0000 0.0000 0.0000 39.0622 0.0000
# 6 0.0000 0.0000 0.0000 0.0000 0.0000 27.9622
#
#
#
# Elastic Compliance Matrix: (Units=1/GPa)
#
#
# Indices 1 2 3 4 5 6 
#
# 1 0.021321 -0.008620 -0.001419 0.000000 0.000000 0.000000
# 2 -0.008620 0.021321 -0.001419 0.000000 0.000000 0.000000
# 3 -0.001419 -0.001419 0.018563 0.000000 0.000000 0.000000
# 4 0.000000 0.000000 0.000000 0.025600 0.000000 0.000000
# 5 0.000000 0.000000 0.000000 0.000000 0.025600 0.000000
# 6 0.000000 0.000000 0.000000 0.000000 0.000000 0.035763
#
#
# Mechanical properties :
#
#
# Convention : Reuss Voigt Hill
#
# Bulk Modulus (GPa) = 26.11634 26.61068 26.36351
# Shear Modulus (GPa) = 27.19664 30.06467 28.63066
#
# Velocity S-wave (km/s) = 3.34896 3.52112 3.43612
# Velocity P-wave (km/s) = 5.07189 5.24451 5.15892
#
# Compressibility (1/GPa) = 0.03829021
#
# Stress axis : x y z
#
# Youngs Moduli (GPa) = 46.90226 46.90226 53.87022
#
# Poissons Ratio (x) = 0.40428 0.07644
# Poissons Ratio (y) = 0.40428 0.07644
# Poissons Ratio (z) = 0.06655 0.06655
#
# Static dielectric constant tensor:
#      x y z
#    x 1.861260 0.000000 0.000000 
#    y 0.000000 1.861260 0.000000 
#    z 0.000000 0.000000 2.035470 
# 
# From -- ./inp_files/4188.got.cif
#   From: 2010.05.17/outbox.cif.g08.bks.cpg/sg142_3_cif.got.tgz:4188.got - 2010.05.20 13:39:18.
