data_PCOD9573371
_publ_section_title
;
Structure prediction by ZEFSAII (Michael W. Deem and Ramdas Pophale) SiO2 
 PCOD9573371
Probable space group: I 41/A M D
;
_chemical_formula_sum "Si O2"
_cell_formula_units_Z 128
_cell_length_a 15.999738
_cell_length_b 15.999738
_cell_length_c 22.767304
_cell_angle_alpha 90.000000
_cell_angle_beta 90.000000
_cell_angle_gamma 90.000000
_cell_volume 5828.238944
_symmetry_space_group_name_H-M "I 41/A M D"
_symmetry_group_IT_number 141
_space_group.IT_coordinate_system_code '2'
_symmetry_cell_setting 'tetragonal'
loop_
_space_group_symop_operation_xyz
x,y,z
1/4-y,3/4+x,1/4+z
-x,1/2-y,z
1/4+y,1/4-x,3/4+z
x,-y,-z
-x,1/2+y,-z
1/4+y,3/4+x,1/4-z
1/4-y,1/4-x,3/4-z
-x,-y,-z
3/4+y,1/4-x,3/4-z
x,1/2+y,-z
3/4-y,3/4+x,1/4-z
-x,y,z
x,1/2-y,z
3/4-y,1/4-x,3/4+z
3/4+y,3/4+x,1/4+z
1/2+x,1/2+y,1/2+z
3/4-y,1/4+x,3/4+z
1/2-x,-y,1/2+z
3/4+y,3/4-x,1/4+z
1/2+x,1/2-y,1/2-z
1/2-x,y,1/2-z
3/4+y,1/4+x,3/4-z
3/4-y,3/4-x,1/4-z
1/2-x,1/2-y,1/2-z
1/4+y,3/4-x,1/4-z
1/2+x,y,1/2-z
1/4-y,1/4+x,3/4-z
1/2-x,1/2+y,1/2+z
1/2+x,-y,1/2+z
1/4-y,3/4-x,1/4+z
1/4+y,1/4+x,3/4+z
loop_
_atom_site_type_symbol
_atom_site_label
_atom_site_fract_x
_atom_site_fract_y
_atom_site_fract_z
Si Si1 0.593823 0.873721 0.656159
Si Si2 0.093908 0.070441 0.820008
Si Si3 0.910931 0.350451 0.458689
Si Si4 0.598810 0.475351 0.804128
O O1 0.500000 0.845952 0.638386
O O2 0.612326 0.839451 0.721058
O O3 0.665314 0.855297 0.609501
O O4 0.590094 0.972781 0.664815
O O5 0.138383 0.111618 0.875000
O O6 0.133579 0.070130 0.754606
O O7 0.000000 0.105728 0.816207
O O8 0.912809 0.250000 0.448434
O O9 0.820055 0.382761 0.438239
O O10 0.000000 0.384722 0.434999
O O11 0.500000 0.487127 0.790976
#
# Coordination Sequence:
#
# PCOD9573371 Si02
#       4
#    32  32  32  32
#     4   9  17  29  46  69  97 131 170 206 246 302
#     4   9  19  33  45  63  94 128 162 201 246 296
#     4   8  14  26  44  67  99 134 163 200 250 296
#     4   9  17  28  44  69  96 124 167 211 243 293
#
# _framework density 21.962038
#
# number of rings (size 3 to 8) (size 9 to 14) (size 15 to 20)
#    0.000    3.250    0.000    3.750    0.000    3.750 
#    0.000    5.000    0.000    0.000    0.000   15.750 
#    0.000    8.000    0.000    0.500    0.000    1.000 
#
# Total GULP energy -356854.342915 kJ/mol
# GULP energy per Si atom -5575.849108 kJ/mol
# Density = 2.191205 g / cm^3
# Si number density = 21.962038 Si / 1000 Ang^3
#
#
#
# Elastic Constant Matrix: (Units=GPa)
#
#
# Indices 1 2 3 4 5 6 
#
# 1 65.9464 20.9135 55.3989 0.0000 0.0000 0.0000
# 2 20.9135 65.9472 55.3991 0.0000 0.0000 0.0000
# 3 55.3989 55.3991 152.8348 0.0000 0.0000 0.0000
# 4 0.0000 0.0000 0.0000 -52.4645 0.0000 0.0000
# 5 0.0000 0.0000 0.0000 0.0000 -52.4599 0.0000
# 6 0.0000 0.0000 0.0000 0.0000 0.0000 19.8440
#
#
#
# Elastic Compliance Matrix: (Units=1/GPa)
#
#
# Indices 1 2 3 4 5 6 
#
# 1 0.021810 -0.000396 -0.007762 0.000000 0.000000 0.000000
# 2 -0.000396 0.021810 -0.007762 0.000000 0.000000 0.000000
# 3 -0.007762 -0.007762 0.012170 0.000000 0.000000 0.000000
# 4 0.000000 0.000000 0.000000 -0.019061 0.000000 0.000000
# 5 0.000000 0.000000 0.000000 0.000000 -0.019062 0.000000
# 6 0.000000 0.000000 0.000000 0.000000 0.000000 0.050393
#
#
# Mechanical properties :
#
#
# Convention : Reuss Voigt Hill
#
# Bulk Modulus (GPa) = 41.75404 60.90571 51.32988
# Shear Modulus (GPa) = 46.34627 -6.81496 19.76565
#
# Velocity S-wave (km/s) = 4.59877 -1.76346 3.00324
# Velocity P-wave (km/s) = 6.87397 4.86272 5.95389
#
# Compressibility (1/GPa) = 0.02394978
#
# Stress axis : x y z
#
# Youngs Moduli (GPa) = 45.85056 45.85118 82.16843
#
# Poissons Ratio (x) = 0.01815 0.63780
# Poissons Ratio (y) = 0.01815 0.63779
# Poissons Ratio (z) = 0.35590 0.35590
#
# Static dielectric constant tensor:
#      x y z
#    x 1.832640 0.000000 0.000000 
#    y 0.000000 1.832640 0.000000 
#    z 0.000000 0.000000 1.835980 
# 
# From -- ./inp_files/11354.got.cif
#   From: 2010.05.17/outbox.cif.g08.bks.cpg/sg141_6_cif.got.tgz:11354.got - 2010.05.20 13:30:51.
