data_PCOD9573232
_publ_section_title
;
Structure prediction by ZEFSAII (Michael W. Deem and Ramdas Pophale) SiO2 
 PCOD9573232
Probable space group: I 41/A M D
;
_chemical_formula_sum "Si O2"
_cell_formula_units_Z 160
_cell_length_a 21.000519
_cell_length_b 21.000519
_cell_length_c 18.139078
_cell_angle_alpha 90.000000
_cell_angle_beta 90.000000
_cell_angle_gamma 90.000000
_cell_volume 7999.728799
_symmetry_space_group_name_H-M "I 41/A M D"
_symmetry_group_IT_number 141
_space_group.IT_coordinate_system_code '2'
_symmetry_cell_setting 'tetragonal'
loop_
_space_group_symop_operation_xyz
x,y,z
1/4-y,3/4+x,1/4+z
-x,1/2-y,z
1/4+y,1/4-x,3/4+z
x,-y,-z
-x,1/2+y,-z
1/4+y,3/4+x,1/4-z
1/4-y,1/4-x,3/4-z
-x,-y,-z
3/4+y,1/4-x,3/4-z
x,1/2+y,-z
3/4-y,3/4+x,1/4-z
-x,y,z
x,1/2-y,z
3/4-y,1/4-x,3/4+z
3/4+y,3/4+x,1/4+z
1/2+x,1/2+y,1/2+z
3/4-y,1/4+x,3/4+z
1/2-x,-y,1/2+z
3/4+y,3/4-x,1/4+z
1/2+x,1/2-y,1/2-z
1/2-x,y,1/2-z
3/4+y,1/4+x,3/4-z
3/4-y,3/4-x,1/4-z
1/2-x,1/2-y,1/2-z
1/4+y,3/4-x,1/4-z
1/2+x,y,1/2-z
1/4-y,1/4+x,3/4-z
1/2-x,1/2+y,1/2+z
1/2+x,-y,1/2+z
1/4-y,3/4-x,1/4+z
1/4+y,1/4+x,3/4+z
loop_
_atom_site_type_symbol
_atom_site_label
_atom_site_fract_x
_atom_site_fract_y
_atom_site_fract_z
Si Si1 0.927417 0.921211 0.659491
Si Si2 0.662505 0.990322 0.087466
Si Si3 0.811489 0.155043 0.581852
Si Si4 0.160546 0.821558 0.078796
Si Si5 0.570749 0.322250 0.440229
O O1 0.882807 0.867193 0.625000
O O2 0.918985 0.921074 0.747191
O O3 0.000000 0.910761 0.639850
O O4 0.902543 0.988235 0.626677
O O5 0.685042 0.919433 0.098339
O O6 0.714006 0.035995 0.125000
O O7 0.657342 0.000000 0.000000
O O8 0.737211 0.175014 0.587330
O O9 0.868292 0.180241 0.634024
O O10 0.126443 0.876443 0.125000
O O11 0.141712 0.750000 0.102769
O O12 0.129348 0.829122 0.997329
O O13 0.500000 0.323204 0.476852
O O14 0.576716 0.250000 0.407434
#
# Coordination Sequence:
#
# PCOD9573232 Si02
#       5
#    32  32  32  32  32
#     4  11  24  43  65  93 130 174 221 272 328 399
#     4  11  22  42  65  94 129 170 212 266 337 394
#     4  12  23  42  67  96 134 169 222 277 333 399
#     4  11  24  43  68  97 131 176 222 278 343 409
#     4  10  23  42  65  95 133 177 222 273 339 410
#
# _framework density 20.000678000000001
#
# number of rings (size 3 to 8) (size 9 to 14) (size 15 to 20)
#    0.000    1.000    4.000    4.200    0.000    5.600 
#    0.000    2.000    0.000    0.000    0.000    0.000 
#    0.000    0.000    0.000    0.000    0.000    0.000 
#
# Total GULP energy -446131.028217 kJ/mol
# GULP energy per Si atom -5576.637853 kJ/mol
# Density = 1.995516 g / cm^3
# Si number density = 20.000678 Si / 1000 Ang^3
#
#
#
# Elastic Constant Matrix: (Units=GPa)
#
#
# Indices 1 2 3 4 5 6 
#
# 1 140.0157 54.8337 46.5811 0.0000 0.0000 0.0000
# 2 54.8337 140.0138 46.5864 0.0000 0.0000 0.0000
# 3 46.5811 46.5864 90.7903 0.0000 0.0000 0.0000
# 4 0.0000 0.0000 0.0000 7.5998 0.0000 0.0000
# 5 0.0000 0.0000 0.0000 0.0000 7.5904 0.0000
# 6 0.0000 0.0000 0.0000 0.0000 0.0000 24.2942
#
#
#
# Elastic Compliance Matrix: (Units=1/GPa)
#
#
# Indices 1 2 3 4 5 6 
#
# 1 0.009270 -0.002470 -0.003489 0.000000 0.000000 0.000000
# 2 -0.002470 0.009270 -0.003490 0.000000 0.000000 0.000000
# 3 -0.003489 -0.003490 0.014595 0.000000 0.000000 0.000000
# 4 0.000000 0.000000 0.000000 0.131582 0.000000 0.000000
# 5 0.000000 0.000000 0.000000 0.000000 0.131745 0.000000
# 6 0.000000 0.000000 0.000000 0.000000 0.000000 0.041162
#
#
# Mechanical properties :
#
#
# Convention : Reuss Voigt Hill
#
# Bulk Modulus (GPa) = 70.22974 74.09135 72.16055
# Shear Modulus (GPa) = 13.84014 22.75145 18.29580
#
# Velocity S-wave (km/s) = 2.63341 3.37639 3.02778
# Velocity P-wave (km/s) = 6.66606 7.23359 6.95562
#
# Compressibility (1/GPa) = 0.01423898
#
# Stress axis : x y z
#
# Youngs Moduli (GPa) = 107.87629 107.86946 68.51614
#
# Poissons Ratio (x) = 0.26639 0.23904
# Poissons Ratio (y) = 0.26640 0.23911
# Poissons Ratio (z) = 0.37636 0.37645
#
# Static dielectric constant tensor:
#      x y z
#    x 1.730890 0.000000 0.000000 
#    y 0.000000 1.730920 0.000000 
#    z 0.000000 0.000000 1.701390 
# 
# From -- ./inp_files/8563.got.cif
#   From: 2010.05.17/outbox.cif.g08.bks.cpg/sg141_5_cif.got.tgz:8563.got - 2010.05.20 13:30:51.
