data_PCOD9573854
_publ_section_title
;
Structure prediction by ZEFSAII (Michael W. Deem and Ramdas Pophale) SiO2 
 PCOD9573854
Probable space group: I 41/A C D
;
_chemical_formula_sum "Si O2"
_cell_formula_units_Z 120
_cell_length_a 19.383138
_cell_length_b 19.383138
_cell_length_c 13.944620
_cell_angle_alpha 90.000000
_cell_angle_beta 90.000000
_cell_angle_gamma 90.000000
_cell_volume 5239.077942
_symmetry_space_group_name_H-M "I 41/A C D"
_symmetry_group_IT_number 142
_space_group.IT_coordinate_system_code '2'
_symmetry_cell_setting 'tetragonal'
loop_
_space_group_symop_operation_xyz
x,y,z
1/4-y,3/4+x,1/4+z
-x,1/2-y,z
1/4+y,1/4-x,3/4+z
x,-y,1/2-z
1/2-x,y,-z
3/4+y,1/4+x,1/4-z
1/4-y,1/4-x,1/4-z
-x,-y,-z
3/4+y,1/4-x,3/4-z
x,1/2+y,-z
3/4-y,3/4+x,1/4-z
-x,y,1/2+z
1/2+x,-y,z
1/4-y,3/4-x,3/4+z
3/4+y,3/4+x,3/4+z
1/2+x,1/2+y,1/2+z
3/4-y,1/4+x,3/4+z
1/2-x,-y,1/2+z
3/4+y,3/4-x,1/4+z
1/2+x,1/2-y,-z
-x,1/2+y,1/2-z
1/4+y,3/4+x,3/4-z
3/4-y,3/4-x,3/4-z
1/2-x,1/2-y,1/2-z
1/4+y,3/4-x,1/4-z
1/2+x,y,1/2-z
1/4-y,1/4+x,3/4-z
1/2-x,1/2+y,z
x,1/2-y,1/2+z
3/4-y,1/4-x,1/4+z
1/4+y,1/4+x,1/4+z
loop_
_atom_site_type_symbol
_atom_site_label
_atom_site_fract_x
_atom_site_fract_y
_atom_site_fract_z
Si Si1 0.457037 0.518866 0.148287
Si Si2 0.500000 0.750000 0.375000
Si Si3 0.805101 0.555101 0.375000
Si Si4 0.685374 0.500000 0.250000
Si Si5 0.359421 0.609421 0.625000
Si Si6 0.975687 0.612983 0.013095
O O1 0.490182 0.500000 0.250000
O O2 0.379836 0.546002 0.170420
O O3 0.486626 0.578063 0.078244
O O4 0.462943 0.448083 0.088404
O O5 0.569151 0.757968 0.310704
O O6 0.740572 0.550481 0.301511
O O7 0.639744 0.468530 0.334916
O O8 0.381743 0.652760 0.715961
#
# Coordination Sequence:
#
# PCOD9573854 Si02
#       6
#    32   8  16  16  16  32
#     4  11  26  47  74 109 148 196 253 318 390 461
#     4  12  32  54  76 108 158 208 280 314 396 472
#     4  11  20  40  70 108 142 184 238 306 383 460
#     4  10  22  38  68 108 142 180 234 304 384 452
#     4  11  24  43  70 101 144 187 242 307 379 444
#     4  11  29  48  72 107 150 205 257 320 378 469
#
# _framework density 22.904793999999999
#
# number of rings (size 3 to 8) (size 9 to 14) (size 15 to 20)
#    0.000    1.067    4.000    0.000    9.333    2.667 
#    0.000    0.000    0.000    0.000    0.000    0.000 
#    0.000    0.000    0.000    0.000    0.000    0.000 
#
# Total GULP energy -334694.867836 kJ/mol
# GULP energy per Si atom -5578.247797 kJ/mol
# Density = 2.285266 g / cm^3
# Si number density = 22.904794 Si / 1000 Ang^3
#
#
#
# Elastic Constant Matrix: (Units=GPa)
#
#
# Indices 1 2 3 4 5 6 
#
# 1 79.3866 28.4276 33.6093 0.0000 0.0000 0.0000
# 2 28.4276 79.3866 33.6093 0.0000 0.0000 0.0000
# 3 33.6093 33.6093 140.4160 0.0000 0.0000 0.0000
# 4 0.0000 0.0000 0.0000 26.0263 0.0000 0.0000
# 5 0.0000 0.0000 0.0000 0.0000 26.0263 0.0000
# 6 0.0000 0.0000 0.0000 0.0000 0.0000 19.8463
#
#
#
# Elastic Compliance Matrix: (Units=1/GPa)
#
#
# Indices 1 2 3 4 5 6 
#
# 1 0.015263 -0.004361 -0.002609 0.000000 0.000000 0.000000
# 2 -0.004361 0.015263 -0.002609 0.000000 0.000000 0.000000
# 3 -0.002609 -0.002609 0.008371 0.000000 0.000000 0.000000
# 4 0.000000 0.000000 0.000000 0.038423 0.000000 0.000000
# 5 0.000000 0.000000 0.000000 0.000000 0.038423 0.000000
# 6 0.000000 0.000000 0.000000 0.000000 0.000000 0.050387
#
#
# Mechanical properties :
#
#
# Convention : Reuss Voigt Hill
#
# Bulk Modulus (GPa) = 50.66567 54.49797 52.58182
# Shear Modulus (GPa) = 26.05964 27.94933 27.00448
#
# Velocity S-wave (km/s) = 3.37670 3.49698 3.43736
# Velocity P-wave (km/s) = 6.11317 6.33641 6.22579
#
# Compressibility (1/GPa) = 0.01973723
#
# Stress axis : x y z
#
# Youngs Moduli (GPa) = 65.51849 65.51849 119.46171
#
# Poissons Ratio (x) = 0.28571 0.31173
# Poissons Ratio (y) = 0.28571 0.31173
# Poissons Ratio (z) = 0.17097 0.17097
#
# Static dielectric constant tensor:
#      x y z
#    x 1.905510 0.000000 0.000000 
#    y 0.000000 1.905510 0.000000 
#    z 0.000000 0.000000 1.856560 
# 
# From -- ./inp_files/5092.got.cif
#   From: 2010.05.17/outbox.cif.g08.bks.cpg/sg142_3_cif.got.tgz:5092.got - 2010.05.20 13:39:18.
