data_PCOD9573453
_publ_section_title
;
Structure prediction by ZEFSAII (Michael W. Deem and Ramdas Pophale) SiO2 
 PCOD9573453
Probable space group: I 41/A C D
;
_chemical_formula_sum "Si O2"
_cell_formula_units_Z 160
_cell_length_a 24.648020
_cell_length_b 24.648020
_cell_length_c 13.331872
_cell_angle_alpha 90.000000
_cell_angle_beta 90.000000
_cell_angle_gamma 90.000000
_cell_volume 8099.444069
_symmetry_space_group_name_H-M "I 41/A C D"
_symmetry_group_IT_number 142
_space_group.IT_coordinate_system_code '2'
_symmetry_cell_setting 'tetragonal'
loop_
_space_group_symop_operation_xyz
x,y,z
1/4-y,3/4+x,1/4+z
-x,1/2-y,z
1/4+y,1/4-x,3/4+z
x,-y,1/2-z
1/2-x,y,-z
3/4+y,1/4+x,1/4-z
1/4-y,1/4-x,1/4-z
-x,-y,-z
3/4+y,1/4-x,3/4-z
x,1/2+y,-z
3/4-y,3/4+x,1/4-z
-x,y,1/2+z
1/2+x,-y,z
1/4-y,3/4-x,3/4+z
3/4+y,3/4+x,3/4+z
1/2+x,1/2+y,1/2+z
3/4-y,1/4+x,3/4+z
1/2-x,-y,1/2+z
3/4+y,3/4-x,1/4+z
1/2+x,1/2-y,-z
-x,1/2+y,1/2-z
1/4+y,3/4+x,3/4-z
3/4-y,3/4-x,3/4-z
1/2-x,1/2-y,1/2-z
1/4+y,3/4-x,1/4-z
1/2+x,y,1/2-z
1/4-y,1/4+x,3/4-z
1/2-x,1/2+y,z
x,1/2-y,1/2+z
3/4-y,1/4-x,1/4+z
1/4+y,1/4+x,1/4+z
loop_
_atom_site_type_symbol
_atom_site_label
_atom_site_fract_x
_atom_site_fract_y
_atom_site_fract_z
Si Si1 0.333737 0.205551 0.254607
Si Si2 0.060358 0.728555 0.771026
Si Si3 0.796439 0.376015 0.082219
Si Si4 0.882174 0.363889 0.916605
Si Si5 0.278390 0.817561 0.792499
O O1 0.391820 0.227740 0.291722
O O2 0.348980 0.160513 0.174075
O O3 0.304207 0.257538 0.203695
O O4 0.284577 0.183757 0.324177
O O5 0.053065 0.696936 0.875000
O O6 0.082141 0.688469 0.684863
O O7 0.000000 0.750000 0.747841
O O8 0.816069 0.433932 0.125000
O O9 0.781707 0.337745 0.175924
O O10 0.750000 0.380321 0.000000
O O11 0.848085 0.355747 0.018555
O O12 0.894504 0.427656 0.903504
#
# Coordination Sequence:
#
# PCOD9573453 Si02
#       5
#    32  32  32  32  32
#     4  10  19  32  54  80 116 154 195 247 297 368
#     4  10  22  36  52  79 114 151 187 240 304 362
#     4  10  18  33  54  83 119 148 197 253 298 348
#     4  10  19  31  55  81 115 151 194 244 296 352
#     4   9  19  33  49  82 117 156 196 248 304 359
#
# _framework density 19.754441
#
# number of rings (size 3 to 8) (size 9 to 14) (size 15 to 20)
#    0.000    2.200    2.000    3.000    5.600    0.000 
#    0.000    0.000    0.000    0.000   20.800    0.000 
#   12.000    0.000    0.000    0.000    0.000    0.000 
#
# Total GULP energy -445611.112836 kJ/mol
# GULP energy per Si atom -5570.138910 kJ/mol
# Density = 1.970948 g / cm^3
# Si number density = 19.754441 Si / 1000 Ang^3
#
#
#
# Elastic Constant Matrix: (Units=GPa)
#
#
# Indices 1 2 3 4 5 6 
#
# 1 117.9469 72.7409 26.6086 0.0000 0.0000 0.0000
# 2 72.7409 117.9439 26.6071 0.0000 0.0000 0.0000
# 3 26.6086 26.6071 24.8777 0.0000 0.0000 0.0000
# 4 0.0000 0.0000 0.0000 28.9043 0.0000 0.0000
# 5 0.0000 0.0000 0.0000 0.0000 28.9036 0.0000
# 6 0.0000 0.0000 0.0000 0.0000 0.0000 27.9977
#
#
#
# Elastic Compliance Matrix: (Units=1/GPa)
#
#
# Indices 1 2 3 4 5 6 
#
# 1 0.014799 -0.007323 -0.007996 0.000000 0.000000 0.000000
# 2 -0.007323 0.014799 -0.007995 0.000000 0.000000 0.000000
# 3 -0.007996 -0.007995 0.057300 0.000000 0.000000 0.000000
# 4 0.000000 0.000000 0.000000 0.034597 0.000000 0.000000
# 5 0.000000 0.000000 0.000000 0.000000 0.034598 0.000000
# 6 0.000000 0.000000 0.000000 0.000000 0.000000 0.035717
#
#
# Mechanical properties :
#
#
# Convention : Reuss Voigt Hill
#
# Bulk Modulus (GPa) = 24.83302 56.96464 40.89883
# Shear Modulus (GPa) = 19.85232 26.14859 23.00046
#
# Velocity S-wave (km/s) = 3.17354 3.64219 3.41591
# Velocity P-wave (km/s) = 5.10163 6.82542 6.02549
#
# Compressibility (1/GPa) = 0.04026896
#
# Stress axis : x y z
#
# Youngs Moduli (GPa) = 67.57386 67.57397 17.45211
#
# Poissons Ratio (x) = 0.49485 0.13955
# Poissons Ratio (y) = 0.49485 0.13953
# Poissons Ratio (z) = 0.54033 0.54024
#
# Static dielectric constant tensor:
#      x y z
#    x 1.748670 0.000000 0.000000 
#    y 0.000000 1.748670 0.000000 
#    z 0.000000 0.000000 1.695570 
# 
# From -- ./inp_files/5392.got.cif
#   From: 2010.05.17/outbox.cif.g08.bks.cpg/sg142_3_cif.got.tgz:5392.got - 2010.05.20 13:39:18.
