data_PCOD9573010
_publ_section_title
;
Structure prediction by ZEFSAII (Michael W. Deem and Ramdas Pophale) SiO2 
 PCOD9573010
Probable space group: I 41/A M D
;
_chemical_formula_sum "Si O2"
_cell_formula_units_Z 160
_cell_length_a 26.707501
_cell_length_b 26.707501
_cell_length_c 12.266320
_cell_angle_alpha 90.000000
_cell_angle_beta 90.000000
_cell_angle_gamma 90.000000
_cell_volume 8749.450871
_symmetry_space_group_name_H-M "I 41/A M D"
_symmetry_group_IT_number 141
_space_group.IT_coordinate_system_code '2'
_symmetry_cell_setting 'tetragonal'
loop_
_space_group_symop_operation_xyz
x,y,z
1/4-y,3/4+x,1/4+z
-x,1/2-y,z
1/4+y,1/4-x,3/4+z
x,-y,-z
-x,1/2+y,-z
1/4+y,3/4+x,1/4-z
1/4-y,1/4-x,3/4-z
-x,-y,-z
3/4+y,1/4-x,3/4-z
x,1/2+y,-z
3/4-y,3/4+x,1/4-z
-x,y,z
x,1/2-y,z
3/4-y,1/4-x,3/4+z
3/4+y,3/4+x,1/4+z
1/2+x,1/2+y,1/2+z
3/4-y,1/4+x,3/4+z
1/2-x,-y,1/2+z
3/4+y,3/4-x,1/4+z
1/2+x,1/2-y,1/2-z
1/2-x,y,1/2-z
3/4+y,1/4+x,3/4-z
3/4-y,3/4-x,1/4-z
1/2-x,1/2-y,1/2-z
1/4+y,3/4-x,1/4-z
1/2+x,y,1/2-z
1/4-y,1/4+x,3/4-z
1/2-x,1/2+y,1/2+z
1/2+x,-y,1/2+z
1/4-y,3/4-x,1/4+z
1/4+y,1/4+x,3/4+z
loop_
_atom_site_type_symbol
_atom_site_label
_atom_site_fract_x
_atom_site_fract_y
_atom_site_fract_z
Si Si1 0.379161 0.060046 0.274437
Si Si2 0.616500 0.051916 0.647566
Si Si3 0.441582 0.112615 0.825899
Si Si4 0.895903 0.058363 0.481900
Si Si5 0.441026 0.891611 0.542317
O O1 0.394617 0.062492 0.148292
O O2 0.327959 0.092370 0.278737
O O3 0.422772 0.086352 0.343025
O O4 0.372974 0.005873 0.329075
O O5 0.667265 0.082736 0.625000
O O6 0.587170 0.071192 0.754172
O O7 0.581295 0.070196 0.547977
O O8 0.500000 0.115431 0.801192
O O9 0.411943 0.162777 0.790469
O O10 0.433159 0.094652 0.950851
O O11 0.905571 0.000000 0.500000
O O12 0.500000 0.887385 0.530857
#
# Coordination Sequence:
#
# PCOD9573010 Si02
#       5
#    32  32  32  32  32
#     4  10  21  37  57  81 113 149 184 229 278 334
#     4  10  20  37  56  82 117 148 187 229 274 335
#     4  10  21  37  59  84 109 144 190 237 283 334
#     4  10  20  39  57  81 114 144 187 234 275 331
#     4  10  22  38  56  81 115 149 185 235 286 335
#
# _framework density 18.286861999999999
#
# number of rings (size 3 to 8) (size 9 to 14) (size 15 to 20)
#    0.000    2.000    2.000    1.200    0.000    4.000 
#    3.600    0.000    0.000    3.600    0.000    5.600 
#    0.000    0.000    0.000    0.000    0.000    0.000 
#
# Total GULP energy -445744.479070 kJ/mol
# GULP energy per Si atom -5571.805988 kJ/mol
# Density = 1.824524 g / cm^3
# Si number density = 18.286862 Si / 1000 Ang^3
#
#
#
# Elastic Constant Matrix: (Units=GPa)
#
#
# Indices 1 2 3 4 5 6 
#
# 1 -67.1137 158.0238 2.7453 0.0000 0.0000 0.0000
# 2 158.0238 -66.9632 2.7864 0.0000 0.0000 0.0000
# 3 2.7453 2.7864 62.8618 0.0000 0.0000 0.0000
# 4 0.0000 0.0000 0.0000 15.4749 0.0000 0.0000
# 5 0.0000 0.0000 0.0000 0.0000 15.4755 0.0000
# 6 0.0000 0.0000 0.0000 0.0000 0.0000 1.9718
#
#
#
# Elastic Compliance Matrix: (Units=1/GPa)
#
#
# Indices 1 2 3 4 5 6 
#
# 1 0.003285 0.007732 -0.000486 0.000000 0.000000 0.000000
# 2 0.007732 0.003292 -0.000484 0.000000 0.000000 0.000000
# 3 -0.000486 -0.000484 0.015951 0.000000 0.000000 0.000000
# 4 0.000000 0.000000 0.000000 0.064621 0.000000 0.000000
# 5 0.000000 0.000000 0.000000 0.000000 0.064618 0.000000
# 6 0.000000 0.000000 0.000000 0.000000 0.000000 0.507155
#
#
# Mechanical properties :
#
#
# Convention : Reuss Voigt Hill
#
# Bulk Modulus (GPa) = 27.73803 28.43286 28.08544
# Shear Modulus (GPa) = 7.60555 -9.06693 -0.73069
#
# Velocity S-wave (km/s) = 2.04158 -2.22911 -0.63280
# Velocity P-wave (km/s) = 4.55616 2.99278 3.85457
#
# Compressibility (1/GPa) = 0.03605159
#
# Stress axis : x y z
#
# Youngs Moduli (GPa) = 304.42061 303.75562 62.69367
#
# Poissons Ratio (x) = -2.34856 0.03048
# Poissons Ratio (y) = -2.35370 0.03032
# Poissons Ratio (z) = 0.14800 0.14689
#
# Static dielectric constant tensor:
#      x y z
#    x 1.626630 0.000000 0.000000 
#    y 0.000000 1.626630 0.000000 
#    z 0.000000 0.000000 1.681480 
# 
# From -- ./inp_files/4831.got.cif
#   From: 2010.05.17/outbox.cif.g08.bks.cpg/sg141_3_cif.got.tgz:4831.got - 2010.05.20 13:30:51.
