data_PCOD9573205
_publ_section_title
;
Structure prediction by ZEFSAII (Michael W. Deem and Ramdas Pophale) SiO2 
 PCOD9573205
Probable space group: I 41/A M D
;
_chemical_formula_sum "Si O2"
_cell_formula_units_Z 160
_cell_length_a 19.379872
_cell_length_b 19.379872
_cell_length_c 18.937683
_cell_angle_alpha 90.000000
_cell_angle_beta 90.000000
_cell_angle_gamma 90.000000
_cell_volume 7112.604352
_symmetry_space_group_name_H-M "I 41/A M D"
_symmetry_group_IT_number 141
_space_group.IT_coordinate_system_code '2'
_symmetry_cell_setting 'tetragonal'
loop_
_space_group_symop_operation_xyz
x,y,z
1/4-y,3/4+x,1/4+z
-x,1/2-y,z
1/4+y,1/4-x,3/4+z
x,-y,-z
-x,1/2+y,-z
1/4+y,3/4+x,1/4-z
1/4-y,1/4-x,3/4-z
-x,-y,-z
3/4+y,1/4-x,3/4-z
x,1/2+y,-z
3/4-y,3/4+x,1/4-z
-x,y,z
x,1/2-y,z
3/4-y,1/4-x,3/4+z
3/4+y,3/4+x,1/4+z
1/2+x,1/2+y,1/2+z
3/4-y,1/4+x,3/4+z
1/2-x,-y,1/2+z
3/4+y,3/4-x,1/4+z
1/2+x,1/2-y,1/2-z
1/2-x,y,1/2-z
3/4+y,1/4+x,3/4-z
3/4-y,3/4-x,1/4-z
1/2-x,1/2-y,1/2-z
1/4+y,3/4-x,1/4-z
1/2+x,y,1/2-z
1/4-y,1/4+x,3/4-z
1/2-x,1/2+y,1/2+z
1/2+x,-y,1/2+z
1/4-y,3/4-x,1/4+z
1/4+y,1/4+x,3/4+z
loop_
_atom_site_type_symbol
_atom_site_label
_atom_site_fract_x
_atom_site_fract_y
_atom_site_fract_z
Si Si1 0.699289 0.570726 0.458146
Si Si2 0.227454 0.166550 0.172946
Si Si3 0.575598 0.331874 0.310455
Si Si4 0.580421 0.450241 0.215923
Si Si5 0.422312 0.171404 0.710915
O O1 0.706974 0.500000 0.500000
O O2 0.694292 0.555709 0.375000
O O3 0.760574 0.623242 0.476930
O O4 0.630664 0.612521 0.481410
O O5 0.231983 0.250000 0.176999
O O6 0.250000 0.139698 0.250000
O O7 0.148074 0.150246 0.152961
O O8 0.277384 0.143991 0.110611
O O9 0.500000 0.352593 0.340353
O O10 0.575027 0.250000 0.303001
O O11 0.581614 0.369917 0.235162
O O12 0.500000 0.472183 0.222282
O O13 0.422597 0.172597 0.625000
O O14 0.500000 0.150464 0.734029
O O15 0.411194 0.250000 0.734583
#
# Coordination Sequence:
#
# PCOD9573205 Si02
#       5
#    32  32  32  32  32
#     4  11  25  42  62  91 125 164 212 265 319 378
#     4   9  19  37  61  91 125 166 212 259 321 392
#     4   9  19  38  65  96 129 166 217 274 323 385
#     4  10  22  41  65  90 128 176 212 260 329 391
#     4   8  15  33  63  94 124 161 203 248 303 369
#
# _framework density 22.495276
#
# number of rings (size 3 to 8) (size 9 to 14) (size 15 to 20)
#    0.000    2.600    0.000    1.200    2.800    2.800 
#    0.000    4.000    0.000   12.000    0.000    0.000 
#    0.000    0.000    0.000    0.000    0.000    0.000 
#
# Total GULP energy -446679.120716 kJ/mol
# GULP energy per Si atom -5583.489009 kJ/mol
# Density = 2.244408 g / cm^3
# Si number density = 22.495276 Si / 1000 Ang^3
#
#
#
# Elastic Constant Matrix: (Units=GPa)
#
#
# Indices 1 2 3 4 5 6 
#
# 1 69.0811 14.9988 7.4618 0.0000 0.0000 0.0000
# 2 14.9988 69.0811 7.4617 0.0000 0.0000 0.0000
# 3 7.4618 7.4617 97.5408 0.0000 0.0000 0.0000
# 4 0.0000 0.0000 0.0000 12.2742 0.0000 0.0000
# 5 0.0000 0.0000 0.0000 0.0000 12.2744 0.0000
# 6 0.0000 0.0000 0.0000 0.0000 0.0000 23.6448
#
#
#
# Elastic Compliance Matrix: (Units=1/GPa)
#
#
# Indices 1 2 3 4 5 6 
#
# 1 0.015274 -0.003217 -0.000922 0.000000 0.000000 0.000000
# 2 -0.003217 0.015274 -0.000922 0.000000 0.000000 0.000000
# 3 -0.000922 -0.000922 0.010393 0.000000 0.000000 0.000000
# 4 0.000000 0.000000 0.000000 0.081471 0.000000 0.000000
# 5 0.000000 0.000000 0.000000 0.000000 0.081470 0.000000
# 6 0.000000 0.000000 0.000000 0.000000 0.000000 0.042293
#
#
# Mechanical properties :
#
#
# Convention : Reuss Voigt Hill
#
# Bulk Modulus (GPa) = 32.44842 32.83860 32.64351
# Shear Modulus (GPa) = 18.75677 23.35741 21.05709
#
# Velocity S-wave (km/s) = 2.89071 3.22580 3.06284
# Velocity P-wave (km/s) = 5.05939 5.33892 5.20104
#
# Compressibility (1/GPa) = 0.03081814
#
# Stress axis : x y z
#
# Youngs Moduli (GPa) = 65.47175 65.47179 96.21642
#
# Poissons Ratio (x) = 0.21060 0.08875
# Poissons Ratio (y) = 0.21060 0.08874
# Poissons Ratio (z) = 0.06039 0.06039
#
# Static dielectric constant tensor:
#      x y z
#    x 1.844180 0.000000 0.000000 
#    y 0.000000 1.844180 0.000000 
#    z 0.000000 0.000000 1.846570 
# 
# From -- ./inp_files/8568.got.cif
#   From: 2010.05.17/outbox.cif.g08.bks.cpg/sg141_5_cif.got.tgz:8568.got - 2010.05.20 13:30:51.
