data_PCOD9573201
_publ_section_title
;
Structure prediction by ZEFSAII (Michael W. Deem and Ramdas Pophale) SiO2 
 PCOD9573201
Probable space group: I 41/A M D
;
_chemical_formula_sum "Si O2"
_cell_formula_units_Z 160
_cell_length_a 20.683303
_cell_length_b 20.683303
_cell_length_c 19.061457
_cell_angle_alpha 90.000000
_cell_angle_beta 90.000000
_cell_angle_gamma 90.000000
_cell_volume 8154.472681
_symmetry_space_group_name_H-M "I 41/A M D"
_symmetry_group_IT_number 141
_space_group.IT_coordinate_system_code '2'
_symmetry_cell_setting 'tetragonal'
loop_
_space_group_symop_operation_xyz
x,y,z
1/4-y,3/4+x,1/4+z
-x,1/2-y,z
1/4+y,1/4-x,3/4+z
x,-y,-z
-x,1/2+y,-z
1/4+y,3/4+x,1/4-z
1/4-y,1/4-x,3/4-z
-x,-y,-z
3/4+y,1/4-x,3/4-z
x,1/2+y,-z
3/4-y,3/4+x,1/4-z
-x,y,z
x,1/2-y,z
3/4-y,1/4-x,3/4+z
3/4+y,3/4+x,1/4+z
1/2+x,1/2+y,1/2+z
3/4-y,1/4+x,3/4+z
1/2-x,-y,1/2+z
3/4+y,3/4-x,1/4+z
1/2+x,1/2-y,1/2-z
1/2-x,y,1/2-z
3/4+y,1/4+x,3/4-z
3/4-y,3/4-x,1/4-z
1/2-x,1/2-y,1/2-z
1/4+y,3/4-x,1/4-z
1/2+x,y,1/2-z
1/4-y,1/4+x,3/4-z
1/2-x,1/2+y,1/2+z
1/2+x,-y,1/2+z
1/4-y,3/4-x,1/4+z
1/4+y,1/4+x,3/4+z
loop_
_atom_site_type_symbol
_atom_site_label
_atom_site_fract_x
_atom_site_fract_y
_atom_site_fract_z
Si Si1 0.878808 0.127478 0.152389
Si Si2 0.576287 0.250000 0.809562
Si Si3 0.377836 0.528771 0.349954
Si Si4 0.121756 0.825204 0.551652
Si Si5 0.811118 0.750000 0.196571
Si Si6 0.772729 0.326491 0.051960
O O1 0.937541 0.155828 0.106428
O O2 0.885891 0.149395 0.232915
O O3 0.813396 0.151452 0.117867
O O4 0.880775 0.049259 0.147799
O O5 0.500000 0.250000 0.792567
O O6 0.623366 0.250000 0.742090
O O7 0.311370 0.561370 0.375000
O O8 0.436440 0.554976 0.397960
O O9 0.389383 0.546903 0.268853
O O10 0.087168 0.837168 0.625000
O O11 0.116438 0.750000 0.532168
O O12 0.197326 0.840562 0.562321
O O13 0.750000 0.750000 0.250000
O O14 0.779562 0.250000 0.040909
#
# Coordination Sequence:
#
# PCOD9573201 Si02
#       6
#    32  16  32  32  16  32
#     4  11  22  42  65  91 129 170 215 270 338 401
#     4  12  24  38  66  96 129 173 231 277 332 416
#     4  11  23  39  64  94 128 176 225 268 327 413
#     4  10  23  43  65  91 123 162 210 266 332 398
#     4  12  22  42  68  92 137 183 224 275 356 407
#     4  10  22  41  63  88 127 168 208 264 328 391
#
# _framework density 19.621133
#
# number of rings (size 3 to 8) (size 9 to 14) (size 15 to 20)
#    0.000    1.200    4.000    1.800    0.000    3.400 
#    1.800    6.000    0.000    0.000    0.000    0.000 
#    0.000    0.000    0.000    0.000    0.000    0.000 
#
# Total GULP energy -447158.803318 kJ/mol
# GULP energy per Si atom -5589.485041 kJ/mol
# Density = 1.957647 g / cm^3
# Si number density = 19.621133 Si / 1000 Ang^3
#
#
#
# Elastic Constant Matrix: (Units=GPa)
#
#
# Indices 1 2 3 4 5 6 
#
# 1 29.0683 11.7770 6.6734 0.0000 0.0000 0.0000
# 2 11.7770 29.0683 6.6734 0.0000 0.0000 0.0000
# 3 6.6734 6.6734 86.4847 0.0000 0.0000 0.0000
# 4 0.0000 0.0000 0.0000 30.7513 0.0000 0.0000
# 5 0.0000 0.0000 0.0000 0.0000 30.7513 0.0000
# 6 0.0000 0.0000 0.0000 0.0000 0.0000 33.5732
#
#
#
# Elastic Compliance Matrix: (Units=1/GPa)
#
#
# Indices 1 2 3 4 5 6 
#
# 1 0.041474 -0.016358 -0.001938 0.000000 0.000000 0.000000
# 2 -0.016358 0.041474 -0.001938 0.000000 0.000000 0.000000
# 3 -0.001938 -0.001938 0.011862 0.000000 0.000000 0.000000
# 4 0.000000 0.000000 0.000000 0.032519 0.000000 0.000000
# 5 0.000000 0.000000 0.000000 0.000000 0.032519 0.000000
# 6 0.000000 0.000000 0.000000 0.000000 0.000000 0.029786
#
#
# Mechanical properties :
#
#
# Convention : Reuss Voigt Hill
#
# Bulk Modulus (GPa) = 18.40210 21.65210 20.02710
# Shear Modulus (GPa) = 20.14369 26.98167 23.56268
#
# Velocity S-wave (km/s) = 3.20759 3.71230 3.46913
# Velocity P-wave (km/s) = 4.80804 5.42531 5.12597
#
# Compressibility (1/GPa) = 0.05434161
#
# Stress axis : x y z
#
# Youngs Moduli (GPa) = 24.11131 24.11131 84.30410
#
# Poissons Ratio (x) = 0.39442 0.16338
# Poissons Ratio (y) = 0.39442 0.16338
# Poissons Ratio (z) = 0.04673 0.04673
#
# Static dielectric constant tensor:
#      x y z
#    x 1.680400 0.000000 0.000000 
#    y 0.000000 1.680400 0.000000 
#    z 0.000000 0.000000 1.715600 
# 
# From -- ./inp_files/8641.got.cif
#   From: 2010.05.17/outbox.cif.g08.bks.cpg/sg141_5_cif.got.tgz:8641.got - 2010.05.20 13:30:51.
