data_PCOD9573827
_publ_section_title
;
Structure prediction by ZEFSAII (Michael W. Deem and Ramdas Pophale) SiO2 
 PCOD9573827
Probable space group: I 41/A C D
;
_chemical_formula_sum "Si O2"
_cell_formula_units_Z 96
_cell_length_a 12.517709
_cell_length_b 12.517709
_cell_length_c 21.853453
_cell_angle_alpha 90.000000
_cell_angle_beta 90.000000
_cell_angle_gamma 90.000000
_cell_volume 3424.283955
_symmetry_space_group_name_H-M "I 41/A C D"
_symmetry_group_IT_number 142
_space_group.IT_coordinate_system_code '2'
_symmetry_cell_setting 'tetragonal'
loop_
_space_group_symop_operation_xyz
x,y,z
1/4-y,3/4+x,1/4+z
-x,1/2-y,z
1/4+y,1/4-x,3/4+z
x,-y,1/2-z
1/2-x,y,-z
3/4+y,1/4+x,1/4-z
1/4-y,1/4-x,1/4-z
-x,-y,-z
3/4+y,1/4-x,3/4-z
x,1/2+y,-z
3/4-y,3/4+x,1/4-z
-x,y,1/2+z
1/2+x,-y,z
1/4-y,3/4-x,3/4+z
3/4+y,3/4+x,3/4+z
1/2+x,1/2+y,1/2+z
3/4-y,1/4+x,3/4+z
1/2-x,-y,1/2+z
3/4+y,3/4-x,1/4+z
1/2+x,1/2-y,-z
-x,1/2+y,1/2-z
1/4+y,3/4+x,3/4-z
3/4-y,3/4-x,3/4-z
1/2-x,1/2-y,1/2-z
1/4+y,3/4-x,1/4-z
1/2+x,y,1/2-z
1/4-y,1/4+x,3/4-z
1/2-x,1/2+y,z
x,1/2-y,1/2+z
3/4-y,1/4-x,1/4+z
1/4+y,1/4+x,1/4+z
loop_
_atom_site_type_symbol
_atom_site_label
_atom_site_fract_x
_atom_site_fract_y
_atom_site_fract_z
Si Si1 0.558394 0.380920 0.154502
Si Si2 0.250000 0.846892 0.500000
Si Si3 0.886993 0.712671 0.308069
Si Si4 0.673289 0.923289 0.625000
O O1 0.486694 0.361500 0.092564
O O2 0.480534 0.448050 0.198504
O O3 0.656646 0.460032 0.149777
O O4 0.357388 0.905206 0.523656
O O5 0.917006 0.667006 0.375000
O O6 0.836163 0.827165 0.325225
O O7 0.000000 0.750000 0.278471
#
# Coordination Sequence:
#
# PCOD9573827 Si02
#       4
#    32  16  32  16
#     4  11  27  45  73 111 154 196 265 329 389 491
#     4  12  22  44  78 106 156 210 254 336 416 462
#     4   9  18  38  75  97 142 206 240 309 405 452
#     4  10  21  48  70  97 160 190 248 325 394 458
#
# _framework density 28.035056999999998
#
# number of rings (size 3 to 8) (size 9 to 14) (size 15 to 20)
#    0.000    2.000    6.667    0.000    4.667    2.667 
#    0.000   10.000    0.000    0.000    0.000    0.000 
#    0.000    0.000    0.000    0.000    0.000    0.000 
#
# Total GULP energy -267535.226520 kJ/mol
# GULP energy per Si atom -5573.650553 kJ/mol
# Density = 2.797125 g / cm^3
# Si number density = 28.035057 Si / 1000 Ang^3
#
#
#
# Elastic Constant Matrix: (Units=GPa)
#
#
# Indices 1 2 3 4 5 6 
#
# 1 163.4019 61.1207 48.5954 0.0000 0.0000 0.0000
# 2 61.1207 163.4019 48.5954 0.0000 0.0000 0.0000
# 3 48.5954 48.5954 89.0382 0.0000 0.0000 0.0000
# 4 0.0000 0.0000 0.0000 -43.8232 0.0000 0.0000
# 5 0.0000 0.0000 0.0000 0.0000 -43.8232 0.0000
# 6 0.0000 0.0000 0.0000 0.0000 0.0000 26.9847
#
#
#
# Elastic Compliance Matrix: (Units=1/GPa)
#
#
# Indices 1 2 3 4 5 6 
#
# 1 0.007804 -0.001973 -0.003183 0.000000 0.000000 0.000000
# 2 -0.001973 0.007804 -0.003183 0.000000 0.000000 0.000000
# 3 -0.003183 -0.003183 0.014705 0.000000 0.000000 0.000000
# 4 0.000000 0.000000 0.000000 -0.022819 0.000000 0.000000
# 5 0.000000 0.000000 0.000000 0.000000 -0.022819 0.000000
# 6 0.000000 0.000000 0.000000 0.000000 0.000000 0.037058
#
#
# Mechanical properties :
#
#
# Convention : Reuss Voigt Hill
#
# Bulk Modulus (GPa) = 73.32751 81.38501 77.35626
# Shear Modulus (GPa) = 116.39710 5.03637 60.71674
#
# Velocity S-wave (km/s) = 6.45047 1.34177 4.65880
# Velocity P-wave (km/s) = 9.03828 5.61188 7.52276
#
# Compressibility (1/GPa) = 0.01363745
#
# Stress axis : x y z
#
# Youngs Moduli (GPa) = 128.13428 128.13428 68.00243
#
# Poissons Ratio (x) = 0.25276 0.21644
# Poissons Ratio (y) = 0.25276 0.21644
# Poissons Ratio (z) = 0.40783 0.40783
#
# Static dielectric constant tensor:
#      x y z
#    x 2.196710 0.000000 0.000000 
#    y 0.000000 2.196710 0.000000 
#    z 0.000000 0.000000 2.555920 
# 
# From -- ./inp_files/10999.got.cif
#   From: 2010.05.17/outbox.cif.g08.bks.cpg/sg142_6_cif.got.tgz:10999.got - 2010.05.20 13:39:18.
