data_PCOD9573295
_publ_section_title
;
Structure prediction by ZEFSAII (Michael W. Deem and Ramdas Pophale) SiO2 
 PCOD9573295
Probable space group: I 41/A M D
;
_chemical_formula_sum "Si O2"
_cell_formula_units_Z 160
_cell_length_a 18.011499
_cell_length_b 18.011499
_cell_length_c 24.885148
_cell_angle_alpha 90.000000
_cell_angle_beta 90.000000
_cell_angle_gamma 90.000000
_cell_volume 8073.092798
_symmetry_space_group_name_H-M "I 41/A M D"
_symmetry_group_IT_number 141
_space_group.IT_coordinate_system_code '2'
_symmetry_cell_setting 'tetragonal'
loop_
_space_group_symop_operation_xyz
x,y,z
1/4-y,3/4+x,1/4+z
-x,1/2-y,z
1/4+y,1/4-x,3/4+z
x,-y,-z
-x,1/2+y,-z
1/4+y,3/4+x,1/4-z
1/4-y,1/4-x,3/4-z
-x,-y,-z
3/4+y,1/4-x,3/4-z
x,1/2+y,-z
3/4-y,3/4+x,1/4-z
-x,y,z
x,1/2-y,z
3/4-y,1/4-x,3/4+z
3/4+y,3/4+x,1/4+z
1/2+x,1/2+y,1/2+z
3/4-y,1/4+x,3/4+z
1/2-x,-y,1/2+z
3/4+y,3/4-x,1/4+z
1/2+x,1/2-y,1/2-z
1/2-x,y,1/2-z
3/4+y,1/4+x,3/4-z
3/4-y,3/4-x,1/4-z
1/2-x,1/2-y,1/2-z
1/4+y,3/4-x,1/4-z
1/2+x,y,1/2-z
1/4-y,1/4+x,3/4-z
1/2-x,1/2+y,1/2+z
1/2+x,-y,1/2+z
1/4-y,3/4-x,1/4+z
1/4+y,1/4+x,3/4+z
loop_
_atom_site_type_symbol
_atom_site_label
_atom_site_fract_x
_atom_site_fract_y
_atom_site_fract_z
Si Si1 0.169460 0.079782 0.523741
Si Si2 0.693760 0.935724 0.610261
Si Si3 0.415782 0.838703 0.816055
Si Si4 0.314024 0.337978 0.497885
Si Si5 0.701270 0.166189 0.695393
O O1 0.142771 0.073285 0.584606
O O2 0.112380 0.112468 0.481304
O O3 0.237699 0.136547 0.525306
O O4 0.195393 0.000000 0.500000
O O5 0.692735 0.879459 0.560134
O O6 0.768269 0.981732 0.625000
O O7 0.634593 0.000176 0.594457
O O8 0.387924 0.862077 0.875000
O O9 0.500000 0.867562 0.807475
O O10 0.420074 0.750000 0.818702
O O11 0.321847 0.250000 0.492585
O O12 0.377754 0.375602 0.534411
O O13 0.690730 0.250000 0.675242
O O14 0.750000 0.169245 0.750000
#
# Coordination Sequence:
#
# PCOD9573295 Si02
#       5
#    32  32  32  32  32
#     4  12  23  37  62  89 126 164 210 262 312 368
#     4  11  21  41  62  89 129 164 205 267 317 371
#     4   9  21  42  63  88 128 171 208 253 312 377
#     4  11  23  39  62  93 126 166 209 256 317 382
#     4   9  19  39  65  89 119 161 203 249 313 378
#
# _framework density 19.818923000000002
#
# number of rings (size 3 to 8) (size 9 to 14) (size 15 to 20)
#    0.000    1.600    4.000    1.800    2.800    3.200 
#    0.000    0.000    0.000    0.000    0.000    0.000 
#    0.000    0.000    0.000    0.000    0.000    0.000 
#
# Total GULP energy -446476.425866 kJ/mol
# GULP energy per Si atom -5580.955323 kJ/mol
# Density = 1.977381 g / cm^3
# Si number density = 19.818923 Si / 1000 Ang^3
#
#
#
# Elastic Constant Matrix: (Units=GPa)
#
#
# Indices 1 2 3 4 5 6 
#
# 1 87.6369 26.1063 9.2071 0.0000 0.0000 0.0000
# 2 26.1063 87.6367 9.2066 0.0000 0.0000 0.0000
# 3 9.2071 9.2066 97.4372 0.0000 0.0000 0.0000
# 4 0.0000 0.0000 0.0000 19.2952 0.0000 0.0000
# 5 0.0000 0.0000 0.0000 0.0000 19.2945 0.0000
# 6 0.0000 0.0000 0.0000 0.0000 0.0000 25.4762
#
#
#
# Elastic Compliance Matrix: (Units=1/GPa)
#
#
# Indices 1 2 3 4 5 6 
#
# 1 0.012590 -0.003662 -0.000844 0.000000 0.000000 0.000000
# 2 -0.003662 0.012590 -0.000844 0.000000 0.000000 0.000000
# 3 -0.000844 -0.000844 0.010422 0.000000 0.000000 0.000000
# 4 0.000000 0.000000 0.000000 0.051826 0.000000 0.000000
# 5 0.000000 0.000000 0.000000 0.000000 0.051828 0.000000
# 6 0.000000 0.000000 0.000000 0.000000 0.000000 0.039252
#
#
# Mechanical properties :
#
#
# Convention : Reuss Voigt Hill
#
# Bulk Modulus (GPa) = 40.15332 40.19453 40.17393
# Shear Modulus (GPa) = 25.31519 28.02588 26.67054
#
# Velocity S-wave (km/s) = 3.57784 3.76453 3.67237
# Velocity P-wave (km/s) = 6.11327 6.26263 6.18840
#
# Compressibility (1/GPa) = 0.02490454
#
# Stress axis : x y z
#
# Youngs Moduli (GPa) = 79.42688 79.42675 95.94669
#
# Poissons Ratio (x) = 0.29085 0.08095
# Poissons Ratio (y) = 0.29085 0.08094
# Poissons Ratio (z) = 0.06701 0.06700
#
# Static dielectric constant tensor:
#      x y z
#    x 1.710110 0.000000 0.000000 
#    y 0.000000 1.710110 0.000000 
#    z 0.000000 0.000000 1.740700 
# 
# From -- ./inp_files/12673.got.cif
#   From: 2010.05.17/outbox.cif.g08.bks.cpg/sg141_7_cif.got.tgz:12673.got - 2010.05.20 13:30:51.
