data_PCOD9573096
_publ_section_title
;
Structure prediction by ZEFSAII (Michael W. Deem and Ramdas Pophale) SiO2 
 PCOD9573096
Probable space group: I 41/A M D
;
_chemical_formula_sum "Si O2"
_cell_formula_units_Z 160
_cell_length_a 20.469080
_cell_length_b 20.469080
_cell_length_c 19.878635
_cell_angle_alpha 90.000000
_cell_angle_beta 90.000000
_cell_angle_gamma 90.000000
_cell_volume 8328.814820
_symmetry_space_group_name_H-M "I 41/A M D"
_symmetry_group_IT_number 141
_space_group.IT_coordinate_system_code '2'
_symmetry_cell_setting 'tetragonal'
loop_
_space_group_symop_operation_xyz
x,y,z
1/4-y,3/4+x,1/4+z
-x,1/2-y,z
1/4+y,1/4-x,3/4+z
x,-y,-z
-x,1/2+y,-z
1/4+y,3/4+x,1/4-z
1/4-y,1/4-x,3/4-z
-x,-y,-z
3/4+y,1/4-x,3/4-z
x,1/2+y,-z
3/4-y,3/4+x,1/4-z
-x,y,z
x,1/2-y,z
3/4-y,1/4-x,3/4+z
3/4+y,3/4+x,1/4+z
1/2+x,1/2+y,1/2+z
3/4-y,1/4+x,3/4+z
1/2-x,-y,1/2+z
3/4+y,3/4-x,1/4+z
1/2+x,1/2-y,1/2-z
1/2-x,y,1/2-z
3/4+y,1/4+x,3/4-z
3/4-y,3/4-x,1/4-z
1/2-x,1/2-y,1/2-z
1/4+y,3/4-x,1/4-z
1/2+x,y,1/2-z
1/4-y,1/4+x,3/4-z
1/2-x,1/2+y,1/2+z
1/2+x,-y,1/2+z
1/4-y,3/4-x,1/4+z
1/4+y,1/4+x,3/4+z
loop_
_atom_site_type_symbol
_atom_site_label
_atom_site_fract_x
_atom_site_fract_y
_atom_site_fract_z
Si Si1 0.072411 0.827369 0.412053
Si Si2 0.424098 0.881118 0.805588
Si Si3 0.424539 0.922284 0.415309
Si Si4 0.693553 0.521688 0.799386
Si Si5 0.319006 0.870501 0.187458
O O1 0.077631 0.750000 0.397014
O O2 0.083860 0.834057 0.491673
O O3 0.127905 0.863249 0.370406
O O4 0.000000 0.850157 0.393852
O O5 0.403215 0.846786 0.875000
O O6 0.500000 0.900982 0.808776
O O7 0.374526 0.940589 0.792872
O O8 0.375734 0.874267 0.375000
O O9 0.500000 0.914798 0.393673
O O10 0.419692 0.911201 0.495972
O O11 0.402426 0.998326 0.409967
O O12 0.718085 0.531916 0.875000
O O13 0.750000 0.547265 0.750000
O O14 0.685015 0.444982 0.788263
#
# Coordination Sequence:
#
# PCOD9573096 Si02
#       5
#    32  32  32  32  32
#     4  10  21  37  60  88 122 163 203 253 311 372
#     4  10  22  39  62  93 128 167 213 261 314 380
#     4  11  24  41  64  93 125 167 214 269 325 381
#     4  11  22  38  62  89 122 162 209 263 321 372
#     4  11  22  40  65  89 124 165 216 262 319 382
#
# _framework density 19.210417
#
# number of rings (size 3 to 8) (size 9 to 14) (size 15 to 20)
#    0.000    1.400    2.000    4.800    2.800    2.800 
#    0.000    0.000    0.000    6.600    0.000    0.000 
#    0.000    0.000    0.000    0.000    0.000    0.000 
#
# Total GULP energy -446880.038233 kJ/mol
# GULP energy per Si atom -5586.000478 kJ/mol
# Density = 1.916669 g / cm^3
# Si number density = 19.210417 Si / 1000 Ang^3
#
#
#
# Elastic Constant Matrix: (Units=GPa)
#
#
# Indices 1 2 3 4 5 6 
#
# 1 113.4332 61.7472 49.6606 0.0000 0.0000 0.0000
# 2 61.7472 113.4296 49.6631 0.0000 0.0000 0.0000
# 3 49.6606 49.6631 85.8164 0.0000 0.0000 0.0000
# 4 0.0000 0.0000 0.0000 25.2554 0.0000 0.0000
# 5 0.0000 0.0000 0.0000 0.0000 25.2565 0.0000
# 6 0.0000 0.0000 0.0000 0.0000 0.0000 19.7116
#
#
#
# Elastic Compliance Matrix: (Units=1/GPa)
#
#
# Indices 1 2 3 4 5 6 
#
# 1 0.013922 -0.005426 -0.004916 0.000000 0.000000 0.000000
# 2 -0.005426 0.013923 -0.004917 0.000000 0.000000 0.000000
# 3 -0.004916 -0.004917 0.017343 0.000000 0.000000 0.000000
# 4 0.000000 0.000000 0.000000 0.039596 0.000000 0.000000
# 5 0.000000 0.000000 0.000000 0.000000 0.039594 0.000000
# 6 0.000000 0.000000 0.000000 0.000000 0.000000 0.050732
#
#
# Mechanical properties :
#
#
# Convention : Reuss Voigt Hill
#
# Bulk Modulus (GPa) = 68.17174 70.53566 69.35370
# Shear Modulus (GPa) = 23.75102 24.15192 23.95147
#
# Velocity S-wave (km/s) = 3.52001 3.54959 3.53483
# Velocity P-wave (km/s) = 7.21696 7.32097 7.26915
#
# Compressibility (1/GPa) = 0.01466884
#
# Stress axis : x y z
#
# Youngs Moduli (GPa) = 71.83042 71.82490 57.65887
#
# Poissons Ratio (x) = 0.38973 0.28346
# Poissons Ratio (y) = 0.38976 0.28353
# Poissons Ratio (z) = 0.35313 0.35319
#
# Static dielectric constant tensor:
#      x y z
#    x 1.661020 0.000000 0.000000 
#    y 0.000000 1.661020 0.000000 
#    z 0.000000 0.000000 1.662020 
# 
# From -- ./inp_files/8621.got.cif
#   From: 2010.05.17/outbox.cif.g08.bks.cpg/sg141_5_cif.got.tgz:8621.got - 2010.05.20 13:30:51.
