data_PCOD9573601
_publ_section_title
;
Structure prediction by ZEFSAII (Michael W. Deem and Ramdas Pophale) SiO2 
 PCOD9573601
Probable space group: I 41/A C D
;
_chemical_formula_sum "Si O2"
_cell_formula_units_Z 176
_cell_length_a 25.584868
_cell_length_b 25.584868
_cell_length_c 15.142428
_cell_angle_alpha 90.000000
_cell_angle_beta 90.000000
_cell_angle_gamma 90.000000
_cell_volume 9912.013358
_symmetry_space_group_name_H-M "I 41/A C D"
_symmetry_group_IT_number 142
_space_group.IT_coordinate_system_code '2'
_symmetry_cell_setting 'tetragonal'
loop_
_space_group_symop_operation_xyz
x,y,z
1/4-y,3/4+x,1/4+z
-x,1/2-y,z
1/4+y,1/4-x,3/4+z
x,-y,1/2-z
1/2-x,y,-z
3/4+y,1/4+x,1/4-z
1/4-y,1/4-x,1/4-z
-x,-y,-z
3/4+y,1/4-x,3/4-z
x,1/2+y,-z
3/4-y,3/4+x,1/4-z
-x,y,1/2+z
1/2+x,-y,z
1/4-y,3/4-x,3/4+z
3/4+y,3/4+x,3/4+z
1/2+x,1/2+y,1/2+z
3/4-y,1/4+x,3/4+z
1/2-x,-y,1/2+z
3/4+y,3/4-x,1/4+z
1/2+x,1/2-y,-z
-x,1/2+y,1/2-z
1/4+y,3/4+x,3/4-z
3/4-y,3/4-x,3/4-z
1/2-x,1/2-y,1/2-z
1/4+y,3/4-x,1/4-z
1/2+x,y,1/2-z
1/4-y,1/4+x,3/4-z
1/2-x,1/2+y,z
x,1/2-y,1/2+z
3/4-y,1/4-x,1/4+z
1/4+y,1/4+x,1/4+z
loop_
_atom_site_type_symbol
_atom_site_label
_atom_site_fract_x
_atom_site_fract_y
_atom_site_fract_z
Si Si1 0.191983 0.282013 0.177047
Si Si2 0.456413 0.558781 0.234249
Si Si3 0.590698 0.662828 0.804450
Si Si4 0.466230 0.058215 0.103072
Si Si5 0.521495 0.192398 0.028269
Si Si6 0.410388 0.839613 0.125000
O O1 0.186508 0.261217 0.277073
O O2 0.249754 0.304320 0.161602
O O3 0.148089 0.323460 0.149454
O O4 0.187956 0.231654 0.112623
O O5 0.433872 0.500000 0.250000
O O6 0.420018 0.608687 0.255204
O O7 0.504639 0.562306 0.303492
O O8 0.648185 0.671608 0.844418
O O9 0.547376 0.668811 0.883035
O O10 0.585532 0.717382 0.749663
O O11 0.500000 0.250000 0.037432
O O12 0.567523 0.192432 0.957889
#
# Coordination Sequence:
#
# PCOD9573601 Si02
#       6
#    32  32  32  32  32  16
#     4  10  21  34  51  72 106 137 177 216 258 316
#     4  10  21  35  52  75 104 139 177 215 256 317
#     4  12  18  34  52  72 105 141 172 214 266 323
#     4  10  20  36  50  73 102 142 178 211 259 317
#     4  12  21  30  48  77 110 136 166 212 277 329
#     4  12  21  32  48  78 106 138 174 220 264 324
#
# _framework density 17.756231
#
# number of rings (size 3 to 8) (size 9 to 14) (size 15 to 20)
#    0.000    1.091    5.455    2.455    0.000    0.727 
#    0.000    0.000    0.000    0.000    0.000   14.000 
#    0.000    0.000    0.000    0.000    0.000    0.000 
#
# Total GULP energy -490424.869796 kJ/mol
# GULP energy per Si atom -5573.009884 kJ/mol
# Density = 1.771582 g / cm^3
# Si number density = 17.756231 Si / 1000 Ang^3
#
#
#
# Elastic Constant Matrix: (Units=GPa)
#
#
# Indices 1 2 3 4 5 6 
#
# 1 108.4597 39.0402 -1.9755 0.0000 0.0000 0.0000
# 2 39.0402 108.4589 -1.9754 0.0000 0.0000 0.0000
# 3 -1.9755 -1.9754 54.2241 0.0000 0.0000 0.0000
# 4 0.0000 0.0000 0.0000 22.4635 0.0000 0.0000
# 5 0.0000 0.0000 0.0000 0.0000 22.4640 0.0000
# 6 0.0000 0.0000 0.0000 0.0000 0.0000 23.2611
#
#
#
# Elastic Compliance Matrix: (Units=1/GPa)
#
#
# Indices 1 2 3 4 5 6 
#
# 1 0.010596 -0.003809 0.000247 0.000000 0.000000 0.000000
# 2 -0.003809 0.010596 0.000247 0.000000 0.000000 0.000000
# 3 0.000247 0.000247 0.018460 0.000000 0.000000 0.000000
# 4 0.000000 0.000000 0.000000 0.044517 0.000000 0.000000
# 5 0.000000 0.000000 0.000000 0.000000 0.044516 0.000000
# 6 0.000000 0.000000 0.000000 0.000000 0.000000 0.042990
#
#
# Mechanical properties :
#
#
# Convention : Reuss Voigt Hill
#
# Bulk Modulus (GPa) = 30.28326 37.92461 34.10393
# Shear Modulus (GPa) = 26.41151 29.37461 27.89306
#
# Velocity S-wave (km/s) = 3.86093 4.07175 3.96774
# Velocity P-wave (km/s) = 6.08011 6.59624 6.34343
#
# Compressibility (1/GPa) = 0.03302154
#
# Stress axis : x y z
#
# Youngs Moduli (GPa) = 94.37756 94.37687 54.17117
#
# Poissons Ratio (x) = 0.35953 -0.01339
# Poissons Ratio (y) = 0.35953 -0.01339
# Poissons Ratio (z) = -0.02333 -0.02333
#
# Static dielectric constant tensor:
#      x y z
#    x 1.647320 0.000000 0.000000 
#    y 0.000000 1.647310 0.000000 
#    z 0.000000 0.000000 1.669210 
# 
# From -- ./inp_files/5707.got.cif
#   From: 2010.05.17/outbox.cif.g08.bks.cpg/sg142_3_cif.got.tgz:5707.got - 2010.05.20 13:39:18.
