data_PCOD9573632
_publ_section_title
;
Structure prediction by ZEFSAII (Michael W. Deem and Ramdas Pophale) SiO2 
 PCOD9573632
Probable space group: I 41/A C D
;
_chemical_formula_sum "Si O2"
_cell_formula_units_Z 160
_cell_length_a 23.833644
_cell_length_b 23.833644
_cell_length_c 12.436824
_cell_angle_alpha 90.000000
_cell_angle_beta 90.000000
_cell_angle_gamma 90.000000
_cell_volume 7064.645671
_symmetry_space_group_name_H-M "I 41/A C D"
_symmetry_group_IT_number 142
_space_group.IT_coordinate_system_code '2'
_symmetry_cell_setting 'tetragonal'
loop_
_space_group_symop_operation_xyz
x,y,z
1/4-y,3/4+x,1/4+z
-x,1/2-y,z
1/4+y,1/4-x,3/4+z
x,-y,1/2-z
1/2-x,y,-z
3/4+y,1/4+x,1/4-z
1/4-y,1/4-x,1/4-z
-x,-y,-z
3/4+y,1/4-x,3/4-z
x,1/2+y,-z
3/4-y,3/4+x,1/4-z
-x,y,1/2+z
1/2+x,-y,z
1/4-y,3/4-x,3/4+z
3/4+y,3/4+x,3/4+z
1/2+x,1/2+y,1/2+z
3/4-y,1/4+x,3/4+z
1/2-x,-y,1/2+z
3/4+y,3/4-x,1/4+z
1/2+x,1/2-y,-z
-x,1/2+y,1/2-z
1/4+y,3/4+x,3/4-z
3/4-y,3/4-x,3/4-z
1/2-x,1/2-y,1/2-z
1/4+y,3/4-x,1/4-z
1/2+x,y,1/2-z
1/4-y,1/4+x,3/4-z
1/2-x,1/2+y,z
x,1/2-y,1/2+z
3/4-y,1/4-x,1/4+z
1/4+y,1/4+x,1/4+z
loop_
_atom_site_type_symbol
_atom_site_label
_atom_site_fract_x
_atom_site_fract_y
_atom_site_fract_z
Si Si1 0.078956 0.003847 0.920560
Si Si2 0.154763 0.175412 0.499446
Si Si3 0.420397 0.237558 0.081935
Si Si4 0.907008 0.573439 0.091859
Si Si5 0.809722 0.943498 0.998283
O O1 0.070263 0.952879 0.837954
O O2 0.061577 0.061558 0.862588
O O3 0.060641 0.977745 0.034788
O O4 0.143724 0.017454 0.949207
O O5 0.103081 0.218955 0.506346
O O6 0.129155 0.113035 0.489606
O O7 0.472097 0.193925 0.071634
O O8 0.367498 0.199723 0.108736
O O9 0.862418 0.553992 0.180276
O O10 0.822537 0.927464 0.875000
O O11 0.750000 0.973480 0.000000
#
# Coordination Sequence:
#
# PCOD9573632 Si02
#       5
#    32  32  32  32  32
#     4  10  20  37  57  89 130 165 208 256 315 384
#     4   9  20  37  58  91 125 165 209 262 318 380
#     4   9  19  40  66  88 117 161 213 271 326 380
#     4  10  20  37  60  87 127 162 210 269 314 374
#     4  11  22  39  58  91 129 174 217 253 315 389
#
# _framework density 22.647987000000001
#
# number of rings (size 3 to 8) (size 9 to 14) (size 15 to 20)
#    0.000    2.200    2.000    0.600    0.000    2.400 
#    3.600    7.000    0.000    7.200    0.000    0.000 
#    0.000    0.000    0.000    0.000    0.000    0.000 
#
# Total GULP energy -445603.323699 kJ/mol
# GULP energy per Si atom -5570.041546 kJ/mol
# Density = 2.259644 g / cm^3
# Si number density = 22.647987 Si / 1000 Ang^3
#
#
#
# Elastic Constant Matrix: (Units=GPa)
#
#
# Indices 1 2 3 4 5 6 
#
# 1 41.1593 11.6222 -8.2364 0.0000 0.0000 0.0000
# 2 11.6222 41.1595 -8.2362 0.0000 0.0000 0.0000
# 3 -8.2364 -8.2362 46.0714 0.0000 0.0000 0.0000
# 4 0.0000 0.0000 0.0000 19.0576 0.0000 0.0000
# 5 0.0000 0.0000 0.0000 0.0000 19.0576 0.0000
# 6 0.0000 0.0000 0.0000 0.0000 0.0000 35.1653
#
#
#
# Elastic Compliance Matrix: (Units=1/GPa)
#
#
# Indices 1 2 3 4 5 6 
#
# 1 0.026961 -0.006895 0.003587 0.000000 0.000000 0.000000
# 2 -0.006895 0.026960 0.003587 0.000000 0.000000 0.000000
# 3 0.003587 0.003587 0.022988 0.000000 0.000000 0.000000
# 4 0.000000 0.000000 0.000000 0.052472 0.000000 0.000000
# 5 0.000000 0.000000 0.000000 0.000000 0.052473 0.000000
# 6 0.000000 0.000000 0.000000 0.000000 0.000000 0.028437
#
#
# Mechanical properties :
#
#
# Convention : Reuss Voigt Hill
#
# Bulk Modulus (GPa) = 12.90859 13.18770 13.04814
# Shear Modulus (GPa) = 21.22645 23.53882 22.38263
#
# Velocity S-wave (km/s) = 3.06475 3.22737 3.14711
# Velocity P-wave (km/s) = 4.27032 4.44110 4.35655
#
# Compressibility (1/GPa) = 0.07746778
#
# Stress axis : x y z
#
# Youngs Moduli (GPa) = 37.09112 37.09136 43.50094
#
# Poissons Ratio (x) = 0.25575 -0.15605
# Poissons Ratio (y) = 0.25574 -0.15604
# Poissons Ratio (z) = -0.13306 -0.13305
#
# Static dielectric constant tensor:
#      x y z
#    x 1.858950 0.000000 0.000000 
#    y 0.000000 1.858950 0.000000 
#    z 0.000000 0.000000 1.897540 
# 
# From -- ./inp_files/3880.got.cif
#   From: 2010.05.17/outbox.cif.g08.bks.cpg/sg142_2_cif.got.tgz:3880.got - 2010.05.20 13:39:18.
