data_PCOD9573834
_publ_section_title
;
Structure prediction by ZEFSAII (Michael W. Deem and Ramdas Pophale) SiO2 
 PCOD9573834
Probable space group: I 41/A C D
;
_chemical_formula_sum "Si O2"
_cell_formula_units_Z 128
_cell_length_a 15.662417
_cell_length_b 15.662417
_cell_length_c 22.733681
_cell_angle_alpha 90.000000
_cell_angle_beta 90.000000
_cell_angle_gamma 90.000000
_cell_volume 5576.828983
_symmetry_space_group_name_H-M "I 41/A C D"
_symmetry_group_IT_number 142
_space_group.IT_coordinate_system_code '2'
_symmetry_cell_setting 'tetragonal'
loop_
_space_group_symop_operation_xyz
x,y,z
1/4-y,3/4+x,1/4+z
-x,1/2-y,z
1/4+y,1/4-x,3/4+z
x,-y,1/2-z
1/2-x,y,-z
3/4+y,1/4+x,1/4-z
1/4-y,1/4-x,1/4-z
-x,-y,-z
3/4+y,1/4-x,3/4-z
x,1/2+y,-z
3/4-y,3/4+x,1/4-z
-x,y,1/2+z
1/2+x,-y,z
1/4-y,3/4-x,3/4+z
3/4+y,3/4+x,3/4+z
1/2+x,1/2+y,1/2+z
3/4-y,1/4+x,3/4+z
1/2-x,-y,1/2+z
3/4+y,3/4-x,1/4+z
1/2+x,1/2-y,-z
-x,1/2+y,1/2-z
1/4+y,3/4+x,3/4-z
3/4-y,3/4-x,3/4-z
1/2-x,1/2-y,1/2-z
1/4+y,3/4-x,1/4-z
1/2+x,y,1/2-z
1/4-y,1/4+x,3/4-z
1/2-x,1/2+y,z
x,1/2-y,1/2+z
3/4-y,1/4-x,1/4+z
1/4+y,1/4+x,1/4+z
loop_
_atom_site_type_symbol
_atom_site_label
_atom_site_fract_x
_atom_site_fract_y
_atom_site_fract_z
Si Si1 0.560149 0.468547 0.691724
Si Si2 0.774661 0.635926 0.689048
Si Si3 0.739447 0.633589 0.097724
Si Si4 0.441369 0.102895 0.040225
O O1 0.607414 0.500000 0.750000
O O2 0.600866 0.494879 0.629929
O O3 0.469115 0.514348 0.689365
O O4 0.562487 0.365324 0.699184
O O5 0.812705 0.541228 0.688993
O O6 0.848475 0.706098 0.705676
O O7 0.697049 0.662322 0.731258
O O8 0.653818 0.596183 0.125000
O O9 0.795670 0.660631 0.154432
#
# Coordination Sequence:
#
# PCOD9573834 Si02
#       4
#    32  32  32  32
#     4  10  22  36  56  94 125 162 211 264 327 391
#     4   9  20  38  60  88 118 166 211 257 323 386
#     4  10  22  35  59  89 122 162 208 270 317 386
#     4   9  20  38  59  85 122 162 211 264 320 392
#
# _framework density 22.952112
#
# number of rings (size 3 to 8) (size 9 to 14) (size 15 to 20)
#    0.000    2.500    0.000    0.000   10.500    1.000 
#    0.000    5.000    0.000    0.000    0.000    0.000 
#    0.000    0.000    0.000    0.000    0.000    0.000 
#
# Total GULP energy -356690.955922 kJ/mol
# GULP energy per Si atom -5573.296186 kJ/mol
# Density = 2.289987 g / cm^3
# Si number density = 22.952112 Si / 1000 Ang^3
#
#
#
# Elastic Constant Matrix: (Units=GPa)
#
#
# Indices 1 2 3 4 5 6 
#
# 1 63.5700 14.4312 2.7182 0.0000 0.0000 0.0000
# 2 14.4312 63.5687 2.7199 0.0000 0.0000 0.0000
# 3 2.7182 2.7199 149.3183 0.0000 0.0000 0.0000
# 4 0.0000 0.0000 0.0000 10.5799 0.0000 0.0000
# 5 0.0000 0.0000 0.0000 0.0000 10.5816 0.0000
# 6 0.0000 0.0000 0.0000 0.0000 0.0000 12.6068
#
#
#
# Elastic Compliance Matrix: (Units=1/GPa)
#
#
# Indices 1 2 3 4 5 6 
#
# 1 0.016594 -0.003757 -0.000234 0.000000 0.000000 0.000000
# 2 -0.003757 0.016594 -0.000234 0.000000 0.000000 0.000000
# 3 -0.000234 -0.000234 0.006706 0.000000 0.000000 0.000000
# 4 0.000000 0.000000 0.000000 0.094519 0.000000 0.000000
# 5 0.000000 0.000000 0.000000 0.000000 0.094503 0.000000
# 6 0.000000 0.000000 0.000000 0.000000 0.000000 0.079322
#
#
# Mechanical properties :
#
#
# Convention : Reuss Voigt Hill
#
# Bulk Modulus (GPa) = 31.80251 35.13283 33.46767
# Shear Modulus (GPa) = 15.28268 23.85952 19.57110
#
# Velocity S-wave (km/s) = 2.58321 3.22768 2.92326
# Velocity P-wave (km/s) = 4.77320 5.40655 5.09972
#
# Compressibility (1/GPa) = 0.03144405
#
# Stress axis : x y z
#
# Youngs Moduli (GPa) = 60.26428 60.26301 149.12872
#
# Poissons Ratio (x) = 0.22641 0.03484
# Poissons Ratio (y) = 0.22641 0.03488
# Poissons Ratio (z) = 0.01408 0.01409
#
# Static dielectric constant tensor:
#      x y z
#    x 1.952120 0.000000 0.000000 
#    y 0.000000 1.952120 0.000000 
#    z 0.000000 0.000000 1.901320 
# 
# From -- ./inp_files/9998.got.cif
#   From: 2010.05.17/outbox.cif.g08.bks.cpg/sg142_5_cif.got.tgz:9998.got - 2010.05.20 13:39:18.
