data_PCOD9573027
_publ_section_title
;
Structure prediction by ZEFSAII (Michael W. Deem and Ramdas Pophale) SiO2 
 PCOD9573027
Probable space group: I 41/A M D
;
_chemical_formula_sum "Si O2"
_cell_formula_units_Z 144
_cell_length_a 20.243642
_cell_length_b 20.243642
_cell_length_c 16.137370
_cell_angle_alpha 90.000000
_cell_angle_beta 90.000000
_cell_angle_gamma 90.000000
_cell_volume 6613.175581
_symmetry_space_group_name_H-M "I 41/A M D"
_symmetry_group_IT_number 141
_space_group.IT_coordinate_system_code '2'
_symmetry_cell_setting 'tetragonal'
loop_
_space_group_symop_operation_xyz
x,y,z
1/4-y,3/4+x,1/4+z
-x,1/2-y,z
1/4+y,1/4-x,3/4+z
x,-y,-z
-x,1/2+y,-z
1/4+y,3/4+x,1/4-z
1/4-y,1/4-x,3/4-z
-x,-y,-z
3/4+y,1/4-x,3/4-z
x,1/2+y,-z
3/4-y,3/4+x,1/4-z
-x,y,z
x,1/2-y,z
3/4-y,1/4-x,3/4+z
3/4+y,3/4+x,1/4+z
1/2+x,1/2+y,1/2+z
3/4-y,1/4+x,3/4+z
1/2-x,-y,1/2+z
3/4+y,3/4-x,1/4+z
1/2+x,1/2-y,1/2-z
1/2-x,y,1/2-z
3/4+y,1/4+x,3/4-z
3/4-y,3/4-x,1/4-z
1/2-x,1/2-y,1/2-z
1/4+y,3/4-x,1/4-z
1/2+x,y,1/2-z
1/4-y,1/4+x,3/4-z
1/2-x,1/2+y,1/2+z
1/2+x,-y,1/2+z
1/4-y,3/4-x,1/4+z
1/4+y,1/4+x,3/4+z
loop_
_atom_site_type_symbol
_atom_site_label
_atom_site_fract_x
_atom_site_fract_y
_atom_site_fract_z
Si Si1 0.147527 0.992283 0.873755
Si Si2 0.000000 0.140067 0.196088
Si Si3 0.500000 0.002559 0.371762
Si Si4 0.500000 0.139365 0.941395
Si Si5 0.759622 0.897005 0.570468
Si Si6 0.112033 0.750000 0.627959
Si Si7 0.771054 0.250000 0.072317
O O1 0.193689 0.056312 0.875000
O O2 0.144532 0.971142 0.776535
O O3 0.189111 0.935061 0.920429
O O4 0.073974 0.011150 0.904175
O O5 0.063080 0.186624 0.189373
O O6 0.000000 0.106381 0.287142
O O7 0.000000 0.082043 0.131610
O O8 0.500000 0.974424 0.277630
O O9 0.500000 0.092674 0.864060
O O10 0.500000 0.105054 0.032101
O O11 0.756202 0.821688 0.600632
O O12 0.810893 0.939108 0.625000
O O13 0.063160 0.813160 0.625000
#
# Coordination Sequence:
#
# PCOD9573027 Si02
#       7
#    32  16  16  16  32  16  16
#     4  10  20  38  61  84 112 149 188 232 282 337
#     4   9  16  30  50  76 105 138 170 217 273 325
#     4  10  21  35  54  79 111 138 178 230 278 330
#     4   9  16  30  54  76 103 137 176 216 266 323
#     4  10  20  38  60  84 114 150 190 232 279 334
#     4   7  12  24  43  68 100 138 174 203 244 311
#     4  10  21  35  53  79 109 143 184 227 273 325
#
# _framework density 21.774713999999999
#
# number of rings (size 3 to 8) (size 9 to 14) (size 15 to 20)
#    0.000    2.556    0.000    5.333    0.000    0.000 
#    0.000   27.222    0.000   14.000    0.000    0.000 
#    0.000    0.000    0.000    0.000    0.000    0.000 
#
# Total GULP energy -401865.791149 kJ/mol
# GULP energy per Si atom -5581.469322 kJ/mol
# Density = 2.172515 g / cm^3
# Si number density = 21.774714 Si / 1000 Ang^3
#
#
#
# Elastic Constant Matrix: (Units=GPa)
#
#
# Indices 1 2 3 4 5 6 
#
# 1 128.7958 43.4931 8.6296 0.0000 0.0000 0.0000
# 2 43.4931 128.7965 8.6306 0.0000 0.0000 0.0000
# 3 8.6296 8.6306 74.4489 0.0000 0.0000 0.0000
# 4 0.0000 0.0000 0.0000 24.0917 0.0000 0.0000
# 5 0.0000 0.0000 0.0000 0.0000 24.0916 0.0000
# 6 0.0000 0.0000 0.0000 0.0000 0.0000 27.0537
#
#
#
# Elastic Compliance Matrix: (Units=1/GPa)
#
#
# Indices 1 2 3 4 5 6 
#
# 1 0.008798 -0.002925 -0.000681 0.000000 0.000000 0.000000
# 2 -0.002925 0.008798 -0.000681 0.000000 0.000000 0.000000
# 3 -0.000681 -0.000681 0.013590 0.000000 0.000000 0.000000
# 4 0.000000 0.000000 0.000000 0.041508 0.000000 0.000000
# 5 0.000000 0.000000 0.000000 0.000000 0.041508 0.000000
# 6 0.000000 0.000000 0.000000 0.000000 0.000000 0.036964
#
#
# Mechanical properties :
#
#
# Convention : Reuss Voigt Hill
#
# Bulk Modulus (GPa) = 44.22483 50.39419 47.30951
# Shear Modulus (GPa) = 29.89077 33.13325 31.51201
#
# Velocity S-wave (km/s) = 3.70905 3.90505 3.80831
# Velocity P-wave (km/s) = 6.22070 6.59744 6.41184
#
# Compressibility (1/GPa) = 0.02261173
#
# Stress axis : x y z
#
# Youngs Moduli (GPa) = 113.66649 113.66690 73.58430
#
# Poissons Ratio (x) = 0.33251 0.05008
# Poissons Ratio (y) = 0.33250 0.05010
# Poissons Ratio (z) = 0.07737 0.07738
#
# Static dielectric constant tensor:
#      x y z
#    x 1.857930 0.000000 0.000000 
#    y 0.000000 1.857930 0.000000 
#    z 0.000000 0.000000 1.805080 
# 
# From -- ./inp_files/8528.got.cif
#   From: 2010.05.17/outbox.cif.g08.bks.cpg/sg141_5_cif.got.tgz:8528.got - 2010.05.20 13:30:51.
