data_PCOD9573278
_publ_section_title
;
Structure prediction by ZEFSAII (Michael W. Deem and Ramdas Pophale) SiO2 
 PCOD9573278
Probable space group: I 41/A M D
;
_chemical_formula_sum "Si O2"
_cell_formula_units_Z 128
_cell_length_a 15.878379
_cell_length_b 15.878379
_cell_length_c 27.080510
_cell_angle_alpha 90.000000
_cell_angle_beta 90.000000
_cell_angle_gamma 90.000000
_cell_volume 6827.617247
_symmetry_space_group_name_H-M "I 41/A M D"
_symmetry_group_IT_number 141
_space_group.IT_coordinate_system_code '2'
_symmetry_cell_setting 'tetragonal'
loop_
_space_group_symop_operation_xyz
x,y,z
1/4-y,3/4+x,1/4+z
-x,1/2-y,z
1/4+y,1/4-x,3/4+z
x,-y,-z
-x,1/2+y,-z
1/4+y,3/4+x,1/4-z
1/4-y,1/4-x,3/4-z
-x,-y,-z
3/4+y,1/4-x,3/4-z
x,1/2+y,-z
3/4-y,3/4+x,1/4-z
-x,y,z
x,1/2-y,z
3/4-y,1/4-x,3/4+z
3/4+y,3/4+x,1/4+z
1/2+x,1/2+y,1/2+z
3/4-y,1/4+x,3/4+z
1/2-x,-y,1/2+z
3/4+y,3/4-x,1/4+z
1/2+x,1/2-y,1/2-z
1/2-x,y,1/2-z
3/4+y,1/4+x,3/4-z
3/4-y,3/4-x,1/4-z
1/2-x,1/2-y,1/2-z
1/4+y,3/4-x,1/4-z
1/2+x,y,1/2-z
1/4-y,1/4+x,3/4-z
1/2-x,1/2+y,1/2+z
1/2+x,-y,1/2+z
1/4-y,3/4-x,1/4+z
1/4+y,1/4+x,3/4+z
loop_
_atom_site_type_symbol
_atom_site_label
_atom_site_fract_x
_atom_site_fract_y
_atom_site_fract_z
Si Si1 0.835153 0.656876 0.283078
Si Si2 0.761522 0.151670 0.883947
Si Si3 0.600711 0.154691 0.178270
Si Si4 0.233805 0.600822 0.493611
O O1 0.875444 0.750000 0.280181
O O2 0.750000 0.662142 0.250000
O O3 0.803830 0.640457 0.338877
O O4 0.882944 0.575232 0.262664
O O5 0.785812 0.250000 0.883767
O O6 0.840905 0.090905 0.875000
O O7 0.723884 0.127170 0.936971
O O8 0.500000 0.160412 0.172810
O O9 0.633100 0.250000 0.186827
O O10 0.630391 0.119610 0.125000
O O11 0.619012 0.091760 0.222259
O O12 0.235860 0.500000 0.500000
#
# Coordination Sequence:
#
# PCOD9573278 Si02
#       4
#    32  32  32  32
#     4   9  18  33  53  77 111 148 186 231 280 331
#     4  11  21  35  52  82 114 149 190 233 285 338
#     4   9  20  39  60  83 114 148 182 231 292 350
#     4  11  21  32  60  86 113 145 194 234 286 341
#
# _framework density 18.747388999999998
#
# number of rings (size 3 to 8) (size 9 to 14) (size 15 to 20)
#    0.000    2.000    5.000    1.500    3.500    0.750 
#    0.000    0.000    0.000    2.250    0.000    3.500 
#    0.000    0.000    0.000    0.000    0.000    0.000 
#
# Total GULP energy -356784.107283 kJ/mol
# GULP energy per Si atom -5574.751676 kJ/mol
# Density = 1.870472 g / cm^3
# Si number density = 18.747389 Si / 1000 Ang^3
#
#
#
# Elastic Constant Matrix: (Units=GPa)
#
#
# Indices 1 2 3 4 5 6 
#
# 1 38.0601 8.6102 34.4509 0.0000 0.0000 0.0000
# 2 8.6102 38.0602 34.4511 0.0000 0.0000 0.0000
# 3 34.4509 34.4511 179.7832 0.0000 0.0000 0.0000
# 4 0.0000 0.0000 0.0000 -5.6105 0.0000 0.0000
# 5 0.0000 0.0000 0.0000 0.0000 -5.6136 0.0000
# 6 0.0000 0.0000 0.0000 0.0000 0.0000 66.9650
#
#
#
# Elastic Compliance Matrix: (Units=1/GPa)
#
#
# Indices 1 2 3 4 5 6 
#
# 1 0.031918 -0.002038 -0.005726 0.000000 0.000000 0.000000
# 2 -0.002038 0.031918 -0.005726 0.000000 0.000000 0.000000
# 3 -0.005726 -0.005726 0.007757 0.000000 0.000000 0.000000
# 4 0.000000 0.000000 0.000000 -0.178238 0.000000 0.000000
# 5 0.000000 0.000000 0.000000 0.000000 -0.178140 0.000000
# 6 0.000000 0.000000 0.000000 0.000000 0.000000 0.014933
#
#
# Mechanical properties :
#
#
# Convention : Reuss Voigt Hill
#
# Bulk Modulus (GPa) = 22.41457 45.65864 34.03660
# Shear Modulus (GPa) = -21.92967 23.04093 0.55563
#
# Velocity S-wave (km/s) = -3.42386 3.50954 0.54500
# Velocity P-wave (km/s) = 1.91008 6.38984 4.31171
#
# Compressibility (1/GPa) = 0.04461384
#
# Stress axis : x y z
#
# Youngs Moduli (GPa) = 31.33021 31.33021 128.92135
#
# Poissons Ratio (x) = 0.06385 0.73817
# Poissons Ratio (y) = 0.06385 0.73818
# Poissons Ratio (z) = 0.17939 0.17939
#
# Static dielectric constant tensor:
#      x y z
#    x 1.670310 0.000000 0.000000 
#    y 0.000000 1.670310 0.000000 
#    z 0.000000 0.000000 1.662080 
# 
# From -- ./inp_files/11365.got.cif
#   From: 2010.05.17/outbox.cif.g08.bks.cpg/sg141_6_cif.got.tgz:11365.got - 2010.05.20 13:30:51.
