data_PCOD9573617
_publ_section_title
;
Structure prediction by ZEFSAII (Michael W. Deem and Ramdas Pophale) SiO2 
 PCOD9573617
Probable space group: I 41/A C D
;
_chemical_formula_sum "Si O2"
_cell_formula_units_Z 240
_cell_length_a 18.060637
_cell_length_b 18.060637
_cell_length_c 32.056712
_cell_angle_alpha 90.000000
_cell_angle_beta 90.000000
_cell_angle_gamma 90.000000
_cell_volume 10456.470178
_symmetry_space_group_name_H-M "I 41/A C D"
_symmetry_group_IT_number 142
_space_group.IT_coordinate_system_code '2'
_symmetry_cell_setting 'tetragonal'
loop_
_space_group_symop_operation_xyz
x,y,z
1/4-y,3/4+x,1/4+z
-x,1/2-y,z
1/4+y,1/4-x,3/4+z
x,-y,1/2-z
1/2-x,y,-z
3/4+y,1/4+x,1/4-z
1/4-y,1/4-x,1/4-z
-x,-y,-z
3/4+y,1/4-x,3/4-z
x,1/2+y,-z
3/4-y,3/4+x,1/4-z
-x,y,1/2+z
1/2+x,-y,z
1/4-y,3/4-x,3/4+z
3/4+y,3/4+x,3/4+z
1/2+x,1/2+y,1/2+z
3/4-y,1/4+x,3/4+z
1/2-x,-y,1/2+z
3/4+y,3/4-x,1/4+z
1/2+x,1/2-y,-z
-x,1/2+y,1/2-z
1/4+y,3/4+x,3/4-z
3/4-y,3/4-x,3/4-z
1/2-x,1/2-y,1/2-z
1/4+y,3/4-x,1/4-z
1/2+x,y,1/2-z
1/4-y,1/4+x,3/4-z
1/2-x,1/2+y,z
x,1/2-y,1/2+z
3/4-y,1/4-x,1/4+z
1/4+y,1/4+x,1/4+z
loop_
_atom_site_type_symbol
_atom_site_label
_atom_site_fract_x
_atom_site_fract_y
_atom_site_fract_z
Si Si1 0.841913 0.610000 0.206452
Si Si2 0.434028 0.000000 0.750000
Si Si3 0.507091 0.924702 0.585892
Si Si4 0.313687 0.052126 0.420194
Si Si5 0.545816 0.814405 0.526161
Si Si6 0.817363 0.214020 0.291595
Si Si7 0.802687 0.280300 0.569377
Si Si8 0.429299 0.351817 0.124077
O O1 0.885012 0.573011 0.244393
O O2 0.766630 0.562816 0.201014
O O3 0.829737 0.697311 0.212486
O O4 0.885022 0.610995 0.161919
O O5 0.483922 0.001054 0.709161
O O6 0.597071 0.935937 0.585059
O O7 0.498296 0.844409 0.565513
O O8 0.494442 0.937941 0.634844
O O9 0.463977 0.981599 0.555640
O O10 0.281674 0.031674 0.375000
O O11 0.280911 0.132760 0.429821
O O12 0.500000 0.750000 0.502886
O O13 0.564464 0.887056 0.498400
O O14 0.620066 0.781217 0.544710
O O15 0.856246 0.175173 0.330607
O O16 0.401910 0.267597 0.117504
#
# Coordination Sequence:
#
# PCOD9573617 Si02
#       8
#    32  16  32  32  32  32  32  32
#     4  10  21  37  59  85 123 160 193 261 328 362
#     4  12  24  36  58  86 126 154 206 262 312 366
#     4   9  19  39  60  84 117 165 210 253 311 374
#     4   8  17  38  63  82 109 157 209 249 297 378
#     4  11  22  35  60  90 124 159 207 261 311 382
#     4  10  20  36  61  88 123 155 204 261 320 383
#     4  10  22  39  61  86 117 165 213 251 307 387
#     4   9  19  32  56  87 120 155 191 245 322 397
#
# _framework density 22.952297000000002
#
# number of rings (size 3 to 8) (size 9 to 14) (size 15 to 20)
#    0.000    2.267    0.000    3.200    5.600    2.667 
#    0.000    0.000   11.733    0.000    0.000    0.000 
#    0.000    0.000    0.000    0.000    0.000    0.000 
#
# Total GULP energy -669271.591992 kJ/mol
# GULP energy per Si atom -5577.263267 kJ/mol
# Density = 2.290006 g / cm^3
# Si number density = 22.952297 Si / 1000 Ang^3
#
#
#
# Elastic Constant Matrix: (Units=GPa)
#
#
# Indices 1 2 3 4 5 6 
#
# 1 37.8329 16.3532 12.7390 0.0000 0.0000 0.0000
# 2 16.3532 37.8329 12.7390 0.0000 0.0000 0.0000
# 3 12.7390 12.7390 76.8525 0.0000 0.0000 0.0000
# 4 0.0000 0.0000 0.0000 21.7850 0.0000 0.0000
# 5 0.0000 0.0000 0.0000 0.0000 21.7850 0.0000
# 6 0.0000 0.0000 0.0000 0.0000 0.0000 -0.2204
#
#
#
# Elastic Compliance Matrix: (Units=1/GPa)
#
#
# Indices 1 2 3 4 5 6 
#
# 1 0.033285 -0.013270 -0.003318 0.000000 0.000000 0.000000
# 2 -0.013270 0.033285 -0.003318 0.000000 0.000000 0.000000
# 3 -0.003318 -0.003318 0.014112 0.000000 0.000000 0.000000
# 4 0.000000 0.000000 0.000000 0.045903 0.000000 0.000000
# 5 0.000000 0.000000 0.000000 0.000000 0.045903 0.000000
# 6 0.000000 0.000000 0.000000 0.000000 0.000000 -4.536885
#
#
# Mechanical properties :
#
#
# Convention : Reuss Voigt Hill
#
# Bulk Modulus (GPa) = 24.46726 26.24231 25.35478
# Shear Modulus (GPa) = -1.15983 16.04904 7.44460
#
# Velocity S-wave (km/s) = -0.71163 2.64717 1.80293
# Velocity P-wave (km/s) = 3.16354 4.56088 3.92489
#
# Compressibility (1/GPa) = 0.04087094
#
# Stress axis : x y z
#
# Youngs Moduli (GPa) = 30.04337 30.04337 70.86265
#
# Poissons Ratio (x) = 0.39869 0.23510
# Poissons Ratio (y) = 0.39869 0.23510
# Poissons Ratio (z) = 0.09967 0.09967
#
# Static dielectric constant tensor:
#      x y z
#    x 1.883070 0.000000 0.000000 
#    y 0.000000 1.883070 0.000000 
#    z 0.000000 0.000000 1.873500 
# 
# From -- ./inp_files/12724.got.cif
#   From: 2010.05.17/outbox.cif.g08.bks.cpg/sg142_7_cif.got.tgz:12724.got - 2010.05.20 13:39:18.
