data_PCOD9573538
_publ_section_title
;
Structure prediction by ZEFSAII (Michael W. Deem and Ramdas Pophale) SiO2 
 PCOD9573538
Probable space group: I 41/A C D
;
_chemical_formula_sum "Si O2"
_cell_formula_units_Z 136
_cell_length_a 19.745794
_cell_length_b 19.745794
_cell_length_c 16.656129
_cell_angle_alpha 90.000000
_cell_angle_beta 90.000000
_cell_angle_gamma 90.000000
_cell_volume 6494.164413
_symmetry_space_group_name_H-M "I 41/A C D"
_symmetry_group_IT_number 142
_space_group.IT_coordinate_system_code '2'
_symmetry_cell_setting 'tetragonal'
loop_
_space_group_symop_operation_xyz
x,y,z
1/4-y,3/4+x,1/4+z
-x,1/2-y,z
1/4+y,1/4-x,3/4+z
x,-y,1/2-z
1/2-x,y,-z
3/4+y,1/4+x,1/4-z
1/4-y,1/4-x,1/4-z
-x,-y,-z
3/4+y,1/4-x,3/4-z
x,1/2+y,-z
3/4-y,3/4+x,1/4-z
-x,y,1/2+z
1/2+x,-y,z
1/4-y,3/4-x,3/4+z
3/4+y,3/4+x,3/4+z
1/2+x,1/2+y,1/2+z
3/4-y,1/4+x,3/4+z
1/2-x,-y,1/2+z
3/4+y,3/4-x,1/4+z
1/2+x,1/2-y,-z
-x,1/2+y,1/2-z
1/4+y,3/4+x,3/4-z
3/4-y,3/4-x,3/4-z
1/2-x,1/2-y,1/2-z
1/4+y,3/4-x,1/4-z
1/2+x,y,1/2-z
1/4-y,1/4+x,3/4-z
1/2-x,1/2+y,z
x,1/2-y,1/2+z
3/4-y,1/4-x,1/4+z
1/4+y,1/4+x,1/4+z
loop_
_atom_site_type_symbol
_atom_site_label
_atom_site_fract_x
_atom_site_fract_y
_atom_site_fract_z
Si Si1 0.004170 0.399496 0.040151
Si Si2 0.020556 0.352180 0.871029
Si Si3 0.500000 0.750000 0.625000
Si Si4 0.310280 0.114863 0.060304
Si Si5 0.891380 0.002711 0.978300
O O1 0.000403 0.324227 0.078806
O O2 0.946717 0.452958 0.065471
O O3 0.992454 0.395570 0.943660
O O4 0.074553 0.441474 0.037266
O O5 0.064996 0.293905 0.915059
O O6 0.069269 0.390982 0.811791
O O7 0.155378 0.047562 0.972614
O O8 0.289057 0.106253 0.153035
O O9 0.250000 0.130190 0.000000
#
# Coordination Sequence:
#
# PCOD9573538 Si02
#       5
#    32  32   8  32  32
#     4  10  23  40  65  96 135 166 219 286 330 391
#     4  10  19  36  65  95 129 166 220 279 336 387
#     4  12  24  40  70  96 132 176 230 276 336 408
#     4  11  23  39  69  94 132 184 224 266 339 419
#     4  10  23  45  63  98 136 176 219 282 338 402
#
# _framework density 20.941877999999999
#
# number of rings (size 3 to 8) (size 9 to 14) (size 15 to 20)
#    0.000    1.647    2.353    2.118    3.294    0.000 
#    4.235    0.000    0.000    0.000    0.000    0.000 
#    0.000    0.000    0.000    0.000    0.000    0.000 
#
# Total GULP energy -378658.872927 kJ/mol
# GULP energy per Si atom -5568.512837 kJ/mol
# Density = 2.089421 g / cm^3
# Si number density = 20.941878 Si / 1000 Ang^3
#
#
#
# Elastic Constant Matrix: (Units=GPa)
#
#
# Indices 1 2 3 4 5 6 
#
# 1 114.1785 53.1184 40.0525 0.0000 0.0000 0.0000
# 2 53.1184 114.1785 40.0525 0.0000 0.0000 0.0000
# 3 40.0525 40.0525 48.1934 0.0000 0.0000 0.0000
# 4 0.0000 0.0000 0.0000 33.9586 0.0000 0.0000
# 5 0.0000 0.0000 0.0000 0.0000 33.9586 0.0000
# 6 0.0000 0.0000 0.0000 0.0000 0.0000 28.3108
#
#
#
# Elastic Compliance Matrix: (Units=1/GPa)
#
#
# Indices 1 2 3 4 5 6 
#
# 1 0.013153 -0.003225 -0.008251 0.000000 0.000000 0.000000
# 2 -0.003225 0.013153 -0.008251 0.000000 0.000000 0.000000
# 3 -0.008251 -0.008251 0.034464 0.000000 0.000000 0.000000
# 4 0.000000 0.000000 0.000000 0.029448 0.000000 0.000000
# 5 0.000000 0.000000 0.000000 0.000000 0.029448 0.000000
# 6 0.000000 0.000000 0.000000 0.000000 0.000000 0.035322
#
#
# Mechanical properties :
#
#
# Convention : Reuss Voigt Hill
#
# Bulk Modulus (GPa) = 46.91243 60.33304 53.62274
# Shear Modulus (GPa) = 24.80816 28.80070 26.80443
#
# Velocity S-wave (km/s) = 3.44556 3.71248 3.58151
# Velocity P-wave (km/s) = 6.18701 6.87379 6.53942
#
# Compressibility (1/GPa) = 0.02131631
#
# Stress axis : x y z
#
# Youngs Moduli (GPa) = 76.02963 76.02963 29.01544
#
# Poissons Ratio (x) = 0.24516 0.23941
# Poissons Ratio (y) = 0.24516 0.23941
# Poissons Ratio (z) = 0.62733 0.62733
#
# Static dielectric constant tensor:
#      x y z
#    x 1.831940 0.000000 0.000000 
#    y 0.000000 1.831940 0.000000 
#    z 0.000000 0.000000 1.734730 
# 
# From -- ./inp_files/8811.got.cif
#   From: 2010.05.17/outbox.cif.g08.bks.cpg/sg142_5_cif.got.tgz:8811.got - 2010.05.20 13:39:18.
