data_PCOD9573545
_publ_section_title
;
Structure prediction by ZEFSAII (Michael W. Deem and Ramdas Pophale) SiO2 
 PCOD9573545
Probable space group: I 41/A C D
;
_chemical_formula_sum "Si O2"
_cell_formula_units_Z 176
_cell_length_a 17.139680
_cell_length_b 17.139680
_cell_length_c 28.198335
_cell_angle_alpha 90.000000
_cell_angle_beta 90.000000
_cell_angle_gamma 90.000000
_cell_volume 8283.786255
_symmetry_space_group_name_H-M "I 41/A C D"
_symmetry_group_IT_number 142
_space_group.IT_coordinate_system_code '2'
_symmetry_cell_setting 'tetragonal'
loop_
_space_group_symop_operation_xyz
x,y,z
1/4-y,3/4+x,1/4+z
-x,1/2-y,z
1/4+y,1/4-x,3/4+z
x,-y,1/2-z
1/2-x,y,-z
3/4+y,1/4+x,1/4-z
1/4-y,1/4-x,1/4-z
-x,-y,-z
3/4+y,1/4-x,3/4-z
x,1/2+y,-z
3/4-y,3/4+x,1/4-z
-x,y,1/2+z
1/2+x,-y,z
1/4-y,3/4-x,3/4+z
3/4+y,3/4+x,3/4+z
1/2+x,1/2+y,1/2+z
3/4-y,1/4+x,3/4+z
1/2-x,-y,1/2+z
3/4+y,3/4-x,1/4+z
1/2+x,1/2-y,-z
-x,1/2+y,1/2-z
1/4+y,3/4+x,3/4-z
3/4-y,3/4-x,3/4-z
1/2-x,1/2-y,1/2-z
1/4+y,3/4-x,1/4-z
1/2+x,y,1/2-z
1/4-y,1/4+x,3/4-z
1/2-x,1/2+y,z
x,1/2-y,1/2+z
3/4-y,1/4-x,1/4+z
1/4+y,1/4+x,1/4+z
loop_
_atom_site_type_symbol
_atom_site_label
_atom_site_fract_x
_atom_site_fract_y
_atom_site_fract_z
Si Si1 0.626195 0.265076 0.638356
Si Si2 0.483891 0.157847 0.004474
Si Si3 0.171703 0.086044 0.023253
Si Si4 0.838046 0.611527 0.764925
Si Si5 0.222213 0.972213 0.375000
Si Si6 0.614500 0.527877 0.330140
O O1 0.564011 0.333919 0.627297
O O2 0.634589 0.264150 0.694457
O O3 0.702713 0.286063 0.608447
O O4 0.500000 0.250000 0.010835
O O5 0.400008 0.143428 0.982413
O O6 0.551088 0.114423 0.975177
O O7 0.190324 0.066517 0.077484
O O8 0.250000 0.118622 0.000000
O O9 0.152442 0.003722 0.995952
O O10 0.878783 0.585044 0.715407
O O11 0.868669 0.555402 0.806331
O O12 0.314235 0.958906 0.366533
#
# Coordination Sequence:
#
# PCOD9573545 Si02
#       6
#    32  32  32  32  16  32
#     4  11  20  37  60  94 132 174 223 279 338 406
#     4  12  24  42  62  97 143 180 225 284 359 433
#     4  11  22  43  68  95 130 179 230 290 355 416
#     4  10  20  41  66  92 126 173 220 285 344 408
#     4  10  20  40  63  94 121 160 222 290 328 418
#     4  10  19  37  65  90 128 161 228 284 332 406
#
# _framework density 21.246323
#
# number of rings (size 3 to 8) (size 9 to 14) (size 15 to 20)
#    0.000    1.273    7.273    1.636    0.000    0.000 
#    9.818    0.455    0.000    0.000    0.000    0.000 
#    0.000    0.000    0.000    0.000    0.000    0.000 
#
# Total GULP energy -491970.470822 kJ/mol
# GULP energy per Si atom -5590.573532 kJ/mol
# Density = 2.119797 g / cm^3
# Si number density = 21.246323 Si / 1000 Ang^3
#
#
#
# Elastic Constant Matrix: (Units=GPa)
#
#
# Indices 1 2 3 4 5 6 
#
# 1 82.3863 49.6928 38.4413 0.0000 0.0000 0.0000
# 2 49.6928 82.3863 38.4413 0.0000 0.0000 0.0000
# 3 38.4413 38.4413 74.0944 0.0000 0.0000 0.0000
# 4 0.0000 0.0000 0.0000 21.0596 0.0000 0.0000
# 5 0.0000 0.0000 0.0000 0.0000 21.0596 0.0000
# 6 0.0000 0.0000 0.0000 0.0000 0.0000 15.6168
#
#
#
# Elastic Compliance Matrix: (Units=1/GPa)
#
#
# Indices 1 2 3 4 5 6 
#
# 1 0.020717 -0.009870 -0.005628 0.000000 0.000000 0.000000
# 2 -0.009870 0.020717 -0.005628 0.000000 0.000000 0.000000
# 3 -0.005628 -0.005628 0.019336 0.000000 0.000000 0.000000
# 4 0.000000 0.000000 0.000000 0.047484 0.000000 0.000000
# 5 0.000000 0.000000 0.000000 0.000000 0.047484 0.000000
# 6 0.000000 0.000000 0.000000 0.000000 0.000000 0.064034
#
#
# Mechanical properties :
#
#
# Convention : Reuss Voigt Hill
#
# Bulk Modulus (GPa) = 53.99767 54.66862 54.33314
# Shear Modulus (GPa) = 18.64312 19.03331 18.83821
#
# Velocity S-wave (km/s) = 2.96543 2.99631 2.98091
# Velocity P-wave (km/s) = 6.09880 6.14469 6.12178
#
# Compressibility (1/GPa) = 0.01851932
#
# Stress axis : x y z
#
# Youngs Moduli (GPa) = 48.26936 48.26936 51.71798
#
# Poissons Ratio (x) = 0.47642 0.29105
# Poissons Ratio (y) = 0.47642 0.29105
# Poissons Ratio (z) = 0.27164 0.27164
#
# Static dielectric constant tensor:
#      x y z
#    x 1.802010 0.000000 0.000000 
#    y 0.000000 1.802010 0.000000 
#    z 0.000000 0.000000 1.782490 
# 
# From -- ./inp_files/11456.got.cif
#   From: 2010.05.17/outbox.cif.g08.bks.cpg/sg142_6_cif.got.tgz:11456.got - 2010.05.20 13:39:18.
