data_PCOD9573321
_publ_section_title
;
Structure prediction by ZEFSAII (Michael W. Deem and Ramdas Pophale) SiO2 
 PCOD9573321
Probable space group: I 41/A M D
;
_chemical_formula_sum "Si O2"
_cell_formula_units_Z 128
_cell_length_a 19.917804
_cell_length_b 19.917804
_cell_length_c 16.352795
_cell_angle_alpha 90.000000
_cell_angle_beta 90.000000
_cell_angle_gamma 90.000000
_cell_volume 6487.463109
_symmetry_space_group_name_H-M "I 41/A M D"
_symmetry_group_IT_number 141
_space_group.IT_coordinate_system_code '2'
_symmetry_cell_setting 'tetragonal'
loop_
_space_group_symop_operation_xyz
x,y,z
1/4-y,3/4+x,1/4+z
-x,1/2-y,z
1/4+y,1/4-x,3/4+z
x,-y,-z
-x,1/2+y,-z
1/4+y,3/4+x,1/4-z
1/4-y,1/4-x,3/4-z
-x,-y,-z
3/4+y,1/4-x,3/4-z
x,1/2+y,-z
3/4-y,3/4+x,1/4-z
-x,y,z
x,1/2-y,z
3/4-y,1/4-x,3/4+z
3/4+y,3/4+x,1/4+z
1/2+x,1/2+y,1/2+z
3/4-y,1/4+x,3/4+z
1/2-x,-y,1/2+z
3/4+y,3/4-x,1/4+z
1/2+x,1/2-y,1/2-z
1/2-x,y,1/2-z
3/4+y,1/4+x,3/4-z
3/4-y,3/4-x,1/4-z
1/2-x,1/2-y,1/2-z
1/4+y,3/4-x,1/4-z
1/2+x,y,1/2-z
1/4-y,1/4+x,3/4-z
1/2-x,1/2+y,1/2+z
1/2+x,-y,1/2+z
1/4-y,3/4-x,1/4+z
1/4+y,1/4+x,3/4+z
loop_
_atom_site_type_symbol
_atom_site_label
_atom_site_fract_x
_atom_site_fract_y
_atom_site_fract_z
Si Si1 0.742865 0.750000 0.944665
Si Si2 0.708618 0.750000 0.115122
Si Si3 0.500000 0.634805 0.286388
Si Si4 0.646769 0.003363 0.403331
Si Si5 0.000000 0.857115 0.019350
Si Si6 0.638506 0.002418 0.097541
O O1 0.739616 0.682791 0.891147
O O2 0.688407 0.750000 0.018894
O O3 0.815916 0.750000 0.987776
O O4 0.745829 0.678878 0.122807
O O5 0.659388 0.750000 0.194440
O O6 0.437160 0.682350 0.262995
O O7 0.500000 0.623608 0.384462
O O8 0.686014 0.070140 0.374657
O O9 0.645936 0.000000 0.500000
O O10 0.689627 0.939627 0.375000
O O11 0.686625 0.063376 0.125000
O O12 0.631702 0.000000 0.000000
#
# Coordination Sequence:
#
# PCOD9573321 Si02
#       6
#    16  16  16  32  16  32
#     4  12  24  38  62  93 121 167 215 267 314 375
#     4  12  24  38  58  93 126 163 212 257 307 384
#     4   9  20  38  61  87 128 163 204 246 320 397
#     4  11  23  40  61  91 126 167 207 262 322 386
#     4   9  20  39  59  89 127 169 196 251 317 393
#     4  11  23  44  66  91 124 166 214 272 325 383
#
# _framework density 19.730363000000001
#
# number of rings (size 3 to 8) (size 9 to 14) (size 15 to 20)
#    0.000    1.250    0.000    9.000    3.500    0.000 
#    0.000    0.000    0.000    0.750    0.000    0.000 
#    0.000    0.000    0.000    0.000    0.000    0.000 
#
# Total GULP energy -357764.410769 kJ/mol
# GULP energy per Si atom -5590.068918 kJ/mol
# Density = 1.968546 g / cm^3
# Si number density = 19.730363 Si / 1000 Ang^3
#
#
#
# Elastic Constant Matrix: (Units=GPa)
#
#
# Indices 1 2 3 4 5 6 
#
# 1 102.2276 80.9389 50.5732 0.0000 0.0000 0.0000
# 2 80.9389 102.2294 50.5728 0.0000 0.0000 0.0000
# 3 50.5732 50.5728 169.4208 0.0000 0.0000 0.0000
# 4 0.0000 0.0000 0.0000 40.6567 0.0000 0.0000
# 5 0.0000 0.0000 0.0000 0.0000 40.6559 0.0000
# 6 0.0000 0.0000 0.0000 0.0000 0.0000 15.1906
#
#
#
# Elastic Compliance Matrix: (Units=1/GPa)
#
#
# Indices 1 2 3 4 5 6 
#
# 1 0.026754 -0.020217 -0.001951 0.000000 0.000000 0.000000
# 2 -0.020217 0.026754 -0.001951 0.000000 0.000000 0.000000
# 3 -0.001951 -0.001951 0.007067 0.000000 0.000000 0.000000
# 4 0.000000 0.000000 0.000000 0.024596 0.000000 0.000000
# 5 0.000000 0.000000 0.000000 0.000000 0.024597 0.000000
# 6 0.000000 0.000000 0.000000 0.000000 0.000000 0.065830
#
#
# Mechanical properties :
#
#
# Convention : Reuss Voigt Hill
#
# Bulk Modulus (GPa) = 81.06267 82.00529 81.53398
# Shear Modulus (GPa) = 21.93460 32.08685 27.01072
#
# Velocity S-wave (km/s) = 3.33786 4.03708 3.70400
# Velocity P-wave (km/s) = 7.48529 7.96140 7.72701
#
# Compressibility (1/GPa) = 0.01233614
#
# Stress axis : x y z
#
# Youngs Moduli (GPa) = 37.37696 37.37781 141.49411
#
# Poissons Ratio (x) = 0.75567 0.27612
# Poissons Ratio (y) = 0.75565 0.27608
# Poissons Ratio (z) = 0.07294 0.07293
#
# Static dielectric constant tensor:
#      x y z
#    x 1.870890 0.000000 0.000000 
#    y 0.000000 1.870840 0.000000 
#    z 0.000000 0.000000 1.683200 
# 
# From -- ./inp_files/6303.got.cif
#   From: 2010.05.17/outbox.cif.g08.bks.cpg/sg141_4_cif.got.tgz:6303.got - 2010.05.20 13:30:51.
