data_PCOD9573977
_publ_section_title
;
Structure prediction by ZEFSAII (Michael W. Deem and Ramdas Pophale) SiO2 
 PCOD9573977
Probable space group: I 41/A C D
;
_chemical_formula_sum "Si O2"
_cell_formula_units_Z 112
_cell_length_a 20.021939
_cell_length_b 20.021939
_cell_length_c 11.680916
_cell_angle_alpha 90.000000
_cell_angle_beta 90.000000
_cell_angle_gamma 90.000000
_cell_volume 4682.622727
_symmetry_space_group_name_H-M "I 41/A C D"
_symmetry_group_IT_number 142
_space_group.IT_coordinate_system_code '2'
_symmetry_cell_setting 'tetragonal'
loop_
_space_group_symop_operation_xyz
x,y,z
1/4-y,3/4+x,1/4+z
-x,1/2-y,z
1/4+y,1/4-x,3/4+z
x,-y,1/2-z
1/2-x,y,-z
3/4+y,1/4+x,1/4-z
1/4-y,1/4-x,1/4-z
-x,-y,-z
3/4+y,1/4-x,3/4-z
x,1/2+y,-z
3/4-y,3/4+x,1/4-z
-x,y,1/2+z
1/2+x,-y,z
1/4-y,3/4-x,3/4+z
3/4+y,3/4+x,3/4+z
1/2+x,1/2+y,1/2+z
3/4-y,1/4+x,3/4+z
1/2-x,-y,1/2+z
3/4+y,3/4-x,1/4+z
1/2+x,1/2-y,-z
-x,1/2+y,1/2-z
1/4+y,3/4+x,3/4-z
3/4-y,3/4-x,3/4-z
1/2-x,1/2-y,1/2-z
1/4+y,3/4-x,1/4-z
1/2+x,y,1/2-z
1/4-y,1/4+x,3/4-z
1/2-x,1/2+y,z
x,1/2-y,1/2+z
3/4-y,1/4-x,1/4+z
1/4+y,1/4+x,1/4+z
loop_
_atom_site_type_symbol
_atom_site_label
_atom_site_fract_x
_atom_site_fract_y
_atom_site_fract_z
Si Si1 0.877562 0.083625 0.867765
Si Si2 0.733606 0.376148 0.338110
Si Si3 0.470562 0.127643 0.444564
Si Si4 0.379334 0.129334 0.875000
O O1 0.806828 0.121042 0.887224
O O2 0.873377 0.311748 0.821543
O O3 0.881420 0.078928 0.732318
O O4 0.872708 0.018327 0.949058
O O5 0.690727 0.440727 0.375000
O O6 0.688838 0.311482 0.364179
O O7 0.439141 0.189141 0.375000
O O8 0.548979 0.126034 0.438209
#
# Coordination Sequence:
#
# PCOD9573977 Si02
#       4
#    32  32  32  16
#     4  10  23  42  68 101 139 181 231 295 358 421
#     4   9  20  43  70  99 134 186 224 289 363 417
#     4   9  23  41  69  94 133 192 227 293 341 424
#     4  12  25  42  64 106 142 184 242 282 356 423
#
# _framework density 23.918220999999999
#
# number of rings (size 3 to 8) (size 9 to 14) (size 15 to 20)
#    1.714    0.571    0.000    1.286    4.000    2.286 
#    7.714    2.857    0.000    0.000    0.000    0.000 
#    0.000    0.000    0.000    0.000    0.000    0.000 
#
# Total GULP energy -312249.176210 kJ/mol
# GULP energy per Si atom -5575.878147 kJ/mol
# Density = 2.386378 g / cm^3
# Si number density = 23.918221 Si / 1000 Ang^3
#
#
#
# Elastic Constant Matrix: (Units=GPa)
#
#
# Indices 1 2 3 4 5 6 
#
# 1 103.9222 -12.9506 20.6980 0.0000 0.0000 0.0000
# 2 -12.9506 103.9222 20.6980 0.0000 0.0000 0.0000
# 3 20.6980 20.6980 185.7160 0.0000 0.0000 0.0000
# 4 0.0000 0.0000 0.0000 26.4922 0.0000 0.0000
# 5 0.0000 0.0000 0.0000 0.0000 26.4922 0.0000
# 6 0.0000 0.0000 0.0000 0.0000 0.0000 -0.7061
#
#
#
# Elastic Compliance Matrix: (Units=1/GPa)
#
#
# Indices 1 2 3 4 5 6 
#
# 1 0.010068 0.001512 -0.001291 0.000000 0.000000 0.000000
# 2 0.001512 0.010068 -0.001291 0.000000 0.000000 0.000000
# 3 -0.001291 -0.001291 0.005672 0.000000 0.000000 0.000000
# 4 0.000000 0.000000 0.000000 0.037747 0.000000 0.000000
# 5 0.000000 0.000000 0.000000 0.000000 0.037747 0.000000
# 6 0.000000 0.000000 0.000000 0.000000 0.000000 -1.416295
#
#
# Mechanical properties :
#
#
# Convention : Reuss Voigt Hill
#
# Bulk Modulus (GPa) = 42.24860 50.05011 46.14935
# Shear Modulus (GPa) = -3.83152 34.79667 15.48257
#
# Velocity S-wave (km/s) = -1.26705 3.81835 2.54699
# Velocity P-wave (km/s) = 3.94482 6.35694 5.29019
#
# Compressibility (1/GPa) = 0.02366942
#
# Stress axis : x y z
#
# Youngs Moduli (GPa) = 99.32453 99.32453 176.29752
#
# Poissons Ratio (x) = -0.15015 0.22752
# Poissons Ratio (y) = -0.15015 0.22752
# Poissons Ratio (z) = 0.12818 0.12818
#
# Static dielectric constant tensor:
#      x y z
#    x 1.879250 0.000000 0.000000 
#    y 0.000000 1.879250 0.000000 
#    z 0.000000 0.000000 2.006720 
# 
# From -- ./inp_files/3380.got.cif
#   From: 2010.05.17/outbox.cif.g08.bks.cpg/sg142_2_cif.got.tgz:3380.got - 2010.05.20 13:39:18.
