data_PCOD9573301
_publ_section_title
;
Structure prediction by ZEFSAII (Michael W. Deem and Ramdas Pophale) SiO2 
 PCOD9573301
Probable space group: I 41/A M D
;
_chemical_formula_sum "Si O2"
_cell_formula_units_Z 64
_cell_length_a 23.224787
_cell_length_b 23.224787
_cell_length_c 4.734099
_cell_angle_alpha 90.000000
_cell_angle_beta 90.000000
_cell_angle_gamma 90.000000
_cell_volume 2553.529121
_symmetry_space_group_name_H-M "I 41/A M D"
_symmetry_group_IT_number 141
_space_group.IT_coordinate_system_code '2'
_symmetry_cell_setting 'tetragonal'
loop_
_space_group_symop_operation_xyz
x,y,z
1/4-y,3/4+x,1/4+z
-x,1/2-y,z
1/4+y,1/4-x,3/4+z
x,-y,-z
-x,1/2+y,-z
1/4+y,3/4+x,1/4-z
1/4-y,1/4-x,3/4-z
-x,-y,-z
3/4+y,1/4-x,3/4-z
x,1/2+y,-z
3/4-y,3/4+x,1/4-z
-x,y,z
x,1/2-y,z
3/4-y,1/4-x,3/4+z
3/4+y,3/4+x,1/4+z
1/2+x,1/2+y,1/2+z
3/4-y,1/4+x,3/4+z
1/2-x,-y,1/2+z
3/4+y,3/4-x,1/4+z
1/2+x,1/2-y,1/2-z
1/2-x,y,1/2-z
3/4+y,1/4+x,3/4-z
3/4-y,3/4-x,1/4-z
1/2-x,1/2-y,1/2-z
1/4+y,3/4-x,1/4-z
1/2+x,y,1/2-z
1/4-y,1/4+x,3/4-z
1/2-x,1/2+y,1/2+z
1/2+x,-y,1/2+z
1/4-y,3/4-x,1/4+z
1/4+y,1/4+x,3/4+z
loop_
_atom_site_type_symbol
_atom_site_label
_atom_site_fract_x
_atom_site_fract_y
_atom_site_fract_z
Si Si1 0.687635 0.121871 0.375914
Si Si2 0.839518 0.250000 0.027223
Si Si3 0.000000 0.662367 0.758354
O O1 0.750000 0.111340 0.250000
O O2 0.670820 0.079181 0.625000
O O3 0.686738 0.186673 0.508343
O O4 0.641691 0.108310 0.125000
O O5 0.898458 0.250000 0.838485
O O6 0.850586 0.250000 0.363538
O O7 0.053034 0.696967 0.625000
#
# Coordination Sequence:
#
# PCOD9573301 Si02
#       3
#    32  16  16
#     4  12  27  48  75 108 149 199 253 315 382 454
#     4  12  23  43  70 103 142 186 244 308 374 440
#     4  11  22  36  61  99 144 193 239 293 365 446
#
# _framework density 25.063351000000001
#
# number of rings (size 3 to 8) (size 9 to 14) (size 15 to 20)
#    0.000    0.250    0.000   11.250    0.000    4.000 
#    0.000   10.000    0.000    0.000    0.000    0.000 
#    0.000    0.000    0.000    0.000    0.000    0.000 
#
# Total GULP energy -178824.384193 kJ/mol
# GULP energy per Si atom -5588.262006 kJ/mol
# Density = 2.500631 g / cm^3
# Si number density = 25.063351 Si / 1000 Ang^3
#
#
#
# Elastic Constant Matrix: (Units=GPa)
#
#
# Indices 1 2 3 4 5 6 
#
# 1 147.3554 102.5268 59.5372 0.0000 0.0000 0.0000
# 2 102.5268 147.3573 59.5382 0.0000 0.0000 0.0000
# 3 59.5372 59.5382 148.5558 0.0000 0.0000 0.0000
# 4 0.0000 0.0000 0.0000 45.7991 0.0000 0.0000
# 5 0.0000 0.0000 0.0000 0.0000 45.7979 0.0000
# 6 0.0000 0.0000 0.0000 0.0000 0.0000 16.3316
#
#
#
# Elastic Compliance Matrix: (Units=1/GPa)
#
#
# Indices 1 2 3 4 5 6 
#
# 1 0.013627 -0.008680 -0.001982 0.000000 0.000000 0.000000
# 2 -0.008680 0.013627 -0.001983 0.000000 0.000000 0.000000
# 3 -0.001982 -0.001983 0.008321 0.000000 0.000000 0.000000
# 4 0.000000 0.000000 0.000000 0.021834 0.000000 0.000000
# 5 0.000000 0.000000 0.000000 0.000000 0.021835 0.000000
# 6 0.000000 0.000000 0.000000 0.000000 0.000000 0.061231
#
#
# Mechanical properties :
#
#
# Convention : Reuss Voigt Hill
#
# Bulk Modulus (GPa) = 97.24045 98.49701 97.86873
# Shear Modulus (GPa) = 29.55220 36.36350 32.95785
#
# Velocity S-wave (km/s) = 3.43753 3.81315 3.63020
# Velocity P-wave (km/s) = 7.39172 7.66625 7.53024
#
# Compressibility (1/GPa) = 0.01028379
#
# Stress axis : x y z
#
# Youngs Moduli (GPa) = 73.38532 73.38600 120.18467
#
# Poissons Ratio (x) = 0.63700 0.23826
# Poissons Ratio (y) = 0.63699 0.23827
# Poissons Ratio (z) = 0.14548 0.14549
#
# Static dielectric constant tensor:
#      x y z
#    x 2.005900 0.000000 0.000000 
#    y 0.000000 2.005900 0.000000 
#    z 0.000000 0.000000 1.912390 
# 
# From -- ./inp_files/780.got.cif
#   From: 2010.05.17/outbox.cif.g08.bks.cpg/sg141_1_cif.got.tgz:780.got - 2010.05.20 13:30:51.
