data_PCOD9573465
_publ_section_title
;
Structure prediction by ZEFSAII (Michael W. Deem and Ramdas Pophale) SiO2 
 PCOD9573465
Probable space group: I 41/A C D
;
_chemical_formula_sum "Si O2"
_cell_formula_units_Z 160
_cell_length_a 17.299726
_cell_length_b 17.299726
_cell_length_c 28.023173
_cell_angle_alpha 90.000000
_cell_angle_beta 90.000000
_cell_angle_gamma 90.000000
_cell_volume 8386.789778
_symmetry_space_group_name_H-M "I 41/A C D"
_symmetry_group_IT_number 142
_space_group.IT_coordinate_system_code '2'
_symmetry_cell_setting 'tetragonal'
loop_
_space_group_symop_operation_xyz
x,y,z
1/4-y,3/4+x,1/4+z
-x,1/2-y,z
1/4+y,1/4-x,3/4+z
x,-y,1/2-z
1/2-x,y,-z
3/4+y,1/4+x,1/4-z
1/4-y,1/4-x,1/4-z
-x,-y,-z
3/4+y,1/4-x,3/4-z
x,1/2+y,-z
3/4-y,3/4+x,1/4-z
-x,y,1/2+z
1/2+x,-y,z
1/4-y,3/4-x,3/4+z
3/4+y,3/4+x,3/4+z
1/2+x,1/2+y,1/2+z
3/4-y,1/4+x,3/4+z
1/2-x,-y,1/2+z
3/4+y,3/4-x,1/4+z
1/2+x,1/2-y,-z
-x,1/2+y,1/2-z
1/4+y,3/4+x,3/4-z
3/4-y,3/4-x,3/4-z
1/2-x,1/2-y,1/2-z
1/4+y,3/4-x,1/4-z
1/2+x,y,1/2-z
1/4-y,1/4+x,3/4-z
1/2-x,1/2+y,z
x,1/2-y,1/2+z
3/4-y,1/4-x,1/4+z
1/4+y,1/4+x,1/4+z
loop_
_atom_site_type_symbol
_atom_site_label
_atom_site_fract_x
_atom_site_fract_y
_atom_site_fract_z
Si Si1 0.403157 0.457853 0.481854
Si Si2 0.454851 0.543309 0.572547
Si Si3 0.150602 0.110831 0.836887
Si Si4 0.190131 0.940131 0.875000
Si Si5 0.303731 0.263468 0.589414
Si Si6 0.610612 0.000000 0.250000
O O1 0.435441 0.475984 0.534432
O O2 0.471525 0.415987 0.451912
O O3 0.386284 0.538441 0.453696
O O4 0.323928 0.412448 0.486915
O O5 0.371371 0.579483 0.583268
O O6 0.482797 0.510540 0.623223
O O7 0.150117 0.174629 0.878665
O O8 0.062206 0.098914 0.821632
O O9 0.179529 0.028390 0.858043
O O10 0.269074 0.308313 0.545201
#
# Coordination Sequence:
#
# PCOD9573465 Si02
#       6
#    32  32  32  16  32  16
#     4  10  20  37  60  85 112 150 194 242 292 350
#     4   9  20  36  57  83 115 147 190 239 291 347
#     4  10  20  36  59  83 114 149 189 235 289 346
#     4  10  18  34  60  85 110 151 190 232 288 346
#     4  10  22  37  56  87 118 150 191 241 287 345
#     4  12  22  34  60  88 112 148 202 248 286 342
#
# _framework density 19.077622000000002
#
# number of rings (size 3 to 8) (size 9 to 14) (size 15 to 20)
#    0.000    2.000    0.000    4.800    0.000    6.800 
#    0.000    0.000    0.000   26.400    0.000    0.000 
#    0.000    0.000    0.000    0.000    0.000    0.000 
#
# Total GULP energy -445835.917773 kJ/mol
# GULP energy per Si atom -5572.948972 kJ/mol
# Density = 1.903420 g / cm^3
# Si number density = 19.077622 Si / 1000 Ang^3
#
#
#
# Elastic Constant Matrix: (Units=GPa)
#
#
# Indices 1 2 3 4 5 6 
#
# 1 126.1225 14.6344 28.7887 0.0000 0.0000 0.0000
# 2 14.6344 126.1225 28.7887 0.0000 0.0000 0.0000
# 3 28.7887 28.7887 96.6370 0.0000 0.0000 0.0000
# 4 0.0000 0.0000 0.0000 28.2652 0.0000 0.0000
# 5 0.0000 0.0000 0.0000 0.0000 28.2652 0.0000
# 6 0.0000 0.0000 0.0000 0.0000 0.0000 -10.5043
#
#
#
# Elastic Compliance Matrix: (Units=1/GPa)
#
#
# Indices 1 2 3 4 5 6 
#
# 1 0.008530 -0.000440 -0.002410 0.000000 0.000000 0.000000
# 2 -0.000440 0.008530 -0.002410 0.000000 0.000000 0.000000
# 3 -0.002410 -0.002410 0.011784 0.000000 0.000000 0.000000
# 4 0.000000 0.000000 0.000000 0.035379 0.000000 0.000000
# 5 0.000000 0.000000 0.000000 0.000000 0.035379 0.000000
# 6 0.000000 0.000000 0.000000 0.000000 0.000000 -0.095200
#
#
# Mechanical properties :
#
#
# Convention : Reuss Voigt Hill
#
# Bulk Modulus (GPa) = 54.57308 54.81171 54.69239
# Shear Modulus (GPa) = 237.74915 27.64992 132.69954
#
# Velocity S-wave (km/s) = 11.17553 3.81115 8.34917
# Velocity P-wave (km/s) = 13.97109 6.93972 11.03066
#
# Compressibility (1/GPa) = 0.01832405
#
# Stress axis : x y z
#
# Youngs Moduli (GPa) = 117.23397 117.23397 84.86087
#
# Poissons Ratio (x) = 0.05154 0.20453
# Poissons Ratio (y) = 0.05154 0.20453
# Poissons Ratio (z) = 0.28255 0.28255
#
# Static dielectric constant tensor:
#      x y z
#    x 1.693090 0.000000 0.000000 
#    y 0.000000 1.693090 0.000000 
#    z 0.000000 0.000000 1.666770 
# 
# From -- ./inp_files/11378.got.cif
#   From: 2010.05.17/outbox.cif.g08.bks.cpg/sg142_6_cif.got.tgz:11378.got - 2010.05.20 13:39:18.
