data_PCOD9573752
_publ_section_title
;
Structure prediction by ZEFSAII (Michael W. Deem and Ramdas Pophale) SiO2 
 PCOD9573752
Probable space group: I 41/A C D
;
_chemical_formula_sum "Si O2"
_cell_formula_units_Z 160
_cell_length_a 17.444039
_cell_length_b 17.444039
_cell_length_c 24.402871
_cell_angle_alpha 90.000000
_cell_angle_beta 90.000000
_cell_angle_gamma 90.000000
_cell_volume 7425.659347
_symmetry_space_group_name_H-M "I 41/A C D"
_symmetry_group_IT_number 142
_space_group.IT_coordinate_system_code '2'
_symmetry_cell_setting 'tetragonal'
loop_
_space_group_symop_operation_xyz
x,y,z
1/4-y,3/4+x,1/4+z
-x,1/2-y,z
1/4+y,1/4-x,3/4+z
x,-y,1/2-z
1/2-x,y,-z
3/4+y,1/4+x,1/4-z
1/4-y,1/4-x,1/4-z
-x,-y,-z
3/4+y,1/4-x,3/4-z
x,1/2+y,-z
3/4-y,3/4+x,1/4-z
-x,y,1/2+z
1/2+x,-y,z
1/4-y,3/4-x,3/4+z
3/4+y,3/4+x,3/4+z
1/2+x,1/2+y,1/2+z
3/4-y,1/4+x,3/4+z
1/2-x,-y,1/2+z
3/4+y,3/4-x,1/4+z
1/2+x,1/2-y,-z
-x,1/2+y,1/2-z
1/4+y,3/4+x,3/4-z
3/4-y,3/4-x,3/4-z
1/2-x,1/2-y,1/2-z
1/4+y,3/4-x,1/4-z
1/2+x,y,1/2-z
1/4-y,1/4+x,3/4-z
1/2-x,1/2+y,z
x,1/2-y,1/2+z
3/4-y,1/4-x,1/4+z
1/4+y,1/4+x,1/4+z
loop_
_atom_site_type_symbol
_atom_site_label
_atom_site_fract_x
_atom_site_fract_y
_atom_site_fract_z
Si Si1 0.787474 0.970974 0.813298
Si Si2 0.696218 0.696869 0.713431
Si Si3 0.514687 0.359877 0.153708
Si Si4 0.422351 0.272043 0.478752
Si Si5 0.969578 0.967743 0.843352
O O1 0.754793 0.995208 0.875000
O O2 0.763865 0.882688 0.803628
O O3 0.879553 0.976865 0.825587
O O4 0.774386 0.000000 0.750000
O O5 0.750000 0.750000 0.750000
O O6 0.613804 0.676202 0.739015
O O7 0.681860 0.730682 0.653343
O O8 0.432695 0.328630 0.131831
O O9 0.523417 0.329034 0.214764
O O10 0.510727 0.450746 0.155409
O O11 0.500000 0.250000 0.448141
O O12 0.344679 0.250947 0.448793
#
# Coordination Sequence:
#
# PCOD9573752 Si02
#       5
#    32  32  32  32  32
#     4   9  18  35  60  88 118 165 216 261 325 404
#     4  10  21  36  61  86 119 166 211 265 331 406
#     4  11  21  37  62  95 126 168 222 281 338 407
#     4  11  21  38  63  93 126 165 223 278 336 408
#     4  10  21  36  61  91 124 169 220 272 342 398
#
# _framework density 21.546907000000001
#
# number of rings (size 3 to 8) (size 9 to 14) (size 15 to 20)
#    0.000    1.800    2.000    6.000    0.000    1.600 
#    0.000    0.000   13.200    0.000    0.000    0.000 
#    0.000    0.000    0.000    0.000    0.000    0.000 
#
# Total GULP energy -445383.768140 kJ/mol
# GULP energy per Si atom -5567.297102 kJ/mol
# Density = 2.149787 g / cm^3
# Si number density = 21.546907 Si / 1000 Ang^3
#
#
#
# Elastic Constant Matrix: (Units=GPa)
#
#
# Indices 1 2 3 4 5 6 
#
# 1 69.4091 11.1173 24.6217 0.0000 0.0000 0.0000
# 2 11.1173 69.4086 24.6216 0.0000 0.0000 0.0000
# 3 24.6217 24.6216 151.9255 0.0000 0.0000 0.0000
# 4 0.0000 0.0000 0.0000 26.6665 0.0000 0.0000
# 5 0.0000 0.0000 0.0000 0.0000 26.6667 0.0000
# 6 0.0000 0.0000 0.0000 0.0000 0.0000 17.7237
#
#
#
# Elastic Compliance Matrix: (Units=1/GPa)
#
#
# Indices 1 2 3 4 5 6 
#
# 1 0.015470 -0.001685 -0.002234 0.000000 0.000000 0.000000
# 2 -0.001685 0.015470 -0.002234 0.000000 0.000000 0.000000
# 3 -0.002234 -0.002234 0.007306 0.000000 0.000000 0.000000
# 4 0.000000 0.000000 0.000000 0.037500 0.000000 0.000000
# 5 0.000000 0.000000 0.000000 0.000000 0.037500 0.000000
# 6 0.000000 0.000000 0.000000 0.000000 0.000000 0.056422
#
#
# Mechanical properties :
#
#
# Convention : Reuss Voigt Hill
#
# Bulk Modulus (GPa) = 38.55153 45.71824 42.13489
# Shear Modulus (GPa) = 26.23011 29.57022 27.90017
#
# Velocity S-wave (km/s) = 3.49284 3.70856 3.60232
# Velocity P-wave (km/s) = 5.84785 6.29301 6.07451
#
# Compressibility (1/GPa) = 0.02593931
#
# Stress axis : x y z
#
# Youngs Moduli (GPa) = 64.64236 64.64189 136.86885
#
# Poissons Ratio (x) = 0.10894 0.30576
# Poissons Ratio (y) = 0.10894 0.30576
# Poissons Ratio (z) = 0.14441 0.14441
#
# Static dielectric constant tensor:
#      x y z
#    x 1.816870 0.000000 0.000000 
#    y 0.000000 1.816870 0.000000 
#    z 0.000000 0.000000 1.864620 
# 
# From -- ./inp_files/11308.got.cif
#   From: 2010.05.17/outbox.cif.g08.bks.cpg/sg142_6_cif.got.tgz:11308.got - 2010.05.20 13:39:18.
