data_PCOD9573031
_publ_section_title
;
Structure prediction by ZEFSAII (Michael W. Deem and Ramdas Pophale) SiO2 
 PCOD9573031
Probable space group: I 41/A M D
;
_chemical_formula_sum "Si O2"
_cell_formula_units_Z 128
_cell_length_a 23.010286
_cell_length_b 23.010286
_cell_length_c 12.784910
_cell_angle_alpha 90.000000
_cell_angle_beta 90.000000
_cell_angle_gamma 90.000000
_cell_volume 6769.268000
_symmetry_space_group_name_H-M "I 41/A M D"
_symmetry_group_IT_number 141
_space_group.IT_coordinate_system_code '2'
_symmetry_cell_setting 'tetragonal'
loop_
_space_group_symop_operation_xyz
x,y,z
1/4-y,3/4+x,1/4+z
-x,1/2-y,z
1/4+y,1/4-x,3/4+z
x,-y,-z
-x,1/2+y,-z
1/4+y,3/4+x,1/4-z
1/4-y,1/4-x,3/4-z
-x,-y,-z
3/4+y,1/4-x,3/4-z
x,1/2+y,-z
3/4-y,3/4+x,1/4-z
-x,y,z
x,1/2-y,z
3/4-y,1/4-x,3/4+z
3/4+y,3/4+x,1/4+z
1/2+x,1/2+y,1/2+z
3/4-y,1/4+x,3/4+z
1/2-x,-y,1/2+z
3/4+y,3/4-x,1/4+z
1/2+x,1/2-y,1/2-z
1/2-x,y,1/2-z
3/4+y,1/4+x,3/4-z
3/4-y,3/4-x,1/4-z
1/2-x,1/2-y,1/2-z
1/4+y,3/4-x,1/4-z
1/2+x,y,1/2-z
1/4-y,1/4+x,3/4-z
1/2-x,1/2+y,1/2+z
1/2+x,-y,1/2+z
1/4-y,3/4-x,1/4+z
1/4+y,1/4+x,3/4+z
loop_
_atom_site_type_symbol
_atom_site_label
_atom_site_fract_x
_atom_site_fract_y
_atom_site_fract_z
Si Si1 0.153216 0.682676 0.412493
Si Si2 0.245446 0.651042 0.583246
Si Si3 0.318607 0.913039 0.255663
Si Si4 0.066300 0.409439 0.508298
O O1 0.141745 0.750000 0.391722
O O2 0.210942 0.677400 0.484948
O O3 0.162225 0.643216 0.310112
O O4 0.100025 0.650013 0.470566
O O5 0.277919 0.593303 0.545905
O O6 0.196966 0.648186 0.673471
O O7 0.299099 0.684804 0.638640
O O8 0.339422 0.910579 0.375000
O O9 0.250000 0.915423 0.250000
O O10 0.000000 0.401798 0.471812
#
# Coordination Sequence:
#
# PCOD9573031 Si02
#       4
#    32  32  32  32
#     4  11  23  39  61  89 123 163 208 253 307 368
#     4  10  20  38  60  89 122 160 201 250 309 374
#     4  11  23  42  60  91 123 160 209 257 321 378
#     4  10  21  38  61  90 124 163 207 250 304 365
#
# _framework density 18.908988000000001
#
# number of rings (size 3 to 8) (size 9 to 14) (size 15 to 20)
#    0.000    1.500    2.500    3.750    0.000    3.000 
#    0.000    1.250    0.000    3.000    0.000    0.000 
#    0.000    0.000    0.000    0.000    0.000    0.000 
#
# Total GULP energy -357012.672417 kJ/mol
# GULP energy per Si atom -5578.323007 kJ/mol
# Density = 1.886595 g / cm^3
# Si number density = 18.908988 Si / 1000 Ang^3
#
#
#
# Elastic Constant Matrix: (Units=GPa)
#
#
# Indices 1 2 3 4 5 6 
#
# 1 107.5279 89.8164 46.2706 0.0000 0.0000 0.0000
# 2 89.8164 107.5281 46.2709 0.0000 0.0000 0.0000
# 3 46.2706 46.2709 115.6455 0.0000 0.0000 0.0000
# 4 0.0000 0.0000 0.0000 16.5808 0.0000 0.0000
# 5 0.0000 0.0000 0.0000 0.0000 16.5805 0.0000
# 6 0.0000 0.0000 0.0000 0.0000 0.0000 -60.0427
#
#
#
# Elastic Compliance Matrix: (Units=1/GPa)
#
#
# Indices 1 2 3 4 5 6 
#
# 1 0.031349 -0.025111 -0.002496 0.000000 0.000000 0.000000
# 2 -0.025111 0.031349 -0.002496 0.000000 0.000000 0.000000
# 3 -0.002496 -0.002496 0.010644 0.000000 0.000000 0.000000
# 4 0.000000 0.000000 0.000000 0.060311 0.000000 0.000000
# 5 0.000000 0.000000 0.000000 0.000000 0.060312 0.000000
# 6 0.000000 0.000000 0.000000 0.000000 0.000000 -0.016655
#
#
# Mechanical properties :
#
#
# Convention : Reuss Voigt Hill
#
# Bulk Modulus (GPa) = 76.12337 77.26860 76.69598
# Shear Modulus (GPa) = 20.67022 4.51330 12.59176
#
# Velocity S-wave (km/s) = 3.30986 1.54662 2.58333
# Velocity P-wave (km/s) = 7.41296 6.64391 7.03895
#
# Compressibility (1/GPa) = 0.01313657
#
# Stress axis : x y z
#
# Youngs Moduli (GPa) = 31.89906 31.89907 93.94757
#
# Poissons Ratio (x) = 0.80103 0.23446
# Poissons Ratio (y) = 0.80103 0.23447
# Poissons Ratio (z) = 0.07961 0.07961
#
# Static dielectric constant tensor:
#      x y z
#    x 1.640400 0.000000 0.000000 
#    y 0.000000 1.640400 0.000000 
#    z 0.000000 0.000000 1.708210 
# 
# From -- ./inp_files/4585.got.cif
#   From: 2010.05.17/outbox.cif.g08.bks.cpg/sg141_3_cif.got.tgz:4585.got - 2010.05.20 13:30:51.
