data_PCOD9573185
_publ_section_title
;
Structure prediction by ZEFSAII (Michael W. Deem and Ramdas Pophale) SiO2 
 PCOD9573185
Probable space group: I 41/A M D
;
_chemical_formula_sum "Si O2"
_cell_formula_units_Z 160
_cell_length_a 18.544238
_cell_length_b 18.544238
_cell_length_c 25.314589
_cell_angle_alpha 90.000000
_cell_angle_beta 90.000000
_cell_angle_gamma 90.000000
_cell_volume 8705.402697
_symmetry_space_group_name_H-M "I 41/A M D"
_symmetry_group_IT_number 141
_space_group.IT_coordinate_system_code '2'
_symmetry_cell_setting 'tetragonal'
loop_
_space_group_symop_operation_xyz
x,y,z
1/4-y,3/4+x,1/4+z
-x,1/2-y,z
1/4+y,1/4-x,3/4+z
x,-y,-z
-x,1/2+y,-z
1/4+y,3/4+x,1/4-z
1/4-y,1/4-x,3/4-z
-x,-y,-z
3/4+y,1/4-x,3/4-z
x,1/2+y,-z
3/4-y,3/4+x,1/4-z
-x,y,z
x,1/2-y,z
3/4-y,1/4-x,3/4+z
3/4+y,3/4+x,1/4+z
1/2+x,1/2+y,1/2+z
3/4-y,1/4+x,3/4+z
1/2-x,-y,1/2+z
3/4+y,3/4-x,1/4+z
1/2+x,1/2-y,1/2-z
1/2-x,y,1/2-z
3/4+y,1/4+x,3/4-z
3/4-y,3/4-x,1/4-z
1/2-x,1/2-y,1/2-z
1/4+y,3/4-x,1/4-z
1/2+x,y,1/2-z
1/4-y,1/4+x,3/4-z
1/2-x,1/2+y,1/2+z
1/2+x,-y,1/2+z
1/4-y,3/4-x,1/4+z
1/4+y,1/4+x,3/4+z
loop_
_atom_site_type_symbol
_atom_site_label
_atom_site_fract_x
_atom_site_fract_y
_atom_site_fract_z
Si Si1 0.080071 0.475494 0.831874
Si Si2 0.271971 0.607760 0.308785
Si Si3 0.754781 0.896949 0.589848
Si Si4 0.859479 0.250000 0.257553
Si Si5 0.757185 0.750000 0.845653
Si Si6 0.581271 0.407959 0.252524
O O1 0.149895 0.432342 0.810214
O O2 0.083944 0.472394 0.894941
O O3 0.087937 0.557245 0.810443
O O4 0.000000 0.450220 0.814014
O O5 0.250000 0.630990 0.250000
O O6 0.207343 0.555550 0.329019
O O7 0.815006 0.934995 0.625000
O O8 0.732918 0.822434 0.619262
O O9 0.793493 0.880306 0.534728
O O10 0.808441 0.250000 0.205759
O O11 0.819662 0.250000 0.314659
O O12 0.901849 0.324459 0.252372
O O13 0.500000 0.419674 0.233922
#
# Coordination Sequence:
#
# PCOD9573185 Si02
#       6
#    32  32  32  16  16  32
#     4  10  22  39  60  91 122 151 194 249 305 355
#     4  11  22  38  66  89 116 154 195 248 301 366
#     4  12  21  35  57  85 118 154 208 254 295 347
#     4  11  23  34  52  76 117 163 210 238 303 353
#     4  11  24  34  52  86 118 160 201 262 296 348
#     4  11  22  37  55  79 118 161 201 249 296 349
#
# _framework density 18.379391999999999
#
# number of rings (size 3 to 8) (size 9 to 14) (size 15 to 20)
#    0.000    1.000    7.000    1.500    0.000    0.400 
#    0.000    0.000    0.000    4.800    0.000    0.000 
#    0.000    0.000    0.000    0.000    0.000    0.000 
#
# Total GULP energy -445809.823528 kJ/mol
# GULP energy per Si atom -5572.622794 kJ/mol
# Density = 1.833756 g / cm^3
# Si number density = 18.379392 Si / 1000 Ang^3
#
#
#
# Elastic Constant Matrix: (Units=GPa)
#
#
# Indices 1 2 3 4 5 6 
#
# 1 73.0505 13.6211 7.7642 0.0000 0.0000 0.0000
# 2 13.6211 73.0494 7.7644 0.0000 0.0000 0.0000
# 3 7.7642 7.7644 86.0452 0.0000 0.0000 0.0000
# 4 0.0000 0.0000 0.0000 23.0278 0.0000 0.0000
# 5 0.0000 0.0000 0.0000 0.0000 23.0273 0.0000
# 6 0.0000 0.0000 0.0000 0.0000 0.0000 9.7802
#
#
#
# Elastic Compliance Matrix: (Units=1/GPa)
#
#
# Indices 1 2 3 4 5 6 
#
# 1 0.014277 -0.002550 -0.001058 0.000000 0.000000 0.000000
# 2 -0.002550 0.014277 -0.001058 0.000000 0.000000 0.000000
# 3 -0.001058 -0.001058 0.011813 0.000000 0.000000 0.000000
# 4 0.000000 0.000000 0.000000 0.043426 0.000000 0.000000
# 5 0.000000 0.000000 0.000000 0.000000 0.043427 0.000000
# 6 0.000000 0.000000 0.000000 0.000000 0.000000 0.102248
#
#
# Mechanical properties :
#
#
# Convention : Reuss Voigt Hill
#
# Bulk Modulus (GPa) = 32.22187 32.27160 32.24673
# Shear Modulus (GPa) = 20.06868 24.70009 22.38438
#
# Velocity S-wave (km/s) = 3.30799 3.66990 3.49364
# Velocity P-wave (km/s) = 5.67098 5.96274 5.81869
#
# Compressibility (1/GPa) = 0.03103483
#
# Stress axis : x y z
#
# Youngs Moduli (GPa) = 70.04246 70.04138 84.65406
#
# Poissons Ratio (x) = 0.17858 0.08958
# Poissons Ratio (y) = 0.17859 0.08959
# Poissons Ratio (z) = 0.07412 0.07412
#
# Static dielectric constant tensor:
#      x y z
#    x 1.638020 0.000000 0.000000 
#    y 0.000000 1.638010 0.000000 
#    z 0.000000 0.000000 1.707770 
# 
# From -- ./inp_files/12802.got.cif
#   From: 2010.05.17/outbox.cif.g08.bks.cpg/sg141_7_cif.got.tgz:12802.got - 2010.05.20 13:30:51.
