data_PCOD9573537
_publ_section_title
;
Structure prediction by ZEFSAII (Michael W. Deem and Ramdas Pophale) SiO2 
 PCOD9573537
Probable space group: I 41/A C D
;
_chemical_formula_sum "Si O2"
_cell_formula_units_Z 176
_cell_length_a 18.899487
_cell_length_b 18.899487
_cell_length_c 26.234559
_cell_angle_alpha 90.000000
_cell_angle_beta 90.000000
_cell_angle_gamma 90.000000
_cell_volume 9370.738102
_symmetry_space_group_name_H-M "I 41/A C D"
_symmetry_group_IT_number 142
_space_group.IT_coordinate_system_code '2'
_symmetry_cell_setting 'tetragonal'
loop_
_space_group_symop_operation_xyz
x,y,z
1/4-y,3/4+x,1/4+z
-x,1/2-y,z
1/4+y,1/4-x,3/4+z
x,-y,1/2-z
1/2-x,y,-z
3/4+y,1/4+x,1/4-z
1/4-y,1/4-x,1/4-z
-x,-y,-z
3/4+y,1/4-x,3/4-z
x,1/2+y,-z
3/4-y,3/4+x,1/4-z
-x,y,1/2+z
1/2+x,-y,z
1/4-y,3/4-x,3/4+z
3/4+y,3/4+x,3/4+z
1/2+x,1/2+y,1/2+z
3/4-y,1/4+x,3/4+z
1/2-x,-y,1/2+z
3/4+y,3/4-x,1/4+z
1/2+x,1/2-y,-z
-x,1/2+y,1/2-z
1/4+y,3/4+x,3/4-z
3/4-y,3/4-x,3/4-z
1/2-x,1/2-y,1/2-z
1/4+y,3/4-x,1/4-z
1/2+x,y,1/2-z
1/4-y,1/4+x,3/4-z
1/2-x,1/2+y,z
x,1/2-y,1/2+z
3/4-y,1/4-x,1/4+z
1/4+y,1/4+x,1/4+z
loop_
_atom_site_type_symbol
_atom_site_label
_atom_site_fract_x
_atom_site_fract_y
_atom_site_fract_z
Si Si1 0.598972 0.684439 0.789704
Si Si2 0.767738 0.982263 0.875000
Si Si3 0.564103 0.155028 0.726630
Si Si4 0.202112 0.769851 0.947987
Si Si5 0.310553 0.357561 0.113346
Si Si6 0.817358 0.111334 0.537218
O O1 0.591601 0.765474 0.773369
O O2 0.517726 0.656123 0.793834
O O3 0.641411 0.675124 0.842029
O O4 0.636765 0.637101 0.747050
O O5 0.684816 0.965822 0.879505
O O6 0.809290 0.951440 0.923348
O O7 0.558750 0.118343 0.781870
O O8 0.609688 0.109034 0.687367
O O9 0.244626 0.809206 0.903974
O O10 0.187368 0.688124 0.935575
O O11 0.250000 0.769634 0.000000
O O12 0.750000 0.107453 0.500000
#
# Coordination Sequence:
#
# PCOD9573537 Si02
#       6
#    32  16  32  32  32  32
#     4  10  19  36  65  93 116 149 206 254 301 357
#     4  12  26  36  56  85 124 163 200 240 292 370
#     4   9  19  35  63  95 118 148 200 262 302 350
#     4   8  18  36  60  80 116 157 191 237 308 350
#     4  11  21  35  57  90 120 158 200 252 298 347
#     4  10  20  40  58  81 119 163 192 234 305 367
#
# _framework density 18.781872
#
# number of rings (size 3 to 8) (size 9 to 14) (size 15 to 20)
#    0.000    2.182    1.818    2.182    2.545    3.636 
#    0.000    2.727    0.000    7.636    0.000    0.000 
#    0.000    0.000    0.000    0.000    0.000    0.000 
#
# Total GULP energy -491012.812894 kJ/mol
# GULP energy per Si atom -5579.691056 kJ/mol
# Density = 1.873912 g / cm^3
# Si number density = 18.781872 Si / 1000 Ang^3
#
#
#
# Elastic Constant Matrix: (Units=GPa)
#
#
# Indices 1 2 3 4 5 6 
#
# 1 67.1937 19.8509 25.5447 0.0000 0.0000 0.0000
# 2 19.8509 67.1938 25.5442 0.0000 0.0000 0.0000
# 3 25.5447 25.5442 53.4614 0.0000 0.0000 0.0000
# 4 0.0000 0.0000 0.0000 11.4546 0.0000 0.0000
# 5 0.0000 0.0000 0.0000 0.0000 11.4550 0.0000
# 6 0.0000 0.0000 0.0000 0.0000 0.0000 17.9123
#
#
#
# Elastic Compliance Matrix: (Units=1/GPa)
#
#
# Indices 1 2 3 4 5 6 
#
# 1 0.018544 -0.002578 -0.007629 0.000000 0.000000 0.000000
# 2 -0.002578 0.018544 -0.007628 0.000000 0.000000 0.000000
# 3 -0.007629 -0.007628 0.025995 0.000000 0.000000 0.000000
# 4 0.000000 0.000000 0.000000 0.087301 0.000000 0.000000
# 5 0.000000 0.000000 0.000000 0.000000 0.087298 0.000000
# 6 0.000000 0.000000 0.000000 0.000000 0.000000 0.055828
#
#
# Mechanical properties :
#
#
# Convention : Reuss Voigt Hill
#
# Bulk Modulus (GPa) = 36.48005 36.63650 36.55827
# Shear Modulus (GPa) = 14.77896 15.95833 15.36865
#
# Velocity S-wave (km/s) = 2.80817 2.91807 2.86365
# Velocity P-wave (km/s) = 5.47536 5.55897 5.51732
#
# Compressibility (1/GPa) = 0.02741225
#
# Stress axis : x y z
#
# Youngs Moduli (GPa) = 53.92495 53.92567 38.46866
#
# Poissons Ratio (x) = 0.13904 0.29347
# Poissons Ratio (y) = 0.13904 0.29346
# Poissons Ratio (z) = 0.41138 0.41137
#
# Static dielectric constant tensor:
#      x y z
#    x 1.659410 0.000000 0.000000 
#    y 0.000000 1.659410 0.000000 
#    z 0.000000 0.000000 1.643630 
# 
# From -- ./inp_files/11449.got.cif
#   From: 2010.05.17/outbox.cif.g08.bks.cpg/sg142_6_cif.got.tgz:11449.got - 2010.05.20 13:39:18.
