data_PCOD9573848
_publ_section_title
;
Structure prediction by ZEFSAII (Michael W. Deem and Ramdas Pophale) SiO2 
 PCOD9573848
Probable space group: I 41/A C D
;
_chemical_formula_sum "Si O2"
_cell_formula_units_Z 160
_cell_length_a 21.659665
_cell_length_b 21.659665
_cell_length_c 16.839665
_cell_angle_alpha 90.000000
_cell_angle_beta 90.000000
_cell_angle_gamma 90.000000
_cell_volume 7900.178758
_symmetry_space_group_name_H-M "I 41/A C D"
_symmetry_group_IT_number 142
_space_group.IT_coordinate_system_code '2'
_symmetry_cell_setting 'tetragonal'
loop_
_space_group_symop_operation_xyz
x,y,z
1/4-y,3/4+x,1/4+z
-x,1/2-y,z
1/4+y,1/4-x,3/4+z
x,-y,1/2-z
1/2-x,y,-z
3/4+y,1/4+x,1/4-z
1/4-y,1/4-x,1/4-z
-x,-y,-z
3/4+y,1/4-x,3/4-z
x,1/2+y,-z
3/4-y,3/4+x,1/4-z
-x,y,1/2+z
1/2+x,-y,z
1/4-y,3/4-x,3/4+z
3/4+y,3/4+x,3/4+z
1/2+x,1/2+y,1/2+z
3/4-y,1/4+x,3/4+z
1/2-x,-y,1/2+z
3/4+y,3/4-x,1/4+z
1/2+x,1/2-y,-z
-x,1/2+y,1/2-z
1/4+y,3/4+x,3/4-z
3/4-y,3/4-x,3/4-z
1/2-x,1/2-y,1/2-z
1/4+y,3/4-x,1/4-z
1/2+x,y,1/2-z
1/4-y,1/4+x,3/4-z
1/2-x,1/2+y,z
x,1/2-y,1/2+z
3/4-y,1/4-x,1/4+z
1/4+y,1/4+x,1/4+z
loop_
_atom_site_type_symbol
_atom_site_label
_atom_site_fract_x
_atom_site_fract_y
_atom_site_fract_z
Si Si1 0.876411 0.373590 0.125000
Si Si2 0.821020 0.810254 0.022279
Si Si3 0.721778 0.000000 0.750000
Si Si4 0.165650 0.058922 0.893106
Si Si5 0.506819 0.148826 0.611577
Si Si6 0.553878 0.551248 0.496372
O O1 0.925289 0.385631 0.195939
O O2 0.898085 0.433488 0.069598
O O3 0.824816 0.871121 0.078170
O O4 0.847175 0.754036 0.072218
O O5 0.750000 0.802149 0.000000
O O6 0.680437 0.953862 0.802010
O O7 0.767070 0.962735 0.692851
O O8 0.098714 0.037745 0.922443
O O9 0.560861 0.194786 0.637244
O O10 0.521029 0.115679 0.528452
O O11 0.500000 0.500000 0.500000
#
# Coordination Sequence:
#
# PCOD9573848 Si02
#       6
#    16  32  16  32  32  32
#     4  10  22  42  61 106 122 162 242 272 338 419
#     4  11  22  38  68  95 129 172 225 281 336 416
#     4  10  22  38  62  94 138 170 200 292 346 408
#     4  10  22  38  62  97 132 169 221 266 349 410
#     4  11  23  44  65  92 133 181 218 272 341 401
#     4  11  24  43  69  96 137 172 229 290 335 420
#
# _framework density 20.252707000000001
#
# number of rings (size 3 to 8) (size 9 to 14) (size 15 to 20)
#    0.000    1.400    5.000    1.200    8.400    0.000 
#    5.400    2.000    0.000    0.000    0.000    0.000 
#    0.000    0.000    0.000    0.000    0.000    0.000 
#
# Total GULP energy -445404.420873 kJ/mol
# GULP energy per Si atom -5567.555261 kJ/mol
# Density = 2.020661 g / cm^3
# Si number density = 20.252707 Si / 1000 Ang^3
#
#
#
# Elastic Constant Matrix: (Units=GPa)
#
#
# Indices 1 2 3 4 5 6 
#
# 1 91.4232 42.4351 18.5605 0.0000 0.0000 0.0000
# 2 42.4351 91.4234 18.5607 0.0000 0.0000 0.0000
# 3 18.5605 18.5607 82.6101 0.0000 0.0000 0.0000
# 4 0.0000 0.0000 0.0000 16.4513 0.0000 0.0000
# 5 0.0000 0.0000 0.0000 0.0000 16.4508 0.0000
# 6 0.0000 0.0000 0.0000 0.0000 0.0000 37.0718
#
#
#
# Elastic Compliance Matrix: (Units=1/GPa)
#
#
# Indices 1 2 3 4 5 6 
#
# 1 0.014190 -0.006223 -0.001790 0.000000 0.000000 0.000000
# 2 -0.006223 0.014190 -0.001790 0.000000 0.000000 0.000000
# 3 -0.001790 -0.001790 0.012909 0.000000 0.000000 0.000000
# 4 0.000000 0.000000 0.000000 0.060786 0.000000 0.000000
# 5 0.000000 0.000000 0.000000 0.000000 0.060787 0.000000
# 6 0.000000 0.000000 0.000000 0.000000 0.000000 0.026975
#
#
# Mechanical properties :
#
#
# Convention : Reuss Voigt Hill
#
# Bulk Modulus (GPa) = 46.11829 47.17435 46.64632
# Shear Modulus (GPa) = 23.07647 26.38813 24.73230
#
# Velocity S-wave (km/s) = 3.37920 3.61355 3.49834
# Velocity P-wave (km/s) = 6.16816 6.38386 6.27694
#
# Compressibility (1/GPa) = 0.02168337
#
# Stress axis : x y z
#
# Youngs Moduli (GPa) = 70.47202 70.47213 77.46299
#
# Poissons Ratio (x) = 0.43855 0.13866
# Poissons Ratio (y) = 0.43855 0.13866
# Poissons Ratio (z) = 0.12614 0.12615
#
# Static dielectric constant tensor:
#      x y z
#    x 1.771390 0.000000 0.000000 
#    y 0.000000 1.771390 0.000000 
#    z 0.000000 0.000000 1.806860 
# 
# From -- ./inp_files/7468.got.cif
#   From: 2010.05.17/outbox.cif.g08.bks.cpg/sg142_4_cif.got.tgz:7468.got - 2010.05.20 13:39:18.
