data_PCOD9573725
_publ_section_title
;
Structure prediction by ZEFSAII (Michael W. Deem and Ramdas Pophale) SiO2 
 PCOD9573725
Probable space group: I 41/A C D
;
_chemical_formula_sum "Si O2"
_cell_formula_units_Z 160
_cell_length_a 21.171923
_cell_length_b 21.171923
_cell_length_c 17.463520
_cell_angle_alpha 90.000000
_cell_angle_beta 90.000000
_cell_angle_gamma 90.000000
_cell_volume 7828.028490
_symmetry_space_group_name_H-M "I 41/A C D"
_symmetry_group_IT_number 142
_space_group.IT_coordinate_system_code '2'
_symmetry_cell_setting 'tetragonal'
loop_
_space_group_symop_operation_xyz
x,y,z
1/4-y,3/4+x,1/4+z
-x,1/2-y,z
1/4+y,1/4-x,3/4+z
x,-y,1/2-z
1/2-x,y,-z
3/4+y,1/4+x,1/4-z
1/4-y,1/4-x,1/4-z
-x,-y,-z
3/4+y,1/4-x,3/4-z
x,1/2+y,-z
3/4-y,3/4+x,1/4-z
-x,y,1/2+z
1/2+x,-y,z
1/4-y,3/4-x,3/4+z
3/4+y,3/4+x,3/4+z
1/2+x,1/2+y,1/2+z
3/4-y,1/4+x,3/4+z
1/2-x,-y,1/2+z
3/4+y,3/4-x,1/4+z
1/2+x,1/2-y,-z
-x,1/2+y,1/2-z
1/4+y,3/4+x,3/4-z
3/4-y,3/4-x,3/4-z
1/2-x,1/2-y,1/2-z
1/4+y,3/4-x,1/4-z
1/2+x,y,1/2-z
1/4-y,1/4+x,3/4-z
1/2-x,1/2+y,z
x,1/2-y,1/2+z
3/4-y,1/4-x,1/4+z
1/4+y,1/4+x,1/4+z
loop_
_atom_site_type_symbol
_atom_site_label
_atom_site_fract_x
_atom_site_fract_y
_atom_site_fract_z
Si Si1 0.599178 0.067283 0.918892
Si Si2 0.779146 0.381891 0.080150
Si Si3 0.916117 0.094386 0.907826
Si Si4 0.830730 0.188891 0.811392
Si Si5 0.533793 0.619517 0.614747
O O1 0.662774 0.087227 0.875000
O O2 0.539145 0.101339 0.878266
O O3 0.583465 0.992267 0.926269
O O4 0.602020 0.097985 0.003104
O O5 0.812200 0.437801 0.125000
O O6 0.723752 0.355144 0.130790
O O7 0.829897 0.325367 0.074486
O O8 0.750000 0.401656 0.000000
O O9 0.879066 0.142917 0.854307
O O10 0.991763 0.093958 0.904477
O O11 0.845002 0.195680 0.720424
O O12 0.558869 0.691132 0.625000
#
# Coordination Sequence:
#
# PCOD9573725 Si02
#       5
#    32  32  32  32  32
#     4  11  24  43  63  93 138 168 204 268 328 372
#     4  11  22  38  65  95 124 167 222 255 307 380
#     4  11  23  43  66  90 129 169 210 269 320 372
#     4  11  23  45  65  92 131 166 214 265 320 380
#     4  10  20  42  69  91 124 172 217 262 310 379
#
# _framework density 20.439374000000001
#
# number of rings (size 3 to 8) (size 9 to 14) (size 15 to 20)
#    0.000    1.200    4.000    3.600    0.000    5.600 
#    0.000    4.000    0.000    0.000    0.000    0.000 
#    0.000    0.000    0.000    0.000    0.000    0.000 
#
# Total GULP energy -446737.282330 kJ/mol
# GULP energy per Si atom -5584.216029 kJ/mol
# Density = 2.039285 g / cm^3
# Si number density = 20.439374 Si / 1000 Ang^3
#
#
#
# Elastic Constant Matrix: (Units=GPa)
#
#
# Indices 1 2 3 4 5 6 
#
# 1 78.2832 49.8482 24.1926 0.0000 0.0000 0.0000
# 2 49.8482 78.2897 24.1944 0.0000 0.0000 0.0000
# 3 24.1926 24.1944 51.7215 0.0000 0.0000 0.0000
# 4 0.0000 0.0000 0.0000 32.2745 0.0000 0.0000
# 5 0.0000 0.0000 0.0000 0.0000 32.2715 0.0000
# 6 0.0000 0.0000 0.0000 0.0000 0.0000 8.9821
#
#
#
# Elastic Compliance Matrix: (Units=1/GPa)
#
#
# Indices 1 2 3 4 5 6 
#
# 1 0.022322 -0.012843 -0.004434 0.000000 0.000000 0.000000
# 2 -0.012843 0.022320 -0.004434 0.000000 0.000000 0.000000
# 3 -0.004434 -0.004434 0.023482 0.000000 0.000000 0.000000
# 4 0.000000 0.000000 0.000000 0.030984 0.000000 0.000000
# 5 0.000000 0.000000 0.000000 0.000000 0.030987 0.000000
# 6 0.000000 0.000000 0.000000 0.000000 0.000000 0.111332
#
#
# Mechanical properties :
#
#
# Convention : Reuss Voigt Hill
#
# Bulk Modulus (GPa) = 40.47863 44.97388 42.72626
# Shear Modulus (GPa) = 17.05999 22.04292 19.55146
#
# Velocity S-wave (km/s) = 2.89219 3.28754 3.09618
# Velocity P-wave (km/s) = 5.56779 6.03837 5.80785
#
# Compressibility (1/GPa) = 0.02470439
#
# Stress axis : x y z
#
# Youngs Moduli (GPa) = 44.79877 44.80195 42.58544
#
# Poissons Ratio (x) = 0.57538 0.18880
# Poissons Ratio (y) = 0.57534 0.18882
# Poissons Ratio (z) = 0.19862 0.19865
#
# Static dielectric constant tensor:
#      x y z
#    x 1.417160 0.000000 0.000000 
#    y 0.000000 1.416510 0.000000 
#    z 0.000000 0.000000 1.724280 
# 
# From -- ./inp_files/7386.got.cif
#   From: 2010.05.17/outbox.cif.g08.bks.cpg/sg142_4_cif.got.tgz:7386.got - 2010.05.20 13:39:18.
