data_PCOD9573839
_publ_section_title
;
Structure prediction by ZEFSAII (Michael W. Deem and Ramdas Pophale) SiO2 
 PCOD9573839
Probable space group: I 41/A C D
;
_chemical_formula_sum "Si O2"
_cell_formula_units_Z 120
_cell_length_a 18.417292
_cell_length_b 18.417292
_cell_length_c 14.784562
_cell_angle_alpha 90.000000
_cell_angle_beta 90.000000
_cell_angle_gamma 90.000000
_cell_volume 5014.873822
_symmetry_space_group_name_H-M "I 41/A C D"
_symmetry_group_IT_number 142
_space_group.IT_coordinate_system_code '2'
_symmetry_cell_setting 'tetragonal'
loop_
_space_group_symop_operation_xyz
x,y,z
1/4-y,3/4+x,1/4+z
-x,1/2-y,z
1/4+y,1/4-x,3/4+z
x,-y,1/2-z
1/2-x,y,-z
3/4+y,1/4+x,1/4-z
1/4-y,1/4-x,1/4-z
-x,-y,-z
3/4+y,1/4-x,3/4-z
x,1/2+y,-z
3/4-y,3/4+x,1/4-z
-x,y,1/2+z
1/2+x,-y,z
1/4-y,3/4-x,3/4+z
3/4+y,3/4+x,3/4+z
1/2+x,1/2+y,1/2+z
3/4-y,1/4+x,3/4+z
1/2-x,-y,1/2+z
3/4+y,3/4-x,1/4+z
1/2+x,1/2-y,-z
-x,1/2+y,1/2-z
1/4+y,3/4+x,3/4-z
3/4-y,3/4-x,3/4-z
1/2-x,1/2-y,1/2-z
1/4+y,3/4-x,1/4-z
1/2+x,y,1/2-z
1/4-y,1/4+x,3/4-z
1/2-x,1/2+y,z
x,1/2-y,1/2+z
3/4-y,1/4-x,1/4+z
1/4+y,1/4+x,1/4+z
loop_
_atom_site_type_symbol
_atom_site_label
_atom_site_fract_x
_atom_site_fract_y
_atom_site_fract_z
Si Si1 0.538644 0.983635 0.352880
Si Si2 0.500000 0.250000 0.375000
Si Si3 0.750000 0.068492 0.000000
Si Si4 0.316243 0.084755 0.672387
Si Si5 0.141154 0.729573 0.756664
O O1 0.626806 0.979506 0.346459
O O2 0.518451 0.911469 0.411629
O O3 0.515924 0.000000 0.250000
O O4 0.509140 0.046110 0.418663
O O5 0.500202 0.318309 0.442526
O O6 0.791057 0.114430 0.924904
O O7 0.692135 0.010109 0.961719
O O8 0.355402 0.144185 0.732655
#
# Coordination Sequence:
#
# PCOD9573839 Si02
#       5
#    32   8  16  32  32
#     4  11  24  45  71 102 145 196 247 322 392 462
#     4  12  28  52  74 100 156 214 264 320 406 494
#     4  10  22  36  72 114 140 186 238 316 402 482
#     4  11  21  42  71 108 145 185 246 313 398 472
#     4  11  27  47  70 105 147 202 264 318 385 481
#
# _framework density 23.928816999999999
#
# number of rings (size 3 to 8) (size 9 to 14) (size 15 to 20)
#    0.000    1.067    4.000    1.600    1.867    4.267 
#    4.800    1.333    0.000    0.000    0.000    0.000 
#    0.000    0.000    0.000    0.000    0.000    0.000 
#
# Total GULP energy -335090.084752 kJ/mol
# GULP energy per Si atom -5584.834746 kJ/mol
# Density = 2.387435 g / cm^3
# Si number density = 23.928817 Si / 1000 Ang^3
#
#
#
# Elastic Constant Matrix: (Units=GPa)
#
#
# Indices 1 2 3 4 5 6 
#
# 1 89.3701 23.5616 61.0562 0.0000 0.0000 0.0000
# 2 23.5616 89.3701 61.0562 0.0000 0.0000 0.0000
# 3 61.0562 61.0562 211.9177 0.0000 0.0000 0.0000
# 4 0.0000 0.0000 0.0000 40.3763 0.0000 0.0000
# 5 0.0000 0.0000 0.0000 0.0000 40.3763 0.0000
# 6 0.0000 0.0000 0.0000 0.0000 0.0000 28.5049
#
#
#
# Elastic Compliance Matrix: (Units=1/GPa)
#
#
# Indices 1 2 3 4 5 6 
#
# 1 0.014029 -0.001167 -0.003706 0.000000 0.000000 0.000000
# 2 -0.001167 0.014029 -0.003706 0.000000 0.000000 0.000000
# 3 -0.003706 -0.003706 0.006854 0.000000 0.000000 0.000000
# 4 0.000000 0.000000 0.000000 0.024767 0.000000 0.000000
# 5 0.000000 0.000000 0.000000 0.000000 0.024767 0.000000
# 6 0.000000 0.000000 0.000000 0.000000 0.000000 0.035082
#
#
# Mechanical properties :
#
#
# Convention : Reuss Voigt Hill
#
# Bulk Modulus (GPa) = 56.32181 75.77842 66.05011
# Shear Modulus (GPa) = 35.06265 38.18377 36.62321
#
# Velocity S-wave (km/s) = 3.83206 3.99898 3.91641
# Velocity P-wave (km/s) = 6.57023 7.28420 6.93641
#
# Compressibility (1/GPa) = 0.01775511
#
# Stress axis : x y z
#
# Youngs Moduli (GPa) = 71.28248 71.28248 145.89808
#
# Poissons Ratio (x) = 0.08318 0.54065
# Poissons Ratio (y) = 0.08318 0.54065
# Poissons Ratio (z) = 0.26415 0.26415
#
# Static dielectric constant tensor:
#      x y z
#    x 1.945240 0.000000 0.000000 
#    y 0.000000 1.945240 0.000000 
#    z 0.000000 0.000000 1.954220 
# 
# From -- ./inp_files/5067.got.cif
#   From: 2010.05.17/outbox.cif.g08.bks.cpg/sg142_3_cif.got.tgz:5067.got - 2010.05.20 13:39:18.
