data_PCOD9573643
_publ_section_title
;
Structure prediction by ZEFSAII (Michael W. Deem and Ramdas Pophale) SiO2 
 PCOD9573643
Probable space group: I 41/A C D
;
_chemical_formula_sum "Si O2"
_cell_formula_units_Z 184
_cell_length_a 24.356228
_cell_length_b 24.356228
_cell_length_c 18.200870
_cell_angle_alpha 90.000000
_cell_angle_beta 90.000000
_cell_angle_gamma 90.000000
_cell_volume 10797.226438
_symmetry_space_group_name_H-M "I 41/A C D"
_symmetry_group_IT_number 142
_space_group.IT_coordinate_system_code '2'
_symmetry_cell_setting 'tetragonal'
loop_
_space_group_symop_operation_xyz
x,y,z
1/4-y,3/4+x,1/4+z
-x,1/2-y,z
1/4+y,1/4-x,3/4+z
x,-y,1/2-z
1/2-x,y,-z
3/4+y,1/4+x,1/4-z
1/4-y,1/4-x,1/4-z
-x,-y,-z
3/4+y,1/4-x,3/4-z
x,1/2+y,-z
3/4-y,3/4+x,1/4-z
-x,y,1/2+z
1/2+x,-y,z
1/4-y,3/4-x,3/4+z
3/4+y,3/4+x,3/4+z
1/2+x,1/2+y,1/2+z
3/4-y,1/4+x,3/4+z
1/2-x,-y,1/2+z
3/4+y,3/4-x,1/4+z
1/2+x,1/2-y,-z
-x,1/2+y,1/2-z
1/4+y,3/4+x,3/4-z
3/4-y,3/4-x,3/4-z
1/2-x,1/2-y,1/2-z
1/4+y,3/4-x,1/4-z
1/2+x,y,1/2-z
1/4-y,1/4+x,3/4-z
1/2-x,1/2+y,z
x,1/2-y,1/2+z
3/4-y,1/4-x,1/4+z
1/4+y,1/4+x,1/4+z
loop_
_atom_site_type_symbol
_atom_site_label
_atom_site_fract_x
_atom_site_fract_y
_atom_site_fract_z
Si Si1 0.220426 0.166684 0.163930
Si Si2 0.000000 0.750000 0.625000
Si Si3 0.898912 0.432573 0.924799
Si Si4 0.690704 0.480465 0.664893
Si Si5 0.497043 0.038264 0.178954
Si Si6 0.945884 0.845879 0.717008
Si Si7 0.907889 0.342112 0.125000
O O1 0.216682 0.165077 0.252013
O O2 0.246934 0.112060 0.129032
O O3 0.255020 0.216443 0.130280
O O4 0.156882 0.167029 0.139127
O O5 0.019664 0.698921 0.673444
O O6 0.834890 0.442971 0.911091
O O7 0.904198 0.367555 0.941177
O O8 0.939289 0.447521 0.858691
O O9 0.686814 0.500000 0.750000
O O10 0.742458 0.507543 0.625000
O O11 0.528596 0.094002 0.202592
O O12 0.490998 0.000000 0.250000
O O13 0.942591 0.829883 0.802616
#
# Coordination Sequence:
#
# PCOD9573643 Si02
#       7
#    32   8  32  32  32  32  16
#     4  11  20  37  64  92 121 157 211 256 309 366
#     4  12  24  42  64  88 120 166 220 260 308 358
#     4  11  24  39  61  94 125 163 207 258 316 376
#     4  12  21  37  64  94 124 161 209 261 309 375
#     4  12  23  40  63  92 130 165 204 261 322 381
#     4  11  22  39  66  89 121 166 211 256 307 372
#     4  10  20  37  62  96 120 154 204 264 306 363
#
# _framework density 17.041414
#
# number of rings (size 3 to 8) (size 9 to 14) (size 15 to 20)
#    0.000    0.696    7.826    2.087    0.000    1.043 
#    0.000    0.000    0.000    0.000    0.000    0.000 
#    0.000    0.000    0.000    0.000    0.000    0.000 
#
# Total GULP energy -513882.120229 kJ/mol
# GULP energy per Si atom -5585.675220 kJ/mol
# Density = 1.700263 g / cm^3
# Si number density = 17.041414 Si / 1000 Ang^3
#
#
#
# Elastic Constant Matrix: (Units=GPa)
#
#
# Indices 1 2 3 4 5 6 
#
# 1 109.5160 38.4676 67.7470 0.0000 0.0000 0.0000
# 2 38.4676 109.5195 67.7451 0.0000 0.0000 0.0000
# 3 67.7470 67.7451 126.0304 0.0000 0.0000 0.0000
# 4 0.0000 0.0000 0.0000 38.2448 0.0000 0.0000
# 5 0.0000 0.0000 0.0000 0.0000 38.2456 0.0000
# 6 0.0000 0.0000 0.0000 0.0000 0.0000 28.5919
#
#
#
# Elastic Compliance Matrix: (Units=1/GPa)
#
#
# Indices 1 2 3 4 5 6 
#
# 1 0.013691 -0.000384 -0.007153 0.000000 0.000000 0.000000
# 2 -0.000384 0.013690 -0.007152 0.000000 0.000000 0.000000
# 3 -0.007153 -0.007152 0.015624 0.000000 0.000000 0.000000
# 4 0.000000 0.000000 0.000000 0.026147 0.000000 0.000000
# 5 0.000000 0.000000 0.000000 0.000000 0.026147 0.000000
# 6 0.000000 0.000000 0.000000 0.000000 0.000000 0.034975
#
#
# Mechanical properties :
#
#
# Convention : Reuss Voigt Hill
#
# Bulk Modulus (GPa) = 73.38800 76.99837 75.19318
# Shear Modulus (GPa) = 30.45169 32.42356 31.43762
#
# Velocity S-wave (km/s) = 4.23179 4.36665 4.29975
# Velocity P-wave (km/s) = 8.18751 8.40861 8.29880
#
# Compressibility (1/GPa) = 0.01362621
#
# Stress axis : x y z
#
# Youngs Moduli (GPa) = 73.04137 73.04695 64.00360
#
# Poissons Ratio (x) = 0.02806 0.45781
# Poissons Ratio (y) = 0.02806 0.45776
# Poissons Ratio (z) = 0.52246 0.52244
#
# Static dielectric constant tensor:
#      x y z
#    x 1.553040 0.000000 0.000000 
#    y 0.000000 1.553030 0.000000 
#    z 0.000000 0.000000 1.577700 
# 
# From -- ./inp_files/7630.got.cif
#   From: 2010.05.17/outbox.cif.g08.bks.cpg/sg142_4_cif.got.tgz:7630.got - 2010.05.20 13:39:18.
