data_PCOD9573252
_publ_section_title
;
Structure prediction by ZEFSAII (Michael W. Deem and Ramdas Pophale) SiO2 
 PCOD9573252
Probable space group: I 41/A M D
;
_chemical_formula_sum "Si O2"
_cell_formula_units_Z 84
_cell_length_a 14.795249
_cell_length_b 14.795249
_cell_length_c 16.090610
_cell_angle_alpha 90.000000
_cell_angle_beta 90.000000
_cell_angle_gamma 90.000000
_cell_volume 3522.224762
_symmetry_space_group_name_H-M "I 41/A M D"
_symmetry_group_IT_number 141
_space_group.IT_coordinate_system_code '2'
_symmetry_cell_setting 'tetragonal'
loop_
_space_group_symop_operation_xyz
x,y,z
1/4-y,3/4+x,1/4+z
-x,1/2-y,z
1/4+y,1/4-x,3/4+z
x,-y,-z
-x,1/2+y,-z
1/4+y,3/4+x,1/4-z
1/4-y,1/4-x,3/4-z
-x,-y,-z
3/4+y,1/4-x,3/4-z
x,1/2+y,-z
3/4-y,3/4+x,1/4-z
-x,y,z
x,1/2-y,z
3/4-y,1/4-x,3/4+z
3/4+y,3/4+x,1/4+z
1/2+x,1/2+y,1/2+z
3/4-y,1/4+x,3/4+z
1/2-x,-y,1/2+z
3/4+y,3/4-x,1/4+z
1/2+x,1/2-y,1/2-z
1/2-x,y,1/2-z
3/4+y,1/4+x,3/4-z
3/4-y,3/4-x,1/4-z
1/2-x,1/2-y,1/2-z
1/4+y,3/4-x,1/4-z
1/2+x,y,1/2-z
1/4-y,1/4+x,3/4-z
1/2-x,1/2+y,1/2+z
1/2+x,-y,1/2+z
1/4-y,3/4-x,1/4+z
1/4+y,1/4+x,3/4+z
loop_
_atom_site_type_symbol
_atom_site_label
_atom_site_fract_x
_atom_site_fract_y
_atom_site_fract_z
Si Si1 0.896850 0.750000 0.958365
Si Si2 0.402432 0.352928 0.023760
Si Si3 0.218380 0.427130 0.052480
Si Si4 0.000000 0.750000 0.125000
O O1 0.840720 0.838492 0.931150
O O2 0.000000 0.750000 0.925981
O O3 0.915724 0.750000 0.059408
O O4 0.500000 0.394081 0.000596
O O5 0.401857 0.250000 0.995457
O O6 0.400309 0.349692 0.125000
O O7 0.307294 0.395180 0.000379
O O8 0.266526 0.483475 0.125000
O O9 0.162646 0.500000 0.000000
#
# Coordination Sequence:
#
# PCOD9573252 Si02
#       4
#    16  32  32   4
#     4  10  24  50  73 108 147 205 270 323 397 464
#     4   8  14  29  54  83 125 176 221 277 362 452
#     4  11  24  41  69 106 147 192 258 331 398 472
#     4   8  24  48  88  92 152 212 266 340 372 464
#
# _framework density 23.848564
#
# number of rings (size 3 to 8) (size 9 to 14) (size 15 to 20)
#    0.571    1.905    1.905    1.143    5.333    1.524 
#    3.429    0.000    0.000    0.000    0.000    0.000 
#    0.000    0.000    0.000    0.000    0.000    0.000 
#
# Total GULP energy -233988.705740 kJ/mol
# GULP energy per Si atom -5571.159660 kJ/mol
# Density = 2.379428 g / cm^3
# Si number density = 23.848564 Si / 1000 Ang^3
#
#
#
# Elastic Constant Matrix: (Units=GPa)
#
#
# Indices 1 2 3 4 5 6 
#
# 1 161.8715 78.5395 42.5505 0.0000 0.0000 0.0000
# 2 78.5395 161.8702 42.5509 0.0000 0.0000 0.0000
# 3 42.5505 42.5509 81.0923 0.0000 0.0000 0.0000
# 4 0.0000 0.0000 0.0000 24.4457 0.0000 0.0000
# 5 0.0000 0.0000 0.0000 0.0000 24.4454 0.0000
# 6 0.0000 0.0000 0.0000 0.0000 0.0000 15.5081
#
#
#
# Elastic Compliance Matrix: (Units=1/GPa)
#
#
# Indices 1 2 3 4 5 6 
#
# 1 0.008554 -0.003446 -0.002680 0.000000 0.000000 0.000000
# 2 -0.003446 0.008554 -0.002681 0.000000 0.000000 0.000000
# 3 -0.002680 -0.002681 0.015145 0.000000 0.000000 0.000000
# 4 0.000000 0.000000 0.000000 0.040907 0.000000 0.000000
# 5 0.000000 0.000000 0.000000 0.000000 0.040907 0.000000
# 6 0.000000 0.000000 0.000000 0.000000 0.000000 0.064482
#
#
# Mechanical properties :
#
#
# Convention : Reuss Voigt Hill
#
# Bulk Modulus (GPa) = 68.30827 81.34621 74.82724
# Shear Modulus (GPa) = 24.87021 28.95938 26.91479
#
# Velocity S-wave (km/s) = 3.23280 3.48847 3.36307
# Velocity P-wave (km/s) = 6.52988 7.09996 6.82088
#
# Compressibility (1/GPa) = 0.01463952
#
# Stress axis : x y z
#
# Youngs Moduli (GPa) = 116.90034 116.89888 66.03002
#
# Poissons Ratio (x) = 0.40283 0.17699
# Poissons Ratio (y) = 0.40283 0.17700
# Poissons Ratio (z) = 0.31334 0.31335
#
# Static dielectric constant tensor:
#      x y z
#    x 1.925510 0.000000 0.000000 
#    y 0.000000 1.925510 0.000000 
#    z 0.000000 0.000000 2.061000 
# 
# From -- ./inp_files/9639.got.cif
#   From: 2010.05.17/outbox.cif.g08.bks.cpg/sg141_5_cif.got.tgz:9639.got - 2010.05.20 13:30:51.
