data_PCOD9573696
_publ_section_title
;
Structure prediction by ZEFSAII (Michael W. Deem and Ramdas Pophale) SiO2 
 PCOD9573696
Probable space group: I 41/A C D
;
_chemical_formula_sum "Si O2"
_cell_formula_units_Z 240
_cell_length_a 20.258746
_cell_length_b 20.258746
_cell_length_c 24.726428
_cell_angle_alpha 90.000000
_cell_angle_beta 90.000000
_cell_angle_gamma 90.000000
_cell_volume 10148.141195
_symmetry_space_group_name_H-M "I 41/A C D"
_symmetry_group_IT_number 142
_space_group.IT_coordinate_system_code '2'
_symmetry_cell_setting 'tetragonal'
loop_
_space_group_symop_operation_xyz
x,y,z
1/4-y,3/4+x,1/4+z
-x,1/2-y,z
1/4+y,1/4-x,3/4+z
x,-y,1/2-z
1/2-x,y,-z
3/4+y,1/4+x,1/4-z
1/4-y,1/4-x,1/4-z
-x,-y,-z
3/4+y,1/4-x,3/4-z
x,1/2+y,-z
3/4-y,3/4+x,1/4-z
-x,y,1/2+z
1/2+x,-y,z
1/4-y,3/4-x,3/4+z
3/4+y,3/4+x,3/4+z
1/2+x,1/2+y,1/2+z
3/4-y,1/4+x,3/4+z
1/2-x,-y,1/2+z
3/4+y,3/4-x,1/4+z
1/2+x,1/2-y,-z
-x,1/2+y,1/2-z
1/4+y,3/4+x,3/4-z
3/4-y,3/4-x,3/4-z
1/2-x,1/2-y,1/2-z
1/4+y,3/4-x,1/4-z
1/2+x,y,1/2-z
1/4-y,1/4+x,3/4-z
1/2-x,1/2+y,z
x,1/2-y,1/2+z
3/4-y,1/4-x,1/4+z
1/4+y,1/4+x,1/4+z
loop_
_atom_site_type_symbol
_atom_site_label
_atom_site_fract_x
_atom_site_fract_y
_atom_site_fract_z
Si Si1 0.750212 0.594623 0.356973
Si Si2 0.968433 0.888881 0.208444
Si Si3 0.352644 0.788695 0.770243
Si Si4 0.000000 0.750000 0.053251
Si Si5 0.355649 0.486294 0.687491
Si Si6 0.186484 0.635599 0.035224
Si Si7 0.510739 0.519691 0.579160
Si Si8 0.143460 0.690822 0.412797
O O1 0.822570 0.572570 0.375000
O O2 0.717837 0.534961 0.325031
O O3 0.701351 0.605040 0.406968
O O4 0.751283 0.662720 0.326019
O O5 0.907175 0.926026 0.181968
O O6 0.955625 0.876774 0.273808
O O7 0.984051 0.822666 0.174416
O O8 0.035226 0.931219 0.207893
O O9 0.428116 0.764565 0.776363
O O10 0.359759 0.867348 0.762040
O O11 0.319253 0.749200 0.720829
O O12 0.299325 0.777137 0.818633
O O13 0.360322 0.500000 0.750000
O O14 0.382453 0.552256 0.660791
O O15 0.250000 0.619989 0.000000
O O16 0.497595 0.563084 0.632973
O O17 0.082424 0.667577 0.375000
#
# Coordination Sequence:
#
# PCOD9573696 Si02
#       8
#    32  32  32  16  32  32  32  32
#     4  12  25  39  62  91 124 166 214 265 322 396
#     4  10  21  40  65  91 127 170 207 267 333 392
#     4  10  23  40  64  88 125 168 206 267 328 386
#     4  10  20  40  63  91 120 162 218 252 316 403
#     4  10  22  40  63  91 126 166 213 267 327 393
#     4  11  22  40  62  89 125 166 213 264 326 396
#     4  11  23  41  61  92 127 162 210 266 329 390
#     4  11  22  39  65  93 123 164 216 268 327 399
#
# _framework density 23.649650000000001
#
# number of rings (size 3 to 8) (size 9 to 14) (size 15 to 20)
#    0.000    1.333    0.000    6.400    0.000    5.867 
#    0.000    3.667    0.000    7.200    0.000    0.000 
#    0.000    0.000    0.000    0.000    0.000    0.000 
#
# Total GULP energy -669912.187192 kJ/mol
# GULP energy per Si atom -5582.601560 kJ/mol
# Density = 2.359582 g / cm^3
# Si number density = 23.649650 Si / 1000 Ang^3
#
#
#
# Elastic Constant Matrix: (Units=GPa)
#
#
# Indices 1 2 3 4 5 6 
#
# 1 105.5358 26.5397 12.1003 0.0000 0.0000 0.0000
# 2 26.5397 105.5345 12.1003 0.0000 0.0000 0.0000
# 3 12.1003 12.1003 33.1552 0.0000 0.0000 0.0000
# 4 0.0000 0.0000 0.0000 21.7838 0.0000 0.0000
# 5 0.0000 0.0000 0.0000 0.0000 21.7867 0.0000
# 6 0.0000 0.0000 0.0000 0.0000 0.0000 -16.7497
#
#
#
# Elastic Compliance Matrix: (Units=1/GPa)
#
#
# Indices 1 2 3 4 5 6 
#
# 1 0.010386 -0.002272 -0.002961 0.000000 0.000000 0.000000
# 2 -0.002272 0.010387 -0.002961 0.000000 0.000000 0.000000
# 3 -0.002961 -0.002961 0.032323 0.000000 0.000000 0.000000
# 4 0.000000 0.000000 0.000000 0.045906 0.000000 0.000000
# 5 0.000000 0.000000 0.000000 0.000000 0.045900 0.000000
# 6 0.000000 0.000000 0.000000 0.000000 0.000000 -0.059703
#
#
# Mechanical properties :
#
#
# Convention : Reuss Voigt Hill
#
# Bulk Modulus (GPa) = 27.24380 38.41179 32.82780
# Shear Modulus (GPa) = 43.92765 18.26318 31.09542
#
# Velocity S-wave (km/s) = 4.31447 2.78193 3.63000
# Velocity P-wave (km/s) = 6.03028 5.15715 5.61072
#
# Compressibility (1/GPa) = 0.03670560
#
# Stress axis : x y z
#
# Youngs Moduli (GPa) = 96.27930 96.27802 30.93806
#
# Poissons Ratio (x) = 0.21879 0.09162
# Poissons Ratio (y) = 0.21879 0.09162
# Poissons Ratio (z) = 0.28511 0.28511
#
# Static dielectric constant tensor:
#      x y z
#    x 1.899570 0.000000 0.000000 
#    y 0.000000 1.899560 0.000000 
#    z 0.000000 0.000000 2.035180 
# 
# From -- ./inp_files/11667.got.cif
#   From: 2010.05.17/outbox.cif.g08.bks.cpg/sg142_6_cif.got.tgz:11667.got - 2010.05.20 13:39:18.
