data_PCOD9573323
_publ_section_title
;
Structure prediction by ZEFSAII (Michael W. Deem and Ramdas Pophale) SiO2 
 PCOD9573323
Probable space group: I 41/A M D
;
_chemical_formula_sum "Si O2"
_cell_formula_units_Z 160
_cell_length_a 17.180753
_cell_length_b 17.180753
_cell_length_c 25.860732
_cell_angle_alpha 90.000000
_cell_angle_beta 90.000000
_cell_angle_gamma 90.000000
_cell_volume 7633.526227
_symmetry_space_group_name_H-M "I 41/A M D"
_symmetry_group_IT_number 141
_space_group.IT_coordinate_system_code '2'
_symmetry_cell_setting 'tetragonal'
loop_
_space_group_symop_operation_xyz
x,y,z
1/4-y,3/4+x,1/4+z
-x,1/2-y,z
1/4+y,1/4-x,3/4+z
x,-y,-z
-x,1/2+y,-z
1/4+y,3/4+x,1/4-z
1/4-y,1/4-x,3/4-z
-x,-y,-z
3/4+y,1/4-x,3/4-z
x,1/2+y,-z
3/4-y,3/4+x,1/4-z
-x,y,z
x,1/2-y,z
3/4-y,1/4-x,3/4+z
3/4+y,3/4+x,1/4+z
1/2+x,1/2+y,1/2+z
3/4-y,1/4+x,3/4+z
1/2-x,-y,1/2+z
3/4+y,3/4-x,1/4+z
1/2+x,1/2-y,1/2-z
1/2-x,y,1/2-z
3/4+y,1/4+x,3/4-z
3/4-y,3/4-x,1/4-z
1/2-x,1/2-y,1/2-z
1/4+y,3/4-x,1/4-z
1/2+x,y,1/2-z
1/4-y,1/4+x,3/4-z
1/2-x,1/2+y,1/2+z
1/2+x,-y,1/2+z
1/4-y,3/4-x,1/4+z
1/4+y,1/4+x,3/4+z
loop_
_atom_site_type_symbol
_atom_site_label
_atom_site_fract_x
_atom_site_fract_y
_atom_site_fract_z
Si Si1 0.663913 0.411876 0.350616
Si Si2 0.500000 0.663660 0.106859
Si Si3 0.328144 0.659895 0.829913
Si Si4 0.832573 0.587643 0.281269
Si Si5 0.000000 0.163319 0.731728
Si Si6 0.406931 0.564027 0.751204
O O1 0.626830 0.327952 0.341266
O O2 0.753975 0.395994 0.339037
O O3 0.641197 0.435498 0.408775
O O4 0.624570 0.460759 0.305128
O O5 0.500000 0.750000 0.085878
O O6 0.500000 0.664464 0.169239
O O7 0.304814 0.750000 0.833648
O O8 0.389276 0.639276 0.875000
O O9 0.368540 0.641180 0.775106
O O10 0.750000 0.591929 0.250000
O O11 0.869073 0.501690 0.287217
O O12 0.911611 0.629421 0.258131
O O13 0.000000 0.250000 0.753132
O O14 0.500000 0.565076 0.753111
#
# Coordination Sequence:
#
# PCOD9573323 Si02
#       6
#    32  16  32  32  16  32
#     4  11  23  41  65  95 130 174 230 275 334 406
#     4   9  18  36  63  91 129 165 210 281 327 384
#     4  12  25  41  62  92 133 181 228 274 330 405
#     4  11  23  43  71 102 138 177 225 282 342 408
#     4   9  20  40  68  99 133 171 220 281 342 399
#     4  12  26  42  64  95 137 180 223 281 341 400
#
# _framework density 20.960169
#
# number of rings (size 3 to 8) (size 9 to 14) (size 15 to 20)
#    0.000    1.000    4.000    3.000    1.400    3.400 
#    0.000    0.000    0.000    0.000    0.000    0.000 
#    0.000    0.000    0.000    0.000    0.000    0.000 
#
# Total GULP energy -445647.423918 kJ/mol
# GULP energy per Si atom -5570.592799 kJ/mol
# Density = 2.091246 g / cm^3
# Si number density = 20.960169 Si / 1000 Ang^3
#
#
#
# Elastic Constant Matrix: (Units=GPa)
#
#
# Indices 1 2 3 4 5 6 
#
# 1 110.2680 34.2183 15.9843 0.0000 0.0000 0.0000
# 2 34.2183 110.2680 15.9843 0.0000 0.0000 0.0000
# 3 15.9843 15.9843 98.9242 0.0000 0.0000 0.0000
# 4 0.0000 0.0000 0.0000 16.3791 0.0000 0.0000
# 5 0.0000 0.0000 0.0000 0.0000 16.3791 0.0000
# 6 0.0000 0.0000 0.0000 0.0000 0.0000 25.0803
#
#
#
# Elastic Compliance Matrix: (Units=1/GPa)
#
#
# Indices 1 2 3 4 5 6 
#
# 1 0.010163 -0.002986 -0.001160 0.000000 0.000000 0.000000
# 2 -0.002986 0.010163 -0.001160 0.000000 0.000000 0.000000
# 3 -0.001160 -0.001160 0.010484 0.000000 0.000000 0.000000
# 4 0.000000 0.000000 0.000000 0.061053 0.000000 0.000000
# 5 0.000000 0.000000 0.000000 0.000000 0.061053 0.000000
# 6 0.000000 0.000000 0.000000 0.000000 0.000000 0.039872
#
#
# Mechanical properties :
#
#
# Convention : Reuss Voigt Hill
#
# Bulk Modulus (GPa) = 49.50548 50.20380 49.85464
# Shear Modulus (GPa) = 23.79443 28.45258 26.12351
#
# Velocity S-wave (km/s) = 3.37296 3.68837 3.53418
# Velocity P-wave (km/s) = 6.23211 6.49174 6.36325
#
# Compressibility (1/GPa) = 0.02019978
#
# Stress axis : x y z
#
# Youngs Moduli (GPa) = 98.39140 98.39140 95.38754
#
# Poissons Ratio (x) = 0.29378 0.11063
# Poissons Ratio (y) = 0.29378 0.11063
# Poissons Ratio (z) = 0.11411 0.11411
#
# Static dielectric constant tensor:
#      x y z
#    x 1.805380 0.000000 0.000000 
#    y 0.000000 1.805380 0.000000 
#    z 0.000000 0.000000 1.796230 
# 
# From -- ./inp_files/12769.got.cif
#   From: 2010.05.17/outbox.cif.g08.bks.cpg/sg141_7_cif.got.tgz:12769.got - 2010.05.20 13:30:51.
