data_PCOD9573308
_publ_section_title
;
Structure prediction by ZEFSAII (Michael W. Deem and Ramdas Pophale) SiO2 
 PCOD9573308
Probable space group: I 41/A M D
;
_chemical_formula_sum "Si O2"
_cell_formula_units_Z 160
_cell_length_a 21.023921
_cell_length_b 21.023921
_cell_length_c 18.002422
_cell_angle_alpha 90.000000
_cell_angle_beta 90.000000
_cell_angle_gamma 90.000000
_cell_volume 7957.165113
_symmetry_space_group_name_H-M "I 41/A M D"
_symmetry_group_IT_number 141
_space_group.IT_coordinate_system_code '2'
_symmetry_cell_setting 'tetragonal'
loop_
_space_group_symop_operation_xyz
x,y,z
1/4-y,3/4+x,1/4+z
-x,1/2-y,z
1/4+y,1/4-x,3/4+z
x,-y,-z
-x,1/2+y,-z
1/4+y,3/4+x,1/4-z
1/4-y,1/4-x,3/4-z
-x,-y,-z
3/4+y,1/4-x,3/4-z
x,1/2+y,-z
3/4-y,3/4+x,1/4-z
-x,y,z
x,1/2-y,z
3/4-y,1/4-x,3/4+z
3/4+y,3/4+x,1/4+z
1/2+x,1/2+y,1/2+z
3/4-y,1/4+x,3/4+z
1/2-x,-y,1/2+z
3/4+y,3/4-x,1/4+z
1/2+x,1/2-y,1/2-z
1/2-x,y,1/2-z
3/4+y,1/4+x,3/4-z
3/4-y,3/4-x,1/4-z
1/2-x,1/2-y,1/2-z
1/4+y,3/4-x,1/4-z
1/2+x,y,1/2-z
1/4-y,1/4+x,3/4-z
1/2-x,1/2+y,1/2+z
1/2+x,-y,1/2+z
1/4-y,3/4-x,1/4+z
1/4+y,1/4+x,3/4+z
loop_
_atom_site_type_symbol
_atom_site_label
_atom_site_fract_x
_atom_site_fract_y
_atom_site_fract_z
Si Si1 0.671669 0.566761 0.463741
Si Si2 0.188412 0.177234 0.196062
Si Si3 0.570423 0.363544 0.203346
Si Si4 0.642917 0.485598 0.169441
Si Si5 0.428286 0.177367 0.715081
O O1 0.650000 0.500000 0.500000
O O2 0.682350 0.567651 0.375000
O O3 0.738380 0.581608 0.503391
O O4 0.621635 0.622563 0.483360
O O5 0.182663 0.250000 0.170797
O O6 0.250000 0.173312 0.250000
O O7 0.126088 0.158516 0.241955
O O8 0.205488 0.130525 0.129436
O O9 0.577351 0.327351 0.125000
O O10 0.500000 0.355117 0.233883
O O11 0.585268 0.436819 0.182886
O O12 0.695906 0.445906 0.125000
O O13 0.429469 0.179469 0.625000
O O14 0.500000 0.158624 0.739264
O O15 0.416284 0.250000 0.740659
#
# Coordination Sequence:
#
# PCOD9573308 Si02
#       5
#    32  32  32  32  32
#     4  11  25  39  64  95 126 163 212 273 327 372
#     4  11  22  40  64  95 129 170 217 266 322 393
#     4  11  23  39  65  98 133 175 221 272 325 383
#     4  11  24  40  65  89 129 176 222 259 321 399
#     4   8  16  36  63  87 115 156 203 249 308 382
#
# _framework density 20.107664
#
# number of rings (size 3 to 8) (size 9 to 14) (size 15 to 20)
#    0.000    1.600    4.000    2.400    5.600    3.400 
#    0.000    1.000    0.000    0.000    0.000    0.000 
#    0.000    0.000    0.000    0.000    0.000    0.000 
#
# Total GULP energy -446871.931898 kJ/mol
# GULP energy per Si atom -5585.899149 kJ/mol
# Density = 2.006190 g / cm^3
# Si number density = 20.107664 Si / 1000 Ang^3
#
#
#
# Elastic Constant Matrix: (Units=GPa)
#
#
# Indices 1 2 3 4 5 6 
#
# 1 126.7455 64.2723 45.2638 0.0000 0.0000 0.0000
# 2 64.2723 126.7457 45.2641 0.0000 0.0000 0.0000
# 3 45.2638 45.2641 87.8577 0.0000 0.0000 0.0000
# 4 0.0000 0.0000 0.0000 22.4572 0.0000 0.0000
# 5 0.0000 0.0000 0.0000 0.0000 22.4573 0.0000
# 6 0.0000 0.0000 0.0000 0.0000 0.0000 9.7324
#
#
#
# Elastic Compliance Matrix: (Units=1/GPa)
#
#
# Indices 1 2 3 4 5 6 
#
# 1 0.011467 -0.004540 -0.003568 0.000000 0.000000 0.000000
# 2 -0.004540 0.011467 -0.003568 0.000000 0.000000 0.000000
# 3 -0.003568 -0.003568 0.015059 0.000000 0.000000 0.000000
# 4 0.000000 0.000000 0.000000 0.044529 0.000000 0.000000
# 5 0.000000 0.000000 0.000000 0.000000 0.044529 0.000000
# 6 0.000000 0.000000 0.000000 0.000000 0.000000 0.102750
#
#
# Mechanical properties :
#
#
# Convention : Reuss Voigt Hill
#
# Bulk Modulus (GPa) = 68.31600 72.32771 70.32185
# Shear Modulus (GPa) = 19.37734 23.36596 21.37165
#
# Velocity S-wave (km/s) = 3.10769 3.41257 3.26369
# Velocity P-wave (km/s) = 6.85024 7.18163 7.01789
#
# Compressibility (1/GPa) = 0.01463786
#
# Stress axis : x y z
#
# Youngs Moduli (GPa) = 87.21033 87.21025 66.40605
#
# Poissons Ratio (x) = 0.39596 0.23696
# Poissons Ratio (y) = 0.39596 0.23696
# Poissons Ratio (z) = 0.31120 0.31120
#
# Static dielectric constant tensor:
#      x y z
#    x 1.718670 0.000000 0.000000 
#    y 0.000000 1.718670 0.000000 
#    z 0.000000 0.000000 1.728900 
# 
# From -- ./inp_files/8570.got.cif
#   From: 2010.05.17/outbox.cif.g08.bks.cpg/sg141_5_cif.got.tgz:8570.got - 2010.05.20 13:30:51.
