data_PCOD9573248
_publ_section_title
;
Structure prediction by ZEFSAII (Michael W. Deem and Ramdas Pophale) SiO2 
 PCOD9573248
Probable space group: I 41/A M D
;
_chemical_formula_sum "Si O2"
_cell_formula_units_Z 84
_cell_length_a 10.835067
_cell_length_b 10.835067
_cell_length_c 35.255876
_cell_angle_alpha 90.000000
_cell_angle_beta 90.000000
_cell_angle_gamma 90.000000
_cell_volume 4138.993195
_symmetry_space_group_name_H-M "I 41/A M D"
_symmetry_group_IT_number 141
_space_group.IT_coordinate_system_code '2'
_symmetry_cell_setting 'tetragonal'
loop_
_space_group_symop_operation_xyz
x,y,z
1/4-y,3/4+x,1/4+z
-x,1/2-y,z
1/4+y,1/4-x,3/4+z
x,-y,-z
-x,1/2+y,-z
1/4+y,3/4+x,1/4-z
1/4-y,1/4-x,3/4-z
-x,-y,-z
3/4+y,1/4-x,3/4-z
x,1/2+y,-z
3/4-y,3/4+x,1/4-z
-x,y,z
x,1/2-y,z
3/4-y,1/4-x,3/4+z
3/4+y,3/4+x,1/4+z
1/2+x,1/2+y,1/2+z
3/4-y,1/4+x,3/4+z
1/2-x,-y,1/2+z
3/4+y,3/4-x,1/4+z
1/2+x,1/2-y,1/2-z
1/2-x,y,1/2-z
3/4+y,1/4+x,3/4-z
3/4-y,3/4-x,1/4-z
1/2-x,1/2-y,1/2-z
1/4+y,3/4-x,1/4-z
1/2+x,y,1/2-z
1/4-y,1/4+x,3/4-z
1/2-x,1/2+y,1/2+z
1/2+x,-y,1/2+z
1/4-y,3/4-x,1/4+z
1/4+y,1/4+x,3/4+z
loop_
_atom_site_type_symbol
_atom_site_label
_atom_site_fract_x
_atom_site_fract_y
_atom_site_fract_z
Si Si1 0.000000 0.750000 0.125000
Si Si2 0.736095 0.750000 0.084985
Si Si3 0.500000 0.388005 0.030372
Si Si4 0.500000 0.607832 0.581275
Si Si5 0.755861 0.000983 0.295118
O O1 0.121677 0.750000 0.099232
O O2 0.657959 0.750000 0.123456
O O3 0.714571 0.628561 0.060578
O O4 0.500000 0.250000 0.013913
O O5 0.370568 0.407923 0.052082
O O6 0.500000 0.500000 0.000000
O O7 0.500000 0.750000 0.570065
O O8 0.374878 0.547658 0.565208
O O9 0.750000 0.978487 0.250000
#
# Coordination Sequence:
#
# PCOD9573248 Si02
#       5
#     4  16  16  16  32
#     4  12  20  48  68 100 136 184 232 284 372 432
#     4  12  24  45  70 100 139 189 232 292 365 430
#     4  10  24  42  68 102 143 182 229 288 364 426
#     4  12  25  42  69 100 139 180 244 296 360 424
#     4  11  25  43  72 102 140 184 237 297 358 435
#
# _framework density 20.294791
#
# number of rings (size 3 to 8) (size 9 to 14) (size 15 to 20)
#    0.000    0.762    3.810    1.714   16.000    0.000 
#    0.000    0.000    0.000    0.000    0.000    0.000 
#    0.000    0.000    0.000    0.000    0.000    0.000 
#
# Total GULP energy -234752.003426 kJ/mol
# GULP energy per Si atom -5589.333415 kJ/mol
# Density = 2.024860 g / cm^3
# Si number density = 20.294791 Si / 1000 Ang^3
#
#
#
# Elastic Constant Matrix: (Units=GPa)
#
#
# Indices 1 2 3 4 5 6 
#
# 1 165.6455 27.7470 34.5731 0.0000 0.0000 0.0000
# 2 27.7470 165.6455 34.5731 0.0000 0.0000 0.0000
# 3 34.5731 34.5731 113.6771 0.0000 0.0000 0.0000
# 4 0.0000 0.0000 0.0000 18.1139 0.0000 0.0000
# 5 0.0000 0.0000 0.0000 0.0000 18.1139 0.0000
# 6 0.0000 0.0000 0.0000 0.0000 0.0000 28.3312
#
#
#
# Elastic Compliance Matrix: (Units=1/GPa)
#
#
# Indices 1 2 3 4 5 6 
#
# 1 0.006527 -0.000725 -0.001765 0.000000 0.000000 0.000000
# 2 -0.000725 0.006527 -0.001765 0.000000 0.000000 0.000000
# 3 -0.001765 -0.001765 0.009870 0.000000 0.000000 0.000000
# 4 0.000000 0.000000 0.000000 0.055206 0.000000 0.000000
# 5 0.000000 0.000000 0.000000 0.000000 0.055206 0.000000
# 6 0.000000 0.000000 0.000000 0.000000 0.000000 0.035297
#
#
# Mechanical properties :
#
#
# Convention : Reuss Voigt Hill
#
# Bulk Modulus (GPa) = 69.36945 70.97271 70.17108
# Shear Modulus (GPa) = 27.48065 36.11677 31.79871
#
# Velocity S-wave (km/s) = 3.68377 4.22312 3.96263
# Velocity P-wave (km/s) = 7.23524 7.66984 7.45570
#
# Compressibility (1/GPa) = 0.01441557
#
# Stress axis : x y z
#
# Youngs Moduli (GPa) = 153.21642 153.21642 101.31570
#
# Poissons Ratio (x) = 0.11108 0.17877
# Poissons Ratio (y) = 0.11108 0.17877
# Poissons Ratio (z) = 0.27035 0.27035
#
# Static dielectric constant tensor:
#      x y z
#    x 1.728610 0.000000 0.000000 
#    y 0.000000 1.728610 0.000000 
#    z 0.000000 0.000000 1.690600 
# 
# From -- ./inp_files/13785.got.cif
#   From: 2010.05.17/outbox.cif.g08.bks.cpg/sg141_7_cif.got.tgz:13785.got - 2010.05.20 13:30:51.
