data_PCOD9573580
_publ_section_title
;
Structure prediction by ZEFSAII (Michael W. Deem and Ramdas Pophale) SiO2 
 PCOD9573580
Probable space group: I 41/A C D
;
_chemical_formula_sum "Si O2"
_cell_formula_units_Z 160
_cell_length_a 23.980753
_cell_length_b 23.980753
_cell_length_c 15.930426
_cell_angle_alpha 90.000000
_cell_angle_beta 90.000000
_cell_angle_gamma 90.000000
_cell_volume 9161.213858
_symmetry_space_group_name_H-M "I 41/A C D"
_symmetry_group_IT_number 142
_space_group.IT_coordinate_system_code '2'
_symmetry_cell_setting 'tetragonal'
loop_
_space_group_symop_operation_xyz
x,y,z
1/4-y,3/4+x,1/4+z
-x,1/2-y,z
1/4+y,1/4-x,3/4+z
x,-y,1/2-z
1/2-x,y,-z
3/4+y,1/4+x,1/4-z
1/4-y,1/4-x,1/4-z
-x,-y,-z
3/4+y,1/4-x,3/4-z
x,1/2+y,-z
3/4-y,3/4+x,1/4-z
-x,y,1/2+z
1/2+x,-y,z
1/4-y,3/4-x,3/4+z
3/4+y,3/4+x,3/4+z
1/2+x,1/2+y,1/2+z
3/4-y,1/4+x,3/4+z
1/2-x,-y,1/2+z
3/4+y,3/4-x,1/4+z
1/2+x,1/2-y,-z
-x,1/2+y,1/2-z
1/4+y,3/4+x,3/4-z
3/4-y,3/4-x,3/4-z
1/2-x,1/2-y,1/2-z
1/4+y,3/4-x,1/4-z
1/2+x,y,1/2-z
1/4-y,1/4+x,3/4-z
1/2-x,1/2+y,z
x,1/2-y,1/2+z
3/4-y,1/4-x,1/4+z
1/4+y,1/4+x,1/4+z
loop_
_atom_site_type_symbol
_atom_site_label
_atom_site_fract_x
_atom_site_fract_y
_atom_site_fract_z
Si Si1 0.247946 0.343191 0.656304
Si Si2 0.084979 0.387505 0.699662
Si Si3 0.502944 0.444208 0.198887
Si Si4 0.903258 0.567634 0.567523
Si Si5 0.714462 0.952654 0.417081
O O1 0.196634 0.354381 0.591488
O O2 0.286333 0.297760 0.611534
O O3 0.219497 0.321932 0.741908
O O4 0.279981 0.400073 0.677650
O O5 0.092901 0.342901 0.625000
O O6 0.126402 0.368995 0.773359
O O7 0.024112 0.400136 0.736644
O O8 0.520099 0.500000 0.250000
O O9 0.552654 0.422812 0.141158
O O10 0.850420 0.535967 0.606472
O O11 0.750000 0.939737 0.500000
O O12 0.745328 0.004673 0.375000
#
# Coordination Sequence:
#
# PCOD9573580 Si02
#       5
#    32  32  32  32  32
#     4  10  20  34  53  80 111 150 184 223 268 343
#     4   9  19  34  57  80 102 141 194 232 269 321
#     4  10  20  35  55  78 113 148 188 233 279 336
#     4  11  20  34  52  79 112 149 186 228 282 332
#     4  12  22  31  49  80 118 148 177 220 279 343
#
# _framework density 17.464934
#
# number of rings (size 3 to 8) (size 9 to 14) (size 15 to 20)
#    0.000    1.600    4.000    3.000    0.000    0.000 
#    0.000    0.000    0.000    0.600    0.000    4.200 
#    0.000    0.000    0.000    0.000    0.000    0.000 
#
# Total GULP energy -446202.908157 kJ/mol
# GULP energy per Si atom -5577.536352 kJ/mol
# Density = 1.742518 g / cm^3
# Si number density = 17.464934 Si / 1000 Ang^3
#
#
#
# Elastic Constant Matrix: (Units=GPa)
#
#
# Indices 1 2 3 4 5 6 
#
# 1 37.5186 16.1966 19.6681 0.0000 0.0000 0.0000
# 2 16.1966 37.5160 19.6696 0.0000 0.0000 0.0000
# 3 19.6681 19.6696 80.8113 0.0000 0.0000 0.0000
# 4 0.0000 0.0000 0.0000 32.9962 0.0000 0.0000
# 5 0.0000 0.0000 0.0000 0.0000 32.9967 0.0000
# 6 0.0000 0.0000 0.0000 0.0000 0.0000 9.2930
#
#
#
# Elastic Compliance Matrix: (Units=1/GPa)
#
#
# Indices 1 2 3 4 5 6 
#
# 1 0.034777 -0.012124 -0.005513 0.000000 0.000000 0.000000
# 2 -0.012124 0.034781 -0.005515 0.000000 0.000000 0.000000
# 3 -0.005513 -0.005515 0.015059 0.000000 0.000000 0.000000
# 4 0.000000 0.000000 0.000000 0.030307 0.000000 0.000000
# 5 0.000000 0.000000 0.000000 0.000000 0.030306 0.000000
# 6 0.000000 0.000000 0.000000 0.000000 0.000000 0.107608
#
#
# Mechanical properties :
#
#
# Convention : Reuss Voigt Hill
#
# Bulk Modulus (GPa) = 26.10079 29.65717 27.87898
# Shear Modulus (GPa) = 16.03015 21.74463 18.88739
#
# Velocity S-wave (km/s) = 3.03289 3.53235 3.29210
# Velocity P-wave (km/s) = 5.21935 5.80125 5.51798
#
# Compressibility (1/GPa) = 0.03831301
#
# Stress axis : x y z
#
# Youngs Moduli (GPa) = 28.75438 28.75137 66.40668
#
# Poissons Ratio (x) = 0.34857 0.36612
# Poissons Ratio (y) = 0.34861 0.36624
# Poissons Ratio (z) = 0.15853 0.15857
#
# Static dielectric constant tensor:
#      x y z
#    x 1.581390 0.000000 0.000000 
#    y 0.000000 1.581400 0.000000 
#    z 0.000000 0.000000 1.640620 
# 
# From -- ./inp_files/5387.got.cif
#   From: 2010.05.17/outbox.cif.g08.bks.cpg/sg142_3_cif.got.tgz:5387.got - 2010.05.20 13:39:18.
