data_PCOD9573735
_publ_section_title
;
Structure prediction by ZEFSAII (Michael W. Deem and Ramdas Pophale) SiO2 
 PCOD9573735
Probable space group: I 41/A C D
;
_chemical_formula_sum "Si O2"
_cell_formula_units_Z 176
_cell_length_a 18.446820
_cell_length_b 18.446820
_cell_length_c 25.359227
_cell_angle_alpha 90.000000
_cell_angle_beta 90.000000
_cell_angle_gamma 90.000000
_cell_volume 8629.368823
_symmetry_space_group_name_H-M "I 41/A C D"
_symmetry_group_IT_number 142
_space_group.IT_coordinate_system_code '2'
_symmetry_cell_setting 'tetragonal'
loop_
_space_group_symop_operation_xyz
x,y,z
1/4-y,3/4+x,1/4+z
-x,1/2-y,z
1/4+y,1/4-x,3/4+z
x,-y,1/2-z
1/2-x,y,-z
3/4+y,1/4+x,1/4-z
1/4-y,1/4-x,1/4-z
-x,-y,-z
3/4+y,1/4-x,3/4-z
x,1/2+y,-z
3/4-y,3/4+x,1/4-z
-x,y,1/2+z
1/2+x,-y,z
1/4-y,3/4-x,3/4+z
3/4+y,3/4+x,3/4+z
1/2+x,1/2+y,1/2+z
3/4-y,1/4+x,3/4+z
1/2-x,-y,1/2+z
3/4+y,3/4-x,1/4+z
1/2+x,1/2-y,-z
-x,1/2+y,1/2-z
1/4+y,3/4+x,3/4-z
3/4-y,3/4-x,3/4-z
1/2-x,1/2-y,1/2-z
1/4+y,3/4-x,1/4-z
1/2+x,y,1/2-z
1/4-y,1/4+x,3/4-z
1/2-x,1/2+y,z
x,1/2-y,1/2+z
3/4-y,1/4-x,1/4+z
1/4+y,1/4+x,1/4+z
loop_
_atom_site_type_symbol
_atom_site_label
_atom_site_fract_x
_atom_site_fract_y
_atom_site_fract_z
Si Si1 0.031029 0.997559 0.117612
Si Si2 0.360903 0.487972 0.911983
Si Si3 0.192694 0.185757 0.759642
Si Si4 0.616592 0.436923 0.707527
Si Si5 0.066920 0.211316 0.237857
Si Si6 0.410908 0.160908 0.875000
O O1 0.068663 0.947791 0.072443
O O2 0.047797 0.962578 0.173813
O O3 0.069937 0.076329 0.116003
O O4 0.944654 0.005107 0.107675
O O5 0.315871 0.434130 0.875000
O O6 0.323579 0.565956 0.918110
O O7 0.368182 0.461571 0.973080
O O8 0.250000 0.250000 0.750000
O O9 0.121693 0.222008 0.736660
O O10 0.632078 0.500000 0.750000
O O11 0.600661 0.358994 0.734044
O O12 0.049801 0.185583 0.178513
O O13 0.000000 0.250000 0.265959
#
# Coordination Sequence:
#
# PCOD9573735 Si02
#       6
#    32  32  32  32  32  16
#     4  11  24  42  71  98 139 180 232 284 352 418
#     4  11  25  44  71 103 137 184 234 285 347 421
#     4  10  20  45  66  92 138 179 219 283 348 408
#     4  12  26  46  68 102 144 184 232 285 351 430
#     4  12  25  42  70 105 135 179 230 285 357 411
#     4  12  21  40  74 102 126 170 230 303 340 398
#
# _framework density 20.395465999999999
#
# number of rings (size 3 to 8) (size 9 to 14) (size 15 to 20)
#    0.000    0.727    9.091    0.273    3.818    1.455 
#    0.000    0.909    0.000    0.000    0.000    0.000 
#    0.000    0.000    0.000    0.000    0.000    0.000 
#
# Total GULP energy -490746.628040 kJ/mol
# GULP energy per Si atom -5576.666228 kJ/mol
# Density = 2.034905 g / cm^3
# Si number density = 20.395466 Si / 1000 Ang^3
#
#
#
# Elastic Constant Matrix: (Units=GPa)
#
#
# Indices 1 2 3 4 5 6 
#
# 1 62.0607 30.8195 26.7601 0.0000 0.0000 0.0000
# 2 30.8195 62.0618 26.7611 0.0000 0.0000 0.0000
# 3 26.7601 26.7611 94.1651 0.0000 0.0000 0.0000
# 4 0.0000 0.0000 0.0000 29.5182 0.0000 0.0000
# 5 0.0000 0.0000 0.0000 0.0000 29.5179 0.0000
# 6 0.0000 0.0000 0.0000 0.0000 0.0000 32.9778
#
#
#
# Elastic Compliance Matrix: (Units=1/GPa)
#
#
# Indices 1 2 3 4 5 6 
#
# 1 0.022442 -0.009567 -0.003659 0.000000 0.000000 0.000000
# 2 -0.009567 0.022442 -0.003659 0.000000 0.000000 0.000000
# 3 -0.003659 -0.003659 0.012699 0.000000 0.000000 0.000000
# 4 0.000000 0.000000 0.000000 0.033877 0.000000 0.000000
# 5 0.000000 0.000000 0.000000 0.000000 0.033878 0.000000
# 6 0.000000 0.000000 0.000000 0.000000 0.000000 0.030323
#
#
# Mechanical properties :
#
#
# Convention : Reuss Voigt Hill
#
# Bulk Modulus (GPa) = 41.99306 42.99658 42.49482
# Shear Modulus (GPa) = 25.33338 27.33259 26.33298
#
# Velocity S-wave (km/s) = 3.52818 3.66475 3.59711
# Velocity P-wave (km/s) = 6.10176 6.24775 6.17519
#
# Compressibility (1/GPa) = 0.02381346
#
# Stress axis : x y z
#
# Youngs Moduli (GPa) = 44.55975 44.56018 78.74473
#
# Poissons Ratio (x) = 0.42630 0.28811
# Poissons Ratio (y) = 0.42629 0.28813
# Poissons Ratio (z) = 0.16303 0.16305
#
# Static dielectric constant tensor:
#      x y z
#    x 1.687030 0.000000 0.000000 
#    y 0.000000 1.687030 0.000000 
#    z 0.000000 0.000000 1.750920 
# 
# From -- ./inp_files/11447.got.cif
#   From: 2010.05.17/outbox.cif.g08.bks.cpg/sg142_6_cif.got.tgz:11447.got - 2010.05.20 13:39:18.
