data_PCOD9573423
_publ_section_title
;
Structure prediction by ZEFSAII (Michael W. Deem and Ramdas Pophale) SiO2 
 PCOD9573423
Probable space group: I 41/A C D
;
_chemical_formula_sum "Si O2"
_cell_formula_units_Z 136
_cell_length_a 23.362564
_cell_length_b 23.362564
_cell_length_c 11.846571
_cell_angle_alpha 90.000000
_cell_angle_beta 90.000000
_cell_angle_gamma 90.000000
_cell_volume 6465.969770
_symmetry_space_group_name_H-M "I 41/A C D"
_symmetry_group_IT_number 142
_space_group.IT_coordinate_system_code '2'
_symmetry_cell_setting 'tetragonal'
loop_
_space_group_symop_operation_xyz
x,y,z
1/4-y,3/4+x,1/4+z
-x,1/2-y,z
1/4+y,1/4-x,3/4+z
x,-y,1/2-z
1/2-x,y,-z
3/4+y,1/4+x,1/4-z
1/4-y,1/4-x,1/4-z
-x,-y,-z
3/4+y,1/4-x,3/4-z
x,1/2+y,-z
3/4-y,3/4+x,1/4-z
-x,y,1/2+z
1/2+x,-y,z
1/4-y,3/4-x,3/4+z
3/4+y,3/4+x,3/4+z
1/2+x,1/2+y,1/2+z
3/4-y,1/4+x,3/4+z
1/2-x,-y,1/2+z
3/4+y,3/4-x,1/4+z
1/2+x,1/2-y,-z
-x,1/2+y,1/2-z
1/4+y,3/4+x,3/4-z
3/4-y,3/4-x,3/4-z
1/2-x,1/2-y,1/2-z
1/4+y,3/4-x,1/4-z
1/2+x,y,1/2-z
1/4-y,1/4+x,3/4-z
1/2-x,1/2+y,z
x,1/2-y,1/2+z
3/4-y,1/4-x,1/4+z
1/4+y,1/4+x,1/4+z
loop_
_atom_site_type_symbol
_atom_site_label
_atom_site_fract_x
_atom_site_fract_y
_atom_site_fract_z
Si Si1 0.000000 0.250000 0.125000
Si Si2 0.647872 0.102129 0.375000
Si Si3 0.944043 0.061392 0.804661
Si Si4 0.635624 0.481045 0.500635
Si Si5 0.005084 0.165575 0.817827
Si Si6 0.345251 0.000000 0.250000
O O1 0.999018 0.192135 0.195032
O O2 0.596230 0.096512 0.284444
O O3 0.706505 0.104576 0.304067
O O4 0.911397 0.050450 0.922329
O O5 0.000917 0.098361 0.823285
O O6 0.954813 0.000000 0.750000
O O7 0.622178 0.488690 0.367849
O O8 0.694397 0.445354 0.513581
O O9 0.948535 0.191332 0.879079
#
# Coordination Sequence:
#
# PCOD9573423 Si02
#       6
#     8  16  32  32  32  16
#     4   8  16  36  68  94 106 160 214 276 292 344
#     4  10  17  30  48  77 115 156 204 240 298 370
#     4  10  20  32  57  91 124 160 202 254 321 374
#     4  10  18  28  47  75 113 164 211 254 293 368
#     4   9  19  38  66  90 116 151 212 262 306 373
#     4  10  18  28  46  68 120 166 214 254 292 356
#
# _framework density 21.033194000000002
#
# number of rings (size 3 to 8) (size 9 to 14) (size 15 to 20)
#    0.000    2.588    2.353    2.118    1.647    0.000 
#    0.000    9.412    2.588   22.588    0.000    0.000 
#    0.000    0.000    0.000    0.000    0.000    0.000 
#
# Total GULP energy -379375.401619 kJ/mol
# GULP energy per Si atom -5579.050024 kJ/mol
# Density = 2.098532 g / cm^3
# Si number density = 21.033194 Si / 1000 Ang^3
#
#
#
# Elastic Constant Matrix: (Units=GPa)
#
#
# Indices 1 2 3 4 5 6 
#
# 1 15.5240 39.7664 14.8813 0.0000 0.0000 0.0000
# 2 39.7664 15.5240 14.8803 0.0000 0.0000 0.0000
# 3 14.8813 14.8803 134.7700 0.0000 0.0000 0.0000
# 4 0.0000 0.0000 0.0000 369.7124 0.0000 0.0000
# 5 0.0000 0.0000 0.0000 0.0000 369.4976 0.0000
# 6 0.0000 0.0000 0.0000 0.0000 0.0000 34.7007
#
#
#
# Elastic Compliance Matrix: (Units=1/GPa)
#
#
# Indices 1 2 3 4 5 6 
#
# 1 -0.011010 0.030240 -0.002123 0.000000 0.000000 0.000000
# 2 0.030240 -0.011010 -0.002123 0.000000 0.000000 0.000000
# 3 -0.002123 -0.002123 0.007889 0.000000 0.000000 0.000000
# 4 0.000000 0.000000 0.000000 0.002705 0.000000 0.000000
# 5 0.000000 0.000000 0.000000 0.000000 0.002706 0.000000
# 6 0.000000 0.000000 0.000000 0.000000 0.000000 0.028818
#
#
# Mechanical properties :
#
#
# Convention : Reuss Voigt Hill
#
# Bulk Modulus (GPa) = 26.41696 33.87489 30.14593
# Shear Modulus (GPa) = -259.45524 161.20149 -49.12687
#
# Velocity S-wave (km/s) = -11.11858 8.76401 -4.83813
# Velocity P-wave (km/s) = 12.33871 10.88811 4.10443
#
# Compressibility (1/GPa) = 0.03785446
#
# Stress axis : x y z
#
# Youngs Moduli (GPa) = -90.82250 -90.82350 126.75997
#
# Poissons Ratio (x) = 2.74647 0.26912
# Poissons Ratio (y) = 2.74644 0.26916
# Poissons Ratio (z) = -0.19282 -0.19285
#
# Static dielectric constant tensor:
#      x y z
#    x 1.733800 0.000000 0.000000 
#    y 0.000000 1.733810 0.000000 
#    z 0.000000 0.000000 1.799770 
# 
# From -- ./inp_files/3676.got.cif
#   From: 2010.05.17/outbox.cif.g08.bks.cpg/sg142_2_cif.got.tgz:3676.got - 2010.05.20 13:39:18.
