data_PCOD9573309
_publ_section_title
;
Structure prediction by ZEFSAII (Michael W. Deem and Ramdas Pophale) SiO2 
 PCOD9573309
Probable space group: I 41/A M D
;
_chemical_formula_sum "Si O2"
_cell_formula_units_Z 136
_cell_length_a 17.772085
_cell_length_b 17.772085
_cell_length_c 18.743152
_cell_angle_alpha 90.000000
_cell_angle_beta 90.000000
_cell_angle_gamma 90.000000
_cell_volume 5919.968428
_symmetry_space_group_name_H-M "I 41/A M D"
_symmetry_group_IT_number 141
_space_group.IT_coordinate_system_code '2'
_symmetry_cell_setting 'tetragonal'
loop_
_space_group_symop_operation_xyz
x,y,z
1/4-y,3/4+x,1/4+z
-x,1/2-y,z
1/4+y,1/4-x,3/4+z
x,-y,-z
-x,1/2+y,-z
1/4+y,3/4+x,1/4-z
1/4-y,1/4-x,3/4-z
-x,-y,-z
3/4+y,1/4-x,3/4-z
x,1/2+y,-z
3/4-y,3/4+x,1/4-z
-x,y,z
x,1/2-y,z
3/4-y,1/4-x,3/4+z
3/4+y,3/4+x,1/4+z
1/2+x,1/2+y,1/2+z
3/4-y,1/4+x,3/4+z
1/2-x,-y,1/2+z
3/4+y,3/4-x,1/4+z
1/2+x,1/2-y,1/2-z
1/2-x,y,1/2-z
3/4+y,1/4+x,3/4-z
3/4-y,3/4-x,1/4-z
1/2-x,1/2-y,1/2-z
1/4+y,3/4-x,1/4-z
1/2+x,y,1/2-z
1/4-y,1/4+x,3/4-z
1/2-x,1/2+y,1/2+z
1/2+x,-y,1/2+z
1/4-y,3/4-x,1/4+z
1/4+y,1/4+x,3/4+z
loop_
_atom_site_type_symbol
_atom_site_label
_atom_site_fract_x
_atom_site_fract_y
_atom_site_fract_z
Si Si1 0.000000 0.250000 0.095417
Si Si2 0.109024 0.111644 0.061789
Si Si3 0.677644 0.977842 0.796556
Si Si4 0.583790 0.663290 0.962073
Si Si5 0.418832 0.553845 0.403383
O O1 0.934921 0.316841 0.090040
O O2 0.198462 0.123710 0.053744
O O3 0.095110 0.034618 0.105312
O O4 0.079205 0.083881 0.984627
O O5 0.750000 0.998945 0.750000
O O6 0.705467 0.955467 0.875000
O O7 0.636549 0.904180 0.765338
O O8 0.585234 0.664767 0.875000
O O9 0.500000 0.636502 0.983403
O O10 0.590326 0.750000 0.986285
O O11 0.500000 0.573535 0.370292
O O12 0.348684 0.598684 0.375000
#
# Coordination Sequence:
#
# PCOD9573309 Si02
#       5
#     8  32  32  32  32
#     4  12  24  42  65  88 134 182 209 272 344 402
#     4  11  23  41  61  93 133 172 216 277 345 388
#     4  11  23  40  69  97 129 178 225 273 338 405
#     4   8  16  34  60  92 130 169 217 277 330 392
#     4  11  22  40  65  94 131 169 226 283 327 398
#
# _framework density 22.973095000000001
#
# number of rings (size 3 to 8) (size 9 to 14) (size 15 to 20)
#    0.000    1.647    4.706    2.118    3.294    0.706 
#    0.000    0.000    2.588    0.000    0.000    0.000 
#    0.000    0.000    0.000    0.000    0.000    0.000 
#
# Total GULP energy -379126.700511 kJ/mol
# GULP energy per Si atom -5575.392655 kJ/mol
# Density = 2.292081 g / cm^3
# Si number density = 22.973095 Si / 1000 Ang^3
#
#
#
# Elastic Constant Matrix: (Units=GPa)
#
#
# Indices 1 2 3 4 5 6 
#
# 1 191.3310 88.1749 9.9105 0.0000 0.0000 0.0000
# 2 88.1749 191.3310 9.9105 0.0000 0.0000 0.0000
# 3 9.9105 9.9105 42.2559 0.0000 0.0000 0.0000
# 4 0.0000 0.0000 0.0000 -0.1995 0.0000 0.0000
# 5 0.0000 0.0000 0.0000 0.0000 -0.1994 0.0000
# 6 0.0000 0.0000 0.0000 0.0000 0.0000 64.1750
#
#
#
# Elastic Compliance Matrix: (Units=1/GPa)
#
#
# Indices 1 2 3 4 5 6 
#
# 1 0.006666 -0.003028 -0.000853 0.000000 0.000000 0.000000
# 2 -0.003028 0.006666 -0.000853 0.000000 0.000000 0.000000
# 3 -0.000853 -0.000853 0.024066 0.000000 0.000000 0.000000
# 4 0.000000 0.000000 0.000000 -5.012311 -0.000070 0.000000
# 5 0.000000 0.000000 0.000000 -0.000070 -5.014069 0.000000
# 6 0.000000 0.000000 0.000000 0.000000 0.000000 0.015582
#
#
# Mechanical properties :
#
#
# Convention : Reuss Voigt Hill
#
# Bulk Modulus (GPa) = 35.80518 71.21219 53.50868
# Shear Modulus (GPa) = -0.50228 33.88334 16.69053
#
# Velocity S-wave (km/s) = -0.46809 3.84463 2.69834
# Velocity P-wave (km/s) = 3.91502 7.12556 5.74896
#
# Compressibility (1/GPa) = 0.02792892
#
# Stress axis : x y z
#
# Youngs Moduli (GPa) = 150.01163 150.01163 41.55305
#
# Poissons Ratio (x) = 0.45422 0.03546
# Poissons Ratio (y) = 0.45422 0.03546
# Poissons Ratio (z) = 0.12800 0.12801
#
# Static dielectric constant tensor:
#      x y z
#    x 1.840720 0.000000 0.000000 
#    y 0.000000 1.840730 0.000000 
#    z 0.000000 0.000000 1.961320 
# 
# From -- ./inp_files/11419.got.cif
#   From: 2010.05.17/outbox.cif.g08.bks.cpg/sg141_6_cif.got.tgz:11419.got - 2010.05.20 13:30:51.
