data_PCOD9573215
_publ_section_title
;
Structure prediction by ZEFSAII (Michael W. Deem and Ramdas Pophale) SiO2 
 PCOD9573215
Probable space group: I 41/A M D
;
_chemical_formula_sum "Si O2"
_cell_formula_units_Z 160
_cell_length_a 18.004198
_cell_length_b 18.004198
_cell_length_c 24.962149
_cell_angle_alpha 90.000000
_cell_angle_beta 90.000000
_cell_angle_gamma 90.000000
_cell_volume 8091.509196
_symmetry_space_group_name_H-M "I 41/A M D"
_symmetry_group_IT_number 141
_space_group.IT_coordinate_system_code '2'
_symmetry_cell_setting 'tetragonal'
loop_
_space_group_symop_operation_xyz
x,y,z
1/4-y,3/4+x,1/4+z
-x,1/2-y,z
1/4+y,1/4-x,3/4+z
x,-y,-z
-x,1/2+y,-z
1/4+y,3/4+x,1/4-z
1/4-y,1/4-x,3/4-z
-x,-y,-z
3/4+y,1/4-x,3/4-z
x,1/2+y,-z
3/4-y,3/4+x,1/4-z
-x,y,z
x,1/2-y,z
3/4-y,1/4-x,3/4+z
3/4+y,3/4+x,1/4+z
1/2+x,1/2+y,1/2+z
3/4-y,1/4+x,3/4+z
1/2-x,-y,1/2+z
3/4+y,3/4-x,1/4+z
1/2+x,1/2-y,1/2-z
1/2-x,y,1/2-z
3/4+y,1/4+x,3/4-z
3/4-y,3/4-x,1/4-z
1/2-x,1/2-y,1/2-z
1/4+y,3/4-x,1/4-z
1/2+x,y,1/2-z
1/4-y,1/4+x,3/4-z
1/2-x,1/2+y,1/2+z
1/2+x,-y,1/2+z
1/4-y,3/4-x,1/4+z
1/4+y,1/4+x,3/4+z
loop_
_atom_site_type_symbol
_atom_site_label
_atom_site_fract_x
_atom_site_fract_y
_atom_site_fract_z
Si Si1 0.586756 0.076755 0.170600
Si Si2 0.088290 0.908285 0.292030
Si Si3 0.851445 0.335682 0.608515
Si Si4 0.178771 0.338145 0.918730
Si Si5 0.334058 0.163227 0.261724
O O1 0.500000 0.087795 0.156654
O O2 0.639404 0.110597 0.125000
O O3 0.608161 0.119687 0.224755
O O4 0.598860 0.990310 0.182950
O O5 0.132820 0.852344 0.329555
O O6 0.110769 0.910509 0.229786
O O7 0.000000 0.891702 0.294329
O O8 0.869610 0.250000 0.596109
O O9 0.766057 0.349097 0.592785
O O10 0.900239 0.391081 0.572518
O O11 0.164227 0.250000 0.914409
O O12 0.132101 0.382101 0.875000
O O13 0.336519 0.250000 0.248390
O O14 0.250000 0.136858 0.250000
#
# Coordination Sequence:
#
# PCOD9573215 Si02
#       5
#    32  32  32  32  32
#     4  11  22  38  59  87 125 166 209 256 303 363
#     4  10  22  42  63  88 127 166 204 257 316 373
#     4  11  23  41  64  93 127 164 211 262 312 373
#     4  10  23  44  66  91 125 162 205 261 321 378
#     4  11  23  38  58  88 125 167 212 257 309 371
#
# _framework density 19.773814999999999
#
# number of rings (size 3 to 8) (size 9 to 14) (size 15 to 20)
#    0.000    1.400    2.000    3.000    0.000   11.200 
#    0.000    4.000    0.000    0.000    0.000    0.000 
#    0.000    0.000    0.000    0.000    0.000    0.000 
#
# Total GULP energy -447233.384540 kJ/mol
# GULP energy per Si atom -5590.417307 kJ/mol
# Density = 1.972881 g / cm^3
# Si number density = 19.773815 Si / 1000 Ang^3
#
#
#
# Elastic Constant Matrix: (Units=GPa)
#
#
# Indices 1 2 3 4 5 6 
#
# 1 38.3200 27.5745 23.7110 0.0000 0.0000 0.0000
# 2 27.5745 38.3206 23.7101 0.0000 0.0000 0.0000
# 3 23.7110 23.7101 127.3362 0.0000 0.0000 0.0000
# 4 0.0000 0.0000 0.0000 41.5416 0.0000 0.0000
# 5 0.0000 0.0000 0.0000 0.0000 41.5390 0.0000
# 6 0.0000 0.0000 0.0000 0.0000 0.0000 27.0421
#
#
#
# Elastic Compliance Matrix: (Units=1/GPa)
#
#
# Indices 1 2 3 4 5 6 
#
# 1 0.055292 -0.037768 -0.003264 0.000000 0.000000 0.000000
# 2 -0.037768 0.055291 -0.003263 0.000000 0.000000 0.000000
# 3 -0.003264 -0.003263 0.009068 0.000000 0.000000 0.000000
# 4 0.000000 0.000000 0.000000 0.024072 0.000000 0.000000
# 5 0.000000 0.000000 0.000000 0.000000 0.024074 0.000000
# 6 0.000000 0.000000 0.000000 0.000000 0.000000 0.036979
#
#
# Mechanical properties :
#
#
# Convention : Reuss Voigt Hill
#
# Bulk Modulus (GPa) = 32.19144 39.32978 35.76061
# Shear Modulus (GPa) = 16.46257 30.62328 23.54292
#
# Velocity S-wave (km/s) = 2.88851 3.93959 3.45427
# Velocity P-wave (km/s) = 5.23831 6.37392 5.83381
#
# Compressibility (1/GPa) = 0.03106416
#
# Stress axis : x y z
#
# Youngs Moduli (GPa) = 18.08567 18.08617 110.27287
#
# Poissons Ratio (x) = 0.68307 0.35988
# Poissons Ratio (y) = 0.68305 0.35977
# Poissons Ratio (z) = 0.05902 0.05901
#
# Static dielectric constant tensor:
#      x y z
#    x 1.674750 0.000000 0.000000 
#    y 0.000000 1.674750 0.000000 
#    z 0.000000 0.000000 1.724310 
# 
# From -- ./inp_files/12682.got.cif
#   From: 2010.05.17/outbox.cif.g08.bks.cpg/sg141_7_cif.got.tgz:12682.got - 2010.05.20 13:30:51.
