data_PCOD9573123
_publ_section_title
;
Structure prediction by ZEFSAII (Michael W. Deem and Ramdas Pophale) SiO2 
 PCOD9573123
Probable space group: I 41/A M D
;
_chemical_formula_sum "Si O2"
_cell_formula_units_Z 160
_cell_length_a 27.231447
_cell_length_b 27.231447
_cell_length_c 12.226515
_cell_angle_alpha 90.000000
_cell_angle_beta 90.000000
_cell_angle_gamma 90.000000
_cell_volume 9066.593053
_symmetry_space_group_name_H-M "I 41/A M D"
_symmetry_group_IT_number 141
_space_group.IT_coordinate_system_code '2'
_symmetry_cell_setting 'tetragonal'
loop_
_space_group_symop_operation_xyz
x,y,z
1/4-y,3/4+x,1/4+z
-x,1/2-y,z
1/4+y,1/4-x,3/4+z
x,-y,-z
-x,1/2+y,-z
1/4+y,3/4+x,1/4-z
1/4-y,1/4-x,3/4-z
-x,-y,-z
3/4+y,1/4-x,3/4-z
x,1/2+y,-z
3/4-y,3/4+x,1/4-z
-x,y,z
x,1/2-y,z
3/4-y,1/4-x,3/4+z
3/4+y,3/4+x,1/4+z
1/2+x,1/2+y,1/2+z
3/4-y,1/4+x,3/4+z
1/2-x,-y,1/2+z
3/4+y,3/4-x,1/4+z
1/2+x,1/2-y,1/2-z
1/2-x,y,1/2-z
3/4+y,1/4+x,3/4-z
3/4-y,3/4-x,1/4-z
1/2-x,1/2-y,1/2-z
1/4+y,3/4-x,1/4-z
1/2+x,y,1/2-z
1/4-y,1/4+x,3/4-z
1/2-x,1/2+y,1/2+z
1/2+x,-y,1/2+z
1/4-y,3/4-x,1/4+z
1/4+y,1/4+x,3/4+z
loop_
_atom_site_type_symbol
_atom_site_label
_atom_site_fract_x
_atom_site_fract_y
_atom_site_fract_z
Si Si1 0.677125 0.250000 0.934840
Si Si2 0.394949 0.577034 0.173328
Si Si3 0.765654 0.906599 0.625642
Si Si4 0.359920 0.352332 0.022408
Si Si5 0.856761 0.750000 0.191538
Si Si6 0.711643 0.750000 0.523576
Si Si7 0.099877 0.650124 0.125000
O O1 0.674351 0.250000 0.803078
O O2 0.650091 0.200919 0.974727
O O3 0.731706 0.250000 0.986387
O O4 0.355155 0.533892 0.187984
O O5 0.449534 0.552960 0.163817
O O6 0.394761 0.610123 0.280591
O O7 0.379746 0.610653 0.070418
O O8 0.750000 0.893759 0.750000
O O9 0.789040 0.960961 0.625000
O O10 0.808745 0.873482 0.572952
O O11 0.396604 0.353396 0.125000
O O12 0.890943 0.797588 0.180882
O O13 0.820313 0.750000 0.087848
#
# Coordination Sequence:
#
# PCOD9573123 Si02
#       7
#    16  32  32  32  16  16  16
#     4  12  21  39  67  92 123 167 207 257 325 359
#     4  11  21  42  58  93 126 163 211 261 313 368
#     4  11  21  39  61  82 124 168 209 255 303 371
#     4  11  23  39  63  90 128 161 203 265 313 376
#     4  10  21  39  62  95 124 161 207 259 317 373
#     4  10  23  35  67  93 121 162 220 263 300 375
#     4  10  22  39  64  90 130 160 204 264 312 384
#
# _framework density 17.647203000000001
#
# number of rings (size 3 to 8) (size 9 to 14) (size 15 to 20)
#    0.000    1.200    8.000    0.300    0.000    1.000 
#    1.800    3.000    0.000    2.100    0.000    0.000 
#    0.000    0.000    0.000    0.000    0.000    0.000 
#
# Total GULP energy -446011.465596 kJ/mol
# GULP energy per Si atom -5575.143320 kJ/mol
# Density = 1.760704 g / cm^3
# Si number density = 17.647203 Si / 1000 Ang^3
#
#
#
# Elastic Constant Matrix: (Units=GPa)
#
#
# Indices 1 2 3 4 5 6 
#
# 1 120.4367 62.1128 38.9018 0.0000 0.0000 0.0000
# 2 62.1128 120.4362 38.9025 0.0000 0.0000 0.0000
# 3 38.9018 38.9025 90.1057 0.0000 0.0000 0.0000
# 4 0.0000 0.0000 0.0000 29.1061 0.0000 0.0000
# 5 0.0000 0.0000 0.0000 0.0000 29.1066 0.0000
# 6 0.0000 0.0000 0.0000 0.0000 0.0000 25.3467
#
#
#
# Elastic Compliance Matrix: (Units=1/GPa)
#
#
# Indices 1 2 3 4 5 6 
#
# 1 0.011929 -0.005216 -0.002898 0.000000 0.000000 0.000000
# 2 -0.005216 0.011930 -0.002898 0.000000 0.000000 0.000000
# 3 -0.002898 -0.002898 0.013601 0.000000 0.000000 0.000000
# 4 0.000000 0.000000 0.000000 0.034357 0.000000 0.000000
# 5 0.000000 0.000000 0.000000 0.000000 0.034357 0.000000
# 6 0.000000 0.000000 0.000000 0.000000 0.000000 0.039453
#
#
# Mechanical properties :
#
#
# Convention : Reuss Voigt Hill
#
# Bulk Modulus (GPa) = 64.79284 67.86807 66.33046
# Shear Modulus (GPa) = 28.93572 29.44930 29.19251
#
# Velocity S-wave (km/s) = 4.05369 4.08950 4.07163
# Velocity P-wave (km/s) = 7.66193 7.80003 7.73129
#
# Compressibility (1/GPa) = 0.01543380
#
# Stress axis : x y z
#
# Youngs Moduli (GPa) = 83.82629 83.82538 73.52520
#
# Poissons Ratio (x) = 0.43725 0.21310
# Poissons Ratio (y) = 0.43725 0.21311
# Poissons Ratio (z) = 0.24295 0.24297
#
# Static dielectric constant tensor:
#      x y z
#    x 1.605180 0.000000 0.000000 
#    y 0.000000 1.605190 0.000000 
#    z 0.000000 0.000000 1.605060 
# 
# From -- ./inp_files/4960.got.cif
#   From: 2010.05.17/outbox.cif.g08.bks.cpg/sg141_3_cif.got.tgz:4960.got - 2010.05.20 13:30:51.
