data_PCOD9573389
_publ_section_title
;
Structure prediction by ZEFSAII (Michael W. Deem and Ramdas Pophale) SiO2 
 PCOD9573389
Probable space group: I 41/A M D
;
_chemical_formula_sum "Si O2"
_cell_formula_units_Z 80
_cell_length_a 21.000000
_cell_length_b 21.000000
_cell_length_c 18.000000
_cell_angle_alpha 90.000000
_cell_angle_beta 90.000000
_cell_angle_gamma 90.000000
_cell_volume 7938.000000
_symmetry_space_group_name_H-M "I 41/A M D"
_symmetry_group_IT_number 141
_space_group.IT_coordinate_system_code '2'
_symmetry_cell_setting 'tetragonal'
loop_
_space_group_symop_operation_xyz
x,y,z
1/4-y,3/4+x,1/4+z
-x,1/2-y,z
1/4+y,1/4-x,3/4+z
x,-y,-z
-x,1/2+y,-z
1/4+y,3/4+x,1/4-z
1/4-y,1/4-x,3/4-z
-x,-y,-z
3/4+y,1/4-x,3/4-z
x,1/2+y,-z
3/4-y,3/4+x,1/4-z
-x,y,z
x,1/2-y,z
3/4-y,1/4-x,3/4+z
3/4+y,3/4+x,1/4+z
1/2+x,1/2+y,1/2+z
3/4-y,1/4+x,3/4+z
1/2-x,-y,1/2+z
3/4+y,3/4-x,1/4+z
1/2+x,1/2-y,1/2-z
1/2-x,y,1/2-z
3/4+y,1/4+x,3/4-z
3/4-y,3/4-x,1/4-z
1/2-x,1/2-y,1/2-z
1/4+y,3/4-x,1/4-z
1/2+x,y,1/2-z
1/4-y,1/4+x,3/4-z
1/2-x,1/2+y,1/2+z
1/2+x,-y,1/2+z
1/4-y,3/4-x,1/4+z
1/4+y,1/4+x,3/4+z
loop_
_atom_site_type_symbol
_atom_site_label
_atom_site_fract_x
_atom_site_fract_y
_atom_site_fract_z
Si Si1 0.070586 0.322684 0.785895
Si Si2 0.796083 0.250000 0.320583
Si Si3 0.711040 0.127859 0.077054
Si Si4 0.180353 0.403124 0.712631
Si Si5 0.924685 0.750000 0.772141
Si Si6 0.424722 0.107889 0.320891
O O1 0.079164 0.250000 0.758105
O O2 0.069888 0.319888 0.875000
O O3 0.128165 0.366255 0.761526
O O4 0.000000 0.344831 0.761439
O O5 0.750000 0.250000 0.250000
O O6 0.780544 0.188550 0.369885
O O7 0.870118 0.250000 0.292063
O O8 0.673390 0.076611 0.125000
O O9 0.776159 0.096077 0.050037
O O10 0.669200 0.151019 0.007556
O O11 0.250000 0.402641 0.750000
O O12 0.176748 0.365460 0.634631
O O13 0.915460 0.684675 0.818466
O O14 0.000000 0.750000 0.746906
O O15 0.500000 0.095670 0.329726
#
# Coordination Sequence:
#
# PCOD9573389 Si02
#       6
#    32  16  32  32  16  32
#     4   9  21  44  73 104 137 178 233 295 358 424
#     4  12  24  46  74 104 141 190 239 289 358 433
#     4  12  28  45  70 102 143 189 238 289 354 437
#     4  12  30  45  72  99 144 194 239 300 364 429
#     4  10  22  44  76 110 148 180 231 300 364 432
#     4  11  25  47  72 107 141 181 237 295 364 434
#
# _framework density 10.078105000000001
#
# number of rings (size 3 to 8) (size 9 to 14) (size 15 to 20)
#    0.000    1.000    3.000    2.400    8.400    1.600 
#    1.800    0.000    0.000    0.000    0.000    0.000 
#    0.000    0.000    0.000    0.000    0.000    0.000 
#
# Total GULP energy -447472.945902 kJ/mol
# GULP energy per Si atom -5593.411824 kJ/mol
# Density = 1.005517 g / cm^3
# Si number density = 10.078105 Si / 1000 Ang^3
#
#
#
# Elastic Constant Matrix: (Units=GPa)
#
#
# Indices 1 2 3 4 5 6 
#
# 1 146.2837 106.1098 58.4901 0.0000 0.0000 0.0000
# 2 106.1098 146.2894 58.4910 0.0000 0.0000 0.0000
# 3 58.4901 58.4910 99.8623 0.0000 0.0000 0.0000
# 4 0.0000 0.0000 0.0000 36.9034 0.0000 0.0000
# 5 0.0000 0.0000 0.0000 0.0000 36.9022 0.0000
# 6 0.0000 0.0000 0.0000 0.0000 0.0000 19.4025
#
#
#
# Elastic Compliance Matrix: (Units=1/GPa)
#
#
# Indices 1 2 3 4 5 6 
#
# 1 0.015165 -0.009726 -0.003185 0.000000 0.000000 0.000000
# 2 -0.009726 0.015164 -0.003185 0.000000 0.000000 0.000000
# 3 -0.003185 -0.003185 0.013745 0.000000 0.000000 0.000000
# 4 0.000000 0.000000 0.000000 0.027098 0.000000 0.000000
# 5 0.000000 0.000000 0.000000 0.000000 0.027099 0.000000
# 6 0.000000 0.000000 0.000000 0.000000 0.000000 0.051540
#
#
# Mechanical properties :
#
#
# Convention : Reuss Voigt Hill
#
# Bulk Modulus (GPa) = 84.17077 93.17968 88.67523
# Shear Modulus (GPa) = 26.88711 29.93127 28.40919
#
# Velocity S-wave (km/s) = 3.65627 3.85770 3.75834
# Velocity P-wave (km/s) = 7.72492 8.13460 7.93240
#
# Compressibility (1/GPa) = 0.01188061
#
# Stress axis : x y z
#
# Youngs Moduli (GPa) = 65.94344 65.94619 72.75302
#
# Poissons Ratio (x) = 0.64138 0.23175
# Poissons Ratio (y) = 0.64136 0.23174
# Poissons Ratio (z) = 0.21006 0.21005
#
# Static dielectric constant tensor:
#      x y z
#    x 1.722820 0.000000 0.000000 
#    y 0.000000 1.722870 0.000000 
#    z 0.000000 0.000000 1.722690 
# 
# From -- ./inp_files/8675.got.cif
#   From: 2010.05.17/outbox.ucp.g08.bks.cvg/sg141_5_cif.got.tgz:8675.got - 2010.06.11 11:43:24.
