data_PCOD9573199
_publ_section_title
;
Structure prediction by ZEFSAII (Michael W. Deem and Ramdas Pophale) SiO2 
 PCOD9573199
Probable space group: I 41/A M D
;
_chemical_formula_sum "Si O2"
_cell_formula_units_Z 68
_cell_length_a 10.746684
_cell_length_b 10.746684
_cell_length_c 32.865743
_cell_angle_alpha 90.000000
_cell_angle_beta 90.000000
_cell_angle_gamma 90.000000
_cell_volume 3795.704657
_symmetry_space_group_name_H-M "I 41/A M D"
_symmetry_group_IT_number 141
_space_group.IT_coordinate_system_code '2'
_symmetry_cell_setting 'tetragonal'
loop_
_space_group_symop_operation_xyz
x,y,z
1/4-y,3/4+x,1/4+z
-x,1/2-y,z
1/4+y,1/4-x,3/4+z
x,-y,-z
-x,1/2+y,-z
1/4+y,3/4+x,1/4-z
1/4-y,1/4-x,3/4-z
-x,-y,-z
3/4+y,1/4-x,3/4-z
x,1/2+y,-z
3/4-y,3/4+x,1/4-z
-x,y,z
x,1/2-y,z
3/4-y,1/4-x,3/4+z
3/4+y,3/4+x,1/4+z
1/2+x,1/2+y,1/2+z
3/4-y,1/4+x,3/4+z
1/2-x,-y,1/2+z
3/4+y,3/4-x,1/4+z
1/2+x,1/2-y,1/2-z
1/2-x,y,1/2-z
3/4+y,1/4+x,3/4-z
3/4-y,3/4-x,1/4-z
1/2-x,1/2-y,1/2-z
1/4+y,3/4-x,1/4-z
1/2+x,y,1/2-z
1/4-y,1/4+x,3/4-z
1/2-x,1/2+y,1/2+z
1/2+x,-y,1/2+z
1/4-y,3/4-x,1/4+z
1/4+y,1/4+x,3/4+z
loop_
_atom_site_type_symbol
_atom_site_label
_atom_site_fract_x
_atom_site_fract_y
_atom_site_fract_z
Si Si1 0.000000 0.596854 0.228419
Si Si2 0.271587 0.104078 0.669337
Si Si3 0.740770 0.250000 0.067124
Si Si4 0.500000 0.750000 0.875000
O O1 0.124157 0.566096 0.202449
O O2 0.000000 0.750000 0.236661
O O3 0.000000 0.511013 0.268296
O O4 0.325116 0.075116 0.625000
O O5 0.258733 0.250000 0.674955
O O6 0.133324 0.050312 0.671893
O O7 0.615206 0.250000 0.093637
#
# Coordination Sequence:
#
# PCOD9573199 Si02
#       4
#    16  32  16   4
#     4  10  22  40  70  99 125 158 211 283 324 382
#     4  11  21  38  67  97 126 162 208 267 329 387
#     4  12  24  44  59  90 126 177 219 252 331 384
#     4  12  28  44  60  76 132 188 216 268 312 388
#
# _framework density 17.914987
#
# number of rings (size 3 to 8) (size 9 to 14) (size 15 to 20)
#    0.000    0.941    4.706    3.529    0.000    3.765 
#    0.000    7.059    0.000    0.000    0.000    0.000 
#    0.000    0.000    0.000    0.000    0.000    0.000 
#
# Total GULP energy -189355.078066 kJ/mol
# GULP energy per Si atom -5569.267002 kJ/mol
# Density = 1.787421 g / cm^3
# Si number density = 17.914987 Si / 1000 Ang^3
#
#
#
# Elastic Constant Matrix: (Units=GPa)
#
#
# Indices 1 2 3 4 5 6 
#
# 1 62.7862 89.4164 33.6242 0.0000 0.0000 0.0000
# 2 89.4164 62.7862 33.6242 0.0000 0.0000 0.0000
# 3 33.6242 33.6242 101.4563 0.0000 0.0000 0.0000
# 4 0.0000 0.0000 0.0000 22.1641 0.0000 0.0000
# 5 0.0000 0.0000 0.0000 0.0000 22.1641 0.0000
# 6 0.0000 0.0000 0.0000 0.0000 0.0000 29.6832
#
#
#
# Elastic Compliance Matrix: (Units=1/GPa)
#
#
# Indices 1 2 3 4 5 6 
#
# 1 -0.014927 0.022624 -0.002551 0.000000 0.000000 0.000000
# 2 0.022624 -0.014927 -0.002551 0.000000 0.000000 0.000000
# 3 -0.002551 -0.002551 0.011547 0.000000 0.000000 0.000000
# 4 0.000000 0.000000 0.000000 0.045118 0.000000 0.000000
# 5 0.000000 0.000000 0.000000 0.000000 0.045118 0.000000
# 6 0.000000 0.000000 0.000000 0.000000 0.000000 0.033689
#
#
# Mechanical properties :
#
#
# Convention : Reuss Voigt Hill
#
# Bulk Modulus (GPa) = 59.74450 60.03980 59.89215
# Shear Modulus (GPa) = 65.65709 19.49320 42.57515
#
# Velocity S-wave (km/s) = 6.06043 3.30221 4.88023
# Velocity P-wave (km/s) = 9.07706 6.93728 8.07833
#
# Compressibility (1/GPa) = 0.01673794
#
# Stress axis : x y z
#
# Youngs Moduli (GPa) = -66.99276 -66.99277 86.60002
#
# Poissons Ratio (x) = 1.51566 0.22092
# Poissons Ratio (y) = 1.51566 0.22092
# Poissons Ratio (z) = -0.17090 -0.17090
#
# Static dielectric constant tensor:
#      x y z
#    x 1.538780 0.000000 0.000000 
#    y 0.000000 1.538780 0.000000 
#    z 0.000000 0.000000 1.631170 
# 
# From -- ./inp_files/12256.got.cif
#   From: 2010.05.17/outbox.cif.g08.bks.cpg/sg141_7_cif.got.tgz:12256.got - 2010.05.20 13:30:51.
