data_PCOD9573427
_publ_section_title
;
Structure prediction by ZEFSAII (Michael W. Deem and Ramdas Pophale) SiO2 
 PCOD9573427
Probable space group: I 41/A C D
;
_chemical_formula_sum "Si O2"
_cell_formula_units_Z 160
_cell_length_a 32.649667
_cell_length_b 32.649667
_cell_length_c 8.891235
_cell_angle_alpha 90.000000
_cell_angle_beta 90.000000
_cell_angle_gamma 90.000000
_cell_volume 9478.063225
_symmetry_space_group_name_H-M "I 41/A C D"
_symmetry_group_IT_number 142
_space_group.IT_coordinate_system_code '2'
_symmetry_cell_setting 'tetragonal'
loop_
_space_group_symop_operation_xyz
x,y,z
1/4-y,3/4+x,1/4+z
-x,1/2-y,z
1/4+y,1/4-x,3/4+z
x,-y,1/2-z
1/2-x,y,-z
3/4+y,1/4+x,1/4-z
1/4-y,1/4-x,1/4-z
-x,-y,-z
3/4+y,1/4-x,3/4-z
x,1/2+y,-z
3/4-y,3/4+x,1/4-z
-x,y,1/2+z
1/2+x,-y,z
1/4-y,3/4-x,3/4+z
3/4+y,3/4+x,3/4+z
1/2+x,1/2+y,1/2+z
3/4-y,1/4+x,3/4+z
1/2-x,-y,1/2+z
3/4+y,3/4-x,1/4+z
1/2+x,1/2-y,-z
-x,1/2+y,1/2-z
1/4+y,3/4+x,3/4-z
3/4-y,3/4-x,3/4-z
1/2-x,1/2-y,1/2-z
1/4+y,3/4-x,1/4-z
1/2+x,y,1/2-z
1/4-y,1/4+x,3/4-z
1/2-x,1/2+y,z
x,1/2-y,1/2+z
3/4-y,1/4-x,1/4+z
1/4+y,1/4+x,1/4+z
loop_
_atom_site_type_symbol
_atom_site_label
_atom_site_fract_x
_atom_site_fract_y
_atom_site_fract_z
Si Si1 0.750000 0.952392 0.000000
Si Si2 0.488260 0.953940 0.553094
Si Si3 0.941092 0.575228 0.734200
Si Si4 0.622402 0.500000 0.250000
Si Si5 0.250000 0.678248 0.000000
Si Si6 0.710800 0.889221 0.794228
Si Si7 0.626744 0.876744 0.625000
O O1 0.770784 0.979217 0.875000
O O2 0.716459 0.923774 0.918432
O O3 0.467621 0.928246 0.418584
O O4 0.528014 0.934464 0.629225
O O5 0.500000 0.000000 0.500000
O O6 0.455469 0.963509 0.683394
O O7 0.907637 0.538520 0.720993
O O8 0.914695 0.615003 0.781113
O O9 0.648580 0.487055 0.394183
O O10 0.231657 0.650649 0.132633
O O11 0.664823 0.881196 0.740795
#
# Coordination Sequence:
#
# PCOD9573427 Si02
#       7
#    16  32  32  16  16  32  16
#     4  11  28  39  53  71  94 142 214 269 286 317
#     4  12  18  31  57  88 116 141 184 239 280 351
#     4  11  21  33  56  83 116 148 185 224 286 351
#     4  10  17  33  57  81 104 142 178 222 283 345
#     4  11  19  34  56  92 110 142 198 233 295 344
#     4  10  23  37  57  74 110 147 190 238 293 351
#     4  10  24  38  56  76 116 159 176 222 300 356
#
# _framework density 16.881086
#
# number of rings (size 3 to 8) (size 9 to 14) (size 15 to 20)
#    0.000    1.200    6.000    1.200    7.000    0.000 
#    0.000    0.000    0.000    0.000    0.000    0.000 
#    0.000    2.400    0.000    0.000    0.000    0.000 
#
# Total GULP energy -446498.780900 kJ/mol
# GULP energy per Si atom -5581.234761 kJ/mol
# Density = 1.684266 g / cm^3
# Si number density = 16.881086 Si / 1000 Ang^3
#
#
#
# Elastic Constant Matrix: (Units=GPa)
#
#
# Indices 1 2 3 4 5 6 
#
# 1 63.3024 22.4357 33.2380 0.0000 0.0000 0.0000
# 2 22.4357 63.3010 33.2370 0.0000 0.0000 0.0000
# 3 33.2380 33.2370 106.9093 0.0000 0.0000 0.0000
# 4 0.0000 0.0000 0.0000 28.0864 0.0000 0.0000
# 5 0.0000 0.0000 0.0000 0.0000 28.0873 0.0000
# 6 0.0000 0.0000 0.0000 0.0000 0.0000 28.0518
#
#
#
# Elastic Compliance Matrix: (Units=1/GPa)
#
#
# Indices 1 2 3 4 5 6 
#
# 1 0.019919 -0.004551 -0.004778 0.000000 0.000000 0.000000
# 2 -0.004551 0.019919 -0.004778 0.000000 0.000000 0.000000
# 3 -0.004778 -0.004778 0.012324 0.000000 0.000000 0.000000
# 4 0.000000 0.000000 0.000000 0.035604 0.000000 0.000000
# 5 0.000000 0.000000 0.000000 0.000000 0.035603 0.000000
# 6 0.000000 0.000000 0.000000 0.000000 0.000000 0.035648
#
#
# Mechanical properties :
#
#
# Convention : Reuss Voigt Hill
#
# Bulk Modulus (GPa) = 41.75520 45.70380 43.72950
# Shear Modulus (GPa) = 25.61277 26.48524 26.04900
#
# Velocity S-wave (km/s) = 3.89941 3.96527 3.93248
# Velocity P-wave (km/s) = 6.71286 6.93522 6.82494
#
# Compressibility (1/GPa) = 0.02394912
#
# Stress axis : x y z
#
# Youngs Moduli (GPa) = 50.20354 50.20283 81.13925
#
# Poissons Ratio (x) = 0.22848 0.38767
# Poissons Ratio (y) = 0.22848 0.38766
# Poissons Ratio (z) = 0.23987 0.23985
#
# Static dielectric constant tensor:
#      x y z
#    x 1.588540 0.000000 0.000000 
#    y 0.000000 1.588540 0.000000 
#    z 0.000000 0.000000 1.628710 
# 
# From -- ./inp_files/2263.got.cif
#   From: 2010.05.17/outbox.cif.g08.bks.cpg/sg142_2_cif.got.tgz:2263.got - 2010.05.20 13:39:18.
