data_PCOD9573716
_publ_section_title
;
Structure prediction by ZEFSAII (Michael W. Deem and Ramdas Pophale) SiO2 
 PCOD9573716
Probable space group: I 41/A C D
;
_chemical_formula_sum "Si O2"
_cell_formula_units_Z 240
_cell_length_a 21.716401
_cell_length_b 21.716401
_cell_length_c 25.756144
_cell_angle_alpha 90.000000
_cell_angle_beta 90.000000
_cell_angle_gamma 90.000000
_cell_volume 12146.650887
_symmetry_space_group_name_H-M "I 41/A C D"
_symmetry_group_IT_number 142
_space_group.IT_coordinate_system_code '2'
_symmetry_cell_setting 'tetragonal'
loop_
_space_group_symop_operation_xyz
x,y,z
1/4-y,3/4+x,1/4+z
-x,1/2-y,z
1/4+y,1/4-x,3/4+z
x,-y,1/2-z
1/2-x,y,-z
3/4+y,1/4+x,1/4-z
1/4-y,1/4-x,1/4-z
-x,-y,-z
3/4+y,1/4-x,3/4-z
x,1/2+y,-z
3/4-y,3/4+x,1/4-z
-x,y,1/2+z
1/2+x,-y,z
1/4-y,3/4-x,3/4+z
3/4+y,3/4+x,3/4+z
1/2+x,1/2+y,1/2+z
3/4-y,1/4+x,3/4+z
1/2-x,-y,1/2+z
3/4+y,3/4-x,1/4+z
1/2+x,1/2-y,-z
-x,1/2+y,1/2-z
1/4+y,3/4+x,3/4-z
3/4-y,3/4-x,3/4-z
1/2-x,1/2-y,1/2-z
1/4+y,3/4-x,1/4-z
1/2+x,y,1/2-z
1/4-y,1/4+x,3/4-z
1/2-x,1/2+y,z
x,1/2-y,1/2+z
3/4-y,1/4-x,1/4+z
1/4+y,1/4+x,1/4+z
loop_
_atom_site_type_symbol
_atom_site_label
_atom_site_fract_x
_atom_site_fract_y
_atom_site_fract_z
Si Si1 0.863415 0.058522 0.178404
Si Si2 0.313582 0.436418 0.375000
Si Si3 0.479268 0.049956 0.956863
Si Si4 0.122307 0.083027 0.792824
Si Si5 0.117056 0.652897 0.951146
Si Si6 0.025931 0.375714 0.134155
Si Si7 0.520620 0.562100 0.783739
Si Si8 0.600597 0.540234 0.886290
O O1 0.829854 0.079854 0.125000
O O2 0.846125 0.085360 0.235422
O O3 0.933127 0.083648 0.172681
O O4 0.863811 0.985315 0.185154
O O5 0.353461 0.412056 0.325972
O O6 0.242882 0.416662 0.372928
O O7 0.440035 0.111259 0.970645
O O8 0.527647 0.082733 0.918122
O O9 0.436213 0.009526 0.919754
O O10 0.500000 0.000000 0.000000
O O11 0.150250 0.134876 0.829748
O O12 0.048360 0.086673 0.791601
O O13 0.113425 0.708683 0.908358
O O14 0.142772 0.687617 0.000376
O O15 0.062287 0.312287 0.125000
O O16 0.515877 0.500000 0.750000
O O17 0.558618 0.550429 0.836290
#
# Coordination Sequence:
#
# PCOD9573716 Si02
#       8
#    32  16  32  32  32  32  32  32
#     4  10  22  39  65  96 133 173 230 281 338 403
#     4  10  20  42  61  94 132 164 218 277 330 400
#     4  11  25  41  62  94 138 164 212 284 352 392
#     4  11  23  42  66  96 136 183 226 284 337 414
#     4  11  20  40  65  96 122 171 222 270 328 409
#     4  11  21  39  70  96 130 170 227 286 334 397
#     4  12  21  42  70  93 126 184 231 262 334 416
#     4  11  25  41  65  94 135 174 222 282 340 401
#
# _framework density 19.758533
#
# number of rings (size 3 to 8) (size 9 to 14) (size 15 to 20)
#    0.000    1.067    6.667    0.800    4.667    3.200 
#    2.400    0.000    0.000    2.000    0.000    0.000 
#    0.000    0.000    0.000    0.000    0.000    0.000 
#
# Total GULP energy -668620.184878 kJ/mol
# GULP energy per Si atom -5571.834874 kJ/mol
# Density = 1.971356 g / cm^3
# Si number density = 19.758533 Si / 1000 Ang^3
#
#
#
# Elastic Constant Matrix: (Units=GPa)
#
#
# Indices 1 2 3 4 5 6 
#
# 1 49.5562 73.0939 59.0925 0.0000 0.0000 0.0000
# 2 73.0939 49.5556 59.0907 0.0000 0.0000 0.0000
# 3 59.0925 59.0907 122.2566 0.0000 0.0000 0.0000
# 4 0.0000 0.0000 0.0000 13.0477 0.0000 0.0000
# 5 0.0000 0.0000 0.0000 0.0000 13.0477 0.0000
# 6 0.0000 0.0000 0.0000 0.0000 0.0000 33.8303
#
#
#
# Elastic Compliance Matrix: (Units=1/GPa)
#
#
# Indices 1 2 3 4 5 6 
#
# 1 -0.013612 0.028873 -0.007376 0.000000 0.000000 0.000000
# 2 0.028873 -0.013611 -0.007377 0.000000 0.000000 0.000000
# 3 -0.007376 -0.007377 0.015310 0.000000 0.000000 0.000000
# 4 0.000000 0.000000 0.000000 0.076642 0.000000 0.000000
# 5 0.000000 0.000000 0.000000 0.000000 0.076642 0.000000
# 6 0.000000 0.000000 0.000000 0.000000 0.000000 0.029559
#
#
# Mechanical properties :
#
#
# Convention : Reuss Voigt Hill
#
# Bulk Modulus (GPa) = 61.24863 67.10250 64.17557
# Shear Modulus (GPa) = 33.75394 13.99123 23.87258
#
# Velocity S-wave (km/s) = 4.13767 2.66392 3.47971
# Velocity P-wave (km/s) = 7.34118 6.59522 6.97818
#
# Compressibility (1/GPa) = 0.01632690
#
# Stress axis : x y z
#
# Youngs Moduli (GPa) = -73.46346 -73.46736 65.31694
#
# Poissons Ratio (x) = 2.12120 0.48176
# Poissons Ratio (y) = 2.12109 0.48182
# Poissons Ratio (z) = -0.54185 -0.54195
#
# Static dielectric constant tensor:
#      x y z
#    x 1.740190 0.000000 0.000000 
#    y 0.000000 1.740190 0.000000 
#    z 0.000000 0.000000 1.805950 
# 
# From -- ./inp_files/11680.got.cif
#   From: 2010.05.17/outbox.cif.g08.bks.cpg/sg142_6_cif.got.tgz:11680.got - 2010.05.20 13:39:18.
