data_PCOD9573406
_publ_section_title
;
Structure prediction by ZEFSAII (Michael W. Deem and Ramdas Pophale) SiO2 
 PCOD9573406
Probable space group: I 41/A C D
;
_chemical_formula_sum "Si O2"
_cell_formula_units_Z 112
_cell_length_a 12.607257
_cell_length_b 12.607257
_cell_length_c 27.896540
_cell_angle_alpha 90.000000
_cell_angle_beta 90.000000
_cell_angle_gamma 90.000000
_cell_volume 4433.957778
_symmetry_space_group_name_H-M "I 41/A C D"
_symmetry_group_IT_number 142
_space_group.IT_coordinate_system_code '2'
_symmetry_cell_setting 'tetragonal'
loop_
_space_group_symop_operation_xyz
x,y,z
1/4-y,3/4+x,1/4+z
-x,1/2-y,z
1/4+y,1/4-x,3/4+z
x,-y,1/2-z
1/2-x,y,-z
3/4+y,1/4+x,1/4-z
1/4-y,1/4-x,1/4-z
-x,-y,-z
3/4+y,1/4-x,3/4-z
x,1/2+y,-z
3/4-y,3/4+x,1/4-z
-x,y,1/2+z
1/2+x,-y,z
1/4-y,3/4-x,3/4+z
3/4+y,3/4+x,3/4+z
1/2+x,1/2+y,1/2+z
3/4-y,1/4+x,3/4+z
1/2-x,-y,1/2+z
3/4+y,3/4-x,1/4+z
1/2+x,1/2-y,-z
-x,1/2+y,1/2-z
1/4+y,3/4+x,3/4-z
3/4-y,3/4-x,3/4-z
1/2-x,1/2-y,1/2-z
1/4+y,3/4-x,1/4-z
1/2+x,y,1/2-z
1/4-y,1/4+x,3/4-z
1/2-x,1/2+y,z
x,1/2-y,1/2+z
3/4-y,1/4-x,1/4+z
1/4+y,1/4+x,1/4+z
loop_
_atom_site_type_symbol
_atom_site_label
_atom_site_fract_x
_atom_site_fract_y
_atom_site_fract_z
Si Si1 0.485768 0.577758 0.370734
Si Si2 0.961858 0.079677 0.541486
Si Si3 0.189190 0.500000 0.750000
Si Si4 0.874629 0.929764 0.320475
O O1 0.395838 0.663924 0.359427
O O2 0.447807 0.491668 0.410059
O O3 0.533697 0.516905 0.325025
O O4 0.851404 0.121195 0.520843
O O5 0.063273 0.153066 0.551259
O O6 0.000000 0.000000 0.500000
O O7 0.272626 0.468090 0.791594
O O8 0.839276 0.910725 0.375000
#
# Coordination Sequence:
#
# PCOD9573406 Si02
#       4
#    32  32  16  32
#     4  10  18  31  54  89 121 165 227 291 359 433
#     4   9  18  31  54  88 117 167 216 277 357 428
#     4  10  16  32  54  86 126 164 228 292 348 452
#     4   9  18  31  52  87 122 165 222 280 358 427
#
# _framework density 25.259598
#
# number of rings (size 3 to 8) (size 9 to 14) (size 15 to 20)
#    0.000    2.571    2.857    0.000    0.000    0.000 
#    0.000    0.000    0.000   15.429    0.000    6.000 
#    0.000    0.000    0.000    0.000    0.000    0.000 
#
# Total GULP energy -313028.362933 kJ/mol
# GULP energy per Si atom -5589.792195 kJ/mol
# Density = 2.520211 g / cm^3
# Si number density = 25.259598 Si / 1000 Ang^3
#
#
#
# Elastic Constant Matrix: (Units=GPa)
#
#
# Indices 1 2 3 4 5 6 
#
# 1 144.9993 62.8549 31.8470 0.0000 0.0000 0.0000
# 2 62.8549 144.9994 31.8472 0.0000 0.0000 0.0000
# 3 31.8470 31.8472 78.8232 0.0000 0.0000 0.0000
# 4 0.0000 0.0000 0.0000 25.7034 0.0000 0.0000
# 5 0.0000 0.0000 0.0000 0.0000 25.7028 0.0000
# 6 0.0000 0.0000 0.0000 0.0000 0.0000 59.4319
#
#
#
# Elastic Compliance Matrix: (Units=1/GPa)
#
#
# Indices 1 2 3 4 5 6 
#
# 1 0.008832 -0.003341 -0.002218 0.000000 0.000000 0.000000
# 2 -0.003341 0.008832 -0.002219 0.000000 0.000000 0.000000
# 3 -0.002218 -0.002219 0.014479 0.000000 0.000000 0.000000
# 4 0.000000 0.000000 0.000000 0.038905 0.000000 0.000000
# 5 0.000000 0.000000 0.000000 0.000000 0.038906 0.000000
# 6 0.000000 0.000000 0.000000 0.000000 0.000000 0.016826
#
#
# Mechanical properties :
#
#
# Convention : Reuss Voigt Hill
#
# Bulk Modulus (GPa) = 60.28779 69.10225 64.69502
# Shear Modulus (GPa) = 33.81410 38.31913 36.06661
#
# Velocity S-wave (km/s) = 3.66274 3.89911 3.78277
# Velocity P-wave (km/s) = 6.46581 6.90557 6.68931
#
# Compressibility (1/GPa) = 0.01658711
#
# Stress axis : x y z
#
# Youngs Moduli (GPa) = 113.22097 113.22091 69.06403
#
# Poissons Ratio (x) = 0.37832 0.15322
# Poissons Ratio (y) = 0.37832 0.15322
# Poissons Ratio (z) = 0.25118 0.25118
#
# Static dielectric constant tensor:
#      x y z
#    x 2.032700 0.000000 0.000000 
#    y 0.000000 2.032700 0.000000 
#    z 0.000000 0.000000 1.955930 
# 
# From -- ./inp_files/11068.got.cif
#   From: 2010.05.17/outbox.cif.g08.bks.cpg/sg142_6_cif.got.tgz:11068.got - 2010.05.20 13:39:18.
