data_PCOD9573107
_publ_section_title
;
Structure prediction by ZEFSAII (Michael W. Deem and Ramdas Pophale) SiO2 
 PCOD9573107
Probable space group: I 41/A M D
;
_chemical_formula_sum "Si O2"
_cell_formula_units_Z 176
_cell_length_a 17.714365
_cell_length_b 17.714365
_cell_length_c 28.165483
_cell_angle_alpha 90.000000
_cell_angle_beta 90.000000
_cell_angle_gamma 90.000000
_cell_volume 8838.292721
_symmetry_space_group_name_H-M "I 41/A M D"
_symmetry_group_IT_number 141
_space_group.IT_coordinate_system_code '2'
_symmetry_cell_setting 'tetragonal'
loop_
_space_group_symop_operation_xyz
x,y,z
1/4-y,3/4+x,1/4+z
-x,1/2-y,z
1/4+y,1/4-x,3/4+z
x,-y,-z
-x,1/2+y,-z
1/4+y,3/4+x,1/4-z
1/4-y,1/4-x,3/4-z
-x,-y,-z
3/4+y,1/4-x,3/4-z
x,1/2+y,-z
3/4-y,3/4+x,1/4-z
-x,y,z
x,1/2-y,z
3/4-y,1/4-x,3/4+z
3/4+y,3/4+x,1/4+z
1/2+x,1/2+y,1/2+z
3/4-y,1/4+x,3/4+z
1/2-x,-y,1/2+z
3/4+y,3/4-x,1/4+z
1/2+x,1/2-y,1/2-z
1/2-x,y,1/2-z
3/4+y,1/4+x,3/4-z
3/4-y,3/4-x,1/4-z
1/2-x,1/2-y,1/2-z
1/4+y,3/4-x,1/4-z
1/2+x,y,1/2-z
1/4-y,1/4+x,3/4-z
1/2-x,1/2+y,1/2+z
1/2+x,-y,1/2+z
1/4-y,3/4-x,1/4+z
1/4+y,1/4+x,3/4+z
loop_
_atom_site_type_symbol
_atom_site_label
_atom_site_fract_x
_atom_site_fract_y
_atom_site_fract_z
Si Si1 0.589676 0.050267 0.211327
Si Si2 0.170143 0.454665 0.632035
Si Si3 0.910293 0.080811 0.777683
Si Si4 0.588490 0.440539 0.460119
Si Si5 0.590745 0.840745 0.375000
Si Si6 0.721881 0.666224 0.803201
O O1 0.500000 0.065724 0.213218
O O2 0.643307 0.120759 0.199931
O O3 0.611868 0.994236 0.168612
O O4 0.613802 0.001822 0.258319
O O5 0.243347 0.506654 0.625000
O O6 0.192777 0.378709 0.659207
O O7 0.127097 0.463290 0.582591
O O8 0.886425 0.140528 0.737253
O O9 0.884744 0.112239 0.828634
O O10 0.000000 0.077655 0.780334
O O11 0.618237 0.500000 0.500000
O O12 0.500000 0.452025 0.454683
O O13 0.601466 0.750000 0.366882
O O14 0.710117 0.750000 0.823138
O O15 0.750000 0.671442 0.750000
#
# Coordination Sequence:
#
# PCOD9573107 Si02
#       6
#    32  32  32  32  16  32
#     4   9  18  34  57  86 114 144 191 243 296 361
#     4   9  19  36  60  84 112 152 193 240 296 366
#     4   9  18  33  54  81 116 158 198 240 291 352
#     4  10  21  38  58  85 120 157 201 253 300 348
#     4   9  16  28  48  78 116 158 202 242 288 345
#     4  10  21  38  59  82 114 153 194 246 310 376
#
# _framework density 19.913347000000002
#
# number of rings (size 3 to 8) (size 9 to 14) (size 15 to 20)
#    0.000    2.636    0.000    1.091    0.000    8.727 
#    4.909    0.909    0.000    4.364    0.000    0.000 
#    0.000    0.000    0.000    0.000    0.000    0.000 
#
# Total GULP energy -490370.720189 kJ/mol
# GULP energy per Si atom -5572.394548 kJ/mol
# Density = 1.986802 g / cm^3
# Si number density = 19.913347 Si / 1000 Ang^3
#
#
#
# Elastic Constant Matrix: (Units=GPa)
#
#
# Indices 1 2 3 4 5 6 
#
# 1 61.6575 40.8780 40.9648 0.0000 0.0000 0.0000
# 2 40.8780 61.6556 40.9634 0.0000 0.0000 0.0000
# 3 40.9648 40.9634 126.1995 0.0000 0.0000 0.0000
# 4 0.0000 0.0000 0.0000 24.1303 0.0000 0.0000
# 5 0.0000 0.0000 0.0000 0.0000 24.1295 0.0000
# 6 0.0000 0.0000 0.0000 0.0000 0.0000 16.6297
#
#
#
# Elastic Compliance Matrix: (Units=1/GPa)
#
#
# Indices 1 2 3 4 5 6 
#
# 1 0.030647 -0.017479 -0.004275 0.000000 0.000000 0.000000
# 2 -0.017479 0.030648 -0.004274 0.000000 0.000000 0.000000
# 3 -0.004275 -0.004274 0.010699 0.000000 0.000000 0.000000
# 4 0.000000 0.000000 0.000000 0.041442 0.000000 0.000000
# 5 0.000000 0.000000 0.000000 0.000000 0.041443 0.000000
# 6 0.000000 0.000000 0.000000 0.000000 0.000000 0.060134
#
#
# Mechanical properties :
#
#
# Convention : Reuss Voigt Hill
#
# Bulk Modulus (GPa) = 50.15615 55.01390 52.58503
# Shear Modulus (GPa) = 18.26728 21.42497 19.84612
#
# Velocity S-wave (km/s) = 3.03205 3.28367 3.16036
# Velocity P-wave (km/s) = 6.12369 6.48562 6.30725
#
# Compressibility (1/GPa) = 0.01993773
#
# Stress axis : x y z
#
# Youngs Moduli (GPa) = 32.62963 32.62896 93.46796
#
# Poissons Ratio (x) = 0.57033 0.39953
# Poissons Ratio (y) = 0.57034 0.39950
# Poissons Ratio (z) = 0.13948 0.13946
#
# Static dielectric constant tensor:
#      x y z
#    x 1.732460 0.000000 0.000000 
#    y 0.000000 1.732460 0.000000 
#    z 0.000000 0.000000 1.759550 
# 
# From -- ./inp_files/12868.got.cif
#   From: 2010.05.17/outbox.cif.g08.bks.cpg/sg141_7_cif.got.tgz:12868.got - 2010.05.20 13:30:51.
