data_PCOD9573741
_publ_section_title
;
Structure prediction by ZEFSAII (Michael W. Deem and Ramdas Pophale) SiO2 
 PCOD9573741
Probable space group: I 41/A C D
;
_chemical_formula_sum "Si O2"
_cell_formula_units_Z 112
_cell_length_a 31.637795
_cell_length_b 31.637795
_cell_length_c 5.348279
_cell_angle_alpha 90.000000
_cell_angle_beta 90.000000
_cell_angle_gamma 90.000000
_cell_volume 5353.360253
_symmetry_space_group_name_H-M "I 41/A C D"
_symmetry_group_IT_number 142
_space_group.IT_coordinate_system_code '2'
_symmetry_cell_setting 'tetragonal'
loop_
_space_group_symop_operation_xyz
x,y,z
1/4-y,3/4+x,1/4+z
-x,1/2-y,z
1/4+y,1/4-x,3/4+z
x,-y,1/2-z
1/2-x,y,-z
3/4+y,1/4+x,1/4-z
1/4-y,1/4-x,1/4-z
-x,-y,-z
3/4+y,1/4-x,3/4-z
x,1/2+y,-z
3/4-y,3/4+x,1/4-z
-x,y,1/2+z
1/2+x,-y,z
1/4-y,3/4-x,3/4+z
3/4+y,3/4+x,3/4+z
1/2+x,1/2+y,1/2+z
3/4-y,1/4+x,3/4+z
1/2-x,-y,1/2+z
3/4+y,3/4-x,1/4+z
1/2+x,1/2-y,-z
-x,1/2+y,1/2-z
1/4+y,3/4+x,3/4-z
3/4-y,3/4-x,3/4-z
1/2-x,1/2-y,1/2-z
1/4+y,3/4-x,1/4-z
1/2+x,y,1/2-z
1/4-y,1/4+x,3/4-z
1/2-x,1/2+y,z
x,1/2-y,1/2+z
3/4-y,1/4-x,1/4+z
1/4+y,1/4+x,1/4+z
loop_
_atom_site_type_symbol
_atom_site_label
_atom_site_fract_x
_atom_site_fract_y
_atom_site_fract_z
Si Si1 0.141462 0.391462 0.125000
Si Si2 0.349519 0.486593 0.001497
Si Si3 0.341462 0.776417 0.461257
Si Si4 0.250000 0.819959 0.500000
Si Si5 0.392612 0.857389 0.625000
O O1 0.139017 0.437952 0.009323
O O2 0.113045 0.385086 0.370337
O O3 0.327600 0.500000 0.750000
O O4 0.325843 0.500000 0.250000
O O5 0.395583 0.508800 0.029917
O O6 0.346534 0.757171 0.185274
O O7 0.292990 0.793976 0.469603
O O8 0.376510 0.812380 0.518749
#
# Coordination Sequence:
#
# PCOD9573741 Si02
#       5
#    16  32  32  16  16
#     4  12  20  40  66  88 123 185 220 266 315 402
#     4  10  21  34  59  91 125 167 217 260 319 382
#     4  12  26  41  66  98 133 173 211 273 332 396
#     4  10  22  40  60  98 140 164 200 260 340 400
#     4  12  24  44  66  91 135 174 230 262 325 406
#
# _framework density 20.92144
#
# number of rings (size 3 to 8) (size 9 to 14) (size 15 to 20)
#    0.857    0.000    2.857    6.000    4.000    0.000 
#    0.000    0.000    0.000    4.286    0.000    0.000 
#    0.000    0.000    0.000    0.000    0.000    0.000 
#
# Total GULP energy -311934.065589 kJ/mol
# GULP energy per Si atom -5570.251171 kJ/mol
# Density = 2.087382 g / cm^3
# Si number density = 20.921440 Si / 1000 Ang^3
#
#
#
# Elastic Constant Matrix: (Units=GPa)
#
#
# Indices 1 2 3 4 5 6 
#
# 1 84.1037 -6.7038 5.8838 0.0000 0.0000 0.0000
# 2 -6.7038 84.1056 5.8855 0.0000 0.0000 0.0000
# 3 5.8838 5.8855 159.8173 0.0000 0.0000 0.0000
# 4 0.0000 0.0000 0.0000 28.4292 0.0000 0.0000
# 5 0.0000 0.0000 0.0000 0.0000 28.4285 0.0000
# 6 0.0000 0.0000 0.0000 0.0000 0.0000 33.8240
#
#
#
# Elastic Compliance Matrix: (Units=1/GPa)
#
#
# Indices 1 2 3 4 5 6 
#
# 1 0.012002 0.000990 -0.000478 0.000000 0.000000 0.000000
# 2 0.000990 0.012002 -0.000478 0.000000 0.000000 0.000000
# 3 -0.000478 -0.000478 0.006292 0.000000 0.000000 0.000000
# 4 0.000000 0.000000 0.000000 0.035175 0.000000 0.000000
# 5 0.000000 0.000000 0.000000 0.000000 0.035176 0.000000
# 6 0.000000 0.000000 0.000000 0.000000 0.000000 0.029565
#
#
# Mechanical properties :
#
#
# Convention : Reuss Voigt Hill
#
# Bulk Modulus (GPa) = 32.93400 37.57308 35.25354
# Shear Modulus (GPa) = 35.64619 39.66708 37.65664
#
# Velocity S-wave (km/s) = 4.13220 4.35903 4.24713
# Velocity P-wave (km/s) = 6.20828 6.58278 6.39827
#
# Compressibility (1/GPa) = 0.03036376
#
# Stress axis : x y z
#
# Youngs Moduli (GPa) = 83.31617 83.31796 158.92253
#
# Poissons Ratio (x) = -0.08250 0.07602
# Poissons Ratio (y) = -0.08250 0.07604
# Poissons Ratio (z) = 0.03985 0.03986
#
# Static dielectric constant tensor:
#      x y z
#    x 1.787000 0.000000 0.000000 
#    y 0.000000 1.787000 0.000000 
#    z 0.000000 0.000000 1.765250 
# 
# From -- ./inp_files/763.got.cif
#   From: 2010.05.17/outbox.cif.g08.bks.cpg/sg142_1_cif.got.tgz:763.got - 2010.05.20 13:39:18.
