data_PCOD9573614
_publ_section_title
;
Structure prediction by ZEFSAII (Michael W. Deem and Ramdas Pophale) SiO2 
 PCOD9573614
Probable space group: I 41/A C D
;
_chemical_formula_sum "Si O2"
_cell_formula_units_Z 240
_cell_length_a 22.029984
_cell_length_b 22.029984
_cell_length_c 25.565487
_cell_angle_alpha 90.000000
_cell_angle_beta 90.000000
_cell_angle_gamma 90.000000
_cell_volume 12407.447137
_symmetry_space_group_name_H-M "I 41/A C D"
_symmetry_group_IT_number 142
_space_group.IT_coordinate_system_code '2'
_symmetry_cell_setting 'tetragonal'
loop_
_space_group_symop_operation_xyz
x,y,z
1/4-y,3/4+x,1/4+z
-x,1/2-y,z
1/4+y,1/4-x,3/4+z
x,-y,1/2-z
1/2-x,y,-z
3/4+y,1/4+x,1/4-z
1/4-y,1/4-x,1/4-z
-x,-y,-z
3/4+y,1/4-x,3/4-z
x,1/2+y,-z
3/4-y,3/4+x,1/4-z
-x,y,1/2+z
1/2+x,-y,z
1/4-y,3/4-x,3/4+z
3/4+y,3/4+x,3/4+z
1/2+x,1/2+y,1/2+z
3/4-y,1/4+x,3/4+z
1/2-x,-y,1/2+z
3/4+y,3/4-x,1/4+z
1/2+x,1/2-y,-z
-x,1/2+y,1/2-z
1/4+y,3/4+x,3/4-z
3/4-y,3/4-x,3/4-z
1/2-x,1/2-y,1/2-z
1/4+y,3/4-x,1/4-z
1/2+x,y,1/2-z
1/4-y,1/4+x,3/4-z
1/2-x,1/2+y,z
x,1/2-y,1/2+z
3/4-y,1/4-x,1/4+z
1/4+y,1/4+x,1/4+z
loop_
_atom_site_type_symbol
_atom_site_label
_atom_site_fract_x
_atom_site_fract_y
_atom_site_fract_z
Si Si1 0.975669 0.092222 0.934427
Si Si2 0.613104 0.074657 0.547124
Si Si3 0.287076 0.392954 0.730022
Si Si4 0.856777 0.787485 0.060750
Si Si5 0.263493 0.922133 0.893914
Si Si6 0.445825 0.205347 0.491175
Si Si7 0.895878 0.909011 0.307981
Si Si8 0.750000 0.264250 0.500000
O O1 0.918523 0.049479 0.947715
O O2 0.970822 0.111344 0.873416
O O3 0.969646 0.149219 0.973896
O O4 0.041186 0.063191 0.946127
O O5 0.624404 0.145960 0.541027
O O6 0.644885 0.058372 0.601707
O O7 0.641336 0.030809 0.502855
O O8 0.310657 0.449816 0.695994
O O9 0.332963 0.394323 0.778826
O O10 0.901538 0.741255 0.031141
O O11 0.787807 0.774112 0.042257
O O12 0.207657 0.874475 0.898718
O O13 0.234177 0.984177 0.875000
O O14 0.500000 0.250000 0.475634
O O15 0.405661 0.180166 0.442471
O O16 0.941595 0.950657 0.275099
#
# Coordination Sequence:
#
# PCOD9573614 Si02
#       8
#    32  32  32  32  32  32  32  16
#     4  11  22  38  60  93 125 155 203 253 313 372
#     4  12  24  39  63  90 125 162 202 254 321 377
#     4  11  23  40  59  89 126 159 200 260 309 366
#     4  11  22  37  59  93 122 161 202 254 315 371
#     4  12  23  40  63  89 118 163 214 259 299 368
#     4  10  21  36  62  91 125 158 196 261 315 372
#     4  10  20  38  61  85 116 158 207 251 299 356
#     4  10  20  36  60  78 124 160 202 254 298 370
#
# _framework density 19.343221
#
# number of rings (size 3 to 8) (size 9 to 14) (size 15 to 20)
#    0.000    1.067    5.333    2.000    1.867    1.067 
#    0.000    0.000    0.000    0.400    0.000    3.733 
#    0.000    0.000    0.000    0.000    0.000    0.000 
#
# Total GULP energy -669067.773810 kJ/mol
# GULP energy per Si atom -5575.564782 kJ/mol
# Density = 1.929920 g / cm^3
# Si number density = 19.343221 Si / 1000 Ang^3
#
#
#
# Elastic Constant Matrix: (Units=GPa)
#
#
# Indices 1 2 3 4 5 6 
#
# 1 59.9636 29.4615 19.7579 0.0000 0.0000 0.0000
# 2 29.4615 59.9636 19.7579 0.0000 0.0000 0.0000
# 3 19.7579 19.7579 49.4204 0.0000 0.0000 0.0000
# 4 0.0000 0.0000 0.0000 38.1389 0.0000 0.0000
# 5 0.0000 0.0000 0.0000 0.0000 38.1389 0.0000
# 6 0.0000 0.0000 0.0000 0.0000 0.0000 36.7535
#
#
#
# Elastic Compliance Matrix: (Units=1/GPa)
#
#
# Indices 1 2 3 4 5 6 
#
# 1 0.023183 -0.009601 -0.005430 0.000000 0.000000 0.000000
# 2 -0.009601 0.023183 -0.005430 0.000000 0.000000 0.000000
# 3 -0.005430 -0.005430 0.024576 0.000000 0.000000 0.000000
# 4 0.000000 0.000000 0.000000 0.026220 0.000000 0.000000
# 5 0.000000 0.000000 0.000000 0.000000 0.026220 0.000000
# 6 0.000000 0.000000 0.000000 0.000000 0.000000 0.027208
#
#
# Mechanical properties :
#
#
# Convention : Reuss Voigt Hill
#
# Bulk Modulus (GPa) = 33.31072 34.14467 33.72769
# Shear Modulus (GPa) = 24.81138 29.29761 27.05449
#
# Velocity S-wave (km/s) = 3.58535 3.89603 3.74392
# Velocity P-wave (km/s) = 5.86498 6.15866 6.01361
#
# Compressibility (1/GPa) = 0.03002037
#
# Stress axis : x y z
#
# Youngs Moduli (GPa) = 43.13443 43.13443 40.68967
#
# Poissons Ratio (x) = 0.41415 0.22094
# Poissons Ratio (y) = 0.41415 0.22094
# Poissons Ratio (z) = 0.23422 0.23422
#
# Static dielectric constant tensor:
#      x y z
#    x 1.686450 0.000000 0.000000 
#    y 0.000000 1.686450 0.000000 
#    z 0.000000 0.000000 1.713000 
# 
# From -- ./inp_files/12731.got.cif
#   From: 2010.05.17/outbox.cif.g08.bks.cpg/sg142_7_cif.got.tgz:12731.got - 2010.05.20 13:39:18.
