data_PCOD9573064
_publ_section_title
;
Structure prediction by ZEFSAII (Michael W. Deem and Ramdas Pophale) SiO2 
 PCOD9573064
Probable space group: I 41/A M D
;
_chemical_formula_sum "Si O2"
_cell_formula_units_Z 160
_cell_length_a 26.461173
_cell_length_b 26.461173
_cell_length_c 14.219190
_cell_angle_alpha 90.000000
_cell_angle_beta 90.000000
_cell_angle_gamma 90.000000
_cell_volume 9956.186923
_symmetry_space_group_name_H-M "I 41/A M D"
_symmetry_group_IT_number 141
_space_group.IT_coordinate_system_code '2'
_symmetry_cell_setting 'tetragonal'
loop_
_space_group_symop_operation_xyz
x,y,z
1/4-y,3/4+x,1/4+z
-x,1/2-y,z
1/4+y,1/4-x,3/4+z
x,-y,-z
-x,1/2+y,-z
1/4+y,3/4+x,1/4-z
1/4-y,1/4-x,3/4-z
-x,-y,-z
3/4+y,1/4-x,3/4-z
x,1/2+y,-z
3/4-y,3/4+x,1/4-z
-x,y,z
x,1/2-y,z
3/4-y,1/4-x,3/4+z
3/4+y,3/4+x,1/4+z
1/2+x,1/2+y,1/2+z
3/4-y,1/4+x,3/4+z
1/2-x,-y,1/2+z
3/4+y,3/4-x,1/4+z
1/2+x,1/2-y,1/2-z
1/2-x,y,1/2-z
3/4+y,1/4+x,3/4-z
3/4-y,3/4-x,1/4-z
1/2-x,1/2-y,1/2-z
1/4+y,3/4-x,1/4-z
1/2+x,y,1/2-z
1/4-y,1/4+x,3/4-z
1/2-x,1/2+y,1/2+z
1/2+x,-y,1/2+z
1/4-y,3/4-x,1/4+z
1/4+y,1/4+x,3/4+z
loop_
_atom_site_type_symbol
_atom_site_label
_atom_site_fract_x
_atom_site_fract_y
_atom_site_fract_z
Si Si1 0.623216 0.612493 0.638648
Si Si2 0.763021 0.307734 0.640031
Si Si3 0.060324 0.309945 0.485839
Si Si4 0.635704 0.057802 0.710571
Si Si5 0.205597 0.441108 0.480306
O O1 0.583305 0.567414 0.622566
O O2 0.595376 0.657230 0.695142
O O3 0.650615 0.626008 0.540330
O O4 0.665628 0.585072 0.701733
O O5 0.764968 0.250000 0.609759
O O6 0.750000 0.310707 0.750000
O O7 0.719937 0.337260 0.583155
O O8 0.071298 0.250000 0.501285
O O9 0.070876 0.320876 0.375000
O O10 0.000000 0.316829 0.499767
O O11 0.667058 0.082943 0.625000
O O12 0.667187 0.011019 0.754596
O O13 0.210555 0.500000 0.500000
O O14 0.185860 0.435860 0.375000
#
# Coordination Sequence:
#
# PCOD9573064 Si02
#       5
#    32  32  32  32  32
#     4  11  21  34  58  80 111 144 183 225 279 329
#     4  10  21  36  53  75 107 146 186 226 269 324
#     4   9  19  38  63  86 106 135 182 236 285 335
#     4  11  22  34  51  79 109 147 186 226 268 314
#     4  11  21  33  51  77 110 146 182 221 263 318
#
# _framework density 16.070409999999999
#
# number of rings (size 3 to 8) (size 9 to 14) (size 15 to 20)
#    0.000    1.600    4.000    2.400    2.800    0.800 
#    0.000    0.000    0.000    0.600    0.000    1.400 
#    0.000    0.000    0.000    0.000    0.000    0.000 
#
# Total GULP energy -446226.713991 kJ/mol
# GULP energy per Si atom -5577.833925 kJ/mol
# Density = 1.603383 g / cm^3
# Si number density = 16.070410 Si / 1000 Ang^3
#
#
#
# Elastic Constant Matrix: (Units=GPa)
#
#
# Indices 1 2 3 4 5 6 
#
# 1 106.9776 56.6549 52.3260 0.0000 0.0000 0.0000
# 2 56.6549 106.9788 52.3257 0.0000 0.0000 0.0000
# 3 52.3260 52.3257 102.1595 0.0000 0.0000 0.0000
# 4 0.0000 0.0000 0.0000 25.5566 0.0000 0.0000
# 5 0.0000 0.0000 0.0000 0.0000 25.5562 0.0000
# 6 0.0000 0.0000 0.0000 0.0000 0.0000 9.2771
#
#
#
# Elastic Compliance Matrix: (Units=1/GPa)
#
#
# Indices 1 2 3 4 5 6 
#
# 1 0.014480 -0.005392 -0.004655 0.000000 0.000000 0.000000
# 2 -0.005392 0.014480 -0.004655 0.000000 0.000000 0.000000
# 3 -0.004655 -0.004655 0.014557 0.000000 0.000000 0.000000
# 4 0.000000 0.000000 0.000000 0.039129 0.000000 0.000000
# 5 0.000000 0.000000 0.000000 0.000000 0.039129 0.000000
# 6 0.000000 0.000000 0.000000 0.000000 0.000000 0.107792
#
#
# Mechanical properties :
#
#
# Convention : Reuss Voigt Hill
#
# Bulk Modulus (GPa) = 70.85269 70.96991 70.91130
# Shear Modulus (GPa) = 18.96273 22.39861 20.68067
#
# Velocity S-wave (km/s) = 3.43881 3.73739 3.59120
# Velocity P-wave (km/s) = 7.74286 7.92980 7.83689
#
# Compressibility (1/GPa) = 0.01411379
#
# Stress axis : x y z
#
# Youngs Moduli (GPa) = 69.06038 69.06165 68.69451
#
# Poissons Ratio (x) = 0.37235 0.31978
# Poissons Ratio (y) = 0.37234 0.31977
# Poissons Ratio (z) = 0.32148 0.32148
#
# Static dielectric constant tensor:
#      x y z
#    x 1.518440 0.000000 0.000000 
#    y 0.000000 1.518440 0.000000 
#    z 0.000000 0.000000 1.412790 
# 
# From -- ./inp_files/4862.got.cif
#   From: 2010.05.17/outbox.cif.g08.bks.cpg/sg141_3_cif.got.tgz:4862.got - 2010.05.20 13:30:51.
