data_PCOD9573494
_publ_section_title
;
Structure prediction by ZEFSAII (Michael W. Deem and Ramdas Pophale) SiO2 
 PCOD9573494
Probable space group: I 41/A C D
;
_chemical_formula_sum "Si O2"
_cell_formula_units_Z 144
_cell_length_a 30.540017
_cell_length_b 30.540017
_cell_length_c 9.136936
_cell_angle_alpha 90.000000
_cell_angle_beta 90.000000
_cell_angle_gamma 90.000000
_cell_volume 8521.952944
_symmetry_space_group_name_H-M "I 41/A C D"
_symmetry_group_IT_number 142
_space_group.IT_coordinate_system_code '2'
_symmetry_cell_setting 'tetragonal'
loop_
_space_group_symop_operation_xyz
x,y,z
1/4-y,3/4+x,1/4+z
-x,1/2-y,z
1/4+y,1/4-x,3/4+z
x,-y,1/2-z
1/2-x,y,-z
3/4+y,1/4+x,1/4-z
1/4-y,1/4-x,1/4-z
-x,-y,-z
3/4+y,1/4-x,3/4-z
x,1/2+y,-z
3/4-y,3/4+x,1/4-z
-x,y,1/2+z
1/2+x,-y,z
1/4-y,3/4-x,3/4+z
3/4+y,3/4+x,3/4+z
1/2+x,1/2+y,1/2+z
3/4-y,1/4+x,3/4+z
1/2-x,-y,1/2+z
3/4+y,3/4-x,1/4+z
1/2+x,1/2-y,-z
-x,1/2+y,1/2-z
1/4+y,3/4+x,3/4-z
3/4-y,3/4-x,3/4-z
1/2-x,1/2-y,1/2-z
1/4+y,3/4-x,1/4-z
1/2+x,y,1/2-z
1/4-y,1/4+x,3/4-z
1/2-x,1/2+y,z
x,1/2-y,1/2+z
3/4-y,1/4-x,1/4+z
1/4+y,1/4+x,1/4+z
loop_
_atom_site_type_symbol
_atom_site_label
_atom_site_fract_x
_atom_site_fract_y
_atom_site_fract_z
Si Si1 0.354678 0.922168 0.888989
Si Si2 0.695782 0.689297 0.501288
Si Si3 0.897281 0.049418 0.198075
Si Si4 0.012040 0.049889 0.540395
Si Si5 0.750000 0.951597 0.000000
O O1 0.394200 0.920841 0.773325
O O2 0.324529 0.959646 0.820360
O O3 0.374431 0.941003 0.041641
O O4 0.330546 0.877169 0.934214
O O5 0.750000 0.682793 0.500000
O O6 0.682862 0.717007 0.642779
O O7 0.682946 0.718436 0.360363
O O8 0.949144 0.053424 0.161546
O O9 0.889591 0.000000 0.250000
O O10 0.000000 0.000000 0.500000
O O11 0.731017 0.981017 0.125000
#
# Coordination Sequence:
#
# PCOD9573494 Si02
#       5
#    32  32  32  32  16
#     4  10  21  34  48  68  96 127 169 213 246 299
#     4   9  16  31  48  69  93 120 158 202 254 302
#     4  10  19  32  51  70  95 128 166 207 258 298
#     4   9  17  29  50  71  91 121 158 203 255 313
#     4  12  26  38  48  64  90 136 182 214 246 286
#
# _framework density 16.897535999999999
#
# number of rings (size 3 to 8) (size 9 to 14) (size 15 to 20)
#    0.000    2.222    1.111    3.333    4.667    0.000 
#    4.000    0.000    0.000    0.000    0.000    0.000 
#    0.000    0.889    0.000   16.222    0.000    4.444 
#
# Total GULP energy -400927.823368 kJ/mol
# GULP energy per Si atom -5568.441991 kJ/mol
# Density = 1.685908 g / cm^3
# Si number density = 16.897536 Si / 1000 Ang^3
#
#
#
# Elastic Constant Matrix: (Units=GPa)
#
#
# Indices 1 2 3 4 5 6 
#
# 1 64.9027 41.6255 36.3516 0.0000 0.0000 0.0000
# 2 41.6255 64.9027 36.3516 0.0000 0.0000 0.0000
# 3 36.3516 36.3516 50.9864 0.0000 0.0000 0.0000
# 4 0.0000 0.0000 0.0000 34.8727 0.0000 0.0000
# 5 0.0000 0.0000 0.0000 0.0000 34.8727 0.0000
# 6 0.0000 0.0000 0.0000 0.0000 0.0000 12.0308
#
#
#
# Elastic Compliance Matrix: (Units=1/GPa)
#
#
# Indices 1 2 3 4 5 6 
#
# 1 0.030622 -0.012338 -0.013036 0.000000 0.000000 0.000000
# 2 -0.012338 0.030622 -0.013036 0.000000 0.000000 0.000000
# 3 -0.013036 -0.013036 0.038201 0.000000 0.000000 0.000000
# 4 0.000000 0.000000 0.000000 0.028676 0.000000 0.000000
# 5 0.000000 0.000000 0.000000 0.000000 0.028676 0.000000
# 6 0.000000 0.000000 0.000000 0.000000 0.000000 0.083120
#
#
# Mechanical properties :
#
#
# Convention : Reuss Voigt Hill
#
# Bulk Modulus (GPa) = 44.19733 45.49438 44.84586
# Shear Modulus (GPa) = 15.41886 20.78611 18.10249
#
# Velocity S-wave (km/s) = 3.02402 3.51112 3.27664
# Velocity P-wave (km/s) = 6.19724 6.58934 6.39630
#
# Compressibility (1/GPa) = 0.02262580
#
# Stress axis : x y z
#
# Youngs Moduli (GPa) = 32.65617 32.65617 26.17719
#
# Poissons Ratio (x) = 0.40292 0.34124
# Poissons Ratio (y) = 0.40292 0.34124
# Poissons Ratio (z) = 0.42570 0.42570
#
# Static dielectric constant tensor:
#      x y z
#    x 1.631290 0.000000 0.000000 
#    y 0.000000 1.631290 0.000000 
#    z 0.000000 0.000000 1.603970 
# 
# From -- ./inp_files/2116.got.cif
#   From: 2010.05.17/outbox.cif.g08.bks.cpg/sg142_2_cif.got.tgz:2116.got - 2010.05.20 13:39:18.
