data_PCOD9573024
_publ_section_title
;
Structure prediction by ZEFSAII (Michael W. Deem and Ramdas Pophale) SiO2 
 PCOD9573024
Probable space group: I 41/A M D
;
_chemical_formula_sum "Si O2"
_cell_formula_units_Z 160
_cell_length_a 18.496125
_cell_length_b 18.496125
_cell_length_c 25.206792
_cell_angle_alpha 90.000000
_cell_angle_beta 90.000000
_cell_angle_gamma 90.000000
_cell_volume 8623.410917
_symmetry_space_group_name_H-M "I 41/A M D"
_symmetry_group_IT_number 141
_space_group.IT_coordinate_system_code '2'
_symmetry_cell_setting 'tetragonal'
loop_
_space_group_symop_operation_xyz
x,y,z
1/4-y,3/4+x,1/4+z
-x,1/2-y,z
1/4+y,1/4-x,3/4+z
x,-y,-z
-x,1/2+y,-z
1/4+y,3/4+x,1/4-z
1/4-y,1/4-x,3/4-z
-x,-y,-z
3/4+y,1/4-x,3/4-z
x,1/2+y,-z
3/4-y,3/4+x,1/4-z
-x,y,z
x,1/2-y,z
3/4-y,1/4-x,3/4+z
3/4+y,3/4+x,1/4+z
1/2+x,1/2+y,1/2+z
3/4-y,1/4+x,3/4+z
1/2-x,-y,1/2+z
3/4+y,3/4-x,1/4+z
1/2+x,1/2-y,1/2-z
1/2-x,y,1/2-z
3/4+y,1/4+x,3/4-z
3/4-y,3/4-x,1/4-z
1/2-x,1/2-y,1/2-z
1/4+y,3/4-x,1/4-z
1/2+x,y,1/2-z
1/4-y,1/4+x,3/4-z
1/2-x,1/2+y,1/2+z
1/2+x,-y,1/2+z
1/4-y,3/4-x,1/4+z
1/4+y,1/4+x,3/4+z
loop_
_atom_site_type_symbol
_atom_site_label
_atom_site_fract_x
_atom_site_fract_y
_atom_site_fract_z
Si Si1 0.584652 0.092702 0.671085
Si Si2 0.585009 0.439010 0.369424
Si Si3 0.083353 0.915643 0.984841
Si Si4 0.414493 0.093022 0.956738
Si Si5 0.320870 0.162614 0.169135
O O1 0.500000 0.085453 0.681398
O O2 0.599646 0.150355 0.625000
O O3 0.624286 0.118302 0.723421
O O4 0.613873 0.016513 0.648889
O O5 0.500000 0.450217 0.379675
O O6 0.613856 0.411150 0.425507
O O7 0.598476 0.381720 0.323978
O O8 0.000000 0.888851 0.987673
O O9 0.081788 0.000000 0.000000
O O10 0.500000 0.103408 0.951213
O O11 0.398116 0.015442 0.927952
O O12 0.398991 0.096301 0.019844
O O13 0.363763 0.113763 0.125000
O O14 0.329475 0.250000 0.158269
#
# Coordination Sequence:
#
# PCOD9573024 Si02
#       5
#    32  32  32  32  32
#     4  11  22  37  58  86 116 149 194 243 287 340
#     4  10  22  38  57  83 115 151 190 233 286 342
#     4  10  20  38  58  78 113 153 187 233 284 333
#     4   9  20  39  58  81 116 153 190 237 288 344
#     4   9  19  37  60  85 113 147 191 239 287 342
#
# _framework density 18.554141999999999
#
# number of rings (size 3 to 8) (size 9 to 14) (size 15 to 20)
#    0.000    2.200    2.000    1.800    0.000    6.000 
#    3.600    8.000    0.000    0.000    0.000    0.000 
#    0.000    0.000    0.000    0.000    0.000    0.000 
#
# Total GULP energy -445735.381913 kJ/mol
# GULP energy per Si atom -5571.692274 kJ/mol
# Density = 1.851191 g / cm^3
# Si number density = 18.554142 Si / 1000 Ang^3
#
#
#
# Elastic Constant Matrix: (Units=GPa)
#
#
# Indices 1 2 3 4 5 6 
#
# 1 28.3571 33.5681 48.9777 0.0000 0.0000 0.0000
# 2 33.5681 28.3523 48.9761 0.0000 0.0000 0.0000
# 3 48.9777 48.9761 132.3394 0.0000 0.0000 0.0000
# 4 0.0000 0.0000 0.0000 29.0839 0.0000 0.0000
# 5 0.0000 0.0000 0.0000 0.0000 29.0834 0.0000
# 6 0.0000 0.0000 0.0000 0.0000 0.0000 24.0302
#
#
#
# Elastic Compliance Matrix: (Units=1/GPa)
#
#
# Indices 1 2 3 4 5 6 
#
# 1 -0.076416 0.115384 -0.014420 0.000000 0.000000 0.000000
# 2 0.115384 -0.076443 -0.014412 0.000000 0.000000 0.000000
# 3 -0.014420 -0.014412 0.018227 0.000000 0.000000 0.000000
# 4 0.000000 0.000000 0.000000 0.034383 0.000000 0.000000
# 5 0.000000 0.000000 0.000000 0.000000 0.034384 0.000000
# 6 0.000000 0.000000 0.000000 0.000000 0.000000 0.041614
#
#
# Mechanical properties :
#
#
# Convention : Reuss Voigt Hill
#
# Bulk Modulus (GPa) = 25.99468 50.23251 38.11360
# Shear Modulus (GPa) = -27.09583 20.27462 -3.41060
#
# Velocity S-wave (km/s) = -3.82562 3.30923 -1.35727
# Velocity P-wave (km/s) = 2.33949 6.46015 4.25795
#
# Compressibility (1/GPa) = 0.03846941
#
# Stress axis : x y z
#
# Youngs Moduli (GPa) = -13.08622 -13.08159 54.86420
#
# Poissons Ratio (x) = 1.50940 0.79115
# Poissons Ratio (y) = 1.50993 0.79072
# Poissons Ratio (z) = -0.18871 -0.18854
#
# Static dielectric constant tensor:
#      x y z
#    x 1.657170 0.000000 0.000000 
#    y 0.000000 1.657170 0.000000 
#    z 0.000000 0.000000 1.636130 
# 
# From -- ./inp_files/12666.got.cif
#   From: 2010.05.17/outbox.cif.g08.bks.cpg/sg141_7_cif.got.tgz:12666.got - 2010.05.20 13:30:51.
