data_PCOD9573223
_publ_section_title
;
Structure prediction by ZEFSAII (Michael W. Deem and Ramdas Pophale) SiO2 
 PCOD9573223
Probable space group: I 41/A M D
;
_chemical_formula_sum "Si O2"
_cell_formula_units_Z 96
_cell_length_a 22.114990
_cell_length_b 22.114990
_cell_length_c 8.433448
_cell_angle_alpha 90.000000
_cell_angle_beta 90.000000
_cell_angle_gamma 90.000000
_cell_volume 4124.569881
_symmetry_space_group_name_H-M "I 41/A M D"
_symmetry_group_IT_number 141
_space_group.IT_coordinate_system_code '2'
_symmetry_cell_setting 'tetragonal'
loop_
_space_group_symop_operation_xyz
x,y,z
1/4-y,3/4+x,1/4+z
-x,1/2-y,z
1/4+y,1/4-x,3/4+z
x,-y,-z
-x,1/2+y,-z
1/4+y,3/4+x,1/4-z
1/4-y,1/4-x,3/4-z
-x,-y,-z
3/4+y,1/4-x,3/4-z
x,1/2+y,-z
3/4-y,3/4+x,1/4-z
-x,y,z
x,1/2-y,z
3/4-y,1/4-x,3/4+z
3/4+y,3/4+x,1/4+z
1/2+x,1/2+y,1/2+z
3/4-y,1/4+x,3/4+z
1/2-x,-y,1/2+z
3/4+y,3/4-x,1/4+z
1/2+x,1/2-y,1/2-z
1/2-x,y,1/2-z
3/4+y,1/4+x,3/4-z
3/4-y,3/4-x,1/4-z
1/2-x,1/2-y,1/2-z
1/4+y,3/4-x,1/4-z
1/2+x,y,1/2-z
1/4-y,1/4+x,3/4-z
1/2-x,1/2+y,1/2+z
1/2+x,-y,1/2+z
1/4-y,3/4-x,1/4+z
1/4+y,1/4+x,3/4+z
loop_
_atom_site_type_symbol
_atom_site_label
_atom_site_fract_x
_atom_site_fract_y
_atom_site_fract_z
Si Si1 0.433185 0.634820 0.129365
Si Si2 0.434828 0.071933 0.213289
Si Si3 0.217023 0.627739 0.090756
O O1 0.500000 0.662129 0.155825
O O2 0.375835 0.677257 0.091648
O O3 0.416841 0.587240 0.266229
O O4 0.435882 0.599598 0.961673
O O5 0.500000 0.041266 0.238678
O O6 0.381660 0.023323 0.222274
O O7 0.250000 0.650549 0.250000
O O8 0.186822 0.563179 0.125000
#
# Coordination Sequence:
#
# PCOD9573223 Si02
#       3
#    32  32  32
#     4  10  22  43  68  98 129 168 222 271 326 394
#     4  10  22  43  70  96 128 173 218 274 332 387
#     4  12  24  44  61  95 132 176 218 266 330 391
#
# _framework density 23.275155000000002
#
# number of rings (size 3 to 8) (size 9 to 14) (size 15 to 20)
#    0.000    1.333    3.333    2.000    0.000    6.000 
#    6.000    3.333    0.000    0.000    0.000    0.000 
#    0.000    0.000    0.000    0.000    0.000    0.000 
#
# Total GULP energy -267705.526239 kJ/mol
# GULP energy per Si atom -5577.198463 kJ/mol
# Density = 2.322218 g / cm^3
# Si number density = 23.275155 Si / 1000 Ang^3
#
#
#
# Elastic Constant Matrix: (Units=GPa)
#
#
# Indices 1 2 3 4 5 6 
#
# 1 101.6629 53.0242 17.7736 0.0000 0.0000 0.0000
# 2 53.0242 101.6655 17.7740 0.0000 0.0000 0.0000
# 3 17.7736 17.7740 87.9756 0.0000 0.0000 0.0000
# 4 0.0000 0.0000 0.0000 19.6958 0.0000 0.0000
# 5 0.0000 0.0000 0.0000 0.0000 19.6948 0.0000
# 6 0.0000 0.0000 0.0000 0.0000 0.0000 26.5591
#
#
#
# Elastic Compliance Matrix: (Units=1/GPa)
#
#
# Indices 1 2 3 4 5 6 
#
# 1 0.013669 -0.006890 -0.001370 0.000000 0.000000 0.000000
# 2 -0.006890 0.013669 -0.001370 0.000000 0.000000 0.000000
# 3 -0.001370 -0.001370 0.011920 0.000000 0.000000 0.000000
# 4 0.000000 0.000000 0.000000 0.050772 0.000000 0.000000
# 5 0.000000 0.000000 0.000000 0.000000 0.050775 0.000000
# 6 0.000000 0.000000 0.000000 0.000000 0.000000 0.037652
#
#
# Mechanical properties :
#
#
# Convention : Reuss Voigt Hill
#
# Bulk Modulus (GPa) = 49.99909 52.04971 51.02440
# Shear Modulus (GPa) = 24.46388 26.70542 25.58465
#
# Velocity S-wave (km/s) = 3.24554 3.39097 3.31905
# Velocity P-wave (km/s) = 5.96432 6.14353 6.05459
#
# Compressibility (1/GPa) = 0.02000036
#
# Stress axis : x y z
#
# Youngs Moduli (GPa) = 73.15585 73.15767 83.89119
#
# Poissons Ratio (x) = 0.50405 0.11490
# Poissons Ratio (y) = 0.50404 0.11490
# Poissons Ratio (z) = 0.10020 0.10020
#
# Static dielectric constant tensor:
#      x y z
#    x 1.898890 0.000000 0.000000 
#    y 0.000000 1.898890 0.000000 
#    z 0.000000 0.000000 1.940810 
# 
# From -- ./inp_files/2489.got.cif
#   From: 2010.05.17/outbox.cif.g08.bks.cpg/sg141_2_cif.got.tgz:2489.got - 2010.05.20 13:30:51.
