data_PCOD9573122
_publ_section_title
;
Structure prediction by ZEFSAII (Michael W. Deem and Ramdas Pophale) SiO2 
 PCOD9573122
Probable space group: I 41/A M D
;
_chemical_formula_sum "Si O2"
_cell_formula_units_Z 176
_cell_length_a 17.945675
_cell_length_b 17.945675
_cell_length_c 27.481447
_cell_angle_alpha 90.000000
_cell_angle_beta 90.000000
_cell_angle_gamma 90.000000
_cell_volume 8850.324466
_symmetry_space_group_name_H-M "I 41/A M D"
_symmetry_group_IT_number 141
_space_group.IT_coordinate_system_code '2'
_symmetry_cell_setting 'tetragonal'
loop_
_space_group_symop_operation_xyz
x,y,z
1/4-y,3/4+x,1/4+z
-x,1/2-y,z
1/4+y,1/4-x,3/4+z
x,-y,-z
-x,1/2+y,-z
1/4+y,3/4+x,1/4-z
1/4-y,1/4-x,3/4-z
-x,-y,-z
3/4+y,1/4-x,3/4-z
x,1/2+y,-z
3/4-y,3/4+x,1/4-z
-x,y,z
x,1/2-y,z
3/4-y,1/4-x,3/4+z
3/4+y,3/4+x,1/4+z
1/2+x,1/2+y,1/2+z
3/4-y,1/4+x,3/4+z
1/2-x,-y,1/2+z
3/4+y,3/4-x,1/4+z
1/2+x,1/2-y,1/2-z
1/2-x,y,1/2-z
3/4+y,1/4+x,3/4-z
3/4-y,3/4-x,1/4-z
1/2-x,1/2-y,1/2-z
1/4+y,3/4-x,1/4-z
1/2+x,y,1/2-z
1/4-y,1/4+x,3/4-z
1/2-x,1/2+y,1/2+z
1/2+x,-y,1/2+z
1/4-y,3/4-x,1/4+z
1/4+y,1/4+x,3/4+z
loop_
_atom_site_type_symbol
_atom_site_label
_atom_site_fract_x
_atom_site_fract_y
_atom_site_fract_z
Si Si1 0.201411 0.337226 0.889524
Si Si2 0.306345 0.666992 0.204902
Si Si3 0.678239 0.467308 0.276369
Si Si4 0.779104 0.337436 0.052791
Si Si5 0.914921 0.335080 0.375000
Si Si6 0.258005 0.835923 0.834077
O O1 0.197395 0.250000 0.903143
O O2 0.122072 0.372072 0.875000
O O3 0.257271 0.344114 0.843706
O O4 0.234886 0.389390 0.931704
O O5 0.340092 0.750000 0.202144
O O6 0.250000 0.666559 0.250000
O O7 0.368762 0.604476 0.209532
O O8 0.750000 0.503176 0.250000
O O9 0.618163 0.465650 0.233276
O O10 0.712698 0.392680 0.300267
O O11 0.787441 0.250000 0.046159
O O12 0.762347 0.351685 0.109529
O O13 0.907407 0.250000 0.394456
O O14 0.847959 0.342591 0.336200
O O15 0.239439 0.750000 0.822487
#
# Coordination Sequence:
#
# PCOD9573122 Si02
#       6
#    32  32  32  32  16  32
#     4  11  23  40  63  93 132 172 217 269 331 392
#     4  10  21  39  62  90 124 166 214 268 330 395
#     4  12  24  38  65  93 130 172 222 273 327 387
#     4  11  22  39  63  93 128 168 220 272 326 397
#     4   9  18  34  58  88 122 166 217 268 324 382
#     4  10  22  40  63  94 131 173 222 275 332 393
#
# _framework density 19.886277
#
# number of rings (size 3 to 8) (size 9 to 14) (size 15 to 20)
#    0.000    1.364    1.818    4.364    1.273    0.909 
#    0.000    1.818    0.000    8.727    0.000    0.000 
#    0.000    0.000    0.000    0.000    0.000    0.000 
#
# Total GULP energy -491341.226250 kJ/mol
# GULP energy per Si atom -5583.423026 kJ/mol
# Density = 1.984102 g / cm^3
# Si number density = 19.886277 Si / 1000 Ang^3
#
#
#
# Elastic Constant Matrix: (Units=GPa)
#
#
# Indices 1 2 3 4 5 6 
#
# 1 131.8107 83.4143 65.0840 0.0000 0.0000 0.0000
# 2 83.4143 131.8103 65.0841 0.0000 0.0000 0.0000
# 3 65.0840 65.0841 116.2623 0.0000 0.0000 0.0000
# 4 0.0000 0.0000 0.0000 30.8715 0.0000 0.0000
# 5 0.0000 0.0000 0.0000 0.0000 30.8711 0.0000
# 6 0.0000 0.0000 0.0000 0.0000 0.0000 26.6706
#
#
#
# Elastic Compliance Matrix: (Units=1/GPa)
#
#
# Indices 1 2 3 4 5 6 
#
# 1 0.013844 -0.006819 -0.003932 0.000000 0.000000 0.000000
# 2 -0.006819 0.013844 -0.003932 0.000000 0.000000 0.000000
# 3 -0.003932 -0.003932 0.013004 0.000000 0.000000 0.000000
# 4 0.000000 0.000000 0.000000 0.032392 0.000000 0.000000
# 5 0.000000 0.000000 0.000000 0.000000 0.032393 0.000000
# 6 0.000000 0.000000 0.000000 0.000000 0.000000 0.037494
#
#
# Mechanical properties :
#
#
# Convention : Reuss Voigt Hill
#
# Bulk Modulus (GPa) = 88.31109 89.67201 88.99155
# Shear Modulus (GPa) = 28.39083 28.76938 28.58010
#
# Velocity S-wave (km/s) = 3.78254 3.80767 3.79512
# Velocity P-wave (km/s) = 7.97378 8.03252 8.00321
#
# Compressibility (1/GPa) = 0.01132361
#
# Stress axis : x y z
#
# Youngs Moduli (GPa) = 72.23524 72.23487 76.89936
#
# Poissons Ratio (x) = 0.49257 0.30240
# Poissons Ratio (y) = 0.49258 0.30240
# Poissons Ratio (z) = 0.28406 0.28406
#
# Static dielectric constant tensor:
#      x y z
#    x 1.717770 0.000000 0.000000 
#    y 0.000000 1.717770 0.000000 
#    z 0.000000 0.000000 1.722360 
# 
# From -- ./inp_files/12900.got.cif
#   From: 2010.05.17/outbox.cif.g08.bks.cpg/sg141_7_cif.got.tgz:12900.got - 2010.05.20 13:30:51.
