data_PCOD9573865
_publ_section_title
;
Structure prediction by ZEFSAII (Michael W. Deem and Ramdas Pophale) SiO2 
 PCOD9573865
Probable space group: I 41/A C D
;
_chemical_formula_sum "Si O2"
_cell_formula_units_Z 144
_cell_length_a 26.467864
_cell_length_b 26.467864
_cell_length_c 9.083715
_cell_angle_alpha 90.000000
_cell_angle_beta 90.000000
_cell_angle_gamma 90.000000
_cell_volume 6363.576784
_symmetry_space_group_name_H-M "I 41/A C D"
_symmetry_group_IT_number 142
_space_group.IT_coordinate_system_code '2'
_symmetry_cell_setting 'tetragonal'
loop_
_space_group_symop_operation_xyz
x,y,z
1/4-y,3/4+x,1/4+z
-x,1/2-y,z
1/4+y,1/4-x,3/4+z
x,-y,1/2-z
1/2-x,y,-z
3/4+y,1/4+x,1/4-z
1/4-y,1/4-x,1/4-z
-x,-y,-z
3/4+y,1/4-x,3/4-z
x,1/2+y,-z
3/4-y,3/4+x,1/4-z
-x,y,1/2+z
1/2+x,-y,z
1/4-y,3/4-x,3/4+z
3/4+y,3/4+x,3/4+z
1/2+x,1/2+y,1/2+z
3/4-y,1/4+x,3/4+z
1/2-x,-y,1/2+z
3/4+y,3/4-x,1/4+z
1/2+x,1/2-y,-z
-x,1/2+y,1/2-z
1/4+y,3/4+x,3/4-z
3/4-y,3/4-x,3/4-z
1/2-x,1/2-y,1/2-z
1/4+y,3/4-x,1/4-z
1/2+x,y,1/2-z
1/4-y,1/4+x,3/4-z
1/2-x,1/2+y,z
x,1/2-y,1/2+z
3/4-y,1/4-x,1/4+z
1/4+y,1/4+x,1/4+z
loop_
_atom_site_type_symbol
_atom_site_label
_atom_site_fract_x
_atom_site_fract_y
_atom_site_fract_z
Si Si1 0.060885 0.375436 0.338457
Si Si2 0.425128 0.952628 0.839414
Si Si3 0.122128 0.021062 0.910495
Si Si4 0.162855 0.087146 0.125000
Si Si5 0.471865 0.874473 0.012765
O O1 0.087221 0.427785 0.390070
O O2 0.098931 0.330196 0.291955
O O3 0.024595 0.351124 0.462473
O O4 0.031822 0.383572 0.184397
O O5 0.388813 0.922533 0.721869
O O6 0.471160 0.924171 0.913618
O O7 0.444830 0.000000 0.750000
O O8 0.397002 0.976358 0.982267
O O9 0.131966 0.000000 0.750000
O O10 0.167677 0.044442 0.002565
#
# Coordination Sequence:
#
# PCOD9573865 Si02
#       5
#    32  32  32  16  32
#     4  11  26  43  69 100 135 185 223 285 341 410
#     4  10  22  39  68 102 134 178 222 275 340 407
#     4  11  22  41  70 105 138 176 228 281 342 405
#     4  10  22  40  68 100 137 184 216 270 348 396
#     4  11  25  45  66  99 138 179 231 277 347 408
#
# _framework density 22.628782999999999
#
# number of rings (size 3 to 8) (size 9 to 14) (size 15 to 20)
#    0.000    1.333    4.444    0.000    6.222    4.000 
#    0.000    2.222    0.000   36.000    0.000    0.000 
#    0.000    0.000    0.000    0.000    0.000    0.000 
#
# Total GULP energy -400981.878746 kJ/mol
# GULP energy per Si atom -5569.192760 kJ/mol
# Density = 2.257728 g / cm^3
# Si number density = 22.628783 Si / 1000 Ang^3
#
#
#
# Elastic Constant Matrix: (Units=GPa)
#
#
# Indices 1 2 3 4 5 6 
#
# 1 13.2614 42.6129 39.7039 0.0000 0.0000 0.0000
# 2 42.6129 13.2619 39.7048 0.0000 0.0000 0.0000
# 3 39.7039 39.7048 189.7594 0.0000 0.0000 0.0000
# 4 0.0000 0.0000 0.0000 38.6332 0.0000 0.0000
# 5 0.0000 0.0000 0.0000 0.0000 38.6336 0.0000
# 6 0.0000 0.0000 0.0000 0.0000 0.0000 -0.8794
#
#
#
# Elastic Compliance Matrix: (Units=1/GPa)
#
#
# Indices 1 2 3 4 5 6 
#
# 1 -0.004299 0.029771 -0.005330 0.000000 0.000000 0.000000
# 2 0.029771 -0.004299 -0.005329 0.000000 0.000000 0.000000
# 3 -0.005330 -0.005329 0.007500 0.000000 0.000000 0.000000
# 4 0.000000 0.000000 0.000000 0.025884 0.000000 0.000000
# 5 0.000000 0.000000 0.000000 0.000000 0.025884 0.000000
# 6 0.000000 0.000000 0.000000 0.000000 0.000000 -1.137173
#
#
# Mechanical properties :
#
#
# Convention : Reuss Voigt Hill
#
# Bulk Modulus (GPa) = 26.93600 51.14731 39.04165
# Shear Modulus (GPa) = -4.49498 21.56156 8.53329
#
# Velocity S-wave (km/s) = -1.41093 3.09016 1.94401
# Velocity P-wave (km/s) = 3.04549 5.94844 4.72540
#
# Compressibility (1/GPa) = 0.03712504
#
# Stress axis : x y z
#
# Youngs Moduli (GPa) = -232.59342 -232.60373 133.33170
#
# Poissons Ratio (x) = 6.92481 0.71061
# Poissons Ratio (y) = 6.92450 0.71059
# Poissons Ratio (z) = -1.23963 -1.23966
#
# Static dielectric constant tensor:
#      x y z
#    x 1.952220 0.000000 0.000000 
#    y 0.000000 1.952220 0.000000 
#    z 0.000000 0.000000 1.848530 
# 
# From -- ./inp_files/2106.got.cif
#   From: 2010.05.17/outbox.cif.g08.bks.cpg/sg142_2_cif.got.tgz:2106.got - 2010.05.20 13:39:18.
