data_PCOD9573002
_publ_section_title
;
Structure prediction by ZEFSAII (Michael W. Deem and Ramdas Pophale) SiO2 
 PCOD9573002
Probable space group: I 41/A M D
;
_chemical_formula_sum "Si O2"
_cell_formula_units_Z 160
_cell_length_a 18.470259
_cell_length_b 18.470259
_cell_length_c 26.047797
_cell_angle_alpha 90.000000
_cell_angle_beta 90.000000
_cell_angle_gamma 90.000000
_cell_volume 8886.218125
_symmetry_space_group_name_H-M "I 41/A M D"
_symmetry_group_IT_number 141
_space_group.IT_coordinate_system_code '2'
_symmetry_cell_setting 'tetragonal'
loop_
_space_group_symop_operation_xyz
x,y,z
1/4-y,3/4+x,1/4+z
-x,1/2-y,z
1/4+y,1/4-x,3/4+z
x,-y,-z
-x,1/2+y,-z
1/4+y,3/4+x,1/4-z
1/4-y,1/4-x,3/4-z
-x,-y,-z
3/4+y,1/4-x,3/4-z
x,1/2+y,-z
3/4-y,3/4+x,1/4-z
-x,y,z
x,1/2-y,z
3/4-y,1/4-x,3/4+z
3/4+y,3/4+x,1/4+z
1/2+x,1/2+y,1/2+z
3/4-y,1/4+x,3/4+z
1/2-x,-y,1/2+z
3/4+y,3/4-x,1/4+z
1/2+x,1/2-y,1/2-z
1/2-x,y,1/2-z
3/4+y,1/4+x,3/4-z
3/4-y,3/4-x,1/4-z
1/2-x,1/2-y,1/2-z
1/4+y,3/4-x,1/4-z
1/2+x,y,1/2-z
1/4-y,1/4+x,3/4-z
1/2-x,1/2+y,1/2+z
1/2+x,-y,1/2+z
1/4-y,3/4-x,1/4+z
1/4+y,1/4+x,3/4+z
loop_
_atom_site_type_symbol
_atom_site_label
_atom_site_fract_x
_atom_site_fract_y
_atom_site_fract_z
Si Si1 0.586766 0.941008 0.840208
Si Si2 0.168853 0.545952 0.765926
Si Si3 0.000000 0.834703 0.917108
Si Si4 0.149347 0.053711 0.930568
Si Si5 0.831075 0.750000 0.228603
Si Si6 0.147643 0.401379 0.631273
O O1 0.500000 0.927944 0.843906
O O2 0.635349 0.885349 0.875000
O O3 0.615410 0.936607 0.781133
O O4 0.604867 0.023860 0.857715
O O5 0.250000 0.568682 0.750000
O O6 0.173139 0.460411 0.779026
O O7 0.151828 0.579995 0.821377
O O8 0.925238 0.860348 0.891517
O O9 0.000000 0.750000 0.917360
O O10 0.000000 0.864745 0.974592
O O11 0.166177 0.083824 0.875000
O O12 0.072874 0.084340 0.946888
O O13 0.151918 0.967601 0.919255
O O14 0.750000 0.750000 0.250000
#
# Coordination Sequence:
#
# PCOD9573002 Si02
#       6
#    32  32  16  32  16  32
#     4  12  25  43  66  94 126 166 211 263 321 381
#     4  11  20  39  69  93 119 154 214 263 309 374
#     4  12  26  40  60  94 134 168 210 263 319 376
#     4  10  20  36  62  95 124 162 214 263 304 369
#     4  12  20  38  64  86 128 178 210 246 317 375
#     4  11  21  40  65  94 128 164 206 265 317 375
#
# _framework density 18.005410000000001
#
# number of rings (size 3 to 8) (size 9 to 14) (size 15 to 20)
#    0.000    0.800    6.000    3.000    1.400    0.200 
#    3.600    3.000    0.000    0.000    0.000    0.000 
#    0.000    0.000    0.000    0.000    0.000    0.000 
#
# Total GULP energy -446425.034784 kJ/mol
# GULP energy per Si atom -5580.312935 kJ/mol
# Density = 1.796443 g / cm^3
# Si number density = 18.005410 Si / 1000 Ang^3
#
#
#
# Elastic Constant Matrix: (Units=GPa)
#
#
# Indices 1 2 3 4 5 6 
#
# 1 139.7788 63.4454 60.4753 0.0000 0.0000 0.0000
# 2 63.4454 139.7789 60.4766 0.0000 0.0000 0.0000
# 3 60.4753 60.4766 131.5967 0.0000 0.0000 0.0000
# 4 0.0000 0.0000 0.0000 20.7678 0.0000 0.0000
# 5 0.0000 0.0000 0.0000 0.0000 20.7683 0.0000
# 6 0.0000 0.0000 0.0000 0.0000 0.0000 13.0305
#
#
#
# Elastic Compliance Matrix: (Units=1/GPa)
#
#
# Indices 1 2 3 4 5 6 
#
# 1 0.009937 -0.003164 -0.003113 0.000000 0.000000 0.000000
# 2 -0.003164 0.009937 -0.003113 0.000000 0.000000 0.000000
# 3 -0.003113 -0.003113 0.010460 0.000000 0.000000 0.000000
# 4 0.000000 0.000000 0.000000 0.048151 0.000000 0.000000
# 5 0.000000 0.000000 0.000000 0.000000 0.048150 0.000000
# 6 0.000000 0.000000 0.000000 0.000000 0.000000 0.076743
#
#
# Mechanical properties :
#
#
# Convention : Reuss Voigt Hill
#
# Bulk Modulus (GPa) = 86.53790 86.66099 86.59945
# Shear Modulus (GPa) = 22.12310 26.03046 24.07678
#
# Velocity S-wave (km/s) = 3.50907 3.80636 3.66074
# Velocity P-wave (km/s) = 8.03646 8.21906 8.12827
#
# Compressibility (1/GPa) = 0.01155563
#
# Stress axis : x y z
#
# Youngs Moduli (GPa) = 100.63628 100.63533 95.60357
#
# Poissons Ratio (x) = 0.31837 0.29757
# Poissons Ratio (y) = 0.31837 0.29759
# Poissons Ratio (z) = 0.31324 0.31325
#
# Static dielectric constant tensor:
#      x y z
#    x 1.604350 0.000000 0.000000 
#    y 0.000000 1.604350 0.000000 
#    z 0.000000 0.000000 1.593920 
# 
# From -- ./inp_files/12785.got.cif
#   From: 2010.05.17/outbox.cif.g08.bks.cpg/sg141_7_cif.got.tgz:12785.got - 2010.05.20 13:30:51.
