data_PCOD9573886
_publ_section_title
;
Structure prediction by ZEFSAII (Michael W. Deem and Ramdas Pophale) SiO2 
 PCOD9573886
Probable space group: I 41/A C D
;
_chemical_formula_sum "Si O2"
_cell_formula_units_Z 192
_cell_length_a 18.151299
_cell_length_b 18.151299
_cell_length_c 26.193848
_cell_angle_alpha 90.000000
_cell_angle_beta 90.000000
_cell_angle_gamma 90.000000
_cell_volume 8630.078074
_symmetry_space_group_name_H-M "I 41/A C D"
_symmetry_group_IT_number 142
_space_group.IT_coordinate_system_code '2'
_symmetry_cell_setting 'tetragonal'
loop_
_space_group_symop_operation_xyz
x,y,z
1/4-y,3/4+x,1/4+z
-x,1/2-y,z
1/4+y,1/4-x,3/4+z
x,-y,1/2-z
1/2-x,y,-z
3/4+y,1/4+x,1/4-z
1/4-y,1/4-x,1/4-z
-x,-y,-z
3/4+y,1/4-x,3/4-z
x,1/2+y,-z
3/4-y,3/4+x,1/4-z
-x,y,1/2+z
1/2+x,-y,z
1/4-y,3/4-x,3/4+z
3/4+y,3/4+x,3/4+z
1/2+x,1/2+y,1/2+z
3/4-y,1/4+x,3/4+z
1/2-x,-y,1/2+z
3/4+y,3/4-x,1/4+z
1/2+x,1/2-y,-z
-x,1/2+y,1/2-z
1/4+y,3/4+x,3/4-z
3/4-y,3/4-x,3/4-z
1/2-x,1/2-y,1/2-z
1/4+y,3/4-x,1/4-z
1/2+x,y,1/2-z
1/4-y,1/4+x,3/4-z
1/2-x,1/2+y,z
x,1/2-y,1/2+z
3/4-y,1/4-x,1/4+z
1/4+y,1/4+x,1/4+z
loop_
_atom_site_type_symbol
_atom_site_label
_atom_site_fract_x
_atom_site_fract_y
_atom_site_fract_z
Si Si1 0.585182 0.226433 0.809046
Si Si2 0.892564 0.857436 0.875000
Si Si3 0.141896 0.891896 0.875000
Si Si4 0.385772 0.992750 0.689128
Si Si5 0.812090 0.281852 0.460001
Si Si6 0.625410 0.566763 0.382211
Si Si7 0.433088 0.701380 0.293574
O O1 0.500000 0.250000 0.813349
O O2 0.621280 0.276598 0.852772
O O3 0.602929 0.143743 0.824971
O O4 0.603745 0.252863 0.752396
O O5 0.876180 0.910115 0.828073
O O6 0.228037 0.873780 0.867896
O O7 0.372898 0.000000 0.750000
O O8 0.469336 0.018601 0.677784
O O9 0.336382 0.044266 0.653619
O O10 0.750000 0.305732 0.500000
O O11 0.837786 0.348731 0.424715
O O12 0.880951 0.230658 0.478110
O O13 0.574692 0.618918 0.418586
O O14 0.500000 0.750000 0.316345
#
# Coordination Sequence:
#
# PCOD9573886 Si02
#       7
#    32  16  16  32  32  32  32
#     4  11  22  41  68 102 136 183 240 295 359 433
#     4  12  18  38  74  90 122 186 236 282 352 434
#     4  12  24  42  66 102 150 174 234 304 380 446
#     4  10  23  43  67  96 133 183 239 292 362 442
#     4  10  22  41  67  96 137 183 236 297 359 429
#     4  11  25  43  67 103 145 191 235 308 375 440
#     4  10  25  42  69 100 143 187 253 302 355 442
#
# _framework density 22.247769999999999
#
# number of rings (size 3 to 8) (size 9 to 14) (size 15 to 20)
#    0.000    1.333    1.667    4.500    9.333    0.667 
#    0.000    6.667    0.000    1.000    0.000    0.000 
#    0.000    0.000    0.000    0.000    0.000    0.000 
#
# Total GULP energy -535457.759355 kJ/mol
# GULP energy per Si atom -5577.684993 kJ/mol
# Density = 2.219713 g / cm^3
# Si number density = 22.247770 Si / 1000 Ang^3
#
#
#
# Elastic Constant Matrix: (Units=GPa)
#
#
# Indices 1 2 3 4 5 6 
#
# 1 108.4588 29.0184 42.8679 0.0000 0.0000 0.0000
# 2 29.0184 108.4588 42.8679 0.0000 0.0000 0.0000
# 3 42.8679 42.8679 115.0982 0.0000 0.0000 0.0000
# 4 0.0000 0.0000 0.0000 34.3751 0.0000 0.0000
# 5 0.0000 0.0000 0.0000 0.0000 34.3751 0.0000
# 6 0.0000 0.0000 0.0000 0.0000 0.0000 29.0963
#
#
#
# Elastic Compliance Matrix: (Units=1/GPa)
#
#
# Indices 1 2 3 4 5 6 
#
# 1 0.011031 -0.001557 -0.003529 0.000000 0.000000 0.000000
# 2 -0.001557 0.011031 -0.003529 0.000000 0.000000 0.000000
# 3 -0.003529 -0.003529 0.011317 0.000000 0.000000 0.000000
# 4 0.000000 0.000000 0.000000 0.029091 0.000000 0.000000
# 5 0.000000 0.000000 0.000000 0.000000 0.029091 0.000000
# 6 0.000000 0.000000 0.000000 0.000000 0.000000 0.034369
#
#
# Mechanical properties :
#
#
# Convention : Reuss Voigt Hill
#
# Bulk Modulus (GPa) = 61.91612 62.39159 62.15386
# Shear Modulus (GPa) = 33.66053 34.05342 33.85698
#
# Velocity S-wave (km/s) = 3.89393 3.91659 3.90528
# Velocity P-wave (km/s) = 6.93596 6.96834 6.95217
#
# Compressibility (1/GPa) = 0.01615088
#
# Stress axis : x y z
#
# Youngs Moduli (GPa) = 90.65086 90.65086 88.36422
#
# Poissons Ratio (x) = 0.14112 0.31182
# Poissons Ratio (y) = 0.14112 0.31182
# Poissons Ratio (z) = 0.31989 0.31989
#
# Static dielectric constant tensor:
#      x y z
#    x 1.854650 0.000000 0.000000 
#    y 0.000000 1.854650 0.000000 
#    z 0.000000 0.000000 1.876410 
# 
# From -- ./inp_files/12625.got.cif
#   From: 2010.05.17/outbox.cif.g08.bks.cpg/sg142_7_cif.got.tgz:12625.got - 2010.05.20 13:39:18.
