data_PCOD9573255
_publ_section_title
;
Structure prediction by ZEFSAII (Michael W. Deem and Ramdas Pophale) SiO2 
 PCOD9573255
Probable space group: I 41/A M D
;
_chemical_formula_sum "Si O2"
_cell_formula_units_Z 116
_cell_length_a 18.543928
_cell_length_b 18.543928
_cell_length_c 17.394096
_cell_angle_alpha 90.000000
_cell_angle_beta 90.000000
_cell_angle_gamma 90.000000
_cell_volume 5981.434171
_symmetry_space_group_name_H-M "I 41/A M D"
_symmetry_group_IT_number 141
_space_group.IT_coordinate_system_code '2'
_symmetry_cell_setting 'tetragonal'
loop_
_space_group_symop_operation_xyz
x,y,z
1/4-y,3/4+x,1/4+z
-x,1/2-y,z
1/4+y,1/4-x,3/4+z
x,-y,-z
-x,1/2+y,-z
1/4+y,3/4+x,1/4-z
1/4-y,1/4-x,3/4-z
-x,-y,-z
3/4+y,1/4-x,3/4-z
x,1/2+y,-z
3/4-y,3/4+x,1/4-z
-x,y,z
x,1/2-y,z
3/4-y,1/4-x,3/4+z
3/4+y,3/4+x,1/4+z
1/2+x,1/2+y,1/2+z
3/4-y,1/4+x,3/4+z
1/2-x,-y,1/2+z
3/4+y,3/4-x,1/4+z
1/2+x,1/2-y,1/2-z
1/2-x,y,1/2-z
3/4+y,1/4+x,3/4-z
3/4-y,3/4-x,1/4-z
1/2-x,1/2-y,1/2-z
1/4+y,3/4-x,1/4-z
1/2+x,y,1/2-z
1/4-y,1/4+x,3/4-z
1/2-x,1/2+y,1/2+z
1/2+x,-y,1/2+z
1/4-y,3/4-x,1/4+z
1/4+y,1/4+x,3/4+z
loop_
_atom_site_type_symbol
_atom_site_label
_atom_site_fract_x
_atom_site_fract_y
_atom_site_fract_z
Si Si1 0.500000 0.168835 0.972866
Si Si2 0.360712 0.427077 0.957372
Si Si3 0.420460 0.166819 0.532346
Si Si4 0.500000 0.250000 0.125000
Si Si5 0.669684 0.963831 0.216717
O O1 0.500000 0.250000 0.939720
O O2 0.572114 0.126473 0.950720
O O3 0.500000 0.183123 0.065697
O O4 0.332587 0.452687 0.874373
O O5 0.385024 0.500000 0.000000
O O6 0.293010 0.394376 0.004939
O O7 0.416761 0.166761 0.625000
O O8 0.500000 0.137604 0.510219
O O9 0.417135 0.250000 0.507085
O O10 0.352124 0.125322 0.500859
O O11 0.750000 0.958333 0.250000
#
# Coordination Sequence:
#
# PCOD9573255 Si02
#       5
#    16  32  32   4  32
#     4  10  25  43  68  96 129 168 213 281 318 387
#     4  11  24  42  66  93 129 169 221 266 334 387
#     4   9  19  37  60  86 121 165 209 255 316 381
#     4   8  24  44  72  88 140 160 226 276 316 376
#     4  11  23  39  65  92 127 168 214 272 317 394
#
# _framework density 19.393342000000001
#
# number of rings (size 3 to 8) (size 9 to 14) (size 15 to 20)
#    0.414    1.379    0.000    6.207    5.793    2.759 
#    0.000    0.000    0.000    0.000    0.000    0.000 
#    0.000    0.000    0.000    0.000    0.000    0.000 
#
# Total GULP energy -323746.888296 kJ/mol
# GULP energy per Si atom -5581.842902 kJ/mol
# Density = 1.934920 g / cm^3
# Si number density = 19.393342 Si / 1000 Ang^3
#
#
#
# Elastic Constant Matrix: (Units=GPa)
#
#
# Indices 1 2 3 4 5 6 
#
# 1 106.4347 77.5325 30.1414 0.0000 0.0000 0.0000
# 2 77.5325 106.4347 30.1414 0.0000 0.0000 0.0000
# 3 30.1414 30.1414 98.5376 0.0000 0.0000 0.0000
# 4 0.0000 0.0000 0.0000 26.2788 0.0000 0.0000
# 5 0.0000 0.0000 0.0000 0.0000 26.2788 0.0000
# 6 0.0000 0.0000 0.0000 0.0000 0.0000 42.4735
#
#
#
# Elastic Compliance Matrix: (Units=1/GPa)
#
#
# Indices 1 2 3 4 5 6 
#
# 1 0.020320 -0.014279 -0.001848 0.000000 0.000000 0.000000
# 2 -0.014279 0.020320 -0.001848 0.000000 0.000000 0.000000
# 3 -0.001848 -0.001848 0.011279 0.000000 0.000000 0.000000
# 4 0.000000 0.000000 0.000000 0.038053 0.000000 0.000000
# 5 0.000000 0.000000 0.000000 0.000000 0.038053 0.000000
# 6 0.000000 0.000000 0.000000 0.000000 0.000000 0.023544
#
#
# Mechanical properties :
#
#
# Convention : Reuss Voigt Hill
#
# Bulk Modulus (GPa) = 62.61852 65.22637 63.92244
# Shear Modulus (GPa) = 25.92769 30.57900 28.25335
#
# Velocity S-wave (km/s) = 3.66038 3.97517 3.82102
# Velocity P-wave (km/s) = 7.08684 7.40106 7.24566
#
# Compressibility (1/GPa) = 0.01596972
#
# Stress axis : x y z
#
# Youngs Moduli (GPa) = 49.21168 49.21168 88.66084
#
# Poissons Ratio (x) = 0.70270 0.16384
# Poissons Ratio (y) = 0.70270 0.16384
# Poissons Ratio (z) = 0.09094 0.09094
#
# Static dielectric constant tensor:
#      x y z
#    x 1.667830 0.000000 0.000000 
#    y 0.000000 1.667830 0.000000 
#    z 0.000000 0.000000 1.720410 
# 
# From -- ./inp_files/7980.got.cif
#   From: 2010.05.17/outbox.cif.g08.bks.cpg/sg141_4_cif.got.tgz:7980.got - 2010.05.20 13:30:51.
