data_PCOD9573160
_publ_section_title
;
Structure prediction by ZEFSAII (Michael W. Deem and Ramdas Pophale) SiO2 
 PCOD9573160
Probable space group: I 41/A M D
;
_chemical_formula_sum "Si O2"
_cell_formula_units_Z 160
_cell_length_a 22.258931
_cell_length_b 22.258931
_cell_length_c 18.212385
_cell_angle_alpha 90.000000
_cell_angle_beta 90.000000
_cell_angle_gamma 90.000000
_cell_volume 9023.508441
_symmetry_space_group_name_H-M "I 41/A M D"
_symmetry_group_IT_number 141
_space_group.IT_coordinate_system_code '2'
_symmetry_cell_setting 'tetragonal'
loop_
_space_group_symop_operation_xyz
x,y,z
1/4-y,3/4+x,1/4+z
-x,1/2-y,z
1/4+y,1/4-x,3/4+z
x,-y,-z
-x,1/2+y,-z
1/4+y,3/4+x,1/4-z
1/4-y,1/4-x,3/4-z
-x,-y,-z
3/4+y,1/4-x,3/4-z
x,1/2+y,-z
3/4-y,3/4+x,1/4-z
-x,y,z
x,1/2-y,z
3/4-y,1/4-x,3/4+z
3/4+y,3/4+x,1/4+z
1/2+x,1/2+y,1/2+z
3/4-y,1/4+x,3/4+z
1/2-x,-y,1/2+z
3/4+y,3/4-x,1/4+z
1/2+x,1/2-y,1/2-z
1/2-x,y,1/2-z
3/4+y,1/4+x,3/4-z
3/4-y,3/4-x,1/4-z
1/2-x,1/2-y,1/2-z
1/4+y,3/4-x,1/4-z
1/2+x,y,1/2-z
1/4-y,1/4+x,3/4-z
1/2-x,1/2+y,1/2+z
1/2+x,-y,1/2+z
1/4-y,3/4-x,1/4+z
1/4+y,1/4+x,3/4+z
loop_
_atom_site_type_symbol
_atom_site_label
_atom_site_fract_x
_atom_site_fract_y
_atom_site_fract_z
Si Si1 0.400720 0.480469 0.330479
Si Si2 0.800605 0.317349 0.070980
Si Si3 0.115352 0.317087 0.667714
Si Si4 0.932651 0.093087 0.916787
Si Si5 0.268666 0.068787 0.332591
O O1 0.421153 0.516480 0.257102
O O2 0.426015 0.414515 0.352151
O O3 0.419172 0.525163 0.395171
O O4 0.329464 0.470327 0.329704
O O5 0.784999 0.250000 0.093931
O O6 0.873524 0.324092 0.074482
O O7 0.779164 0.369806 0.124314
O O8 0.087592 0.250000 0.661845
O O9 0.148961 0.319476 0.746188
O O10 0.885352 0.135352 0.875000
O O11 0.000000 0.109011 0.891364
O O12 0.250000 0.081276 0.250000
O O13 0.218783 0.031218 0.375000
#
# Coordination Sequence:
#
# PCOD9573160 Si02
#       5
#    32  32  32  32  32
#     4  11  21  36  58  81 115 146 193 238 290 343
#     4  11  23  38  60  86 115 153 191 237 289 345
#     4  10  22  36  54  80 113 155 195 237 283 334
#     4  11  21  33  48  73 110 152 194 235 277 327
#     4  11  23  40  62  91 118 148 186 237 297 351
#
# _framework density 17.731462000000001
#
# number of rings (size 3 to 8) (size 9 to 14) (size 15 to 20)
#    0.000    1.200    4.000    3.000    0.000    2.600 
#    0.000    2.000    0.000    0.000    0.000    0.000 
#    0.000    0.400    0.000    0.000    0.000    0.000 
#
# Total GULP energy -446095.477981 kJ/mol
# GULP energy per Si atom -5576.193475 kJ/mol
# Density = 1.769110 g / cm^3
# Si number density = 17.731462 Si / 1000 Ang^3
#
#
#
# Elastic Constant Matrix: (Units=GPa)
#
#
# Indices 1 2 3 4 5 6 
#
# 1 87.7875 28.7977 21.8166 0.0000 0.0000 0.0000
# 2 28.7977 87.7889 21.8152 0.0000 0.0000 0.0000
# 3 21.8166 21.8152 66.4301 0.0000 0.0000 0.0000
# 4 0.0000 0.0000 0.0000 19.0188 0.0000 0.0000
# 5 0.0000 0.0000 0.0000 0.0000 19.0197 0.0000
# 6 0.0000 0.0000 0.0000 0.0000 0.0000 -6.4336
#
#
#
# Elastic Compliance Matrix: (Units=1/GPa)
#
#
# Indices 1 2 3 4 5 6 
#
# 1 0.013366 -0.003586 -0.003212 0.000000 0.000000 0.000000
# 2 -0.003586 0.013365 -0.003211 0.000000 0.000000 0.000000
# 3 -0.003212 -0.003211 0.017163 0.000000 0.000000 0.000000
# 4 0.000000 0.000000 0.000000 0.052580 0.000000 0.000000
# 5 0.000000 0.000000 0.000000 0.000000 0.052577 0.000000
# 6 0.000000 0.000000 0.000000 0.000000 0.000000 -0.155434
#
#
# Mechanical properties :
#
#
# Convention : Reuss Voigt Hill
#
# Bulk Modulus (GPa) = 41.88457 42.98504 42.43480
# Shear Modulus (GPa) = 231.54981 17.62610 124.58796
#
# Velocity S-wave (km/s) = 11.43986 3.15629 8.39144
# Velocity P-wave (km/s) = 14.07718 6.13007 10.85690
#
# Compressibility (1/GPa) = 0.02387514
#
# Stress axis : x y z
#
# Youngs Moduli (GPa) = 74.81799 74.82016 58.26555
#
# Poissons Ratio (x) = 0.26833 0.18714
# Poissons Ratio (y) = 0.26832 0.18711
# Poissons Ratio (z) = 0.24030 0.24027
#
# Static dielectric constant tensor:
#      x y z
#    x 1.622980 0.000000 0.000000 
#    y 0.000000 1.622970 0.000000 
#    z 0.000000 0.000000 1.588570 
# 
# From -- ./inp_files/8553.got.cif
#   From: 2010.05.17/outbox.cif.g08.bks.cpg/sg141_5_cif.got.tgz:8553.got - 2010.05.20 13:30:51.
