data_PCOD9573214
_publ_section_title
;
Structure prediction by ZEFSAII (Michael W. Deem and Ramdas Pophale) SiO2 
 PCOD9573214
Probable space group: I 41/A M D
;
_chemical_formula_sum "Si O2"
_cell_formula_units_Z 176
_cell_length_a 26.416491
_cell_length_b 26.416491
_cell_length_c 12.422831
_cell_angle_alpha 90.000000
_cell_angle_beta 90.000000
_cell_angle_gamma 90.000000
_cell_volume 8669.036539
_symmetry_space_group_name_H-M "I 41/A M D"
_symmetry_group_IT_number 141
_space_group.IT_coordinate_system_code '2'
_symmetry_cell_setting 'tetragonal'
loop_
_space_group_symop_operation_xyz
x,y,z
1/4-y,3/4+x,1/4+z
-x,1/2-y,z
1/4+y,1/4-x,3/4+z
x,-y,-z
-x,1/2+y,-z
1/4+y,3/4+x,1/4-z
1/4-y,1/4-x,3/4-z
-x,-y,-z
3/4+y,1/4-x,3/4-z
x,1/2+y,-z
3/4-y,3/4+x,1/4-z
-x,y,z
x,1/2-y,z
3/4-y,1/4-x,3/4+z
3/4+y,3/4+x,1/4+z
1/2+x,1/2+y,1/2+z
3/4-y,1/4+x,3/4+z
1/2-x,-y,1/2+z
3/4+y,3/4-x,1/4+z
1/2+x,1/2-y,1/2-z
1/2-x,y,1/2-z
3/4+y,1/4+x,3/4-z
3/4-y,3/4-x,1/4-z
1/2-x,1/2-y,1/2-z
1/4+y,3/4-x,1/4-z
1/2+x,y,1/2-z
1/4-y,1/4+x,3/4-z
1/2-x,1/2+y,1/2+z
1/2+x,-y,1/2+z
1/4-y,3/4-x,1/4+z
1/4+y,1/4+x,3/4+z
loop_
_atom_site_type_symbol
_atom_site_label
_atom_site_fract_x
_atom_site_fract_y
_atom_site_fract_z
Si Si1 0.865464 0.622195 0.891781
Si Si2 0.822727 0.492491 0.623524
Si Si3 0.368224 0.307529 0.190330
Si Si4 0.587303 0.044899 0.239314
Si Si5 0.124361 0.874361 0.125000
Si Si6 0.054740 0.464396 0.896092
O O1 0.814535 0.587925 0.907484
O O2 0.855714 0.664471 0.801650
O O3 0.906062 0.585296 0.835473
O O4 0.884093 0.646731 0.003831
O O5 0.839593 0.500000 0.500000
O O6 0.765356 0.515356 0.625000
O O7 0.856721 0.528581 0.699232
O O8 0.383811 0.250000 0.207604
O O9 0.410545 0.339456 0.125000
O O10 0.320115 0.310541 0.111611
O O11 0.558853 0.997596 0.288968
O O12 0.104688 0.930581 0.103153
O O13 0.000000 0.436887 0.897574
O O14 0.055652 0.500000 0.000000
#
# Coordination Sequence:
#
# PCOD9573214 Si02
#       6
#    32  32  32  32  16  32
#     4  11  23  40  57  88 131 169 210 261 313 372
#     4  12  21  37  55  84 129 173 210 257 303 368
#     4  10  22  41  69  95 125 160 200 266 332 384
#     4  11  20  40  64  89 126 162 214 259 321 371
#     4  12  24  42  64  89 130 168 220 262 304 370
#     4  11  24  41  63  90 123 166 213 257 308 377
#
# _framework density 20.302140999999999
#
# number of rings (size 3 to 8) (size 9 to 14) (size 15 to 20)
#    0.000    0.909    7.273    1.091    0.000    0.909 
#    6.545    0.909    0.000    0.273    0.000    0.000 
#    0.000    0.000    0.000    0.000    0.000    0.000 
#
# Total GULP energy -490331.301219 kJ/mol
# GULP energy per Si atom -5571.946605 kJ/mol
# Density = 2.025593 g / cm^3
# Si number density = 20.302141 Si / 1000 Ang^3
#
#
#
# Elastic Constant Matrix: (Units=GPa)
#
#
# Indices 1 2 3 4 5 6 
#
# 1 73.0449 34.6190 20.9990 0.0000 0.0000 0.0000
# 2 34.6190 73.0419 21.0004 0.0000 0.0000 0.0000
# 3 20.9990 21.0004 140.8009 0.0000 0.0000 0.0000
# 4 0.0000 0.0000 0.0000 10.4000 0.0000 0.0000
# 5 0.0000 0.0000 0.0000 0.0000 10.3996 0.0000
# 6 0.0000 0.0000 0.0000 0.0000 0.0000 4.0393
#
#
#
# Elastic Compliance Matrix: (Units=1/GPa)
#
#
# Indices 1 2 3 4 5 6 
#
# 1 0.017943 -0.008082 -0.001471 0.000000 0.000000 0.000000
# 2 -0.008082 0.017944 -0.001471 0.000000 0.000000 0.000000
# 3 -0.001471 -0.001471 0.007541 0.000000 0.000000 0.000000
# 4 0.000000 0.000000 0.000000 0.096154 0.000000 0.000000
# 5 0.000000 0.000000 0.000000 0.000000 0.096157 0.000000
# 6 0.000000 0.000000 0.000000 0.000000 0.000000 0.247570
#
#
# Mechanical properties :
#
#
# Convention : Reuss Voigt Hill
#
# Bulk Modulus (GPa) = 46.76912 48.90273 47.83592
# Shear Modulus (GPa) = 9.75642 18.98573 14.37108
#
# Velocity S-wave (km/s) = 2.19455 3.06135 2.66345
# Velocity P-wave (km/s) = 5.43212 6.05274 5.75081
#
# Compressibility (1/GPa) = 0.02138163
#
# Stress axis : x y z
#
# Youngs Moduli (GPa) = 55.73153 55.72878 132.60881
#
# Poissons Ratio (x) = 0.45037 0.19503
# Poissons Ratio (y) = 0.45040 0.19508
# Poissons Ratio (z) = 0.08196 0.08198
#
# Static dielectric constant tensor:
#      x y z
#    x 1.754670 0.000000 0.000000 
#    y 0.000000 1.754670 0.000000 
#    z 0.000000 0.000000 1.750840 
# 
# From -- ./inp_files/5020.got.cif
#   From: 2010.05.17/outbox.cif.g08.bks.cpg/sg141_3_cif.got.tgz:5020.got - 2010.05.20 13:30:51.
