data_PCOD9573020
_publ_section_title
;
Structure prediction by ZEFSAII (Michael W. Deem and Ramdas Pophale) SiO2 
 PCOD9573020
Probable space group: I 41/A M D
;
_chemical_formula_sum "Si O2"
_cell_formula_units_Z 176
_cell_length_a 28.071768
_cell_length_b 28.071768
_cell_length_c 12.165009
_cell_angle_alpha 90.000000
_cell_angle_beta 90.000000
_cell_angle_gamma 90.000000
_cell_volume 9586.320982
_symmetry_space_group_name_H-M "I 41/A M D"
_symmetry_group_IT_number 141
_space_group.IT_coordinate_system_code '2'
_symmetry_cell_setting 'tetragonal'
loop_
_space_group_symop_operation_xyz
x,y,z
1/4-y,3/4+x,1/4+z
-x,1/2-y,z
1/4+y,1/4-x,3/4+z
x,-y,-z
-x,1/2+y,-z
1/4+y,3/4+x,1/4-z
1/4-y,1/4-x,3/4-z
-x,-y,-z
3/4+y,1/4-x,3/4-z
x,1/2+y,-z
3/4-y,3/4+x,1/4-z
-x,y,z
x,1/2-y,z
3/4-y,1/4-x,3/4+z
3/4+y,3/4+x,1/4+z
1/2+x,1/2+y,1/2+z
3/4-y,1/4+x,3/4+z
1/2-x,-y,1/2+z
3/4+y,3/4-x,1/4+z
1/2+x,1/2-y,1/2-z
1/2-x,y,1/2-z
3/4+y,1/4+x,3/4-z
3/4-y,3/4-x,1/4-z
1/2-x,1/2-y,1/2-z
1/4+y,3/4-x,1/4-z
1/2+x,y,1/2-z
1/4-y,1/4+x,3/4-z
1/2-x,1/2+y,1/2+z
1/2+x,-y,1/2+z
1/4-y,3/4-x,1/4+z
1/4+y,1/4+x,3/4+z
loop_
_atom_site_type_symbol
_atom_site_label
_atom_site_fract_x
_atom_site_fract_y
_atom_site_fract_z
Si Si1 0.639559 0.750000 0.296453
Si Si2 0.667231 0.846562 0.575640
Si Si3 0.892690 0.896587 0.736493
Si Si4 0.157322 0.498708 0.239666
Si Si5 0.596682 0.846682 0.375000
Si Si6 0.250000 0.055712 0.750000
Si Si7 0.500000 0.929275 0.702027
Si Si8 0.707407 0.750000 0.510060
O O1 0.606371 0.796247 0.316044
O O2 0.665940 0.750000 0.178490
O O3 0.679582 0.750000 0.392684
O O4 0.631836 0.865031 0.668525
O O5 0.715192 0.875500 0.558113
O O6 0.637571 0.851941 0.464197
O O7 0.687509 0.793840 0.579903
O O8 0.881286 0.868715 0.625000
O O9 0.949054 0.908108 0.754232
O O10 0.862666 0.946213 0.739195
O O11 0.208296 0.518547 0.275629
O O12 0.160853 0.506737 0.106889
O O13 0.500000 0.986043 0.732353
#
# Coordination Sequence:
#
# PCOD9573020 Si02
#       8
#    16  32  32  32  16  16  16  16
#     4  10  21  37  70 101 140 165 217 271 351 415
#     4  11  22  42  63  98 136 172 220 276 338 392
#     4  12  28  44  68  93 132 184 233 279 331 401
#     4  11  22  37  61  93 134 176 224 267 328 402
#     4  10  20  37  64 100 134 166 204 282 340 406
#     4  10  22  36  58  95 136 185 220 264 328 412
#     4  12  23  49  67  98 131 183 229 273 333 413
#     4  10  23  39  69 107 135 172 220 277 344 407
#
# _framework density 18.359494000000002
#
# number of rings (size 3 to 8) (size 9 to 14) (size 15 to 20)
#    0.000    1.091    5.455    1.364    2.545    1.636 
#    0.000    0.909    0.000    1.909    0.000    0.000 
#    0.000    0.000    0.000    0.000    0.000    0.000 
#
# Total GULP energy -490110.902502 kJ/mol
# GULP energy per Si atom -5569.442074 kJ/mol
# Density = 1.831771 g / cm^3
# Si number density = 18.359494 Si / 1000 Ang^3
#
#
#
# Elastic Constant Matrix: (Units=GPa)
#
#
# Indices 1 2 3 4 5 6 
#
# 1 2695.3249-2503.3885 37.1219 0.0000 0.0000 0.0000
# 2 -2503.3885 2694.5398 37.3048 0.0000 0.0000 0.0000
# 3 37.1219 37.3048 63.5440 0.0000 0.0000 0.0000
# 4 0.0000 0.0000 0.0000 18.6555 0.0000 0.0000
# 5 0.0000 0.0000 0.0000 0.0000 18.6561 0.0000
# 6 0.0000 0.0000 0.0000 0.0000 0.0000 33.8936
#
#
#
# Elastic Compliance Matrix: (Units=1/GPa)
#
#
# Indices 1 2 3 4 5 6 
#
# 1 0.003475 0.003283 -0.003957 0.000000 0.000000 0.000000
# 2 0.003283 0.003476 -0.003959 0.000000 0.000000 0.000000
# 3 -0.003957 -0.003959 0.020373 0.000000 0.000000 0.000000
# 4 0.000000 0.000000 0.000000 0.053603 0.000000 0.000000
# 5 0.000000 0.000000 0.000000 0.000000 0.053602 0.000000
# 6 0.000000 0.000000 0.000000 0.000000 0.000000 0.029504
#
#
# Mechanical properties :
#
#
# Convention : Reuss Voigt Hill
#
# Bulk Modulus (GPa) = 55.37683 66.16501 60.77092
# Shear Modulus (GPa) = 27.88326 539.73241 283.80784
#
# Velocity S-wave (km/s) = 3.90133 17.16445 12.44666
# Velocity P-wave (km/s) = 7.10787 20.71089 15.48326
#
# Compressibility (1/GPa) = 0.01805810
#
# Stress axis : x y z
#
# Youngs Moduli (GPa) = 287.77884 287.67128 49.08425
#
# Poissons Ratio (x) = -0.94447 0.19425
# Poissons Ratio (y) = -0.94483 0.19431
# Poissons Ratio (z) = 1.13887 1.13882
#
# Static dielectric constant tensor:
#      x y z
#    x 1.591570 0.000000 0.000000 
#    y 0.000000 1.591570 0.000000 
#    z 0.000000 0.000000 1.647640 
# 
# From -- ./inp_files/5111.got.cif
#   From: 2010.05.17/outbox.cif.g08.bks.cpg/sg141_3_cif.got.tgz:5111.got - 2010.05.20 13:30:51.
