data_PCOD9573032
_publ_section_title
;
Structure prediction by ZEFSAII (Michael W. Deem and Ramdas Pophale) SiO2 
 PCOD9573032
Probable space group: I 41/A M D
;
_chemical_formula_sum "Si O2"
_cell_formula_units_Z 112
_cell_length_a 14.076446
_cell_length_b 14.076446
_cell_length_c 28.439132
_cell_angle_alpha 90.000000
_cell_angle_beta 90.000000
_cell_angle_gamma 90.000000
_cell_volume 5635.109691
_symmetry_space_group_name_H-M "I 41/A M D"
_symmetry_group_IT_number 141
_space_group.IT_coordinate_system_code '2'
_symmetry_cell_setting 'tetragonal'
loop_
_space_group_symop_operation_xyz
x,y,z
1/4-y,3/4+x,1/4+z
-x,1/2-y,z
1/4+y,1/4-x,3/4+z
x,-y,-z
-x,1/2+y,-z
1/4+y,3/4+x,1/4-z
1/4-y,1/4-x,3/4-z
-x,-y,-z
3/4+y,1/4-x,3/4-z
x,1/2+y,-z
3/4-y,3/4+x,1/4-z
-x,y,z
x,1/2-y,z
3/4-y,1/4-x,3/4+z
3/4+y,3/4+x,1/4+z
1/2+x,1/2+y,1/2+z
3/4-y,1/4+x,3/4+z
1/2-x,-y,1/2+z
3/4+y,3/4-x,1/4+z
1/2+x,1/2-y,1/2-z
1/2-x,y,1/2-z
3/4+y,1/4+x,3/4-z
3/4-y,3/4-x,1/4-z
1/2-x,1/2-y,1/2-z
1/4+y,3/4-x,1/4-z
1/2+x,y,1/2-z
1/4-y,1/4+x,3/4-z
1/2-x,1/2+y,1/2+z
1/2+x,-y,1/2+z
1/4-y,3/4-x,1/4+z
1/4+y,1/4+x,3/4+z
loop_
_atom_site_type_symbol
_atom_site_label
_atom_site_fract_x
_atom_site_fract_y
_atom_site_fract_z
Si Si1 0.890389 0.436787 0.149217
Si Si2 0.394439 0.144439 0.625000
Si Si3 0.106964 0.865179 0.499270
Si Si4 0.275428 0.137066 0.087769
O O1 0.888451 0.550706 0.157008
O O2 0.858105 0.382910 0.196116
O O3 0.820750 0.410741 0.106700
O O4 0.000000 0.410718 0.139357
O O5 0.500000 0.139129 0.602441
O O6 0.107425 0.750000 0.500012
O O7 0.185590 0.894675 0.537091
O O8 0.000000 0.895344 0.511961
O O9 0.355576 0.105576 0.125000
O O10 0.263085 0.250000 0.087818
#
# Coordination Sequence:
#
# PCOD9573032 Si02
#       4
#    32  16  32  32
#     4  10  20  38  61  86 117 154 197 243 297 359
#     4   9  18  36  62  86 111 148 194 246 299 348
#     4   9  19  36  58  84 117 158 199 241 292 350
#     4  11  22  36  55  83 116 154 199 246 291 344
#
# _framework density 19.875389999999999
#
# number of rings (size 3 to 8) (size 9 to 14) (size 15 to 20)
#    0.000    2.143    1.429    1.714    0.000    4.286 
#    0.000    4.286    0.000    8.571    0.000    0.000 
#    0.000    0.000    0.000    0.000    0.000    0.000 
#
# Total GULP energy -312263.629699 kJ/mol
# GULP energy per Si atom -5576.136245 kJ/mol
# Density = 1.983015 g / cm^3
# Si number density = 19.875390 Si / 1000 Ang^3
#
#
#
# Elastic Constant Matrix: (Units=GPa)
#
#
# Indices 1 2 3 4 5 6 
#
# 1 131.6692 26.0161 39.1702 0.0000 0.0000 0.0000
# 2 26.0161 131.6692 39.1702 0.0000 0.0000 0.0000
# 3 39.1702 39.1702 88.2388 0.0000 0.0000 0.0000
# 4 0.0000 0.0000 0.0000 6.8332 0.0000 0.0000
# 5 0.0000 0.0000 0.0000 0.0000 6.8332 0.0000
# 6 0.0000 0.0000 0.0000 0.0000 0.0000 26.5107
#
#
#
# Elastic Compliance Matrix: (Units=1/GPa)
#
#
# Indices 1 2 3 4 5 6 
#
# 1 0.008801 -0.000664 -0.003612 0.000000 0.000000 0.000000
# 2 -0.000664 0.008801 -0.003612 0.000000 0.000000 0.000000
# 3 -0.003612 -0.003612 0.014539 0.000000 0.000000 0.000000
# 4 0.000000 0.000000 0.000000 0.146344 0.000000 0.000000
# 5 0.000000 0.000000 0.000000 0.000000 0.146344 0.000000
# 6 0.000000 0.000000 0.000000 0.000000 0.000000 0.037721
#
#
# Mechanical properties :
#
#
# Convention : Reuss Voigt Hill
#
# Bulk Modulus (GPa) = 61.10675 62.25448 61.68062
# Shear Modulus (GPa) = 13.02828 24.51681 18.77254
#
# Velocity S-wave (km/s) = 2.56305 3.51597 3.07663
# Velocity P-wave (km/s) = 6.29052 6.91904 6.61225
#
# Compressibility (1/GPa) = 0.01636480
#
# Stress axis : x y z
#
# Youngs Moduli (GPa) = 113.62975 113.62975 68.77848
#
# Poissons Ratio (x) = 0.07550 0.24841
# Poissons Ratio (y) = 0.07550 0.24841
# Poissons Ratio (z) = 0.41040 0.41040
#
# Static dielectric constant tensor:
#      x y z
#    x 1.737250 0.000000 0.000000 
#    y 0.000000 1.737250 0.000000 
#    z 0.000000 0.000000 1.663180 
# 
# From -- ./inp_files/11156.got.cif
#   From: 2010.05.17/outbox.cif.g08.bks.cpg/sg141_6_cif.got.tgz:11156.got - 2010.05.20 13:30:51.
