data_PCOD9573110
_publ_section_title
;
Structure prediction by ZEFSAII (Michael W. Deem and Ramdas Pophale) SiO2 
 PCOD9573110
Probable space group: I 41/A M D
;
_chemical_formula_sum "Si O2"
_cell_formula_units_Z 116
_cell_length_a 25.867146
_cell_length_b 25.867146
_cell_length_c 10.265527
_cell_angle_alpha 90.000000
_cell_angle_beta 90.000000
_cell_angle_gamma 90.000000
_cell_volume 6868.758992
_symmetry_space_group_name_H-M "I 41/A M D"
_symmetry_group_IT_number 141
_space_group.IT_coordinate_system_code '2'
_symmetry_cell_setting 'tetragonal'
loop_
_space_group_symop_operation_xyz
x,y,z
1/4-y,3/4+x,1/4+z
-x,1/2-y,z
1/4+y,1/4-x,3/4+z
x,-y,-z
-x,1/2+y,-z
1/4+y,3/4+x,1/4-z
1/4-y,1/4-x,3/4-z
-x,-y,-z
3/4+y,1/4-x,3/4-z
x,1/2+y,-z
3/4-y,3/4+x,1/4-z
-x,y,z
x,1/2-y,z
3/4-y,1/4-x,3/4+z
3/4+y,3/4+x,1/4+z
1/2+x,1/2+y,1/2+z
3/4-y,1/4+x,3/4+z
1/2-x,-y,1/2+z
3/4+y,3/4-x,1/4+z
1/2+x,1/2-y,1/2-z
1/2-x,y,1/2-z
3/4+y,1/4+x,3/4-z
3/4-y,3/4-x,1/4-z
1/2-x,1/2-y,1/2-z
1/4+y,3/4-x,1/4-z
1/2+x,y,1/2-z
1/4-y,1/4+x,3/4-z
1/2-x,1/2+y,1/2+z
1/2+x,-y,1/2+z
1/4-y,3/4-x,1/4+z
1/4+y,1/4+x,3/4+z
loop_
_atom_site_type_symbol
_atom_site_label
_atom_site_fract_x
_atom_site_fract_y
_atom_site_fract_z
Si Si1 0.382922 0.853013 0.529615
Si Si2 0.000000 0.750000 0.625000
Si Si3 0.226118 0.689025 0.889247
Si Si4 0.793822 0.310654 0.644036
Si Si5 0.000000 0.191668 0.630912
O O1 0.389763 0.860238 0.375000
O O2 0.323763 0.843647 0.570208
O O3 0.406835 0.904306 0.592593
O O4 0.413059 0.801614 0.574830
O O5 0.000000 0.798297 0.525754
O O6 0.210930 0.750000 0.883314
O O7 0.250000 0.674811 0.750000
O O8 0.268533 0.684405 0.002417
O O9 0.806009 0.250000 0.668554
O O10 0.750000 0.325515 0.750000
O O11 0.000000 0.250000 0.686400
#
# Coordination Sequence:
#
# PCOD9573110 Si02
#       5
#    32   4  32  32  16
#     4  12  23  37  66  92 124 162 213 267 312 377
#     4   8  24  44  42  80 140 172 200 230 332 416
#     4  10  22  41  61  91 123 162 218 261 308 377
#     4  10  21  38  61  89 126 166 204 255 316 375
#     4  10  24  37  57  89 130 164 201 248 325 392
#
# _framework density 16.888058000000001
#
# number of rings (size 3 to 8) (size 9 to 14) (size 15 to 20)
#    0.414    1.103    4.138    0.828    3.862    3.310 
#    0.000    0.000    0.000    4.966    0.000    0.000 
#    0.000    0.000    0.000    0.000    0.000    0.000 
#
# Total GULP energy -323698.782052 kJ/mol
# GULP energy per Si atom -5581.013484 kJ/mol
# Density = 1.684962 g / cm^3
# Si number density = 16.888058 Si / 1000 Ang^3
#
#
#
# Elastic Constant Matrix: (Units=GPa)
#
#
# Indices 1 2 3 4 5 6 
#
# 1 120.3943 77.4322 51.7902 0.0000 0.0000 0.0000
# 2 77.4322 120.3947 51.7902 0.0000 0.0000 0.0000
# 3 51.7902 51.7902 136.7249 0.0000 0.0000 0.0000
# 4 0.0000 0.0000 0.0000 -2.0334 0.0000 0.0000
# 5 0.0000 0.0000 0.0000 0.0000 -2.0252 0.0000
# 6 0.0000 0.0000 0.0000 0.0000 0.0000 27.6222
#
#
#
# Elastic Compliance Matrix: (Units=1/GPa)
#
#
# Indices 1 2 3 4 5 6 
#
# 1 0.014791 -0.008485 -0.002388 0.000000 0.000000 0.000000
# 2 -0.008485 0.014791 -0.002388 0.000000 0.000000 0.000000
# 3 -0.002388 -0.002388 0.009123 0.000000 0.000000 0.000000
# 4 0.000000 0.000000 0.000000 -0.491795 0.000000 0.000000
# 5 0.000000 0.000000 0.000000 0.000000 -0.493770 0.000000
# 6 0.000000 0.000000 0.000000 0.000000 0.000000 0.036203
#
#
# Mechanical properties :
#
#
# Convention : Reuss Voigt Hill
#
# Bulk Modulus (GPa) = 82.09807 82.17102 82.13454
# Shear Modulus (GPa) = -5.68135 17.81281 6.06573
#
# Velocity S-wave (km/s) = -1.83614 3.25123 1.89724
# Velocity P-wave (km/s) = 6.65007 7.92817 7.31708
#
# Compressibility (1/GPa) = 0.01218055
#
# Stress axis : x y z
#
# Youngs Moduli (GPa) = 67.60910 67.60941 109.60802
#
# Poissons Ratio (x) = 0.57369 0.26180
# Poissons Ratio (y) = 0.57369 0.26179
# Poissons Ratio (z) = 0.16148 0.16148
#
# Static dielectric constant tensor:
#      x y z
#    x 1.548000 0.000000 0.000000 
#    y 0.000000 1.548000 0.000000 
#    z 0.000000 0.000000 1.578820 
# 
# From -- ./inp_files/2796.got.cif
#   From: 2010.05.17/outbox.cif.g08.bks.cpg/sg141_2_cif.got.tgz:2796.got - 2010.05.20 13:30:51.
