data_PCOD9573375
_publ_section_title
;
Structure prediction by ZEFSAII (Michael W. Deem and Ramdas Pophale) SiO2 
 PCOD9573375
Probable space group: I 41/A M D
;
_chemical_formula_sum "Si O2"
_cell_formula_units_Z 80
_cell_length_a 18.000000
_cell_length_b 18.000000
_cell_length_c 27.000000
_cell_angle_alpha 90.000000
_cell_angle_beta 90.000000
_cell_angle_gamma 90.000000
_cell_volume 8748.000000
_symmetry_space_group_name_H-M "I 41/A M D"
_symmetry_group_IT_number 141
_space_group.IT_coordinate_system_code '2'
_symmetry_cell_setting 'tetragonal'
loop_
_space_group_symop_operation_xyz
x,y,z
1/4-y,3/4+x,1/4+z
-x,1/2-y,z
1/4+y,1/4-x,3/4+z
x,-y,-z
-x,1/2+y,-z
1/4+y,3/4+x,1/4-z
1/4-y,1/4-x,3/4-z
-x,-y,-z
3/4+y,1/4-x,3/4-z
x,1/2+y,-z
3/4-y,3/4+x,1/4-z
-x,y,z
x,1/2-y,z
3/4-y,1/4-x,3/4+z
3/4+y,3/4+x,1/4+z
1/2+x,1/2+y,1/2+z
3/4-y,1/4+x,3/4+z
1/2-x,-y,1/2+z
3/4+y,3/4-x,1/4+z
1/2+x,1/2-y,1/2-z
1/2-x,y,1/2-z
3/4+y,1/4+x,3/4-z
3/4-y,3/4-x,1/4-z
1/2-x,1/2-y,1/2-z
1/4+y,3/4-x,1/4-z
1/2+x,y,1/2-z
1/4-y,1/4+x,3/4-z
1/2-x,1/2+y,1/2+z
1/2+x,-y,1/2+z
1/4-y,3/4-x,1/4+z
1/4+y,1/4+x,3/4+z
loop_
_atom_site_type_symbol
_atom_site_label
_atom_site_fract_x
_atom_site_fract_y
_atom_site_fract_z
Si Si1 0.303171 0.391405 0.201782
Si Si2 0.663686 0.600167 0.101946
Si Si3 0.591743 0.076059 0.466884
Si Si4 0.086636 0.750000 0.823010
Si Si5 0.500000 0.840488 0.953127
Si Si6 0.908563 0.989777 0.243174
O O1 0.250000 0.373003 0.250000
O O2 0.239338 0.411574 0.160701
O O3 0.359011 0.322580 0.188737
O O4 0.358964 0.458041 0.219397
O O5 0.681059 0.627920 0.159007
O O6 0.578232 0.627397 0.091000
O O7 0.722570 0.635811 0.061070
O O8 0.500000 0.094923 0.465845
O O9 0.654147 0.131086 0.493906
O O10 0.596579 0.000000 0.500000
O O11 0.089735 0.750000 0.763194
O O12 0.000000 0.750000 0.838198
O O13 0.500000 0.750000 0.938783
O O14 0.000000 0.995081 0.248426
#
# Coordination Sequence:
#
# PCOD9573375 Si02
#       6
#    32  32  32  16  16  32
#     4  10  19  33  58  94 135 182 233 272 321 396
#     4  11  23  41  69  99 135 181 230 280 340 412
#     4  11  26  47  70  97 130 171 226 295 353 409
#     4  11  19  31  63 103 140 182 226 274 329 396
#     4  11  18  30  56 100 148 190 228 274 330 394
#     4  11  23  40  64  98 136 176 220 275 344 414
#
# _framework density 9.1449470000000002
#
# number of rings (size 3 to 8) (size 9 to 14) (size 15 to 20)
#    0.000    1.200    4.000    5.100    1.400    3.600 
#    0.000    0.000    0.000    0.000    2.600    2.800 
#    0.000    0.000    0.000    0.000    0.000    0.000 
#
# Total GULP energy -445643.633585 kJ/mol
# GULP energy per Si atom -5570.545420 kJ/mol
# Density = 0.912413 g / cm^3
# Si number density = 9.144947 Si / 1000 Ang^3
#
#
#
# Elastic Constant Matrix: (Units=GPa)
#
#
# Indices 1 2 3 4 5 6 
#
# 1 175.7912 63.9377 41.1761 0.0000 0.0000 0.0000
# 2 63.9377 175.7912 41.1761 0.0000 0.0000 0.0000
# 3 41.1761 41.1761 118.5833 0.0000 0.0000 0.0000
# 4 0.0000 0.0000 0.0000 33.2033 0.0000 0.0000
# 5 0.0000 0.0000 0.0000 0.0000 33.2033 0.0000
# 6 0.0000 0.0000 0.0000 0.0000 0.0000 49.1165
#
#
#
# Elastic Compliance Matrix: (Units=1/GPa)
#
#
# Indices 1 2 3 4 5 6 
#
# 1 0.006838 -0.002102 -0.001645 0.000000 0.000000 0.000000
# 2 -0.002102 0.006838 -0.001645 0.000000 0.000000 0.000000
# 3 -0.001645 -0.001645 0.009575 0.000000 0.000000 0.000000
# 4 0.000000 0.000000 0.000000 0.030118 0.000000 0.000000
# 5 0.000000 0.000000 0.000000 0.000000 0.030118 0.000000
# 6 0.000000 0.000000 0.000000 0.000000 0.000000 0.020360
#
#
# Mechanical properties :
#
#
# Convention : Reuss Voigt Hill
#
# Bulk Modulus (GPa) = 80.19734 84.74948 82.47341
# Shear Modulus (GPa) = 42.09279 44.69634 43.39457
#
# Velocity S-wave (km/s) = 4.80252 4.94882 4.87622
# Velocity P-wave (km/s) = 8.64265 8.89335 8.76890
#
# Compressibility (1/GPa) = 0.01246924
#
# Stress axis : x y z
#
# Youngs Moduli (GPa) = 146.23511 146.23511 104.43839
#
# Poissons Ratio (x) = 0.30738 0.17176
# Poissons Ratio (y) = 0.30738 0.17176
# Poissons Ratio (z) = 0.24050 0.24050
#
# Static dielectric constant tensor:
#      x y z
#    x 1.662810 0.000000 0.000000 
#    y 0.000000 1.662810 0.000000 
#    z 0.000000 0.000000 1.680390 
# 
# From -- ./inp_files/12806.got.cif
#   From: 2010.05.17/outbox.ucp.g08.bks.cvg/sg141_7_cif.got.tgz:12806.got - 2010.06.11 11:43:24.
