data_PCOD9573373
_publ_section_title
;
Structure prediction by ZEFSAII (Michael W. Deem and Ramdas Pophale) SiO2 
 PCOD9573373
Probable space group: I 41/A M D
;
_chemical_formula_sum "Si O2"
_cell_formula_units_Z 64
_cell_length_a 12.097025
_cell_length_b 12.097025
_cell_length_c 21.391518
_cell_angle_alpha 90.000000
_cell_angle_beta 90.000000
_cell_angle_gamma 90.000000
_cell_volume 3130.392257
_symmetry_space_group_name_H-M "I 41/A M D"
_symmetry_group_IT_number 141
_space_group.IT_coordinate_system_code '2'
_symmetry_cell_setting 'tetragonal'
loop_
_space_group_symop_operation_xyz
x,y,z
1/4-y,3/4+x,1/4+z
-x,1/2-y,z
1/4+y,1/4-x,3/4+z
x,-y,-z
-x,1/2+y,-z
1/4+y,3/4+x,1/4-z
1/4-y,1/4-x,3/4-z
-x,-y,-z
3/4+y,1/4-x,3/4-z
x,1/2+y,-z
3/4-y,3/4+x,1/4-z
-x,y,z
x,1/2-y,z
3/4-y,1/4-x,3/4+z
3/4+y,3/4+x,1/4+z
1/2+x,1/2+y,1/2+z
3/4-y,1/4+x,3/4+z
1/2-x,-y,1/2+z
3/4+y,3/4-x,1/4+z
1/2+x,1/2-y,1/2-z
1/2-x,y,1/2-z
3/4+y,1/4+x,3/4-z
3/4-y,3/4-x,1/4-z
1/2-x,1/2-y,1/2-z
1/4+y,3/4-x,1/4-z
1/2+x,y,1/2-z
1/4-y,1/4+x,3/4-z
1/2-x,1/2+y,1/2+z
1/2+x,-y,1/2+z
1/4-y,3/4-x,1/4+z
1/4+y,1/4+x,3/4+z
loop_
_atom_site_type_symbol
_atom_site_label
_atom_site_fract_x
_atom_site_fract_y
_atom_site_fract_z
Si Si1 0.000000 0.621617 0.920169
Si Si2 0.372065 0.990431 0.177224
Si Si3 0.127695 0.250000 0.520670
O O1 0.881475 0.576021 0.940166
O O2 0.000000 0.615577 0.844782
O O3 0.000000 0.750000 0.941115
O O4 0.500000 0.976845 0.152498
O O5 0.303052 0.053052 0.125000
O O6 0.394556 0.061494 0.239566
O O7 0.000000 0.250000 0.501350
#
# Coordination Sequence:
#
# PCOD9573373 Si02
#       3
#    16  32  16
#     4   9  18  34  49  76 102 144 170 207 265 311
#     4   9  18  30  51  72 108 131 166 222 253 314
#     4   9  18  29  53  78 102 134 173 200 275 312
#
# _framework density 20.444721999999999
#
# number of rings (size 3 to 8) (size 9 to 14) (size 15 to 20)
#    1.500    1.500    0.000    1.500    0.000    2.000 
#    0.000    7.500    0.000    9.750    0.000    0.000 
#    0.000    0.000    0.000    0.000    0.000    0.000 
#
# Total GULP energy -178153.517344 kJ/mol
# GULP energy per Si atom -5567.297417 kJ/mol
# Density = 2.039819 g / cm^3
# Si number density = 20.444722 Si / 1000 Ang^3
#
#
#
# Elastic Constant Matrix: (Units=GPa)
#
#
# Indices 1 2 3 4 5 6 
#
# 1 116.1006 14.0589 28.2870 -0.0001 0.0000 0.0000
# 2 14.0589 116.1006 28.2870 -0.0006 -0.0002 0.0000
# 3 28.2870 28.2870 57.1615 -0.0006 -0.0002 0.0000
# 4 -0.0001 -0.0006 -0.0006********** -0.4461 -0.0004
# 5 0.0000 -0.0002 -0.0002 -0.4461********** -0.0001
# 6 0.0000 0.0000 0.0000 -0.0004 -0.0001 1.5937
#
#
#
# Elastic Compliance Matrix: (Units=1/GPa)
#
#
# Indices 1 2 3 4 5 6 
#
# 1 0.009794 -0.000006 -0.004844 0.000000 0.000000 0.000000
# 2 -0.000006 0.009794 -0.004844 0.000000 0.000000 0.000000
# 3 -0.004844 -0.004844 0.022288 0.000000 0.000000 0.000000
# 4 0.000000 0.000000 0.000000 -0.000033 0.000000 0.000000
# 5 0.000000 0.000000 0.000000 0.000000 -0.000033 0.000000
# 6 0.000000 0.000000 0.000000 0.000000 0.000000 0.627488
#
#
# Mechanical properties :
#
#
# Convention : Reuss Voigt Hill
#
# Bulk Modulus (GPa) = 44.46512 47.84763 46.15638
# Shear Modulus (GPa) = 7.18204 -11985.31334 -5989.06565
#
# Velocity S-wave (km/s) = 1.87631 -76.64873 -54.18260
# Velocity P-wave (km/s) = 5.14686 88.37374 62.38360
#
# Compressibility (1/GPa) = 0.02248954
#
# Stress axis : x y z
#
# Youngs Moduli (GPa) = 102.10242 102.10242 44.86644
#
# Poissons Ratio (x) = 0.00059 0.21733
# Poissons Ratio (y) = 0.00059 0.21733
# Poissons Ratio (z) = 0.49457 0.49457
#
# Static dielectric constant tensor:
#      x y z
#    x 1.783690 0.000000 0.000000 
#    y 0.000000 1.783690 0.000000 
#    z 0.000000 0.000000 1.680410 
# 
# From -- ./inp_files/9451.got.cif
#   From: 2010.05.17/outbox.cif.g08.bks.cpg/sg141_5_cif.got.tgz:9451.got - 2010.05.20 13:30:51.
