data_PCOD9573141
_publ_section_title
;
Structure prediction by ZEFSAII (Michael W. Deem and Ramdas Pophale) SiO2 
 PCOD9573141
Probable space group: I 41/A M D
;
_chemical_formula_sum "Si O2"
_cell_formula_units_Z 160
_cell_length_a 20.153978
_cell_length_b 20.153978
_cell_length_c 18.720141
_cell_angle_alpha 90.000000
_cell_angle_beta 90.000000
_cell_angle_gamma 90.000000
_cell_volume 7603.799835
_symmetry_space_group_name_H-M "I 41/A M D"
_symmetry_group_IT_number 141
_space_group.IT_coordinate_system_code '2'
_symmetry_cell_setting 'tetragonal'
loop_
_space_group_symop_operation_xyz
x,y,z
1/4-y,3/4+x,1/4+z
-x,1/2-y,z
1/4+y,1/4-x,3/4+z
x,-y,-z
-x,1/2+y,-z
1/4+y,3/4+x,1/4-z
1/4-y,1/4-x,3/4-z
-x,-y,-z
3/4+y,1/4-x,3/4-z
x,1/2+y,-z
3/4-y,3/4+x,1/4-z
-x,y,z
x,1/2-y,z
3/4-y,1/4-x,3/4+z
3/4+y,3/4+x,1/4+z
1/2+x,1/2+y,1/2+z
3/4-y,1/4+x,3/4+z
1/2-x,-y,1/2+z
3/4+y,3/4-x,1/4+z
1/2+x,1/2-y,1/2-z
1/2-x,y,1/2-z
3/4+y,1/4+x,3/4-z
3/4-y,3/4-x,1/4-z
1/2-x,1/2-y,1/2-z
1/4+y,3/4-x,1/4-z
1/2+x,y,1/2-z
1/4-y,1/4+x,3/4-z
1/2-x,1/2+y,1/2+z
1/2+x,-y,1/2+z
1/4-y,3/4-x,1/4+z
1/4+y,1/4+x,3/4+z
loop_
_atom_site_type_symbol
_atom_site_label
_atom_site_fract_x
_atom_site_fract_y
_atom_site_fract_z
Si Si1 0.923199 0.674577 0.237190
Si Si2 0.575230 0.325426 0.038236
Si Si3 0.818389 0.061575 0.289647
Si Si4 0.576258 0.041771 0.432455
Si Si5 0.209345 0.612574 0.065888
O O1 0.913176 0.750000 0.204686
O O2 0.869215 0.670075 0.300124
O O3 0.905031 0.608146 0.193088
O O4 0.000000 0.671463 0.257805
O O5 0.573698 0.323698 0.125000
O O6 0.500000 0.343064 0.014778
O O7 0.589660 0.250000 0.013826
O O8 0.632142 0.377635 0.020229
O O9 0.750000 0.077798 0.250000
O O10 0.810645 0.060645 0.375000
O O11 0.839907 0.989690 0.258959
O O12 0.500000 0.021840 0.431984
O O13 0.606277 0.000000 0.500000
O O14 0.601323 0.018568 0.356785
O O15 0.192895 0.557106 0.125000
#
# Coordination Sequence:
#
# PCOD9573141 Si02
#       5
#    32  32  32  32  32
#     4  10  23  43  67  98 136 177 228 282 329 393
#     4   8  16  37  67  94 122 160 209 264 323 390
#     4  11  26  42  66  96 131 172 222 279 338 399
#     4  10  21  40  64  97 134 174 220 272 337 404
#     4  12  25  40  69  93 133 179 227 274 335 408
#
# _framework density 21.042110000000001
#
# number of rings (size 3 to 8) (size 9 to 14) (size 15 to 20)
#    0.000    1.800    2.000    1.800    5.600    2.800 
#    0.000    2.000    0.000    2.400    0.000    0.000 
#    0.000    0.000    0.000    0.000    0.000    0.000 
#
# Total GULP energy -446032.620666 kJ/mol
# GULP energy per Si atom -5575.407758 kJ/mol
# Density = 2.099422 g / cm^3
# Si number density = 21.042110 Si / 1000 Ang^3
#
#
#
# Elastic Constant Matrix: (Units=GPa)
#
#
# Indices 1 2 3 4 5 6 
#
# 1 134.9883 78.6092 49.0382 0.0000 0.0000 0.0000
# 2 78.6092 134.9889 49.0383 0.0000 0.0000 0.0000
# 3 49.0382 49.0383 99.3618 0.0000 0.0000 0.0000
# 4 0.0000 0.0000 0.0000 20.7669 0.0000 0.0000
# 5 0.0000 0.0000 0.0000 0.0000 20.7667 0.0000
# 6 0.0000 0.0000 0.0000 0.0000 0.0000 35.0198
#
#
#
# Elastic Compliance Matrix: (Units=1/GPa)
#
#
# Indices 1 2 3 4 5 6 
#
# 1 0.011895 -0.005842 -0.002988 0.000000 0.000000 0.000000
# 2 -0.005842 0.011895 -0.002988 0.000000 0.000000 0.000000
# 3 -0.002988 -0.002988 0.013013 0.000000 0.000000 0.000000
# 4 0.000000 0.000000 0.000000 0.048154 0.000000 0.000000
# 5 0.000000 0.000000 0.000000 0.000000 0.048154 0.000000
# 6 0.000000 0.000000 0.000000 0.000000 0.000000 0.028555
#
#
# Mechanical properties :
#
#
# Convention : Reuss Voigt Hill
#
# Bulk Modulus (GPa) = 75.93137 80.30116 78.11626
# Shear Modulus (GPa) = 26.35875 28.15423 27.25649
#
# Velocity S-wave (km/s) = 3.54314 3.66183 3.60297
# Velocity P-wave (km/s) = 7.27339 7.49157 7.38329
#
# Compressibility (1/GPa) = 0.01316979
#
# Stress axis : x y z
#
# Youngs Moduli (GPa) = 84.06708 84.06753 76.84515
#
# Poissons Ratio (x) = 0.49110 0.22958
# Poissons Ratio (y) = 0.49110 0.22958
# Poissons Ratio (z) = 0.25116 0.25116
#
# Static dielectric constant tensor:
#      x y z
#    x 1.788230 0.000000 0.000000 
#    y 0.000000 1.788230 0.000000 
#    z 0.000000 0.000000 1.825250 
# 
# From -- ./inp_files/8567.got.cif
#   From: 2010.05.17/outbox.cif.g08.bks.cpg/sg141_5_cif.got.tgz:8567.got - 2010.05.20 13:30:51.
