data_PCOD9573089
_publ_section_title
;
Structure prediction by ZEFSAII (Michael W. Deem and Ramdas Pophale) SiO2 
 PCOD9573089
Probable space group: I 41/A M D
;
_chemical_formula_sum "Si O2"
_cell_formula_units_Z 192
_cell_length_a 20.164843
_cell_length_b 20.164843
_cell_length_c 25.549297
_cell_angle_alpha 90.000000
_cell_angle_beta 90.000000
_cell_angle_gamma 90.000000
_cell_volume 10388.877967
_symmetry_space_group_name_H-M "I 41/A M D"
_symmetry_group_IT_number 141
_space_group.IT_coordinate_system_code '2'
_symmetry_cell_setting 'tetragonal'
loop_
_space_group_symop_operation_xyz
x,y,z
1/4-y,3/4+x,1/4+z
-x,1/2-y,z
1/4+y,1/4-x,3/4+z
x,-y,-z
-x,1/2+y,-z
1/4+y,3/4+x,1/4-z
1/4-y,1/4-x,3/4-z
-x,-y,-z
3/4+y,1/4-x,3/4-z
x,1/2+y,-z
3/4-y,3/4+x,1/4-z
-x,y,z
x,1/2-y,z
3/4-y,1/4-x,3/4+z
3/4+y,3/4+x,1/4+z
1/2+x,1/2+y,1/2+z
3/4-y,1/4+x,3/4+z
1/2-x,-y,1/2+z
3/4+y,3/4-x,1/4+z
1/2+x,1/2-y,1/2-z
1/2-x,y,1/2-z
3/4+y,1/4+x,3/4-z
3/4-y,3/4-x,1/4-z
1/2-x,1/2-y,1/2-z
1/4+y,3/4-x,1/4-z
1/2+x,y,1/2-z
1/4-y,1/4+x,3/4-z
1/2-x,1/2+y,1/2+z
1/2+x,-y,1/2+z
1/4-y,3/4-x,1/4+z
1/4+y,1/4+x,3/4+z
loop_
_atom_site_type_symbol
_atom_site_label
_atom_site_fract_x
_atom_site_fract_y
_atom_site_fract_z
Si Si1 0.647733 0.921366 0.633544
Si Si2 0.575047 0.874721 0.823197
Si Si3 0.286815 0.564573 0.460911
Si Si4 0.920722 0.824542 0.785923
Si Si5 0.230800 0.676725 0.188628
Si Si6 0.220505 0.172984 0.049418
O O1 0.613454 0.875904 0.676496
O O2 0.689793 0.873562 0.595136
O O3 0.684874 0.978814 0.667297
O O4 0.592458 0.956631 0.597296
O O5 0.500000 0.851142 0.834121
O O6 0.616419 0.866419 0.875000
O O7 0.602237 0.834964 0.773647
O O8 0.572639 0.951134 0.808189
O O9 0.279824 0.500000 0.500000
O O10 0.359838 0.562110 0.435249
O O11 0.286490 0.630970 0.496000
O O12 0.907410 0.750000 0.803417
O O13 0.000000 0.835371 0.785363
O O14 0.204823 0.750000 0.174260
O O15 0.250000 0.679714 0.250000
O O16 0.195370 0.250000 0.048378
#
# Coordination Sequence:
#
# PCOD9573089 Si02
#       6
#    32  32  32  32  32  32
#     4  12  22  38  64  91 127 161 213 259 326 375
#     4  10  21  37  57  82 118 165 213 262 312 373
#     4  11  23  41  64  93 121 167 215 262 313 380
#     4  10  21  37  58  87 122 162 210 261 313 378
#     4  10  21  38  62  92 122 156 206 262 315 381
#     4  11  24  40  60  92 131 164 210 267 325 379
#
# _framework density 18.481304000000002
#
# number of rings (size 3 to 8) (size 9 to 14) (size 15 to 20)
#    0.000    1.333    5.000    2.000    2.333    1.500 
#    0.000    0.000    0.000    5.500    0.000    0.000 
#    0.000    0.000    0.000    0.000    0.000    0.000 
#
# Total GULP energy -535163.250564 kJ/mol
# GULP energy per Si atom -5574.617193 kJ/mol
# Density = 1.843924 g / cm^3
# Si number density = 18.481304 Si / 1000 Ang^3
#
#
#
# Elastic Constant Matrix: (Units=GPa)
#
#
# Indices 1 2 3 4 5 6 
#
# 1 100.7540 39.9765 38.7962 0.0000 0.0000 0.0000
# 2 39.9765 100.7540 38.7962 0.0000 0.0000 0.0000
# 3 38.7962 38.7962 73.0079 0.0000 0.0000 0.0000
# 4 0.0000 0.0000 0.0000 3.2168 0.0000 0.0000
# 5 0.0000 0.0000 0.0000 0.0000 3.2168 0.0000
# 6 0.0000 0.0000 0.0000 0.0000 0.0000 27.7043
#
#
#
# Elastic Compliance Matrix: (Units=1/GPa)
#
#
# Indices 1 2 3 4 5 6 
#
# 1 0.013252 -0.003202 -0.005341 0.000000 0.000000 0.000000
# 2 -0.003202 0.013252 -0.005341 0.000000 0.000000 0.000000
# 3 -0.005341 -0.005341 0.019373 0.000000 0.000000 0.000000
# 4 0.000000 0.000000 0.000000 0.310869 0.000000 0.000000
# 5 0.000000 0.000000 0.000000 0.000000 0.310869 0.000000
# 6 0.000000 0.000000 0.000000 0.000000 0.000000 0.036095
#
#
# Mechanical properties :
#
#
# Convention : Reuss Voigt Hill
#
# Bulk Modulus (GPa) = 55.21487 56.62822 55.92154
# Shear Modulus (GPa) = 6.77954 17.29072 12.03513
#
# Velocity S-wave (km/s) = 1.91736 3.06204 2.55464
# Velocity P-wave (km/s) = 5.90277 6.57334 6.24706
#
# Compressibility (1/GPa) = 0.01811106
#
# Stress axis : x y z
#
# Youngs Moduli (GPa) = 75.46063 75.46063 51.61747
#
# Poissons Ratio (x) = 0.24159 0.27568
# Poissons Ratio (y) = 0.24159 0.27568
# Poissons Ratio (z) = 0.40302 0.40302
#
# Static dielectric constant tensor:
#      x y z
#    x 1.654060 0.000000 0.000000 
#    y 0.000000 1.654060 0.000000 
#    z 0.000000 0.000000 1.660030 
# 
# From -- ./inp_files/11718.got.cif
#   From: 2010.05.17/outbox.cif.g08.bks.cpg/sg141_6_cif.got.tgz:11718.got - 2010.05.20 13:30:51.
