data_PCOD9573359
_publ_section_title
;
Structure prediction by ZEFSAII (Michael W. Deem and Ramdas Pophale) SiO2 
 PCOD9573359
Probable space group: I 41/A M D
;
_chemical_formula_sum "Si O2"
_cell_formula_units_Z 108
_cell_length_a 14.720727
_cell_length_b 14.720727
_cell_length_c 20.724445
_cell_angle_alpha 90.000000
_cell_angle_beta 90.000000
_cell_angle_gamma 90.000000
_cell_volume 4490.983157
_symmetry_space_group_name_H-M "I 41/A M D"
_symmetry_group_IT_number 141
_space_group.IT_coordinate_system_code '2'
_symmetry_cell_setting 'tetragonal'
loop_
_space_group_symop_operation_xyz
x,y,z
1/4-y,3/4+x,1/4+z
-x,1/2-y,z
1/4+y,1/4-x,3/4+z
x,-y,-z
-x,1/2+y,-z
1/4+y,3/4+x,1/4-z
1/4-y,1/4-x,3/4-z
-x,-y,-z
3/4+y,1/4-x,3/4-z
x,1/2+y,-z
3/4-y,3/4+x,1/4-z
-x,y,z
x,1/2-y,z
3/4-y,1/4-x,3/4+z
3/4+y,3/4+x,1/4+z
1/2+x,1/2+y,1/2+z
3/4-y,1/4+x,3/4+z
1/2-x,-y,1/2+z
3/4+y,3/4-x,1/4+z
1/2+x,1/2-y,1/2-z
1/2-x,y,1/2-z
3/4+y,1/4+x,3/4-z
3/4-y,3/4-x,1/4-z
1/2-x,1/2-y,1/2-z
1/4+y,3/4-x,1/4-z
1/2+x,y,1/2-z
1/4-y,1/4+x,3/4-z
1/2-x,1/2+y,1/2+z
1/2+x,-y,1/2+z
1/4-y,3/4-x,1/4+z
1/4+y,1/4+x,3/4+z
loop_
_atom_site_type_symbol
_atom_site_label
_atom_site_fract_x
_atom_site_fract_y
_atom_site_fract_z
Si Si1 0.124567 0.250000 0.498328
Si Si2 0.000000 0.449909 0.677642
Si Si3 0.000000 0.477669 0.075473
Si Si4 0.500000 0.750000 0.184188
Si Si5 0.129962 0.940370 0.440413
Si Si6 0.189812 0.560189 0.125000
Si Si7 0.000000 0.250000 0.375000
O O1 0.230375 0.250000 0.484813
O O2 0.102526 0.160610 0.537986
O O3 0.081873 0.250000 0.426376
O O4 0.000000 0.351070 0.708752
O O5 0.083757 0.461767 0.628064
O O6 0.000000 0.365653 0.086126
O O7 0.089152 0.529245 0.103508
O O8 0.000000 0.500000 0.000000
O O9 0.236668 0.956153 0.431331
O O10 0.098391 0.000000 0.500000
#
# Coordination Sequence:
#
# PCOD9573359 Si02
#       7
#    16  16  16   8  32  16   4
#     4  12  26  43  73 103 144 195 238 308 379 455
#     4  12  24  45  71 108 144 196 248 313 379 464
#     4  12  29  51  81 115 160 215 275 344 415 489
#     4  12  26  51  76 111 156 201 259 330 396 472
#     4  12  24  43  70 106 148 192 247 309 385 462
#     4  12  26  48  72 112 155 205 268 328 400 481
#     4  12  24  50  68 112 148 188 254 296 384 482
#
# _framework density 24.048186999999999
#
# number of rings (size 3 to 8) (size 9 to 14) (size 15 to 20)
#    0.000    0.000    2.963    7.556    4.148    1.481 
#    0.000    0.000    0.000    0.000    0.000    0.000 
#    0.000    0.000    0.000    0.000    0.000    0.000 
#
# Total GULP energy -301268.212508 kJ/mol
# GULP energy per Si atom -5579.040972 kJ/mol
# Density = 2.399345 g / cm^3
# Si number density = 24.048187 Si / 1000 Ang^3
#
#
#
# Elastic Constant Matrix: (Units=GPa)
#
#
# Indices 1 2 3 4 5 6 
#
# 1 184.1083 56.1902 28.1359 0.0000 0.0000 0.0000
# 2 56.1902 184.1100 28.1352 0.0000 0.0000 0.0000
# 3 28.1359 28.1352 93.2854 0.0000 0.0000 0.0000
# 4 0.0000 0.0000 0.0000 38.0837 0.0000 0.0000
# 5 0.0000 0.0000 0.0000 0.0000 38.0816 0.0000
# 6 0.0000 0.0000 0.0000 0.0000 0.0000 29.1375
#
#
#
# Elastic Compliance Matrix: (Units=1/GPa)
#
#
# Indices 1 2 3 4 5 6 
#
# 1 0.006148 -0.001670 -0.001351 0.000000 0.000000 0.000000
# 2 -0.001670 0.006148 -0.001350 0.000000 0.000000 0.000000
# 3 -0.001351 -0.001350 0.011534 0.000000 0.000000 0.000000
# 4 0.000000 0.000000 0.000000 0.026258 0.000000 0.000000
# 5 0.000000 0.000000 0.000000 0.000000 0.026259 0.000000
# 6 0.000000 0.000000 0.000000 0.000000 0.000000 0.034320
#
#
# Mechanical properties :
#
#
# Convention : Reuss Voigt Hill
#
# Bulk Modulus (GPa) = 66.27857 76.26961 71.27409
# Shear Modulus (GPa) = 40.18065 44.33007 42.25536
#
# Velocity S-wave (km/s) = 4.09202 4.29812 4.19634
# Velocity P-wave (km/s) = 7.06730 7.51106 7.29256
#
# Compressibility (1/GPa) = 0.01508783
#
# Stress axis : x y z
#
# Youngs Moduli (GPa) = 162.66441 162.66638 86.69689
#
# Poissons Ratio (x) = 0.27163 0.11709
# Poissons Ratio (y) = 0.27163 0.11708
# Poissons Ratio (z) = 0.21969 0.21968
#
# Static dielectric constant tensor:
#      x y z
#    x 1.990460 0.000000 0.000000 
#    y 0.000000 1.990450 0.000000 
#    z 0.000000 0.000000 1.868290 
# 
# From -- ./inp_files/11211.got.cif
#   From: 2010.05.17/outbox.cif.g08.bks.cpg/sg141_6_cif.got.tgz:11211.got - 2010.05.20 13:30:51.
