data_PCOD9573411
_publ_section_title
;
Structure prediction by ZEFSAII (Michael W. Deem and Ramdas Pophale) SiO2 
 PCOD9573411
Probable space group: I 41/A C D
;
_chemical_formula_sum "Si O2"
_cell_formula_units_Z 112
_cell_length_a 16.828167
_cell_length_b 16.828167
_cell_length_c 16.597163
_cell_angle_alpha 90.000000
_cell_angle_beta 90.000000
_cell_angle_gamma 90.000000
_cell_volume 4700.104194
_symmetry_space_group_name_H-M "I 41/A C D"
_symmetry_group_IT_number 142
_space_group.IT_coordinate_system_code '2'
_symmetry_cell_setting 'tetragonal'
loop_
_space_group_symop_operation_xyz
x,y,z
1/4-y,3/4+x,1/4+z
-x,1/2-y,z
1/4+y,1/4-x,3/4+z
x,-y,1/2-z
1/2-x,y,-z
3/4+y,1/4+x,1/4-z
1/4-y,1/4-x,1/4-z
-x,-y,-z
3/4+y,1/4-x,3/4-z
x,1/2+y,-z
3/4-y,3/4+x,1/4-z
-x,y,1/2+z
1/2+x,-y,z
1/4-y,3/4-x,3/4+z
3/4+y,3/4+x,3/4+z
1/2+x,1/2+y,1/2+z
3/4-y,1/4+x,3/4+z
1/2-x,-y,1/2+z
3/4+y,3/4-x,1/4+z
1/2+x,1/2-y,-z
-x,1/2+y,1/2-z
1/4+y,3/4+x,3/4-z
3/4-y,3/4-x,3/4-z
1/2-x,1/2-y,1/2-z
1/4+y,3/4-x,1/4-z
1/2+x,y,1/2-z
1/4-y,1/4+x,3/4-z
1/2-x,1/2+y,z
x,1/2-y,1/2+z
3/4-y,1/4-x,1/4+z
1/4+y,1/4+x,1/4+z
loop_
_atom_site_type_symbol
_atom_site_label
_atom_site_fract_x
_atom_site_fract_y
_atom_site_fract_z
Si Si1 0.299546 0.919234 0.357333
Si Si2 0.750000 0.294776 0.000000
Si Si3 0.957486 0.327919 0.217346
Si Si4 0.778479 0.334613 0.279278
O O1 0.271859 0.848880 0.420237
O O2 0.282886 0.891606 0.267113
O O3 0.385107 0.955680 0.380456
O O4 0.237467 0.987467 0.375000
O O5 0.665076 0.253707 0.979298
O O6 0.944389 0.305612 0.125000
O O7 0.867857 0.339709 0.246550
O O8 0.000000 0.250000 0.255562
O O9 0.750000 0.250000 0.250000
#
# Coordination Sequence:
#
# PCOD9573411 Si02
#       4
#    32  16  32  32
#     4  11  18  40  72  92 122 187 235 294 352 443
#     4  10  16  34  68  90 128 174 236 276 376 428
#     4  10  19  36  64  92 129 174 227 289 359 434
#     4  11  23  41  63 100 141 177 240 294 369 449
#
# _framework density 23.829259
#
# number of rings (size 3 to 8) (size 9 to 14) (size 15 to 20)
#    0.000    1.429    8.571    0.000    0.000    0.000 
#   15.429    0.000    0.000    0.000    0.000    0.000 
#    0.000    0.000    0.000    0.000    0.000    0.143 
#
# Total GULP energy -311922.325292 kJ/mol
# GULP energy per Si atom -5570.041523 kJ/mol
# Density = 2.377502 g / cm^3
# Si number density = 23.829259 Si / 1000 Ang^3
#
#
#
# Elastic Constant Matrix: (Units=GPa)
#
#
# Indices 1 2 3 4 5 6 
#
# 1 68.5351 93.0054 27.2319 0.0000 0.0000 0.0000
# 2 93.0054 68.5385 27.2312 0.0000 0.0000 0.0000
# 3 27.2319 27.2312 66.4177 0.0000 0.0000 0.0000
# 4 0.0000 0.0000 0.0000-4944.0712 -0.0012 0.0000
# 5 0.0000 0.0000 0.0000 -0.0012-4945.8547 0.0000
# 6 0.0000 0.0000 0.0000 0.0000 0.0000 48.6083
#
#
#
# Elastic Compliance Matrix: (Units=1/GPa)
#
#
# Indices 1 2 3 4 5 6 
#
# 1 -0.016843 0.024026 -0.002945 0.000000 0.000000 0.000000
# 2 0.024026 -0.016842 -0.002946 0.000000 0.000000 0.000000
# 3 -0.002945 -0.002946 0.017471 0.000000 0.000000 0.000000
# 4 0.000000 0.000000 0.000000 -0.000202 0.000000 0.000000
# 5 0.000000 0.000000 0.000000 0.000000 -0.000202 0.000000
# 6 0.000000 0.000000 0.000000 0.000000 0.000000 0.020573
#
#
# Mechanical properties :
#
#
# Convention : Reuss Voigt Hill
#
# Bulk Modulus (GPa) = 49.85753 55.38093 52.61923
# Shear Modulus (GPa) = -195.07216 -1964.52865 -1079.80040
#
# Velocity S-wave (km/s) = -9.05760 -28.74384 -21.31019
# Velocity P-wave (km/s) = 9.40312 32.83778 24.15304
#
# Compressibility (1/GPa) = 0.02005715
#
# Stress axis : x y z
#
# Youngs Moduli (GPa) = -59.37075 -59.37496 57.23676
#
# Poissons Ratio (x) = 1.42654 0.16855
# Poissons Ratio (y) = 1.42644 0.16860
# Poissons Ratio (z) = -0.17483 -0.17490
#
# Static dielectric constant tensor:
#      x y z
#    x 2.216000 0.000000 0.000000 
#    y 0.000000 2.216040 0.000000 
#    z 0.000000 0.000000 1.950480 
# 
# From -- ./inp_files/6827.got.cif
#   From: 2010.05.17/outbox.cif.g08.bks.cpg/sg142_4_cif.got.tgz:6827.got - 2010.05.20 13:39:18.
