data_PCOD9573994
_publ_section_title
;
Structure prediction by ZEFSAII (Michael W. Deem and Ramdas Pophale) SiO2 
 PCOD9573994
Probable space group: I 41/A C D
;
_chemical_formula_sum "Si O2"
_cell_formula_units_Z 160
_cell_length_a 22.202936
_cell_length_b 22.202936
_cell_length_c 13.713541
_cell_angle_alpha 90.000000
_cell_angle_beta 90.000000
_cell_angle_gamma 90.000000
_cell_volume 6760.369340
_symmetry_space_group_name_H-M "I 41/A C D"
_symmetry_group_IT_number 142
_space_group.IT_coordinate_system_code '2'
_symmetry_cell_setting 'tetragonal'
loop_
_space_group_symop_operation_xyz
x,y,z
1/4-y,3/4+x,1/4+z
-x,1/2-y,z
1/4+y,1/4-x,3/4+z
x,-y,1/2-z
1/2-x,y,-z
3/4+y,1/4+x,1/4-z
1/4-y,1/4-x,1/4-z
-x,-y,-z
3/4+y,1/4-x,3/4-z
x,1/2+y,-z
3/4-y,3/4+x,1/4-z
-x,y,1/2+z
1/2+x,-y,z
1/4-y,3/4-x,3/4+z
3/4+y,3/4+x,3/4+z
1/2+x,1/2+y,1/2+z
3/4-y,1/4+x,3/4+z
1/2-x,-y,1/2+z
3/4+y,3/4-x,1/4+z
1/2+x,1/2-y,-z
-x,1/2+y,1/2-z
1/4+y,3/4+x,3/4-z
3/4-y,3/4-x,3/4-z
1/2-x,1/2-y,1/2-z
1/4+y,3/4-x,1/4-z
1/2+x,y,1/2-z
1/4-y,1/4+x,3/4-z
1/2-x,1/2+y,z
x,1/2-y,1/2+z
3/4-y,1/4-x,1/4+z
1/4+y,1/4+x,1/4+z
loop_
_atom_site_type_symbol
_atom_site_label
_atom_site_fract_x
_atom_site_fract_y
_atom_site_fract_z
Si Si1 0.790999 0.864970 0.754826
Si Si2 0.374028 0.288920 0.402782
Si Si3 0.066126 0.419718 0.043139
Si Si4 0.597024 0.723914 0.383730
Si Si5 0.678592 0.564359 0.303327
O O1 0.832939 0.831329 0.833070
O O2 0.741796 0.818845 0.709613
O O3 0.748082 0.913941 0.808839
O O4 0.817129 0.897734 0.658949
O O5 0.442187 0.307814 0.375000
O O6 0.357123 0.220445 0.381919
O O7 0.371100 0.297556 0.517771
O O8 0.028643 0.394504 0.952050
O O9 0.134668 0.401720 0.018194
O O10 0.540557 0.680867 0.358594
O O11 0.673855 0.500000 0.250000
#
# Coordination Sequence:
#
# PCOD9573994 Si02
#       5
#    32  32  32  32  32
#     4  10  25  45  75 110 157 202 261 311 394 465
#     4  12  24  47  77 108 154 199 251 327 390 464
#     4  10  25  47  75 110 156 194 260 308 392 457
#     4  11  25  46  73 109 149 198 260 319 386 467
#     4  10  23  45  76 111 154 204 257 319 383 470
#
# _framework density 23.667345999999998
#
# number of rings (size 3 to 8) (size 9 to 14) (size 15 to 20)
#    1.200    0.200    2.000    2.400    0.000    6.400 
#    0.000    0.000    0.000    0.000    0.000    0.000 
#    0.000    0.000    0.000    0.000    0.000    0.000 
#
# Total GULP energy -446894.189484 kJ/mol
# GULP energy per Si atom -5586.177369 kJ/mol
# Density = 2.361348 g / cm^3
# Si number density = 23.667346 Si / 1000 Ang^3
#
#
#
# Elastic Constant Matrix: (Units=GPa)
#
#
# Indices 1 2 3 4 5 6 
#
# 1 146.8397 38.5281 46.6373 0.0000 0.0000 0.0000
# 2 38.5281 146.8383 46.6386 0.0000 0.0000 0.0000
# 3 46.6373 46.6386 122.6613 0.0000 0.0000 0.0000
# 4 0.0000 0.0000 0.0000 -16.2240 0.0000 0.0000
# 5 0.0000 0.0000 0.0000 0.0000 -16.2298 0.0000
# 6 0.0000 0.0000 0.0000 0.0000 0.0000 38.9170
#
#
#
# Elastic Compliance Matrix: (Units=1/GPa)
#
#
# Indices 1 2 3 4 5 6 
#
# 1 0.007952 -0.001281 -0.002536 0.000000 0.000000 0.000000
# 2 -0.001281 0.007952 -0.002537 0.000000 0.000000 0.000000
# 3 -0.002536 -0.002537 0.010081 0.000000 0.000000 0.000000
# 4 0.000000 0.000000 0.000000 -0.061637 0.000000 0.000000
# 5 0.000000 0.000000 0.000000 0.000000 -0.061615 0.000000
# 6 0.000000 0.000000 0.000000 0.000000 0.000000 0.025696
#
#
# Mechanical properties :
#
#
# Convention : Reuss Voigt Hill
#
# Bulk Modulus (GPa) = 75.31470 75.54970 75.43220
# Shear Modulus (GPa) = -91.84719 20.26167 -35.79276
#
# Velocity S-wave (km/s) = -6.23633 2.92910 -3.89308
# Velocity P-wave (km/s) = 4.46816 6.59016 3.42533
#
# Compressibility (1/GPa) = 0.01327762
#
# Stress axis : x y z
#
# Youngs Moduli (GPa) = 125.75805 125.75572 99.19325
#
# Poissons Ratio (x) = 0.16107 0.25159
# Poissons Ratio (y) = 0.16107 0.25161
# Poissons Ratio (z) = 0.31897 0.31898
#
# Static dielectric constant tensor:
#      x y z
#    x 1.955550 0.000000 0.000000 
#    y 0.000000 1.955550 0.000000 
#    z 0.000000 0.000000 1.977980 
# 
# From -- ./inp_files/3846.got.cif
#   From: 2010.05.17/outbox.cif.g08.bks.cpg/sg142_2_cif.got.tgz:3846.got - 2010.05.20 13:39:18.
