data_PCOD9573959
_publ_section_title
;
Structure prediction by ZEFSAII (Michael W. Deem and Ramdas Pophale) SiO2 
 PCOD9573959
Probable space group: I 41/A C D
;
_chemical_formula_sum "Si O2"
_cell_formula_units_Z 176
_cell_length_a 17.689616
_cell_length_b 17.689616
_cell_length_c 27.254849
_cell_angle_alpha 90.000000
_cell_angle_beta 90.000000
_cell_angle_gamma 90.000000
_cell_volume 8528.655874
_symmetry_space_group_name_H-M "I 41/A C D"
_symmetry_group_IT_number 142
_space_group.IT_coordinate_system_code '2'
_symmetry_cell_setting 'tetragonal'
loop_
_space_group_symop_operation_xyz
x,y,z
1/4-y,3/4+x,1/4+z
-x,1/2-y,z
1/4+y,1/4-x,3/4+z
x,-y,1/2-z
1/2-x,y,-z
3/4+y,1/4+x,1/4-z
1/4-y,1/4-x,1/4-z
-x,-y,-z
3/4+y,1/4-x,3/4-z
x,1/2+y,-z
3/4-y,3/4+x,1/4-z
-x,y,1/2+z
1/2+x,-y,z
1/4-y,3/4-x,3/4+z
3/4+y,3/4+x,3/4+z
1/2+x,1/2+y,1/2+z
3/4-y,1/4+x,3/4+z
1/2-x,-y,1/2+z
3/4+y,3/4-x,1/4+z
1/2+x,1/2-y,-z
-x,1/2+y,1/2-z
1/4+y,3/4+x,3/4-z
3/4-y,3/4-x,3/4-z
1/2-x,1/2-y,1/2-z
1/4+y,3/4-x,1/4-z
1/2+x,y,1/2-z
1/4-y,1/4+x,3/4-z
1/2-x,1/2+y,z
x,1/2-y,1/2+z
3/4-y,1/4-x,1/4+z
1/4+y,1/4+x,1/4+z
loop_
_atom_site_type_symbol
_atom_site_label
_atom_site_fract_x
_atom_site_fract_y
_atom_site_fract_z
Si Si1 0.614717 0.743635 0.146702
Si Si2 0.385400 0.359695 0.164564
Si Si3 0.786386 0.149298 0.596148
Si Si4 0.619458 0.802428 0.438151
Si Si5 0.839883 0.751346 0.742261
Si Si6 0.250000 0.725804 0.000000
O O1 0.554968 0.804968 0.125000
O O2 0.585433 0.664568 0.125000
O O3 0.693289 0.774635 0.125932
O O4 0.618706 0.747530 0.205092
O O5 0.382377 0.448452 0.155568
O O6 0.471539 0.332849 0.174489
O O7 0.351948 0.327094 0.114970
O O8 0.347172 0.329484 0.213061
O O9 0.834023 0.084023 0.625000
O O10 0.796979 0.173847 0.538958
O O11 0.564085 0.866962 0.460309
O O12 0.688390 0.778534 0.473295
O O13 0.750000 0.750000 0.750000
#
# Coordination Sequence:
#
# PCOD9573959 Si02
#       6
#    32  32  32  32  32  16
#     4  10  23  39  67 100 132 170 226 287 342 416
#     4  11  24  43  71  96 140 184 241 285 348 431
#     4  10  23  43  65 101 137 182 229 282 357 432
#     4  11  23  45  68 101 129 186 233 290 344 429
#     4  12  26  43  66 103 138 179 233 297 357 414
#     4  10  24  42  74  96 138 186 234 288 360 422
#
# _framework density 20.636310999999999
#
# number of rings (size 3 to 8) (size 9 to 14) (size 15 to 20)
#    0.000    1.273    1.818    2.727   17.818    0.000 
#    3.273    0.000    0.000    0.000    0.000    0.000 
#    0.000    0.000    0.000    0.000    0.000    0.000 
#
# Total GULP energy -490119.005001 kJ/mol
# GULP energy per Si atom -5569.534148 kJ/mol
# Density = 2.058934 g / cm^3
# Si number density = 20.636311 Si / 1000 Ang^3
#
#
#
# Elastic Constant Matrix: (Units=GPa)
#
#
# Indices 1 2 3 4 5 6 
#
# 1 119.5114 55.0768 50.6591 0.0000 0.0000 0.0000
# 2 55.0768 119.5132 50.6598 0.0000 0.0000 0.0000
# 3 50.6591 50.6598 158.4512 0.0000 0.0000 0.0000
# 4 0.0000 0.0000 0.0000 41.7469 0.0000 0.0000
# 5 0.0000 0.0000 0.0000 0.0000 41.7462 0.0000
# 6 0.0000 0.0000 0.0000 0.0000 0.0000 14.2385
#
#
#
# Elastic Compliance Matrix: (Units=1/GPa)
#
#
# Indices 1 2 3 4 5 6 
#
# 1 0.011276 -0.004243 -0.002248 0.000000 0.000000 0.000000
# 2 -0.004243 0.011276 -0.002248 0.000000 0.000000 0.000000
# 3 -0.002248 -0.002248 0.007749 0.000000 0.000000 0.000000
# 4 0.000000 0.000000 0.000000 0.023954 0.000000 0.000000
# 5 0.000000 0.000000 0.000000 0.000000 0.023954 0.000000
# 6 0.000000 0.000000 0.000000 0.000000 0.000000 0.070232
#
#
# Mechanical properties :
#
#
# Convention : Reuss Voigt Hill
#
# Bulk Modulus (GPa) = 78.00177 78.91860 78.46018
# Shear Modulus (GPa) = 29.37806 35.61833 32.49819
#
# Velocity S-wave (km/s) = 3.77717 4.15903 3.97269
# Velocity P-wave (km/s) = 7.54341 7.83511 7.69064
#
# Compressibility (1/GPa) = 0.01282022
#
# Stress axis : x y z
#
# Youngs Moduli (GPa) = 88.68351 88.68472 129.05212
#
# Poissons Ratio (x) = 0.37633 0.29016
# Poissons Ratio (y) = 0.37632 0.29017
# Poissons Ratio (z) = 0.19940 0.19940
#
# Static dielectric constant tensor:
#      x y z
#    x 1.649890 0.000000 0.000000 
#    y 0.000000 1.649850 0.000000 
#    z 0.000000 0.000000 1.789130 
# 
# From -- ./inp_files/11421.got.cif
#   From: 2010.05.17/outbox.cif.g08.bks.cpg/sg142_6_cif.got.tgz:11421.got - 2010.05.20 13:39:18.
