data_PCOD9573975
_publ_section_title
;
Structure prediction by ZEFSAII (Michael W. Deem and Ramdas Pophale) SiO2 
 PCOD9573975
Probable space group: I 41/A C D
;
_chemical_formula_sum "Si O2"
_cell_formula_units_Z 96
_cell_length_a 28.627781
_cell_length_b 28.627781
_cell_length_c 4.961226
_cell_angle_alpha 90.000000
_cell_angle_beta 90.000000
_cell_angle_gamma 90.000000
_cell_volume 4065.971999
_symmetry_space_group_name_H-M "I 41/A C D"
_symmetry_group_IT_number 142
_space_group.IT_coordinate_system_code '2'
_symmetry_cell_setting 'tetragonal'
loop_
_space_group_symop_operation_xyz
x,y,z
1/4-y,3/4+x,1/4+z
-x,1/2-y,z
1/4+y,1/4-x,3/4+z
x,-y,1/2-z
1/2-x,y,-z
3/4+y,1/4+x,1/4-z
1/4-y,1/4-x,1/4-z
-x,-y,-z
3/4+y,1/4-x,3/4-z
x,1/2+y,-z
3/4-y,3/4+x,1/4-z
-x,y,1/2+z
1/2+x,-y,z
1/4-y,3/4-x,3/4+z
3/4+y,3/4+x,3/4+z
1/2+x,1/2+y,1/2+z
3/4-y,1/4+x,3/4+z
1/2-x,-y,1/2+z
3/4+y,3/4-x,1/4+z
1/2+x,1/2-y,-z
-x,1/2+y,1/2-z
1/4+y,3/4+x,3/4-z
3/4-y,3/4-x,3/4-z
1/2-x,1/2-y,1/2-z
1/4+y,3/4-x,1/4-z
1/2+x,y,1/2-z
1/4-y,1/4+x,3/4-z
1/2-x,1/2+y,z
x,1/2-y,1/2+z
3/4-y,1/4-x,1/4+z
1/4+y,1/4+x,1/4+z
loop_
_atom_site_type_symbol
_atom_site_label
_atom_site_fract_x
_atom_site_fract_y
_atom_site_fract_z
Si Si1 0.177432 0.000000 0.250000
Si Si2 0.607529 0.642472 0.125000
Si Si3 0.906921 0.958693 0.423691
Si Si4 0.531950 0.892487 0.271361
O O1 0.210609 0.039392 0.125000
O O2 0.142006 0.022989 0.462450
O O3 0.660494 0.646714 0.014359
O O4 0.605327 0.681032 0.357512
O O5 0.941088 0.940753 0.660044
O O6 0.928217 0.000000 0.250000
O O7 0.487788 0.889080 0.473859
#
# Coordination Sequence:
#
# PCOD9573975 Si02
#       4
#    16  16  32  32
#     4  12  28  38  66  94 142 192 246 288 344 422
#     4   8  22  42  66  95 144 174 224 294 342 416
#     4  10  23  42  66  96 134 180 227 289 351 413
#     4  10  24  43  71 103 136 184 234 290 356 423
#
# _framework density 23.610590999999999
#
# number of rings (size 3 to 8) (size 9 to 14) (size 15 to 20)
#    2.000    0.000    0.000    2.000    9.333    2.667 
#    0.000    0.000    0.000    3.000    0.000    0.000 
#    0.000    0.000    0.000    0.000    0.000    0.000 
#
# Total GULP energy -268089.915362 kJ/mol
# GULP energy per Si atom -5585.206570 kJ/mol
# Density = 2.355685 g / cm^3
# Si number density = 23.610591 Si / 1000 Ang^3
#
#
#
# Elastic Constant Matrix: (Units=GPa)
#
#
# Indices 1 2 3 4 5 6 
#
# 1 112.9578 31.3929 27.2853 0.0000 0.0000 0.0000
# 2 31.3929 112.9535 27.2815 0.0000 0.0000 0.0000
# 3 27.2853 27.2815 68.7178 0.0000 0.0000 0.0000
# 4 0.0000 0.0000 0.0000 17.1615 0.0000 0.0000
# 5 0.0000 0.0000 0.0000 0.0000 17.1674 0.0000
# 6 0.0000 0.0000 0.0000 0.0000 0.0000 -4.6830
#
#
#
# Elastic Compliance Matrix: (Units=1/GPa)
#
#
# Indices 1 2 3 4 5 6 
#
# 1 0.010206 -0.002055 -0.003237 0.000000 0.000000 0.000000
# 2 -0.002055 0.010206 -0.003236 0.000000 0.000000 0.000000
# 3 -0.003237 -0.003236 0.017122 0.000000 0.000000 0.000000
# 4 0.000000 0.000000 0.000000 0.058270 0.000000 0.000000
# 5 0.000000 0.000000 0.000000 0.000000 0.058250 0.000000
# 6 0.000000 0.000000 0.000000 0.000000 0.000000 -0.213540
#
#
# Mechanical properties :
#
#
# Convention : Reuss Voigt Hill
#
# Bulk Modulus (GPa) = 48.83012 51.83871 50.33442
# Shear Modulus (GPa) = -140.42736 19.84048 -60.29344
#
# Velocity S-wave (km/s) = -7.72046 2.90197 -5.05886
# Velocity P-wave (km/s) = 7.66471 5.76472 3.57182
#
# Compressibility (1/GPa) = 0.02047916
#
# Stress axis : x y z
#
# Youngs Moduli (GPa) = 97.98437 97.98311 58.40414
#
# Poissons Ratio (x) = 0.20133 0.18903
# Poissons Ratio (y) = 0.20133 0.18899
# Poissons Ratio (z) = 0.31713 0.31707
#
# Static dielectric constant tensor:
#      x y z
#    x 1.896530 0.000000 0.000000 
#    y 0.000000 1.896540 0.000000 
#    z 0.000000 0.000000 1.948780 
# 
# From -- ./inp_files/683.got.cif
#   From: 2010.05.17/outbox.cif.g08.bks.cpg/sg142_1_cif.got.tgz:683.got - 2010.05.20 13:39:18.
