data_PCOD9573838
_publ_section_title
;
Structure prediction by ZEFSAII (Michael W. Deem and Ramdas Pophale) SiO2 
 PCOD9573838
Probable space group: I 41/A C D
;
_chemical_formula_sum "Si O2"
_cell_formula_units_Z 80
_cell_length_a 13.075974
_cell_length_b 13.075974
_cell_length_c 20.011162
_cell_angle_alpha 90.000000
_cell_angle_beta 90.000000
_cell_angle_gamma 90.000000
_cell_volume 3421.530412
_symmetry_space_group_name_H-M "I 41/A C D"
_symmetry_group_IT_number 142
_space_group.IT_coordinate_system_code '2'
_symmetry_cell_setting 'tetragonal'
loop_
_space_group_symop_operation_xyz
x,y,z
1/4-y,3/4+x,1/4+z
-x,1/2-y,z
1/4+y,1/4-x,3/4+z
x,-y,1/2-z
1/2-x,y,-z
3/4+y,1/4+x,1/4-z
1/4-y,1/4-x,1/4-z
-x,-y,-z
3/4+y,1/4-x,3/4-z
x,1/2+y,-z
3/4-y,3/4+x,1/4-z
-x,y,1/2+z
1/2+x,-y,z
1/4-y,3/4-x,3/4+z
3/4+y,3/4+x,3/4+z
1/2+x,1/2+y,1/2+z
3/4-y,1/4+x,3/4+z
1/2-x,-y,1/2+z
3/4+y,3/4-x,1/4+z
1/2+x,1/2-y,-z
-x,1/2+y,1/2-z
1/4+y,3/4+x,3/4-z
3/4-y,3/4-x,3/4-z
1/2-x,1/2-y,1/2-z
1/4+y,3/4-x,1/4-z
1/2+x,y,1/2-z
1/4-y,1/4+x,3/4-z
1/2-x,1/2+y,z
x,1/2-y,1/2+z
3/4-y,1/4-x,1/4+z
1/4+y,1/4+x,1/4+z
loop_
_atom_site_type_symbol
_atom_site_label
_atom_site_fract_x
_atom_site_fract_y
_atom_site_fract_z
Si Si1 0.250000 0.812727 0.500000
Si Si2 0.297026 0.707988 0.139697
Si Si3 0.386848 0.725328 0.272965
O O1 0.218315 0.749083 0.434476
O O2 0.351474 0.875127 0.477584
O O3 0.346070 0.596070 0.125000
O O4 0.372001 0.756100 0.195050
O O5 0.191572 0.716451 0.179751
O O6 0.500000 0.750000 0.294296
#
# Coordination Sequence:
#
# PCOD9573838 Si02
#       3
#    16  32  32
#     4  10  22  36  68 104 132 186 258 294 378 460
#     4   9  21  42  65  99 140 183 246 304 373 461
#     4  10  22  42  70  95 146 197 236 313 381 454
#
# _framework density 23.381347999999999
#
# number of rings (size 3 to 8) (size 9 to 14) (size 15 to 20)
#    0.000    2.400    0.000    0.000    5.600    7.200 
#    0.000   18.000   26.400    0.000    0.000    0.000 
#    0.000    0.000    0.000    0.000    0.000    0.000 
#
# Total GULP energy -222849.476553 kJ/mol
# GULP energy per Si atom -5571.236914 kJ/mol
# Density = 2.332813 g / cm^3
# Si number density = 23.381348 Si / 1000 Ang^3
#
#
#
# Elastic Constant Matrix: (Units=GPa)
#
#
# Indices 1 2 3 4 5 6 
#
# 1 117.7653 59.8580 50.4208 0.0000 0.0000 0.0000
# 2 59.8580 117.7653 50.4208 0.0000 0.0000 0.0000
# 3 50.4208 50.4208 218.0800 0.0000 0.0000 0.0000
# 4 0.0000 0.0000 0.0000 28.0224 0.0000 0.0000
# 5 0.0000 0.0000 0.0000 0.0000 28.0224 0.0000
# 6 0.0000 0.0000 0.0000 0.0000 0.0000 21.6396
#
#
#
# Elastic Compliance Matrix: (Units=1/GPa)
#
#
# Indices 1 2 3 4 5 6 
#
# 1 0.011875 -0.005394 -0.001498 0.000000 0.000000 0.000000
# 2 -0.005394 0.011875 -0.001498 0.000000 0.000000 0.000000
# 3 -0.001498 -0.001498 0.005278 0.000000 0.000000 0.000000
# 4 0.000000 0.000000 0.000000 0.035686 0.000000 0.000000
# 5 0.000000 0.000000 0.000000 0.000000 0.035686 0.000000
# 6 0.000000 0.000000 0.000000 0.000000 0.000000 0.046212
#
#
# Mechanical properties :
#
#
# Convention : Reuss Voigt Hill
#
# Bulk Modulus (GPa) = 81.65875 86.11221 83.88548
# Shear Modulus (GPa) = 29.85527 35.06427 32.45977
#
# Velocity S-wave (km/s) = 3.57723 3.87676 3.73000
# Velocity P-wave (km/s) = 7.21544 7.54642 7.38279
#
# Compressibility (1/GPa) = 0.01224608
#
# Stress axis : x y z
#
# Youngs Moduli (GPa) = 84.21234 84.21234 189.45468
#
# Poissons Ratio (x) = 0.45426 0.28386
# Poissons Ratio (y) = 0.45426 0.28386
# Poissons Ratio (z) = 0.12618 0.12618
#
# Static dielectric constant tensor:
#      x y z
#    x 1.905790 0.000000 0.000000 
#    y 0.000000 1.905790 0.000000 
#    z 0.000000 0.000000 1.966140 
# 
# From -- ./inp_files/8202.got.cif
#   From: 2010.05.17/outbox.cif.g08.bks.cpg/sg142_5_cif.got.tgz:8202.got - 2010.05.20 13:39:18.
