data_PCOD9573325
_publ_section_title
;
Structure prediction by ZEFSAII (Michael W. Deem and Ramdas Pophale) SiO2 
 PCOD9573325
Probable space group: I 41/A M D
;
_chemical_formula_sum "Si O2"
_cell_formula_units_Z 160
_cell_length_a 17.570390
_cell_length_b 17.570390
_cell_length_c 27.229414
_cell_angle_alpha 90.000000
_cell_angle_beta 90.000000
_cell_angle_gamma 90.000000
_cell_volume 8406.226698
_symmetry_space_group_name_H-M "I 41/A M D"
_symmetry_group_IT_number 141
_space_group.IT_coordinate_system_code '2'
_symmetry_cell_setting 'tetragonal'
loop_
_space_group_symop_operation_xyz
x,y,z
1/4-y,3/4+x,1/4+z
-x,1/2-y,z
1/4+y,1/4-x,3/4+z
x,-y,-z
-x,1/2+y,-z
1/4+y,3/4+x,1/4-z
1/4-y,1/4-x,3/4-z
-x,-y,-z
3/4+y,1/4-x,3/4-z
x,1/2+y,-z
3/4-y,3/4+x,1/4-z
-x,y,z
x,1/2-y,z
3/4-y,1/4-x,3/4+z
3/4+y,3/4+x,1/4+z
1/2+x,1/2+y,1/2+z
3/4-y,1/4+x,3/4+z
1/2-x,-y,1/2+z
3/4+y,3/4-x,1/4+z
1/2+x,1/2-y,1/2-z
1/2-x,y,1/2-z
3/4+y,1/4+x,3/4-z
3/4-y,3/4-x,1/4-z
1/2-x,1/2-y,1/2-z
1/4+y,3/4-x,1/4-z
1/2+x,y,1/2-z
1/4-y,1/4+x,3/4-z
1/2-x,1/2+y,1/2+z
1/2+x,-y,1/2+z
1/4-y,3/4-x,1/4+z
1/4+y,1/4+x,3/4+z
loop_
_atom_site_type_symbol
_atom_site_label
_atom_site_fract_x
_atom_site_fract_y
_atom_site_fract_z
Si Si1 0.348566 0.029299 0.869286
Si Si2 0.660459 0.457180 0.755938
Si Si3 0.776118 0.250000 0.331607
Si Si4 0.159279 0.835155 0.447269
Si Si5 0.372255 0.750000 0.738862
Si Si6 0.090622 0.840735 0.068986
O O1 0.356033 0.054720 0.813078
O O2 0.340044 0.102872 0.903902
O O3 0.276110 0.973891 0.875000
O O4 0.423672 0.983662 0.886769
O O5 0.750000 0.473336 0.750000
O O6 0.613069 0.528905 0.736431
O O7 0.636641 0.387333 0.721233
O O8 0.704620 0.250000 0.294050
O O9 0.848812 0.250000 0.295906
O O10 0.176908 0.750000 0.429848
O O11 0.076929 0.836690 0.472853
O O12 0.112372 0.862372 0.125000
O O13 0.105014 0.750000 0.063510
O O14 0.000000 0.852080 0.064205
#
# Coordination Sequence:
#
# PCOD9573325 Si02
#       6
#    32  32  16  32  16  32
#     4  11  23  42  62  93 132 169 211 264 327 386
#     4  12  25  39  64  94 128 166 215 266 321 377
#     4   9  20  36  66  90 124 168 210 255 326 384
#     4  11  24  42  67  95 128 172 218 267 321 389
#     4   9  19  40  66  92 120 170 214 261 317 390
#     4   9  21  43  67  92 128 172 212 260 322 382
#
# _framework density 19.033508999999999
#
# number of rings (size 3 to 8) (size 9 to 14) (size 15 to 20)
#    0.000    1.600    2.000    2.700    8.400    1.200 
#    0.000    0.000    0.000    0.000    0.000    0.000 
#    0.000    0.000    0.000    0.000    0.000    0.000 
#
# Total GULP energy -447006.710403 kJ/mol
# GULP energy per Si atom -5587.583880 kJ/mol
# Density = 1.899019 g / cm^3
# Si number density = 19.033509 Si / 1000 Ang^3
#
#
#
# Elastic Constant Matrix: (Units=GPa)
#
#
# Indices 1 2 3 4 5 6 
#
# 1 104.1822 40.5082 38.4839 0.0000 0.0000 0.0000
# 2 40.5082 104.1835 38.4874 0.0000 0.0000 0.0000
# 3 38.4839 38.4874 110.3468 0.0000 0.0000 0.0000
# 4 0.0000 0.0000 0.0000 14.2566 0.0000 0.0000
# 5 0.0000 0.0000 0.0000 0.0000 14.2559 0.0000
# 6 0.0000 0.0000 0.0000 0.0000 0.0000 23.4940
#
#
#
# Elastic Compliance Matrix: (Units=1/GPa)
#
#
# Indices 1 2 3 4 5 6 
#
# 1 0.012095 -0.003610 -0.002959 0.000000 0.000000 0.000000
# 2 -0.003610 0.012095 -0.002960 0.000000 0.000000 0.000000
# 3 -0.002959 -0.002960 0.011127 0.000000 0.000000 0.000000
# 4 0.000000 0.000000 0.000000 0.070143 0.000000 0.000000
# 5 0.000000 0.000000 0.000000 0.000000 0.070146 0.000000
# 6 0.000000 0.000000 0.000000 0.000000 0.000000 0.042564
#
#
# Mechanical properties :
#
#
# Convention : Reuss Voigt Hill
#
# Bulk Modulus (GPa) = 61.50101 61.51904 61.51003
# Shear Modulus (GPa) = 20.60598 23.81683 22.21141
#
# Velocity S-wave (km/s) = 3.29388 3.54122 3.41979
# Velocity P-wave (km/s) = 6.84458 7.00799 6.92677
#
# Compressibility (1/GPa) = 0.01625989
#
# Stress axis : x y z
#
# Youngs Moduli (GPa) = 82.67761 82.67654 89.87362
#
# Poissons Ratio (x) = 0.29843 0.26596
# Poissons Ratio (y) = 0.29843 0.26601
# Poissons Ratio (z) = 0.24467 0.24471
#
# Static dielectric constant tensor:
#      x y z
#    x 1.656080 0.000000 0.000000 
#    y 0.000000 1.656080 0.000000 
#    z 0.000000 0.000000 1.635540 
# 
# From -- ./inp_files/12811.got.cif
#   From: 2010.05.17/outbox.cif.g08.bks.cpg/sg141_7_cif.got.tgz:12811.got - 2010.05.20 13:30:51.
