data_PCOD9573563
_publ_section_title
;
Structure prediction by ZEFSAII (Michael W. Deem and Ramdas Pophale) SiO2 
 PCOD9573563
Probable space group: I 41/A C D
;
_chemical_formula_sum "Si O2"
_cell_formula_units_Z 160
_cell_length_a 16.349328
_cell_length_b 16.349328
_cell_length_c 28.017023
_cell_angle_alpha 90.000000
_cell_angle_beta 90.000000
_cell_angle_gamma 90.000000
_cell_volume 7488.964986
_symmetry_space_group_name_H-M "I 41/A C D"
_symmetry_group_IT_number 142
_space_group.IT_coordinate_system_code '2'
_symmetry_cell_setting 'tetragonal'
loop_
_space_group_symop_operation_xyz
x,y,z
1/4-y,3/4+x,1/4+z
-x,1/2-y,z
1/4+y,1/4-x,3/4+z
x,-y,1/2-z
1/2-x,y,-z
3/4+y,1/4+x,1/4-z
1/4-y,1/4-x,1/4-z
-x,-y,-z
3/4+y,1/4-x,3/4-z
x,1/2+y,-z
3/4-y,3/4+x,1/4-z
-x,y,1/2+z
1/2+x,-y,z
1/4-y,3/4-x,3/4+z
3/4+y,3/4+x,3/4+z
1/2+x,1/2+y,1/2+z
3/4-y,1/4+x,3/4+z
1/2-x,-y,1/2+z
3/4+y,3/4-x,1/4+z
1/2+x,1/2-y,-z
-x,1/2+y,1/2-z
1/4+y,3/4+x,3/4-z
3/4-y,3/4-x,3/4-z
1/2-x,1/2-y,1/2-z
1/4+y,3/4-x,1/4-z
1/2+x,y,1/2-z
1/4-y,1/4+x,3/4-z
1/2-x,1/2+y,z
x,1/2-y,1/2+z
3/4-y,1/4-x,1/4+z
1/4+y,1/4+x,1/4+z
loop_
_atom_site_type_symbol
_atom_site_label
_atom_site_fract_x
_atom_site_fract_y
_atom_site_fract_z
Si Si1 0.752291 0.165051 0.425004
Si Si2 0.900834 0.924299 0.026127
Si Si3 0.918736 0.719260 0.460868
Si Si4 0.175393 0.169729 0.473009
Si Si5 0.284756 0.319536 0.684008
O O1 0.813158 0.098427 0.450037
O O2 0.656285 0.170277 0.437506
O O3 0.788492 0.250648 0.445971
O O4 0.753864 0.159987 0.368360
O O5 0.971083 0.958047 0.061205
O O6 0.939436 0.840236 0.005104
O O7 0.899767 0.984293 0.980392
O O8 0.879680 0.799457 0.483490
O O9 0.000000 0.750000 0.434521
O O10 0.250000 0.124823 0.500000
O O11 0.118979 0.118850 0.438407
#
# Coordination Sequence:
#
# PCOD9573563 Si02
#       5
#    32  32  32  32  32
#     4  10  22  38  64  98 128 166 229 277 330 408
#     4  10  22  38  62  93 131 168 216 275 337 407
#     4  10  19  40  64  86 121 174 215 265 335 401
#     4   9  19  36  62  89 122 166 218 270 325 395
#     4  11  21  38  63  94 131 173 216 275 347 404
#
# _framework density 21.364768000000002
#
# number of rings (size 3 to 8) (size 9 to 14) (size 15 to 20)
#    0.000    2.000    2.000    3.000    0.000    2.400 
#    0.000    4.000    0.000    4.800    0.000    0.000 
#    0.000    0.000    0.000    0.000    0.000    0.000 
#
# Total GULP energy -445623.099909 kJ/mol
# GULP energy per Si atom -5570.288749 kJ/mol
# Density = 2.131614 g / cm^3
# Si number density = 21.364768 Si / 1000 Ang^3
#
#
#
# Elastic Constant Matrix: (Units=GPa)
#
#
# Indices 1 2 3 4 5 6 
#
# 1 79.4084 29.1362 27.1246 0.0000 0.0000 0.0000
# 2 29.1362 79.4084 27.1246 0.0000 0.0000 0.0000
# 3 27.1246 27.1246 103.0041 0.0000 0.0000 0.0000
# 4 0.0000 0.0000 0.0000 20.1785 0.0000 0.0000
# 5 0.0000 0.0000 0.0000 0.0000 20.1785 0.0000
# 6 0.0000 0.0000 0.0000 0.0000 0.0000 23.6368
#
#
#
# Elastic Compliance Matrix: (Units=1/GPa)
#
#
# Indices 1 2 3 4 5 6 
#
# 1 0.015250 -0.004641 -0.002794 0.000000 0.000000 0.000000
# 2 -0.004641 0.015250 -0.002794 0.000000 0.000000 0.000000
# 3 -0.002794 -0.002794 0.011180 0.000000 0.000000 0.000000
# 4 0.000000 0.000000 0.000000 0.049558 0.000000 0.000000
# 5 0.000000 0.000000 0.000000 0.000000 0.049558 0.000000
# 6 0.000000 0.000000 0.000000 0.000000 0.000000 0.042307
#
#
# Mechanical properties :
#
#
# Convention : Reuss Voigt Hill
#
# Bulk Modulus (GPa) = 47.11889 47.62131 47.37010
# Shear Modulus (GPa) = 23.73778 24.69447 24.21612
#
# Velocity S-wave (km/s) = 3.33689 3.40347 3.37034
# Velocity P-wave (km/s) = 6.07855 6.14677 6.11276
#
# Compressibility (1/GPa) = 0.02122291
#
# Stress axis : x y z
#
# Youngs Moduli (GPa) = 65.57210 65.57210 89.44764
#
# Poissons Ratio (x) = 0.30434 0.24989
# Poissons Ratio (y) = 0.30434 0.24989
# Poissons Ratio (z) = 0.18319 0.18319
#
# Static dielectric constant tensor:
#      x y z
#    x 1.852450 0.000000 0.000000 
#    y 0.000000 1.852450 0.000000 
#    z 0.000000 0.000000 1.753740 
# 
# From -- ./inp_files/12406.got.cif
#   From: 2010.05.17/outbox.cif.g08.bks.cpg/sg142_7_cif.got.tgz:12406.got - 2010.05.20 13:39:18.
