data_PCOD9573999
_publ_section_title
;
Structure prediction by ZEFSAII (Michael W. Deem and Ramdas Pophale) SiO2 
 PCOD9573999
Probable space group: I 41/A C D
;
_chemical_formula_sum "Si O2"
_cell_formula_units_Z 96
_cell_length_a 13.233172
_cell_length_b 13.233172
_cell_length_c 25.460556
_cell_angle_alpha 90.000000
_cell_angle_beta 90.000000
_cell_angle_gamma 90.000000
_cell_volume 4458.572141
_symmetry_space_group_name_H-M "I 41/A C D"
_symmetry_group_IT_number 142
_space_group.IT_coordinate_system_code '2'
_symmetry_cell_setting 'tetragonal'
loop_
_space_group_symop_operation_xyz
x,y,z
1/4-y,3/4+x,1/4+z
-x,1/2-y,z
1/4+y,1/4-x,3/4+z
x,-y,1/2-z
1/2-x,y,-z
3/4+y,1/4+x,1/4-z
1/4-y,1/4-x,1/4-z
-x,-y,-z
3/4+y,1/4-x,3/4-z
x,1/2+y,-z
3/4-y,3/4+x,1/4-z
-x,y,1/2+z
1/2+x,-y,z
1/4-y,3/4-x,3/4+z
3/4+y,3/4+x,3/4+z
1/2+x,1/2+y,1/2+z
3/4-y,1/4+x,3/4+z
1/2-x,-y,1/2+z
3/4+y,3/4-x,1/4+z
1/2+x,1/2-y,-z
-x,1/2+y,1/2-z
1/4+y,3/4+x,3/4-z
3/4-y,3/4-x,3/4-z
1/2-x,1/2-y,1/2-z
1/4+y,3/4-x,1/4-z
1/2+x,y,1/2-z
1/4-y,1/4+x,3/4-z
1/2-x,1/2+y,z
x,1/2-y,1/2+z
3/4-y,1/4-x,1/4+z
1/4+y,1/4+x,1/4+z
loop_
_atom_site_type_symbol
_atom_site_label
_atom_site_fract_x
_atom_site_fract_y
_atom_site_fract_z
Si Si1 0.755905 0.784257 0.356014
Si Si2 0.413214 0.163981 0.563955
Si Si3 0.610837 0.299686 0.447763
O O1 0.664293 0.835924 0.387719
O O2 0.697271 0.711817 0.315908
O O3 0.835955 0.850901 0.324232
O O4 0.819878 0.741149 0.405707
O O5 0.500000 0.250000 0.569417
O O6 0.361798 0.191480 0.508722
O O7 0.500000 0.250000 0.445551
#
# Coordination Sequence:
#
# PCOD9573999 Si02
#       3
#    32  32  32
#     4  11  19  40  62  88 122 162 204 254 304 362
#     4  11  21  40  66  91 122 163 207 254 307 369
#     4  10  24  41  62  90 130 166 200 255 313 373
#
# _framework density 21.531558
#
# number of rings (size 3 to 8) (size 9 to 14) (size 15 to 20)
#    0.000    1.333    3.333    4.000    0.000    0.000 
#   12.000    0.000   14.667    0.000    0.000    0.000 
#    0.000    0.000    0.000    0.000    0.000    0.000 
#
# Total GULP energy -267319.642394 kJ/mol
# GULP energy per Si atom -5569.159217 kJ/mol
# Density = 2.148255 g / cm^3
# Si number density = 21.531558 Si / 1000 Ang^3
#
#
#
# Elastic Constant Matrix: (Units=GPa)
#
#
# Indices 1 2 3 4 5 6 
#
# 1 73.9370 20.6304 10.2988 0.0000 0.0000 0.0000
# 2 20.6304 73.9370 10.2988 0.0000 0.0000 0.0000
# 3 10.2988 10.2988 114.6577 0.0000 0.0000 0.0000
# 4 0.0000 0.0000 0.0000 22.4397 0.0000 0.0000
# 5 0.0000 0.0000 0.0000 0.0000 22.4397 0.0000
# 6 0.0000 0.0000 0.0000 0.0000 0.0000 12.0445
#
#
#
# Elastic Compliance Matrix: (Units=1/GPa)
#
#
# Indices 1 2 3 4 5 6 
#
# 1 0.014772 -0.003987 -0.000969 0.000000 0.000000 0.000000
# 2 -0.003987 0.014772 -0.000969 0.000000 0.000000 0.000000
# 3 -0.000969 -0.000969 0.008896 0.000000 0.000000 0.000000
# 4 0.000000 0.000000 0.000000 0.044564 0.000000 0.000000
# 5 0.000000 0.000000 0.000000 0.000000 0.044564 0.000000
# 6 0.000000 0.000000 0.000000 0.000000 0.000000 0.083026
#
#
# Mechanical properties :
#
#
# Convention : Reuss Voigt Hill
#
# Bulk Modulus (GPa) = 37.60598 38.33194 37.96896
# Shear Modulus (GPa) = 21.61630 26.13835 23.87732
#
# Velocity S-wave (km/s) = 3.17193 3.48797 3.33370
# Velocity P-wave (km/s) = 5.56042 5.83631 5.70004
#
# Compressibility (1/GPa) = 0.02659152
#
# Stress axis : x y z
#
# Youngs Moduli (GPa) = 67.69365 67.69364 112.41455
#
# Poissons Ratio (x) = 0.26989 0.10890
# Poissons Ratio (y) = 0.26989 0.10890
# Poissons Ratio (z) = 0.06558 0.06558
#
# Static dielectric constant tensor:
#      x y z
#    x 1.812770 0.000000 0.000000 
#    y 0.000000 1.812770 0.000000 
#    z 0.000000 0.000000 1.832430 
# 
# From -- ./inp_files/12059.got.cif
#   From: 2010.05.17/outbox.cif.g08.bks.cpg/sg142_7_cif.got.tgz:12059.got - 2010.05.20 13:39:18.
