data_PCOD9573507
_publ_section_title
;
Structure prediction by ZEFSAII (Michael W. Deem and Ramdas Pophale) SiO2 
 PCOD9573507
Probable space group: I 41/A C D
;
_chemical_formula_sum "Si O2"
_cell_formula_units_Z 120
_cell_length_a 29.267244
_cell_length_b 29.267244
_cell_length_c 8.219832
_cell_angle_alpha 90.000000
_cell_angle_beta 90.000000
_cell_angle_gamma 90.000000
_cell_volume 7040.874413
_symmetry_space_group_name_H-M "I 41/A C D"
_symmetry_group_IT_number 142
_space_group.IT_coordinate_system_code '2'
_symmetry_cell_setting 'tetragonal'
loop_
_space_group_symop_operation_xyz
x,y,z
1/4-y,3/4+x,1/4+z
-x,1/2-y,z
1/4+y,1/4-x,3/4+z
x,-y,1/2-z
1/2-x,y,-z
3/4+y,1/4+x,1/4-z
1/4-y,1/4-x,1/4-z
-x,-y,-z
3/4+y,1/4-x,3/4-z
x,1/2+y,-z
3/4-y,3/4+x,1/4-z
-x,y,1/2+z
1/2+x,-y,z
1/4-y,3/4-x,3/4+z
3/4+y,3/4+x,3/4+z
1/2+x,1/2+y,1/2+z
3/4-y,1/4+x,3/4+z
1/2-x,-y,1/2+z
3/4+y,3/4-x,1/4+z
1/2+x,1/2-y,-z
-x,1/2+y,1/2-z
1/4+y,3/4+x,3/4-z
3/4-y,3/4-x,3/4-z
1/2-x,1/2-y,1/2-z
1/4+y,3/4-x,1/4-z
1/2+x,y,1/2-z
1/4-y,1/4+x,3/4-z
1/2-x,1/2+y,z
x,1/2-y,1/2+z
3/4-y,1/4-x,1/4+z
1/4+y,1/4+x,1/4+z
loop_
_atom_site_type_symbol
_atom_site_label
_atom_site_fract_x
_atom_site_fract_y
_atom_site_fract_z
Si Si1 0.110784 0.860784 0.375000
Si Si2 0.697002 0.311699 0.993886
Si Si3 0.500000 0.250000 0.125000
Si Si4 0.042659 0.156712 0.845403
Si Si5 0.023969 0.094592 0.560229
O O1 0.097319 0.913451 0.347505
O O2 0.089863 0.835362 0.216649
O O3 0.687553 0.263127 0.901823
O O4 0.750000 0.323562 0.000000
O O5 0.681561 0.304281 0.180113
O O6 0.479186 0.204709 0.207812
O O7 0.126503 0.198989 0.555585
O O8 0.005457 0.131027 0.957533
#
# Coordination Sequence:
#
# PCOD9573507 Si02
#       5
#    16  32   8  32  32
#     4  10  22  35  46  70 102 128 170 220 266 312
#     4  10  19  34  54  75  98 129 170 215 266 318
#     4  12  20  26  44  66 100 150 180 186 220 286
#     4  10  20  31  44  69 103 140 175 208 241 290
#     4   9  19  33  50  71 100 134 172 217 251 287
#
# _framework density 17.043337000000001
#
# number of rings (size 3 to 8) (size 9 to 14) (size 15 to 20)
#    0.000    2.133    0.000    5.600    0.000    8.000 
#    0.000    0.000    0.000    0.000    0.000    3.733 
#    0.000    0.000    0.000    0.000    0.000    0.000 
#
# Total GULP energy -334674.456293 kJ/mol
# GULP energy per Si atom -5577.907605 kJ/mol
# Density = 1.700455 g / cm^3
# Si number density = 17.043337 Si / 1000 Ang^3
#
#
#
# Elastic Constant Matrix: (Units=GPa)
#
#
# Indices 1 2 3 4 5 6 
#
# 1 99.8026 37.6396 30.4288 0.0000 0.0000 0.0000
# 2 37.6396 99.8026 30.4288 0.0000 0.0000 0.0000
# 3 30.4288 30.4288 106.1450 0.0000 0.0000 0.0000
# 4 0.0000 0.0000 0.0000 18.1507 0.0000 0.0000
# 5 0.0000 0.0000 0.0000 0.0000 18.1507 0.0000
# 6 0.0000 0.0000 0.0000 0.0000 0.0000 12.9205
#
#
#
# Elastic Compliance Matrix: (Units=1/GPa)
#
#
# Indices 1 2 3 4 5 6 
#
# 1 0.012210 -0.003877 -0.002389 0.000000 0.000000 0.000000
# 2 -0.003877 0.012210 -0.002389 0.000000 0.000000 0.000000
# 3 -0.002389 -0.002389 0.010791 0.000000 0.000000 0.000000
# 4 0.000000 0.000000 0.000000 0.055094 0.000000 0.000000
# 5 0.000000 0.000000 0.000000 0.000000 0.055094 0.000000
# 6 0.000000 0.000000 0.000000 0.000000 0.000000 0.077396
#
#
# Mechanical properties :
#
#
# Convention : Reuss Voigt Hill
#
# Bulk Modulus (GPa) = 55.85977 55.86051 55.86014
# Shear Modulus (GPa) = 20.31922 23.66125 21.99024
#
# Velocity S-wave (km/s) = 3.45658 3.73003 3.59591
# Velocity P-wave (km/s) = 6.98405 7.16921 7.07723
#
# Compressibility (1/GPa) = 0.01790197
#
# Stress axis : x y z
#
# Youngs Moduli (GPa) = 81.89885 81.89885 92.67152
#
# Poissons Ratio (x) = 0.31749 0.22139
# Poissons Ratio (y) = 0.31749 0.22139
# Poissons Ratio (z) = 0.19566 0.19566
#
# Static dielectric constant tensor:
#      x y z
#    x 1.594660 0.000000 0.000000 
#    y 0.000000 1.594660 0.000000 
#    z 0.000000 0.000000 1.632550 
# 
# From -- ./inp_files/1863.got.cif
#   From: 2010.05.17/outbox.cif.g08.bks.cpg/sg142_1_cif.got.tgz:1863.got - 2010.05.20 13:39:18.
