data_PCOD9573512
_publ_section_title
;
Structure prediction by ZEFSAII (Michael W. Deem and Ramdas Pophale) SiO2 
 PCOD9573512
Probable space group: I 41/A C D
;
_chemical_formula_sum "Si O2"
_cell_formula_units_Z 96
_cell_length_a 15.428982
_cell_length_b 15.428982
_cell_length_c 16.968874
_cell_angle_alpha 90.000000
_cell_angle_beta 90.000000
_cell_angle_gamma 90.000000
_cell_volume 4039.499602
_symmetry_space_group_name_H-M "I 41/A C D"
_symmetry_group_IT_number 142
_space_group.IT_coordinate_system_code '2'
_symmetry_cell_setting 'tetragonal'
loop_
_space_group_symop_operation_xyz
x,y,z
1/4-y,3/4+x,1/4+z
-x,1/2-y,z
1/4+y,1/4-x,3/4+z
x,-y,1/2-z
1/2-x,y,-z
3/4+y,1/4+x,1/4-z
1/4-y,1/4-x,1/4-z
-x,-y,-z
3/4+y,1/4-x,3/4-z
x,1/2+y,-z
3/4-y,3/4+x,1/4-z
-x,y,1/2+z
1/2+x,-y,z
1/4-y,3/4-x,3/4+z
3/4+y,3/4+x,3/4+z
1/2+x,1/2+y,1/2+z
3/4-y,1/4+x,3/4+z
1/2-x,-y,1/2+z
3/4+y,3/4-x,1/4+z
1/2+x,1/2-y,-z
-x,1/2+y,1/2-z
1/4+y,3/4+x,3/4-z
3/4-y,3/4-x,3/4-z
1/2-x,1/2-y,1/2-z
1/4+y,3/4-x,1/4-z
1/2+x,y,1/2-z
1/4-y,1/4+x,3/4-z
1/2-x,1/2+y,z
x,1/2-y,1/2+z
3/4-y,1/4-x,1/4+z
1/4+y,1/4+x,1/4+z
loop_
_atom_site_type_symbol
_atom_site_label
_atom_site_fract_x
_atom_site_fract_y
_atom_site_fract_z
Si Si1 0.093684 0.773316 0.457432
Si Si2 0.098601 0.921986 0.561574
Si Si3 0.150973 0.358765 0.269722
O O1 0.069069 0.819069 0.375000
O O2 0.138562 0.841451 0.512986
O O3 0.130547 0.677354 0.458527
O O4 0.000000 0.750000 0.494925
O O5 0.124631 0.908742 0.651355
O O6 0.993587 0.914924 0.546351
O O7 0.130688 0.009785 0.522327
#
# Coordination Sequence:
#
# PCOD9573512 Si02
#       3
#    32  32  32
#     4   9  18  34  61  97 133 176 231 297 354 428
#     4  10  19  34  64 106 136 186 237 299 363 433
#     4  10  19  34  65 105 142 179 245 295 365 436
#
# _framework density 23.765321
#
# number of rings (size 3 to 8) (size 9 to 14) (size 15 to 20)
#    0.000    2.333    3.333    0.000    0.000    0.000 
#    0.000    1.667   14.667    6.000  112.667    0.000 
#    0.000    0.000    0.000    0.000    0.000    0.000 
#
# Total GULP energy -267630.609752 kJ/mol
# GULP energy per Si atom -5575.637703 kJ/mol
# Density = 2.371123 g / cm^3
# Si number density = 23.765321 Si / 1000 Ang^3
#
#
#
# Elastic Constant Matrix: (Units=GPa)
#
#
# Indices 1 2 3 4 5 6 
#
# 1 104.1482 12.4143 59.6348 0.0000 0.0000 0.0000
# 2 12.4143 104.1482 59.6348 0.0000 0.0000 0.0000
# 3 59.6348 59.6348 172.2369 0.0000 0.0000 0.0000
# 4 0.0000 0.0000 0.0000 28.7487 0.0000 0.0000
# 5 0.0000 0.0000 0.0000 0.0000 28.7487 0.0000
# 6 0.0000 0.0000 0.0000 0.0000 0.0000 5.3903
#
#
#
# Elastic Compliance Matrix: (Units=1/GPa)
#
#
# Indices 1 2 3 4 5 6 
#
# 1 0.012094 0.001192 -0.004600 0.000000 0.000000 0.000000
# 2 0.001192 0.012094 -0.004600 0.000000 0.000000 0.000000
# 3 -0.004600 -0.004600 0.008991 0.000000 0.000000 0.000000
# 4 0.000000 0.000000 0.000000 0.034784 0.000000 0.000000
# 5 0.000000 0.000000 0.000000 0.000000 0.034784 0.000000
# 6 0.000000 0.000000 0.000000 0.000000 0.000000 0.185520
#
#
# Mechanical properties :
#
#
# Convention : Reuss Voigt Hill
#
# Bulk Modulus (GPa) = 58.26482 71.54459 64.90470
# Shear Modulus (GPa) = 16.12884 29.16747 22.64816
#
# Velocity S-wave (km/s) = 2.60796 3.50710 3.09041
# Velocity P-wave (km/s) = 5.79988 6.82420 6.33278
#
# Compressibility (1/GPa) = 0.01716302
#
# Stress axis : x y z
#
# Youngs Moduli (GPa) = 82.68859 82.68859 111.21713
#
# Poissons Ratio (x) = -0.09860 0.51161
# Poissons Ratio (y) = -0.09860 0.51161
# Poissons Ratio (z) = 0.38038 0.38038
#
# Static dielectric constant tensor:
#      x y z
#    x 2.064980 0.000000 0.000000 
#    y 0.000000 2.064980 0.000000 
#    z 0.000000 0.000000 1.872180 
# 
# From -- ./inp_files/8408.got.cif
#   From: 2010.05.17/outbox.cif.g08.bks.cpg/sg142_5_cif.got.tgz:8408.got - 2010.05.20 13:39:18.
