data_PCOD9573705
_publ_section_title
;
Structure prediction by ZEFSAII (Michael W. Deem and Ramdas Pophale) SiO2 
 PCOD9573705
Probable space group: I 41/A C D
;
_chemical_formula_sum "Si O2"
_cell_formula_units_Z 120
_cell_length_a 15.907254
_cell_length_b 15.907254
_cell_length_c 20.997205
_cell_angle_alpha 90.000000
_cell_angle_beta 90.000000
_cell_angle_gamma 90.000000
_cell_volume 5313.148077
_symmetry_space_group_name_H-M "I 41/A C D"
_symmetry_group_IT_number 142
_space_group.IT_coordinate_system_code '2'
_symmetry_cell_setting 'tetragonal'
loop_
_space_group_symop_operation_xyz
x,y,z
1/4-y,3/4+x,1/4+z
-x,1/2-y,z
1/4+y,1/4-x,3/4+z
x,-y,1/2-z
1/2-x,y,-z
3/4+y,1/4+x,1/4-z
1/4-y,1/4-x,1/4-z
-x,-y,-z
3/4+y,1/4-x,3/4-z
x,1/2+y,-z
3/4-y,3/4+x,1/4-z
-x,y,1/2+z
1/2+x,-y,z
1/4-y,3/4-x,3/4+z
3/4+y,3/4+x,3/4+z
1/2+x,1/2+y,1/2+z
3/4-y,1/4+x,3/4+z
1/2-x,-y,1/2+z
3/4+y,3/4-x,1/4+z
1/2+x,1/2-y,-z
-x,1/2+y,1/2-z
1/4+y,3/4+x,3/4-z
3/4-y,3/4-x,3/4-z
1/2-x,1/2-y,1/2-z
1/4+y,3/4-x,1/4-z
1/2+x,y,1/2-z
1/4-y,1/4+x,3/4-z
1/2-x,1/2+y,z
x,1/2-y,1/2+z
3/4-y,1/4-x,1/4+z
1/4+y,1/4+x,1/4+z
loop_
_atom_site_type_symbol
_atom_site_label
_atom_site_fract_x
_atom_site_fract_y
_atom_site_fract_z
Si Si1 0.508212 0.628026 0.591268
Si Si2 0.880127 0.511468 0.618379
Si Si3 0.891165 0.333321 0.972599
Si Si4 0.462630 0.500000 0.750000
Si Si5 0.000000 0.750000 0.125000
O O1 0.439875 0.689875 0.625000
O O2 0.596309 0.653691 0.625000
O O3 0.464470 0.538033 0.595619
O O4 0.529834 0.646007 0.517805
O O5 0.802323 0.447678 0.625000
O O6 0.861708 0.584615 0.567047
O O7 0.904636 0.529618 0.691762
O O8 0.921493 0.271571 0.917672
O O9 0.825137 0.278528 0.013009
#
# Coordination Sequence:
#
# PCOD9573705 Si02
#       5
#    32  32  32  16   8
#     4  10  20  40  72 102 134 180 229 290 348 418
#     4  11  26  47  70 103 142 188 231 297 360 420
#     4  12  25  45  71 105 142 188 236 293 357 431
#     4  12  26  48  68 100 148 178 240 300 344 428
#     4  12  24  40  74 108 136 176 240 286 360 420
#
# _framework density 22.585481000000001
#
# number of rings (size 3 to 8) (size 9 to 14) (size 15 to 20)
#    0.000    0.800    5.333    2.400    3.733    1.067 
#    9.600    0.000    0.000    0.000    0.000    0.000 
#    0.000    0.000    0.000    0.000    0.000    0.000 
#
# Total GULP energy -334419.823462 kJ/mol
# GULP energy per Si atom -5573.663724 kJ/mol
# Density = 2.253407 g / cm^3
# Si number density = 22.585481 Si / 1000 Ang^3
#
#
#
# Elastic Constant Matrix: (Units=GPa)
#
#
# Indices 1 2 3 4 5 6 
#
# 1 60.4117 10.9789 11.4566 0.0000 0.0000 0.0000
# 2 10.9789 60.4128 11.4564 0.0000 0.0000 0.0000
# 3 11.4566 11.4564 97.7620 0.0000 0.0000 0.0000
# 4 0.0000 0.0000 0.0000 21.5157 0.0000 0.0000
# 5 0.0000 0.0000 0.0000 0.0000 21.5153 0.0000
# 6 0.0000 0.0000 0.0000 0.0000 0.0000 27.6242
#
#
#
# Elastic Compliance Matrix: (Units=1/GPa)
#
#
# Indices 1 2 3 4 5 6 
#
# 1 0.017392 -0.002837 -0.001706 0.000000 0.000000 0.000000
# 2 -0.002837 0.017392 -0.001706 0.000000 0.000000 0.000000
# 3 -0.001706 -0.001706 0.010629 0.000000 0.000000 0.000000
# 4 0.000000 0.000000 0.000000 0.046478 0.000000 0.000000
# 5 0.000000 0.000000 0.000000 0.000000 0.046479 0.000000
# 6 0.000000 0.000000 0.000000 0.000000 0.000000 0.036200
#
#
# Mechanical properties :
#
#
# Convention : Reuss Voigt Hill
#
# Bulk Modulus (GPa) = 30.38068 31.81892 31.09980
# Shear Modulus (GPa) = 25.24767 26.44401 25.84584
#
# Velocity S-wave (km/s) = 3.34709 3.42547 3.38650
# Velocity P-wave (km/s) = 5.33085 5.45563 5.39360
#
# Compressibility (1/GPa) = 0.03291566
#
# Stress axis : x y z
#
# Youngs Moduli (GPa) = 57.49710 57.49820 94.08504
#
# Poissons Ratio (x) = 0.16314 0.16048
# Poissons Ratio (y) = 0.16313 0.16047
# Poissons Ratio (z) = 0.09807 0.09807
#
# Static dielectric constant tensor:
#      x y z
#    x 1.885600 0.000000 0.000000 
#    y 0.000000 1.885600 0.000000 
#    z 0.000000 0.000000 1.907870 
# 
# From -- ./inp_files/8738.got.cif
#   From: 2010.05.17/outbox.cif.g08.bks.cpg/sg142_5_cif.got.tgz:8738.got - 2010.05.20 13:39:18.
