data_PCOD9573949
_publ_section_title
;
Structure prediction by ZEFSAII (Michael W. Deem and Ramdas Pophale) SiO2 
 PCOD9573949
Probable space group: I 41/A C D
;
_chemical_formula_sum "Si O2"
_cell_formula_units_Z 160
_cell_length_a 27.007530
_cell_length_b 27.007530
_cell_length_c 9.155346
_cell_angle_alpha 90.000000
_cell_angle_beta 90.000000
_cell_angle_gamma 90.000000
_cell_volume 6677.970500
_symmetry_space_group_name_H-M "I 41/A C D"
_symmetry_group_IT_number 142
_space_group.IT_coordinate_system_code '2'
_symmetry_cell_setting 'tetragonal'
loop_
_space_group_symop_operation_xyz
x,y,z
1/4-y,3/4+x,1/4+z
-x,1/2-y,z
1/4+y,1/4-x,3/4+z
x,-y,1/2-z
1/2-x,y,-z
3/4+y,1/4+x,1/4-z
1/4-y,1/4-x,1/4-z
-x,-y,-z
3/4+y,1/4-x,3/4-z
x,1/2+y,-z
3/4-y,3/4+x,1/4-z
-x,y,1/2+z
1/2+x,-y,z
1/4-y,3/4-x,3/4+z
3/4+y,3/4+x,3/4+z
1/2+x,1/2+y,1/2+z
3/4-y,1/4+x,3/4+z
1/2-x,-y,1/2+z
3/4+y,3/4-x,1/4+z
1/2+x,1/2-y,-z
-x,1/2+y,1/2-z
1/4+y,3/4+x,3/4-z
3/4-y,3/4-x,3/4-z
1/2-x,1/2-y,1/2-z
1/4+y,3/4-x,1/4-z
1/2+x,y,1/2-z
1/4-y,1/4+x,3/4-z
1/2-x,1/2+y,z
x,1/2-y,1/2+z
3/4-y,1/4-x,1/4+z
1/4+y,1/4+x,1/4+z
loop_
_atom_site_type_symbol
_atom_site_label
_atom_site_fract_x
_atom_site_fract_y
_atom_site_fract_z
Si Si1 0.150103 0.900103 0.375000
Si Si2 0.750000 0.366000 0.000000
Si Si3 0.461799 0.860177 0.126503
Si Si4 0.599369 0.557102 0.012786
Si Si5 0.707838 0.042162 0.875000
Si Si6 0.843269 0.797505 0.690619
Si Si7 0.957123 0.000000 0.250000
O O1 0.147143 0.952824 0.297526
O O2 0.153333 0.853050 0.262339
O O3 0.774031 0.333038 0.873509
O O4 0.447547 0.802454 0.125000
O O5 0.420407 0.887134 0.020207
O O6 0.458128 0.874722 0.295299
O O7 0.512078 0.883014 0.063235
O O8 0.657034 0.545694 0.032549
O O9 0.575996 0.536968 0.159081
O O10 0.710059 0.000000 0.750000
O O11 0.789228 0.777559 0.631459
#
# Coordination Sequence:
#
# PCOD9573949 Si02
#       7
#    16  16  32  32  16  32  16
#     4  12  28  53  73 118 158 221 268 344 397 492
#     4  12  28  43  77 104 156 210 268 326 390 482
#     4  11  26  49  82 113 152 207 252 334 412 481
#     4  11  24  44  68  99 148 198 256 317 383 468
#     4  12  28  43  66  98 154 210 258 316 384 488
#     4  11  27  48  83 113 164 201 276 332 411 488
#     4  10  22  49  69 112 144 208 252 332 394 462
#
# _framework density 23.959375999999999
#
# number of rings (size 3 to 8) (size 9 to 14) (size 15 to 20)
#    0.000    0.800    4.000    1.200   12.600    4.000 
#    0.000    1.500    0.000    0.000    0.000    0.000 
#    0.000    0.000    0.000    0.000    0.000    0.000 
#
# Total GULP energy -445525.638447 kJ/mol
# GULP energy per Si atom -5569.070481 kJ/mol
# Density = 2.390484 g / cm^3
# Si number density = 23.959376 Si / 1000 Ang^3
#
#
#
# Elastic Constant Matrix: (Units=GPa)
#
#
# Indices 1 2 3 4 5 6 
#
# 1 111.8799 46.4869 39.1655 0.0000 0.0000 0.0000
# 2 46.4869 111.8882 39.1676 0.0000 0.0000 0.0000
# 3 39.1655 39.1676 140.7908 0.0000 0.0000 0.0000
# 4 0.0000 0.0000 0.0000 79.0847 0.0000 0.0000
# 5 0.0000 0.0000 0.0000 0.0000 79.0380 0.0000
# 6 0.0000 0.0000 0.0000 0.0000 0.0000 19.3813
#
#
#
# Elastic Compliance Matrix: (Units=1/GPa)
#
#
# Indices 1 2 3 4 5 6 
#
# 1 0.011307 -0.003985 -0.002037 0.000000 0.000000 0.000000
# 2 -0.003985 0.011306 -0.002037 0.000000 0.000000 0.000000
# 3 -0.002037 -0.002037 0.008236 0.000000 0.000000 0.000000
# 4 0.000000 0.000000 0.000000 0.012645 0.000000 0.000000
# 5 0.000000 0.000000 0.000000 0.000000 0.012652 0.000000
# 6 0.000000 0.000000 0.000000 0.000000 0.000000 0.051596
#
#
# Mechanical properties :
#
#
# Convention : Reuss Voigt Hill
#
# Bulk Modulus (GPa) = 67.87880 68.24433 68.06157
# Shear Modulus (GPa) = 38.82913 51.48341 45.15627
#
# Velocity S-wave (km/s) = 4.03006 4.64052 4.34602
# Velocity P-wave (km/s) = 7.07443 7.56689 7.32480
#
# Compressibility (1/GPa) = 0.01473214
#
# Stress axis : x y z
#
# Youngs Moduli (GPa) = 88.44186 88.44810 121.41834
#
# Poissons Ratio (x) = 0.35244 0.24731
# Poissons Ratio (y) = 0.35242 0.24731
# Poissons Ratio (z) = 0.18014 0.18015
#
# Static dielectric constant tensor:
#      x y z
#    x 3.864590 0.000000 0.000000 
#    y 0.000000 3.865700 0.000000 
#    z 0.000000 0.000000 1.969530 
# 
# From -- ./inp_files/2275.got.cif
#   From: 2010.05.17/outbox.cif.g08.bks.cpg/sg142_2_cif.got.tgz:2275.got - 2010.05.20 13:39:18.
