data_PCOD9573446
_publ_section_title
;
Structure prediction by ZEFSAII (Michael W. Deem and Ramdas Pophale) SiO2 
 PCOD9573446
Probable space group: I 41/A C D
;
_chemical_formula_sum "Si O2"
_cell_formula_units_Z 112
_cell_length_a 25.062135
_cell_length_b 25.062135
_cell_length_c 7.161883
_cell_angle_alpha 90.000000
_cell_angle_beta 90.000000
_cell_angle_gamma 90.000000
_cell_volume 4498.454705
_symmetry_space_group_name_H-M "I 41/A C D"
_symmetry_group_IT_number 142
_space_group.IT_coordinate_system_code '2'
_symmetry_cell_setting 'tetragonal'
loop_
_space_group_symop_operation_xyz
x,y,z
1/4-y,3/4+x,1/4+z
-x,1/2-y,z
1/4+y,1/4-x,3/4+z
x,-y,1/2-z
1/2-x,y,-z
3/4+y,1/4+x,1/4-z
1/4-y,1/4-x,1/4-z
-x,-y,-z
3/4+y,1/4-x,3/4-z
x,1/2+y,-z
3/4-y,3/4+x,1/4-z
-x,y,1/2+z
1/2+x,-y,z
1/4-y,3/4-x,3/4+z
3/4+y,3/4+x,3/4+z
1/2+x,1/2+y,1/2+z
3/4-y,1/4+x,3/4+z
1/2-x,-y,1/2+z
3/4+y,3/4-x,1/4+z
1/2+x,1/2-y,-z
-x,1/2+y,1/2-z
1/4+y,3/4+x,3/4-z
3/4-y,3/4-x,3/4-z
1/2-x,1/2-y,1/2-z
1/4+y,3/4-x,1/4-z
1/2+x,y,1/2-z
1/4-y,1/4+x,3/4-z
1/2-x,1/2+y,z
x,1/2-y,1/2+z
3/4-y,1/4-x,1/4+z
1/4+y,1/4+x,1/4+z
loop_
_atom_site_type_symbol
_atom_site_label
_atom_site_fract_x
_atom_site_fract_y
_atom_site_fract_z
Si Si1 0.045775 0.103263 0.973259
Si Si2 0.752858 0.341166 0.220709
Si Si3 0.698534 0.051467 0.375000
Si Si4 0.574799 0.614964 0.910615
O O1 0.067236 0.106699 0.185816
O O2 0.047809 0.039830 0.928014
O O3 0.083600 0.137193 0.836392
O O4 0.985578 0.123418 0.975799
O O5 0.789730 0.394738 0.241728
O O6 0.689697 0.346770 0.256222
O O7 0.750000 0.329235 0.000000
O O8 0.750000 0.050563 0.500000
#
# Coordination Sequence:
#
# PCOD9573446 Si02
#       4
#    32  32  16  32
#     4  10  20  36  56  81 109 142 185 231 278 330
#     4   9  17  34  58  80 105 143 186 225 274 337
#     4  10  18  32  54  80 112 147 182 227 282 346
#     4  10  21  36  57  81 109 146 187 229 276 328
#
# _framework density 24.897438999999999
#
# number of rings (size 3 to 8) (size 9 to 14) (size 15 to 20)
#    0.000    2.286    0.000    6.000    0.000    1.714 
#    0.000    8.571    0.000    1.714    0.000    0.000 
#    0.000    0.000    0.000    0.000    0.000    0.000 
#
# Total GULP energy -312430.254457 kJ/mol
# GULP energy per Si atom -5579.111687 kJ/mol
# Density = 2.484077 g / cm^3
# Si number density = 24.897439 Si / 1000 Ang^3
#
#
#
# Elastic Constant Matrix: (Units=GPa)
#
#
# Indices 1 2 3 4 5 6 
#
# 1 162.0182 94.6020 18.6999 0.0000 0.0000 0.0000
# 2 94.6020 162.0210 18.6982 0.0000 0.0000 0.0000
# 3 18.6999 18.6982 43.8513 0.0000 0.0000 0.0000
# 4 0.0000 0.0000 0.0000 23.6613 0.0000 0.0000
# 5 0.0000 0.0000 0.0000 0.0000 23.6618 0.0000
# 6 0.0000 0.0000 0.0000 0.0000 0.0000 36.0126
#
#
#
# Elastic Compliance Matrix: (Units=1/GPa)
#
#
# Indices 1 2 3 4 5 6 
#
# 1 0.009494 -0.005339 -0.001772 0.000000 0.000000 0.000000
# 2 -0.005339 0.009494 -0.001771 0.000000 0.000000 0.000000
# 3 -0.001772 -0.001771 0.024315 0.000000 0.000000 0.000000
# 4 0.000000 0.000000 0.000000 0.042263 0.000000 0.000000
# 5 0.000000 0.000000 0.000000 0.000000 0.042262 0.000000
# 6 0.000000 0.000000 0.000000 0.000000 0.000000 0.027768
#
#
# Mechanical properties :
#
#
# Convention : Reuss Voigt Hill
#
# Bulk Modulus (GPa) = 39.15692 70.21009 54.68351
# Shear Modulus (GPa) = 27.49151 32.39318 29.94234
#
# Velocity S-wave (km/s) = 3.32654 3.61094 3.47165
# Velocity P-wave (km/s) = 5.52412 6.75619 6.17098
#
# Compressibility (1/GPa) = 0.02553827
#
# Stress axis : x y z
#
# Youngs Moduli (GPa) = 105.32872 105.33155 41.12626
#
# Poissons Ratio (x) = 0.56236 0.07288
# Poissons Ratio (y) = 0.56235 0.07285
# Poissons Ratio (z) = 0.18665 0.18659
#
# Static dielectric constant tensor:
#      x y z
#    x 2.106510 0.000000 0.000000 
#    y 0.000000 2.106540 0.000000 
#    z 0.000000 0.000000 2.083570 
# 
# From -- ./inp_files/3338.got.cif
#   From: 2010.05.17/outbox.cif.g08.bks.cpg/sg142_2_cif.got.tgz:3338.got - 2010.05.20 13:39:18.
