data_PCOD9573992
_publ_section_title
;
Structure prediction by ZEFSAII (Michael W. Deem and Ramdas Pophale) SiO2 
 PCOD9573992
Probable space group: I 41/A C D
;
_chemical_formula_sum "Si O2"
_cell_formula_units_Z 96
_cell_length_a 21.331716
_cell_length_b 21.331716
_cell_length_c 8.315229
_cell_angle_alpha 90.000000
_cell_angle_beta 90.000000
_cell_angle_gamma 90.000000
_cell_volume 3783.779329
_symmetry_space_group_name_H-M "I 41/A C D"
_symmetry_group_IT_number 142
_space_group.IT_coordinate_system_code '2'
_symmetry_cell_setting 'tetragonal'
loop_
_space_group_symop_operation_xyz
x,y,z
1/4-y,3/4+x,1/4+z
-x,1/2-y,z
1/4+y,1/4-x,3/4+z
x,-y,1/2-z
1/2-x,y,-z
3/4+y,1/4+x,1/4-z
1/4-y,1/4-x,1/4-z
-x,-y,-z
3/4+y,1/4-x,3/4-z
x,1/2+y,-z
3/4-y,3/4+x,1/4-z
-x,y,1/2+z
1/2+x,-y,z
1/4-y,3/4-x,3/4+z
3/4+y,3/4+x,3/4+z
1/2+x,1/2+y,1/2+z
3/4-y,1/4+x,3/4+z
1/2-x,-y,1/2+z
3/4+y,3/4-x,1/4+z
1/2+x,1/2-y,-z
-x,1/2+y,1/2-z
1/4+y,3/4+x,3/4-z
3/4-y,3/4-x,3/4-z
1/2-x,1/2-y,1/2-z
1/4+y,3/4-x,1/4-z
1/2+x,y,1/2-z
1/4-y,1/4+x,3/4-z
1/2-x,1/2+y,z
x,1/2-y,1/2+z
3/4-y,1/4-x,1/4+z
1/4+y,1/4+x,1/4+z
loop_
_atom_site_type_symbol
_atom_site_label
_atom_site_fract_x
_atom_site_fract_y
_atom_site_fract_z
Si Si1 0.381792 0.770040 0.140083
Si Si2 0.794452 0.842982 0.143359
Si Si3 0.670940 0.841657 0.327674
O O1 0.452629 0.797372 0.125000
O O2 0.351706 0.801066 0.298650
O O3 0.364481 0.698571 0.185562
O O4 0.347353 0.804700 0.990976
O O5 0.744437 0.843095 0.287242
O O6 0.834625 0.903079 0.090319
O O7 0.750000 0.820764 0.000000
#
# Coordination Sequence:
#
# PCOD9573992 Si02
#       3
#    32  32  32
#     4  10  23  44  76 108 141 191 251 310 370 443
#     4  11  23  42  72 106 143 190 239 298 367 439
#     4  11  23  44  72 108 147 192 244 304 372 447
#
# _framework density 25.371456999999999
#
# number of rings (size 3 to 8) (size 9 to 14) (size 15 to 20)
#    0.000    1.333    0.000    5.000    0.000    2.667 
#    0.000   20.000    0.000   92.000    0.000    0.000 
#    0.000    0.000    0.000    0.000    0.000    0.000 
#
# Total GULP energy -267400.906661 kJ/mol
# GULP energy per Si atom -5570.852222 kJ/mol
# Density = 2.531371 g / cm^3
# Si number density = 25.371457 Si / 1000 Ang^3
#
#
#
# Elastic Constant Matrix: (Units=GPa)
#
#
# Indices 1 2 3 4 5 6 
#
# 1 35.4737 147.0477 32.1676 0.0000 0.0000 0.0000
# 2 147.0477 35.4899 32.1723 0.0000 0.0000 0.0000
# 3 32.1676 32.1723 124.7443 0.0000 0.0000 0.0000
# 4 0.0000 0.0000 0.0000 8.8326 0.0000 0.0000
# 5 0.0000 0.0000 0.0000 0.0000 8.8273 0.0000
# 6 0.0000 0.0000 0.0000 0.0000 0.0000 12.3867
#
#
#
# Elastic Compliance Matrix: (Units=1/GPa)
#
#
# Indices 1 2 3 4 5 6 
#
# 1 -0.001469 0.007495 -0.001554 0.000000 0.000000 0.000000
# 2 0.007495 -0.001468 -0.001554 0.000000 0.000000 0.000000
# 3 -0.001554 -0.001554 0.008818 0.000000 0.000000 0.000000
# 4 0.000000 0.000000 0.000000 0.113216 0.000000 0.000000
# 5 0.000000 0.000000 0.000000 0.000000 0.113285 0.000000
# 6 0.000000 0.000000 0.000000 0.000000 0.000000 0.080731
#
#
# Mechanical properties :
#
#
# Convention : Reuss Voigt Hill
#
# Bulk Modulus (GPa) = 68.23966 68.72034 68.48000
# Shear Modulus (GPa) = 16.16943 4.96402 10.56673
#
# Velocity S-wave (km/s) = 2.52723 1.40028 2.04300
# Velocity P-wave (km/s) = 5.95571 5.45517 5.71093
#
# Compressibility (1/GPa) = 0.01465424
#
# Stress axis : x y z
#
# Youngs Moduli (GPa) = -680.80918 -681.15605 113.40470
#
# Poissons Ratio (x) = 5.10516 0.17625
# Poissons Ratio (y) = 5.10256 0.17624
# Poissons Ratio (z) = -1.05811 -1.05855
#
# Static dielectric constant tensor:
#      x y z
#    x 2.069970 0.000000 0.000000 
#    y 0.000000 2.069960 0.000000 
#    z 0.000000 0.000000 2.111590 
# 
# From -- ./inp_files/1577.got.cif
#   From: 2010.05.17/outbox.cif.g08.bks.cpg/sg142_1_cif.got.tgz:1577.got - 2010.05.20 13:39:18.
