data_PCOD9573584
_publ_section_title
;
Structure prediction by ZEFSAII (Michael W. Deem and Ramdas Pophale) SiO2 
 PCOD9573584
Probable space group: I 41/A C D
;
_chemical_formula_sum "Si O2"
_cell_formula_units_Z 80
_cell_length_a 17.979957
_cell_length_b 17.979957
_cell_length_c 12.289569
_cell_angle_alpha 90.000000
_cell_angle_beta 90.000000
_cell_angle_gamma 90.000000
_cell_volume 3972.957779
_symmetry_space_group_name_H-M "I 41/A C D"
_symmetry_group_IT_number 142
_space_group.IT_coordinate_system_code '2'
_symmetry_cell_setting 'tetragonal'
loop_
_space_group_symop_operation_xyz
x,y,z
1/4-y,3/4+x,1/4+z
-x,1/2-y,z
1/4+y,1/4-x,3/4+z
x,-y,1/2-z
1/2-x,y,-z
3/4+y,1/4+x,1/4-z
1/4-y,1/4-x,1/4-z
-x,-y,-z
3/4+y,1/4-x,3/4-z
x,1/2+y,-z
3/4-y,3/4+x,1/4-z
-x,y,1/2+z
1/2+x,-y,z
1/4-y,3/4-x,3/4+z
3/4+y,3/4+x,3/4+z
1/2+x,1/2+y,1/2+z
3/4-y,1/4+x,3/4+z
1/2-x,-y,1/2+z
3/4+y,3/4-x,1/4+z
1/2+x,1/2-y,-z
-x,1/2+y,1/2-z
1/4+y,3/4+x,3/4-z
3/4-y,3/4-x,3/4-z
1/2-x,1/2-y,1/2-z
1/4+y,3/4-x,1/4-z
1/2+x,y,1/2-z
1/4-y,1/4+x,3/4-z
1/2-x,1/2+y,z
x,1/2-y,1/2+z
3/4-y,1/4-x,1/4+z
1/4+y,1/4+x,1/4+z
loop_
_atom_site_type_symbol
_atom_site_label
_atom_site_fract_x
_atom_site_fract_y
_atom_site_fract_z
Si Si1 0.082712 0.832712 0.875000
Si Si2 0.674313 0.778167 0.802981
Si Si3 0.888697 0.172656 0.514693
O O1 0.143001 0.838331 0.781284
O O2 0.091468 0.753354 0.934677
O O3 0.750000 0.750000 0.750000
O O4 0.615292 0.709208 0.795924
O O5 0.673040 0.811230 0.923759
O O6 0.874867 0.124867 0.625000
#
# Coordination Sequence:
#
# PCOD9573584 Si02
#       3
#    16  32  32
#     4  10  21  34  60  88 114 148 206 266 304 373
#     4  11  21  35  59  91 121 158 201 262 321 376
#     4  10  20  34  56  85 122 151 204 264 312 368
#
# _framework density 20.136130999999999
#
# number of rings (size 3 to 8) (size 9 to 14) (size 15 to 20)
#    0.000    1.600    4.000    5.400    0.000    6.400 
#    0.000    0.000    0.000    0.000   46.800    0.000 
#    0.000    0.000    0.000    0.000    0.000    0.000 
#
# Total GULP energy -222826.417194 kJ/mol
# GULP energy per Si atom -5570.660430 kJ/mol
# Density = 2.009030 g / cm^3
# Si number density = 20.136131 Si / 1000 Ang^3
#
#
#
# Elastic Constant Matrix: (Units=GPa)
#
#
# Indices 1 2 3 4 5 6 
#
# 1 51.5921 6.9309 51.7197 0.0000 0.0000 0.0000
# 2 6.9309 51.5921 51.7197 0.0000 0.0000 0.0000
# 3 51.7197 51.7197 209.4668 0.0000 0.0000 0.0000
# 4 0.0000 0.0000 0.0000 28.5948 0.0000 0.0000
# 5 0.0000 0.0000 0.0000 0.0000 28.5948 0.0000
# 6 0.0000 0.0000 0.0000 0.0000 0.0000 11.3262
#
#
#
# Elastic Compliance Matrix: (Units=1/GPa)
#
#
# Indices 1 2 3 4 5 6 
#
# 1 0.026355 0.003964 -0.007486 0.000000 0.000000 0.000000
# 2 0.003964 0.026355 -0.007486 0.000000 0.000000 0.000000
# 3 -0.007486 -0.007486 0.008471 0.000000 0.000000 0.000000
# 4 0.000000 0.000000 0.000000 0.034971 0.000000 0.000000
# 5 0.000000 0.000000 0.000000 0.000000 0.034971 0.000000
# 6 0.000000 0.000000 0.000000 0.000000 0.000000 0.088290
#
#
# Mechanical properties :
#
#
# Convention : Reuss Voigt Hill
#
# Bulk Modulus (GPa) = 25.53338 59.26572 42.39955
# Shear Modulus (GPa) = 19.64752 27.18853 23.41803
#
# Velocity S-wave (km/s) = 3.12706 3.67854 3.41396
# Velocity P-wave (km/s) = 5.07405 6.89483 6.05329
#
# Compressibility (1/GPa) = 0.03916441
#
# Stress axis : x y z
#
# Youngs Moduli (GPa) = 37.94362 37.94362 118.05217
#
# Poissons Ratio (x) = -0.15041 0.88375
# Poissons Ratio (y) = -0.15041 0.88375
# Poissons Ratio (z) = 0.28405 0.28405
#
# Static dielectric constant tensor:
#      x y z
#    x 1.753710 0.000000 0.000000 
#    y 0.000000 1.753710 0.000000 
#    z 0.000000 0.000000 1.808140 
# 
# From -- ./inp_files/3070.got.cif
#   From: 2010.05.17/outbox.cif.g08.bks.cpg/sg142_2_cif.got.tgz:3070.got - 2010.05.20 13:39:18.
