data_PCOD9573654
_publ_section_title
;
Structure prediction by ZEFSAII (Michael W. Deem and Ramdas Pophale) SiO2 
 PCOD9573654
Probable space group: I 41/A C D
;
_chemical_formula_sum "Si O2"
_cell_formula_units_Z 144
_cell_length_a 21.004709
_cell_length_b 21.004709
_cell_length_c 17.531374
_cell_angle_alpha 90.000000
_cell_angle_beta 90.000000
_cell_angle_gamma 90.000000
_cell_volume 7734.803643
_symmetry_space_group_name_H-M "I 41/A C D"
_symmetry_group_IT_number 142
_space_group.IT_coordinate_system_code '2'
_symmetry_cell_setting 'tetragonal'
loop_
_space_group_symop_operation_xyz
x,y,z
1/4-y,3/4+x,1/4+z
-x,1/2-y,z
1/4+y,1/4-x,3/4+z
x,-y,1/2-z
1/2-x,y,-z
3/4+y,1/4+x,1/4-z
1/4-y,1/4-x,1/4-z
-x,-y,-z
3/4+y,1/4-x,3/4-z
x,1/2+y,-z
3/4-y,3/4+x,1/4-z
-x,y,1/2+z
1/2+x,-y,z
1/4-y,3/4-x,3/4+z
3/4+y,3/4+x,3/4+z
1/2+x,1/2+y,1/2+z
3/4-y,1/4+x,3/4+z
1/2-x,-y,1/2+z
3/4+y,3/4-x,1/4+z
1/2+x,1/2-y,-z
-x,1/2+y,1/2-z
1/4+y,3/4+x,3/4-z
3/4-y,3/4-x,3/4-z
1/2-x,1/2-y,1/2-z
1/4+y,3/4-x,1/4-z
1/2+x,y,1/2-z
1/4-y,1/4+x,3/4-z
1/2-x,1/2+y,z
x,1/2-y,1/2+z
3/4-y,1/4-x,1/4+z
1/4+y,1/4+x,1/4+z
loop_
_atom_site_type_symbol
_atom_site_label
_atom_site_fract_x
_atom_site_fract_y
_atom_site_fract_z
Si Si1 0.007275 0.898947 0.035861
Si Si2 0.540058 0.463083 0.891858
Si Si3 0.329116 0.489041 0.159957
Si Si4 0.636590 0.148818 0.095535
Si Si5 0.459860 0.500000 0.750000
O O1 0.952618 0.872538 0.091311
O O2 0.073701 0.862435 0.045043
O O3 0.981988 0.908838 0.950256
O O4 0.021142 0.969595 0.069312
O O5 0.614999 0.468432 0.877528
O O6 0.504068 0.463562 0.811225
O O7 0.329241 0.500000 0.250000
O O8 0.262783 0.512783 0.125000
O O9 0.345194 0.416589 0.138478
O O10 0.697059 0.169546 0.044927
#
# Coordination Sequence:
#
# PCOD9573654 Si02
#       5
#    32  32  32  32  16
#     4   9  19  37  59  84 119 161 200 244 310 366
#     4   9  18  37  58  81 117 162 195 236 312 384
#     4  11  22  36  59  89 120 154 199 255 312 369
#     4  10  22  38  60  88 122 160 203 257 303 369
#     4  10  20  38  60  88 122 160 208 252 306 372
#
# _framework density 18.617151
#
# number of rings (size 3 to 8) (size 9 to 14) (size 15 to 20)
#    0.000    2.222    1.111    1.333    1.556    3.111 
#    0.000    0.000    0.000    0.000    0.000    0.000 
#    0.000    0.000    0.000    0.000    0.000    0.000 
#
# Total GULP energy -401641.260477 kJ/mol
# GULP energy per Si atom -5578.350840 kJ/mol
# Density = 1.857478 g / cm^3
# Si number density = 18.617151 Si / 1000 Ang^3
#
#
#
# Elastic Constant Matrix: (Units=GPa)
#
#
# Indices 1 2 3 4 5 6 
#
# 1 68.2864 21.2032 16.3276 0.0000 0.0000 0.0000
# 2 21.2032 68.2864 16.3276 0.0000 0.0000 0.0000
# 3 16.3276 16.3276 92.9195 0.0000 0.0000 0.0000
# 4 0.0000 0.0000 0.0000 18.3928 0.0000 0.0000
# 5 0.0000 0.0000 0.0000 0.0000 18.3928 0.0000
# 6 0.0000 0.0000 0.0000 0.0000 0.0000 16.1915
#
#
#
# Elastic Compliance Matrix: (Units=1/GPa)
#
#
# Indices 1 2 3 4 5 6 
#
# 1 0.016590 -0.004649 -0.002098 0.000000 0.000000 0.000000
# 2 -0.004649 0.016590 -0.002098 0.000000 0.000000 0.000000
# 3 -0.002098 -0.002098 0.011499 0.000000 0.000000 0.000000
# 4 0.000000 0.000000 0.000000 0.054369 0.000000 0.000000
# 5 0.000000 0.000000 0.000000 0.000000 0.054369 0.000000
# 6 0.000000 0.000000 0.000000 0.000000 0.000000 0.061761
#
#
# Mechanical properties :
#
#
# Convention : Reuss Voigt Hill
#
# Bulk Modulus (GPa) = 37.05465 37.46770 37.26118
# Shear Modulus (GPa) = 20.67272 22.30433 21.48852
#
# Velocity S-wave (km/s) = 3.33590 3.46505 3.40109
# Velocity P-wave (km/s) = 5.89783 6.01480 5.95660
#
# Compressibility (1/GPa) = 0.02698716
#
# Stress axis : x y z
#
# Youngs Moduli (GPa) = 60.27899 60.27899 86.96149
#
# Poissons Ratio (x) = 0.28026 0.18245
# Poissons Ratio (y) = 0.28026 0.18245
# Poissons Ratio (z) = 0.12647 0.12647
#
# Static dielectric constant tensor:
#      x y z
#    x 1.641190 0.000000 0.000000 
#    y 0.000000 1.641190 0.000000 
#    z 0.000000 0.000000 1.637850 
# 
# From -- ./inp_files/7254.got.cif
#   From: 2010.05.17/outbox.cif.g08.bks.cpg/sg142_4_cif.got.tgz:7254.got - 2010.05.20 13:39:18.
