data_PCOD9573183
_publ_section_title
;
Structure prediction by ZEFSAII (Michael W. Deem and Ramdas Pophale) SiO2 
 PCOD9573183
Probable space group: I 41/A M D
;
_chemical_formula_sum "Si O2"
_cell_formula_units_Z 160
_cell_length_a 18.394814
_cell_length_b 18.394814
_cell_length_c 24.617472
_cell_angle_alpha 90.000000
_cell_angle_beta 90.000000
_cell_angle_gamma 90.000000
_cell_volume 8329.793866
_symmetry_space_group_name_H-M "I 41/A M D"
_symmetry_group_IT_number 141
_space_group.IT_coordinate_system_code '2'
_symmetry_cell_setting 'tetragonal'
loop_
_space_group_symop_operation_xyz
x,y,z
1/4-y,3/4+x,1/4+z
-x,1/2-y,z
1/4+y,1/4-x,3/4+z
x,-y,-z
-x,1/2+y,-z
1/4+y,3/4+x,1/4-z
1/4-y,1/4-x,3/4-z
-x,-y,-z
3/4+y,1/4-x,3/4-z
x,1/2+y,-z
3/4-y,3/4+x,1/4-z
-x,y,z
x,1/2-y,z
3/4-y,1/4-x,3/4+z
3/4+y,3/4+x,1/4+z
1/2+x,1/2+y,1/2+z
3/4-y,1/4+x,3/4+z
1/2-x,-y,1/2+z
3/4+y,3/4-x,1/4+z
1/2+x,1/2-y,1/2-z
1/2-x,y,1/2-z
3/4+y,1/4+x,3/4-z
3/4-y,3/4-x,1/4-z
1/2-x,1/2-y,1/2-z
1/4+y,3/4-x,1/4-z
1/2+x,y,1/2-z
1/4-y,1/4+x,3/4-z
1/2-x,1/2+y,1/2+z
1/2+x,-y,1/2+z
1/4-y,3/4-x,1/4+z
1/4+y,1/4+x,3/4+z
loop_
_atom_site_type_symbol
_atom_site_label
_atom_site_fract_x
_atom_site_fract_y
_atom_site_fract_z
Si Si1 0.415972 0.831465 0.744100
Si Si2 0.326426 0.834406 0.528156
Si Si3 0.268241 0.426487 0.572493
Si Si4 0.636435 0.666365 0.121207
Si Si5 0.163447 0.555177 0.684567
O O1 0.500000 0.855205 0.755732
O O2 0.406311 0.750000 0.765323
O O3 0.410336 0.830175 0.678672
O O4 0.357083 0.885633 0.770159
O O5 0.334616 0.750000 0.512848
O O6 0.310201 0.887121 0.476676
O O7 0.388012 0.859447 0.570582
O O8 0.253571 0.849444 0.562249
O O9 0.318517 0.431484 0.625000
O O10 0.202169 0.379264 0.595751
O O11 0.235976 0.507901 0.560138
O O12 0.657883 0.750000 0.126553
O O13 0.161941 0.588060 0.625000
#
# Coordination Sequence:
#
# PCOD9573183 Si02
#       5
#    32  32  32  32  32
#     4  10  22  39  59  88 132 176 214 262 317 378
#     4  12  24  41  67  95 126 169 211 262 319 376
#     4  11  23  42  67  95 128 163 208 270 324 378
#     4  11  23  42  67  95 127 167 212 261 319 385
#     4  11  22  39  63  92 126 166 216 265 315 373
#
# _framework density 19.208158000000001
#
# number of rings (size 3 to 8) (size 9 to 14) (size 15 to 20)
#    0.000    1.000    6.000    2.400    0.000    2.800 
#    0.000    5.000    0.000    0.000    0.000    0.000 
#    0.000    0.000    0.000    0.000    0.000    0.000 
#
# Total GULP energy -445790.009120 kJ/mol
# GULP energy per Si atom -5572.375114 kJ/mol
# Density = 1.916444 g / cm^3
# Si number density = 19.208158 Si / 1000 Ang^3
#
#
#
# Elastic Constant Matrix: (Units=GPa)
#
#
# Indices 1 2 3 4 5 6 
#
# 1 358.0139 -256.8847 42.7317 0.0000 0.0000 0.0000
# 2 -256.8847 357.9021 42.7360 0.0000 0.0000 0.0000
# 3 42.7317 42.7360 117.7466 0.0000 0.0000 0.0000
# 4 0.0000 0.0000 0.0000 25.4029 0.0000 0.0000
# 5 0.0000 0.0000 0.0000 0.0000 25.4027 0.0000
# 6 0.0000 0.0000 0.0000 0.0000 0.0000 12.7470
#
#
#
# Elastic Compliance Matrix: (Units=1/GPa)
#
#
# Indices 1 2 3 4 5 6 
#
# 1 0.007949 0.006324 -0.005180 0.000000 0.000000 0.000000
# 2 0.006324 0.007952 -0.005181 0.000000 0.000000 0.000000
# 3 -0.005180 -0.005181 0.012253 0.000000 0.000000 0.000000
# 4 0.000000 0.000000 0.000000 0.039366 0.000000 0.000000
# 5 0.000000 0.000000 0.000000 0.000000 0.039366 0.000000
# 6 0.000000 0.000000 0.000000 0.000000 0.000000 0.078450
#
#
# Mechanical properties :
#
#
# Convention : Reuss Voigt Hill
#
# Bulk Modulus (GPa) = 49.80147 54.53651 52.16899
# Shear Modulus (GPa) = 24.98709 79.71582 52.35146
#
# Velocity S-wave (km/s) = 3.61065 6.44912 5.22628
# Velocity P-wave (km/s) = 6.58528 9.16018 7.97731
#
# Compressibility (1/GPa) = 0.02007973
#
# Stress axis : x y z
#
# Youngs Moduli (GPa) = 125.79893 125.75675 81.61077
#
# Poissons Ratio (x) = -0.79530 0.42276
# Poissons Ratio (y) = -0.79556 0.42284
# Poissons Ratio (z) = 0.65166 0.65157
#
# Static dielectric constant tensor:
#      x y z
#    x 1.785040 0.000000 0.000000 
#    y 0.000000 1.785040 0.000000 
#    z 0.000000 0.000000 1.727860 
# 
# From -- ./inp_files/12702.got.cif
#   From: 2010.05.17/outbox.cif.g08.bks.cpg/sg141_7_cif.got.tgz:12702.got - 2010.05.20 13:30:51.
