data_PCOD9573850
_publ_section_title
;
Structure prediction by ZEFSAII (Michael W. Deem and Ramdas Pophale) SiO2 
 PCOD9573850
Probable space group: I 41/A C D
;
_chemical_formula_sum "Si O2"
_cell_formula_units_Z 144
_cell_length_a 17.118025
_cell_length_b 17.118025
_cell_length_c 20.916437
_cell_angle_alpha 90.000000
_cell_angle_beta 90.000000
_cell_angle_gamma 90.000000
_cell_volume 6129.076181
_symmetry_space_group_name_H-M "I 41/A C D"
_symmetry_group_IT_number 142
_space_group.IT_coordinate_system_code '2'
_symmetry_cell_setting 'tetragonal'
loop_
_space_group_symop_operation_xyz
x,y,z
1/4-y,3/4+x,1/4+z
-x,1/2-y,z
1/4+y,1/4-x,3/4+z
x,-y,1/2-z
1/2-x,y,-z
3/4+y,1/4+x,1/4-z
1/4-y,1/4-x,1/4-z
-x,-y,-z
3/4+y,1/4-x,3/4-z
x,1/2+y,-z
3/4-y,3/4+x,1/4-z
-x,y,1/2+z
1/2+x,-y,z
1/4-y,3/4-x,3/4+z
3/4+y,3/4+x,3/4+z
1/2+x,1/2+y,1/2+z
3/4-y,1/4+x,3/4+z
1/2-x,-y,1/2+z
3/4+y,3/4-x,1/4+z
1/2+x,1/2-y,-z
-x,1/2+y,1/2-z
1/4+y,3/4+x,3/4-z
3/4-y,3/4-x,3/4-z
1/2-x,1/2-y,1/2-z
1/4+y,3/4-x,1/4-z
1/2+x,y,1/2-z
1/4-y,1/4+x,3/4-z
1/2-x,1/2+y,z
x,1/2-y,1/2+z
3/4-y,1/4-x,1/4+z
1/4+y,1/4+x,1/4+z
loop_
_atom_site_type_symbol
_atom_site_label
_atom_site_fract_x
_atom_site_fract_y
_atom_site_fract_z
Si Si1 0.720492 0.060520 0.571205
Si Si2 0.539174 0.927882 0.398663
Si Si3 0.537340 0.165387 0.710374
Si Si4 0.205674 0.161261 0.636167
Si Si5 0.250000 0.805745 0.000000
O O1 0.750000 0.070755 0.500000
O O2 0.690875 0.141255 0.599677
O O3 0.780513 0.030513 0.625000
O O4 0.651185 0.997561 0.569117
O O5 0.483136 0.865947 0.361350
O O6 0.569326 0.880836 0.460157
O O7 0.494820 0.010184 0.407072
O O8 0.500000 0.250000 0.725828
O O9 0.516000 0.086707 0.750412
O O10 0.116377 0.133623 0.625000
O O11 0.246783 0.149086 0.566418
#
# Coordination Sequence:
#
# PCOD9573850 Si02
#       5
#    32  32  32  32  16
#     4  11  25  42  68 104 145 188 243 309 381 461
#     4  11  19  40  67 100 134 183 244 310 369 465
#     4  11  19  37  68 103 139 182 258 309 372 462
#     4  10  23  40  67  98 140 180 239 305 382 449
#     4  10  22  38  64 102 140 194 236 314 374 458
#
# _framework density 23.49457
#
# number of rings (size 3 to 8) (size 9 to 14) (size 15 to 20)
#    0.000    1.333    6.667    0.000   12.444    0.000 
#    0.000    6.667    0.000    0.000    0.000    0.000 
#    0.000    0.000    0.000    0.000    0.000    0.000 
#
# Total GULP energy -401021.485038 kJ/mol
# GULP energy per Si atom -5569.742848 kJ/mol
# Density = 2.344110 g / cm^3
# Si number density = 23.494570 Si / 1000 Ang^3
#
#
#
# Elastic Constant Matrix: (Units=GPa)
#
#
# Indices 1 2 3 4 5 6 
#
# 1 125.1400 44.1342 30.7717 0.0000 0.0000 0.0000
# 2 44.1342 125.1388 30.7722 0.0000 0.0000 0.0000
# 3 30.7717 30.7722 54.8042 0.0000 0.0000 0.0000
# 4 0.0000 0.0000 0.0000 25.3317 0.0000 0.0000
# 5 0.0000 0.0000 0.0000 0.0000 25.3324 0.0000
# 6 0.0000 0.0000 0.0000 0.0000 0.0000 56.0851
#
#
#
# Elastic Compliance Matrix: (Units=1/GPa)
#
#
# Indices 1 2 3 4 5 6 
#
# 1 0.009884 -0.002461 -0.004168 0.000000 0.000000 0.000000
# 2 -0.002461 0.009884 -0.004168 0.000000 0.000000 0.000000
# 3 -0.004168 -0.004168 0.022927 0.000000 0.000000 0.000000
# 4 0.000000 0.000000 0.000000 0.039476 0.000000 0.000000
# 5 0.000000 0.000000 0.000000 0.000000 0.039475 0.000000
# 6 0.000000 0.000000 0.000000 0.000000 0.000000 0.017830
#
#
# Mechanical properties :
#
#
# Convention : Reuss Voigt Hill
#
# Bulk Modulus (GPa) = 47.38995 57.38214 52.38604
# Shear Modulus (GPa) = 29.74350 34.64351 32.19350
#
# Velocity S-wave (km/s) = 3.56191 3.84413 3.70571
# Velocity P-wave (km/s) = 6.09349 6.64678 6.37614
#
# Compressibility (1/GPa) = 0.02110152
#
# Stress axis : x y z
#
# Youngs Moduli (GPa) = 101.17529 101.17367 43.61620
#
# Poissons Ratio (x) = 0.24898 0.18178
# Poissons Ratio (y) = 0.24899 0.18179
# Poissons Ratio (z) = 0.42168 0.42169
#
# Static dielectric constant tensor:
#      x y z
#    x 2.024150 0.000000 0.000000 
#    y 0.000000 2.024160 0.000000 
#    z 0.000000 0.000000 1.941860 
# 
# From -- ./inp_files/10123.got.cif
#   From: 2010.05.17/outbox.cif.g08.bks.cpg/sg142_6_cif.got.tgz:10123.got - 2010.05.20 13:39:18.
