data_PCOD9573514
_publ_section_title
;
Structure prediction by ZEFSAII (Michael W. Deem and Ramdas Pophale) SiO2 
 PCOD9573514
Probable space group: I 41/A C D
;
_chemical_formula_sum "Si O2"
_cell_formula_units_Z 144
_cell_length_a 21.524198
_cell_length_b 21.524198
_cell_length_c 17.631378
_cell_angle_alpha 90.000000
_cell_angle_beta 90.000000
_cell_angle_gamma 90.000000
_cell_volume 8168.460500
_symmetry_space_group_name_H-M "I 41/A C D"
_symmetry_group_IT_number 142
_space_group.IT_coordinate_system_code '2'
_symmetry_cell_setting 'tetragonal'
loop_
_space_group_symop_operation_xyz
x,y,z
1/4-y,3/4+x,1/4+z
-x,1/2-y,z
1/4+y,1/4-x,3/4+z
x,-y,1/2-z
1/2-x,y,-z
3/4+y,1/4+x,1/4-z
1/4-y,1/4-x,1/4-z
-x,-y,-z
3/4+y,1/4-x,3/4-z
x,1/2+y,-z
3/4-y,3/4+x,1/4-z
-x,y,1/2+z
1/2+x,-y,z
1/4-y,3/4-x,3/4+z
3/4+y,3/4+x,3/4+z
1/2+x,1/2+y,1/2+z
3/4-y,1/4+x,3/4+z
1/2-x,-y,1/2+z
3/4+y,3/4-x,1/4+z
1/2+x,1/2-y,-z
-x,1/2+y,1/2-z
1/4+y,3/4+x,3/4-z
3/4-y,3/4-x,3/4-z
1/2-x,1/2-y,1/2-z
1/4+y,3/4-x,1/4-z
1/2+x,y,1/2-z
1/4-y,1/4+x,3/4-z
1/2-x,1/2+y,z
x,1/2-y,1/2+z
3/4-y,1/4-x,1/4+z
1/4+y,1/4+x,1/4+z
loop_
_atom_site_type_symbol
_atom_site_label
_atom_site_fract_x
_atom_site_fract_y
_atom_site_fract_z
Si Si1 0.259838 0.102190 0.744935
Si Si2 0.387221 0.828527 0.710734
Si Si3 0.683617 0.718085 0.266982
Si Si4 0.025580 0.155498 0.350350
Si Si5 0.750324 0.500324 0.875000
O O1 0.325544 0.136805 0.757886
O O2 0.200598 0.147459 0.749393
O O3 0.256187 0.052546 0.812207
O O4 0.257949 0.065766 0.666382
O O5 0.402270 0.847731 0.625000
O O6 0.368122 0.755892 0.719429
O O7 0.443508 0.844917 0.767667
O O8 0.750000 0.750000 0.250000
O O9 0.658824 0.723126 0.353392
O O10 0.067088 0.206016 0.396980
#
# Coordination Sequence:
#
# PCOD9573514 Si02
#       5
#    32  32  32  32  16
#     4  10  19  35  52  79 109 145 183 234 276 336
#     4  10  19  35  58  84 108 141 195 236 283 335
#     4   9  19  35  55  77 114 146 181 236 286 330
#     4   9  18  35  55  78 109 149 183 228 285 338
#     4  10  20  32  56  78 105 149 192 218 284 344
#
# _framework density 17.628782000000001
#
# number of rings (size 3 to 8) (size 9 to 14) (size 15 to 20)
#    0.000    2.444    1.111    1.333    0.000    0.000 
#    4.000    7.778    0.000    0.000    0.000    0.000 
#    0.000    0.000    0.000    0.000    0.000    0.000 
#
# Total GULP energy -400907.198396 kJ/mol
# GULP energy per Si atom -5568.155533 kJ/mol
# Density = 1.758866 g / cm^3
# Si number density = 17.628782 Si / 1000 Ang^3
#
#
#
# Elastic Constant Matrix: (Units=GPa)
#
#
# Indices 1 2 3 4 5 6 
#
# 1 64.5160 13.9044 35.4842 0.0000 0.0000 0.0000
# 2 13.9044 64.5155 35.4840 0.0000 0.0000 0.0000
# 3 35.4842 35.4840 104.0507 0.0000 0.0000 0.0000
# 4 0.0000 0.0000 0.0000 20.9212 0.0000 0.0000
# 5 0.0000 0.0000 0.0000 0.0000 20.9209 0.0000
# 6 0.0000 0.0000 0.0000 0.0000 0.0000 21.2516
#
#
#
# Elastic Compliance Matrix: (Units=1/GPa)
#
#
# Indices 1 2 3 4 5 6 
#
# 1 0.019101 -0.000657 -0.006290 0.000000 0.000000 0.000000
# 2 -0.000657 0.019101 -0.006290 0.000000 0.000000 0.000000
# 3 -0.006290 -0.006290 0.013901 0.000000 0.000000 0.000000
# 4 0.000000 0.000000 0.000000 0.047798 0.000000 0.000000
# 5 0.000000 0.000000 0.000000 0.000000 0.047799 0.000000
# 6 0.000000 0.000000 0.000000 0.000000 0.000000 0.047055
#
#
# Mechanical properties :
#
#
# Convention : Reuss Voigt Hill
#
# Bulk Modulus (GPa) = 39.01804 44.75859 41.88831
# Shear Modulus (GPa) = 21.76060 22.49938 22.12999
#
# Velocity S-wave (km/s) = 3.51718 3.57639 3.54691
# Velocity P-wave (km/s) = 6.21895 6.51910 6.37079
#
# Compressibility (1/GPa) = 0.02562917
#
# Stress axis : x y z
#
# Youngs Moduli (GPa) = 52.35282 52.35251 71.93848
#
# Poissons Ratio (x) = 0.03441 0.45249
# Poissons Ratio (y) = 0.03441 0.45249
# Poissons Ratio (z) = 0.32930 0.32929
#
# Static dielectric constant tensor:
#      x y z
#    x 1.695950 0.000000 0.000000 
#    y 0.000000 1.695910 0.000000 
#    z 0.000000 0.000000 1.579960 
# 
# From -- ./inp_files/7266.got.cif
#   From: 2010.05.17/outbox.cif.g08.bks.cpg/sg142_4_cif.got.tgz:7266.got - 2010.05.20 13:39:18.
