data_PCOD9573047
_publ_section_title
;
Structure prediction by ZEFSAII (Michael W. Deem and Ramdas Pophale) SiO2 
 PCOD9573047
Probable space group: I 41/A M D
;
_chemical_formula_sum "Si O2"
_cell_formula_units_Z 132
_cell_length_a 21.072007
_cell_length_b 21.072007
_cell_length_c 14.482348
_cell_angle_alpha 90.000000
_cell_angle_beta 90.000000
_cell_angle_gamma 90.000000
_cell_volume 6430.589437
_symmetry_space_group_name_H-M "I 41/A M D"
_symmetry_group_IT_number 141
_space_group.IT_coordinate_system_code '2'
_symmetry_cell_setting 'tetragonal'
loop_
_space_group_symop_operation_xyz
x,y,z
1/4-y,3/4+x,1/4+z
-x,1/2-y,z
1/4+y,1/4-x,3/4+z
x,-y,-z
-x,1/2+y,-z
1/4+y,3/4+x,1/4-z
1/4-y,1/4-x,3/4-z
-x,-y,-z
3/4+y,1/4-x,3/4-z
x,1/2+y,-z
3/4-y,3/4+x,1/4-z
-x,y,z
x,1/2-y,z
3/4-y,1/4-x,3/4+z
3/4+y,3/4+x,1/4+z
1/2+x,1/2+y,1/2+z
3/4-y,1/4+x,3/4+z
1/2-x,-y,1/2+z
3/4+y,3/4-x,1/4+z
1/2+x,1/2-y,1/2-z
1/2-x,y,1/2-z
3/4+y,1/4+x,3/4-z
3/4-y,3/4-x,1/4-z
1/2-x,1/2-y,1/2-z
1/4+y,3/4-x,1/4-z
1/2+x,y,1/2-z
1/4-y,1/4+x,3/4-z
1/2-x,1/2+y,1/2+z
1/2+x,-y,1/2+z
1/4-y,3/4-x,1/4+z
1/4+y,1/4+x,3/4+z
loop_
_atom_site_type_symbol
_atom_site_label
_atom_site_fract_x
_atom_site_fract_y
_atom_site_fract_z
Si Si1 0.122570 0.546417 0.689052
Si Si2 0.352692 0.750000 0.849997
Si Si3 0.142157 0.323918 0.624961
Si Si4 0.000000 0.822276 0.416119
Si Si5 0.000000 0.750000 0.625000
Si Si6 0.826613 0.928824 0.016482
O O1 0.180206 0.569795 0.625000
O O2 0.060957 0.563049 0.629083
O O3 0.112261 0.586601 0.783416
O O4 0.131910 0.474369 0.720186
O O5 0.374591 0.750000 0.744448
O O6 0.422051 0.750000 0.899075
O O7 0.160126 0.250000 0.613343
O O8 0.173104 0.357518 0.712351
O O9 0.066068 0.326802 0.636259
O O10 0.000000 0.750000 0.459573
O O11 0.832776 0.917225 0.125000
O O12 0.801694 0.000000 0.000000
#
# Coordination Sequence:
#
# PCOD9573047 Si02
#       6
#    32  16  32  16   4  32
#     4  12  24  39  68 107 140 181 233 280 344 440
#     4  12  20  35  66 108 148 192 219 267 351 437
#     4  11  24  45  72 105 137 187 238 284 356 442
#     4  10  20  41  69 105 154 188 219 275 364 438
#     4  12  16  32  60 104 160 196 210 256 356 428
#     4  12  27  51  72  91 134 193 244 309 369 414
#
# _framework density 20.526890000000002
#
# number of rings (size 3 to 8) (size 9 to 14) (size 15 to 20)
#    0.000    0.485    7.879    0.727    0.000    1.455 
#    4.364    1.212    0.000    0.000    0.000    0.000 
#    0.000    0.000    0.000    0.000    0.000    0.000 
#
# Total GULP energy -368615.427409 kJ/mol
# GULP energy per Si atom -5585.082233 kJ/mol
# Density = 2.048017 g / cm^3
# Si number density = 20.526890 Si / 1000 Ang^3
#
#
#
# Elastic Constant Matrix: (Units=GPa)
#
#
# Indices 1 2 3 4 5 6 
#
# 1 63.7499 30.7940 24.9348 0.0000 0.0000 0.0000
# 2 30.7940 63.7503 24.9352 0.0000 0.0000 0.0000
# 3 24.9348 24.9352 110.0862 0.0000 0.0000 0.0000
# 4 0.0000 0.0000 0.0000 23.6560 0.0000 0.0000
# 5 0.0000 0.0000 0.0000 0.0000 23.6553 0.0000
# 6 0.0000 0.0000 0.0000 0.0000 0.0000 32.1654
#
#
#
# Elastic Compliance Matrix: (Units=1/GPa)
#
#
# Indices 1 2 3 4 5 6 
#
# 1 0.021178 -0.009166 -0.002721 0.000000 0.000000 0.000000
# 2 -0.009166 0.021178 -0.002721 0.000000 0.000000 0.000000
# 3 -0.002721 -0.002721 0.010316 0.000000 0.000000 0.000000
# 4 0.000000 0.000000 0.000000 0.042273 0.000000 0.000000
# 5 0.000000 0.000000 0.000000 0.000000 0.042274 0.000000
# 6 0.000000 0.000000 0.000000 0.000000 0.000000 0.031089
#
#
# Mechanical properties :
#
#
# Convention : Reuss Voigt Hill
#
# Bulk Modulus (GPa) = 42.63021 44.32383 43.47702
# Shear Modulus (GPa) = 24.34970 26.35684 25.35327
#
# Velocity S-wave (km/s) = 3.44791 3.58720 3.51825
# Velocity P-wave (km/s) = 6.05507 6.22875 6.14252
#
# Compressibility (1/GPa) = 0.02345754
#
# Stress axis : x y z
#
# Youngs Moduli (GPa) = 47.21904 47.21929 96.93353
#
# Poissons Ratio (x) = 0.43279 0.26374
# Poissons Ratio (y) = 0.43279 0.26374
# Poissons Ratio (z) = 0.12847 0.12848
#
# Static dielectric constant tensor:
#      x y z
#    x 1.730880 0.000000 0.000000 
#    y 0.000000 1.730880 0.000000 
#    z 0.000000 0.000000 1.629190 
# 
# From -- ./inp_files/6290.got.cif
#   From: 2010.05.17/outbox.cif.g08.bks.cpg/sg141_4_cif.got.tgz:6290.got - 2010.05.20 13:30:51.
