data_PCOD9573483
_publ_section_title
;
Structure prediction by ZEFSAII (Michael W. Deem and Ramdas Pophale) SiO2 
 PCOD9573483
Probable space group: I 41/A C D
;
_chemical_formula_sum "Si O2"
_cell_formula_units_Z 112
_cell_length_a 15.697321
_cell_length_b 15.697321
_cell_length_c 22.403489
_cell_angle_alpha 90.000000
_cell_angle_beta 90.000000
_cell_angle_gamma 90.000000
_cell_volume 5520.351569
_symmetry_space_group_name_H-M "I 41/A C D"
_symmetry_group_IT_number 142
_space_group.IT_coordinate_system_code '2'
_symmetry_cell_setting 'tetragonal'
loop_
_space_group_symop_operation_xyz
x,y,z
1/4-y,3/4+x,1/4+z
-x,1/2-y,z
1/4+y,1/4-x,3/4+z
x,-y,1/2-z
1/2-x,y,-z
3/4+y,1/4+x,1/4-z
1/4-y,1/4-x,1/4-z
-x,-y,-z
3/4+y,1/4-x,3/4-z
x,1/2+y,-z
3/4-y,3/4+x,1/4-z
-x,y,1/2+z
1/2+x,-y,z
1/4-y,3/4-x,3/4+z
3/4+y,3/4+x,3/4+z
1/2+x,1/2+y,1/2+z
3/4-y,1/4+x,3/4+z
1/2-x,-y,1/2+z
3/4+y,3/4-x,1/4+z
1/2+x,1/2-y,-z
-x,1/2+y,1/2-z
1/4+y,3/4+x,3/4-z
3/4-y,3/4-x,3/4-z
1/2-x,1/2-y,1/2-z
1/4+y,3/4-x,1/4-z
1/2+x,y,1/2-z
1/4-y,1/4+x,3/4-z
1/2-x,1/2+y,z
x,1/2-y,1/2+z
3/4-y,1/4-x,1/4+z
1/4+y,1/4+x,1/4+z
loop_
_atom_site_type_symbol
_atom_site_label
_atom_site_fract_x
_atom_site_fract_y
_atom_site_fract_z
Si Si1 0.691678 0.617848 0.942038
Si Si2 0.805200 0.252309 0.617170
Si Si3 0.945150 0.167927 0.027018
Si Si4 0.305957 0.444044 0.375000
O O1 0.723175 0.687621 0.893739
O O2 0.704778 0.522027 0.920339
O O3 0.750000 0.631219 0.000000
O O4 0.597676 0.631509 0.967655
O O5 0.845168 0.258866 0.683569
O O6 0.875143 0.293155 0.572864
O O7 0.795342 0.152856 0.601653
O O8 0.000000 0.250000 0.011616
#
# Coordination Sequence:
#
# PCOD9573483 Si02
#       4
#    32  32  32  16
#     4  10  23  38  59  91 125 157 213 267 312 386
#     4  10  20  40  63  88 123 167 214 257 332 386
#     4  10  18  39  63  86 119 166 215 262 313 397
#     4  12  22  41  64  91 126 172 204 270 326 386
#
# _framework density 20.288563
#
# number of rings (size 3 to 8) (size 9 to 14) (size 15 to 20)
#    0.000    1.714    2.857    4.286    0.000    4.571 
#    5.143    0.000    0.000    0.000    0.000    0.000 
#    0.000    0.000    0.000    0.000    0.000    0.000 
#
# Total GULP energy -312163.945261 kJ/mol
# GULP energy per Si atom -5574.356165 kJ/mol
# Density = 2.024239 g / cm^3
# Si number density = 20.288563 Si / 1000 Ang^3
#
#
#
# Elastic Constant Matrix: (Units=GPa)
#
#
# Indices 1 2 3 4 5 6 
#
# 1 101.0590 39.1865 43.4258 0.0000 0.0000 0.0000
# 2 39.1865 101.0572 43.4254 0.0000 0.0000 0.0000
# 3 43.4258 43.4254 50.7638 0.0000 0.0000 0.0000
# 4 0.0000 0.0000 0.0000 6.3583 0.0000 0.0000
# 5 0.0000 0.0000 0.0000 0.0000 6.3570 0.0000
# 6 0.0000 0.0000 0.0000 0.0000 0.0000 33.4602
#
#
#
# Elastic Compliance Matrix: (Units=1/GPa)
#
#
# Indices 1 2 3 4 5 6 
#
# 1 0.015663 -0.000500 -0.012971 0.000000 0.000000 0.000000
# 2 -0.000500 0.015663 -0.012972 0.000000 0.000000 0.000000
# 3 -0.012971 -0.012972 0.041892 0.000000 0.000000 0.000000
# 4 0.000000 0.000000 0.000000 0.157275 0.000000 0.000000
# 5 0.000000 0.000000 0.000000 0.000000 0.157306 0.000000
# 6 0.000000 0.000000 0.000000 0.000000 0.000000 0.029886
#
#
# Mechanical properties :
#
#
# Convention : Reuss Voigt Hill
#
# Bulk Modulus (GPa) = 49.18162 56.10616 52.64389
# Shear Modulus (GPa) = 10.47455 17.69126 14.08290
#
# Velocity S-wave (km/s) = 2.27464 2.95614 2.63749
# Velocity P-wave (km/s) = 5.58501 6.27422 5.93962
#
# Compressibility (1/GPa) = 0.02033280
#
# Stress axis : x y z
#
# Youngs Moduli (GPa) = 63.84538 63.84433 23.87101
#
# Poissons Ratio (x) = 0.03189 0.30964
# Poissons Ratio (y) = 0.03189 0.30964
# Poissons Ratio (z) = 0.82817 0.82816
#
# Static dielectric constant tensor:
#      x y z
#    x 1.775220 0.000000 0.000000 
#    y 0.000000 1.775210 0.000000 
#    z 0.000000 0.000000 1.712310 
# 
# From -- ./inp_files/6859.got.cif
#   From: 2010.05.17/outbox.cif.g08.bks.cpg/sg142_4_cif.got.tgz:6859.got - 2010.05.20 13:39:18.
