data_PCOD9573099
_publ_section_title
;
Structure prediction by ZEFSAII (Michael W. Deem and Ramdas Pophale) SiO2 
 PCOD9573099
Probable space group: I 41/A M D
;
_chemical_formula_sum "Si O2"
_cell_formula_units_Z 112
_cell_length_a 22.966145
_cell_length_b 22.966145
_cell_length_c 10.591663
_cell_angle_alpha 90.000000
_cell_angle_beta 90.000000
_cell_angle_gamma 90.000000
_cell_volume 5586.507152
_symmetry_space_group_name_H-M "I 41/A M D"
_symmetry_group_IT_number 141
_space_group.IT_coordinate_system_code '2'
_symmetry_cell_setting 'tetragonal'
loop_
_space_group_symop_operation_xyz
x,y,z
1/4-y,3/4+x,1/4+z
-x,1/2-y,z
1/4+y,1/4-x,3/4+z
x,-y,-z
-x,1/2+y,-z
1/4+y,3/4+x,1/4-z
1/4-y,1/4-x,3/4-z
-x,-y,-z
3/4+y,1/4-x,3/4-z
x,1/2+y,-z
3/4-y,3/4+x,1/4-z
-x,y,z
x,1/2-y,z
3/4-y,1/4-x,3/4+z
3/4+y,3/4+x,1/4+z
1/2+x,1/2+y,1/2+z
3/4-y,1/4+x,3/4+z
1/2-x,-y,1/2+z
3/4+y,3/4-x,1/4+z
1/2+x,1/2-y,1/2-z
1/2-x,y,1/2-z
3/4+y,1/4+x,3/4-z
3/4-y,3/4-x,1/4-z
1/2-x,1/2-y,1/2-z
1/4+y,3/4-x,1/4-z
1/2+x,y,1/2-z
1/4-y,1/4+x,3/4-z
1/2-x,1/2+y,1/2+z
1/2+x,-y,1/2+z
1/4-y,3/4-x,1/4+z
1/4+y,1/4+x,3/4+z
loop_
_atom_site_type_symbol
_atom_site_label
_atom_site_fract_x
_atom_site_fract_y
_atom_site_fract_z
Si Si1 0.618262 0.315491 0.828788
Si Si2 0.337731 0.000000 0.000000
Si Si3 0.830229 0.312772 0.953072
Si Si4 0.716831 0.620355 0.015954
O O1 0.597180 0.250000 0.862885
O O2 0.574251 0.369432 0.806635
O O3 0.643108 0.310503 0.686604
O O4 0.668929 0.337763 0.921828
O O5 0.373385 0.028760 0.113666
O O6 0.299357 0.946151 0.050239
O O7 0.802280 0.250000 0.979849
O O8 0.781271 0.361532 0.944941
#
# Coordination Sequence:
#
# PCOD9573099 Si02
#       4
#    32  16  32  32
#     4  10  21  37  61  89 121 159 204 254 307 376
#     4  10  24  36  61  84 121 158 208 254 302 382
#     4  10  21  38  60  90 122 158 203 252 315 375
#     4  11  20  40  57  86 122 159 205 254 311 371
#
# _framework density 20.048304999999999
#
# number of rings (size 3 to 8) (size 9 to 14) (size 15 to 20)
#    0.000    1.714    2.857    1.714    0.000    7.429 
#    0.000    5.714    0.000    0.000    0.000    0.000 
#    0.000    0.000    0.000    0.000    0.000    0.000 
#
# Total GULP energy -311867.898143 kJ/mol
# GULP energy per Si atom -5569.069610 kJ/mol
# Density = 2.000267 g / cm^3
# Si number density = 20.048305 Si / 1000 Ang^3
#
#
#
# Elastic Constant Matrix: (Units=GPa)
#
#
# Indices 1 2 3 4 5 6 
#
# 1 80.3812 21.6102 21.3859 0.0000 0.0000 0.0000
# 2 21.6102 80.3812 21.3859 0.0000 0.0000 0.0000
# 3 21.3859 21.3859 67.9908 0.0000 0.0000 0.0000
# 4 0.0000 0.0000 0.0000 19.1109 0.0000 0.0000
# 5 0.0000 0.0000 0.0000 0.0000 19.1109 0.0000
# 6 0.0000 0.0000 0.0000 0.0000 0.0000 18.2611
#
#
#
# Elastic Compliance Matrix: (Units=1/GPa)
#
#
# Indices 1 2 3 4 5 6 
#
# 1 0.014155 -0.002860 -0.003553 0.000000 0.000000 0.000000
# 2 -0.002860 0.014155 -0.003553 0.000000 0.000000 0.000000
# 3 -0.003553 -0.003553 0.016943 0.000000 0.000000 0.000000
# 4 0.000000 0.000000 0.000000 0.052326 0.000000 0.000000
# 5 0.000000 0.000000 0.000000 0.000000 0.052326 0.000000
# 6 0.000000 0.000000 0.000000 0.000000 0.000000 0.054761
#
#
# Mechanical properties :
#
#
# Convention : Reuss Voigt Hill
#
# Bulk Modulus (GPa) = 39.49212 39.72411 39.60811
# Shear Modulus (GPa) = 21.45574 22.25464 21.85519
#
# Velocity S-wave (km/s) = 3.27494 3.33536 3.30529
# Velocity P-wave (km/s) = 5.83452 5.88982 5.86224
#
# Compressibility (1/GPa) = 0.02532151
#
# Stress axis : x y z
#
# Youngs Moduli (GPa) = 70.64691 70.64691 59.02225
#
# Poissons Ratio (x) = 0.20207 0.20968
# Poissons Ratio (y) = 0.20207 0.20968
# Poissons Ratio (z) = 0.25098 0.25098
#
# Static dielectric constant tensor:
#      x y z
#    x 1.751770 0.000000 0.000000 
#    y 0.000000 1.751770 0.000000 
#    z 0.000000 0.000000 1.744690 
# 
# From -- ./inp_files/4415.got.cif
#   From: 2010.05.17/outbox.cif.g08.bks.cpg/sg141_3_cif.got.tgz:4415.got - 2010.05.20 13:30:51.
