data_PCOD9573399
_publ_section_title
;
Structure prediction by ZEFSAII (Michael W. Deem and Ramdas Pophale) SiO2 
 PCOD9573399
Probable space group: I 41/A C D
;
_chemical_formula_sum "Si O2"
_cell_formula_units_Z 136
_cell_length_a 24.364197
_cell_length_b 24.364197
_cell_length_c 11.904307
_cell_angle_alpha 90.000000
_cell_angle_beta 90.000000
_cell_angle_gamma 90.000000
_cell_volume 7066.564432
_symmetry_space_group_name_H-M "I 41/A C D"
_symmetry_group_IT_number 142
_space_group.IT_coordinate_system_code '2'
_symmetry_cell_setting 'tetragonal'
loop_
_space_group_symop_operation_xyz
x,y,z
1/4-y,3/4+x,1/4+z
-x,1/2-y,z
1/4+y,1/4-x,3/4+z
x,-y,1/2-z
1/2-x,y,-z
3/4+y,1/4+x,1/4-z
1/4-y,1/4-x,1/4-z
-x,-y,-z
3/4+y,1/4-x,3/4-z
x,1/2+y,-z
3/4-y,3/4+x,1/4-z
-x,y,1/2+z
1/2+x,-y,z
1/4-y,3/4-x,3/4+z
3/4+y,3/4+x,3/4+z
1/2+x,1/2+y,1/2+z
3/4-y,1/4+x,3/4+z
1/2-x,-y,1/2+z
3/4+y,3/4-x,1/4+z
1/2+x,1/2-y,-z
-x,1/2+y,1/2-z
1/4+y,3/4+x,3/4-z
3/4-y,3/4-x,3/4-z
1/2-x,1/2-y,1/2-z
1/4+y,3/4-x,1/4-z
1/2+x,y,1/2-z
1/4-y,1/4+x,3/4-z
1/2-x,1/2+y,z
x,1/2-y,1/2+z
3/4-y,1/4-x,1/4+z
1/4+y,1/4+x,1/4+z
loop_
_atom_site_type_symbol
_atom_site_label
_atom_site_fract_x
_atom_site_fract_y
_atom_site_fract_z
Si Si1 0.884336 0.000000 0.250000
Si Si2 0.313312 0.592909 0.874752
Si Si3 0.000000 0.750000 0.625000
Si Si4 0.166276 0.328817 0.177489
Si Si5 0.684010 0.934010 0.125000
Si Si6 0.493393 0.170336 0.932614
O O1 0.846772 0.955323 0.187127
O O2 0.917967 0.968363 0.345957
O O3 0.322272 0.647895 0.801893
O O4 0.249218 0.576995 0.865169
O O5 0.330987 0.593885 0.005634
O O6 0.944869 0.759897 0.694001
O O7 0.121850 0.371850 0.125000
O O8 0.139245 0.268866 0.177625
O O9 0.436123 0.186123 0.875000
O O10 0.539295 0.210706 0.875000
#
# Coordination Sequence:
#
# PCOD9573399 Si02
#       6
#    16  32   8  32  16  32
#     4  10  16  26  38  66 102 142 188 232 268 310
#     4  10  17  25  38  59  99 151 201 228 261 304
#     4   8  14  28  56  74 100 116 154 240 300 350
#     4   9  17  26  43  69 104 139 183 232 275 330
#     4  10  18  24  38  58  96 163 197 228 252 306
#     4   8  15  29  50  79 100 121 164 231 293 347
#
# _framework density 19.245560999999999
#
# number of rings (size 3 to 8) (size 9 to 14) (size 15 to 20)
#    0.000    3.059    2.353    1.412    1.647    0.000 
#    0.000    0.000   10.353    0.000    0.000   26.353 
#    0.000    0.471    0.000    5.176    0.000    0.000 
#
# Total GULP energy -378569.097678 kJ/mol
# GULP energy per Si atom -5567.192613 kJ/mol
# Density = 1.920176 g / cm^3
# Si number density = 19.245561 Si / 1000 Ang^3
#
#
#
# Elastic Constant Matrix: (Units=GPa)
#
#
# Indices 1 2 3 4 5 6 
#
# 1 49.4717 55.0065 42.5337 0.0000 0.0000 0.0000
# 2 55.0065 49.4716 42.5342 0.0000 0.0000 0.0000
# 3 42.5337 42.5342 156.3729 0.0000 0.0000 0.0000
# 4 0.0000 0.0000 0.0000 -8.3353 0.0000 0.0000
# 5 0.0000 0.0000 0.0000 0.0000 -8.3317 0.0000
# 6 0.0000 0.0000 0.0000 0.0000 0.0000 32.6463
#
#
#
# Elastic Compliance Matrix: (Units=1/GPa)
#
#
# Indices 1 2 3 4 5 6 
#
# 1 -0.084190 0.096484 -0.003344 0.000000 0.000000 0.000000
# 2 0.096484 -0.084190 -0.003344 0.000000 0.000000 0.000000
# 3 -0.003344 -0.003344 0.008214 0.000000 0.000000 0.000000
# 4 0.000000 0.000000 0.000000 -0.119971 0.000000 0.000000
# 5 0.000000 0.000000 0.000000 0.000000 -0.120024 0.000000
# 6 0.000000 0.000000 0.000000 0.000000 0.000000 0.030631
#
#
# Mechanical properties :
#
#
# Convention : Reuss Voigt Hill
#
# Bulk Modulus (GPa) = 51.47668 59.49610 55.48639
# Shear Modulus (GPa) = -9.21411 10.87865 0.83227
#
# Velocity S-wave (km/s) = -2.19044 2.38009 0.65832
# Velocity P-wave (km/s) = 4.51752 6.20761 5.42874
#
# Compressibility (1/GPa) = 0.01942627
#
# Stress axis : x y z
#
# Youngs Moduli (GPa) = -11.87794 -11.87784 121.74110
#
# Poissons Ratio (x) = 1.14602 0.40716
# Poissons Ratio (y) = 1.14603 0.40706
# Poissons Ratio (z) = -0.03973 -0.03972
#
# Static dielectric constant tensor:
#      x y z
#    x 1.667340 0.000000 0.000000 
#    y 0.000000 1.667340 0.000000 
#    z 0.000000 0.000000 1.780430 
# 
# From -- ./inp_files/3630.got.cif
#   From: 2010.05.17/outbox.cif.g08.bks.cpg/sg142_2_cif.got.tgz:3630.got - 2010.05.20 13:39:18.
