data_PCOD9573161
_publ_section_title
;
Structure prediction by ZEFSAII (Michael W. Deem and Ramdas Pophale) SiO2 
 PCOD9573161
Probable space group: I 41/A M D
;
_chemical_formula_sum "Si O2"
_cell_formula_units_Z 144
_cell_length_a 20.708423
_cell_length_b 20.708423
_cell_length_c 16.446810
_cell_angle_alpha 90.000000
_cell_angle_beta 90.000000
_cell_angle_gamma 90.000000
_cell_volume 7053.029987
_symmetry_space_group_name_H-M "I 41/A M D"
_symmetry_group_IT_number 141
_space_group.IT_coordinate_system_code '2'
_symmetry_cell_setting 'tetragonal'
loop_
_space_group_symop_operation_xyz
x,y,z
1/4-y,3/4+x,1/4+z
-x,1/2-y,z
1/4+y,1/4-x,3/4+z
x,-y,-z
-x,1/2+y,-z
1/4+y,3/4+x,1/4-z
1/4-y,1/4-x,3/4-z
-x,-y,-z
3/4+y,1/4-x,3/4-z
x,1/2+y,-z
3/4-y,3/4+x,1/4-z
-x,y,z
x,1/2-y,z
3/4-y,1/4-x,3/4+z
3/4+y,3/4+x,1/4+z
1/2+x,1/2+y,1/2+z
3/4-y,1/4+x,3/4+z
1/2-x,-y,1/2+z
3/4+y,3/4-x,1/4+z
1/2+x,1/2-y,1/2-z
1/2-x,y,1/2-z
3/4+y,1/4+x,3/4-z
3/4-y,3/4-x,1/4-z
1/2-x,1/2-y,1/2-z
1/4+y,3/4-x,1/4-z
1/2+x,y,1/2-z
1/4-y,1/4+x,3/4-z
1/2-x,1/2+y,1/2+z
1/2+x,-y,1/2+z
1/4-y,3/4-x,1/4+z
1/4+y,1/4+x,3/4+z
loop_
_atom_site_type_symbol
_atom_site_label
_atom_site_fract_x
_atom_site_fract_y
_atom_site_fract_z
Si Si1 0.784009 0.534009 0.125000
Si Si2 0.573777 0.825391 0.277080
Si Si3 0.690267 0.099813 0.466544
Si Si4 0.077127 0.552151 0.436104
Si Si5 0.926412 0.171343 0.281811
O O1 0.840406 0.535373 0.192155
O O2 0.717051 0.544466 0.171493
O O3 0.500000 0.846881 0.256790
O O4 0.578243 0.750000 0.256991
O O5 0.581172 0.831172 0.375000
O O6 0.627111 0.866741 0.230870
O O7 0.716889 0.152364 0.404193
O O8 0.102895 0.500000 0.500000
O O9 0.100211 0.622628 0.467157
O O10 0.000000 0.552742 0.440846
O O11 0.928405 0.250000 0.279215
O O12 0.906087 0.156087 0.375000
O O13 0.000000 0.148657 0.267462
#
# Coordination Sequence:
#
# PCOD9573161 Si02
#       5
#    16  32  32  32  32
#     4  10  26  42  62  85 110 166 230 261 308 366
#     4   9  18  36  66 100 130 161 200 258 333 399
#     4  11  22  43  62  86 121 165 214 269 313 376
#     4  10  22  36  56  89 122 154 196 251 321 388
#     4   8  15  31  55  82 114 150 190 238 293 364
#
# _framework density 20.416757
#
# number of rings (size 3 to 8) (size 9 to 14) (size 15 to 20)
#    0.000    2.444    1.111    2.000    3.111    2.667 
#    0.000    6.667    0.000    0.000    0.000    0.000 
#    0.000    0.000    0.000    0.000    0.000    0.000 
#
# Total GULP energy -401224.760125 kJ/mol
# GULP energy per Si atom -5572.566113 kJ/mol
# Density = 2.037029 g / cm^3
# Si number density = 20.416757 Si / 1000 Ang^3
#
#
#
# Elastic Constant Matrix: (Units=GPa)
#
#
# Indices 1 2 3 4 5 6 
#
# 1 41.8061 40.2277 22.1709 0.0000 0.0000 0.0000
# 2 40.2277 41.8061 22.1709 0.0000 0.0000 0.0000
# 3 22.1709 22.1709 93.3810 0.0000 0.0000 0.0000
# 4 0.0000 0.0000 0.0000 13.5345 0.0000 0.0000
# 5 0.0000 0.0000 0.0000 0.0000 13.5345 0.0000
# 6 0.0000 0.0000 0.0000 0.0000 0.0000 18.2308
#
#
#
# Elastic Compliance Matrix: (Units=1/GPa)
#
#
# Indices 1 2 3 4 5 6 
#
# 1 0.323779 -0.309794 -0.003320 0.000000 0.000000 0.000000
# 2 -0.309794 0.323779 -0.003320 0.000000 0.000000 0.000000
# 3 -0.003320 -0.003320 0.012285 0.000000 0.000000 0.000000
# 4 0.000000 0.000000 0.000000 0.073885 0.000000 0.000000
# 5 0.000000 0.000000 0.000000 0.000000 0.073885 0.000000
# 6 0.000000 0.000000 0.000000 0.000000 0.000000 0.054852
#
#
# Mechanical properties :
#
#
# Convention : Reuss Voigt Hill
#
# Bulk Modulus (GPa) = 37.07301 38.45914 37.76608
# Shear Modulus (GPa) = 3.32374 15.22152 9.27263
#
# Velocity S-wave (km/s) = 1.27730 2.73342 2.13343
# Velocity P-wave (km/s) = 4.51363 5.37029 4.96049
#
# Compressibility (1/GPa) = 0.02697380
#
# Stress axis : x y z
#
# Youngs Moduli (GPa) = 3.08853 3.08853 81.39691
#
# Poissons Ratio (x) = 0.95681 0.27027
# Poissons Ratio (y) = 0.95681 0.27027
# Poissons Ratio (z) = 0.01025 0.01025
#
# Static dielectric constant tensor:
#      x y z
#    x 1.732780 0.000000 0.000000 
#    y 0.000000 1.732780 0.000000 
#    z 0.000000 0.000000 1.764610 
# 
# From -- ./inp_files/8441.got.cif
#   From: 2010.05.17/outbox.cif.g08.bks.cpg/sg141_5_cif.got.tgz:8441.got - 2010.05.20 13:30:51.
