data_PCOD9573691
_publ_section_title
;
Structure prediction by ZEFSAII (Michael W. Deem and Ramdas Pophale) SiO2 
 PCOD9573691
Probable space group: I 41/A C D
;
_chemical_formula_sum "Si O2"
_cell_formula_units_Z 240
_cell_length_a 28.195447
_cell_length_b 28.195447
_cell_length_c 15.213083
_cell_angle_alpha 90.000000
_cell_angle_beta 90.000000
_cell_angle_gamma 90.000000
_cell_volume 12094.145885
_symmetry_space_group_name_H-M "I 41/A C D"
_symmetry_group_IT_number 142
_space_group.IT_coordinate_system_code '2'
_symmetry_cell_setting 'tetragonal'
loop_
_space_group_symop_operation_xyz
x,y,z
1/4-y,3/4+x,1/4+z
-x,1/2-y,z
1/4+y,1/4-x,3/4+z
x,-y,1/2-z
1/2-x,y,-z
3/4+y,1/4+x,1/4-z
1/4-y,1/4-x,1/4-z
-x,-y,-z
3/4+y,1/4-x,3/4-z
x,1/2+y,-z
3/4-y,3/4+x,1/4-z
-x,y,1/2+z
1/2+x,-y,z
1/4-y,3/4-x,3/4+z
3/4+y,3/4+x,3/4+z
1/2+x,1/2+y,1/2+z
3/4-y,1/4+x,3/4+z
1/2-x,-y,1/2+z
3/4+y,3/4-x,1/4+z
1/2+x,1/2-y,-z
-x,1/2+y,1/2-z
1/4+y,3/4+x,3/4-z
3/4-y,3/4-x,3/4-z
1/2-x,1/2-y,1/2-z
1/4+y,3/4-x,1/4-z
1/2+x,y,1/2-z
1/4-y,1/4+x,3/4-z
1/2-x,1/2+y,z
x,1/2-y,1/2+z
3/4-y,1/4-x,1/4+z
1/4+y,1/4+x,1/4+z
loop_
_atom_site_type_symbol
_atom_site_label
_atom_site_fract_x
_atom_site_fract_y
_atom_site_fract_z
Si Si1 0.069749 0.724978 0.156393
Si Si2 0.739206 0.236364 0.616229
Si Si3 0.076965 0.000000 0.750000
Si Si4 0.433497 0.152036 0.289465
Si Si5 0.962942 0.642027 0.358574
Si Si6 0.385000 0.087451 0.145443
Si Si7 0.073492 0.594731 0.692177
Si Si8 0.045491 0.564705 0.993495
O O1 0.054903 0.778878 0.144370
O O2 0.066922 0.705846 0.255105
O O3 0.118903 0.709830 0.112949
O O4 0.760062 0.286017 0.575512
O O5 0.705126 0.204507 0.555467
O O6 0.778611 0.204247 0.662084
O O7 0.704726 0.254095 0.694261
O O8 0.111492 0.959522 0.708904
O O9 0.400138 0.150138 0.375000
O O10 0.486141 0.138110 0.314528
O O11 0.416362 0.121523 0.207499
O O12 0.944617 0.694617 0.375000
O O13 0.926227 0.617133 0.289863
O O14 0.964119 0.614743 0.450040
O O15 0.345359 0.125219 0.108353
O O16 0.409696 0.069566 0.056485
#
# Coordination Sequence:
#
# PCOD9573691 Si02
#       8
#    32  32  16  32  32  32  32  32
#     4  10  22  36  50  71 111 162 202 244 290 333
#     4  10  21  36  63  85 114 157 205 256 306 378
#     4  10  20  40  62  82 124 162 214 252 328 370
#     4  11  25  35  53  79 114 165 215 251 284 352
#     4  12  23  34  55  81 118 159 203 252 292 361
#     4  10  22  41  58  84 118 157 199 263 309 361
#     4  11  22  37  57  84 118 156 205 257 307 357
#     4  10  21  37  59  85 114 156 199 249 318 363
#
# _framework density 19.844311000000001
#
# number of rings (size 3 to 8) (size 9 to 14) (size 15 to 20)
#    0.000    1.467    2.667    3.200    9.333    0.267 
#    0.000    0.000    0.000    0.000    0.000    0.000 
#    4.000    0.000    0.000    0.000    0.000    0.000 
#
# Total GULP energy -668536.425906 kJ/mol
# GULP energy per Si atom -5571.136883 kJ/mol
# Density = 1.979914 g / cm^3
# Si number density = 19.844311 Si / 1000 Ang^3
#
#
#
# Elastic Constant Matrix: (Units=GPa)
#
#
# Indices 1 2 3 4 5 6 
#
# 1 53.9191 0.4896 -3.7665 0.0000 0.0000 0.0000
# 2 0.4896 53.9191 -3.7665 0.0000 0.0000 0.0000
# 3 -3.7665 -3.7665 62.7586 0.0000 0.0000 0.0000
# 4 0.0000 0.0000 0.0000 26.6067 0.0000 0.0000
# 5 0.0000 0.0000 0.0000 0.0000 26.6067 0.0000
# 6 0.0000 0.0000 0.0000 0.0000 0.0000 14.5018
#
#
#
# Elastic Compliance Matrix: (Units=1/GPa)
#
#
# Indices 1 2 3 4 5 6 
#
# 1 0.018625 -0.000091 0.001112 0.000000 0.000000 0.000000
# 2 -0.000091 0.018625 0.001112 0.000000 0.000000 0.000000
# 3 0.001112 0.001112 0.016068 0.000000 0.000000 0.000000
# 4 0.000000 0.000000 0.000000 0.037585 0.000000 0.000000
# 5 0.000000 0.000000 0.000000 0.000000 0.037585 0.000000
# 6 0.000000 0.000000 0.000000 0.000000 0.000000 0.068957
#
#
# Mechanical properties :
#
#
# Convention : Reuss Voigt Hill
#
# Bulk Modulus (GPa) = 17.36606 17.39000 17.37803
# Shear Modulus (GPa) = 23.54362 25.38570 24.46466
#
# Velocity S-wave (km/s) = 3.44818 3.58053 3.51498
# Velocity P-wave (km/s) = 4.96220 5.08683 5.02490
#
# Compressibility (1/GPa) = 0.05758359
#
# Stress axis : x y z
#
# Youngs Moduli (GPa) = 53.69172 53.69172 62.23717
#
# Poissons Ratio (x) = 0.00491 -0.06923
# Poissons Ratio (y) = 0.00491 -0.06923
# Poissons Ratio (z) = -0.05972 -0.05972
#
# Static dielectric constant tensor:
#      x y z
#    x 1.731800 0.000000 0.000000 
#    y 0.000000 1.731800 0.000000 
#    z 0.000000 0.000000 1.813550 
# 
# From -- ./inp_files/5929.got.cif
#   From: 2010.05.17/outbox.cif.g08.bks.cpg/sg142_3_cif.got.tgz:5929.got - 2010.05.20 13:39:18.
