data_PCOD9573805
_publ_section_title
;
Structure prediction by ZEFSAII (Michael W. Deem and Ramdas Pophale) SiO2 
 PCOD9573805
Probable space group: I 41/A C D
;
_chemical_formula_sum "Si O2"
_cell_formula_units_Z 176
_cell_length_a 17.296753
_cell_length_b 17.296753
_cell_length_c 26.455270
_cell_angle_alpha 90.000000
_cell_angle_beta 90.000000
_cell_angle_gamma 90.000000
_cell_volume 7914.825888
_symmetry_space_group_name_H-M "I 41/A C D"
_symmetry_group_IT_number 142
_space_group.IT_coordinate_system_code '2'
_symmetry_cell_setting 'tetragonal'
loop_
_space_group_symop_operation_xyz
x,y,z
1/4-y,3/4+x,1/4+z
-x,1/2-y,z
1/4+y,1/4-x,3/4+z
x,-y,1/2-z
1/2-x,y,-z
3/4+y,1/4+x,1/4-z
1/4-y,1/4-x,1/4-z
-x,-y,-z
3/4+y,1/4-x,3/4-z
x,1/2+y,-z
3/4-y,3/4+x,1/4-z
-x,y,1/2+z
1/2+x,-y,z
1/4-y,3/4-x,3/4+z
3/4+y,3/4+x,3/4+z
1/2+x,1/2+y,1/2+z
3/4-y,1/4+x,3/4+z
1/2-x,-y,1/2+z
3/4+y,3/4-x,1/4+z
1/2+x,1/2-y,-z
-x,1/2+y,1/2-z
1/4+y,3/4+x,3/4-z
3/4-y,3/4-x,3/4-z
1/2-x,1/2-y,1/2-z
1/4+y,3/4-x,1/4-z
1/2+x,y,1/2-z
1/4-y,1/4+x,3/4-z
1/2-x,1/2+y,z
x,1/2-y,1/2+z
3/4-y,1/4-x,1/4+z
1/4+y,1/4+x,1/4+z
loop_
_atom_site_type_symbol
_atom_site_label
_atom_site_fract_x
_atom_site_fract_y
_atom_site_fract_z
Si Si1 0.065775 0.144547 0.888834
Si Si2 0.611702 0.359073 0.748030
Si Si3 0.750000 0.466617 0.000000
Si Si4 0.648903 0.207988 0.942299
Si Si5 0.761669 0.084988 0.916158
Si Si6 0.511082 0.871273 0.091761
O O1 0.103164 0.229693 0.883384
O O2 0.055928 0.136379 0.949112
O O3 0.119582 0.080910 0.861509
O O4 0.660923 0.432425 0.731546
O O5 0.526710 0.385908 0.767988
O O6 0.647056 0.314388 0.796087
O O7 0.715547 0.516734 0.954279
O O8 0.710462 0.141963 0.951016
O O9 0.565751 0.167235 0.931806
O O10 0.678053 0.238998 0.887020
O O11 0.704046 0.045955 0.875000
O O12 0.559618 0.809618 0.125000
#
# Coordination Sequence:
#
# PCOD9573805 Si02
#       6
#    32  32  16  32  32  32
#     4  11  29  50  72 106 144 194 237 300 367 439
#     4  11  24  44  70 101 143 183 242 287 357 431
#     4  12  30  44  66 104 136 196 236 292 368 418
#     4  10  21  40  74 105 134 186 236 293 352 424
#     4  12  26  50  69 102 150 182 243 299 362 437
#     4   9  18  37  69 107 132 175 237 292 334 419
#
# _framework density 22.236749
#
# number of rings (size 3 to 8) (size 9 to 14) (size 15 to 20)
#    0.000    1.273    3.636    3.818   10.182    3.636 
#    0.000    2.727    0.000    0.000    0.000    0.000 
#    0.000    0.000    0.000    0.000    0.000    0.000 
#
# Total GULP energy -491162.089875 kJ/mol
# GULP energy per Si atom -5581.387385 kJ/mol
# Density = 2.218614 g / cm^3
# Si number density = 22.236749 Si / 1000 Ang^3
#
#
#
# Elastic Constant Matrix: (Units=GPa)
#
#
# Indices 1 2 3 4 5 6 
#
# 1 56.9324 42.9588 8.8034 0.0000 0.0000 0.0000
# 2 42.9588 56.9317 8.8035 0.0000 0.0000 0.0000
# 3 8.8034 8.8035 73.4314 0.0000 0.0000 0.0000
# 4 0.0000 0.0000 0.0000 15.7647 0.0000 0.0000
# 5 0.0000 0.0000 0.0000 0.0000 15.7652 0.0000
# 6 0.0000 0.0000 0.0000 0.0000 0.0000 27.3076
#
#
#
# Elastic Compliance Matrix: (Units=1/GPa)
#
#
# Indices 1 2 3 4 5 6 
#
# 1 0.040896 -0.030669 -0.001226 0.000000 0.000000 0.000000
# 2 -0.030669 0.040896 -0.001226 0.000000 0.000000 0.000000
# 3 -0.001226 -0.001226 0.013912 0.000000 0.000000 0.000000
# 4 0.000000 0.000000 0.000000 0.063433 0.000000 0.000000
# 5 0.000000 0.000000 0.000000 0.000000 0.063431 0.000000
# 6 0.000000 0.000000 0.000000 0.000000 0.000000 0.036620
#
#
# Mechanical properties :
#
#
# Convention : Reuss Voigt Hill
#
# Bulk Modulus (GPa) = 33.94218 34.26966 34.10592
# Shear Modulus (GPa) = 14.91419 20.21616 17.56518
#
# Velocity S-wave (km/s) = 2.59260 3.01845 2.81359
# Velocity P-wave (km/s) = 4.92537 5.25289 5.09176
#
# Compressibility (1/GPa) = 0.02946187
#
# Stress axis : x y z
#
# Youngs Moduli (GPa) = 24.45232 24.45198 71.87965
#
# Poissons Ratio (x) = 0.74992 0.08812
# Poissons Ratio (y) = 0.74993 0.08814
# Poissons Ratio (z) = 0.02998 0.02998
#
# Static dielectric constant tensor:
#      x y z
#    x 1.864710 0.000000 0.000000 
#    y 0.000000 1.864720 0.000000 
#    z 0.000000 0.000000 1.859580 
# 
# From -- ./inp_files/11459.got.cif
#   From: 2010.05.17/outbox.cif.g08.bks.cpg/sg142_6_cif.got.tgz:11459.got - 2010.05.20 13:39:18.
