data_PCOD9573065
_publ_section_title
;
Structure prediction by ZEFSAII (Michael W. Deem and Ramdas Pophale) SiO2 
 PCOD9573065
Probable space group: I 41/A M D
;
_chemical_formula_sum "Si O2"
_cell_formula_units_Z 144
_cell_length_a 21.334012
_cell_length_b 21.334012
_cell_length_c 17.486016
_cell_angle_alpha 90.000000
_cell_angle_beta 90.000000
_cell_angle_gamma 90.000000
_cell_volume 7958.586512
_symmetry_space_group_name_H-M "I 41/A M D"
_symmetry_group_IT_number 141
_space_group.IT_coordinate_system_code '2'
_symmetry_cell_setting 'tetragonal'
loop_
_space_group_symop_operation_xyz
x,y,z
1/4-y,3/4+x,1/4+z
-x,1/2-y,z
1/4+y,1/4-x,3/4+z
x,-y,-z
-x,1/2+y,-z
1/4+y,3/4+x,1/4-z
1/4-y,1/4-x,3/4-z
-x,-y,-z
3/4+y,1/4-x,3/4-z
x,1/2+y,-z
3/4-y,3/4+x,1/4-z
-x,y,z
x,1/2-y,z
3/4-y,1/4-x,3/4+z
3/4+y,3/4+x,1/4+z
1/2+x,1/2+y,1/2+z
3/4-y,1/4+x,3/4+z
1/2-x,-y,1/2+z
3/4+y,3/4-x,1/4+z
1/2+x,1/2-y,1/2-z
1/2-x,y,1/2-z
3/4+y,1/4+x,3/4-z
3/4-y,3/4-x,1/4-z
1/2-x,1/2-y,1/2-z
1/4+y,3/4-x,1/4-z
1/2+x,y,1/2-z
1/4-y,1/4+x,3/4-z
1/2-x,1/2+y,1/2+z
1/2+x,-y,1/2+z
1/4-y,3/4-x,1/4+z
1/4+y,1/4+x,3/4+z
loop_
_atom_site_type_symbol
_atom_site_label
_atom_site_fract_x
_atom_site_fract_y
_atom_site_fract_z
Si Si1 0.173170 0.576831 0.625000
Si Si2 0.819640 0.611751 0.906457
Si Si3 0.069905 0.603567 0.186660
Si Si4 0.174787 0.680523 0.753026
Si Si5 0.771305 0.317712 0.662113
O O1 0.160397 0.503427 0.647982
O O2 0.157575 0.624360 0.694831
O O3 0.836074 0.661916 0.840719
O O4 0.868875 0.556623 0.892269
O O5 0.838046 0.638807 0.989140
O O6 0.098975 0.651026 0.125000
O O7 0.065508 0.538985 0.140757
O O8 0.000000 0.623614 0.209916
O O9 0.149788 0.750000 0.733456
O O10 0.250000 0.683858 0.750000
O O11 0.805624 0.250000 0.652840
O O12 0.750000 0.321182 0.750000
#
# Coordination Sequence:
#
# PCOD9573065 Si02
#       5
#    16  32  32  32  32
#     4  10  22  36  62  95 116 146 195 252 312 358
#     4  11  21  36  61  89 116 150 202 252 291 358
#     4  11  23  38  56  82 115 159 200 242 297 354
#     4   9  19  37  58  85 121 154 187 239 303 366
#     4  10  21  36  53  77 117 157 189 236 300 349
#
# _framework density 18.093665999999999
#
# number of rings (size 3 to 8) (size 9 to 14) (size 15 to 20)
#    0.000    1.778    2.222    2.000    1.556    3.778 
#    0.000    1.111    0.000    3.667    0.000    0.000 
#    0.000    0.000    0.000    0.000    0.000    0.000 
#
# Total GULP energy -400913.287118 kJ/mol
# GULP energy per Si atom -5568.240099 kJ/mol
# Density = 1.805248 g / cm^3
# Si number density = 18.093666 Si / 1000 Ang^3
#
#
#
# Elastic Constant Matrix: (Units=GPa)
#
#
# Indices 1 2 3 4 5 6 
#
# 1 88.6695 38.8261 14.3916 0.0000 0.0000 0.0000
# 2 38.8261 88.6617 14.3852 0.0000 0.0000 0.0000
# 3 14.3916 14.3852 57.1247 0.0000 0.0000 0.0000
# 4 0.0000 0.0000 0.0000 14.8146 0.0000 0.0000
# 5 0.0000 0.0000 0.0000 0.0000 14.8159 0.0000
# 6 0.0000 0.0000 0.0000 0.0000 0.0000 -17.4556
#
#
#
# Elastic Compliance Matrix: (Units=1/GPa)
#
#
# Indices 1 2 3 4 5 6 
#
# 1 0.014190 -0.005874 -0.002096 0.000000 0.000000 0.000000
# 2 -0.005874 0.014191 -0.002094 0.000000 0.000000 0.000000
# 3 -0.002096 -0.002094 0.018561 0.000000 0.000000 0.000000
# 4 0.000000 0.000000 0.000000 0.067501 0.000000 0.000000
# 5 0.000000 0.000000 0.000000 0.000000 0.067495 0.000000
# 6 0.000000 0.000000 0.000000 0.000000 0.000000 -0.057288
#
#
# Mechanical properties :
#
#
# Convention : Reuss Voigt Hill
#
# Bulk Modulus (GPa) = 37.29282 41.07352 39.18317
# Shear Modulus (GPa) = 32.52789 13.55853 23.04321
#
# Velocity S-wave (km/s) = 4.24459 2.74040 3.57256
# Velocity P-wave (km/s) = 6.68414 5.72388 6.22256
#
# Compressibility (1/GPa) = 0.02681481
#
# Stress axis : x y z
#
# Youngs Moduli (GPa) = 70.47194 70.46811 53.87699
#
# Poissons Ratio (x) = 0.41393 0.11291
# Poissons Ratio (y) = 0.41395 0.11280
# Poissons Ratio (z) = 0.14769 0.14754
#
# Static dielectric constant tensor:
#      x y z
#    x 2.774200 0.000000 0.000000 
#    y 0.000000 2.767160 0.000000 
#    z 0.000000 0.000000 1.125650 
# 
# From -- ./inp_files/8439.got.cif
#   From: 2010.05.17/outbox.cif.g08.bks.cpg/sg141_5_cif.got.tgz:8439.got - 2010.05.20 13:30:51.
