data_PCOD9573930
_publ_section_title
;
Structure prediction by ZEFSAII (Michael W. Deem and Ramdas Pophale) SiO2 
 PCOD9573930
Probable space group: I 41/A C D
;
_chemical_formula_sum "Si O2"
_cell_formula_units_Z 80
_cell_length_a 19.802279
_cell_length_b 19.802279
_cell_length_c 9.150913
_cell_angle_alpha 90.000000
_cell_angle_beta 90.000000
_cell_angle_gamma 90.000000
_cell_volume 3588.349835
_symmetry_space_group_name_H-M "I 41/A C D"
_symmetry_group_IT_number 142
_space_group.IT_coordinate_system_code '2'
_symmetry_cell_setting 'tetragonal'
loop_
_space_group_symop_operation_xyz
x,y,z
1/4-y,3/4+x,1/4+z
-x,1/2-y,z
1/4+y,1/4-x,3/4+z
x,-y,1/2-z
1/2-x,y,-z
3/4+y,1/4+x,1/4-z
1/4-y,1/4-x,1/4-z
-x,-y,-z
3/4+y,1/4-x,3/4-z
x,1/2+y,-z
3/4-y,3/4+x,1/4-z
-x,y,1/2+z
1/2+x,-y,z
1/4-y,3/4-x,3/4+z
3/4+y,3/4+x,3/4+z
1/2+x,1/2+y,1/2+z
3/4-y,1/4+x,3/4+z
1/2-x,-y,1/2+z
3/4+y,3/4-x,1/4+z
1/2+x,1/2-y,-z
-x,1/2+y,1/2-z
1/4+y,3/4+x,3/4-z
3/4-y,3/4-x,3/4-z
1/2-x,1/2-y,1/2-z
1/4+y,3/4-x,1/4-z
1/2+x,y,1/2-z
1/4-y,1/4+x,3/4-z
1/2-x,1/2+y,z
x,1/2-y,1/2+z
3/4-y,1/4-x,1/4+z
1/4+y,1/4+x,1/4+z
loop_
_atom_site_type_symbol
_atom_site_label
_atom_site_fract_x
_atom_site_fract_y
_atom_site_fract_z
Si Si1 0.524844 0.646019 0.394284
Si Si2 0.545729 0.058047 0.859860
Si Si3 0.196496 0.053505 0.625000
O O1 0.459258 0.678745 0.313997
O O2 0.565023 0.612150 0.263419
O O3 0.502095 0.593250 0.519533
O O4 0.618586 0.038913 0.924187
O O5 0.516127 0.000000 0.750000
O O6 0.250000 0.041190 0.500000
#
# Coordination Sequence:
#
# PCOD9573930 Si02
#       3
#    32  32  16
#     4  11  21  38  62  94 130 170 206 251 318 379
#     4  11  22  40  64  90 128 165 214 263 310 371
#     4  10  22  44  67  88 120 164 215 266 314 366
#
# _framework density 22.294371000000002
#
# number of rings (size 3 to 8) (size 9 to 14) (size 15 to 20)
#    0.000    1.200    4.000    2.400    0.000    3.200 
#    0.000   10.000    0.000    0.000    0.000    0.000 
#    0.000    0.000    0.000    0.000    0.000    0.000 
#
# Total GULP energy -222703.065119 kJ/mol
# GULP energy per Si atom -5567.576628 kJ/mol
# Density = 2.224363 g / cm^3
# Si number density = 22.294371 Si / 1000 Ang^3
#
#
#
# Elastic Constant Matrix: (Units=GPa)
#
#
# Indices 1 2 3 4 5 6 
#
# 1 73.7151 25.2765 51.3536 0.0000 0.0000 0.0000
# 2 25.2765 73.7157 51.3516 0.0000 0.0000 0.0000
# 3 51.3536 51.3516 107.7615 0.0000 0.0000 0.0000
# 4 0.0000 0.0000 0.0000 28.3588 0.0000 0.0000
# 5 0.0000 0.0000 0.0000 0.0000 28.3595 0.0000
# 6 0.0000 0.0000 0.0000 0.0000 0.0000 17.9286
#
#
#
# Elastic Compliance Matrix: (Units=1/GPa)
#
#
# Indices 1 2 3 4 5 6 
#
# 1 0.020313 -0.000332 -0.009522 0.000000 0.000000 0.000000
# 2 -0.000332 0.020312 -0.009521 0.000000 0.000000 0.000000
# 3 -0.009522 -0.009521 0.018354 0.000000 0.000000 0.000000
# 4 0.000000 0.000000 0.000000 0.035262 0.000000 0.000000
# 5 0.000000 0.000000 0.000000 0.000000 0.035262 0.000000
# 6 0.000000 0.000000 0.000000 0.000000 0.000000 0.055777
#
#
# Mechanical properties :
#
#
# Convention : Reuss Voigt Hill
#
# Bulk Modulus (GPa) = 49.43274 56.79507 53.11390
# Shear Modulus (GPa) = 21.66627 23.41010 22.53818
#
# Velocity S-wave (km/s) = 3.12080 3.24396 3.18297
# Velocity P-wave (km/s) = 5.93352 6.28978 6.11425
#
# Compressibility (1/GPa) = 0.02022951
#
# Stress axis : x y z
#
# Youngs Moduli (GPa) = 49.22952 49.23187 54.48256
#
# Poissons Ratio (x) = 0.01635 0.51878
# Poissons Ratio (y) = 0.01635 0.51873
# Poissons Ratio (z) = 0.46876 0.46874
#
# Static dielectric constant tensor:
#      x y z
#    x 1.889770 0.000000 0.000000 
#    y 0.000000 1.889770 0.000000 
#    z 0.000000 0.000000 1.795690 
# 
# From -- ./inp_files/1479.got.cif
#   From: 2010.05.17/outbox.cif.g08.bks.cpg/sg142_1_cif.got.tgz:1479.got - 2010.05.20 13:39:18.
