data_PCOD9573242
_publ_section_title
;
Structure prediction by ZEFSAII (Michael W. Deem and Ramdas Pophale) SiO2 
 PCOD9573242
Probable space group: I 41/A M D
;
_chemical_formula_sum "Si O2"
_cell_formula_units_Z 116
_cell_length_a 26.085471
_cell_length_b 26.085471
_cell_length_c 8.374955
_cell_angle_alpha 90.000000
_cell_angle_beta 90.000000
_cell_angle_gamma 90.000000
_cell_volume 5698.753182
_symmetry_space_group_name_H-M "I 41/A M D"
_symmetry_group_IT_number 141
_space_group.IT_coordinate_system_code '2'
_symmetry_cell_setting 'tetragonal'
loop_
_space_group_symop_operation_xyz
x,y,z
1/4-y,3/4+x,1/4+z
-x,1/2-y,z
1/4+y,1/4-x,3/4+z
x,-y,-z
-x,1/2+y,-z
1/4+y,3/4+x,1/4-z
1/4-y,1/4-x,3/4-z
-x,-y,-z
3/4+y,1/4-x,3/4-z
x,1/2+y,-z
3/4-y,3/4+x,1/4-z
-x,y,z
x,1/2-y,z
3/4-y,1/4-x,3/4+z
3/4+y,3/4+x,1/4+z
1/2+x,1/2+y,1/2+z
3/4-y,1/4+x,3/4+z
1/2-x,-y,1/2+z
3/4+y,3/4-x,1/4+z
1/2+x,1/2-y,1/2-z
1/2-x,y,1/2-z
3/4+y,1/4+x,3/4-z
3/4-y,3/4-x,1/4-z
1/2-x,1/2-y,1/2-z
1/4+y,3/4-x,1/4-z
1/2+x,y,1/2-z
1/4-y,1/4+x,3/4-z
1/2-x,1/2+y,1/2+z
1/2+x,-y,1/2+z
1/4-y,3/4-x,1/4+z
1/4+y,1/4+x,3/4+z
loop_
_atom_site_type_symbol
_atom_site_label
_atom_site_fract_x
_atom_site_fract_y
_atom_site_fract_z
Si Si1 0.000000 0.750000 0.625000
Si Si2 0.826153 0.808343 0.828517
Si Si3 0.941678 0.524207 0.769563
Si Si4 0.632816 0.152044 0.790938
Si Si5 0.000000 0.188499 0.075607
O O1 0.051104 0.750000 0.516622
O O2 0.844651 0.750000 0.862064
O O3 0.802135 0.808186 0.652868
O O4 0.783466 0.821241 0.964017
O O5 0.868874 0.850966 0.833215
O O6 0.911968 0.560054 0.894181
O O7 0.000000 0.523124 0.827829
O O8 0.628038 0.121963 0.625000
O O9 0.597116 0.202598 0.775495
O O10 0.000000 0.250000 0.029042
#
# Coordination Sequence:
#
# PCOD9573242 Si02
#       5
#     4  32  32  32  16
#     4   8  24  36  50  72 100 172 194 248 276 328
#     4   9  20  36  60  82 108 147 199 252 298 345
#     4   9  19  38  58  82 108 146 201 254 292 351
#     4  12  24  33  53  82 119 161 185 238 301 370
#     4  10  24  33  50  76 116 154 203 235 293 357
#
# _framework density 20.355329000000001
#
# number of rings (size 3 to 8) (size 9 to 14) (size 15 to 20)
#    0.414    1.655    1.379    3.310    7.724    1.103 
#    0.000    2.759    0.000    0.000    0.000   15.448 
#    0.000    0.000    0.000    0.000    0.000    0.000 
#
# Total GULP energy -323217.058662 kJ/mol
# GULP energy per Si atom -5572.707908 kJ/mol
# Density = 2.030900 g / cm^3
# Si number density = 20.355329 Si / 1000 Ang^3
#
#
#
# Elastic Constant Matrix: (Units=GPa)
#
#
# Indices 1 2 3 4 5 6 
#
# 1 45.0654 24.0042 10.6122 0.0000 0.0000 0.0000
# 2 24.0042 45.0654 10.6122 0.0000 0.0000 0.0000
# 3 10.6122 10.6122 97.1518 0.0000 0.0000 0.0000
# 4 0.0000 0.0000 0.0000 -63.1913 0.0000 0.0000
# 5 0.0000 0.0000 0.0000 0.0000 -63.1384 0.0000
# 6 0.0000 0.0000 0.0000 0.0000 0.0000 28.6726
#
#
#
# Elastic Compliance Matrix: (Units=1/GPa)
#
#
# Indices 1 2 3 4 5 6 
#
# 1 0.031231 -0.016250 -0.001636 0.000000 0.000000 0.000000
# 2 -0.016250 0.031231 -0.001636 0.000000 0.000000 0.000000
# 3 -0.001636 -0.001636 0.010651 0.000000 0.000000 0.000000
# 4 0.000000 0.000000 0.000000 -0.015825 0.000000 0.000000
# 5 0.000000 0.000000 0.000000 0.000000 -0.015838 0.000000
# 6 0.000000 0.000000 0.000000 0.000000 0.000000 0.034877
#
#
# Mechanical properties :
#
#
# Convention : Reuss Voigt Hill
#
# Bulk Modulus (GPa) = 29.35392 30.85997 30.10695
# Shear Modulus (GPa) = 39.45492 -10.06116 14.69688
#
# Velocity S-wave (km/s) = 4.40740 -2.22564 2.68995
# Velocity P-wave (km/s) = 6.35235 2.93068 4.94678
#
# Compressibility (1/GPa) = 0.03406700
#
# Stress axis : x y z
#
# Youngs Moduli (GPa) = 32.01958 32.01960 93.89081
#
# Poissons Ratio (x) = 0.52031 0.15365
# Poissons Ratio (y) = 0.52031 0.15364
# Poissons Ratio (z) = 0.05240 0.05240
#
# Static dielectric constant tensor:
#      x y z
#    x 1.766190 0.000000 0.000000 
#    y 0.000000 1.766180 0.000000 
#    z 0.000000 0.000000 1.798360 
# 
# From -- ./inp_files/2784.got.cif
#   From: 2010.05.17/outbox.cif.g08.bks.cpg/sg141_2_cif.got.tgz:2784.got - 2010.05.20 13:30:51.
