data_PCOD9573635
_publ_section_title
;
Structure prediction by ZEFSAII (Michael W. Deem and Ramdas Pophale) SiO2 
 PCOD9573635
Probable space group: I 41/A C D
;
_chemical_formula_sum "Si O2"
_cell_formula_units_Z 128
_cell_length_a 22.779929
_cell_length_b 22.779929
_cell_length_c 11.402882
_cell_angle_alpha 90.000000
_cell_angle_beta 90.000000
_cell_angle_gamma 90.000000
_cell_volume 5917.242426
_symmetry_space_group_name_H-M "I 41/A C D"
_symmetry_group_IT_number 142
_space_group.IT_coordinate_system_code '2'
_symmetry_cell_setting 'tetragonal'
loop_
_space_group_symop_operation_xyz
x,y,z
1/4-y,3/4+x,1/4+z
-x,1/2-y,z
1/4+y,1/4-x,3/4+z
x,-y,1/2-z
1/2-x,y,-z
3/4+y,1/4+x,1/4-z
1/4-y,1/4-x,1/4-z
-x,-y,-z
3/4+y,1/4-x,3/4-z
x,1/2+y,-z
3/4-y,3/4+x,1/4-z
-x,y,1/2+z
1/2+x,-y,z
1/4-y,3/4-x,3/4+z
3/4+y,3/4+x,3/4+z
1/2+x,1/2+y,1/2+z
3/4-y,1/4+x,3/4+z
1/2-x,-y,1/2+z
3/4+y,3/4-x,1/4+z
1/2+x,1/2-y,-z
-x,1/2+y,1/2-z
1/4+y,3/4+x,3/4-z
3/4-y,3/4-x,3/4-z
1/2-x,1/2-y,1/2-z
1/4+y,3/4-x,1/4-z
1/2+x,y,1/2-z
1/4-y,1/4+x,3/4-z
1/2-x,1/2+y,z
x,1/2-y,1/2+z
3/4-y,1/4-x,1/4+z
1/4+y,1/4+x,1/4+z
loop_
_atom_site_type_symbol
_atom_site_label
_atom_site_fract_x
_atom_site_fract_y
_atom_site_fract_z
Si Si1 0.981837 0.072030 0.854744
Si Si2 0.236163 0.389366 0.129489
Si Si3 0.321424 0.105491 0.002961
Si Si4 0.687247 0.731449 0.146748
O O1 0.915086 0.086662 0.819980
O O2 0.015361 0.090106 0.733896
O O3 0.004365 0.093452 0.983348
O O4 0.987932 0.000876 0.874619
O O5 0.196698 0.446698 0.125000
O O6 0.297328 0.405224 0.185771
O O7 0.200852 0.335612 0.182839
O O8 0.250000 0.368161 0.000000
O O9 0.350417 0.100417 0.875000
O O10 0.250000 0.102190 0.000000
#
# Coordination Sequence:
#
# PCOD9573635 Si02
#       4
#    32  32  32  32
#     4  10  20  37  59  78 110 168 210 249 289 352
#     4  12  23  35  53  86 125 160 194 244 307 375
#     4  12  23  37  56  87 129 171 202 239 304 381
#     4  10  20  37  59  77 112 165 212 248 292 356
#
# _framework density 21.631696000000002
#
# number of rings (size 3 to 8) (size 9 to 14) (size 15 to 20)
#    0.000    1.000    5.000    6.000    3.500    0.000 
#    0.000    0.000    0.000    0.000    0.000    0.000 
#    0.000    6.000    0.000    0.000    0.000    0.000 
#
# Total GULP energy -356918.782660 kJ/mol
# GULP energy per Si atom -5576.855979 kJ/mol
# Density = 2.158246 g / cm^3
# Si number density = 21.631696 Si / 1000 Ang^3
#
#
#
# Elastic Constant Matrix: (Units=GPa)
#
#
# Indices 1 2 3 4 5 6 
#
# 1 64.1640 19.7239 26.2483 0.0000 0.0000 0.0000
# 2 19.7239 64.1640 26.2483 0.0000 0.0000 0.0000
# 3 26.2483 26.2483 203.8408 0.0000 0.0000 0.0000
# 4 0.0000 0.0000 0.0000 21.9616 0.0000 0.0000
# 5 0.0000 0.0000 0.0000 0.0000 21.9616 0.0000
# 6 0.0000 0.0000 0.0000 0.0000 0.0000 -1.9484
#
#
#
# Elastic Compliance Matrix: (Units=1/GPa)
#
#
# Indices 1 2 3 4 5 6 
#
# 1 0.017734 -0.004768 -0.001670 0.000000 0.000000 0.000000
# 2 -0.004768 0.017734 -0.001670 0.000000 0.000000 0.000000
# 3 -0.001670 -0.001670 0.005336 0.000000 0.000000 0.000000
# 4 0.000000 0.000000 0.000000 0.045534 0.000000 0.000000
# 5 0.000000 0.000000 0.000000 0.000000 0.045534 0.000000
# 6 0.000000 0.000000 0.000000 0.000000 0.000000 -0.513232
#
#
# Mechanical properties :
#
#
# Convention : Reuss Voigt Hill
#
# Bulk Modulus (GPa) = 40.66941 52.95664 46.81303
# Shear Modulus (GPa) = -14.00760 25.72485 5.85863
#
# Velocity S-wave (km/s) = -2.54746 3.45225 1.64749
# Velocity P-wave (km/s) = 3.19201 6.35806 5.03060
#
# Compressibility (1/GPa) = 0.02458850
#
# Stress axis : x y z
#
# Youngs Moduli (GPa) = 56.38938 56.38938 187.41472
#
# Poissons Ratio (x) = 0.26889 0.31290
# Poissons Ratio (y) = 0.26889 0.31290
# Poissons Ratio (z) = 0.09414 0.09414
#
# Static dielectric constant tensor:
#      x y z
#    x 1.705110 0.000000 0.000000 
#    y 0.000000 1.705110 0.000000 
#    z 0.000000 0.000000 1.939810 
# 
# From -- ./inp_files/3463.got.cif
#   From: 2010.05.17/outbox.cif.g08.bks.cpg/sg142_2_cif.got.tgz:3463.got - 2010.05.20 13:39:18.
