data_PCOD9573341
_publ_section_title
;
Structure prediction by ZEFSAII (Michael W. Deem and Ramdas Pophale) SiO2 
 PCOD9573341
Probable space group: I 41/A M D
;
_chemical_formula_sum "Si O2"
_cell_formula_units_Z 84
_cell_length_a 11.713197
_cell_length_b 11.713197
_cell_length_c 31.341594
_cell_angle_alpha 90.000000
_cell_angle_beta 90.000000
_cell_angle_gamma 90.000000
_cell_volume 4300.034853
_symmetry_space_group_name_H-M "I 41/A M D"
_symmetry_group_IT_number 141
_space_group.IT_coordinate_system_code '2'
_symmetry_cell_setting 'tetragonal'
loop_
_space_group_symop_operation_xyz
x,y,z
1/4-y,3/4+x,1/4+z
-x,1/2-y,z
1/4+y,1/4-x,3/4+z
x,-y,-z
-x,1/2+y,-z
1/4+y,3/4+x,1/4-z
1/4-y,1/4-x,3/4-z
-x,-y,-z
3/4+y,1/4-x,3/4-z
x,1/2+y,-z
3/4-y,3/4+x,1/4-z
-x,y,z
x,1/2-y,z
3/4-y,1/4-x,3/4+z
3/4+y,3/4+x,1/4+z
1/2+x,1/2+y,1/2+z
3/4-y,1/4+x,3/4+z
1/2-x,-y,1/2+z
3/4+y,3/4-x,1/4+z
1/2+x,1/2-y,1/2-z
1/2-x,y,1/2-z
3/4+y,1/4+x,3/4-z
3/4-y,3/4-x,1/4-z
1/2-x,1/2-y,1/2-z
1/4+y,3/4-x,1/4-z
1/2+x,y,1/2-z
1/4-y,1/4+x,3/4-z
1/2-x,1/2+y,1/2+z
1/2+x,-y,1/2+z
1/4-y,3/4-x,1/4+z
1/4+y,1/4+x,3/4+z
loop_
_atom_site_type_symbol
_atom_site_label
_atom_site_fract_x
_atom_site_fract_y
_atom_site_fract_z
Si Si1 0.500000 0.513013 0.924900
Si Si2 0.500000 0.750000 0.875000
Si Si3 0.134071 0.384071 0.875000
Si Si4 0.756124 0.518742 0.951606
Si Si5 0.862722 0.250000 0.086547
O O1 0.500000 0.636528 0.902700
O O2 0.618886 0.507995 0.949831
O O3 0.500000 0.420498 0.886627
O O4 0.155050 0.250000 0.869910
O O5 0.179274 0.446581 0.832886
O O6 0.803389 0.639594 0.934526
O O7 0.795357 0.500000 0.000000
O O8 0.000000 0.250000 0.081069
#
# Coordination Sequence:
#
# PCOD9573341 Si02
#       5
#    16   4  16  32  16
#     4  12  21  44  71 100 136 178 226 282 350 397
#     4  12  16  40  80  88 136 188 208 284 340 408
#     4  11  25  46  69  95 140 184 222 275 341 412
#     4  12  26  44  70 102 136 175 231 286 343 410
#     4  12  24  43  71  97 135 184 225 281 342 410
#
# _framework density 19.534724000000001
#
# number of rings (size 3 to 8) (size 9 to 14) (size 15 to 20)
#    0.000    0.190    7.619    1.714    2.667    3.048 
#    0.000    0.000    0.000    0.000    0.000    0.000 
#    0.000    0.000    0.000    0.000    0.000    0.000 
#
# Total GULP energy -234849.216477 kJ/mol
# GULP energy per Si atom -5591.648011 kJ/mol
# Density = 1.949026 g / cm^3
# Si number density = 19.534724 Si / 1000 Ang^3
#
#
#
# Elastic Constant Matrix: (Units=GPa)
#
#
# Indices 1 2 3 4 5 6 
#
# 1 -72.8583 237.9582 37.8987 0.0000 0.0000 0.0000
# 2 237.9582 -72.8583 37.8987 0.0000 0.0000 0.0000
# 3 37.8987 37.8987 137.4537 0.0000 0.0000 0.0000
# 4 0.0000 0.0000 0.0000 -7.7072 0.0000 0.0000
# 5 0.0000 0.0000 0.0000 0.0000 -7.7072 0.0000
# 6 0.0000 0.0000 0.0000 0.0000 0.0000 17.7586
#
#
#
# Elastic Compliance Matrix: (Units=1/GPa)
#
#
# Indices 1 2 3 4 5 6 
#
# 1 0.001859 0.005076 -0.001912 0.000000 0.000000 0.000000
# 2 0.005076 0.001859 -0.001912 0.000000 0.000000 0.000000
# 3 -0.001912 -0.001912 0.008330 0.000000 0.000000 0.000000
# 4 0.000000 0.000000 0.000000 -0.129748 0.000000 0.000000
# 5 0.000000 0.000000 0.000000 0.000000 -0.129748 0.000000
# 6 0.000000 0.000000 0.000000 0.000000 0.000000 0.056311
#
#
# Mechanical properties :
#
#
# Convention : Reuss Voigt Hill
#
# Bulk Modulus (GPa) = 68.72440 68.80539 68.76489
# Shear Modulus (GPa) = -26.48418 -20.99908 -23.74163
#
# Velocity S-wave (km/s) = -3.68604 -3.28222 -3.48998
# Velocity P-wave (km/s) = 4.14018 4.57544 4.36324
#
# Compressibility (1/GPa) = 0.01455087
#
# Stress axis : x y z
#
# Youngs Moduli (GPa) = 538.00639 538.00640 120.05440
#
# Poissons Ratio (x) = -2.73095 0.22955
# Poissons Ratio (y) = -2.73095 0.22955
# Poissons Ratio (z) = 1.02870 1.02870
#
# Static dielectric constant tensor:
#      x y z
#    x 1.657120 0.000000 0.000000 
#    y 0.000000 1.657120 0.000000 
#    z 0.000000 0.000000 1.775460 
# 
# From -- ./inp_files/13759.got.cif
#   From: 2010.05.17/outbox.cif.g08.bks.cpg/sg141_7_cif.got.tgz:13759.got - 2010.05.20 13:30:51.
