data_PCOD9573271
_publ_section_title
;
Structure prediction by ZEFSAII (Michael W. Deem and Ramdas Pophale) SiO2 
 PCOD9573271
Probable space group: I 41/A M D
;
_chemical_formula_sum "Si O2"
_cell_formula_units_Z 144
_cell_length_a 31.000641
_cell_length_b 31.000641
_cell_length_c 7.935215
_cell_angle_alpha 90.000000
_cell_angle_beta 90.000000
_cell_angle_gamma 90.000000
_cell_volume 7626.056980
_symmetry_space_group_name_H-M "I 41/A M D"
_symmetry_group_IT_number 141
_space_group.IT_coordinate_system_code '2'
_symmetry_cell_setting 'tetragonal'
loop_
_space_group_symop_operation_xyz
x,y,z
1/4-y,3/4+x,1/4+z
-x,1/2-y,z
1/4+y,1/4-x,3/4+z
x,-y,-z
-x,1/2+y,-z
1/4+y,3/4+x,1/4-z
1/4-y,1/4-x,3/4-z
-x,-y,-z
3/4+y,1/4-x,3/4-z
x,1/2+y,-z
3/4-y,3/4+x,1/4-z
-x,y,z
x,1/2-y,z
3/4-y,1/4-x,3/4+z
3/4+y,3/4+x,1/4+z
1/2+x,1/2+y,1/2+z
3/4-y,1/4+x,3/4+z
1/2-x,-y,1/2+z
3/4+y,3/4-x,1/4+z
1/2+x,1/2-y,1/2-z
1/2-x,y,1/2-z
3/4+y,1/4+x,3/4-z
3/4-y,3/4-x,1/4-z
1/2-x,1/2-y,1/2-z
1/4+y,3/4-x,1/4-z
1/2+x,y,1/2-z
1/4-y,1/4+x,3/4-z
1/2-x,1/2+y,1/2+z
1/2+x,-y,1/2+z
1/4-y,3/4-x,1/4+z
1/4+y,1/4+x,3/4+z
loop_
_atom_site_type_symbol
_atom_site_label
_atom_site_fract_x
_atom_site_fract_y
_atom_site_fract_z
Si Si1 0.267166 0.250000 0.461369
Si Si2 0.914129 0.878099 0.964341
Si Si3 0.295137 0.657729 0.682225
Si Si4 0.859120 0.453506 0.919905
Si Si5 0.183682 0.250000 0.685694
Si Si6 0.382608 0.867393 0.875000
O O1 0.285083 0.291890 0.361380
O O2 0.215959 0.250000 0.521015
O O3 0.288196 0.250000 0.645254
O O4 0.909338 0.854067 0.788765
O O5 0.901252 0.848749 0.125000
O O6 0.878669 0.916762 0.959702
O O7 0.958753 0.903150 0.955745
O O8 0.250000 0.639692 0.750000
O O9 0.301610 0.637023 0.498973
O O10 0.333716 0.644943 0.810643
O O11 0.810709 0.439292 0.875000
O O12 0.863449 0.500000 0.000000
#
# Coordination Sequence:
#
# PCOD9573271 Si02
#       6
#    16  32  32  32  16  16
#     4  11  21  36  58  96 131 161 197 270 324 384
#     4  11  22  41  62  92 125 166 207 255 320 382
#     4  12  24  36  61  90 126 161 210 257 321 387
#     4  11  21  40  60  83 120 162 207 259 309 366
#     4  11  20  36  66  93 129 164 206 259 327 385
#     4  12  22  40  60  88 122 167 206 250 316 388
#
# _framework density 18.882628
#
# number of rings (size 3 to 8) (size 9 to 14) (size 15 to 20)
#    0.000    0.667    6.667    4.333    0.000    0.889 
#    0.000    2.222    0.000    0.333    0.000    0.000 
#    0.000    4.000    0.000    0.000    0.000    0.000 
#
# Total GULP energy -400942.331160 kJ/mol
# GULP energy per Si atom -5568.643488 kJ/mol
# Density = 1.883965 g / cm^3
# Si number density = 18.882628 Si / 1000 Ang^3
#
#
#
# Elastic Constant Matrix: (Units=GPa)
#
#
# Indices 1 2 3 4 5 6 
#
# 1 98.3957 53.2398 40.3228 0.0000 0.0000 0.0000
# 2 53.2398 98.3906 40.3225 0.0000 0.0000 0.0000
# 3 40.3228 40.3225 139.6517 0.0000 0.0000 0.0000
# 4 0.0000 0.0000 0.0000 28.0882 0.0000 0.0000
# 5 0.0000 0.0000 0.0000 0.0000 28.0873 0.0000
# 6 0.0000 0.0000 0.0000 0.0000 0.0000 25.7033
#
#
#
# Elastic Compliance Matrix: (Units=1/GPa)
#
#
# Indices 1 2 3 4 5 6 
#
# 1 0.014969 -0.007178 -0.002250 0.000000 0.000000 0.000000
# 2 -0.007178 0.014969 -0.002250 0.000000 0.000000 0.000000
# 3 -0.002250 -0.002250 0.008460 0.000000 0.000000 0.000000
# 4 0.000000 0.000000 0.000000 0.035602 0.000000 0.000000
# 5 0.000000 0.000000 0.000000 0.000000 0.035603 0.000000
# 6 0.000000 0.000000 0.000000 0.000000 0.000000 0.038906
#
#
# Mechanical properties :
#
#
# Convention : Reuss Voigt Hill
#
# Bulk Modulus (GPa) = 66.47226 67.13423 66.80325
# Shear Modulus (GPa) = 28.26815 29.87928 29.07372
#
# Velocity S-wave (km/s) = 3.87336 3.98222 3.92817
# Velocity P-wave (km/s) = 7.43527 7.53490 7.48525
#
# Compressibility (1/GPa) = 0.01504387
#
# Stress axis : x y z
#
# Youngs Moduli (GPa) = 66.80646 66.80270 118.20634
#
# Poissons Ratio (x) = 0.47949 0.26591
# Poissons Ratio (y) = 0.47952 0.26593
# Poissons Ratio (z) = 0.15028 0.15029
#
# Static dielectric constant tensor:
#      x y z
#    x 1.604150 0.000000 0.000000 
#    y 0.000000 1.604020 0.000000 
#    z 0.000000 0.000000 1.764530 
# 
# From -- ./inp_files/3219.got.cif
#   From: 2010.05.17/outbox.cif.g08.bks.cpg/sg141_2_cif.got.tgz:3219.got - 2010.05.20 13:30:51.
