data_PCOD9573305
_publ_section_title
;
Structure prediction by ZEFSAII (Michael W. Deem and Ramdas Pophale) SiO2 
 PCOD9573305
Probable space group: I 41/A M D
;
_chemical_formula_sum "Si O2"
_cell_formula_units_Z 128
_cell_length_a 21.788650
_cell_length_b 21.788650
_cell_length_c 13.331689
_cell_angle_alpha 90.000000
_cell_angle_beta 90.000000
_cell_angle_gamma 90.000000
_cell_volume 6329.156278
_symmetry_space_group_name_H-M "I 41/A M D"
_symmetry_group_IT_number 141
_space_group.IT_coordinate_system_code '2'
_symmetry_cell_setting 'tetragonal'
loop_
_space_group_symop_operation_xyz
x,y,z
1/4-y,3/4+x,1/4+z
-x,1/2-y,z
1/4+y,1/4-x,3/4+z
x,-y,-z
-x,1/2+y,-z
1/4+y,3/4+x,1/4-z
1/4-y,1/4-x,3/4-z
-x,-y,-z
3/4+y,1/4-x,3/4-z
x,1/2+y,-z
3/4-y,3/4+x,1/4-z
-x,y,z
x,1/2-y,z
3/4-y,1/4-x,3/4+z
3/4+y,3/4+x,1/4+z
1/2+x,1/2+y,1/2+z
3/4-y,1/4+x,3/4+z
1/2-x,-y,1/2+z
3/4+y,3/4-x,1/4+z
1/2+x,1/2-y,1/2-z
1/2-x,y,1/2-z
3/4+y,1/4+x,3/4-z
3/4-y,3/4-x,1/4-z
1/2-x,1/2-y,1/2-z
1/4+y,3/4-x,1/4-z
1/2+x,y,1/2-z
1/4-y,1/4+x,3/4-z
1/2-x,1/2+y,1/2+z
1/2+x,-y,1/2+z
1/4-y,3/4-x,1/4+z
1/4+y,1/4+x,3/4+z
loop_
_atom_site_type_symbol
_atom_site_label
_atom_site_fract_x
_atom_site_fract_y
_atom_site_fract_z
Si Si1 0.634415 0.068302 0.019137
Si Si2 0.500000 0.562905 0.228357
Si Si3 0.430886 0.750000 0.005042
Si Si4 0.000000 0.070478 0.968129
Si Si5 0.000000 0.065611 0.395781
Si Si6 0.396761 0.138610 0.403893
O O1 0.657867 0.092134 0.125000
O O2 0.560469 0.066722 0.035319
O O3 0.653684 0.108994 0.923881
O O4 0.655944 0.000000 0.000000
O O5 0.500000 0.566648 0.348533
O O6 0.500000 0.494856 0.176942
O O7 0.561368 0.599688 0.196579
O O8 0.500000 0.750000 0.970236
O O9 0.422023 0.807568 0.077366
O O10 0.377206 0.750000 0.922272
O O11 0.060091 0.104603 0.015148
O O12 0.000000 0.000000 0.000000
#
# Coordination Sequence:
#
# PCOD9573305 Si02
#       6
#    32  16  16  16  16  32
#     4  12  25  43  69  99 138 178 228 286 351 423
#     4  12  22  44  71  99 134 193 233 279 353 425
#     4  11  22  39  60 103 141 172 215 288 355 416
#     4  11  27  44  67 101 141 186 236 290 343 420
#     4  12  24  40  72 102 139 180 224 287 364 422
#     4  11  23  43  67 100 139 179 229 285 343 421
#
# _framework density 20.223863000000001
#
# number of rings (size 3 to 8) (size 9 to 14) (size 15 to 20)
#    0.000    0.500    6.250    3.375    0.000    0.000 
#    4.500    2.500    0.000    0.000    0.000    0.000 
#    0.000    0.000    0.000    0.000    0.000    0.000 
#
# Total GULP energy -357668.699870 kJ/mol
# GULP energy per Si atom -5588.573435 kJ/mol
# Density = 2.017783 g / cm^3
# Si number density = 20.223863 Si / 1000 Ang^3
#
#
#
# Elastic Constant Matrix: (Units=GPa)
#
#
# Indices 1 2 3 4 5 6 
#
# 1 113.3570 8.9635 35.7136 0.0000 0.0000 0.0000
# 2 8.9635 113.3569 35.7125 0.0000 0.0000 0.0000
# 3 35.7136 35.7125 143.1247 0.0000 0.0000 0.0000
# 4 0.0000 0.0000 0.0000 0.5811 0.0000 0.0000
# 5 0.0000 0.0000 0.0000 0.0000 0.5869 0.0000
# 6 0.0000 0.0000 0.0000 0.0000 0.0000 -1.1365
#
#
#
# Elastic Compliance Matrix: (Units=1/GPa)
#
#
# Indices 1 2 3 4 5 6 
#
# 1 0.009574 -0.000005 -0.002388 0.000000 0.000000 0.000000
# 2 -0.000005 0.009574 -0.002388 0.000000 0.000000 0.000000
# 3 -0.002388 -0.002388 0.008179 0.000000 0.000000 0.000000
# 4 0.000000 0.000000 0.000000 1.720875 0.000000 0.000000
# 5 0.000000 0.000000 0.000000 0.000000 1.703995 0.000000
# 6 0.000000 0.000000 0.000000 0.000000 0.000000 -0.879860
#
#
# Mechanical properties :
#
#
# Convention : Reuss Voigt Hill
#
# Bulk Modulus (GPa) = 56.28618 58.95752 57.62185
# Shear Modulus (GPa) = 1.93213 19.30289 10.61751
#
# Velocity S-wave (km/s) = 0.97849 3.09279 2.29377
# Velocity P-wave (km/s) = 5.40079 6.47839 5.96398
#
# Compressibility (1/GPa) = 0.01776635
#
# Stress axis : x y z
#
# Youngs Moduli (GPa) = 104.44548 104.44589 122.27098
#
# Poissons Ratio (x) = 0.00050 0.29197
# Poissons Ratio (y) = 0.00050 0.29196
# Poissons Ratio (z) = 0.24940 0.24940
#
# Static dielectric constant tensor:
#      x y z
#    x 1.835850 0.000000 0.000000 
#    y 0.000000 1.835870 0.000000 
#    z 0.000000 0.000000 1.731710 
# 
# From -- ./inp_files/6287.got.cif
#   From: 2010.05.17/outbox.cif.g08.bks.cpg/sg141_4_cif.got.tgz:6287.got - 2010.05.20 13:30:51.
