data_PCOD9573997
_publ_section_title
;
Structure prediction by ZEFSAII (Michael W. Deem and Ramdas Pophale) SiO2 
 PCOD9573997
Probable space group: I 41/A C D
;
_chemical_formula_sum "Si O2"
_cell_formula_units_Z 80
_cell_length_a 21.500611
_cell_length_b 21.500611
_cell_length_c 8.045861
_cell_angle_alpha 90.000000
_cell_angle_beta 90.000000
_cell_angle_gamma 90.000000
_cell_volume 3719.410639
_symmetry_space_group_name_H-M "I 41/A C D"
_symmetry_group_IT_number 142
_space_group.IT_coordinate_system_code '2'
_symmetry_cell_setting 'tetragonal'
loop_
_space_group_symop_operation_xyz
x,y,z
1/4-y,3/4+x,1/4+z
-x,1/2-y,z
1/4+y,1/4-x,3/4+z
x,-y,1/2-z
1/2-x,y,-z
3/4+y,1/4+x,1/4-z
1/4-y,1/4-x,1/4-z
-x,-y,-z
3/4+y,1/4-x,3/4-z
x,1/2+y,-z
3/4-y,3/4+x,1/4-z
-x,y,1/2+z
1/2+x,-y,z
1/4-y,3/4-x,3/4+z
3/4+y,3/4+x,3/4+z
1/2+x,1/2+y,1/2+z
3/4-y,1/4+x,3/4+z
1/2-x,-y,1/2+z
3/4+y,3/4-x,1/4+z
1/2+x,1/2-y,-z
-x,1/2+y,1/2-z
1/4+y,3/4+x,3/4-z
3/4-y,3/4-x,3/4-z
1/2-x,1/2-y,1/2-z
1/4+y,3/4-x,1/4-z
1/2+x,y,1/2-z
1/4-y,1/4+x,3/4-z
1/2-x,1/2+y,z
x,1/2-y,1/2+z
3/4-y,1/4-x,1/4+z
1/4+y,1/4+x,1/4+z
loop_
_atom_site_type_symbol
_atom_site_label
_atom_site_fract_x
_atom_site_fract_y
_atom_site_fract_z
Si Si1 0.360089 0.000000 0.250000
Si Si2 0.550040 0.168403 0.186566
Si Si3 0.294956 0.129604 0.159008
O O1 0.318478 0.059149 0.195358
O O2 0.398979 0.014881 0.415412
O O3 0.577240 0.225805 0.080303
O O4 0.569655 0.180346 0.375000
O O5 0.577900 0.104030 0.126743
O O6 0.250000 0.130143 0.000000
#
# Coordination Sequence:
#
# PCOD9573997 Si02
#       3
#    16  32  32
#     4  10  24  36  78  92 144 190 234 282 358 438
#     4  11  25  46  75 101 141 189 245 302 364 435
#     4  11  24  45  68 107 140 188 240 295 358 431
#
# _framework density 21.508785
#
# number of rings (size 3 to 8) (size 9 to 14) (size 15 to 20)
#    0.000    1.200    0.000    6.000   22.400    0.000 
#    3.600    4.000    0.000    0.000    0.000    0.000 
#    0.000    0.000    0.000    0.000    0.000    0.000 
#
# Total GULP energy -223855.182929 kJ/mol
# GULP energy per Si atom -5596.379573 kJ/mol
# Density = 2.145983 g / cm^3
# Si number density = 21.508785 Si / 1000 Ang^3
#
#
#
# Elastic Constant Matrix: (Units=GPa)
#
#
# Indices 1 2 3 4 5 6 
#
# 1 43.3128 112.2434 65.1667 0.0000 0.0000 0.0000
# 2 112.2434 43.3142 65.1670 0.0000 0.0000 0.0000
# 3 65.1667 65.1670 234.1563 0.0000 0.0000 0.0000
# 4 0.0000 0.0000 0.0000 20.9086 0.0000 0.0000
# 5 0.0000 0.0000 0.0000 0.0000 20.9097 0.0000
# 6 0.0000 0.0000 0.0000 0.0000 0.0000 18.2095
#
#
#
# Elastic Compliance Matrix: (Units=1/GPa)
#
#
# Indices 1 2 3 4 5 6 
#
# 1 -0.003062 0.011445 -0.002333 0.000000 0.000000 0.000000
# 2 0.011445 -0.003062 -0.002333 0.000000 0.000000 0.000000
# 3 -0.002333 -0.002333 0.005569 0.000000 0.000000 0.000000
# 4 0.000000 0.000000 0.000000 0.047827 0.000000 0.000000
# 5 0.000000 0.000000 0.000000 0.000000 0.047825 0.000000
# 6 0.000000 0.000000 0.000000 0.000000 0.000000 0.054916
#
#
# Mechanical properties :
#
#
# Convention : Reuss Voigt Hill
#
# Bulk Modulus (GPa) = 76.90262 89.54862 83.22562
# Shear Modulus (GPa) = 35.51402 17.21932 26.36667
#
# Velocity S-wave (km/s) = 4.06783 2.83251 3.50502
# Velocity P-wave (km/s) = 7.60885 7.24026 7.42684
#
# Compressibility (1/GPa) = 0.01300346
#
# Stress axis : x y z
#
# Youngs Moduli (GPa) = -326.56732 -326.58253 179.55612
#
# Poissons Ratio (x) = 3.73787 0.41892
# Poissons Ratio (y) = 3.73770 0.41893
# Poissons Ratio (z) = -0.76192 -0.76196
#
# Static dielectric constant tensor:
#      x y z
#    x 1.765950 0.000000 0.000000 
#    y 0.000000 1.765950 0.000000 
#    z 0.000000 0.000000 1.829390 
# 
# From -- ./inp_files/1475.got.cif
#   From: 2010.05.17/outbox.cif.g08.bks.cpg/sg142_1_cif.got.tgz:1475.got - 2010.05.20 13:39:18.
