data_PCOD9573437
_publ_section_title
;
Structure prediction by ZEFSAII (Michael W. Deem and Ramdas Pophale) SiO2 
 PCOD9573437
Probable space group: I 41/A C D
;
_chemical_formula_sum "Si O2"
_cell_formula_units_Z 240
_cell_length_a 24.560245
_cell_length_b 24.560245
_cell_length_c 17.066575
_cell_angle_alpha 90.000000
_cell_angle_beta 90.000000
_cell_angle_gamma 90.000000
_cell_volume 10294.654201
_symmetry_space_group_name_H-M "I 41/A C D"
_symmetry_group_IT_number 142
_space_group.IT_coordinate_system_code '2'
_symmetry_cell_setting 'tetragonal'
loop_
_space_group_symop_operation_xyz
x,y,z
1/4-y,3/4+x,1/4+z
-x,1/2-y,z
1/4+y,1/4-x,3/4+z
x,-y,1/2-z
1/2-x,y,-z
3/4+y,1/4+x,1/4-z
1/4-y,1/4-x,1/4-z
-x,-y,-z
3/4+y,1/4-x,3/4-z
x,1/2+y,-z
3/4-y,3/4+x,1/4-z
-x,y,1/2+z
1/2+x,-y,z
1/4-y,3/4-x,3/4+z
3/4+y,3/4+x,3/4+z
1/2+x,1/2+y,1/2+z
3/4-y,1/4+x,3/4+z
1/2-x,-y,1/2+z
3/4+y,3/4-x,1/4+z
1/2+x,1/2-y,-z
-x,1/2+y,1/2-z
1/4+y,3/4+x,3/4-z
3/4-y,3/4-x,3/4-z
1/2-x,1/2-y,1/2-z
1/4+y,3/4-x,1/4-z
1/2+x,y,1/2-z
1/4-y,1/4+x,3/4-z
1/2-x,1/2+y,z
x,1/2-y,1/2+z
3/4-y,1/4-x,1/4+z
1/4+y,1/4+x,1/4+z
loop_
_atom_site_type_symbol
_atom_site_label
_atom_site_fract_x
_atom_site_fract_y
_atom_site_fract_z
Si Si1 0.411467 0.239183 0.717501
Si Si2 0.540521 0.053968 0.733257
Si Si3 0.386812 0.476684 0.064135
Si Si4 0.576447 0.557493 0.446938
Si Si5 0.014133 0.830575 0.722672
Si Si6 0.810883 0.884842 0.028517
Si Si7 0.338398 0.943960 0.211637
Si Si8 0.164358 0.585643 0.875000
O O1 0.355060 0.210174 0.735404
O O2 0.415407 0.238203 0.622305
O O3 0.461816 0.203255 0.747216
O O4 0.429139 0.299899 0.741967
O O5 0.556673 0.051928 0.641777
O O6 0.511641 0.109245 0.753664
O O7 0.596273 0.053012 0.783655
O O8 0.507068 0.000000 0.750000
O O9 0.404154 0.451325 0.147733
O O10 0.345420 0.526374 0.086880
O O11 0.427304 0.505589 0.003771
O O12 0.354763 0.431609 0.016230
O O13 0.640911 0.574932 0.440313
O O14 0.750000 0.904986 0.000000
O O15 0.837434 0.870415 0.944661
O O16 0.315909 0.934092 0.125000
O O17 0.317635 0.000000 0.250000
#
# Coordination Sequence:
#
# PCOD9573437 Si02
#       8
#    32  32  32  32  32  32  32  16
#     4   8  15  30  57  90 110 140 191 259 319 371
#     4  10  19  33  50  80 117 153 195 246 301 371
#     4  10  18  29  44  68 107 148 188 235 289 353
#     4  10  18  31  50  79 117 149 195 250 298 368
#     4   8  15  31  57  87 114 139 191 257 321 370
#     4   9  17  30  44  72 106 153 190 234 300 357
#     4  11  23  32  46  74 107 154 205 242 286 348
#     4   8  18  26  46  62  98 143 186 240 282 349
#
# _framework density 23.313071000000001
#
# number of rings (size 3 to 8) (size 9 to 14) (size 15 to 20)
#    0.000    2.667    1.333    2.400    2.800    2.133 
#    0.000    0.667    0.000    0.800   27.733    0.933 
#    0.000    0.000    0.000    0.000    0.000    2.933 
#
# Total GULP energy -668542.936813 kJ/mol
# GULP energy per Si atom -5571.191140 kJ/mol
# Density = 2.326001 g / cm^3
# Si number density = 23.313071 Si / 1000 Ang^3
#
#
#
# Elastic Constant Matrix: (Units=GPa)
#
#
# Indices 1 2 3 4 5 6 
#
# 1 73.1836 30.4179 12.1088 0.0000 0.0000 0.0000
# 2 30.4179 73.1832 12.1089 0.0000 0.0000 0.0000
# 3 12.1088 12.1089 101.8429 0.0000 0.0000 0.0000
# 4 0.0000 0.0000 0.0000 5.4144 0.0000 0.0000
# 5 0.0000 0.0000 0.0000 0.0000 5.4144 0.0000
# 6 0.0000 0.0000 0.0000 0.0000 0.0000 20.2122
#
#
#
# Elastic Compliance Matrix: (Units=1/GPa)
#
#
# Indices 1 2 3 4 5 6 
#
# 1 0.016656 -0.006728 -0.001180 0.000000 0.000000 0.000000
# 2 -0.006728 0.016656 -0.001180 0.000000 0.000000 0.000000
# 3 -0.001180 -0.001180 0.010100 0.000000 0.000000 0.000000
# 4 0.000000 0.000000 0.000000 0.184694 0.000000 0.000000
# 5 0.000000 0.000000 0.000000 0.000000 0.184693 0.000000
# 6 0.000000 0.000000 0.000000 0.000000 0.000000 0.049475
#
#
# Mechanical properties :
#
#
# Convention : Reuss Voigt Hill
#
# Bulk Modulus (GPa) = 39.62810 39.72007 39.67409
# Shear Modulus (GPa) = 10.22785 19.11313 14.67049
#
# Velocity S-wave (km/s) = 2.09683 2.86640 2.51127
# Velocity P-wave (km/s) = 4.78512 5.29431 5.04614
#
# Compressibility (1/GPa) = 0.02523462
#
# Stress axis : x y z
#
# Youngs Moduli (GPa) = 60.03918 60.03883 99.01236
#
# Poissons Ratio (x) = 0.40391 0.11688
# Poissons Ratio (y) = 0.40391 0.11688
# Poissons Ratio (z) = 0.07087 0.07087
#
# Static dielectric constant tensor:
#      x y z
#    x 1.941260 0.000000 0.000000 
#    y 0.000000 1.941260 0.000000 
#    z 0.000000 0.000000 1.906620 
# 
# From -- ./inp_files/7816.got.cif
#   From: 2010.05.17/outbox.cif.g08.bks.cpg/sg142_4_cif.got.tgz:7816.got - 2010.05.20 13:39:18.
