data_PCOD9573513
_publ_section_title
;
Structure prediction by ZEFSAII (Michael W. Deem and Ramdas Pophale) SiO2 
 PCOD9573513
Probable space group: I 41/A C D
;
_chemical_formula_sum "Si O2"
_cell_formula_units_Z 160
_cell_length_a 17.325663
_cell_length_b 17.325663
_cell_length_c 25.110181
_cell_angle_alpha 90.000000
_cell_angle_beta 90.000000
_cell_angle_gamma 90.000000
_cell_volume 7537.538938
_symmetry_space_group_name_H-M "I 41/A C D"
_symmetry_group_IT_number 142
_space_group.IT_coordinate_system_code '2'
_symmetry_cell_setting 'tetragonal'
loop_
_space_group_symop_operation_xyz
x,y,z
1/4-y,3/4+x,1/4+z
-x,1/2-y,z
1/4+y,1/4-x,3/4+z
x,-y,1/2-z
1/2-x,y,-z
3/4+y,1/4+x,1/4-z
1/4-y,1/4-x,1/4-z
-x,-y,-z
3/4+y,1/4-x,3/4-z
x,1/2+y,-z
3/4-y,3/4+x,1/4-z
-x,y,1/2+z
1/2+x,-y,z
1/4-y,3/4-x,3/4+z
3/4+y,3/4+x,3/4+z
1/2+x,1/2+y,1/2+z
3/4-y,1/4+x,3/4+z
1/2-x,-y,1/2+z
3/4+y,3/4-x,1/4+z
1/2+x,1/2-y,-z
-x,1/2+y,1/2-z
1/4+y,3/4+x,3/4-z
3/4-y,3/4-x,3/4-z
1/2-x,1/2-y,1/2-z
1/4+y,3/4-x,1/4-z
1/2+x,y,1/2-z
1/4-y,1/4+x,3/4-z
1/2-x,1/2+y,z
x,1/2-y,1/2+z
3/4-y,1/4-x,1/4+z
1/4+y,1/4+x,1/4+z
loop_
_atom_site_type_symbol
_atom_site_label
_atom_site_fract_x
_atom_site_fract_y
_atom_site_fract_z
Si Si1 0.558137 0.923702 0.094246
Si Si2 0.418229 0.206682 0.259693
Si Si3 0.184154 0.454178 0.905876
Si Si4 0.311573 0.336702 0.916847
Si Si5 0.597556 0.681735 0.359893
O O1 0.607725 0.857725 0.125000
O O2 0.508791 0.884989 0.047540
O O3 0.493678 0.956832 0.135886
O O4 0.620329 0.985617 0.071912
O O5 0.500000 0.250000 0.255134
O O6 0.428889 0.122661 0.286263
O O7 0.382413 0.197971 0.201305
O O8 0.242330 0.507671 0.875000
O O9 0.237689 0.388857 0.933733
O O10 0.132252 0.402640 0.866431
O O11 0.360869 0.389132 0.875000
O O12 0.510530 0.652019 0.358802
#
# Coordination Sequence:
#
# PCOD9573513 Si02
#       5
#    32  32  32  32  32
#     4  10  19  34  65  94 120 157 198 252 302 359
#     4  11  20  37  64  93 116 150 214 258 296 353
#     4  10  22  40  58  89 130 162 195 242 313 371
#     4   9  19  35  62  91 121 156 195 251 305 360
#     4  11  23  41  64  85 118 168 209 253 301 355
#
# _framework density 21.227087000000001
#
# number of rings (size 3 to 8) (size 9 to 14) (size 15 to 20)
#    0.000    1.800    4.000    1.200    0.000    1.600 
#    0.000    2.000    0.000    3.600    0.000    0.000 
#    0.000    0.000    0.000    0.000    0.000    0.000 
#
# Total GULP energy -445757.728344 kJ/mol
# GULP energy per Si atom -5571.971604 kJ/mol
# Density = 2.117877 g / cm^3
# Si number density = 21.227087 Si / 1000 Ang^3
#
#
#
# Elastic Constant Matrix: (Units=GPa)
#
#
# Indices 1 2 3 4 5 6 
#
# 1 124.5865 69.2087 24.1035 0.0000 0.0000 0.0000
# 2 69.2087 124.5852 24.1045 0.0000 0.0000 0.0000
# 3 24.1035 24.1045 77.9417 0.0000 0.0000 0.0000
# 4 0.0000 0.0000 0.0000 6.8409 0.0000 0.0000
# 5 0.0000 0.0000 0.0000 0.0000 6.8409 0.0000
# 6 0.0000 0.0000 0.0000 0.0000 0.0000 69.6068
#
#
#
# Elastic Compliance Matrix: (Units=1/GPa)
#
#
# Indices 1 2 3 4 5 6 
#
# 1 0.011824 -0.006234 -0.001729 0.000000 0.000000 0.000000
# 2 -0.006234 0.011824 -0.001729 0.000000 0.000000 0.000000
# 3 -0.001729 -0.001729 0.013899 0.000000 0.000000 0.000000
# 4 0.000000 0.000000 0.000000 0.146180 0.000000 0.000000
# 5 0.000000 0.000000 0.000000 0.000000 0.146179 0.000000
# 6 0.000000 0.000000 0.000000 0.000000 0.000000 0.014366
#
#
# Mechanical properties :
#
#
# Convention : Reuss Voigt Hill
#
# Bulk Modulus (GPa) = 55.05239 62.43855 58.74547
# Shear Modulus (GPa) = 13.52408 30.63750 22.08079
#
# Velocity S-wave (km/s) = 2.52685 3.80323 3.22874
# Velocity P-wave (km/s) = 5.87406 6.98316 6.45248
#
# Compressibility (1/GPa) = 0.01816452
#
# Stress axis : x y z
#
# Youngs Moduli (GPa) = 84.57386 84.57252 71.94562
#
# Poissons Ratio (x) = 0.52722 0.12437
# Poissons Ratio (y) = 0.52723 0.12439
# Poissons Ratio (z) = 0.14620 0.14622
#
# Static dielectric constant tensor:
#      x y z
#    x 1.829120 0.000000 0.000000 
#    y 0.000000 1.829130 0.000000 
#    z 0.000000 0.000000 1.788460 
# 
# From -- ./inp_files/11297.got.cif
#   From: 2010.05.17/outbox.cif.g08.bks.cpg/sg142_6_cif.got.tgz:11297.got - 2010.05.20 13:39:18.
