data_PCOD9573266
_publ_section_title
;
Structure prediction by ZEFSAII (Michael W. Deem and Ramdas Pophale) SiO2 
 PCOD9573266
Probable space group: I 41/A M D
;
_chemical_formula_sum "Si O2"
_cell_formula_units_Z 192
_cell_length_a 21.192619
_cell_length_b 21.192619
_cell_length_c 23.922150
_cell_angle_alpha 90.000000
_cell_angle_beta 90.000000
_cell_angle_gamma 90.000000
_cell_volume 10744.085857
_symmetry_space_group_name_H-M "I 41/A M D"
_symmetry_group_IT_number 141
_space_group.IT_coordinate_system_code '2'
_symmetry_cell_setting 'tetragonal'
loop_
_space_group_symop_operation_xyz
x,y,z
1/4-y,3/4+x,1/4+z
-x,1/2-y,z
1/4+y,1/4-x,3/4+z
x,-y,-z
-x,1/2+y,-z
1/4+y,3/4+x,1/4-z
1/4-y,1/4-x,3/4-z
-x,-y,-z
3/4+y,1/4-x,3/4-z
x,1/2+y,-z
3/4-y,3/4+x,1/4-z
-x,y,z
x,1/2-y,z
3/4-y,1/4-x,3/4+z
3/4+y,3/4+x,1/4+z
1/2+x,1/2+y,1/2+z
3/4-y,1/4+x,3/4+z
1/2-x,-y,1/2+z
3/4+y,3/4-x,1/4+z
1/2+x,1/2-y,1/2-z
1/2-x,y,1/2-z
3/4+y,1/4+x,3/4-z
3/4-y,3/4-x,1/4-z
1/2-x,1/2-y,1/2-z
1/4+y,3/4-x,1/4-z
1/2+x,y,1/2-z
1/4-y,1/4+x,3/4-z
1/2-x,1/2+y,1/2+z
1/2+x,-y,1/2+z
1/4-y,3/4-x,1/4+z
1/4+y,1/4+x,3/4+z
loop_
_atom_site_type_symbol
_atom_site_label
_atom_site_fract_x
_atom_site_fract_y
_atom_site_fract_z
Si Si1 0.380036 0.610383 0.108945
Si Si2 0.925953 0.071771 0.044781
Si Si3 0.688890 0.106054 0.685075
Si Si4 0.000000 0.554330 0.583989
Si Si5 0.784443 0.568489 0.481274
Si Si6 0.218036 0.626715 0.599107
Si Si7 0.658358 0.750000 0.709576
O O1 0.371500 0.661465 0.156839
O O2 0.320739 0.601187 0.068753
O O3 0.383999 0.541910 0.138303
O O4 0.438677 0.620938 0.068498
O O5 0.000000 0.059004 0.039639
O O6 0.888658 0.008349 0.065544
O O7 0.897085 0.092679 0.984936
O O8 0.654039 0.095962 0.625000
O O9 0.695230 0.035833 0.709903
O O10 0.937484 0.563243 0.621455
O O11 0.000000 0.593741 0.526598
O O12 0.000000 0.481924 0.560901
O O13 0.812667 0.500000 0.500000
O O14 0.787743 0.615426 0.533453
O O15 0.185986 0.564015 0.625000
#
# Coordination Sequence:
#
# PCOD9573266 Si02
#       7
#    32  32  32  16  32  32  16
#     4  11  21  36  57  88 117 154 202 244 306 368
#     4  11  23  39  60  89 128 163 199 257 318 370
#     4  11  20  35  57  87 122 158 198 248 312 375
#     4   9  20  36  52  83 118 155 190 233 315 348
#     4  12  20  30  55  90 119 150 201 253 306 362
#     4  11  20  33  56  83 117 154 192 252 301 364
#     4   9  20  36  57  82 119 154 195 242 292 376
#
# _framework density 17.870297000000001
#
# number of rings (size 3 to 8) (size 9 to 14) (size 15 to 20)
#    0.000    1.167    6.667    2.000    2.333    0.000 
#    1.500    0.417    3.667    0.250    2.167    0.000 
#    0.000    0.000    0.000    0.000    0.000    0.000 
#
# Total GULP energy -535117.543051 kJ/mol
# GULP energy per Si atom -5574.141073 kJ/mol
# Density = 1.782962 g / cm^3
# Si number density = 17.870297 Si / 1000 Ang^3
#
#
#
# Elastic Constant Matrix: (Units=GPa)
#
#
# Indices 1 2 3 4 5 6 
#
# 1 69.8932 12.6083 42.9104 0.0000 0.0000 0.0000
# 2 12.6083 69.8978 42.9116 0.0000 0.0000 0.0000
# 3 42.9104 42.9116 169.0480 0.0000 0.0000 0.0000
# 4 0.0000 0.0000 0.0000 11.5545 0.0000 0.0000
# 5 0.0000 0.0000 0.0000 0.0000 11.5550 0.0000
# 6 0.0000 0.0000 0.0000 0.0000 0.0000 -4.6038
#
#
#
# Elastic Compliance Matrix: (Units=1/GPa)
#
#
# Indices 1 2 3 4 5 6 
#
# 1 0.016963 -0.000493 -0.004181 0.000000 0.000000 0.000000
# 2 -0.000493 0.016962 -0.004180 0.000000 0.000000 0.000000
# 3 -0.004181 -0.004180 0.008038 0.000000 0.000000 0.000000
# 4 0.000000 0.000000 0.000000 0.086546 0.000000 0.000000
# 5 0.000000 0.000000 0.000000 0.000000 0.086543 0.000000
# 6 0.000000 0.000000 0.000000 0.000000 0.000000 -0.217211
#
#
# Mechanical properties :
#
#
# Convention : Reuss Voigt Hill
#
# Bulk Modulus (GPa) = 41.22976 56.18882 48.70929
# Shear Modulus (GPa) = 211.55435 17.72839 114.64137
#
# Velocity S-wave (km/s) = 10.89221 3.15311 8.01818
# Velocity P-wave (km/s) = 13.46509 6.69082 10.63193
#
# Compressibility (1/GPa) = 0.02425433
#
# Stress axis : x y z
#
# Youngs Moduli (GPa) = 58.95115 58.95508 124.41123
#
# Poissons Ratio (x) = 0.02908 0.52012
# Poissons Ratio (y) = 0.02908 0.52010
# Poissons Ratio (z) = 0.24645 0.24646
#
# Static dielectric constant tensor:
#      x y z
#    x 1.623450 0.000000 0.000000 
#    y 0.000000 1.623450 0.000000 
#    z 0.000000 0.000000 1.633370 
# 
# From -- ./inp_files/11785.got.cif
#   From: 2010.05.17/outbox.cif.g08.bks.cpg/sg141_6_cif.got.tgz:11785.got - 2010.05.20 13:30:51.
