data_PCOD9573525
_publ_section_title
;
Structure prediction by ZEFSAII (Michael W. Deem and Ramdas Pophale) SiO2 
 PCOD9573525
Probable space group: I 41/A C D
;
_chemical_formula_sum "Si O2"
_cell_formula_units_Z 144
_cell_length_a 27.108547
_cell_length_b 27.108547
_cell_length_c 10.554757
_cell_angle_alpha 90.000000
_cell_angle_beta 90.000000
_cell_angle_gamma 90.000000
_cell_volume 7756.409323
_symmetry_space_group_name_H-M "I 41/A C D"
_symmetry_group_IT_number 142
_space_group.IT_coordinate_system_code '2'
_symmetry_cell_setting 'tetragonal'
loop_
_space_group_symop_operation_xyz
x,y,z
1/4-y,3/4+x,1/4+z
-x,1/2-y,z
1/4+y,1/4-x,3/4+z
x,-y,1/2-z
1/2-x,y,-z
3/4+y,1/4+x,1/4-z
1/4-y,1/4-x,1/4-z
-x,-y,-z
3/4+y,1/4-x,3/4-z
x,1/2+y,-z
3/4-y,3/4+x,1/4-z
-x,y,1/2+z
1/2+x,-y,z
1/4-y,3/4-x,3/4+z
3/4+y,3/4+x,3/4+z
1/2+x,1/2+y,1/2+z
3/4-y,1/4+x,3/4+z
1/2-x,-y,1/2+z
3/4+y,3/4-x,1/4+z
1/2+x,1/2-y,-z
-x,1/2+y,1/2-z
1/4+y,3/4+x,3/4-z
3/4-y,3/4-x,3/4-z
1/2-x,1/2-y,1/2-z
1/4+y,3/4-x,1/4-z
1/2+x,y,1/2-z
1/4-y,1/4+x,3/4-z
1/2-x,1/2+y,z
x,1/2-y,1/2+z
3/4-y,1/4-x,1/4+z
1/4+y,1/4+x,1/4+z
loop_
_atom_site_type_symbol
_atom_site_label
_atom_site_fract_x
_atom_site_fract_y
_atom_site_fract_z
Si Si1 0.522691 0.030432 0.381484
Si Si2 0.695201 0.828759 0.566733
Si Si3 0.802960 0.123909 0.558948
Si Si4 0.357285 0.910251 0.952148
Si Si5 0.250000 0.958227 0.000000
O O1 0.477717 0.066453 0.349160
O O2 0.578136 0.050121 0.399218
O O3 0.528764 0.000000 0.250000
O O4 0.500000 0.000000 0.500000
O O5 0.750000 0.830335 0.500000
O O6 0.691603 0.861479 0.695238
O O7 0.652155 0.853403 0.484743
O O8 0.750000 0.111637 0.500000
O O9 0.827493 0.077493 0.625000
O O10 0.834192 0.132953 0.432106
O O11 0.300543 0.929437 0.964347
O O12 0.261806 0.988195 0.125000
#
# Coordination Sequence:
#
# PCOD9573525 Si02
#       5
#    32  32  32  32  16
#     4  10  22  40  64  85 115 164 215 263 308 361
#     4  10  19  35  61  79 116 156 207 251 304 361
#     4  11  27  40  58  88 128 160 207 254 308 371
#     4  11  22  36  53  88 118 158 207 247 301 379
#     4  12  24  34  50  80 126 174 204 240 304 364
#
# _framework density 18.565290999999998
#
# number of rings (size 3 to 8) (size 9 to 14) (size 15 to 20)
#    0.000    1.333    3.333    2.667   14.000    0.000 
#    0.000    0.000    0.000    0.000    0.000    3.111 
#    0.000    0.000    0.000    0.000    0.000    0.000 
#
# Total GULP energy -401136.982106 kJ/mol
# GULP energy per Si atom -5571.346974 kJ/mol
# Density = 1.852304 g / cm^3
# Si number density = 18.565291 Si / 1000 Ang^3
#
#
#
# Elastic Constant Matrix: (Units=GPa)
#
#
# Indices 1 2 3 4 5 6 
#
# 1 83.9592 63.1774 15.7137 0.0000 0.0000 0.0000
# 2 63.1774 83.9592 15.7138 0.0000 0.0000 0.0000
# 3 15.7137 15.7138 78.6904 0.0000 0.0000 0.0000
# 4 0.0000 0.0000 0.0000 19.3752 0.0000 0.0000
# 5 0.0000 0.0000 0.0000 0.0000 19.3733 0.0000
# 6 0.0000 0.0000 0.0000 0.0000 0.0000 10.2650
#
#
#
# Elastic Compliance Matrix: (Units=1/GPa)
#
#
# Indices 1 2 3 4 5 6 
#
# 1 0.027609 -0.020510 -0.001418 0.000000 0.000000 0.000000
# 2 -0.020510 0.027609 -0.001418 0.000000 0.000000 0.000000
# 3 -0.001418 -0.001418 0.013274 0.000000 0.000000 0.000000
# 4 0.000000 0.000000 0.000000 0.051612 0.000000 0.000000
# 5 0.000000 0.000000 0.000000 0.000000 0.051617 0.000000
# 6 0.000000 0.000000 0.000000 0.000000 0.000000 0.097418
#
#
# Mechanical properties :
#
#
# Convention : Reuss Voigt Hill
#
# Bulk Modulus (GPa) = 45.86725 48.42427 47.14576
# Shear Modulus (GPa) = 15.47517 19.93631 17.70574
#
# Velocity S-wave (km/s) = 2.89027 3.28052 3.09156
# Velocity P-wave (km/s) = 5.99147 6.36309 6.18007
#
# Compressibility (1/GPa) = 0.02180205
#
# Stress axis : x y z
#
# Youngs Moduli (GPa) = 36.21995 36.21994 75.33403
#
# Poissons Ratio (x) = 0.74287 0.10679
# Poissons Ratio (y) = 0.74287 0.10680
# Poissons Ratio (z) = 0.05135 0.05135
#
# Static dielectric constant tensor:
#      x y z
#    x 1.766160 0.000000 0.000000 
#    y 0.000000 1.766160 0.000000 
#    z 0.000000 0.000000 1.953220 
# 
# From -- ./inp_files/3752.got.cif
#   From: 2010.05.17/outbox.cif.g08.bks.cpg/sg142_2_cif.got.tgz:3752.got - 2010.05.20 13:39:18.
