data_PCOD9573929
_publ_section_title
;
Structure prediction by ZEFSAII (Michael W. Deem and Ramdas Pophale) SiO2 
 PCOD9573929
Probable space group: I 41/A C D
;
_chemical_formula_sum "Si O2"
_cell_formula_units_Z 112
_cell_length_a 14.934229
_cell_length_b 14.934229
_cell_length_c 20.377686
_cell_angle_alpha 90.000000
_cell_angle_beta 90.000000
_cell_angle_gamma 90.000000
_cell_volume 4544.859677
_symmetry_space_group_name_H-M "I 41/A C D"
_symmetry_group_IT_number 142
_space_group.IT_coordinate_system_code '2'
_symmetry_cell_setting 'tetragonal'
loop_
_space_group_symop_operation_xyz
x,y,z
1/4-y,3/4+x,1/4+z
-x,1/2-y,z
1/4+y,1/4-x,3/4+z
x,-y,1/2-z
1/2-x,y,-z
3/4+y,1/4+x,1/4-z
1/4-y,1/4-x,1/4-z
-x,-y,-z
3/4+y,1/4-x,3/4-z
x,1/2+y,-z
3/4-y,3/4+x,1/4-z
-x,y,1/2+z
1/2+x,-y,z
1/4-y,3/4-x,3/4+z
3/4+y,3/4+x,3/4+z
1/2+x,1/2+y,1/2+z
3/4-y,1/4+x,3/4+z
1/2-x,-y,1/2+z
3/4+y,3/4-x,1/4+z
1/2+x,1/2-y,-z
-x,1/2+y,1/2-z
1/4+y,3/4+x,3/4-z
3/4-y,3/4-x,3/4-z
1/2-x,1/2-y,1/2-z
1/4+y,3/4-x,1/4-z
1/2+x,y,1/2-z
1/4-y,1/4+x,3/4-z
1/2-x,1/2+y,z
x,1/2-y,1/2+z
3/4-y,1/4-x,1/4+z
1/4+y,1/4+x,1/4+z
loop_
_atom_site_type_symbol
_atom_site_label
_atom_site_fract_x
_atom_site_fract_y
_atom_site_fract_z
Si Si1 0.521410 0.642566 0.706081
Si Si2 0.790173 0.000000 0.250000
Si Si3 0.549253 0.450428 0.164663
Si Si4 0.080158 0.061665 0.977566
O O1 0.500000 0.750000 0.696179
O O2 0.500959 0.608301 0.780396
O O3 0.482044 0.557216 0.665413
O O4 0.627453 0.646055 0.710001
O O5 0.852297 0.953664 0.195782
O O6 0.737229 0.077141 0.213825
O O7 0.546784 0.406569 0.093724
O O8 0.000000 0.000000 0.000000
#
# Coordination Sequence:
#
# PCOD9573929 Si02
#       4
#    32  16  32  32
#     4  10  23  44  68  98 133 184 235 283 360 429
#     4  10  22  44  62  98 132 176 226 288 348 418
#     4  10  24  44  66  97 141 177 233 294 344 437
#     4  12  25  41  69 102 134 182 230 286 363 420
#
# _framework density 24.643225000000001
#
# number of rings (size 3 to 8) (size 9 to 14) (size 15 to 20)
#    0.000    1.714    0.000    6.000    8.000    1.143 
#    5.143    4.286    0.000    0.000    0.000    0.000 
#    0.000    0.000    0.000    0.000    0.000    0.000 
#
# Total GULP energy -311919.318791 kJ/mol
# GULP energy per Si atom -5569.987836 kJ/mol
# Density = 2.458714 g / cm^3
# Si number density = 24.643225 Si / 1000 Ang^3
#
#
#
# Elastic Constant Matrix: (Units=GPa)
#
#
# Indices 1 2 3 4 5 6 
#
# 1 79.0964 7.9534 -5.5253 0.0000 0.0000 0.0000
# 2 7.9534 79.0964 -5.5253 0.0000 0.0000 0.0000
# 3 -5.5253 -5.5253 95.2218 0.0000 0.0000 0.0000
# 4 0.0000 0.0000 0.0000 30.7189 0.0000 0.0000
# 5 0.0000 0.0000 0.0000 0.0000 30.7189 0.0000
# 6 0.0000 0.0000 0.0000 0.0000 0.0000 15.3864
#
#
#
# Elastic Compliance Matrix: (Units=1/GPa)
#
#
# Indices 1 2 3 4 5 6 
#
# 1 0.012815 -0.001242 0.000672 0.000000 0.000000 0.000000
# 2 -0.001242 0.012815 0.000672 0.000000 0.000000 0.000000
# 3 0.000672 0.000672 0.010580 0.000000 0.000000 0.000000
# 4 0.000000 0.000000 0.000000 0.032553 0.000000 0.000000
# 5 0.000000 0.000000 0.000000 0.000000 0.032553 0.000000
# 6 0.000000 0.000000 0.000000 0.000000 0.000000 0.064992
#
#
# Mechanical properties :
#
#
# Convention : Reuss Voigt Hill
#
# Bulk Modulus (GPa) = 27.46374 27.46893 27.46633
# Shear Modulus (GPa) = 28.05173 32.46562 30.25868
#
# Velocity S-wave (km/s) = 3.37755 3.63357 3.50790
# Velocity P-wave (km/s) = 5.13607 5.36420 5.25137
#
# Compressibility (1/GPa) = 0.03641165
#
# Stress axis : x y z
#
# Youngs Moduli (GPa) = 78.03627 78.03627 94.52036
#
# Poissons Ratio (x) = 0.09689 -0.06347
# Poissons Ratio (y) = 0.09689 -0.06347
# Poissons Ratio (z) = -0.05240 -0.05240
#
# Static dielectric constant tensor:
#      x y z
#    x 2.266720 0.000000 0.000000 
#    y 0.000000 2.266720 0.000000 
#    z 0.000000 0.000000 2.467940 
# 
# From -- ./inp_files/9762.got.cif
#   From: 2010.05.17/outbox.cif.g08.bks.cpg/sg142_5_cif.got.tgz:9762.got - 2010.05.20 13:39:18.
