data_PCOD9573653
_publ_section_title
;
Structure prediction by ZEFSAII (Michael W. Deem and Ramdas Pophale) SiO2 
 PCOD9573653
Probable space group: I 41/A C D
;
_chemical_formula_sum "Si O2"
_cell_formula_units_Z 160
_cell_length_a 30.117365
_cell_length_b 30.117365
_cell_length_c 8.955431
_cell_angle_alpha 90.000000
_cell_angle_beta 90.000000
_cell_angle_gamma 90.000000
_cell_volume 8123.074507
_symmetry_space_group_name_H-M "I 41/A C D"
_symmetry_group_IT_number 142
_space_group.IT_coordinate_system_code '2'
_symmetry_cell_setting 'tetragonal'
loop_
_space_group_symop_operation_xyz
x,y,z
1/4-y,3/4+x,1/4+z
-x,1/2-y,z
1/4+y,1/4-x,3/4+z
x,-y,1/2-z
1/2-x,y,-z
3/4+y,1/4+x,1/4-z
1/4-y,1/4-x,1/4-z
-x,-y,-z
3/4+y,1/4-x,3/4-z
x,1/2+y,-z
3/4-y,3/4+x,1/4-z
-x,y,1/2+z
1/2+x,-y,z
1/4-y,3/4-x,3/4+z
3/4+y,3/4+x,3/4+z
1/2+x,1/2+y,1/2+z
3/4-y,1/4+x,3/4+z
1/2-x,-y,1/2+z
3/4+y,3/4-x,1/4+z
1/2+x,1/2-y,-z
-x,1/2+y,1/2-z
1/4+y,3/4+x,3/4-z
3/4-y,3/4-x,3/4-z
1/2-x,1/2-y,1/2-z
1/4+y,3/4-x,1/4-z
1/2+x,y,1/2-z
1/4-y,1/4+x,3/4-z
1/2-x,1/2+y,z
x,1/2-y,1/2+z
3/4-y,1/4-x,1/4+z
1/4+y,1/4+x,1/4+z
loop_
_atom_site_type_symbol
_atom_site_label
_atom_site_fract_x
_atom_site_fract_y
_atom_site_fract_z
Si Si1 0.874759 0.000000 0.750000
Si Si2 0.584334 0.500000 0.250000
Si Si3 0.677552 0.216434 0.174693
Si Si4 0.206781 0.594945 0.280928
Si Si5 0.883141 0.639493 0.045402
Si Si6 0.442812 0.417683 0.237892
O O1 0.846026 0.992463 0.601122
O O2 0.906883 0.957274 0.751617
O O3 0.554251 0.473888 0.131518
O O4 0.615905 0.530046 0.145784
O O5 0.643192 0.182799 0.095661
O O6 0.666025 0.213266 0.348024
O O7 0.677851 0.267046 0.123411
O O8 0.199761 0.550240 0.375000
O O9 0.157285 0.605466 0.215869
O O10 0.919309 0.625798 0.169543
O O11 0.898047 0.648047 0.875000
#
# Coordination Sequence:
#
# PCOD9573653 Si02
#       6
#    16  16  32  32  32  32
#     4  10  21  36  58  91 126 160 212 259 324 388
#     4  12  21  36  62  91 120 162 208 265 326 390
#     4  12  23  37  60  92 128 164 209 262 325 387
#     4  10  20  38  60  88 121 170 210 260 324 390
#     4  10  20  40  59  85 125 171 209 251 317 389
#     4  11  24  36  59  93 128 164 207 265 320 388
#
# _framework density 19.696974999999998
#
# number of rings (size 3 to 8) (size 9 to 14) (size 15 to 20)
#    0.000    1.200    6.000    2.400    2.800    1.600 
#    0.000    1.000    0.000    1.800    0.000    4.200 
#    0.000    0.000    0.000    0.000    0.000    0.000 
#
# Total GULP energy -446120.833472 kJ/mol
# GULP energy per Si atom -5576.510418 kJ/mol
# Density = 1.965214 g / cm^3
# Si number density = 19.696975 Si / 1000 Ang^3
#
#
#
# Elastic Constant Matrix: (Units=GPa)
#
#
# Indices 1 2 3 4 5 6 
#
# 1 29.0390 43.7730 21.1255 0.0000 0.0000 0.0000
# 2 43.7730 29.0412 21.1259 0.0000 0.0000 0.0000
# 3 21.1255 21.1259 141.2868 0.0000 0.0000 0.0000
# 4 0.0000 0.0000 0.0000 40.6352 0.0000 0.0000
# 5 0.0000 0.0000 0.0000 0.0000 40.6433 0.0000
# 6 0.0000 0.0000 0.0000 0.0000 0.0000 -133.4924
#
#
#
# Elastic Compliance Matrix: (Units=1/GPa)
#
#
# Indices 1 2 3 4 5 6 
#
# 1 -0.026419 0.041457 -0.002249 0.000000 0.000000 0.000000
# 2 0.041457 -0.026417 -0.002249 0.000000 0.000000 0.000000
# 3 -0.002249 -0.002249 0.007750 0.000000 0.000000 0.000000
# 4 0.000000 0.000000 0.000000 0.024609 0.000000 0.000000
# 5 0.000000 0.000000 0.000000 0.000000 0.024604 0.000000
# 6 0.000000 0.000000 0.000000 0.000000 0.000000 -0.007491
#
#
# Mechanical properties :
#
#
# Convention : Reuss Voigt Hill
#
# Bulk Modulus (GPa) = 34.68253 41.26842 37.97548
# Shear Modulus (GPa) = -73.88561 -2.88662 -38.38611
#
# Velocity S-wave (km/s) = -6.13128 -1.21190 -4.41935
# Velocity P-wave (km/s) = 5.69887 4.36336 2.59213
#
# Compressibility (1/GPa) = 0.02883296
#
# Stress axis : x y z
#
# Youngs Moduli (GPa) = -37.85111 -37.85401 129.02818
#
# Poissons Ratio (x) = 1.56931 0.29013
# Poissons Ratio (y) = 1.56919 0.29014
# Poissons Ratio (z) = -0.08511 -0.08512
#
# Static dielectric constant tensor:
#      x y z
#    x 1.694700 0.000000 0.000000 
#    y 0.000000 1.694690 0.000000 
#    z 0.000000 0.000000 1.764740 
# 
# From -- ./inp_files/2252.got.cif
#   From: 2010.05.17/outbox.cif.g08.bks.cpg/sg142_2_cif.got.tgz:2252.got - 2010.05.20 13:39:18.
