data_PCOD9573667
_publ_section_title
;
Structure prediction by ZEFSAII (Michael W. Deem and Ramdas Pophale) SiO2 
 PCOD9573667
Probable space group: I 41/A C D
;
_chemical_formula_sum "Si O2"
_cell_formula_units_Z 160
_cell_length_a 23.743781
_cell_length_b 23.743781
_cell_length_c 14.451374
_cell_angle_alpha 90.000000
_cell_angle_beta 90.000000
_cell_angle_gamma 90.000000
_cell_volume 8147.209734
_symmetry_space_group_name_H-M "I 41/A C D"
_symmetry_group_IT_number 142
_space_group.IT_coordinate_system_code '2'
_symmetry_cell_setting 'tetragonal'
loop_
_space_group_symop_operation_xyz
x,y,z
1/4-y,3/4+x,1/4+z
-x,1/2-y,z
1/4+y,1/4-x,3/4+z
x,-y,1/2-z
1/2-x,y,-z
3/4+y,1/4+x,1/4-z
1/4-y,1/4-x,1/4-z
-x,-y,-z
3/4+y,1/4-x,3/4-z
x,1/2+y,-z
3/4-y,3/4+x,1/4-z
-x,y,1/2+z
1/2+x,-y,z
1/4-y,3/4-x,3/4+z
3/4+y,3/4+x,3/4+z
1/2+x,1/2+y,1/2+z
3/4-y,1/4+x,3/4+z
1/2-x,-y,1/2+z
3/4+y,3/4-x,1/4+z
1/2+x,1/2-y,-z
-x,1/2+y,1/2-z
1/4+y,3/4+x,3/4-z
3/4-y,3/4-x,3/4-z
1/2-x,1/2-y,1/2-z
1/4+y,3/4-x,1/4-z
1/2+x,y,1/2-z
1/4-y,1/4+x,3/4-z
1/2-x,1/2+y,z
x,1/2-y,1/2+z
3/4-y,1/4-x,1/4+z
1/4+y,1/4+x,1/4+z
loop_
_atom_site_type_symbol
_atom_site_label
_atom_site_fract_x
_atom_site_fract_y
_atom_site_fract_z
Si Si1 0.979130 0.436687 0.513092
Si Si2 0.780655 0.561692 0.590809
Si Si3 0.907363 0.751076 0.396247
Si Si4 0.009135 0.156376 0.358175
Si Si5 0.287466 0.895523 0.205132
O O1 0.918071 0.445232 0.557345
O O2 0.000000 0.500000 0.500000
O O3 0.011467 0.396710 0.584447
O O4 0.978781 0.397685 0.421379
O O5 0.750000 0.588882 0.500000
O O6 0.734856 0.515145 0.625000
O O7 0.797438 0.592928 0.685247
O O8 0.835761 0.527349 0.558466
O O9 0.954185 0.704185 0.375000
O O10 0.890598 0.749651 0.502397
O O11 0.939601 0.810400 0.375000
O O12 0.952673 0.190654 0.387280
O O13 0.320052 0.929949 0.125000
#
# Coordination Sequence:
#
# PCOD9573667 Si02
#       5
#    32  32  32  32  32
#     4  12  27  42  57  99 138 161 206 270 342 401
#     4   8  16  36  64  89 118 166 225 261 290 373
#     4  11  20  43  75  95 120 170 228 271 313 387
#     4  11  21  42  74  98 119 169 229 272 318 391
#     4  10  20  38  63  91 125 169 217 262 321 386
#
# _framework density 19.638625999999999
#
# number of rings (size 3 to 8) (size 9 to 14) (size 15 to 20)
#    0.000    1.600    4.000    3.600    0.000    2.400 
#    7.200    1.000    0.000    0.000    0.000    0.000 
#    0.000    0.000    0.000    0.000    0.000    0.000 
#
# Total GULP energy -445647.300248 kJ/mol
# GULP energy per Si atom -5570.591253 kJ/mol
# Density = 1.959393 g / cm^3
# Si number density = 19.638626 Si / 1000 Ang^3
#
#
#
# Elastic Constant Matrix: (Units=GPa)
#
#
# Indices 1 2 3 4 5 6 
#
# 1 69.9380 13.0316 4.6039 0.0000 0.0000 0.0000
# 2 13.0316 69.9383 4.6060 0.0000 0.0000 0.0000
# 3 4.6039 4.6060 115.1989 0.0000 0.0000 0.0000
# 4 0.0000 0.0000 0.0000 18.0688 0.0000 0.0000
# 5 0.0000 0.0000 0.0000 0.0000 18.0700 0.0000
# 6 0.0000 0.0000 0.0000 0.0000 0.0000 7.5512
#
#
#
# Elastic Compliance Matrix: (Units=1/GPa)
#
#
# Indices 1 2 3 4 5 6 
#
# 1 0.014840 -0.002733 -0.000484 0.000000 0.000000 0.000000
# 2 -0.002733 0.014839 -0.000484 0.000000 0.000000 0.000000
# 3 -0.000484 -0.000484 0.008719 0.000000 0.000000 0.000000
# 4 0.000000 0.000000 0.000000 0.055344 0.000000 0.000000
# 5 0.000000 0.000000 0.000000 0.000000 0.055340 0.000000
# 6 0.000000 0.000000 0.000000 0.000000 0.000000 0.132428
#
#
# Mechanical properties :
#
#
# Convention : Reuss Voigt Hill
#
# Bulk Modulus (GPa) = 32.26201 33.28423 32.77312
# Shear Modulus (GPa) = 16.70870 24.26025 20.48448
#
# Velocity S-wave (km/s) = 2.92003 3.51854 3.23316
# Velocity P-wave (km/s) = 5.27563 5.78723 5.53734
#
# Compressibility (1/GPa) = 0.03099621
#
# Stress axis : x y z
#
# Youngs Moduli (GPa) = 67.38771 67.38788 114.68769
#
# Poissons Ratio (x) = 0.18418 0.05548
# Poissons Ratio (y) = 0.18418 0.05552
# Poissons Ratio (z) = 0.03260 0.03262
#
# Static dielectric constant tensor:
#      x y z
#    x 1.711920 0.000000 0.000000 
#    y 0.000000 1.711910 0.000000 
#    z 0.000000 0.000000 1.780440 
# 
# From -- ./inp_files/5442.got.cif
#   From: 2010.05.17/outbox.cif.g08.bks.cpg/sg142_3_cif.got.tgz:5442.got - 2010.05.20 13:39:18.
