data_PCOD9573082
_publ_section_title
;
Structure prediction by ZEFSAII (Michael W. Deem and Ramdas Pophale) SiO2 
 PCOD9573082
Probable space group: I 41/A M D
;
_chemical_formula_sum "Si O2"
_cell_formula_units_Z 128
_cell_length_a 19.943640
_cell_length_b 19.943640
_cell_length_c 15.215959
_cell_angle_alpha 90.000000
_cell_angle_beta 90.000000
_cell_angle_gamma 90.000000
_cell_volume 6052.129075
_symmetry_space_group_name_H-M "I 41/A M D"
_symmetry_group_IT_number 141
_space_group.IT_coordinate_system_code '2'
_symmetry_cell_setting 'tetragonal'
loop_
_space_group_symop_operation_xyz
x,y,z
1/4-y,3/4+x,1/4+z
-x,1/2-y,z
1/4+y,1/4-x,3/4+z
x,-y,-z
-x,1/2+y,-z
1/4+y,3/4+x,1/4-z
1/4-y,1/4-x,3/4-z
-x,-y,-z
3/4+y,1/4-x,3/4-z
x,1/2+y,-z
3/4-y,3/4+x,1/4-z
-x,y,z
x,1/2-y,z
3/4-y,1/4-x,3/4+z
3/4+y,3/4+x,1/4+z
1/2+x,1/2+y,1/2+z
3/4-y,1/4+x,3/4+z
1/2-x,-y,1/2+z
3/4+y,3/4-x,1/4+z
1/2+x,1/2-y,1/2-z
1/2-x,y,1/2-z
3/4+y,1/4+x,3/4-z
3/4-y,3/4-x,1/4-z
1/2-x,1/2-y,1/2-z
1/4+y,3/4-x,1/4-z
1/2+x,y,1/2-z
1/4-y,1/4+x,3/4-z
1/2-x,1/2+y,1/2+z
1/2+x,-y,1/2+z
1/4-y,3/4-x,1/4+z
1/4+y,1/4+x,3/4+z
loop_
_atom_site_type_symbol
_atom_site_label
_atom_site_fract_x
_atom_site_fract_y
_atom_site_fract_z
Si Si1 0.190318 0.077683 0.477455
Si Si2 0.822338 0.674212 0.228889
Si Si3 0.924262 0.673006 0.732630
Si Si4 0.576186 0.434701 0.732626
O O1 0.175659 0.074342 0.375000
O O2 0.125765 0.116148 0.517071
O O3 0.252995 0.125693 0.496735
O O4 0.201172 0.000000 0.500000
O O5 0.823556 0.750000 0.264292
O O6 0.750000 0.642639 0.250000
O O7 0.823406 0.677525 0.123135
O O8 0.884156 0.631264 0.263333
O O9 0.923174 0.673174 0.625000
O O10 0.914741 0.750000 0.760212
O O11 0.000000 0.650911 0.757420
O O12 0.500000 0.442377 0.765495
#
# Coordination Sequence:
#
# PCOD9573082 Si02
#       4
#    32  32  32  32
#     4  11  24  36  55  82 111 151 189 237 284 341
#     4   9  19  36  61  88 116 150 188 231 288 354
#     4   8  15  32  56  77 102 139 182 224 269 323
#     4  10  21  36  59  86 116 151 190 238 287 342
#
# _framework density 21.149581000000001
#
# number of rings (size 3 to 8) (size 9 to 14) (size 15 to 20)
#    0.000    2.500    0.000    2.250    7.000    2.000 
#    0.000    2.500    0.000    0.000    0.000    0.000 
#    0.000    0.000    0.000    0.000    0.000    0.000 
#
# Total GULP energy -356993.132789 kJ/mol
# GULP energy per Si atom -5578.017700 kJ/mol
# Density = 2.110144 g / cm^3
# Si number density = 21.149581 Si / 1000 Ang^3
#
#
#
# Elastic Constant Matrix: (Units=GPa)
#
#
# Indices 1 2 3 4 5 6 
#
# 1 179.3986 108.5448 5.4459 0.0000 0.0000 0.0000
# 2 108.5448 179.3992 5.4458 0.0000 0.0000 0.0000
# 3 5.4459 5.4458 25.7106 0.0000 0.0000 0.0000
# 4 0.0000 0.0000 0.0000 13.1759 0.0000 0.0000
# 5 0.0000 0.0000 0.0000 0.0000 13.1758 0.0000
# 6 0.0000 0.0000 0.0000 0.0000 0.0000 38.3167
#
#
#
# Elastic Compliance Matrix: (Units=1/GPa)
#
#
# Indices 1 2 3 4 5 6 
#
# 1 0.008807 -0.005306 -0.000742 0.000000 0.000000 0.000000
# 2 -0.005306 0.008807 -0.000742 0.000000 0.000000 0.000000
# 3 -0.000742 -0.000742 0.039209 0.000000 0.000000 0.000000
# 4 0.000000 0.000000 0.000000 0.075896 0.000000 0.000000
# 5 0.000000 0.000000 0.000000 0.000000 0.075897 0.000000
# 6 0.000000 0.000000 0.000000 0.000000 0.000000 0.026098
#
#
# Mechanical properties :
#
#
# Convention : Reuss Voigt Hill
#
# Bulk Modulus (GPa) = 23.12444 69.26459 46.19452
# Shear Modulus (GPa) = 19.03255 30.60514 24.81884
#
# Velocity S-wave (km/s) = 3.00309 3.80818 3.42934
# Velocity P-wave (km/s) = 4.79398 7.22200 6.12942
#
# Compressibility (1/GPa) = 0.04324428
#
# Stress axis : x y z
#
# Youngs Moduli (GPa) = 113.54284 113.54325 25.50462
#
# Poissons Ratio (x) = 0.60249 0.01891
# Poissons Ratio (y) = 0.60249 0.01891
# Poissons Ratio (z) = 0.08420 0.08420
#
# Static dielectric constant tensor:
#      x y z
#    x -0.441950 0.000000 0.000000 
#    y 0.000000 -0.435110 0.000000 
#    z 0.000000 0.000000 1.787600 
# 
# From -- ./inp_files/8258.got.cif
#   From: 2010.05.17/outbox.cif.g08.bks.cpg/sg141_5_cif.got.tgz:8258.got - 2010.05.20 13:30:51.
