data_PCOD9573299
_publ_section_title
;
Structure prediction by ZEFSAII (Michael W. Deem and Ramdas Pophale) SiO2 
 PCOD9573299
Probable space group: I 41/A M D
;
_chemical_formula_sum "Si O2"
_cell_formula_units_Z 160
_cell_length_a 22.866271
_cell_length_b 22.866271
_cell_length_c 16.442673
_cell_angle_alpha 90.000000
_cell_angle_beta 90.000000
_cell_angle_gamma 90.000000
_cell_volume 8597.320407
_symmetry_space_group_name_H-M "I 41/A M D"
_symmetry_group_IT_number 141
_space_group.IT_coordinate_system_code '2'
_symmetry_cell_setting 'tetragonal'
loop_
_space_group_symop_operation_xyz
x,y,z
1/4-y,3/4+x,1/4+z
-x,1/2-y,z
1/4+y,1/4-x,3/4+z
x,-y,-z
-x,1/2+y,-z
1/4+y,3/4+x,1/4-z
1/4-y,1/4-x,3/4-z
-x,-y,-z
3/4+y,1/4-x,3/4-z
x,1/2+y,-z
3/4-y,3/4+x,1/4-z
-x,y,z
x,1/2-y,z
3/4-y,1/4-x,3/4+z
3/4+y,3/4+x,1/4+z
1/2+x,1/2+y,1/2+z
3/4-y,1/4+x,3/4+z
1/2-x,-y,1/2+z
3/4+y,3/4-x,1/4+z
1/2+x,1/2-y,1/2-z
1/2-x,y,1/2-z
3/4+y,1/4+x,3/4-z
3/4-y,3/4-x,1/4-z
1/2-x,1/2-y,1/2-z
1/4+y,3/4-x,1/4-z
1/2+x,y,1/2-z
1/4-y,1/4+x,3/4-z
1/2-x,1/2+y,1/2+z
1/2+x,-y,1/2+z
1/4-y,3/4-x,1/4+z
1/4+y,1/4+x,3/4+z
loop_
_atom_site_type_symbol
_atom_site_label
_atom_site_fract_x
_atom_site_fract_y
_atom_site_fract_z
Si Si1 0.570311 0.405158 0.974677
Si Si2 0.727219 0.179153 0.123751
Si Si3 0.070881 0.498693 0.192408
Si Si4 0.634226 0.679916 0.138799
Si Si5 0.068532 0.867721 0.204140
O O1 0.500000 0.398268 0.974715
O O2 0.584157 0.460113 0.915168
O O3 0.599911 0.348376 0.937136
O O4 0.589506 0.426437 0.064152
O O5 0.723979 0.250000 0.121586
O O6 0.727262 0.158097 0.031283
O O7 0.087849 0.451890 0.124380
O O8 0.087015 0.566105 0.181696
O O9 0.000000 0.497862 0.194324
O O10 0.629727 0.750000 0.138392
O O11 0.605889 0.655539 0.220677
O O12 0.078529 0.828529 0.125000
O O13 0.000000 0.868508 0.227486
#
# Coordination Sequence:
#
# PCOD9573299 Si02
#       5
#    32  32  32  32  32
#     4   9  16  28  52  83 112 148 190 234 284 338
#     4   8  14  29  53  77 106 150 199 231 263 332
#     4   9  19  36  56  80 112 150 194 232 272 343
#     4  11  22  34  55  88 119 149 187 241 299 342
#     4  11  23  40  61  84 113 151 193 240 297 356
#
# _framework density 18.61045
#
# number of rings (size 3 to 8) (size 9 to 14) (size 15 to 20)
#    0.000    2.400    2.000    2.400    0.000    4.200 
#    0.000    3.000    0.000    6.000    0.000   11.200 
#    0.000    0.000    0.000    0.000    0.000    0.000 
#
# Total GULP energy -446036.460181 kJ/mol
# GULP energy per Si atom -5575.455752 kJ/mol
# Density = 1.856809 g / cm^3
# Si number density = 18.610450 Si / 1000 Ang^3
#
#
#
# Elastic Constant Matrix: (Units=GPa)
#
#
# Indices 1 2 3 4 5 6 
#
# 1 78.4496 35.7983 29.8269 0.0000 0.0000 0.0000
# 2 35.7983 78.4496 29.8269 0.0000 0.0000 0.0000
# 3 29.8269 29.8269 62.6144 0.0000 0.0000 0.0000
# 4 0.0000 0.0000 0.0000 20.8793 0.0000 0.0000
# 5 0.0000 0.0000 0.0000 0.0000 20.8793 0.0000
# 6 0.0000 0.0000 0.0000 0.0000 0.0000 -13.5494
#
#
#
# Elastic Compliance Matrix: (Units=1/GPa)
#
#
# Indices 1 2 3 4 5 6 
#
# 1 0.017548 -0.005898 -0.005550 0.000000 0.000000 0.000000
# 2 -0.005898 0.017548 -0.005550 0.000000 0.000000 0.000000
# 3 -0.005550 -0.005550 0.021258 0.000000 0.000000 0.000000
# 4 0.000000 0.000000 0.000000 0.047894 0.000000 0.000000
# 5 0.000000 0.000000 0.000000 0.000000 0.047894 0.000000
# 6 0.000000 0.000000 0.000000 0.000000 0.000000 -0.073804
#
#
# Mechanical properties :
#
#
# Convention : Reuss Voigt Hill
#
# Bulk Modulus (GPa) = 44.72263 45.60200 45.16231
# Shear Modulus (GPa) = 41.74056 13.91263 27.82659
#
# Velocity S-wave (km/s) = 4.74102 2.73714 3.87099
# Velocity P-wave (km/s) = 7.35206 5.87757 6.65577
#
# Compressibility (1/GPa) = 0.02236005
#
# Stress axis : x y z
#
# Youngs Moduli (GPa) = 56.98542 56.98542 47.04051
#
# Poissons Ratio (x) = 0.33608 0.26107
# Poissons Ratio (y) = 0.33608 0.26107
# Poissons Ratio (z) = 0.31627 0.31627
#
# Static dielectric constant tensor:
#      x y z
#    x 1.644530 0.000000 0.000000 
#    y 0.000000 1.644530 0.000000 
#    z 0.000000 0.000000 1.661310 
# 
# From -- ./inp_files/6595.got.cif
#   From: 2010.05.17/outbox.cif.g08.bks.cpg/sg141_4_cif.got.tgz:6595.got - 2010.05.20 13:30:51.
