data_PCOD9573066
_publ_section_title
;
Structure prediction by ZEFSAII (Michael W. Deem and Ramdas Pophale) SiO2 
 PCOD9573066
Probable space group: I 41/A M D
;
_chemical_formula_sum "Si O2"
_cell_formula_units_Z 64
_cell_length_a 9.314250
_cell_length_b 9.314250
_cell_length_c 42.224184
_cell_angle_alpha 90.000000
_cell_angle_beta 90.000000
_cell_angle_gamma 90.000000
_cell_volume 3663.169768
_symmetry_space_group_name_H-M "I 41/A M D"
_symmetry_group_IT_number 141
_space_group.IT_coordinate_system_code '2'
_symmetry_cell_setting 'tetragonal'
loop_
_space_group_symop_operation_xyz
x,y,z
1/4-y,3/4+x,1/4+z
-x,1/2-y,z
1/4+y,1/4-x,3/4+z
x,-y,-z
-x,1/2+y,-z
1/4+y,3/4+x,1/4-z
1/4-y,1/4-x,3/4-z
-x,-y,-z
3/4+y,1/4-x,3/4-z
x,1/2+y,-z
3/4-y,3/4+x,1/4-z
-x,y,z
x,1/2-y,z
3/4-y,1/4-x,3/4+z
3/4+y,3/4+x,1/4+z
1/2+x,1/2+y,1/2+z
3/4-y,1/4+x,3/4+z
1/2-x,-y,1/2+z
3/4+y,3/4-x,1/4+z
1/2+x,1/2-y,1/2-z
1/2-x,y,1/2-z
3/4+y,1/4+x,3/4-z
3/4-y,3/4-x,1/4-z
1/2-x,1/2-y,1/2-z
1/4+y,3/4-x,1/4-z
1/2+x,y,1/2-z
1/4-y,1/4+x,3/4-z
1/2-x,1/2+y,1/2+z
1/2+x,-y,1/2+z
1/4-y,3/4-x,1/4+z
1/4+y,1/4+x,3/4+z
loop_
_atom_site_type_symbol
_atom_site_label
_atom_site_fract_x
_atom_site_fract_y
_atom_site_fract_z
Si Si1 0.831046 0.921468 0.032208
Si Si2 0.828635 0.579851 0.846507
O O1 0.817111 0.750000 0.028010
O O2 0.740553 0.963671 0.062977
O O3 0.000000 0.953343 0.037689
O O4 0.786365 0.000000 0.000000
O O5 0.744860 0.505141 0.875000
O O6 0.803629 0.750000 0.846127
O O7 0.000000 0.555192 0.850535
#
# Coordination Sequence:
#
# PCOD9573066 Si02
#       2
#    32  32
#     4   9  18  33  53  76 102 134 172 212 254 303
#     4  10  21  36  54  77 105 138 176 216 259 308
#
# _framework density 17.471208000000001
#
# number of rings (size 3 to 8) (size 9 to 14) (size 15 to 20)
#    0.000    2.500    0.000    1.500    0.000    6.000 
#    0.000    5.000    0.000    0.000    0.000    0.000 
#    0.000    0.000    0.000    0.000    0.000    0.000 
#
# Total GULP energy -178586.945581 kJ/mol
# GULP energy per Si atom -5580.842049 kJ/mol
# Density = 1.743144 g / cm^3
# Si number density = 17.471208 Si / 1000 Ang^3
#
#
#
# Elastic Constant Matrix: (Units=GPa)
#
#
# Indices 1 2 3 4 5 6 
#
# 1 62.2201 61.3339 98.3250 0.0000 0.0000 0.0000
# 2 61.3339 62.2210 98.3234 0.0000 0.0000 0.0000
# 3 98.3250 98.3234 223.2114 0.0000 0.0000 0.0000
# 4 0.0000 0.0000 0.0000 34.1165 0.0000 0.0000
# 5 0.0000 0.0000 0.0000 0.0000 34.1163 0.0000
# 6 0.0000 0.0000 0.0000 0.0000 0.0000 20.9966
#
#
#
# Elastic Compliance Matrix: (Units=1/GPa)
#
#
# Indices 1 2 3 4 5 6 
#
# 1 0.577459 -0.550347 -0.011947 0.000000 0.000000 0.000000
# 2 -0.550347 0.577390 -0.011908 0.000000 0.000000 0.000000
# 3 -0.011947 -0.011908 0.014988 0.000000 0.000000 0.000000
# 4 0.000000 0.000000 0.000000 0.029311 0.000000 0.000000
# 5 0.000000 0.000000 0.000000 0.000000 0.029311 0.000000
# 6 0.000000 0.000000 0.000000 0.000000 0.000000 0.047627
#
#
# Mechanical properties :
#
#
# Convention : Reuss Voigt Hill
#
# Bulk Modulus (GPa) = 46.65753 95.95746 71.30749
# Shear Modulus (GPa) = 2.05623 23.82391 12.94007
#
# Velocity S-wave (km/s) = 1.08604 3.69671 2.72444
# Velocity P-wave (km/s) = 5.32316 8.55940 7.12739
#
# Compressibility (1/GPa) = 0.02143277
#
# Stress axis : x y z
#
# Youngs Moduli (GPa) = 1.73172 1.73193 66.71938
#
# Poissons Ratio (x) = 0.95316 0.79709
# Poissons Ratio (y) = 0.95305 0.79451
# Poissons Ratio (z) = 0.02069 0.02062
#
# Static dielectric constant tensor:
#      x y z
#    x 1.583190 0.000000 0.000000 
#    y 0.000000 1.583190 0.000000 
#    z 0.000000 0.000000 1.560520 
# 
# From -- ./inp_files/10803.got.cif
#   From: 2010.05.17/outbox.cif.g08.bks.cpg/sg141_6_cif.got.tgz:10803.got - 2010.05.20 13:30:51.
