data_PCOD9573668
_publ_section_title
;
Structure prediction by ZEFSAII (Michael W. Deem and Ramdas Pophale) SiO2 
 PCOD9573668
Probable space group: I 41/A C D
;
_chemical_formula_sum "Si O2"
_cell_formula_units_Z 80
_cell_length_a 26.561971
_cell_length_b 26.561971
_cell_length_c 5.121801
_cell_angle_alpha 90.000000
_cell_angle_beta 90.000000
_cell_angle_gamma 90.000000
_cell_volume 3613.626788
_symmetry_space_group_name_H-M "I 41/A C D"
_symmetry_group_IT_number 142
_space_group.IT_coordinate_system_code '2'
_symmetry_cell_setting 'tetragonal'
loop_
_space_group_symop_operation_xyz
x,y,z
1/4-y,3/4+x,1/4+z
-x,1/2-y,z
1/4+y,1/4-x,3/4+z
x,-y,1/2-z
1/2-x,y,-z
3/4+y,1/4+x,1/4-z
1/4-y,1/4-x,1/4-z
-x,-y,-z
3/4+y,1/4-x,3/4-z
x,1/2+y,-z
3/4-y,3/4+x,1/4-z
-x,y,1/2+z
1/2+x,-y,z
1/4-y,3/4-x,3/4+z
3/4+y,3/4+x,3/4+z
1/2+x,1/2+y,1/2+z
3/4-y,1/4+x,3/4+z
1/2-x,-y,1/2+z
3/4+y,3/4-x,1/4+z
1/2+x,1/2-y,-z
-x,1/2+y,1/2-z
1/4+y,3/4+x,3/4-z
3/4-y,3/4-x,3/4-z
1/2-x,1/2-y,1/2-z
1/4+y,3/4-x,1/4-z
1/2+x,y,1/2-z
1/4-y,1/4+x,3/4-z
1/2-x,1/2+y,z
x,1/2-y,1/2+z
3/4-y,1/4-x,1/4+z
1/4+y,1/4+x,1/4+z
loop_
_atom_site_type_symbol
_atom_site_label
_atom_site_fract_x
_atom_site_fract_y
_atom_site_fract_z
Si Si1 0.805118 0.444883 0.625000
Si Si2 0.413188 0.465467 0.006508
Si Si3 0.111467 0.281448 0.224144
O O1 0.806797 0.500000 0.750000
O O2 0.805707 0.394061 0.797869
O O3 0.427385 0.500000 0.250000
O O4 0.413352 0.500000 0.750000
O O5 0.449696 0.418769 0.963288
O O6 0.076027 0.326027 0.125000
O O7 0.102303 0.263505 0.518893
#
# Coordination Sequence:
#
# PCOD9573668 Si02
#       3
#    16  32  32
#     4  10  20  38  64 102 141 182 220 268 327 414
#     4  11  24  42  69 102 141 183 225 274 339 417
#     4  12  27  48  72 101 136 176 234 294 352 412
#
# _framework density 22.138425999999999
#
# number of rings (size 3 to 8) (size 9 to 14) (size 15 to 20)
#    0.000    0.800    2.000    4.800    0.000   12.000 
#    0.000    0.000    0.000    0.000    0.000    0.000 
#    0.000    0.000    0.000    0.000    0.000    0.000 
#
# Total GULP energy -223740.326834 kJ/mol
# GULP energy per Si atom -5593.508171 kJ/mol
# Density = 2.208804 g / cm^3
# Si number density = 22.138426 Si / 1000 Ang^3
#
#
#
# Elastic Constant Matrix: (Units=GPa)
#
#
# Indices 1 2 3 4 5 6 
#
# 1 73.5841 40.9058 31.3544 0.0000 0.0000 0.0000
# 2 40.9058 73.5848 31.3539 0.0000 0.0000 0.0000
# 3 31.3544 31.3539 103.7669 0.0000 0.0000 0.0000
# 4 0.0000 0.0000 0.0000 28.5812 0.0000 0.0000
# 5 0.0000 0.0000 0.0000 0.0000 28.5795 0.0000
# 6 0.0000 0.0000 0.0000 0.0000 0.0000 133.9079
#
#
#
# Elastic Compliance Matrix: (Units=1/GPa)
#
#
# Indices 1 2 3 4 5 6 
#
# 1 0.020534 -0.010067 -0.003163 0.000000 0.000000 0.000000
# 2 -0.010067 0.020534 -0.003162 0.000000 0.000000 0.000000
# 3 -0.003163 -0.003162 0.011548 0.000000 0.000000 0.000000
# 4 0.000000 0.000000 0.000000 0.034988 0.000000 0.000000
# 5 0.000000 0.000000 0.000000 0.000000 0.034990 0.000000
# 6 0.000000 0.000000 0.000000 0.000000 0.000000 0.007468
#
#
# Mechanical properties :
#
#
# Convention : Reuss Voigt Hill
#
# Bulk Modulus (GPa) = 50.42603 50.90712 50.66657
# Shear Modulus (GPa) = 29.50603 48.03517 38.77060
#
# Velocity S-wave (km/s) = 3.65471 4.66313 4.18937
# Velocity P-wave (km/s) = 6.37466 7.21372 6.80713
#
# Compressibility (1/GPa) = 0.01983103
#
# Stress axis : x y z
#
# Youngs Moduli (GPa) = 48.69974 48.70052 86.59372
#
# Poissons Ratio (x) = 0.49028 0.27387
# Poissons Ratio (y) = 0.49027 0.27385
# Poissons Ratio (z) = 0.15402 0.15401
#
# Static dielectric constant tensor:
#      x y z
#    x 1.817170 0.000000 0.000000 
#    y 0.000000 1.817160 0.000000 
#    z 0.000000 0.000000 1.783570 
# 
# From -- ./inp_files/597.got.cif
#   From: 2010.05.17/outbox.cif.g08.bks.cpg/sg142_1_cif.got.tgz:597.got - 2010.05.20 13:39:18.
