data_PCOD9573040
_publ_section_title
;
Structure prediction by ZEFSAII (Michael W. Deem and Ramdas Pophale) SiO2 
 PCOD9573040
Probable space group: I 41/A M D
;
_chemical_formula_sum "Si O2"
_cell_formula_units_Z 96
_cell_length_a 14.747384
_cell_length_b 14.747384
_cell_length_c 20.714256
_cell_angle_alpha 90.000000
_cell_angle_beta 90.000000
_cell_angle_gamma 90.000000
_cell_volume 4505.046902
_symmetry_space_group_name_H-M "I 41/A M D"
_symmetry_group_IT_number 141
_space_group.IT_coordinate_system_code '2'
_symmetry_cell_setting 'tetragonal'
loop_
_space_group_symop_operation_xyz
x,y,z
1/4-y,3/4+x,1/4+z
-x,1/2-y,z
1/4+y,1/4-x,3/4+z
x,-y,-z
-x,1/2+y,-z
1/4+y,3/4+x,1/4-z
1/4-y,1/4-x,3/4-z
-x,-y,-z
3/4+y,1/4-x,3/4-z
x,1/2+y,-z
3/4-y,3/4+x,1/4-z
-x,y,z
x,1/2-y,z
3/4-y,1/4-x,3/4+z
3/4+y,3/4+x,1/4+z
1/2+x,1/2+y,1/2+z
3/4-y,1/4+x,3/4+z
1/2-x,-y,1/2+z
3/4+y,3/4-x,1/4+z
1/2+x,1/2-y,1/2-z
1/2-x,y,1/2-z
3/4+y,1/4+x,3/4-z
3/4-y,3/4-x,1/4-z
1/2-x,1/2-y,1/2-z
1/4+y,3/4-x,1/4-z
1/2+x,y,1/2-z
1/4-y,1/4+x,3/4-z
1/2-x,1/2+y,1/2+z
1/2+x,-y,1/2+z
1/4-y,3/4-x,1/4+z
1/4+y,1/4+x,3/4+z
loop_
_atom_site_type_symbol
_atom_site_label
_atom_site_fract_x
_atom_site_fract_y
_atom_site_fract_z
Si Si1 0.891774 0.250000 0.469362
Si Si2 0.500000 0.525386 0.146603
Si Si3 0.642237 0.392237 0.625000
Si Si4 0.097714 0.250000 0.982356
Si Si5 0.898169 0.401849 0.158832
O O1 0.832169 0.250000 0.405098
O O2 0.859398 0.335190 0.514197
O O3 0.000000 0.250000 0.463526
O O4 0.500000 0.570489 0.217875
O O5 0.586462 0.568462 0.112247
O O6 0.588206 0.353933 0.686651
O O7 0.748705 0.372267 0.618391
O O8 0.000000 0.250000 0.014709
O O9 0.000000 0.375447 0.134528
#
# Coordination Sequence:
#
# PCOD9573040 Si02
#       5
#    16  16  16  16  32
#     4  10  20  42  66  91 135 168 214 289 333 386
#     4  12  22  38  68  92 116 185 229 264 353 401
#     4  12  19  36  58  86 135 172 204 278 330 398
#     4  12  20  32  52  89 131 164 209 261 334 405
#     4  10  20  39  61  92 131 175 214 276 337 403
#
# _framework density 21.309435000000001
#
# number of rings (size 3 to 8) (size 9 to 14) (size 15 to 20)
#    1.000    0.000    8.333    1.500    0.000    1.333 
#    0.000    3.333    3.667    2.000    0.000    0.000 
#    0.000    0.000    0.000    0.000    0.000    0.000 
#
# Total GULP energy -267690.103179 kJ/mol
# GULP energy per Si atom -5576.877150 kJ/mol
# Density = 2.126093 g / cm^3
# Si number density = 21.309435 Si / 1000 Ang^3
#
#
#
# Elastic Constant Matrix: (Units=GPa)
#
#
# Indices 1 2 3 4 5 6 
#
# 1 137.6761 26.1458 13.2236 0.0000 0.0000 0.0000
# 2 26.1458 137.6761 13.2236 0.0000 0.0000 0.0000
# 3 13.2236 13.2236 23.3859 0.0000 0.0000 0.0000
# 4 0.0000 0.0000 0.0000 48.9491 0.0000 0.0000
# 5 0.0000 0.0000 0.0000 0.0000 48.9491 0.0000
# 6 0.0000 0.0000 0.0000 0.0000 0.0000 20.2028
#
#
#
# Elastic Compliance Matrix: (Units=1/GPa)
#
#
# Indices 1 2 3 4 5 6 
#
# 1 0.007842 -0.001124 -0.003798 0.000000 0.000000 0.000000
# 2 -0.001124 0.007842 -0.003798 0.000000 0.000000 0.000000
# 3 -0.003798 -0.003798 0.047056 0.000000 0.000000 0.000000
# 4 0.000000 0.000000 0.000000 0.020429 0.000000 0.000000
# 5 0.000000 0.000000 0.000000 0.000000 0.020429 0.000000
# 6 0.000000 0.000000 0.000000 0.000000 0.000000 0.049498
#
#
# Mechanical properties :
#
#
# Convention : Reuss Voigt Hill
#
# Bulk Modulus (GPa) = 22.07613 44.88045 33.47829
# Shear Modulus (GPa) = 26.93408 40.02987 33.48197
#
# Velocity S-wave (km/s) = 3.55907 4.33887 3.96817
# Velocity P-wave (km/s) = 5.22222 6.79766 6.06134
#
# Compressibility (1/GPa) = 0.04529780
#
# Stress axis : x y z
#
# Youngs Moduli (GPa) = 127.52198 127.52197 21.25105
#
# Poissons Ratio (x) = 0.14338 0.08072
# Poissons Ratio (y) = 0.14338 0.08072
# Poissons Ratio (z) = 0.48438 0.48438
#
# Static dielectric constant tensor:
#      x y z
#    x 1.789770 0.000000 0.000000 
#    y 0.000000 1.789770 0.000000 
#    z 0.000000 0.000000 1.823330 
# 
# From -- ./inp_files/12418.got.cif
#   From: 2010.05.17/outbox.cif.g08.bks.cpg/sg141_7_cif.got.tgz:12418.got - 2010.05.20 13:30:51.
