data_PCOD9573920
_publ_section_title
;
Structure prediction by ZEFSAII (Michael W. Deem and Ramdas Pophale) SiO2 
 PCOD9573920
Probable space group: I 41/A C D
;
_chemical_formula_sum "Si O2"
_cell_formula_units_Z 176
_cell_length_a 22.167183
_cell_length_b 22.167183
_cell_length_c 15.403622
_cell_angle_alpha 90.000000
_cell_angle_beta 90.000000
_cell_angle_gamma 90.000000
_cell_volume 7569.093426
_symmetry_space_group_name_H-M "I 41/A C D"
_symmetry_group_IT_number 142
_space_group.IT_coordinate_system_code '2'
_symmetry_cell_setting 'tetragonal'
loop_
_space_group_symop_operation_xyz
x,y,z
1/4-y,3/4+x,1/4+z
-x,1/2-y,z
1/4+y,1/4-x,3/4+z
x,-y,1/2-z
1/2-x,y,-z
3/4+y,1/4+x,1/4-z
1/4-y,1/4-x,1/4-z
-x,-y,-z
3/4+y,1/4-x,3/4-z
x,1/2+y,-z
3/4-y,3/4+x,1/4-z
-x,y,1/2+z
1/2+x,-y,z
1/4-y,3/4-x,3/4+z
3/4+y,3/4+x,3/4+z
1/2+x,1/2+y,1/2+z
3/4-y,1/4+x,3/4+z
1/2-x,-y,1/2+z
3/4+y,3/4-x,1/4+z
1/2+x,1/2-y,-z
-x,1/2+y,1/2-z
1/4+y,3/4+x,3/4-z
3/4-y,3/4-x,3/4-z
1/2-x,1/2-y,1/2-z
1/4+y,3/4-x,1/4-z
1/2+x,y,1/2-z
1/4-y,1/4+x,3/4-z
1/2-x,1/2+y,z
x,1/2-y,1/2+z
3/4-y,1/4-x,1/4+z
1/4+y,1/4+x,1/4+z
loop_
_atom_site_type_symbol
_atom_site_label
_atom_site_fract_x
_atom_site_fract_y
_atom_site_fract_z
Si Si1 0.250000 0.812718 0.000000
Si Si2 0.272913 0.054166 0.681288
Si Si3 0.453586 0.625021 0.795289
Si Si4 0.633051 0.767067 0.776423
Si Si5 0.529028 0.071098 0.346416
Si Si6 0.386836 0.484248 0.076582
O O1 0.315689 0.838000 0.976712
O O2 0.232526 0.769748 0.919282
O O3 0.262969 0.113664 0.736771
O O4 0.331814 0.050094 0.622214
O O5 0.278680 0.000000 0.750000
O O6 0.213951 0.036050 0.625000
O O7 0.421502 0.685751 0.767105
O O8 0.470962 0.628244 0.895423
O O9 0.513781 0.611645 0.737432
O O10 0.645612 0.735486 0.685288
O O11 0.689780 0.808715 0.804115
O O12 0.591717 0.037159 0.358259
#
# Coordination Sequence:
#
# PCOD9573920 Si02
#       6
#    16  32  32  32  32  32
#     4   8  20  42  68  96 140 168 230 292 338 438
#     4   9  22  40  58 100 142 170 215 287 343 424
#     4  10  24  44  66 102 140 177 245 298 348 423
#     4  12  24  41  71  98 136 194 232 297 365 408
#     4  10  22  43  69 100 135 179 237 286 341 433
#     4  11  22  39  72  94 142 182 234 272 363 430
#
# _framework density 23.252455999999999
#
# number of rings (size 3 to 8) (size 9 to 14) (size 15 to 20)
#    1.091    0.727    1.818    1.091    6.364    1.818 
#    4.909    0.909    0.000    2.182    0.000    0.000 
#    0.000    0.000    0.000    0.000    0.000    0.000 
#
# Total GULP energy -491367.558725 kJ/mol
# GULP energy per Si atom -5583.722258 kJ/mol
# Density = 2.319953 g / cm^3
# Si number density = 23.252456 Si / 1000 Ang^3
#
#
#
# Elastic Constant Matrix: (Units=GPa)
#
#
# Indices 1 2 3 4 5 6 
#
# 1 38.7741 30.7085 15.3222 0.0000 0.0000 0.0000
# 2 30.7085 38.7716 15.3222 0.0000 0.0000 0.0000
# 3 15.3222 15.3222 110.9722 0.0000 0.0000 0.0000
# 4 0.0000 0.0000 0.0000 11.7727 0.0000 0.0000
# 5 0.0000 0.0000 0.0000 0.0000 11.7702 0.0000
# 6 0.0000 0.0000 0.0000 0.0000 0.0000 -21.2668
#
#
#
# Elastic Compliance Matrix: (Units=1/GPa)
#
#
# Indices 1 2 3 4 5 6 
#
# 1 0.069662 -0.054339 -0.002116 0.000000 0.000000 0.000000
# 2 -0.054339 0.069667 -0.002116 0.000000 0.000000 0.000000
# 3 -0.002116 -0.002116 0.009596 0.000000 0.000000 0.000000
# 4 0.000000 0.000000 0.000000 0.084943 0.000000 0.000000
# 5 0.000000 0.000000 0.000000 0.000000 0.084961 0.000000
# 6 0.000000 0.000000 0.000000 0.000000 0.000000 -0.047022
#
#
# Mechanical properties :
#
#
# Convention : Reuss Voigt Hill
#
# Bulk Modulus (GPa) = 31.46370 34.58042 33.02206
# Shear Modulus (GPa) = 12.51433 8.93286 10.72360
#
# Velocity S-wave (km/s) = 2.32242 1.96215 2.14984
# Velocity P-wave (km/s) = 4.55546 4.47631 4.51606
#
# Compressibility (1/GPa) = 0.03178266
#
# Stress axis : x y z
#
# Youngs Moduli (GPa) = 14.35504 14.35404 104.21448
#
# Poissons Ratio (x) = 0.77998 0.22049
# Poissons Ratio (y) = 0.78004 0.22056
# Poissons Ratio (z) = 0.03037 0.03038
#
# Static dielectric constant tensor:
#      x y z
#    x 1.901190 0.000000 0.000000 
#    y 0.000000 1.901190 0.000000 
#    z 0.000000 0.000000 1.840740 
# 
# From -- ./inp_files/5596.got.cif
#   From: 2010.05.17/outbox.cif.g08.bks.cpg/sg142_3_cif.got.tgz:5596.got - 2010.05.20 13:39:18.
