data_PCOD9573011
_publ_section_title
;
Structure prediction by ZEFSAII (Michael W. Deem and Ramdas Pophale) SiO2 
 PCOD9573011
Probable space group: I 41/A M D
;
_chemical_formula_sum "Si O2"
_cell_formula_units_Z 176
_cell_length_a 18.338413
_cell_length_b 18.338413
_cell_length_c 28.001991
_cell_angle_alpha 90.000000
_cell_angle_beta 90.000000
_cell_angle_gamma 90.000000
_cell_volume 9416.996526
_symmetry_space_group_name_H-M "I 41/A M D"
_symmetry_group_IT_number 141
_space_group.IT_coordinate_system_code '2'
_symmetry_cell_setting 'tetragonal'
loop_
_space_group_symop_operation_xyz
x,y,z
1/4-y,3/4+x,1/4+z
-x,1/2-y,z
1/4+y,1/4-x,3/4+z
x,-y,-z
-x,1/2+y,-z
1/4+y,3/4+x,1/4-z
1/4-y,1/4-x,3/4-z
-x,-y,-z
3/4+y,1/4-x,3/4-z
x,1/2+y,-z
3/4-y,3/4+x,1/4-z
-x,y,z
x,1/2-y,z
3/4-y,1/4-x,3/4+z
3/4+y,3/4+x,1/4+z
1/2+x,1/2+y,1/2+z
3/4-y,1/4+x,3/4+z
1/2-x,-y,1/2+z
3/4+y,3/4-x,1/4+z
1/2+x,1/2-y,1/2-z
1/2-x,y,1/2-z
3/4+y,1/4+x,3/4-z
3/4-y,3/4-x,1/4-z
1/2-x,1/2-y,1/2-z
1/4+y,3/4-x,1/4-z
1/2+x,y,1/2-z
1/4-y,1/4+x,3/4-z
1/2-x,1/2+y,1/2+z
1/2+x,-y,1/2+z
1/4-y,3/4-x,1/4+z
1/4+y,1/4+x,3/4+z
loop_
_atom_site_type_symbol
_atom_site_label
_atom_site_fract_x
_atom_site_fract_y
_atom_site_fract_z
Si Si1 0.795756 0.836992 0.540454
Si Si2 0.722689 0.834489 0.304106
Si Si3 0.082158 0.162308 0.537311
Si Si4 0.636330 0.556216 0.642882
Si Si5 0.701011 0.451011 0.125000
Si Si6 0.916913 0.068970 0.789436
O O1 0.802393 0.750000 0.549416
O O2 0.861365 0.859656 0.504455
O O3 0.799588 0.884514 0.587984
O O4 0.720056 0.848125 0.511528
O O5 0.715686 0.750000 0.318124
O O6 0.750000 0.838199 0.250000
O O7 0.781509 0.871967 0.338893
O O8 0.644652 0.874212 0.304780
O O9 0.081212 0.250000 0.536754
O O10 0.115471 0.138166 0.588049
O O11 0.000000 0.135488 0.529803
O O12 0.722144 0.549623 0.652756
O O13 0.590997 0.497877 0.673659
O O14 0.000000 0.096664 0.789790
#
# Coordination Sequence:
#
# PCOD9573011 Si02
#       6
#    32  32  32  32  16  32
#     4   9  21  38  56  83 117 151 193 240 291 349
#     4  11  22  36  56  83 115 146 183 233 287 345
#     4   9  19  38  62  84 113 155 198 243 294 347
#     4  11  21  36  56  85 112 146 194 238 280 346
#     4  12  22  34  58  85 117 158 190 238 300 354
#     4  10  20  37  59  79 110 151 190 236 284 338
#
# _framework density 18.689610999999999
#
# number of rings (size 3 to 8) (size 9 to 14) (size 15 to 20)
#    0.000    1.818    1.818    3.818    0.000    4.000 
#    0.000    1.818    0.000    3.273    0.000    0.000 
#    0.000    0.000    0.000    0.000    0.000    0.000 
#
# Total GULP energy -490955.583707 kJ/mol
# GULP energy per Si atom -5579.040724 kJ/mol
# Density = 1.864707 g / cm^3
# Si number density = 18.689611 Si / 1000 Ang^3
#
#
#
# Elastic Constant Matrix: (Units=GPa)
#
#
# Indices 1 2 3 4 5 6 
#
# 1 63.2238 19.9410 13.2765 0.0000 0.0000 0.0000
# 2 19.9410 63.2238 13.2765 0.0000 0.0000 0.0000
# 3 13.2765 13.2765 74.5414 0.0000 0.0000 0.0000
# 4 0.0000 0.0000 0.0000 22.0237 0.0000 0.0000
# 5 0.0000 0.0000 0.0000 0.0000 22.0237 0.0000
# 6 0.0000 0.0000 0.0000 0.0000 0.0000 26.3440
#
#
#
# Elastic Compliance Matrix: (Units=1/GPa)
#
#
# Indices 1 2 3 4 5 6 
#
# 1 0.017927 -0.005177 -0.002271 0.000000 0.000000 0.000000
# 2 -0.005177 0.017927 -0.002271 0.000000 0.000000 0.000000
# 3 -0.002271 -0.002271 0.014224 0.000000 0.000000 0.000000
# 4 0.000000 0.000000 0.000000 0.045406 0.000000 0.000000
# 5 0.000000 0.000000 0.000000 0.000000 0.045406 0.000000
# 6 0.000000 0.000000 0.000000 0.000000 0.000000 0.037959
#
#
# Mechanical properties :
#
#
# Convention : Reuss Voigt Hill
#
# Bulk Modulus (GPa) = 32.63726 32.66412 32.65069
# Shear Modulus (GPa) = 23.98094 24.37795 24.17945
#
# Velocity S-wave (km/s) = 3.58595 3.61551 3.60076
# Velocity P-wave (km/s) = 5.88609 5.91137 5.89874
#
# Compressibility (1/GPa) = 0.03063983
#
# Stress axis : x y z
#
# Youngs Moduli (GPa) = 55.78308 55.78308 70.30245
#
# Poissons Ratio (x) = 0.28880 0.15964
# Poissons Ratio (y) = 0.28880 0.15964
# Poissons Ratio (z) = 0.12667 0.12667
#
# Static dielectric constant tensor:
#      x y z
#    x 1.645900 0.000000 0.000000 
#    y 0.000000 1.645900 0.000000 
#    z 0.000000 0.000000 1.668770 
# 
# From -- ./inp_files/12854.got.cif
#   From: 2010.05.17/outbox.cif.g08.bks.cpg/sg141_7_cif.got.tgz:12854.got - 2010.05.20 13:30:51.
