data_PCOD9573659
_publ_section_title
;
Structure prediction by ZEFSAII (Michael W. Deem and Ramdas Pophale) SiO2 
 PCOD9573659
Probable space group: I 41/A C D
;
_chemical_formula_sum "Si O2"
_cell_formula_units_Z 160
_cell_length_a 16.408857
_cell_length_b 16.408857
_cell_length_c 30.057094
_cell_angle_alpha 90.000000
_cell_angle_beta 90.000000
_cell_angle_gamma 90.000000
_cell_volume 8092.890234
_symmetry_space_group_name_H-M "I 41/A C D"
_symmetry_group_IT_number 142
_space_group.IT_coordinate_system_code '2'
_symmetry_cell_setting 'tetragonal'
loop_
_space_group_symop_operation_xyz
x,y,z
1/4-y,3/4+x,1/4+z
-x,1/2-y,z
1/4+y,1/4-x,3/4+z
x,-y,1/2-z
1/2-x,y,-z
3/4+y,1/4+x,1/4-z
1/4-y,1/4-x,1/4-z
-x,-y,-z
3/4+y,1/4-x,3/4-z
x,1/2+y,-z
3/4-y,3/4+x,1/4-z
-x,y,1/2+z
1/2+x,-y,z
1/4-y,3/4-x,3/4+z
3/4+y,3/4+x,3/4+z
1/2+x,1/2+y,1/2+z
3/4-y,1/4+x,3/4+z
1/2-x,-y,1/2+z
3/4+y,3/4-x,1/4+z
1/2+x,1/2-y,-z
-x,1/2+y,1/2-z
1/4+y,3/4+x,3/4-z
3/4-y,3/4-x,3/4-z
1/2-x,1/2-y,1/2-z
1/4+y,3/4-x,1/4-z
1/2+x,y,1/2-z
1/4-y,1/4+x,3/4-z
1/2-x,1/2+y,z
x,1/2-y,1/2+z
3/4-y,1/4-x,1/4+z
1/4+y,1/4+x,1/4+z
loop_
_atom_site_type_symbol
_atom_site_label
_atom_site_fract_x
_atom_site_fract_y
_atom_site_fract_z
Si Si1 0.449333 0.358628 0.609025
Si Si2 0.448545 0.565609 0.471604
Si Si3 0.217159 0.595738 0.141663
Si Si4 0.067001 0.822702 0.947983
Si Si5 0.839843 0.771231 0.879600
O O1 0.519130 0.341156 0.645774
O O2 0.492326 0.393660 0.565450
O O3 0.376001 0.413566 0.626835
O O4 0.500000 0.500000 0.500000
O O5 0.372339 0.529564 0.443557
O O6 0.419010 0.634666 0.505449
O O7 0.270568 0.520568 0.125000
O O8 0.258445 0.676542 0.119899
O O9 0.142930 0.781574 0.923098
O O10 0.000000 0.750000 0.952097
O O11 0.033206 0.891920 0.913827
O O12 0.911241 0.838760 0.875000
#
# Coordination Sequence:
#
# PCOD9573659 Si02
#       5
#    32  32  32  32  32
#     4   9  21  40  62  89 122 169 215 257 316 386
#     4  11  21  36  62  94 118 163 223 267 311 381
#     4  10  20  38  61  87 129 172 200 255 335 390
#     4   9  17  29  56  91 120 159 213 266 301 376
#     4   8  15  31  53  87 125 162 202 251 325 375
#
# _framework density 19.770440000000001
#
# number of rings (size 3 to 8) (size 9 to 14) (size 15 to 20)
#    0.000    2.600    2.000    1.200    5.600    0.000 
#    0.000    5.000    0.000    7.200    0.000    0.000 
#    0.000    0.000    0.000    0.000    0.000    0.000 
#
# Total GULP energy -445702.037253 kJ/mol
# GULP energy per Si atom -5571.275466 kJ/mol
# Density = 1.972544 g / cm^3
# Si number density = 19.770440 Si / 1000 Ang^3
#
#
#
# Elastic Constant Matrix: (Units=GPa)
#
#
# Indices 1 2 3 4 5 6 
#
# 1 82.2312 20.7989 43.1453 0.0000 0.0000 0.0000
# 2 20.7989 82.2315 43.1452 0.0000 0.0000 0.0000
# 3 43.1453 43.1452 121.2509 0.0000 0.0000 0.0000
# 4 0.0000 0.0000 0.0000 25.9248 0.0000 0.0000
# 5 0.0000 0.0000 0.0000 0.0000 25.9249 0.0000
# 6 0.0000 0.0000 0.0000 0.0000 0.0000 22.0101
#
#
#
# Elastic Compliance Matrix: (Units=1/GPa)
#
#
# Indices 1 2 3 4 5 6 
#
# 1 0.015052 -0.001226 -0.004920 0.000000 0.000000 0.000000
# 2 -0.001226 0.015052 -0.004920 0.000000 0.000000 0.000000
# 3 -0.004920 -0.004920 0.011749 0.000000 0.000000 0.000000
# 4 0.000000 0.000000 0.000000 0.038573 0.000000 0.000000
# 5 0.000000 0.000000 0.000000 0.000000 0.038573 0.000000
# 6 0.000000 0.000000 0.000000 0.000000 0.000000 0.045434
#
#
# Mechanical properties :
#
#
# Convention : Reuss Voigt Hill
#
# Bulk Modulus (GPa) = 50.70502 55.54361 53.12432
# Shear Modulus (GPa) = 25.88817 26.68022 26.28419
#
# Velocity S-wave (km/s) = 3.62254 3.67754 3.65014
# Velocity P-wave (km/s) = 6.57264 6.79615 6.68533
#
# Compressibility (1/GPa) = 0.01972191
#
# Stress axis : x y z
#
# Youngs Moduli (GPa) = 66.43509 66.43539 85.11554
#
# Poissons Ratio (x) = 0.08144 0.41876
# Poissons Ratio (y) = 0.08144 0.41876
# Poissons Ratio (z) = 0.32686 0.32686
#
# Static dielectric constant tensor:
#      x y z
#    x 1.746940 0.000000 0.000000 
#    y 0.000000 1.746940 0.000000 
#    z 0.000000 0.000000 1.682730 
# 
# From -- ./inp_files/11301.got.cif
#   From: 2010.05.17/outbox.cif.g08.bks.cpg/sg142_6_cif.got.tgz:11301.got - 2010.05.20 13:39:18.
