data_PCOD9573784
_publ_section_title
;
Structure prediction by ZEFSAII (Michael W. Deem and Ramdas Pophale) SiO2 
 PCOD9573784
Probable space group: I 41/A C D
;
_chemical_formula_sum "Si O2"
_cell_formula_units_Z 112
_cell_length_a 32.110181
_cell_length_b 32.110181
_cell_length_c 4.910172
_cell_angle_alpha 90.000000
_cell_angle_beta 90.000000
_cell_angle_gamma 90.000000
_cell_volume 5062.700227
_symmetry_space_group_name_H-M "I 41/A C D"
_symmetry_group_IT_number 142
_space_group.IT_coordinate_system_code '2'
_symmetry_cell_setting 'tetragonal'
loop_
_space_group_symop_operation_xyz
x,y,z
1/4-y,3/4+x,1/4+z
-x,1/2-y,z
1/4+y,1/4-x,3/4+z
x,-y,1/2-z
1/2-x,y,-z
3/4+y,1/4+x,1/4-z
1/4-y,1/4-x,1/4-z
-x,-y,-z
3/4+y,1/4-x,3/4-z
x,1/2+y,-z
3/4-y,3/4+x,1/4-z
-x,y,1/2+z
1/2+x,-y,z
1/4-y,3/4-x,3/4+z
3/4+y,3/4+x,3/4+z
1/2+x,1/2+y,1/2+z
3/4-y,1/4+x,3/4+z
1/2-x,-y,1/2+z
3/4+y,3/4-x,1/4+z
1/2+x,1/2-y,-z
-x,1/2+y,1/2-z
1/4+y,3/4+x,3/4-z
3/4-y,3/4-x,3/4-z
1/2-x,1/2-y,1/2-z
1/4+y,3/4-x,1/4-z
1/2+x,y,1/2-z
1/4-y,1/4+x,3/4-z
1/2-x,1/2+y,z
x,1/2-y,1/2+z
3/4-y,1/4-x,1/4+z
1/4+y,1/4+x,1/4+z
loop_
_atom_site_type_symbol
_atom_site_label
_atom_site_fract_x
_atom_site_fract_y
_atom_site_fract_z
Si Si1 0.910124 0.777378 0.510712
Si Si2 0.188576 0.777549 0.017923
Si Si3 0.401194 0.500000 0.750000
Si Si4 0.791628 0.582406 0.617167
O O1 0.935025 0.814976 0.375000
O O2 0.919727 0.761998 0.814138
O O3 0.860788 0.786018 0.515407
O O4 0.198435 0.760742 0.718072
O O5 0.214143 0.817829 0.104770
O O6 0.374303 0.522447 0.511967
O O7 0.750000 0.562390 0.500000
O O8 0.826419 0.576419 0.375000
O O9 0.809213 0.559213 0.875000
#
# Coordination Sequence:
#
# PCOD9573784 Si02
#       4
#    32  32  16  32
#     4  10  21  39  61  94 131 173 219 270 333 400
#     4  10  24  42  68  98 134 179 226 279 343 406
#     4  12  26  44  74  96 138 174 234 284 346 430
#     4  12  26  47  67  99 131 172 224 281 347 413
#
# _framework density 22.122579999999999
#
# number of rings (size 3 to 8) (size 9 to 14) (size 15 to 20)
#    0.000    1.143    2.857    1.714    4.000    4.000 
#    2.571    0.000    0.000    0.000    0.000    0.000 
#    0.000    0.000    0.000    0.000    0.000    0.000 
#
# Total GULP energy -312215.595858 kJ/mol
# GULP energy per Si atom -5575.278497 kJ/mol
# Density = 2.207223 g / cm^3
# Si number density = 22.122580 Si / 1000 Ang^3
#
#
#
# Elastic Constant Matrix: (Units=GPa)
#
#
# Indices 1 2 3 4 5 6 
#
# 1 95.0367 82.7442 30.8800 0.0000 0.0000 0.0000
# 2 82.7442 95.0256 30.8827 0.0000 0.0000 0.0000
# 3 30.8800 30.8827 119.9855 0.0000 0.0000 0.0000
# 4 0.0000 0.0000 0.0000 17.6710 0.0000 0.0000
# 5 0.0000 0.0000 0.0000 0.0000 17.6712 0.0000
# 6 0.0000 0.0000 0.0000 0.0000 0.0000 -15.9154
#
#
#
# Elastic Compliance Matrix: (Units=1/GPa)
#
#
# Indices 1 2 3 4 5 6 
#
# 1 0.043779 -0.037605 -0.001588 0.000000 0.000000 0.000000
# 2 -0.037605 0.043786 -0.001592 0.000000 0.000000 0.000000
# 3 -0.001588 -0.001592 0.009153 0.000000 0.000000 0.000000
# 4 0.000000 0.000000 0.000000 0.056590 0.000000 0.000000
# 5 0.000000 0.000000 0.000000 0.000000 0.056589 0.000000
# 6 0.000000 0.000000 0.000000 0.000000 0.000000 -0.062832
#
#
# Mechanical properties :
#
#
# Convention : Reuss Voigt Hill
#
# Bulk Modulus (GPa) = 66.01552 66.56240 66.28896
# Shear Modulus (GPa) = 21.39645 14.92142 18.15893
#
# Velocity S-wave (km/s) = 3.11332 2.59991 2.86813
# Velocity P-wave (km/s) = 6.54441 6.25828 6.40294
#
# Compressibility (1/GPa) = 0.01514795
#
# Stress axis : x y z
#
# Youngs Moduli (GPa) = 22.84182 22.83855 109.25674
#
# Poissons Ratio (x) = 0.85884 0.17352
# Poissons Ratio (y) = 0.85897 0.17390
# Poissons Ratio (z) = 0.03628 0.03635
#
# Static dielectric constant tensor:
#      x y z
#    x 1.845350 0.000000 0.000000 
#    y 0.000000 1.845360 0.000000 
#    z 0.000000 0.000000 1.806060 
# 
# From -- ./inp_files/720.got.cif
#   From: 2010.05.17/outbox.cif.g08.bks.cpg/sg142_1_cif.got.tgz:720.got - 2010.05.20 13:39:18.
