data_PCOD9573127
_publ_section_title
;
Structure prediction by ZEFSAII (Michael W. Deem and Ramdas Pophale) SiO2 
 PCOD9573127
Probable space group: I 41/A M D
;
_chemical_formula_sum "Si O2"
_cell_formula_units_Z 80
_cell_length_a 11.710057
_cell_length_b 11.710057
_cell_length_c 26.158543
_cell_angle_alpha 90.000000
_cell_angle_beta 90.000000
_cell_angle_gamma 90.000000
_cell_volume 3587.001586
_symmetry_space_group_name_H-M "I 41/A M D"
_symmetry_group_IT_number 141
_space_group.IT_coordinate_system_code '2'
_symmetry_cell_setting 'tetragonal'
loop_
_space_group_symop_operation_xyz
x,y,z
1/4-y,3/4+x,1/4+z
-x,1/2-y,z
1/4+y,1/4-x,3/4+z
x,-y,-z
-x,1/2+y,-z
1/4+y,3/4+x,1/4-z
1/4-y,1/4-x,3/4-z
-x,-y,-z
3/4+y,1/4-x,3/4-z
x,1/2+y,-z
3/4-y,3/4+x,1/4-z
-x,y,z
x,1/2-y,z
3/4-y,1/4-x,3/4+z
3/4+y,3/4+x,1/4+z
1/2+x,1/2+y,1/2+z
3/4-y,1/4+x,3/4+z
1/2-x,-y,1/2+z
3/4+y,3/4-x,1/4+z
1/2+x,1/2-y,1/2-z
1/2-x,y,1/2-z
3/4+y,1/4+x,3/4-z
3/4-y,3/4-x,1/4-z
1/2-x,1/2-y,1/2-z
1/4+y,3/4-x,1/4-z
1/2+x,y,1/2-z
1/4-y,1/4+x,3/4-z
1/2-x,1/2+y,1/2+z
1/2+x,-y,1/2+z
1/4-y,3/4-x,1/4+z
1/4+y,1/4+x,3/4+z
loop_
_atom_site_type_symbol
_atom_site_label
_atom_site_fract_x
_atom_site_fract_y
_atom_site_fract_z
Si Si1 0.132888 0.250000 0.216157
Si Si2 0.124948 0.936590 0.871570
Si Si3 0.623539 0.616994 0.236592
O O1 0.250000 0.250000 0.250000
O O2 0.138404 0.142997 0.177507
O O3 0.000000 0.250000 0.238698
O O4 0.132608 0.870386 0.925167
O O5 0.000000 0.990080 0.870411
O O6 0.219171 0.030830 0.875000
O O7 0.500000 0.567663 0.254128
O O8 0.625924 0.750000 0.254047
O O9 0.750000 0.568295 0.250000
#
# Coordination Sequence:
#
# PCOD9573127 Si02
#       3
#    16  32  32
#     4  10  22  46  72  98 138 190 250 308 363 432
#     4  10  21  39  63  93 135 180 222 285 360 422
#     4   9  17  32  56  86 123 170 217 263 332 419
#
# _framework density 22.30275
#
# number of rings (size 3 to 8) (size 9 to 14) (size 15 to 20)
#    0.000    2.400    2.000    0.000    0.000    3.600 
#    3.600    8.000    0.000    0.000    0.000    0.000 
#    0.000    0.000    0.000    0.000    0.000    0.000 
#
# Total GULP energy -222929.071032 kJ/mol
# GULP energy per Si atom -5573.226776 kJ/mol
# Density = 2.225199 g / cm^3
# Si number density = 22.302750 Si / 1000 Ang^3
#
#
#
# Elastic Constant Matrix: (Units=GPa)
#
#
# Indices 1 2 3 4 5 6 
#
# 1 157.1997 60.6553 28.9930 0.0000 0.0000 0.0000
# 2 60.6553 157.2083 28.9960 0.0000 0.0000 0.0000
# 3 28.9930 28.9960 89.5086 0.0000 0.0000 0.0000
# 4 0.0000 0.0000 0.0000 30.5968 0.0000 0.0000
# 5 0.0000 0.0000 0.0000 0.0000 30.5964 0.0000
# 6 0.0000 0.0000 0.0000 0.0000 0.0000 -4.6175
#
#
#
# Elastic Compliance Matrix: (Units=1/GPa)
#
#
# Indices 1 2 3 4 5 6 
#
# 1 0.007691 -0.002667 -0.001627 0.000000 0.000000 0.000000
# 2 -0.002667 0.007690 -0.001627 0.000000 0.000000 0.000000
# 3 -0.001627 -0.001627 0.012226 0.000000 0.000000 0.000000
# 4 0.000000 0.000000 0.000000 0.032683 0.000000 0.000000
# 5 0.000000 0.000000 0.000000 0.000000 0.032684 0.000000
# 6 0.000000 0.000000 0.000000 0.000000 0.000000 -0.216566
#
#
# Mechanical properties :
#
#
# Convention : Reuss Voigt Hill
#
# Bulk Modulus (GPa) = 63.43542 71.24500 67.34021
# Shear Modulus (GPa) = -46.95074 30.33328 -8.30873
#
# Velocity S-wave (km/s) = -4.59317 3.69191 -1.93223
# Velocity P-wave (km/s) = 0.61234 7.08431 5.02804
#
# Compressibility (1/GPa) = 0.01576406
#
# Stress axis : x y z
#
# Youngs Moduli (GPa) = 130.03018 130.03599 81.79096
#
# Poissons Ratio (x) = 0.34682 0.13308
# Poissons Ratio (y) = 0.34681 0.13310
# Poissons Ratio (z) = 0.21157 0.21161
#
# Static dielectric constant tensor:
#      x y z
#    x 2.050410 0.000000 0.000000 
#    y 0.000000 2.049050 0.000000 
#    z 0.000000 0.000000 1.859320 
# 
# From -- ./inp_files/13576.got.cif
#   From: 2010.05.17/outbox.cif.g08.bks.cpg/sg141_7_cif.got.tgz:13576.got - 2010.05.20 13:30:51.
