data_PCOD9573462
_publ_section_title
;
Structure prediction by ZEFSAII (Michael W. Deem and Ramdas Pophale) SiO2 
 PCOD9573462
Probable space group: I 41/A C D
;
_chemical_formula_sum "Si O2"
_cell_formula_units_Z 128
_cell_length_a 16.561852
_cell_length_b 16.561852
_cell_length_c 21.952075
_cell_angle_alpha 90.000000
_cell_angle_beta 90.000000
_cell_angle_gamma 90.000000
_cell_volume 6021.343132
_symmetry_space_group_name_H-M "I 41/A C D"
_symmetry_group_IT_number 142
_space_group.IT_coordinate_system_code '2'
_symmetry_cell_setting 'tetragonal'
loop_
_space_group_symop_operation_xyz
x,y,z
1/4-y,3/4+x,1/4+z
-x,1/2-y,z
1/4+y,1/4-x,3/4+z
x,-y,1/2-z
1/2-x,y,-z
3/4+y,1/4+x,1/4-z
1/4-y,1/4-x,1/4-z
-x,-y,-z
3/4+y,1/4-x,3/4-z
x,1/2+y,-z
3/4-y,3/4+x,1/4-z
-x,y,1/2+z
1/2+x,-y,z
1/4-y,3/4-x,3/4+z
3/4+y,3/4+x,3/4+z
1/2+x,1/2+y,1/2+z
3/4-y,1/4+x,3/4+z
1/2-x,-y,1/2+z
3/4+y,3/4-x,1/4+z
1/2+x,1/2-y,-z
-x,1/2+y,1/2-z
1/4+y,3/4+x,3/4-z
3/4-y,3/4-x,3/4-z
1/2-x,1/2-y,1/2-z
1/4+y,3/4-x,1/4-z
1/2+x,y,1/2-z
1/4-y,1/4+x,3/4-z
1/2-x,1/2+y,z
x,1/2-y,1/2+z
3/4-y,1/4-x,1/4+z
1/4+y,1/4+x,1/4+z
loop_
_atom_site_type_symbol
_atom_site_label
_atom_site_fract_x
_atom_site_fract_y
_atom_site_fract_z
Si Si1 0.211325 0.999475 0.562762
Si Si2 0.066637 0.317408 0.955084
Si Si3 0.556240 0.940040 0.697102
Si Si4 0.801383 0.213136 0.848936
O O1 0.250000 0.971832 0.500000
O O2 0.122484 0.962257 0.567039
O O3 0.262428 0.987573 0.625000
O O4 0.205317 0.097499 0.560680
O O5 0.135432 0.303981 0.904116
O O6 0.000000 0.250000 0.944693
O O7 0.028703 0.405908 0.943723
O O8 0.103172 0.302889 0.021978
O O9 0.525272 0.000000 0.750000
O O10 0.516189 0.967802 0.633969
#
# Coordination Sequence:
#
# PCOD9573462 Si02
#       4
#    32  32  32  32
#     4   9  18  36  59  86 118 154 205 258 300 363
#     4  11  19  35  55  86 123 158 208 250 304 381
#     4   8  18  33  55  79 111 158 195 248 306 352
#     4  10  18  34  56  83 119 158 203 252 304 366
#
# _framework density 21.257715000000001
#
# number of rings (size 3 to 8) (size 9 to 14) (size 15 to 20)
#    0.000    2.500    2.500    1.500    0.000    1.000 
#    4.500    0.000    0.000    6.750    0.000    0.000 
#    0.000    0.000    0.000    0.000    0.000    0.000 
#
# Total GULP energy -356709.578916 kJ/mol
# GULP energy per Si atom -5573.587171 kJ/mol
# Density = 2.120933 g / cm^3
# Si number density = 21.257715 Si / 1000 Ang^3
#
#
#
# Elastic Constant Matrix: (Units=GPa)
#
#
# Indices 1 2 3 4 5 6 
#
# 1 41.6529 19.6130 27.8945 0.0000 0.0000 0.0000
# 2 19.6130 41.6537 27.8947 0.0000 0.0000 0.0000
# 3 27.8945 27.8947 99.8755 0.0000 0.0000 0.0000
# 4 0.0000 0.0000 0.0000 9.6219 0.0000 0.0000
# 5 0.0000 0.0000 0.0000 0.0000 9.6217 0.0000
# 6 0.0000 0.0000 0.0000 0.0000 0.0000 28.9507
#
#
#
# Elastic Compliance Matrix: (Units=1/GPa)
#
#
# Indices 1 2 3 4 5 6 
#
# 1 0.033631 -0.011741 -0.006114 0.000000 0.000000 0.000000
# 2 -0.011741 0.033630 -0.006113 0.000000 0.000000 0.000000
# 3 -0.006114 -0.006113 0.013427 0.000000 0.000000 0.000000
# 4 0.000000 0.000000 0.000000 0.103929 0.000000 0.000000
# 5 0.000000 0.000000 0.000000 0.000000 0.103932 0.000000
# 6 0.000000 0.000000 0.000000 0.000000 0.000000 0.034541
#
#
# Mechanical properties :
#
#
# Convention : Reuss Voigt Hill
#
# Bulk Modulus (GPa) = 30.53280 37.10962 33.82121
# Shear Modulus (GPa) = 13.09092 16.82419 14.95756
#
# Velocity S-wave (km/s) = 2.48426 2.81631 2.65548
# Velocity P-wave (km/s) = 4.75637 5.29815 5.03455
#
# Compressibility (1/GPa) = 0.03275166
#
# Stress axis : x y z
#
# Youngs Moduli (GPa) = 29.73483 29.73540 74.47468
#
# Poissons Ratio (x) = 0.34913 0.45530
# Poissons Ratio (y) = 0.34912 0.45530
# Poissons Ratio (z) = 0.18178 0.18179
#
# Static dielectric constant tensor:
#      x y z
#    x 1.798990 0.000000 0.000000 
#    y 0.000000 1.798990 0.000000 
#    z 0.000000 0.000000 1.867140 
# 
# From -- ./inp_files/10012.got.cif
#   From: 2010.05.17/outbox.cif.g08.bks.cpg/sg142_6_cif.got.tgz:10012.got - 2010.05.20 13:39:18.
