data_PCOD9573421
_publ_section_title
;
Structure prediction by ZEFSAII (Michael W. Deem and Ramdas Pophale) SiO2 
 PCOD9573421
Probable space group: I 41/A C D
;
_chemical_formula_sum "Si O2"
_cell_formula_units_Z 184
_cell_length_a 21.820443
_cell_length_b 21.820443
_cell_length_c 18.586839
_cell_angle_alpha 90.000000
_cell_angle_beta 90.000000
_cell_angle_gamma 90.000000
_cell_volume 8849.783859
_symmetry_space_group_name_H-M "I 41/A C D"
_symmetry_group_IT_number 142
_space_group.IT_coordinate_system_code '2'
_symmetry_cell_setting 'tetragonal'
loop_
_space_group_symop_operation_xyz
x,y,z
1/4-y,3/4+x,1/4+z
-x,1/2-y,z
1/4+y,1/4-x,3/4+z
x,-y,1/2-z
1/2-x,y,-z
3/4+y,1/4+x,1/4-z
1/4-y,1/4-x,1/4-z
-x,-y,-z
3/4+y,1/4-x,3/4-z
x,1/2+y,-z
3/4-y,3/4+x,1/4-z
-x,y,1/2+z
1/2+x,-y,z
1/4-y,3/4-x,3/4+z
3/4+y,3/4+x,3/4+z
1/2+x,1/2+y,1/2+z
3/4-y,1/4+x,3/4+z
1/2-x,-y,1/2+z
3/4+y,3/4-x,1/4+z
1/2+x,1/2-y,-z
-x,1/2+y,1/2-z
1/4+y,3/4+x,3/4-z
3/4-y,3/4-x,3/4-z
1/2-x,1/2-y,1/2-z
1/4+y,3/4-x,1/4-z
1/2+x,y,1/2-z
1/4-y,1/4+x,3/4-z
1/2-x,1/2+y,z
x,1/2-y,1/2+z
3/4-y,1/4-x,1/4+z
1/4+y,1/4+x,1/4+z
loop_
_atom_site_type_symbol
_atom_site_label
_atom_site_fract_x
_atom_site_fract_y
_atom_site_fract_z
Si Si1 0.680402 0.937043 0.891111
Si Si2 0.436998 0.414487 0.521236
Si Si3 0.750000 0.472556 0.500000
Si Si4 0.495785 0.146729 0.629860
Si Si5 0.884765 0.713108 0.464610
Si Si6 0.500000 0.750000 0.625000
Si Si7 0.603782 0.039993 0.378722
O O1 0.612250 0.925622 0.916416
O O2 0.724333 0.877717 0.896615
O O3 0.685752 0.961651 0.809752
O O4 0.707831 0.984574 0.949634
O O5 0.499054 0.400260 0.563729
O O6 0.418274 0.351733 0.480636
O O7 0.425130 0.462931 0.458407
O O8 0.556086 0.189848 0.628756
O O9 0.491314 0.118482 0.708738
O O10 0.937940 0.749557 0.422568
O O11 0.824971 0.695803 0.419581
O O12 0.665485 0.084516 0.375000
#
# Coordination Sequence:
#
# PCOD9573421 Si02
#       7
#    32  32  16  32  32   8  32
#     4  11  18  31  53  80 117 141 187 229 276 325
#     4  10  18  32  50  79 111 141 178 224 282 330
#     4  10  18  28  50  84 104 142 180 234 270 310
#     4   9  18  32  51  76 105 141 186 230 275 337
#     4  10  19  28  49  80 110 138 173 227 289 330
#     4  12  16  28  54  84 108 128 174 240 280 332
#     4  10  17  29  48  84 113 138 170 228 287 330
#
# _framework density 20.791467999999998
#
# number of rings (size 3 to 8) (size 9 to 14) (size 15 to 20)
#    0.000    1.913    6.087    3.130    0.000    0.000 
#    0.000    0.000    0.000   10.435    4.522    0.000 
#    0.000    0.000    0.000    0.000    0.000    0.000 
#
# Total GULP energy -513209.175075 kJ/mol
# GULP energy per Si atom -5578.360599 kJ/mol
# Density = 2.074415 g / cm^3
# Si number density = 20.791468 Si / 1000 Ang^3
#
#
#
# Elastic Constant Matrix: (Units=GPa)
#
#
# Indices 1 2 3 4 5 6 
#
# 1 20.9900 23.4870 26.0689 0.0000 0.0000 0.0000
# 2 23.4870 20.9901 26.0688 0.0000 0.0000 0.0000
# 3 26.0689 26.0688 137.0188 0.0000 0.0000 0.0000
# 4 0.0000 0.0000 0.0000 25.8619 0.0000 0.0000
# 5 0.0000 0.0000 0.0000 0.0000 25.8618 0.0000
# 6 0.0000 0.0000 0.0000 0.0000 0.0000 19.7056
#
#
#
# Elastic Compliance Matrix: (Units=1/GPa)
#
#
# Indices 1 2 3 4 5 6 
#
# 1 -0.185778 0.214715 -0.005505 0.000000 0.000000 0.000000
# 2 0.214715 -0.185777 -0.005506 0.000000 0.000000 0.000000
# 3 -0.005505 -0.005506 0.009393 0.000000 0.000000 0.000000
# 4 0.000000 0.000000 0.000000 0.038667 0.000000 0.000000
# 5 0.000000 0.000000 0.000000 0.000000 0.038667 0.000000
# 6 0.000000 0.000000 0.000000 0.000000 0.000000 0.050747
#
#
# Mechanical properties :
#
#
# Convention : Reuss Voigt Hill
#
# Bulk Modulus (GPa) = 22.10154 36.69425 29.39789
# Shear Modulus (GPa) = -7.98205 21.17748 6.59772
#
# Velocity S-wave (km/s) = -1.96149 3.19496 1.78330
# Velocity P-wave (km/s) = 2.35016 5.59441 4.29073
#
# Compressibility (1/GPa) = 0.04524572
#
# Stress axis : x y z
#
# Youngs Moduli (GPa) = -5.38277 -5.38281 106.45977
#
# Poissons Ratio (x) = 1.15577 0.58609
# Poissons Ratio (y) = 1.15576 0.58615
# Poissons Ratio (z) = -0.02963 -0.02964
#
# Static dielectric constant tensor:
#      x y z
#    x 1.769680 0.000000 0.000000 
#    y 0.000000 1.769680 0.000000 
#    z 0.000000 0.000000 1.794270 
# 
# From -- ./inp_files/7650.got.cif
#   From: 2010.05.17/outbox.cif.g08.bks.cpg/sg142_4_cif.got.tgz:7650.got - 2010.05.20 13:39:18.
