data_PCOD9573649
_publ_section_title
;
Structure prediction by ZEFSAII (Michael W. Deem and Ramdas Pophale) SiO2 
 PCOD9573649
Probable space group: I 41/A C D
;
_chemical_formula_sum "Si O2"
_cell_formula_units_Z 160
_cell_length_a 23.690318
_cell_length_b 23.690318
_cell_length_c 14.947152
_cell_angle_alpha 90.000000
_cell_angle_beta 90.000000
_cell_angle_gamma 90.000000
_cell_volume 8388.807559
_symmetry_space_group_name_H-M "I 41/A C D"
_symmetry_group_IT_number 142
_space_group.IT_coordinate_system_code '2'
_symmetry_cell_setting 'tetragonal'
loop_
_space_group_symop_operation_xyz
x,y,z
1/4-y,3/4+x,1/4+z
-x,1/2-y,z
1/4+y,1/4-x,3/4+z
x,-y,1/2-z
1/2-x,y,-z
3/4+y,1/4+x,1/4-z
1/4-y,1/4-x,1/4-z
-x,-y,-z
3/4+y,1/4-x,3/4-z
x,1/2+y,-z
3/4-y,3/4+x,1/4-z
-x,y,1/2+z
1/2+x,-y,z
1/4-y,3/4-x,3/4+z
3/4+y,3/4+x,3/4+z
1/2+x,1/2+y,1/2+z
3/4-y,1/4+x,3/4+z
1/2-x,-y,1/2+z
3/4+y,3/4-x,1/4+z
1/2+x,1/2-y,-z
-x,1/2+y,1/2-z
1/4+y,3/4+x,3/4-z
3/4-y,3/4-x,3/4-z
1/2-x,1/2-y,1/2-z
1/4+y,3/4-x,1/4-z
1/2+x,y,1/2-z
1/4-y,1/4+x,3/4-z
1/2-x,1/2+y,z
x,1/2-y,1/2+z
3/4-y,1/4-x,1/4+z
1/4+y,1/4+x,1/4+z
loop_
_atom_site_type_symbol
_atom_site_label
_atom_site_fract_x
_atom_site_fract_y
_atom_site_fract_z
Si Si1 0.365799 0.060168 0.711337
Si Si2 0.816764 0.746895 0.364743
Si Si3 0.250000 0.319468 0.000000
Si Si4 0.888379 0.361622 0.125000
Si Si5 0.572093 0.957244 0.454179
Si Si6 0.749167 0.591089 0.155138
O O1 0.364408 0.106782 0.787836
O O2 0.407060 0.077255 0.631058
O O3 0.303297 0.053039 0.672767
O O4 0.385046 0.000000 0.750000
O O5 0.798634 0.780530 0.454855
O O6 0.868044 0.703224 0.373990
O O7 0.759963 0.713676 0.333942
O O8 0.826024 0.788881 0.281245
O O9 0.265689 0.361507 0.081441
O O10 0.626011 0.982467 0.505317
O O11 0.696622 0.553379 0.125000
#
# Coordination Sequence:
#
# PCOD9573649 Si02
#       6
#    32  32  16  16  32  32
#     4  12  22  34  54  88 128 168 192 245 312 382
#     4  10  20  38  57  81 114 159 212 271 299 377
#     4  10  22  38  58  82 126 174 208 258 320 370
#     4  12  22  38  58  88 115 158 220 260 316 365
#     4  10  21  37  53  79 121 159 202 248 313 373
#     4  11  23  35  55  89 129 165 204 237 309 404
#
# _framework density 19.073032999999999
#
# number of rings (size 3 to 8) (size 9 to 14) (size 15 to 20)
#    0.000    1.200    4.000    2.400    5.600    0.000 
#    0.000    0.000    0.000    0.000    0.000   25.200 
#    0.000    0.000    0.000    0.000    0.000    0.000 
#
# Total GULP energy -446414.423071 kJ/mol
# GULP energy per Si atom -5580.180288 kJ/mol
# Density = 1.902962 g / cm^3
# Si number density = 19.073033 Si / 1000 Ang^3
#
#
#
# Elastic Constant Matrix: (Units=GPa)
#
#
# Indices 1 2 3 4 5 6 
#
# 1 65.7605 35.2249 42.0337 0.0000 0.0000 0.0000
# 2 35.2249 65.7590 42.0332 0.0000 0.0000 0.0000
# 3 42.0337 42.0332 129.2873 0.0000 0.0000 0.0000
# 4 0.0000 0.0000 0.0000 27.0824 0.0000 0.0000
# 5 0.0000 0.0000 0.0000 0.0000 27.0813 0.0000
# 6 0.0000 0.0000 0.0000 0.0000 0.0000 24.8853
#
#
#
# Elastic Compliance Matrix: (Units=1/GPa)
#
#
# Indices 1 2 3 4 5 6 
#
# 1 0.023163 -0.009586 -0.004414 0.000000 0.000000 0.000000
# 2 -0.009586 0.023164 -0.004414 0.000000 0.000000 0.000000
# 3 -0.004414 -0.004414 0.010605 0.000000 0.000000 0.000000
# 4 0.000000 0.000000 0.000000 0.036924 0.000000 0.000000
# 5 0.000000 0.000000 0.000000 0.000000 0.036926 0.000000
# 6 0.000000 0.000000 0.000000 0.000000 0.000000 0.040184
#
#
# Mechanical properties :
#
#
# Convention : Reuss Voigt Hill
#
# Bulk Modulus (GPa) = 49.74475 55.48782 52.61628
# Shear Modulus (GPa) = 23.31045 25.24412 24.27729
#
# Velocity S-wave (km/s) = 3.49974 3.64201 3.57159
# Velocity P-wave (km/s) = 6.51681 6.84406 6.68243
#
# Compressibility (1/GPa) = 0.02010262
#
# Stress axis : x y z
#
# Youngs Moduli (GPa) = 43.17220 43.17123 94.29561
#
# Poissons Ratio (x) = 0.41385 0.41623
# Poissons Ratio (y) = 0.41386 0.41624
# Poissons Ratio (z) = 0.19057 0.19057
#
# Static dielectric constant tensor:
#      x y z
#    x 1.666020 0.000000 0.000000 
#    y 0.000000 1.666030 0.000000 
#    z 0.000000 0.000000 1.701370 
# 
# From -- ./inp_files/5484.got.cif
#   From: 2010.05.17/outbox.cif.g08.bks.cpg/sg142_3_cif.got.tgz:5484.got - 2010.05.20 13:39:18.
