data_PCOD9573796
_publ_section_title
;
Structure prediction by ZEFSAII (Michael W. Deem and Ramdas Pophale) SiO2 
 PCOD9573796
Probable space group: I 41/A C D
;
_chemical_formula_sum "Si O2"
_cell_formula_units_Z 112
_cell_length_a 12.801369
_cell_length_b 12.801369
_cell_length_c 31.479154
_cell_angle_alpha 90.000000
_cell_angle_beta 90.000000
_cell_angle_gamma 90.000000
_cell_volume 5158.647881
_symmetry_space_group_name_H-M "I 41/A C D"
_symmetry_group_IT_number 142
_space_group.IT_coordinate_system_code '2'
_symmetry_cell_setting 'tetragonal'
loop_
_space_group_symop_operation_xyz
x,y,z
1/4-y,3/4+x,1/4+z
-x,1/2-y,z
1/4+y,1/4-x,3/4+z
x,-y,1/2-z
1/2-x,y,-z
3/4+y,1/4+x,1/4-z
1/4-y,1/4-x,1/4-z
-x,-y,-z
3/4+y,1/4-x,3/4-z
x,1/2+y,-z
3/4-y,3/4+x,1/4-z
-x,y,1/2+z
1/2+x,-y,z
1/4-y,3/4-x,3/4+z
3/4+y,3/4+x,3/4+z
1/2+x,1/2+y,1/2+z
3/4-y,1/4+x,3/4+z
1/2-x,-y,1/2+z
3/4+y,3/4-x,1/4+z
1/2+x,1/2-y,-z
-x,1/2+y,1/2-z
1/4+y,3/4+x,3/4-z
3/4-y,3/4-x,3/4-z
1/2-x,1/2-y,1/2-z
1/4+y,3/4-x,1/4-z
1/2+x,y,1/2-z
1/4-y,1/4+x,3/4-z
1/2-x,1/2+y,z
x,1/2-y,1/2+z
3/4-y,1/4-x,1/4+z
1/4+y,1/4+x,1/4+z
loop_
_atom_site_type_symbol
_atom_site_label
_atom_site_fract_x
_atom_site_fract_y
_atom_site_fract_z
Si Si1 0.976818 0.079124 0.872785
Si Si2 0.299573 0.315370 0.711835
Si Si3 0.000000 0.750000 0.258475
Si Si4 0.695174 0.861401 0.044602
O O1 0.890416 0.166342 0.885647
O O2 0.994363 0.025064 0.918004
O O3 0.932562 0.008984 0.834722
O O4 0.250000 0.250000 0.750000
O O5 0.419764 0.310534 0.726936
O O6 0.236461 0.423135 0.705321
O O7 0.943503 0.666627 0.288639
O O8 0.750000 0.838399 0.000000
#
# Coordination Sequence:
#
# PCOD9573796 Si02
#       4
#    32  32  16  32
#     4  11  22  40  66  95 130 173 221 271 329 397
#     4  10  21  40  62  89 125 165 213 271 330 396
#     4  10  22  44  68  92 132 174 216 278 336 394
#     4  11  23  40  65  97 131 175 223 271 334 399
#
# _framework density 21.711116000000001
#
# number of rings (size 3 to 8) (size 9 to 14) (size 15 to 20)
#    0.000    1.429    0.000    7.714    0.000    3.429 
#    0.000   17.143    0.000    0.000    0.000    0.000 
#    0.000    0.000    0.000    0.000    0.000    0.000 
#
# Total GULP energy -312170.425228 kJ/mol
# GULP energy per Si atom -5574.471879 kJ/mol
# Density = 2.166170 g / cm^3
# Si number density = 21.711116 Si / 1000 Ang^3
#
#
#
# Elastic Constant Matrix: (Units=GPa)
#
#
# Indices 1 2 3 4 5 6 
#
# 1 101.7687 51.5512 48.0277 0.0000 0.0000 0.0000
# 2 51.5512 101.7687 48.0277 0.0000 0.0000 0.0000
# 3 48.0277 48.0277 176.3720 0.0000 0.0000 0.0000
# 4 0.0000 0.0000 0.0000 36.5316 0.0000 0.0000
# 5 0.0000 0.0000 0.0000 0.0000 36.5316 0.0000
# 6 0.0000 0.0000 0.0000 0.0000 0.0000 45.9311
#
#
#
# Elastic Compliance Matrix: (Units=1/GPa)
#
#
# Indices 1 2 3 4 5 6 
#
# 1 0.013889 -0.006025 -0.002141 0.000000 0.000000 0.000000
# 2 -0.006025 0.013889 -0.002141 0.000000 0.000000 0.000000
# 3 -0.002141 -0.002141 0.006836 0.000000 0.000000 0.000000
# 4 0.000000 0.000000 0.000000 0.027374 0.000000 0.000000
# 5 0.000000 0.000000 0.000000 0.000000 0.027374 0.000000
# 6 0.000000 0.000000 0.000000 0.000000 0.000000 0.021772
#
#
# Mechanical properties :
#
#
# Convention : Reuss Voigt Hill
#
# Bulk Modulus (GPa) = 71.43748 75.01362 73.22555
# Shear Modulus (GPa) = 36.65328 39.28571 37.96949
#
# Velocity S-wave (km/s) = 4.11326 4.25841 4.18646
# Velocity P-wave (km/s) = 7.45209 7.66841 7.56102
#
# Compressibility (1/GPa) = 0.01399825
#
# Stress axis : x y z
#
# Youngs Moduli (GPa) = 72.00131 72.00131 146.28246
#
# Poissons Ratio (x) = 0.43379 0.31325
# Poissons Ratio (y) = 0.43379 0.31325
# Poissons Ratio (z) = 0.15418 0.15418
#
# Static dielectric constant tensor:
#      x y z
#    x 1.907240 0.000000 0.000000 
#    y 0.000000 1.907240 0.000000 
#    z 0.000000 0.000000 1.864740 
# 
# From -- ./inp_files/11098.got.cif
#   From: 2010.05.17/outbox.cif.g08.bks.cpg/sg142_6_cif.got.tgz:11098.got - 2010.05.20 13:39:18.
