data_PCOD9573426
_publ_section_title
;
Structure prediction by ZEFSAII (Michael W. Deem and Ramdas Pophale) SiO2 
 PCOD9573426
Probable space group: I 41/A C D
;
_chemical_formula_sum "Si O2"
_cell_formula_units_Z 160
_cell_length_a 16.841251
_cell_length_b 16.841251
_cell_length_c 31.441271
_cell_angle_alpha 90.000000
_cell_angle_beta 90.000000
_cell_angle_gamma 90.000000
_cell_volume 8917.616487
_symmetry_space_group_name_H-M "I 41/A C D"
_symmetry_group_IT_number 142
_space_group.IT_coordinate_system_code '2'
_symmetry_cell_setting 'tetragonal'
loop_
_space_group_symop_operation_xyz
x,y,z
1/4-y,3/4+x,1/4+z
-x,1/2-y,z
1/4+y,1/4-x,3/4+z
x,-y,1/2-z
1/2-x,y,-z
3/4+y,1/4+x,1/4-z
1/4-y,1/4-x,1/4-z
-x,-y,-z
3/4+y,1/4-x,3/4-z
x,1/2+y,-z
3/4-y,3/4+x,1/4-z
-x,y,1/2+z
1/2+x,-y,z
1/4-y,3/4-x,3/4+z
3/4+y,3/4+x,3/4+z
1/2+x,1/2+y,1/2+z
3/4-y,1/4+x,3/4+z
1/2-x,-y,1/2+z
3/4+y,3/4-x,1/4+z
1/2+x,1/2-y,-z
-x,1/2+y,1/2-z
1/4+y,3/4+x,3/4-z
3/4-y,3/4-x,3/4-z
1/2-x,1/2-y,1/2-z
1/4+y,3/4-x,1/4-z
1/2+x,y,1/2-z
1/4-y,1/4+x,3/4-z
1/2-x,1/2+y,z
x,1/2-y,1/2+z
3/4-y,1/4-x,1/4+z
1/4+y,1/4+x,1/4+z
loop_
_atom_site_type_symbol
_atom_site_label
_atom_site_fract_x
_atom_site_fract_y
_atom_site_fract_z
Si Si1 0.325459 0.807341 0.103238
Si Si2 0.692385 0.630229 0.833163
Si Si3 0.035149 0.943903 0.037367
Si Si4 0.738675 0.641902 0.626735
Si Si5 0.167631 0.089531 0.522946
O O1 0.403296 0.846705 0.125000
O O2 0.248351 0.844181 0.127202
O O3 0.313693 0.713792 0.108018
O O4 0.327292 0.838619 0.055723
O O5 0.656807 0.709308 0.811313
O O6 0.628115 0.567469 0.849507
O O7 0.758379 0.598129 0.799709
O O8 0.081834 0.989623 0.075142
O O9 0.099218 0.893874 0.011533
O O10 0.000000 0.000000 0.000000
O O11 0.687880 0.562121 0.625000
O O12 0.250000 0.078652 0.500000
#
# Coordination Sequence:
#
# PCOD9573426 Si02
#       5
#    32  32  32  32  32
#     4   9  19  34  52  77 110 143 179 225 283 345
#     4   9  18  33  54  80 106 141 192 233 271 333
#     4   9  19  34  55  80 110 144 183 234 287 336
#     4  11  20  34  59  84 106 143 193 239 281 344
#     4  10  17  31  55  78 105 142 181 227 279 334
#
# _framework density 17.942012999999999
#
# number of rings (size 3 to 8) (size 9 to 14) (size 15 to 20)
#    0.000    2.400    0.000    5.400    0.000    0.400 
#    0.000    5.000    0.000   32.400    0.000    0.000 
#    0.000    0.000    0.000    0.000    0.000    0.000 
#
# Total GULP energy -445573.934653 kJ/mol
# GULP energy per Si atom -5569.674183 kJ/mol
# Density = 1.790118 g / cm^3
# Si number density = 17.942013 Si / 1000 Ang^3
#
#
#
# Elastic Constant Matrix: (Units=GPa)
#
#
# Indices 1 2 3 4 5 6 
#
# 1 71.7197 21.6120 43.1167 0.0000 0.0000 0.0000
# 2 21.6120 71.7233 43.1175 0.0000 0.0000 0.0000
# 3 43.1167 43.1175 121.5150 0.0000 0.0000 0.0000
# 4 0.0000 0.0000 0.0000 15.4454 0.0000 0.0000
# 5 0.0000 0.0000 0.0000 0.0000 15.4433 0.0000
# 6 0.0000 0.0000 0.0000 0.0000 0.0000 21.3492
#
#
#
# Elastic Compliance Matrix: (Units=1/GPa)
#
#
# Indices 1 2 3 4 5 6 
#
# 1 0.017949 -0.002008 -0.005656 0.000000 0.000000 0.000000
# 2 -0.002008 0.017948 -0.005656 0.000000 0.000000 0.000000
# 3 -0.005656 -0.005656 0.012243 0.000000 0.000000 0.000000
# 4 0.000000 0.000000 0.000000 0.064744 0.000000 0.000000
# 5 0.000000 0.000000 0.000000 0.000000 0.064753 0.000000
# 6 0.000000 0.000000 0.000000 0.000000 0.000000 0.046840
#
#
# Mechanical properties :
#
#
# Convention : Reuss Voigt Hill
#
# Bulk Modulus (GPa) = 46.51297 53.40560 49.95929
# Shear Modulus (GPa) = 19.35855 20.92169 20.14012
#
# Velocity S-wave (km/s) = 3.28830 3.41849 3.35403
# Velocity P-wave (km/s) = 6.35591 6.73882 6.55016
#
# Compressibility (1/GPa) = 0.02149938
#
# Stress axis : x y z
#
# Youngs Moduli (GPa) = 55.71448 55.71742 81.67749
#
# Poissons Ratio (x) = 0.11189 0.46198
# Poissons Ratio (y) = 0.11188 0.46196
# Poissons Ratio (z) = 0.31513 0.31513
#
# Static dielectric constant tensor:
#      x y z
#    x 1.628920 0.000000 0.000000 
#    y 0.000000 1.628920 0.000000 
#    z 0.000000 0.000000 1.621260 
# 
# From -- ./inp_files/11274.got.cif
#   From: 2010.05.17/outbox.cif.g08.bks.cpg/sg142_6_cif.got.tgz:11274.got - 2010.05.20 13:39:18.
