data_PCOD9573878
_publ_section_title
;
Structure prediction by ZEFSAII (Michael W. Deem and Ramdas Pophale) SiO2 
 PCOD9573878
Probable space group: I 41/A C D
;
_chemical_formula_sum "Si O2"
_cell_formula_units_Z 176
_cell_length_a 16.535320
_cell_length_b 16.535320
_cell_length_c 31.932269
_cell_angle_alpha 90.000000
_cell_angle_beta 90.000000
_cell_angle_gamma 90.000000
_cell_volume 8730.819046
_symmetry_space_group_name_H-M "I 41/A C D"
_symmetry_group_IT_number 142
_space_group.IT_coordinate_system_code '2'
_symmetry_cell_setting 'tetragonal'
loop_
_space_group_symop_operation_xyz
x,y,z
1/4-y,3/4+x,1/4+z
-x,1/2-y,z
1/4+y,1/4-x,3/4+z
x,-y,1/2-z
1/2-x,y,-z
3/4+y,1/4+x,1/4-z
1/4-y,1/4-x,1/4-z
-x,-y,-z
3/4+y,1/4-x,3/4-z
x,1/2+y,-z
3/4-y,3/4+x,1/4-z
-x,y,1/2+z
1/2+x,-y,z
1/4-y,3/4-x,3/4+z
3/4+y,3/4+x,3/4+z
1/2+x,1/2+y,1/2+z
3/4-y,1/4+x,3/4+z
1/2-x,-y,1/2+z
3/4+y,3/4-x,1/4+z
1/2+x,1/2-y,-z
-x,1/2+y,1/2-z
1/4+y,3/4+x,3/4-z
3/4-y,3/4-x,3/4-z
1/2-x,1/2-y,1/2-z
1/4+y,3/4-x,1/4-z
1/2+x,y,1/2-z
1/4-y,1/4+x,3/4-z
1/2-x,1/2+y,z
x,1/2-y,1/2+z
3/4-y,1/4-x,1/4+z
1/4+y,1/4+x,1/4+z
loop_
_atom_site_type_symbol
_atom_site_label
_atom_site_fract_x
_atom_site_fract_y
_atom_site_fract_z
Si Si1 0.104505 0.470496 0.357547
Si Si2 0.094479 0.233076 0.206508
Si Si3 0.145762 0.587274 0.733161
Si Si4 0.685765 0.102461 0.806159
Si Si5 0.379794 0.370207 0.375000
Si Si6 0.301284 0.834459 0.394625
O O1 0.126159 0.520223 0.399705
O O2 0.127276 0.528031 0.318476
O O3 0.157560 0.388941 0.358792
O O4 0.010911 0.448841 0.360767
O O5 0.124577 0.162924 0.237688
O O6 0.139818 0.318416 0.209882
O O7 0.110204 0.198214 0.159964
O O8 0.000000 0.250000 0.212289
O O9 0.117689 0.500000 0.750000
O O10 0.241839 0.582214 0.725213
O O11 0.105530 0.596216 0.687660
O O12 0.387520 0.457864 0.353764
#
# Coordination Sequence:
#
# PCOD9573878 Si02
#       6
#    32  32  32  32  16  32
#     4  10  22  40  69  98 127 169 226 273 324 405
#     4  12  25  41  66 100 133 172 224 284 341 402
#     4  11  24  44  63  92 137 176 216 269 346 418
#     4  10  22  42  65  96 127 169 225 271 323 403
#     4  12  21  40  74  92 126 173 226 288 330 390
#     4  11  22  43  66  97 132 173 218 274 339 405
#
# _framework density 20.158476
#
# number of rings (size 3 to 8) (size 9 to 14) (size 15 to 20)
#    0.000    1.091    3.636    4.091    2.545    0.364 
#    9.818    0.000    0.000    0.000    0.000    0.000 
#    0.000    0.000    0.000    0.000    0.000    0.000 
#
# Total GULP energy -491725.870290 kJ/mol
# GULP energy per Si atom -5587.793981 kJ/mol
# Density = 2.011259 g / cm^3
# Si number density = 20.158476 Si / 1000 Ang^3
#
#
#
# Elastic Constant Matrix: (Units=GPa)
#
#
# Indices 1 2 3 4 5 6 
#
# 1 104.9066 56.5526 22.4501 0.0000 0.0000 0.0000
# 2 56.5526 104.9055 22.4508 0.0000 0.0000 0.0000
# 3 22.4501 22.4508 64.9822 0.0000 0.0000 0.0000
# 4 0.0000 0.0000 0.0000 15.6500 0.0000 0.0000
# 5 0.0000 0.0000 0.0000 0.0000 15.6513 0.0000
# 6 0.0000 0.0000 0.0000 0.0000 0.0000 22.8707
#
#
#
# Elastic Compliance Matrix: (Units=1/GPa)
#
#
# Indices 1 2 3 4 5 6 
#
# 1 0.013766 -0.006915 -0.002367 0.000000 0.000000 0.000000
# 2 -0.006915 0.013767 -0.002367 0.000000 0.000000 0.000000
# 3 -0.002367 -0.002367 0.017025 0.000000 0.000000 0.000000
# 4 0.000000 0.000000 0.000000 0.063898 0.000000 0.000000
# 5 0.000000 0.000000 0.000000 0.000000 0.063893 0.000000
# 6 0.000000 0.000000 0.000000 0.000000 0.000000 0.043724
#
#
# Mechanical properties :
#
#
# Convention : Reuss Voigt Hill
#
# Bulk Modulus (GPa) = 47.03815 53.07792 50.05803
# Shear Modulus (GPa) = 20.28757 22.39045 21.33901
#
# Velocity S-wave (km/s) = 3.17583 3.33636 3.25709
# Velocity P-wave (km/s) = 6.06899 6.42100 6.24748
#
# Compressibility (1/GPa) = 0.02125934
#
# Stress axis : x y z
#
# Youngs Moduli (GPa) = 72.64092 72.63975 58.73881
#
# Poissons Ratio (x) = 0.50228 0.13904
# Poissons Ratio (y) = 0.50228 0.13906
# Poissons Ratio (z) = 0.17195 0.17196
#
# Static dielectric constant tensor:
#      x y z
#    x 1.701720 0.000000 0.000000 
#    y 0.000000 1.701720 0.000000 
#    z 0.000000 0.000000 1.732980 
# 
# From -- ./inp_files/12524.got.cif
#   From: 2010.05.17/outbox.cif.g08.bks.cpg/sg142_7_cif.got.tgz:12524.got - 2010.05.20 13:39:18.
