data_PCOD9573154
_publ_section_title
;
Structure prediction by ZEFSAII (Michael W. Deem and Ramdas Pophale) SiO2 
 PCOD9573154
Probable space group: I 41/A M D
;
_chemical_formula_sum "Si O2"
_cell_formula_units_Z 96
_cell_length_a 14.078381
_cell_length_b 14.078381
_cell_length_c 20.718264
_cell_angle_alpha 90.000000
_cell_angle_beta 90.000000
_cell_angle_gamma 90.000000
_cell_volume 4106.376739
_symmetry_space_group_name_H-M "I 41/A M D"
_symmetry_group_IT_number 141
_space_group.IT_coordinate_system_code '2'
_symmetry_cell_setting 'tetragonal'
loop_
_space_group_symop_operation_xyz
x,y,z
1/4-y,3/4+x,1/4+z
-x,1/2-y,z
1/4+y,1/4-x,3/4+z
x,-y,-z
-x,1/2+y,-z
1/4+y,3/4+x,1/4-z
1/4-y,1/4-x,3/4-z
-x,-y,-z
3/4+y,1/4-x,3/4-z
x,1/2+y,-z
3/4-y,3/4+x,1/4-z
-x,y,z
x,1/2-y,z
3/4-y,1/4-x,3/4+z
3/4+y,3/4+x,1/4+z
1/2+x,1/2+y,1/2+z
3/4-y,1/4+x,3/4+z
1/2-x,-y,1/2+z
3/4+y,3/4-x,1/4+z
1/2+x,1/2-y,1/2-z
1/2-x,y,1/2-z
3/4+y,1/4+x,3/4-z
3/4-y,3/4-x,1/4-z
1/2-x,1/2-y,1/2-z
1/4+y,3/4-x,1/4-z
1/2+x,y,1/2-z
1/4-y,1/4+x,3/4-z
1/2-x,1/2+y,1/2+z
1/2+x,-y,1/2+z
1/4-y,3/4-x,1/4+z
1/4+y,1/4+x,3/4+z
loop_
_atom_site_type_symbol
_atom_site_label
_atom_site_fract_x
_atom_site_fract_y
_atom_site_fract_z
Si Si1 0.867053 0.250000 0.978488
Si Si2 0.856526 0.750000 0.599099
Si Si3 0.000000 0.107996 0.199324
Si Si4 0.295803 0.640740 0.318657
Si Si5 0.500000 0.385722 0.879139
O O1 0.754798 0.250000 0.961552
O O2 0.904056 0.155281 0.947827
O O3 0.890527 0.250000 0.053782
O O4 0.906246 0.843755 0.625000
O O5 0.884890 0.750000 0.524138
O O6 0.748677 0.750000 0.623263
O O7 0.910280 0.157726 0.163682
O O8 0.256929 0.750000 0.331597
O O9 0.250000 0.608017 0.250000
O O10 0.308943 0.558943 0.375000
#
# Coordination Sequence:
#
# PCOD9573154 Si02
#       5
#    16  16  16  32  16
#     4  11  25  42  65 103 136 185 245 289 355 446
#     4  10  21  42  70 101 135 176 237 299 364 436
#     4  10  24  43  63  99 135 179 242 287 357 442
#     4  11  25  44  72 105 147 194 243 308 376 450
#     4  10  23  42  68  92 139 189 225 294 361 423
#
# _framework density 23.378273
#
# number of rings (size 3 to 8) (size 9 to 14) (size 15 to 20)
#    0.000    1.500    1.667    2.500    9.333    2.667 
#   12.000    0.000    0.000    0.000    0.000    0.000 
#    0.000    0.000    0.000    0.000    0.000    0.000 
#
# Total GULP energy -267495.760478 kJ/mol
# GULP energy per Si atom -5572.828343 kJ/mol
# Density = 2.332506 g / cm^3
# Si number density = 23.378273 Si / 1000 Ang^3
#
#
#
# Elastic Constant Matrix: (Units=GPa)
#
#
# Indices 1 2 3 4 5 6 
#
# 1 143.5154 44.1826 45.0424 0.0000 0.0000 0.0000
# 2 44.1826 143.5140 45.0419 0.0000 0.0000 0.0000
# 3 45.0424 45.0419 219.4929 0.0000 0.0000 0.0000
# 4 0.0000 0.0000 0.0000 20.4648 0.0000 0.0000
# 5 0.0000 0.0000 0.0000 0.0000 20.5578 0.0000
# 6 0.0000 0.0000 0.0000 0.0000 0.0000 67.0092
#
#
#
# Elastic Compliance Matrix: (Units=1/GPa)
#
#
# Indices 1 2 3 4 5 6 
#
# 1 0.007988 -0.002079 -0.001213 0.000000 0.000000 0.000000
# 2 -0.002079 0.007989 -0.001213 0.000000 0.000000 0.000000
# 3 -0.001213 -0.001213 0.005054 0.000000 0.000000 0.000000
# 4 0.000000 0.000000 0.000000 0.048864 0.000000 0.000000
# 5 0.000000 0.000000 0.000000 0.000000 0.048643 0.000000
# 6 0.000000 0.000000 0.000000 0.000000 0.000000 0.014923
#
#
# Mechanical properties :
#
#
# Convention : Reuss Voigt Hill
#
# Bulk Modulus (GPa) = 83.17901 86.11735 84.64818
# Shear Modulus (GPa) = 34.13488 46.42337 40.27913
#
# Velocity S-wave (km/s) = 3.82529 4.46101 4.15532
# Velocity P-wave (km/s) = 7.42747 7.96559 7.70123
#
# Compressibility (1/GPa) = 0.01202226
#
# Stress axis : x y z
#
# Youngs Moduli (GPa) = 125.18039 125.17925 197.87515
#
# Poissons Ratio (x) = 0.26021 0.23997
# Poissons Ratio (y) = 0.26022 0.23997
# Poissons Ratio (z) = 0.15181 0.15181
#
# Static dielectric constant tensor:
#      x y z
#    x 1.751810 0.000000 0.000000 
#    y 0.000000 1.751970 0.000000 
#    z 0.000000 0.000000 1.988580 
# 
# From -- ./inp_files/9804.got.cif
#   From: 2010.05.17/outbox.cif.g08.bks.cpg/sg141_5_cif.got.tgz:9804.got - 2010.05.20 13:30:51.
