data_PCOD9573904
_publ_section_title
;
Structure prediction by ZEFSAII (Michael W. Deem and Ramdas Pophale) SiO2 
 PCOD9573904
Probable space group: I 41/A C D
;
_chemical_formula_sum "Si O2"
_cell_formula_units_Z 96
_cell_length_a 12.751944
_cell_length_b 12.751944
_cell_length_c 22.864326
_cell_angle_alpha 90.000000
_cell_angle_beta 90.000000
_cell_angle_gamma 90.000000
_cell_volume 3718.015512
_symmetry_space_group_name_H-M "I 41/A C D"
_symmetry_group_IT_number 142
_space_group.IT_coordinate_system_code '2'
_symmetry_cell_setting 'tetragonal'
loop_
_space_group_symop_operation_xyz
x,y,z
1/4-y,3/4+x,1/4+z
-x,1/2-y,z
1/4+y,1/4-x,3/4+z
x,-y,1/2-z
1/2-x,y,-z
3/4+y,1/4+x,1/4-z
1/4-y,1/4-x,1/4-z
-x,-y,-z
3/4+y,1/4-x,3/4-z
x,1/2+y,-z
3/4-y,3/4+x,1/4-z
-x,y,1/2+z
1/2+x,-y,z
1/4-y,3/4-x,3/4+z
3/4+y,3/4+x,3/4+z
1/2+x,1/2+y,1/2+z
3/4-y,1/4+x,3/4+z
1/2-x,-y,1/2+z
3/4+y,3/4-x,1/4+z
1/2+x,1/2-y,-z
-x,1/2+y,1/2-z
1/4+y,3/4+x,3/4-z
3/4-y,3/4-x,3/4-z
1/2-x,1/2-y,1/2-z
1/4+y,3/4-x,1/4-z
1/2+x,y,1/2-z
1/4-y,1/4+x,3/4-z
1/2-x,1/2+y,z
x,1/2-y,1/2+z
3/4-y,1/4-x,1/4+z
1/4+y,1/4+x,1/4+z
loop_
_atom_site_type_symbol
_atom_site_label
_atom_site_fract_x
_atom_site_fract_y
_atom_site_fract_z
Si Si1 0.812539 0.143979 0.709387
Si Si2 0.247105 0.731955 0.913749
Si Si3 0.088894 0.153790 0.749222
O O1 0.766530 0.212139 0.654598
O O2 0.897641 0.220481 0.740808
O O3 0.710747 0.122443 0.745978
O O4 0.868588 0.037912 0.688937
O O5 0.350215 0.782191 0.943683
O O6 0.153302 0.800779 0.940521
#
# Coordination Sequence:
#
# PCOD9573904 Si02
#       3
#    32  32  32
#     4  10  22  46  69  98 146 183 232 297 352 424
#     4  10  22  44  70 100 136 191 231 290 363 415
#     4  10  22  42  70 102 133 188 236 286 348 429
#
# _framework density 25.820226000000002
#
# number of rings (size 3 to 8) (size 9 to 14) (size 15 to 20)
#    0.000    2.000    0.000    2.000    0.000    8.000 
#   54.000    0.000    0.000    0.000    0.000    0.000 
#    0.000    0.000    0.000    0.000    0.000    0.000 
#
# Total GULP energy -267941.569714 kJ/mol
# GULP energy per Si atom -5582.116036 kJ/mol
# Density = 2.576146 g / cm^3
# Si number density = 25.820226 Si / 1000 Ang^3
#
#
#
# Elastic Constant Matrix: (Units=GPa)
#
#
# Indices 1 2 3 4 5 6 
#
# 1 77.5382 33.3192 39.7883 0.0000 0.0000 0.0000
# 2 33.3192 77.5382 39.7883 0.0000 0.0000 0.0000
# 3 39.7883 39.7883 75.4870 0.0000 0.0000 0.0000
# 4 0.0000 0.0000 0.0000 43.8054 0.0000 0.0000
# 5 0.0000 0.0000 0.0000 0.0000 43.8054 0.0000
# 6 0.0000 0.0000 0.0000 0.0000 0.0000 39.7734
#
#
#
# Elastic Compliance Matrix: (Units=1/GPa)
#
#
# Indices 1 2 3 4 5 6 
#
# 1 0.018563 -0.004052 -0.007649 0.000000 0.000000 0.000000
# 2 -0.004052 0.018563 -0.007649 0.000000 0.000000 0.000000
# 3 -0.007649 -0.007649 0.021310 0.000000 0.000000 0.000000
# 4 0.000000 0.000000 0.000000 0.022828 0.000000 0.000000
# 5 0.000000 0.000000 0.000000 0.000000 0.022828 0.000000
# 6 0.000000 0.000000 0.000000 0.000000 0.000000 0.025142
#
#
# Mechanical properties :
#
#
# Convention : Reuss Voigt Hill
#
# Bulk Modulus (GPa) = 50.66389 50.70613 50.68501
# Shear Modulus (GPa) = 28.65130 33.32134 30.98632
#
# Velocity S-wave (km/s) = 3.33475 3.59627 3.46797
# Velocity P-wave (km/s) = 5.87297 6.07659 5.97565
#
# Compressibility (1/GPa) = 0.01973793
#
# Stress axis : x y z
#
# Youngs Moduli (GPa) = 53.87111 53.87111 46.92574
#
# Poissons Ratio (x) = 0.21828 0.35891
# Poissons Ratio (y) = 0.21828 0.35891
# Poissons Ratio (z) = 0.41204 0.41204
#
# Static dielectric constant tensor:
#      x y z
#    x 2.122720 0.000000 0.000000 
#    y 0.000000 2.122720 0.000000 
#    z 0.000000 0.000000 2.021640 
# 
# From -- ./inp_files/12097.got.cif
#   From: 2010.05.17/outbox.cif.g08.bks.cpg/sg142_7_cif.got.tgz:12097.got - 2010.05.20 13:39:18.
