data_PCOD9573832
_publ_section_title
;
Structure prediction by ZEFSAII (Michael W. Deem and Ramdas Pophale) SiO2 
 PCOD9573832
Probable space group: I 41/A C D
;
_chemical_formula_sum "Si O2"
_cell_formula_units_Z 96
_cell_length_a 26.524208
_cell_length_b 26.524208
_cell_length_c 7.143325
_cell_angle_alpha 90.000000
_cell_angle_beta 90.000000
_cell_angle_gamma 90.000000
_cell_volume 5025.569225
_symmetry_space_group_name_H-M "I 41/A C D"
_symmetry_group_IT_number 142
_space_group.IT_coordinate_system_code '2'
_symmetry_cell_setting 'tetragonal'
loop_
_space_group_symop_operation_xyz
x,y,z
1/4-y,3/4+x,1/4+z
-x,1/2-y,z
1/4+y,1/4-x,3/4+z
x,-y,1/2-z
1/2-x,y,-z
3/4+y,1/4+x,1/4-z
1/4-y,1/4-x,1/4-z
-x,-y,-z
3/4+y,1/4-x,3/4-z
x,1/2+y,-z
3/4-y,3/4+x,1/4-z
-x,y,1/2+z
1/2+x,-y,z
1/4-y,3/4-x,3/4+z
3/4+y,3/4+x,3/4+z
1/2+x,1/2+y,1/2+z
3/4-y,1/4+x,3/4+z
1/2-x,-y,1/2+z
3/4+y,3/4-x,1/4+z
1/2+x,1/2-y,-z
-x,1/2+y,1/2-z
1/4+y,3/4+x,3/4-z
3/4-y,3/4-x,3/4-z
1/2-x,1/2-y,1/2-z
1/4+y,3/4-x,1/4-z
1/2+x,y,1/2-z
1/4-y,1/4+x,3/4-z
1/2-x,1/2+y,z
x,1/2-y,1/2+z
3/4-y,1/4-x,1/4+z
1/4+y,1/4+x,1/4+z
loop_
_atom_site_type_symbol
_atom_site_label
_atom_site_fract_x
_atom_site_fract_y
_atom_site_fract_z
Si Si1 0.750000 0.398360 0.000000
Si Si2 0.613698 0.863698 0.625000
Si Si3 0.797406 0.603062 0.129300
Si Si4 0.952294 0.182898 0.835339
O O1 0.776858 0.372346 0.177814
O O2 0.702688 0.430344 0.078699
O O3 0.615822 0.911946 0.760742
O O4 0.568277 0.858967 0.476492
O O5 0.750000 0.595386 0.000000
O O6 0.930793 0.180793 0.625000
O O7 0.935122 0.237213 0.918360
#
# Coordination Sequence:
#
# PCOD9573832 Si02
#       4
#    16  16  32  32
#     4  10  22  34  56  82 120 170 208 262 304 332
#     4  12  24  35  60 100 122 166 202 250 318 374
#     4  11  22  35  55  88 126 160 210 253 298 361
#     4  11  21  41  67  95 122 149 196 268 328 370
#
# _framework density 19.102314
#
# number of rings (size 3 to 8) (size 9 to 14) (size 15 to 20)
#    0.000    1.000    6.667    1.000   14.000    0.000 
#    0.000    0.000    0.000    2.000    4.333    0.000 
#    0.000    0.000    0.000    0.000    0.000    0.000 
#
# Total GULP energy -267474.486349 kJ/mol
# GULP energy per Si atom -5572.385132 kJ/mol
# Density = 1.905884 g / cm^3
# Si number density = 19.102314 Si / 1000 Ang^3
#
#
#
# Elastic Constant Matrix: (Units=GPa)
#
#
# Indices 1 2 3 4 5 6 
#
# 1 26.7509 44.1149 39.0578 0.0000 0.0000 0.0000
# 2 44.1149 26.7509 39.0578 0.0000 0.0000 0.0000
# 3 39.0578 39.0578 174.4199 0.0000 0.0000 0.0000
# 4 0.0000 0.0000 0.0000 38.4637 0.0000 0.0000
# 5 0.0000 0.0000 0.0000 0.0000 38.4637 0.0000
# 6 0.0000 0.0000 0.0000 0.0000 0.0000 6.0108
#
#
#
# Elastic Compliance Matrix: (Units=1/GPa)
#
#
# Indices 1 2 3 4 5 6 
#
# 1 -0.019427 0.038163 -0.004196 0.000000 0.000000 0.000000
# 2 0.038163 -0.019427 -0.004196 0.000000 0.000000 0.000000
# 3 -0.004196 -0.004196 0.007612 0.000000 0.000000 0.000000
# 4 0.000000 0.000000 0.000000 0.025999 0.000000 0.000000
# 5 0.000000 0.000000 0.000000 0.000000 0.025999 0.000000
# 6 0.000000 0.000000 0.000000 0.000000 0.000000 0.166366
#
#
# Mechanical properties :
#
#
# Convention : Reuss Voigt Hill
#
# Bulk Modulus (GPa) = 35.33316 52.48696 43.91006
# Shear Modulus (GPa) = 36.49330 23.63372 30.06351
#
# Velocity S-wave (km/s) = 4.37557 3.52123 3.97144
# Velocity P-wave (km/s) = 6.63810 6.63841 6.63826
#
# Compressibility (1/GPa) = 0.02830203
#
# Stress axis : x y z
#
# Youngs Moduli (GPa) = -51.47437 -51.47437 131.36632
#
# Poissons Ratio (x) = 1.96442 0.55115
# Poissons Ratio (y) = 1.96442 0.55115
# Poissons Ratio (z) = -0.21596 -0.21596
#
# Static dielectric constant tensor:
#      x y z
#    x 1.657610 0.000000 0.000000 
#    y 0.000000 1.657610 0.000000 
#    z 0.000000 0.000000 1.740200 
# 
# From -- ./inp_files/1731.got.cif
#   From: 2010.05.17/outbox.cif.g08.bks.cpg/sg142_1_cif.got.tgz:1731.got - 2010.05.20 13:39:18.
