data_PCOD9573155
_publ_section_title
;
Structure prediction by ZEFSAII (Michael W. Deem and Ramdas Pophale) SiO2 
 PCOD9573155
Probable space group: I 41/A M D
;
_chemical_formula_sum "Si O2"
_cell_formula_units_Z 112
_cell_length_a 14.922092
_cell_length_b 14.922092
_cell_length_c 27.005402
_cell_angle_alpha 90.000000
_cell_angle_beta 90.000000
_cell_angle_gamma 90.000000
_cell_volume 6013.261258
_symmetry_space_group_name_H-M "I 41/A M D"
_symmetry_group_IT_number 141
_space_group.IT_coordinate_system_code '2'
_symmetry_cell_setting 'tetragonal'
loop_
_space_group_symop_operation_xyz
x,y,z
1/4-y,3/4+x,1/4+z
-x,1/2-y,z
1/4+y,1/4-x,3/4+z
x,-y,-z
-x,1/2+y,-z
1/4+y,3/4+x,1/4-z
1/4-y,1/4-x,3/4-z
-x,-y,-z
3/4+y,1/4-x,3/4-z
x,1/2+y,-z
3/4-y,3/4+x,1/4-z
-x,y,z
x,1/2-y,z
3/4-y,1/4-x,3/4+z
3/4+y,3/4+x,1/4+z
1/2+x,1/2+y,1/2+z
3/4-y,1/4+x,3/4+z
1/2-x,-y,1/2+z
3/4+y,3/4-x,1/4+z
1/2+x,1/2-y,1/2-z
1/2-x,y,1/2-z
3/4+y,1/4+x,3/4-z
3/4-y,3/4-x,1/4-z
1/2-x,1/2-y,1/2-z
1/4+y,3/4-x,1/4-z
1/2+x,y,1/2-z
1/4-y,1/4+x,3/4-z
1/2-x,1/2+y,1/2+z
1/2+x,-y,1/2+z
1/4-y,3/4-x,1/4+z
1/4+y,1/4+x,3/4+z
loop_
_atom_site_type_symbol
_atom_site_label
_atom_site_fract_x
_atom_site_fract_y
_atom_site_fract_z
Si Si1 0.192888 0.250000 0.056313
Si Si2 0.853571 0.250000 0.383370
Si Si3 0.849626 0.599626 0.125000
Si Si4 0.893009 0.389257 0.131128
Si Si5 0.000000 0.148546 0.796374
Si Si6 0.500000 0.050455 0.947434
O O1 0.299224 0.250000 0.065662
O O2 0.150098 0.165499 0.085345
O O3 0.168051 0.250000 0.999467
O O4 0.914360 0.164360 0.375000
O O5 0.779094 0.250000 0.341854
O O6 0.866572 0.493005 0.124938
O O7 0.884122 0.661103 0.079501
O O8 0.857490 0.338217 0.180921
O O9 0.000000 0.381565 0.129843
O O10 0.000000 0.250000 0.777256
O O11 0.500000 0.000000 0.000000
#
# Coordination Sequence:
#
# PCOD9573155 Si02
#       6
#    16  16  16  32  16  16
#     4  10  24  37  70  90 123 168 224 265 326 395
#     4   9  20  41  61  88 129 159 200 265 326 380
#     4  12  23  40  64  92 137 178 212 274 336 382
#     4  10  21  43  62  89 130 168 212 274 327 385
#     4  12  22  43  63  95 131 171 224 270 328 393
#     4  10  23  39  66  93 126 161 217 266 328 396
#
# _framework density 18.625499000000001
#
# number of rings (size 3 to 8) (size 9 to 14) (size 15 to 20)
#    0.000    1.857    2.857    2.571    8.000    3.429 
#    5.143    2.857    0.000    0.000    0.000    0.000 
#    0.000    0.000    0.000    0.000    0.000    0.000 
#
# Total GULP energy -312227.402532 kJ/mol
# GULP energy per Si atom -5575.489331 kJ/mol
# Density = 1.858311 g / cm^3
# Si number density = 18.625499 Si / 1000 Ang^3
#
#
#
# Elastic Constant Matrix: (Units=GPa)
#
#
# Indices 1 2 3 4 5 6 
#
# 1 145.3117 43.0332 32.7499 0.0000 0.0000 0.0000
# 2 43.0332 145.3117 32.7499 0.0000 0.0000 0.0000
# 3 32.7499 32.7499 114.4810 0.0000 0.0000 0.0000
# 4 0.0000 0.0000 0.0000 18.3576 0.0000 0.0000
# 5 0.0000 0.0000 0.0000 0.0000 18.3576 0.0000
# 6 0.0000 0.0000 0.0000 0.0000 0.0000 42.7200
#
#
#
# Elastic Compliance Matrix: (Units=1/GPa)
#
#
# Indices 1 2 3 4 5 6 
#
# 1 0.007837 -0.001941 -0.001687 0.000000 0.000000 0.000000
# 2 -0.001941 0.007837 -0.001687 0.000000 0.000000 0.000000
# 3 -0.001687 -0.001687 0.009700 0.000000 0.000000 0.000000
# 4 0.000000 0.000000 0.000000 0.054473 0.000000 0.000000
# 5 0.000000 0.000000 0.000000 0.000000 0.054473 0.000000
# 6 0.000000 0.000000 0.000000 0.000000 0.000000 0.023408
#
#
# Mechanical properties :
#
#
# Convention : Reuss Voigt Hill
#
# Bulk Modulus (GPa) = 67.81806 69.13006 68.47406
# Shear Modulus (GPa) = 28.85652 35.65849 32.25750
#
# Velocity S-wave (km/s) = 3.94039 4.38024 4.16613
# Velocity P-wave (km/s) = 7.56258 7.92329 7.74503
#
# Compressibility (1/GPa) = 0.01474534
#
# Stress axis : x y z
#
# Youngs Moduli (GPa) = 127.60638 127.60638 103.09174
#
# Poissons Ratio (x) = 0.24764 0.17388
# Poissons Ratio (y) = 0.24764 0.17388
# Poissons Ratio (z) = 0.21523 0.21523
#
# Static dielectric constant tensor:
#      x y z
#    x 1.626970 0.000000 0.000000 
#    y 0.000000 1.626970 0.000000 
#    z 0.000000 0.000000 1.652230 
# 
# From -- ./inp_files/12555.got.cif
#   From: 2010.05.17/outbox.cif.g08.bks.cpg/sg141_7_cif.got.tgz:12555.got - 2010.05.20 13:30:51.
