data_PCOD9573244
_publ_section_title
;
Structure prediction by ZEFSAII (Michael W. Deem and Ramdas Pophale) SiO2 
 PCOD9573244
Probable space group: I 41/A M D
;
_chemical_formula_sum "Si O2"
_cell_formula_units_Z 192
_cell_length_a 26.017568
_cell_length_b 26.017568
_cell_length_c 14.418265
_cell_angle_alpha 90.000000
_cell_angle_beta 90.000000
_cell_angle_gamma 90.000000
_cell_volume 9759.923194
_symmetry_space_group_name_H-M "I 41/A M D"
_symmetry_group_IT_number 141
_space_group.IT_coordinate_system_code '2'
_symmetry_cell_setting 'tetragonal'
loop_
_space_group_symop_operation_xyz
x,y,z
1/4-y,3/4+x,1/4+z
-x,1/2-y,z
1/4+y,1/4-x,3/4+z
x,-y,-z
-x,1/2+y,-z
1/4+y,3/4+x,1/4-z
1/4-y,1/4-x,3/4-z
-x,-y,-z
3/4+y,1/4-x,3/4-z
x,1/2+y,-z
3/4-y,3/4+x,1/4-z
-x,y,z
x,1/2-y,z
3/4-y,1/4-x,3/4+z
3/4+y,3/4+x,1/4+z
1/2+x,1/2+y,1/2+z
3/4-y,1/4+x,3/4+z
1/2-x,-y,1/2+z
3/4+y,3/4-x,1/4+z
1/2+x,1/2-y,1/2-z
1/2-x,y,1/2-z
3/4+y,1/4+x,3/4-z
3/4-y,3/4-x,1/4-z
1/2-x,1/2-y,1/2-z
1/4+y,3/4-x,1/4-z
1/2+x,y,1/2-z
1/4-y,1/4+x,3/4-z
1/2-x,1/2+y,1/2+z
1/2+x,-y,1/2+z
1/4-y,3/4-x,1/4+z
1/4+y,1/4+x,3/4+z
loop_
_atom_site_type_symbol
_atom_site_label
_atom_site_fract_x
_atom_site_fract_y
_atom_site_fract_z
Si Si1 0.899459 0.418884 0.931580
Si Si2 0.150737 0.148330 0.601794
Si Si3 0.168010 0.750000 0.485622
Si Si4 0.756464 0.595710 0.068746
Si Si5 0.000000 0.520072 0.105642
Si Si6 0.250000 0.940795 0.750000
Si Si7 0.500000 0.995650 0.889118
Si Si8 0.611811 0.539733 0.135475
O O1 0.880403 0.369598 0.875000
O O2 0.855499 0.462912 0.913903
O O3 0.949705 0.444745 0.886886
O O4 0.909394 0.405522 0.038370
O O5 0.137385 0.198953 0.544206
O O6 0.207951 0.133512 0.569956
O O7 0.118445 0.095777 0.588956
O O8 0.220849 0.750000 0.423072
O O9 0.189706 0.750000 0.590225
O O10 0.729679 0.542742 0.039803
O O11 0.793706 0.614006 0.987022
O O12 0.000000 0.500000 0.000000
O O13 0.252158 0.898775 0.833924
O O14 0.446707 0.022413 0.859731
O O15 0.500000 0.000000 0.000000
#
# Coordination Sequence:
#
# PCOD9573244 Si02
#       8
#    32  32  16  32  16  16  16  32
#     4  12  22  36  56  90 125 164 210 258 299 363
#     4  11  22  37  60  91 121 161 212 252 306 359
#     4  12  22  42  68  85 119 165 211 264 301 364
#     4  11  21  37  56  82 128 168 208 238 299 360
#     4  12  20  38  62  87 120 166 212 257 297 356
#     4  10  24  37  54  82 126 169 196 254 302 368
#     4  12  24  44  68  89 115 162 209 261 316 373
#     4  11  22  41  59  88 120 158 206 259 306 375
#
# _framework density 19.672287000000001
#
# number of rings (size 3 to 8) (size 9 to 14) (size 15 to 20)
#    0.000    0.667    7.500    1.000    0.000    2.667 
#    1.500    0.833    0.000    0.750    0.000    2.333 
#    0.000    1.333    0.000    0.000    0.000    0.000 
#
# Total GULP energy -535478.510157 kJ/mol
# GULP energy per Si atom -5577.901147 kJ/mol
# Density = 1.962751 g / cm^3
# Si number density = 19.672287 Si / 1000 Ang^3
#
#
#
# Elastic Constant Matrix: (Units=GPa)
#
#
# Indices 1 2 3 4 5 6 
#
# 1 87.1848 39.3437 10.4237 0.0000 0.0000 0.0000
# 2 39.3437 87.1869 10.4232 0.0000 0.0000 0.0000
# 3 10.4237 10.4232 88.8741 0.0000 0.0000 0.0000
# 4 0.0000 0.0000 0.0000 24.6317 0.0000 0.0000
# 5 0.0000 0.0000 0.0000 0.0000 24.6312 0.0000
# 6 0.0000 0.0000 0.0000 0.0000 0.0000 27.4737
#
#
#
# Elastic Compliance Matrix: (Units=1/GPa)
#
#
# Indices 1 2 3 4 5 6 
#
# 1 0.014481 -0.006422 -0.000945 0.000000 0.000000 0.000000
# 2 -0.006422 0.014480 -0.000945 0.000000 0.000000 0.000000
# 3 -0.000945 -0.000945 0.011474 0.000000 0.000000 0.000000
# 4 0.000000 0.000000 0.000000 0.040598 0.000000 0.000000
# 5 0.000000 0.000000 0.000000 0.000000 0.040599 0.000000
# 6 0.000000 0.000000 0.000000 0.000000 0.000000 0.036398
#
#
# Mechanical properties :
#
#
# Convention : Reuss Voigt Hill
#
# Bulk Modulus (GPa) = 41.99762 42.62521 42.31141
# Shear Modulus (GPa) = 27.38363 28.88434 28.13399
#
# Velocity S-wave (km/s) = 3.73499 3.83597 3.78581
# Velocity P-wave (km/s) = 6.32417 6.42917 6.37688
#
# Compressibility (1/GPa) = 0.02381087
#
# Stress axis : x y z
#
# Youngs Moduli (GPa) = 69.05736 69.05914 87.15670
#
# Poissons Ratio (x) = 0.44346 0.08239
# Poissons Ratio (y) = 0.44345 0.08237
# Poissons Ratio (z) = 0.06528 0.06527
#
# Static dielectric constant tensor:
#      x y z
#    x 1.736020 0.000000 0.000000 
#    y 0.000000 1.736020 0.000000 
#    z 0.000000 0.000000 1.775110 
# 
# From -- ./inp_files/6896.got.cif
#   From: 2010.05.17/outbox.cif.g08.bks.cpg/sg141_4_cif.got.tgz:6896.got - 2010.05.20 13:30:51.
