data_PCOD9573094
_publ_section_title
;
Structure prediction by ZEFSAII (Michael W. Deem and Ramdas Pophale) SiO2 
 PCOD9573094
Probable space group: I 41/A M D
;
_chemical_formula_sum "Si O2"
_cell_formula_units_Z 176
_cell_length_a 27.406001
_cell_length_b 27.406001
_cell_length_c 11.423990
_cell_angle_alpha 90.000000
_cell_angle_beta 90.000000
_cell_angle_gamma 90.000000
_cell_volume 8580.431978
_symmetry_space_group_name_H-M "I 41/A M D"
_symmetry_group_IT_number 141
_space_group.IT_coordinate_system_code '2'
_symmetry_cell_setting 'tetragonal'
loop_
_space_group_symop_operation_xyz
x,y,z
1/4-y,3/4+x,1/4+z
-x,1/2-y,z
1/4+y,1/4-x,3/4+z
x,-y,-z
-x,1/2+y,-z
1/4+y,3/4+x,1/4-z
1/4-y,1/4-x,3/4-z
-x,-y,-z
3/4+y,1/4-x,3/4-z
x,1/2+y,-z
3/4-y,3/4+x,1/4-z
-x,y,z
x,1/2-y,z
3/4-y,1/4-x,3/4+z
3/4+y,3/4+x,1/4+z
1/2+x,1/2+y,1/2+z
3/4-y,1/4+x,3/4+z
1/2-x,-y,1/2+z
3/4+y,3/4-x,1/4+z
1/2+x,1/2-y,1/2-z
1/2-x,y,1/2-z
3/4+y,1/4+x,3/4-z
3/4-y,3/4-x,1/4-z
1/2-x,1/2-y,1/2-z
1/4+y,3/4-x,1/4-z
1/2+x,y,1/2-z
1/4-y,1/4+x,3/4-z
1/2-x,1/2+y,1/2+z
1/2+x,-y,1/2+z
1/4-y,3/4-x,1/4+z
1/4+y,1/4+x,3/4+z
loop_
_atom_site_type_symbol
_atom_site_label
_atom_site_fract_x
_atom_site_fract_y
_atom_site_fract_z
Si Si1 0.197281 0.304602 0.469930
Si Si2 0.776279 0.914190 0.527789
Si Si3 0.912237 0.623181 0.925746
Si Si4 0.168586 0.055273 0.027553
Si Si5 0.054760 0.695241 0.125000
Si Si6 0.388037 0.304908 0.219496
O O1 0.220341 0.250000 0.470061
O O2 0.226950 0.355459 0.455280
O O3 0.165588 0.309628 0.590817
O O4 0.160708 0.306686 0.359167
O O5 0.802062 0.947939 0.625000
O O6 0.810820 0.921269 0.417246
O O7 0.723359 0.933601 0.490015
O O8 0.873532 0.592645 0.002208
O O9 0.888203 0.659085 0.829248
O O10 0.939770 0.656599 0.019564
O O11 0.154252 0.000000 0.000000
O O12 0.059888 0.750000 0.076122
O O13 0.396386 0.250000 0.259119
O O14 0.428617 0.321384 0.125000
#
# Coordination Sequence:
#
# PCOD9573094 Si02
#       6
#    32  32  32  32  16  32
#     4   9  18  35  58  83 115 152 192 241 300 366
#     4  11  21  36  59  88 120 153 196 250 314 365
#     4  10  21  37  59  81 119 157 199 247 299 348
#     4  11  23  37  61  86 117 153 199 253 304 364
#     4  11  24  40  60  84 116 162 208 250 294 346
#     4   9  17  32  55  85 116 151 192 239 297 354
#
# _framework density 20.511787000000002
#
# number of rings (size 3 to 8) (size 9 to 14) (size 15 to 20)
#    0.000    1.909    0.000    6.000    2.545    0.909 
#    0.000    1.818    0.000    7.091    0.000    0.000 
#    0.000    0.000    0.000    0.000    0.000    0.000 
#
# Total GULP energy -490253.230296 kJ/mol
# GULP energy per Si atom -5571.059435 kJ/mol
# Density = 2.046510 g / cm^3
# Si number density = 20.511787 Si / 1000 Ang^3
#
#
#
# Elastic Constant Matrix: (Units=GPa)
#
#
# Indices 1 2 3 4 5 6 
#
# 1 77.6098 79.6498 12.4734 0.0000 0.0000 0.0000
# 2 79.6498 77.6053 12.4762 0.0000 0.0000 0.0000
# 3 12.4734 12.4762 60.8825 0.0000 0.0000 0.0000
# 4 0.0000 0.0000 0.0000 16.7863 0.0000 0.0000
# 5 0.0000 0.0000 0.0000 0.0000 16.7869 0.0000
# 6 0.0000 0.0000 0.0000 0.0000 0.0000 19.1954
#
#
#
# Elastic Compliance Matrix: (Units=1/GPa)
#
#
# Indices 1 2 3 4 5 6 
#
# 1 -0.241528 0.248110 -0.001360 0.000000 0.000000 0.000000
# 2 0.248110 -0.241546 -0.001333 0.000000 0.000000 0.000000
# 3 -0.001360 -0.001333 0.016977 0.000000 0.000000 0.000000
# 4 0.000000 0.000000 0.000000 0.059572 0.000000 0.000000
# 5 0.000000 0.000000 0.000000 0.000000 0.059570 0.000000
# 6 0.000000 0.000000 0.000000 0.000000 0.000000 0.052096
#
#
# Mechanical properties :
#
#
# Convention : Reuss Voigt Hill
#
# Bulk Modulus (GPa) = 40.42793 47.25515 43.84154
# Shear Modulus (GPa) = -6.43131 17.98692 5.77781
#
# Velocity S-wave (km/s) = -1.77263 2.96447 1.68016
# Velocity P-wave (km/s) = 3.94497 5.89962 5.01838
#
# Compressibility (1/GPa) = 0.02473537
#
# Stress axis : x y z
#
# Youngs Moduli (GPa) = -4.14030 -4.13999 58.90328
#
# Poissons Ratio (x) = 1.02717 0.08011
# Poissons Ratio (y) = 1.02725 0.07854
# Poissons Ratio (z) = -0.00563 -0.00552
#
# Static dielectric constant tensor:
#      x y z
#    x 1.755660 0.000000 0.000000 
#    y 0.000000 1.755660 0.000000 
#    z 0.000000 0.000000 1.746830 
# 
# From -- ./inp_files/5035.got.cif
#   From: 2010.05.17/outbox.cif.g08.bks.cpg/sg141_3_cif.got.tgz:5035.got - 2010.05.20 13:30:51.
