data_PCOD9573491
_publ_section_title
;
Structure prediction by ZEFSAII (Michael W. Deem and Ramdas Pophale) SiO2 
 PCOD9573491
Probable space group: I 41/A C D
;
_chemical_formula_sum "Si O2"
_cell_formula_units_Z 192
_cell_length_a 30.881761
_cell_length_b 30.881761
_cell_length_c 10.894025
_cell_angle_alpha 90.000000
_cell_angle_beta 90.000000
_cell_angle_gamma 90.000000
_cell_volume 10389.448214
_symmetry_space_group_name_H-M "I 41/A C D"
_symmetry_group_IT_number 142
_space_group.IT_coordinate_system_code '2'
_symmetry_cell_setting 'tetragonal'
loop_
_space_group_symop_operation_xyz
x,y,z
1/4-y,3/4+x,1/4+z
-x,1/2-y,z
1/4+y,1/4-x,3/4+z
x,-y,1/2-z
1/2-x,y,-z
3/4+y,1/4+x,1/4-z
1/4-y,1/4-x,1/4-z
-x,-y,-z
3/4+y,1/4-x,3/4-z
x,1/2+y,-z
3/4-y,3/4+x,1/4-z
-x,y,1/2+z
1/2+x,-y,z
1/4-y,3/4-x,3/4+z
3/4+y,3/4+x,3/4+z
1/2+x,1/2+y,1/2+z
3/4-y,1/4+x,3/4+z
1/2-x,-y,1/2+z
3/4+y,3/4-x,1/4+z
1/2+x,1/2-y,-z
-x,1/2+y,1/2-z
1/4+y,3/4+x,3/4-z
3/4-y,3/4-x,3/4-z
1/2-x,1/2-y,1/2-z
1/4+y,3/4-x,1/4-z
1/2+x,y,1/2-z
1/4-y,1/4+x,3/4-z
1/2-x,1/2+y,z
x,1/2-y,1/2+z
3/4-y,1/4-x,1/4+z
1/4+y,1/4+x,1/4+z
loop_
_atom_site_type_symbol
_atom_site_label
_atom_site_fract_x
_atom_site_fract_y
_atom_site_fract_z
Si Si1 0.672449 0.187684 0.096374
Si Si2 0.184449 0.934449 0.375000
Si Si3 0.235426 0.895130 0.734300
Si Si4 0.468265 0.568694 0.326447
Si Si5 0.733031 0.196369 0.331785
Si Si6 0.871596 0.402023 0.358878
Si Si7 0.609220 0.500000 0.250000
O O1 0.656092 0.236290 0.072670
O O2 0.701118 0.191830 0.218747
O O3 0.640470 0.147679 0.115862
O O4 0.707828 0.171621 0.997212
O O5 0.233074 0.930014 0.324683
O O6 0.169999 0.902165 0.485865
O O7 0.249193 0.852591 0.655847
O O8 0.184166 0.897585 0.713447
O O9 0.248402 0.886846 0.875477
O O10 0.462334 0.544127 0.197298
O O11 0.471610 0.528689 0.423791
O O12 0.423592 0.593532 0.350903
#
# Coordination Sequence:
#
# PCOD9573491 Si02
#       7
#    32  16  32  32  32  32  16
#     4  11  21  35  55  81 118 149 186 248 301 346
#     4  12  18  40  60  84 112 157 204 234 284 346
#     4  10  21  35  61  82 116 152 196 238 291 341
#     4  10  19  31  55  84 112 145 195 238 301 350
#     4   9  17  33  53  82 107 142 181 244 295 352
#     4  11  21  36  60  85 115 153 202 243 292 351
#     4  10  20  38  54  86 118 150 184 242 304 346
#
# _framework density 18.480288999999999
#
# number of rings (size 3 to 8) (size 9 to 14) (size 15 to 20)
#    0.000    1.667    5.000    2.000    0.000    3.333 
#    0.000    0.000    3.667    0.500    0.000    0.000 
#    0.000    4.000    0.000    0.000    0.000    0.000 
#
# Total GULP energy -535019.111829 kJ/mol
# GULP energy per Si atom -5573.115748 kJ/mol
# Density = 1.843823 g / cm^3
# Si number density = 18.480289 Si / 1000 Ang^3
#
#
#
# Elastic Constant Matrix: (Units=GPa)
#
#
# Indices 1 2 3 4 5 6 
#
# 1 110.1536 66.0588 20.1317 0.0000 0.0000 0.0000
# 2 66.0588 110.1536 20.1317 0.0000 0.0000 0.0000
# 3 20.1317 20.1317 54.0574 0.0000 0.0000 0.0000
# 4 0.0000 0.0000 0.0000 6.8883 0.0000 0.0000
# 5 0.0000 0.0000 0.0000 0.0000 6.8883 0.0000
# 6 0.0000 0.0000 0.0000 0.0000 0.0000 21.6688
#
#
#
# Elastic Compliance Matrix: (Units=1/GPa)
#
#
# Indices 1 2 3 4 5 6 
#
# 1 0.014441 -0.008238 -0.002310 0.000000 0.000000 0.000000
# 2 -0.008238 0.014441 -0.002310 0.000000 0.000000 0.000000
# 3 -0.002310 -0.002310 0.020219 0.000000 0.000000 0.000000
# 4 0.000000 0.000000 0.000000 0.145175 0.000000 0.000000
# 5 0.000000 0.000000 0.000000 0.000000 0.145175 0.000000
# 6 0.000000 0.000000 0.000000 0.000000 0.000000 0.046149
#
#
# Mechanical properties :
#
#
# Convention : Reuss Voigt Hill
#
# Bulk Modulus (GPa) = 42.76247 54.11210 48.43729
# Shear Modulus (GPa) = 11.93005 18.29189 15.11097
#
# Velocity S-wave (km/s) = 2.54353 3.14953 2.86261
# Velocity P-wave (km/s) = 5.64055 6.52462 6.09862
#
# Compressibility (1/GPa) = 0.02338499
#
# Stress axis : x y z
#
# Youngs Moduli (GPa) = 69.24917 69.24917 49.45740
#
# Poissons Ratio (x) = 0.57046 0.11425
# Poissons Ratio (y) = 0.57046 0.11425
# Poissons Ratio (z) = 0.15997 0.15997
#
# Static dielectric constant tensor:
#      x y z
#    x 1.690140 0.000000 0.000000 
#    y 0.000000 1.690140 0.000000 
#    z 0.000000 0.000000 1.707260 
# 
# From -- ./inp_files/4171.got.cif
#   From: 2010.05.17/outbox.cif.g08.bks.cpg/sg142_3_cif.got.tgz:4171.got - 2010.05.20 13:39:18.
