data_PCOD9573365
_publ_section_title
;
Structure prediction by ZEFSAII (Michael W. Deem and Ramdas Pophale) SiO2 
 PCOD9573365
Probable space group: I 41/A M D
;
_chemical_formula_sum "Si O2"
_cell_formula_units_Z 64
_cell_length_a 14.596404
_cell_length_b 14.596404
_cell_length_c 13.205565
_cell_angle_alpha 90.000000
_cell_angle_beta 90.000000
_cell_angle_gamma 90.000000
_cell_volume 2813.511780
_symmetry_space_group_name_H-M "I 41/A M D"
_symmetry_group_IT_number 141
_space_group.IT_coordinate_system_code '2'
_symmetry_cell_setting 'tetragonal'
loop_
_space_group_symop_operation_xyz
x,y,z
1/4-y,3/4+x,1/4+z
-x,1/2-y,z
1/4+y,1/4-x,3/4+z
x,-y,-z
-x,1/2+y,-z
1/4+y,3/4+x,1/4-z
1/4-y,1/4-x,3/4-z
-x,-y,-z
3/4+y,1/4-x,3/4-z
x,1/2+y,-z
3/4-y,3/4+x,1/4-z
-x,y,z
x,1/2-y,z
3/4-y,1/4-x,3/4+z
3/4+y,3/4+x,1/4+z
1/2+x,1/2+y,1/2+z
3/4-y,1/4+x,3/4+z
1/2-x,-y,1/2+z
3/4+y,3/4-x,1/4+z
1/2+x,1/2-y,1/2-z
1/2-x,y,1/2-z
3/4+y,1/4+x,3/4-z
3/4-y,3/4-x,1/4-z
1/2-x,1/2-y,1/2-z
1/4+y,3/4-x,1/4-z
1/2+x,y,1/2-z
1/4-y,1/4+x,3/4-z
1/2-x,1/2+y,1/2+z
1/2+x,-y,1/2+z
1/4-y,3/4-x,1/4+z
1/4+y,1/4+x,3/4+z
loop_
_atom_site_type_symbol
_atom_site_label
_atom_site_fract_x
_atom_site_fract_y
_atom_site_fract_z
Si Si1 0.000000 0.859093 0.274062
Si Si2 0.311167 0.588366 0.658284
Si Si3 0.500000 0.503761 0.377055
O O1 0.914214 0.908238 0.328157
O O2 0.000000 0.750000 0.290761
O O3 0.000000 0.891554 0.158371
O O4 0.250000 0.629355 0.750000
O O5 0.244236 0.505765 0.625000
O O6 0.410665 0.542652 0.672392
O O7 0.500000 0.500000 0.500000
#
# Coordination Sequence:
#
# PCOD9573365 Si02
#       3
#    16  32  16
#     4  12  27  49  81 118 158 217 285 348 415 502
#     4  12  25  49  78 108 160 212 268 341 422 495
#     4  12  28  48  74 119 163 213 269 340 424 496
#
# _framework density 22.747373
#
# number of rings (size 3 to 8) (size 9 to 14) (size 15 to 20)
#    0.000    0.000    7.500    2.250    0.000    0.000 
#    4.500    0.000    0.000    0.000    0.000    0.000 
#    0.000    0.000    0.000    0.000    0.000    0.000 
#
# Total GULP energy -178484.137169 kJ/mol
# GULP energy per Si atom -5577.629287 kJ/mol
# Density = 2.269560 g / cm^3
# Si number density = 22.747373 Si / 1000 Ang^3
#
#
#
# Elastic Constant Matrix: (Units=GPa)
#
#
# Indices 1 2 3 4 5 6 
#
# 1 193.9598 57.9889 69.8415 0.0000 0.0000 0.0000
# 2 57.9889 193.9601 69.8417 0.0000 0.0000 0.0000
# 3 69.8415 69.8417 134.3713 0.0000 0.0000 0.0000
# 4 0.0000 0.0000 0.0000 51.9617 0.0000 0.0000
# 5 0.0000 0.0000 0.0000 0.0000 51.9633 0.0000
# 6 0.0000 0.0000 0.0000 0.0000 0.0000 52.8934
#
#
#
# Elastic Compliance Matrix: (Units=1/GPa)
#
#
# Indices 1 2 3 4 5 6 
#
# 1 0.006465 -0.000889 -0.002898 0.000000 0.000000 0.000000
# 2 -0.000889 0.006465 -0.002898 0.000000 0.000000 0.000000
# 3 -0.002898 -0.002898 0.010455 0.000000 0.000000 0.000000
# 4 0.000000 0.000000 0.000000 0.019245 0.000000 0.000000
# 5 0.000000 0.000000 0.000000 0.000000 0.019244 0.000000
# 6 0.000000 0.000000 0.000000 0.000000 0.000000 0.018906
#
#
# Mechanical properties :
#
#
# Convention : Reuss Voigt Hill
#
# Bulk Modulus (GPa) = 99.86113 101.95947 100.91030
# Shear Modulus (GPa) = 51.28761 53.00495 52.14628
#
# Velocity S-wave (km/s) = 4.75348 4.83241 4.79310
# Velocity P-wave (km/s) = 8.60946 8.72101 8.66541
#
# Compressibility (1/GPa) = 0.01001391
#
# Stress axis : x y z
#
# Youngs Moduli (GPa) = 154.67532 154.67532 95.65032
#
# Poissons Ratio (x) = 0.13756 0.27720
# Poissons Ratio (y) = 0.13756 0.27721
# Poissons Ratio (z) = 0.44827 0.44827
#
# Static dielectric constant tensor:
#      x y z
#    x 1.913490 0.000000 0.000000 
#    y 0.000000 1.913460 0.000000 
#    z 0.000000 0.000000 1.972550 
# 
# From -- ./inp_files/5593.got.cif
#   From: 2010.05.17/outbox.cif.g08.bks.cpg/sg141_3_cif.got.tgz:5593.got - 2010.05.20 13:30:51.
