data_PCOD9573861
_publ_section_title
;
Structure prediction by ZEFSAII (Michael W. Deem and Ramdas Pophale) SiO2 
 PCOD9573861
Probable space group: I 41/A C D
;
_chemical_formula_sum "Si O2"
_cell_formula_units_Z 160
_cell_length_a 24.434859
_cell_length_b 24.434859
_cell_length_c 12.961761
_cell_angle_alpha 90.000000
_cell_angle_beta 90.000000
_cell_angle_gamma 90.000000
_cell_volume 7738.979280
_symmetry_space_group_name_H-M "I 41/A C D"
_symmetry_group_IT_number 142
_space_group.IT_coordinate_system_code '2'
_symmetry_cell_setting 'tetragonal'
loop_
_space_group_symop_operation_xyz
x,y,z
1/4-y,3/4+x,1/4+z
-x,1/2-y,z
1/4+y,1/4-x,3/4+z
x,-y,1/2-z
1/2-x,y,-z
3/4+y,1/4+x,1/4-z
1/4-y,1/4-x,1/4-z
-x,-y,-z
3/4+y,1/4-x,3/4-z
x,1/2+y,-z
3/4-y,3/4+x,1/4-z
-x,y,1/2+z
1/2+x,-y,z
1/4-y,3/4-x,3/4+z
3/4+y,3/4+x,3/4+z
1/2+x,1/2+y,1/2+z
3/4-y,1/4+x,3/4+z
1/2-x,-y,1/2+z
3/4+y,3/4-x,1/4+z
1/2+x,1/2-y,-z
-x,1/2+y,1/2-z
1/4+y,3/4+x,3/4-z
3/4-y,3/4-x,3/4-z
1/2-x,1/2-y,1/2-z
1/4+y,3/4-x,1/4-z
1/2+x,y,1/2-z
1/4-y,1/4+x,3/4-z
1/2-x,1/2+y,z
x,1/2-y,1/2+z
3/4-y,1/4-x,1/4+z
1/4+y,1/4+x,1/4+z
loop_
_atom_site_type_symbol
_atom_site_label
_atom_site_fract_x
_atom_site_fract_y
_atom_site_fract_z
Si Si1 0.750000 0.427154 0.500000
Si Si2 0.165717 0.317191 0.701888
Si Si3 0.454506 0.145598 0.754010
Si Si4 0.344682 0.293571 0.718389
Si Si5 0.738693 0.611380 0.229486
Si Si6 0.945416 0.195416 0.125000
O O1 0.697500 0.466202 0.513612
O O2 0.741507 0.391932 0.395763
O O3 0.155330 0.304747 0.581928
O O4 0.104128 0.324865 0.744804
O O5 0.186787 0.262092 0.753745
O O6 0.202996 0.368843 0.727216
O O7 0.465123 0.122910 0.641572
O O8 0.501469 0.185063 0.801433
O O9 0.304328 0.344506 0.727916
O O10 0.392829 0.303660 0.801050
#
# Coordination Sequence:
#
# PCOD9573861 Si02
#       6
#    16  32  32  32  32  16
#     4  10  24  42  68  90 120 174 220 280 336 390
#     4  10  23  39  59  91 129 165 206 263 328 393
#     4  10  22  39  62  93 127 168 211 259 325 397
#     4  11  22  39  65  93 125 170 215 271 328 384
#     4  11  23  42  63  93 125 163 222 273 333 404
#     4  10  22  41  62  92 128 168 220 266 316 390
#
# _framework density 20.674561000000001
#
# number of rings (size 3 to 8) (size 9 to 14) (size 15 to 20)
#    0.000    1.600    0.000    4.200    0.000   13.600 
#    0.000    6.000    0.000    0.000    0.000    0.000 
#    0.000    0.000    0.000    0.000    0.000    0.000 
#
# Total GULP energy -446752.954362 kJ/mol
# GULP energy per Si atom -5584.411930 kJ/mol
# Density = 2.062750 g / cm^3
# Si number density = 20.674561 Si / 1000 Ang^3
#
#
#
# Elastic Constant Matrix: (Units=GPa)
#
#
# Indices 1 2 3 4 5 6 
#
# 1 101.2771 33.5932 20.3151 0.0000 0.0000 0.0000
# 2 33.5932 101.2771 20.3151 0.0000 0.0000 0.0000
# 3 20.3151 20.3151 116.3164 0.0000 0.0000 0.0000
# 4 0.0000 0.0000 0.0000 21.6081 0.0000 0.0000
# 5 0.0000 0.0000 0.0000 0.0000 21.6081 0.0000
# 6 0.0000 0.0000 0.0000 0.0000 0.0000 42.5246
#
#
#
# Elastic Compliance Matrix: (Units=1/GPa)
#
#
# Indices 1 2 3 4 5 6 
#
# 1 0.011300 -0.003474 -0.001367 0.000000 0.000000 0.000000
# 2 -0.003474 0.011300 -0.001367 0.000000 0.000000 0.000000
# 3 -0.001367 -0.001367 0.009075 0.000000 0.000000 0.000000
# 4 0.000000 0.000000 0.000000 0.046279 0.000000 0.000000
# 5 0.000000 0.000000 0.000000 0.000000 0.046279 0.000000
# 6 0.000000 0.000000 0.000000 0.000000 0.000000 0.023516
#
#
# Mechanical properties :
#
#
# Convention : Reuss Voigt Hill
#
# Bulk Modulus (GPa) = 51.92176 51.92417 51.92296
# Shear Modulus (GPa) = 30.01472 33.45798 31.73635
#
# Velocity S-wave (km/s) = 3.81434 4.02719 3.92221
# Velocity P-wave (km/s) = 6.67588 6.84061 6.75874
#
# Compressibility (1/GPa) = 0.01925975
#
# Stress axis : x y z
#
# Youngs Moduli (GPa) = 88.49215 88.49215 110.19636
#
# Poissons Ratio (x) = 0.30743 0.15063
# Poissons Ratio (y) = 0.30743 0.15063
# Poissons Ratio (z) = 0.12096 0.12096
#
# Static dielectric constant tensor:
#      x y z
#    x 1.758210 0.000000 0.000000 
#    y 0.000000 1.758210 0.000000 
#    z 0.000000 0.000000 1.759870 
# 
# From -- ./inp_files/5491.got.cif
#   From: 2010.05.17/outbox.cif.g08.bks.cpg/sg142_3_cif.got.tgz:5491.got - 2010.05.20 13:39:18.
