data_PCOD9573115
_publ_section_title
;
Structure prediction by ZEFSAII (Michael W. Deem and Ramdas Pophale) SiO2 
 PCOD9573115
Probable space group: I 41/A M D
;
_chemical_formula_sum "Si O2"
_cell_formula_units_Z 176
_cell_length_a 19.079285
_cell_length_b 19.079285
_cell_length_c 26.439087
_cell_angle_alpha 90.000000
_cell_angle_beta 90.000000
_cell_angle_gamma 90.000000
_cell_volume 9624.333081
_symmetry_space_group_name_H-M "I 41/A M D"
_symmetry_group_IT_number 141
_space_group.IT_coordinate_system_code '2'
_symmetry_cell_setting 'tetragonal'
loop_
_space_group_symop_operation_xyz
x,y,z
1/4-y,3/4+x,1/4+z
-x,1/2-y,z
1/4+y,1/4-x,3/4+z
x,-y,-z
-x,1/2+y,-z
1/4+y,3/4+x,1/4-z
1/4-y,1/4-x,3/4-z
-x,-y,-z
3/4+y,1/4-x,3/4-z
x,1/2+y,-z
3/4-y,3/4+x,1/4-z
-x,y,z
x,1/2-y,z
3/4-y,1/4-x,3/4+z
3/4+y,3/4+x,1/4+z
1/2+x,1/2+y,1/2+z
3/4-y,1/4+x,3/4+z
1/2-x,-y,1/2+z
3/4+y,3/4-x,1/4+z
1/2+x,1/2-y,1/2-z
1/2-x,y,1/2-z
3/4+y,1/4+x,3/4-z
3/4-y,3/4-x,1/4-z
1/2-x,1/2-y,1/2-z
1/4+y,3/4-x,1/4-z
1/2+x,y,1/2-z
1/4-y,1/4+x,3/4-z
1/2-x,1/2+y,1/2+z
1/2+x,-y,1/2+z
1/4-y,3/4-x,1/4+z
1/4+y,1/4+x,3/4+z
loop_
_atom_site_type_symbol
_atom_site_label
_atom_site_fract_x
_atom_site_fract_y
_atom_site_fract_z
Si Si1 0.817269 0.829999 0.546886
Si Si2 0.823886 0.831300 0.278489
Si Si3 0.078573 0.165848 0.538136
Si Si4 0.638462 0.548514 0.641401
Si Si5 0.703026 0.453026 0.125000
Si Si6 0.919718 0.060868 0.783095
O O1 0.824097 0.750000 0.565834
O O2 0.887199 0.850449 0.516146
O O3 0.801116 0.887175 0.588327
O O4 0.753652 0.830578 0.506777
O O5 0.847460 0.750000 0.285858
O O6 0.750000 0.829475 0.250000
O O7 0.809705 0.868155 0.332765
O O8 0.875397 0.877409 0.243151
O O9 0.076190 0.250000 0.540925
O O10 0.134105 0.141585 0.579541
O O11 0.000000 0.138153 0.544682
O O12 0.721345 0.548441 0.651138
O O13 0.608820 0.476504 0.665864
O O14 0.000000 0.083042 0.791047
#
# Coordination Sequence:
#
# PCOD9573115 Si02
#       6
#    32  32  32  32  16  32
#     4   9  20  37  54  82 120 156 198 247 298 354
#     4  11  23  39  61  91 122 154 203 255 304 372
#     4   9  19  37  60  84 116 158 199 246 308 366
#     4  11  22  38  61  88 120 159 205 254 307 364
#     4  12  22  34  60  87 116 167 208 250 300 368
#     4  10  21  39  61  84 120 160 196 249 315 370
#
# _framework density 18.286981000000001
#
# number of rings (size 3 to 8) (size 9 to 14) (size 15 to 20)
#    0.000    1.818    1.818    3.818    0.000    4.727 
#    0.000    0.909    0.000    0.000    0.000    2.545 
#    0.000    0.000    0.000    0.000    0.000    0.000 
#
# Total GULP energy -490772.857664 kJ/mol
# GULP energy per Si atom -5576.964292 kJ/mol
# Density = 1.824536 g / cm^3
# Si number density = 18.286981 Si / 1000 Ang^3
#
#
#
# Elastic Constant Matrix: (Units=GPa)
#
#
# Indices 1 2 3 4 5 6 
#
# 1 81.7199 38.1479 36.3870 0.0000 0.0000 0.0000
# 2 38.1479 81.7199 36.3870 0.0000 0.0000 0.0000
# 3 36.3870 36.3870 56.8726 0.0000 0.0000 0.0000
# 4 0.0000 0.0000 0.0000 17.3084 0.0000 0.0000
# 5 0.0000 0.0000 0.0000 0.0000 17.3084 0.0000
# 6 0.0000 0.0000 0.0000 0.0000 0.0000 25.1307
#
#
#
# Elastic Compliance Matrix: (Units=1/GPa)
#
#
# Indices 1 2 3 4 5 6 
#
# 1 0.018296 -0.004655 -0.008728 0.000000 0.000000 0.000000
# 2 -0.004655 0.018296 -0.008728 0.000000 0.000000 0.000000
# 3 -0.008728 -0.008728 0.028751 0.000000 0.000000 0.000000
# 4 0.000000 0.000000 0.000000 0.057776 0.000000 0.000000
# 5 0.000000 0.000000 0.000000 0.000000 0.057776 0.000000
# 6 0.000000 0.000000 0.000000 0.000000 0.000000 0.039792
#
#
# Mechanical properties :
#
#
# Convention : Reuss Voigt Hill
#
# Bulk Modulus (GPa) = 47.34193 49.12847 48.23520
# Shear Modulus (GPa) = 18.38596 19.24218 18.81407
#
# Velocity S-wave (km/s) = 3.17426 3.24733 3.21101
# Velocity P-wave (km/s) = 6.27528 6.40186 6.33889
#
# Compressibility (1/GPa) = 0.02112293
#
# Stress axis : x y z
#
# Youngs Moduli (GPa) = 54.65712 54.65712 34.78137
#
# Poissons Ratio (x) = 0.25441 0.30356
# Poissons Ratio (y) = 0.25441 0.30356
# Poissons Ratio (z) = 0.47703 0.47703
#
# Static dielectric constant tensor:
#      x y z
#    x 1.673880 0.000000 0.000000 
#    y 0.000000 1.673880 0.000000 
#    z 0.000000 0.000000 1.722960 
# 
# From -- ./inp_files/12855.got.cif
#   From: 2010.05.17/outbox.cif.g08.bks.cpg/sg141_7_cif.got.tgz:12855.got - 2010.05.20 13:30:51.
