data_PCOD9573615
_publ_section_title
;
Structure prediction by ZEFSAII (Michael W. Deem and Ramdas Pophale) SiO2 
 PCOD9573615
Probable space group: I 41/A C D
;
_chemical_formula_sum "Si O2"
_cell_formula_units_Z 216
_cell_length_a 31.190241
_cell_length_b 31.190241
_cell_length_c 11.004518
_cell_angle_alpha 90.000000
_cell_angle_beta 90.000000
_cell_angle_gamma 90.000000
_cell_volume 10705.537721
_symmetry_space_group_name_H-M "I 41/A C D"
_symmetry_group_IT_number 142
_space_group.IT_coordinate_system_code '2'
_symmetry_cell_setting 'tetragonal'
loop_
_space_group_symop_operation_xyz
x,y,z
1/4-y,3/4+x,1/4+z
-x,1/2-y,z
1/4+y,1/4-x,3/4+z
x,-y,1/2-z
1/2-x,y,-z
3/4+y,1/4+x,1/4-z
1/4-y,1/4-x,1/4-z
-x,-y,-z
3/4+y,1/4-x,3/4-z
x,1/2+y,-z
3/4-y,3/4+x,1/4-z
-x,y,1/2+z
1/2+x,-y,z
1/4-y,3/4-x,3/4+z
3/4+y,3/4+x,3/4+z
1/2+x,1/2+y,1/2+z
3/4-y,1/4+x,3/4+z
1/2-x,-y,1/2+z
3/4+y,3/4-x,1/4+z
1/2+x,1/2-y,-z
-x,1/2+y,1/2-z
1/4+y,3/4+x,3/4-z
3/4-y,3/4-x,3/4-z
1/2-x,1/2-y,1/2-z
1/4+y,3/4-x,1/4-z
1/2+x,y,1/2-z
1/4-y,1/4+x,3/4-z
1/2-x,1/2+y,z
x,1/2-y,1/2+z
3/4-y,1/4-x,1/4+z
1/4+y,1/4+x,1/4+z
loop_
_atom_site_type_symbol
_atom_site_label
_atom_site_fract_x
_atom_site_fract_y
_atom_site_fract_z
Si Si1 0.601943 0.908346 0.885714
Si Si2 0.728998 0.978998 0.625000
Si Si3 0.656335 0.267406 0.247378
Si Si4 0.500000 0.750000 0.875000
Si Si5 0.748338 0.121421 0.143955
Si Si6 0.047964 0.669503 0.002807
Si Si7 0.801757 0.272470 0.494254
Si Si8 0.113985 0.411980 0.015648
O O1 0.611165 0.953963 0.950311
O O2 0.567664 0.923785 0.783157
O O3 0.649273 0.895305 0.842676
O O4 0.581545 0.864659 0.937430
O O5 0.750000 0.993642 0.500000
O O6 0.740497 0.929012 0.643882
O O7 0.611842 0.242526 0.255800
O O8 0.682010 0.257640 0.372753
O O9 0.682352 0.254450 0.124651
O O10 0.644571 0.317075 0.243719
O O11 0.535757 0.719400 0.809694
O O12 0.788208 0.142207 0.211262
O O13 0.750000 0.131675 0.000000
O O14 0.067789 0.682212 0.875000
O O15 0.750000 0.274655 0.500000
O O16 0.138152 0.388152 0.125000
#
# Coordination Sequence:
#
# PCOD9573615 Si02
#       8
#    32  16  32   8  32  32  32  32
#     4  11  23  40  67  96 137 175 226 290 352 410
#     4  10  20  36  60  90 132 170 231 279 334 390
#     4  11  25  40  67 100 135 177 232 284 358 424
#     4  12  26  52  80 102 124 184 246 292 362 456
#     4  11  19  36  62  99 128 173 228 292 335 391
#     4  11  28  47  70  98 139 178 226 296 365 433
#     4  11  23  42  66  98 138 180 230 288 351 429
#     4  12  20  36  67  96 127 174 231 280 330 413
#
# _framework density 20.176473000000001
#
# number of rings (size 3 to 8) (size 9 to 14) (size 15 to 20)
#    0.000    0.889    3.704    3.778    6.222    2.370 
#    1.333    0.000    0.000    0.000    0.000    0.000 
#    0.000    0.000    0.000    0.000    0.000    0.000 
#
# Total GULP energy -601251.567165 kJ/mol
# GULP energy per Si atom -5567.144140 kJ/mol
# Density = 2.013055 g / cm^3
# Si number density = 20.176473 Si / 1000 Ang^3
#
#
#
# Elastic Constant Matrix: (Units=GPa)
#
#
# Indices 1 2 3 4 5 6 
#
# 1 118.7086 32.3347 38.4373 0.0000 0.0000 0.0000
# 2 32.3347 118.7142 38.4375 0.0000 0.0000 0.0000
# 3 38.4373 38.4375 83.3068 0.0000 0.0000 0.0000
# 4 0.0000 0.0000 0.0000 18.3611 0.0000 0.0000
# 5 0.0000 0.0000 0.0000 0.0000 18.3595 0.0000
# 6 0.0000 0.0000 0.0000 0.0000 0.0000 29.7296
#
#
#
# Elastic Compliance Matrix: (Units=1/GPa)
#
#
# Indices 1 2 3 4 5 6 
#
# 1 0.010115 -0.001462 -0.003992 0.000000 0.000000 0.000000
# 2 -0.001462 0.010114 -0.003992 0.000000 0.000000 0.000000
# 3 -0.003992 -0.003992 0.015688 0.000000 0.000000 0.000000
# 4 0.000000 0.000000 0.000000 0.054463 0.000000 0.000000
# 5 0.000000 0.000000 0.000000 0.000000 0.054468 0.000000
# 6 0.000000 0.000000 0.000000 0.000000 0.000000 0.033636
#
#
# Mechanical properties :
#
#
# Convention : Reuss Voigt Hill
#
# Bulk Modulus (GPa) = 58.74134 59.90539 59.32337
# Shear Modulus (GPa) = 24.62419 27.39139 26.00779
#
# Velocity S-wave (km/s) = 3.49727 3.68855 3.59418
# Velocity P-wave (km/s) = 6.74425 6.92067 6.83303
#
# Compressibility (1/GPa) = 0.01702379
#
# Stress axis : x y z
#
# Youngs Moduli (GPa) = 98.86294 98.86829 63.74407
#
# Poissons Ratio (x) = 0.14459 0.25448
# Poissons Ratio (y) = 0.14458 0.25447
# Poissons Ratio (z) = 0.39469 0.39468
#
# Static dielectric constant tensor:
#      x y z
#    x 1.788950 0.000000 0.000000 
#    y 0.000000 1.788950 0.000000 
#    z 0.000000 0.000000 1.768650 
# 
# From -- ./inp_files/4247.got.cif
#   From: 2010.05.17/outbox.cif.g08.bks.cpg/sg142_3_cif.got.tgz:4247.got - 2010.05.20 13:39:18.
