data_PCOD9573287
_publ_section_title
;
Structure prediction by ZEFSAII (Michael W. Deem and Ramdas Pophale) SiO2 
 PCOD9573287
Probable space group: I 41/A M D
;
_chemical_formula_sum "Si O2"
_cell_formula_units_Z 192
_cell_length_a 17.880839
_cell_length_b 17.880839
_cell_length_c 28.928585
_cell_angle_alpha 90.000000
_cell_angle_beta 90.000000
_cell_angle_gamma 90.000000
_cell_volume 9249.174579
_symmetry_space_group_name_H-M "I 41/A M D"
_symmetry_group_IT_number 141
_space_group.IT_coordinate_system_code '2'
_symmetry_cell_setting 'tetragonal'
loop_
_space_group_symop_operation_xyz
x,y,z
1/4-y,3/4+x,1/4+z
-x,1/2-y,z
1/4+y,1/4-x,3/4+z
x,-y,-z
-x,1/2+y,-z
1/4+y,3/4+x,1/4-z
1/4-y,1/4-x,3/4-z
-x,-y,-z
3/4+y,1/4-x,3/4-z
x,1/2+y,-z
3/4-y,3/4+x,1/4-z
-x,y,z
x,1/2-y,z
3/4-y,1/4-x,3/4+z
3/4+y,3/4+x,1/4+z
1/2+x,1/2+y,1/2+z
3/4-y,1/4+x,3/4+z
1/2-x,-y,1/2+z
3/4+y,3/4-x,1/4+z
1/2+x,1/2-y,1/2-z
1/2-x,y,1/2-z
3/4+y,1/4+x,3/4-z
3/4-y,3/4-x,1/4-z
1/2-x,1/2-y,1/2-z
1/4+y,3/4-x,1/4-z
1/2+x,y,1/2-z
1/4-y,1/4+x,3/4-z
1/2-x,1/2+y,1/2+z
1/2+x,-y,1/2+z
1/4-y,3/4-x,1/4+z
1/4+y,1/4+x,3/4+z
loop_
_atom_site_type_symbol
_atom_site_label
_atom_site_fract_x
_atom_site_fract_y
_atom_site_fract_z
Si Si1 0.268156 0.574934 0.057902
Si Si2 0.414785 0.832461 0.819478
Si Si3 0.761806 0.597275 0.548868
Si Si4 0.584432 0.882947 0.327868
Si Si5 0.338811 0.838721 0.630699
Si Si6 0.089687 0.750000 0.339902
Si Si7 0.000000 0.657789 0.014523
O O1 0.243335 0.488877 0.058137
O O2 0.210025 0.623100 0.086872
O O3 0.352410 0.573675 0.078015
O O4 0.255648 0.607872 0.006235
O O5 0.419068 0.830933 0.875000
O O6 0.500000 0.845148 0.802431
O O7 0.389981 0.750000 0.803765
O O8 0.362675 0.900776 0.807401
O O9 0.714274 0.645111 0.585935
O O10 0.500000 0.900898 0.314113
O O11 0.586808 0.836808 0.375000
O O12 0.617094 0.826091 0.289755
O O13 0.332309 0.750000 0.642375
O O14 0.423573 0.857352 0.615736
O O15 0.119211 0.750000 0.287893
O O16 0.000000 0.750000 0.335263
O O17 0.000000 0.750000 0.016697
#
# Coordination Sequence:
#
# PCOD9573287 Si02
#       7
#    32  32  32  32  32  16  16
#     4  11  26  41  61  94 129 170 219 278 334 398
#     4   9  18  34  60  93 122 155 206 270 330 388
#     4  11  23  42  63  89 129 173 221 267 334 410
#     4  11  21  37  62  92 125 157 203 265 330 389
#     4  11  23  43  67  91 129 178 226 273 338 407
#     4   9  20  38  59  87 121 164 213 265 311 382
#     4   9  18  34  61  91 121 157 208 260 322 407
#
# _framework density 20.758607999999999
#
# number of rings (size 3 to 8) (size 9 to 14) (size 15 to 20)
#    0.000    1.667    0.833    4.500    1.167    5.333 
#    0.000    1.667    0.000    4.000    0.000    0.000 
#    0.000    0.000    0.000    0.000    0.000    0.000 
#
# Total GULP energy -535459.649339 kJ/mol
# GULP energy per Si atom -5577.704681 kJ/mol
# Density = 2.071136 g / cm^3
# Si number density = 20.758608 Si / 1000 Ang^3
#
#
#
# Elastic Constant Matrix: (Units=GPa)
#
#
# Indices 1 2 3 4 5 6 
#
# 1 85.3185 25.0803 11.3943 0.0000 0.0000 0.0000
# 2 25.0803 85.3184 11.3943 0.0000 0.0000 0.0000
# 3 11.3943 11.3943 49.4476 0.0000 0.0000 0.0000
# 4 0.0000 0.0000 0.0000 7.2673 0.0000 0.0000
# 5 0.0000 0.0000 0.0000 0.0000 7.2663 0.0000
# 6 0.0000 0.0000 0.0000 0.0000 0.0000 22.4902
#
#
#
# Elastic Compliance Matrix: (Units=1/GPa)
#
#
# Indices 1 2 3 4 5 6 
#
# 1 0.013056 -0.003545 -0.002192 0.000000 0.000000 0.000000
# 2 -0.003545 0.013056 -0.002192 0.000000 0.000000 0.000000
# 3 -0.002192 -0.002192 0.021233 0.000000 0.000000 0.000000
# 4 0.000000 0.000000 0.000000 0.137602 0.000000 0.000000
# 5 0.000000 0.000000 0.000000 0.000000 0.137622 0.000000
# 6 0.000000 0.000000 0.000000 0.000000 0.000000 0.044464
#
#
# Mechanical properties :
#
#
# Convention : Reuss Voigt Hill
#
# Bulk Modulus (GPa) = 31.75789 35.09138 33.42463
# Shear Modulus (GPa) = 12.71020 18.88580 15.79800
#
# Velocity S-wave (km/s) = 2.47713 3.01953 2.76168
# Velocity P-wave (km/s) = 4.84906 5.39425 5.12891
#
# Compressibility (1/GPa) = 0.03148824
#
# Stress axis : x y z
#
# Youngs Moduli (GPa) = 76.59544 76.59543 47.09560
#
# Poissons Ratio (x) = 0.27154 0.10321
# Poissons Ratio (y) = 0.27154 0.10321
# Poissons Ratio (z) = 0.16786 0.16786
#
# Static dielectric constant tensor:
#      x y z
#    x 1.773520 0.000000 0.000000 
#    y 0.000000 1.773520 0.000000 
#    z 0.000000 0.000000 1.835080 
# 
# From -- ./inp_files/14478.got.cif
#   From: 2010.05.17/outbox.cif.g08.bks.cpg/sg141_8_cif.got.tgz:14478.got - 2010.05.20 13:30:51.
