data_PCOD9573794
_publ_section_title
;
Structure prediction by ZEFSAII (Michael W. Deem and Ramdas Pophale) SiO2 
 PCOD9573794
Probable space group: I 41/A C D
;
_chemical_formula_sum "Si O2"
_cell_formula_units_Z 120
_cell_length_a 14.620713
_cell_length_b 14.620713
_cell_length_c 26.253706
_cell_angle_alpha 90.000000
_cell_angle_beta 90.000000
_cell_angle_gamma 90.000000
_cell_volume 5612.129991
_symmetry_space_group_name_H-M "I 41/A C D"
_symmetry_group_IT_number 142
_space_group.IT_coordinate_system_code '2'
_symmetry_cell_setting 'tetragonal'
loop_
_space_group_symop_operation_xyz
x,y,z
1/4-y,3/4+x,1/4+z
-x,1/2-y,z
1/4+y,1/4-x,3/4+z
x,-y,1/2-z
1/2-x,y,-z
3/4+y,1/4+x,1/4-z
1/4-y,1/4-x,1/4-z
-x,-y,-z
3/4+y,1/4-x,3/4-z
x,1/2+y,-z
3/4-y,3/4+x,1/4-z
-x,y,1/2+z
1/2+x,-y,z
1/4-y,3/4-x,3/4+z
3/4+y,3/4+x,3/4+z
1/2+x,1/2+y,1/2+z
3/4-y,1/4+x,3/4+z
1/2-x,-y,1/2+z
3/4+y,3/4-x,1/4+z
1/2+x,1/2-y,-z
-x,1/2+y,1/2-z
1/4+y,3/4+x,3/4-z
3/4-y,3/4-x,3/4-z
1/2-x,1/2-y,1/2-z
1/4+y,3/4-x,1/4-z
1/2+x,y,1/2-z
1/4-y,1/4+x,3/4-z
1/2-x,1/2+y,z
x,1/2-y,1/2+z
3/4-y,1/4-x,1/4+z
1/4+y,1/4+x,1/4+z
loop_
_atom_site_type_symbol
_atom_site_label
_atom_site_fract_x
_atom_site_fract_y
_atom_site_fract_z
Si Si1 0.000000 0.750000 0.125000
Si Si2 0.040539 0.027535 0.102095
Si Si3 0.750000 0.795527 0.500000
Si Si4 0.406865 0.693663 0.049711
Si Si5 0.609948 0.418822 0.149428
O O1 0.079739 0.795902 0.092442
O O2 0.036183 0.098629 0.148893
O O3 0.063964 0.087584 0.052772
O O4 0.123942 0.957388 0.111987
O O5 0.944011 0.974047 0.105199
O O6 0.663091 0.729343 0.507664
O O7 0.770382 0.856296 0.549769
O O8 0.500000 0.750000 0.048827
#
# Coordination Sequence:
#
# PCOD9573794 Si02
#       5
#     8  32  16  32  32
#     4   8  16  32  60  72 112 162 196 244 312 380
#     4   9  18  37  60  88 115 162 206 253 309 384
#     4  10  22  36  58  90 126 164 206 264 322 384
#     4  10  21  40  60  84 124 165 203 254 322 378
#     4   9  18  34  58  87 115 151 208 256 307 378
#
# _framework density 21.382256000000002
#
# number of rings (size 3 to 8) (size 9 to 14) (size 15 to 20)
#    0.000    2.667    0.000    1.600    1.867    1.067 
#   19.200    1.333    0.000    0.000    0.000    0.000 
#    0.000    0.000    0.000    0.000    0.000    0.000 
#
# Total GULP energy -334193.526451 kJ/mol
# GULP energy per Si atom -5569.892108 kJ/mol
# Density = 2.133359 g / cm^3
# Si number density = 21.382256 Si / 1000 Ang^3
#
#
#
# Elastic Constant Matrix: (Units=GPa)
#
#
# Indices 1 2 3 4 5 6 
#
# 1 135.0842 56.3388 17.2986 0.0000 0.0000 0.0000
# 2 56.3388 135.0842 17.2986 0.0000 0.0000 0.0000
# 3 17.2986 17.2986 33.2467 0.0000 0.0000 0.0000
# 4 0.0000 0.0000 0.0000 -5.7868 0.0000 0.0000
# 5 0.0000 0.0000 0.0000 0.0000 -5.7868 0.0000
# 6 0.0000 0.0000 0.0000 0.0000 0.0000 24.7043
#
#
#
# Elastic Compliance Matrix: (Units=1/GPa)
#
#
# Indices 1 2 3 4 5 6 
#
# 1 0.009233 -0.003466 -0.003000 0.000000 0.000000 0.000000
# 2 -0.003466 0.009233 -0.003000 0.000000 0.000000 0.000000
# 3 -0.003000 -0.003000 0.033200 0.000000 0.000000 0.000000
# 4 0.000000 0.000000 0.000000 -0.172807 0.000000 0.000000
# 5 0.000000 0.000000 0.000000 0.000000 -0.172807 0.000000
# 6 0.000000 0.000000 0.000000 0.000000 0.000000 0.040479
#
#
# Mechanical properties :
#
#
# Convention : Reuss Voigt Hill
#
# Bulk Modulus (GPa) = 30.55127 53.92077 42.23602
# Shear Modulus (GPa) = -22.35892 16.79141 -2.78376
#
# Velocity S-wave (km/s) = -3.23720 2.80535 -1.14225
# Velocity P-wave (km/s) = 0.58867 5.98044 4.24924
#
# Compressibility (1/GPa) = 0.03273186
#
# Stress axis : x y z
#
# Youngs Moduli (GPa) = 108.31038 108.31038 30.12017
#
# Poissons Ratio (x) = 0.37545 0.09037
# Poissons Ratio (y) = 0.37545 0.09037
# Poissons Ratio (z) = 0.32496 0.32496
#
# Static dielectric constant tensor:
#      x y z
#    x 1.805850 0.000000 0.000000 
#    y 0.000000 1.805850 0.000000 
#    z 0.000000 0.000000 1.878730 
# 
# From -- ./inp_files/12280.got.cif
#   From: 2010.05.17/outbox.cif.g08.bks.cpg/sg142_7_cif.got.tgz:12280.got - 2010.05.20 13:39:18.
