data_PCOD9573339
_publ_section_title
;
Structure prediction by ZEFSAII (Michael W. Deem and Ramdas Pophale) SiO2 
 PCOD9573339
Probable space group: I 41/A M D
;
_chemical_formula_sum "Si O2"
_cell_formula_units_Z 176
_cell_length_a 26.482767
_cell_length_b 26.482767
_cell_length_c 12.584379
_cell_angle_alpha 90.000000
_cell_angle_beta 90.000000
_cell_angle_gamma 90.000000
_cell_volume 8825.889960
_symmetry_space_group_name_H-M "I 41/A M D"
_symmetry_group_IT_number 141
_space_group.IT_coordinate_system_code '2'
_symmetry_cell_setting 'tetragonal'
loop_
_space_group_symop_operation_xyz
x,y,z
1/4-y,3/4+x,1/4+z
-x,1/2-y,z
1/4+y,1/4-x,3/4+z
x,-y,-z
-x,1/2+y,-z
1/4+y,3/4+x,1/4-z
1/4-y,1/4-x,3/4-z
-x,-y,-z
3/4+y,1/4-x,3/4-z
x,1/2+y,-z
3/4-y,3/4+x,1/4-z
-x,y,z
x,1/2-y,z
3/4-y,1/4-x,3/4+z
3/4+y,3/4+x,1/4+z
1/2+x,1/2+y,1/2+z
3/4-y,1/4+x,3/4+z
1/2-x,-y,1/2+z
3/4+y,3/4-x,1/4+z
1/2+x,1/2-y,1/2-z
1/2-x,y,1/2-z
3/4+y,1/4+x,3/4-z
3/4-y,3/4-x,1/4-z
1/2-x,1/2-y,1/2-z
1/4+y,3/4-x,1/4-z
1/2+x,y,1/2-z
1/4-y,1/4+x,3/4-z
1/2-x,1/2+y,1/2+z
1/2+x,-y,1/2+z
1/4-y,3/4-x,1/4+z
1/4+y,1/4+x,3/4+z
loop_
_atom_site_type_symbol
_atom_site_label
_atom_site_fract_x
_atom_site_fract_y
_atom_site_fract_z
Si Si1 0.401018 0.054056 0.237324
Si Si2 0.194476 0.981217 0.236401
Si Si3 0.689979 0.307144 0.238740
Si Si4 0.768557 0.250000 0.593510
Si Si5 0.657867 0.250000 0.699843
Si Si6 0.150776 0.115644 0.094568
Si Si7 0.896562 0.853439 0.125000
O O1 0.411577 0.072568 0.118137
O O2 0.450510 0.024056 0.272370
O O3 0.393028 0.095863 0.328124
O O4 0.351689 0.018965 0.245125
O O5 0.201301 0.951301 0.125000
O O6 0.250000 0.005037 0.250000
O O7 0.181494 0.938319 0.323501
O O8 0.669645 0.250000 0.232961
O O9 0.750000 0.304246 0.250000
O O10 0.673538 0.338148 0.341027
O O11 0.711476 0.250000 0.637413
O O12 0.814983 0.250000 0.681447
O O13 0.622654 0.298072 0.667011
O O14 0.136224 0.134215 0.978491
#
# Coordination Sequence:
#
# PCOD9573339 Si02
#       7
#    32  32  32  16  16  32  16
#     4  12  24  46  70  97 143 196 249 292 348 446
#     4  12  25  40  62  95 147 195 236 289 356 431
#     4  11  25  43  68  98 137 189 247 306 359 418
#     4  11  24  46  74 103 137 203 244 294 351 448
#     4  11  26  43  75 102 146 177 244 300 373 431
#     4  12  25  41  67 101 142 180 242 297 363 431
#     4  12  26  45  72 108 132 180 236 312 374 430
#
# _framework density 19.941331000000002
#
# number of rings (size 3 to 8) (size 9 to 14) (size 15 to 20)
#    0.000    0.364    7.273    1.636    1.273    2.364 
#    0.000    0.000    0.000    0.000    0.000    0.000 
#    0.000    0.000    0.000    0.000    0.000    0.000 
#
# Total GULP energy -490701.126911 kJ/mol
# GULP energy per Si atom -5576.149169 kJ/mol
# Density = 1.989594 g / cm^3
# Si number density = 19.941331 Si / 1000 Ang^3
#
#
#
# Elastic Constant Matrix: (Units=GPa)
#
#
# Indices 1 2 3 4 5 6 
#
# 1 112.3909 50.8028 46.3691 0.0000 0.0000 0.0000
# 2 50.8028 112.3900 46.3685 0.0000 0.0000 0.0000
# 3 46.3691 46.3685 157.1534 0.0000 0.0000 0.0000
# 4 0.0000 0.0000 0.0000 14.9385 0.0000 0.0000
# 5 0.0000 0.0000 0.0000 0.0000 14.9337 0.0000
# 6 0.0000 0.0000 0.0000 0.0000 0.0000 -7.7496
#
#
#
# Elastic Compliance Matrix: (Units=1/GPa)
#
#
# Indices 1 2 3 4 5 6 
#
# 1 0.011800 -0.004437 -0.002172 0.000000 0.000000 0.000000
# 2 -0.004437 0.011800 -0.002172 0.000000 0.000000 0.000000
# 3 -0.002172 -0.002172 0.007645 0.000000 0.000000 0.000000
# 4 0.000000 0.000000 0.000000 0.066941 0.000000 0.000000
# 5 0.000000 0.000000 0.000000 0.000000 0.066962 0.000000
# 6 0.000000 0.000000 0.000000 0.000000 0.000000 -0.129040
#
#
# Mechanical properties :
#
#
# Convention : Reuss Voigt Hill
#
# Bulk Modulus (GPa) = 73.09736 74.33502 73.71619
# Shear Modulus (GPa) = 85.86327 20.31747 53.09037
#
# Velocity S-wave (km/s) = 6.56897 3.19542 5.16537
# Velocity P-wave (km/s) = 9.70933 7.13948 8.52183
#
# Compressibility (1/GPa) = 0.01368038
#
# Stress axis : x y z
#
# Youngs Moduli (GPa) = 84.74915 84.74870 130.80348
#
# Poissons Ratio (x) = 0.37607 0.28414
# Poissons Ratio (y) = 0.37607 0.28413
# Poissons Ratio (z) = 0.18410 0.18409
#
# Static dielectric constant tensor:
#      x y z
#    x 1.721560 0.000000 0.000000 
#    y 0.000000 1.721560 0.000000 
#    z 0.000000 0.000000 2.015910 
# 
# From -- ./inp_files/5085.got.cif
#   From: 2010.05.17/outbox.cif.g08.bks.cpg/sg141_3_cif.got.tgz:5085.got - 2010.05.20 13:30:51.
