data_PCOD9573221
_publ_section_title
;
Structure prediction by ZEFSAII (Michael W. Deem and Ramdas Pophale) SiO2 
 PCOD9573221
Probable space group: I 41/A M D
;
_chemical_formula_sum "Si O2"
_cell_formula_units_Z 128
_cell_length_a 20.600761
_cell_length_b 20.600761
_cell_length_c 14.049532
_cell_angle_alpha 90.000000
_cell_angle_beta 90.000000
_cell_angle_gamma 90.000000
_cell_volume 5962.499905
_symmetry_space_group_name_H-M "I 41/A M D"
_symmetry_group_IT_number 141
_space_group.IT_coordinate_system_code '2'
_symmetry_cell_setting 'tetragonal'
loop_
_space_group_symop_operation_xyz
x,y,z
1/4-y,3/4+x,1/4+z
-x,1/2-y,z
1/4+y,1/4-x,3/4+z
x,-y,-z
-x,1/2+y,-z
1/4+y,3/4+x,1/4-z
1/4-y,1/4-x,3/4-z
-x,-y,-z
3/4+y,1/4-x,3/4-z
x,1/2+y,-z
3/4-y,3/4+x,1/4-z
-x,y,z
x,1/2-y,z
3/4-y,1/4-x,3/4+z
3/4+y,3/4+x,1/4+z
1/2+x,1/2+y,1/2+z
3/4-y,1/4+x,3/4+z
1/2-x,-y,1/2+z
3/4+y,3/4-x,1/4+z
1/2+x,1/2-y,1/2-z
1/2-x,y,1/2-z
3/4+y,1/4+x,3/4-z
3/4-y,3/4-x,1/4-z
1/2-x,1/2-y,1/2-z
1/4+y,3/4-x,1/4-z
1/2+x,y,1/2-z
1/4-y,1/4+x,3/4-z
1/2-x,1/2+y,1/2+z
1/2+x,-y,1/2+z
1/4-y,3/4-x,1/4+z
1/4+y,1/4+x,3/4+z
loop_
_atom_site_type_symbol
_atom_site_label
_atom_site_fract_x
_atom_site_fract_y
_atom_site_fract_z
Si Si1 0.000000 0.478377 0.610551
Si Si2 0.636858 0.973403 0.805911
Si Si3 0.072352 0.110258 0.156437
Si Si4 0.000000 0.824487 0.402725
Si Si5 0.859562 0.426482 0.982490
O O1 0.000000 0.500000 0.500000
O O2 0.933626 0.507822 0.652625
O O3 0.000000 0.400435 0.632666
O O4 0.678729 0.928729 0.875000
O O5 0.622859 0.934755 0.709280
O O6 0.673352 0.039030 0.780426
O O7 0.073269 0.180895 0.204672
O O8 0.000000 0.083076 0.161906
O O9 0.093185 0.117871 0.046616
O O10 0.000000 0.750000 0.354731
O O11 0.848767 0.401234 0.875000
O O12 0.884251 0.500000 0.000000
#
# Coordination Sequence:
#
# PCOD9573221 Si02
#       5
#    16  32  32  16  32
#     4  12  24  44  72 100 138 187 233 282 361 432
#     4  12  26  42  70 102 136 176 228 288 350 420
#     4  11  24  46  67  98 136 179 228 284 343 414
#     4  10  22  42  72  93 137 180 226 285 347 412
#     4  12  25  43  67  98 135 178 225 284 349 408
#
# _framework density 21.467506
#
# number of rings (size 3 to 8) (size 9 to 14) (size 15 to 20)
#    0.000    0.500    6.250    2.250    0.000    0.500 
#    4.500    0.000    2.750    0.000    0.000    0.000 
#    0.000    0.000    0.000    0.000    0.000    0.000 
#
# Total GULP energy -356824.561560 kJ/mol
# GULP energy per Si atom -5575.383774 kJ/mol
# Density = 2.141865 g / cm^3
# Si number density = 21.467506 Si / 1000 Ang^3
#
#
#
# Elastic Constant Matrix: (Units=GPa)
#
#
# Indices 1 2 3 4 5 6 
#
# 1 84.3622 14.7162 14.2681 0.0000 0.0000 0.0000
# 2 14.7162 84.3626 14.2683 0.0000 0.0000 0.0000
# 3 14.2681 14.2683 101.7259 0.0000 0.0000 0.0000
# 4 0.0000 0.0000 0.0000 20.8558 0.0000 0.0000
# 5 0.0000 0.0000 0.0000 0.0000 20.8555 0.0000
# 6 0.0000 0.0000 0.0000 0.0000 0.0000 34.1022
#
#
#
# Elastic Compliance Matrix: (Units=1/GPa)
#
#
# Indices 1 2 3 4 5 6 
#
# 1 0.012438 -0.001920 -0.001475 0.000000 0.000000 0.000000
# 2 -0.001920 0.012438 -0.001475 0.000000 0.000000 0.000000
# 3 -0.001475 -0.001475 0.010244 0.000000 0.000000 0.000000
# 4 0.000000 0.000000 0.000000 0.047948 0.000000 0.000000
# 5 0.000000 0.000000 0.000000 0.000000 0.047949 0.000000
# 6 0.000000 0.000000 0.000000 0.000000 0.000000 0.029324
#
#
# Mechanical properties :
#
#
# Convention : Reuss Voigt Hill
#
# Bulk Modulus (GPa) = 39.40272 39.66177 39.53224
# Shear Modulus (GPa) = 28.00458 30.30925 29.15691
#
# Velocity S-wave (km/s) = 3.61572 3.76156 3.68936
# Velocity P-wave (km/s) = 5.98545 6.11401 6.05007
#
# Compressibility (1/GPa) = 0.02537896
#
# Stress axis : x y z
#
# Youngs Moduli (GPa) = 80.39800 80.39840 97.61644
#
# Poissons Ratio (x) = 0.15438 0.14401
# Poissons Ratio (y) = 0.15438 0.14401
# Poissons Ratio (z) = 0.11861 0.11861
#
# Static dielectric constant tensor:
#      x y z
#    x 1.791880 0.000000 0.000000 
#    y 0.000000 1.791880 0.000000 
#    z 0.000000 0.000000 1.816950 
# 
# From -- ./inp_files/6236.got.cif
#   From: 2010.05.17/outbox.cif.g08.bks.cpg/sg141_4_cif.got.tgz:6236.got - 2010.05.20 13:30:51.
