data_PCOD9573374
_publ_section_title
;
Structure prediction by ZEFSAII (Michael W. Deem and Ramdas Pophale) SiO2 
 PCOD9573374
Probable space group: I 41/A M D
;
_chemical_formula_sum "Si O2"
_cell_formula_units_Z 160
_cell_length_a 19.407821
_cell_length_b 19.407821
_cell_length_c 21.306173
_cell_angle_alpha 90.000000
_cell_angle_beta 90.000000
_cell_angle_gamma 90.000000
_cell_volume 8025.258034
_symmetry_space_group_name_H-M "I 41/A M D"
_symmetry_group_IT_number 141
_space_group.IT_coordinate_system_code '2'
_symmetry_cell_setting 'tetragonal'
loop_
_space_group_symop_operation_xyz
x,y,z
1/4-y,3/4+x,1/4+z
-x,1/2-y,z
1/4+y,1/4-x,3/4+z
x,-y,-z
-x,1/2+y,-z
1/4+y,3/4+x,1/4-z
1/4-y,1/4-x,3/4-z
-x,-y,-z
3/4+y,1/4-x,3/4-z
x,1/2+y,-z
3/4-y,3/4+x,1/4-z
-x,y,z
x,1/2-y,z
3/4-y,1/4-x,3/4+z
3/4+y,3/4+x,1/4+z
1/2+x,1/2+y,1/2+z
3/4-y,1/4+x,3/4+z
1/2-x,-y,1/2+z
3/4+y,3/4-x,1/4+z
1/2+x,1/2-y,1/2-z
1/2-x,y,1/2-z
3/4+y,1/4+x,3/4-z
3/4-y,3/4-x,1/4-z
1/2-x,1/2-y,1/2-z
1/4+y,3/4-x,1/4-z
1/2+x,y,1/2-z
1/4-y,1/4+x,3/4-z
1/2-x,1/2+y,1/2+z
1/2+x,-y,1/2+z
1/4-y,3/4-x,1/4+z
1/4+y,1/4+x,3/4+z
loop_
_atom_site_type_symbol
_atom_site_label
_atom_site_fract_x
_atom_site_fract_y
_atom_site_fract_z
Si Si1 0.303457 0.668332 0.945856
Si Si2 0.421213 0.330753 0.763998
Si Si3 0.916929 0.543341 0.189133
Si Si4 0.219373 0.166549 0.683830
Si Si5 0.305986 0.168767 0.197501
O O1 0.316856 0.750000 0.953614
O O2 0.279447 0.658038 0.873919
O O3 0.371910 0.623364 0.954616
O O4 0.248363 0.646686 0.998267
O O5 0.500000 0.346470 0.783541
O O6 0.417179 0.250000 0.748679
O O7 0.403612 0.376867 0.703652
O O8 0.362662 0.345848 0.815169
O O9 0.888297 0.508508 0.126668
O O10 0.000000 0.537543 0.185058
O O11 0.227737 0.250000 0.684201
O O12 0.250000 0.141356 0.750000
O O13 0.322026 0.250000 0.203998
O O14 0.250000 0.150524 0.250000
#
# Coordination Sequence:
#
# PCOD9573374 Si02
#       5
#    32  32  32  32  32
#     4   9  18  33  53  77 107 144 181 219 271 331
#     4   9  18  34  57  83 108 140 189 240 277 323
#     4   9  18  33  52  76 109 145 178 220 277 330
#     4   9  18  33  51  73 106 143 175 216 275 331
#     4   9  18  33  54  80 109 141 179 224 272 324
#
# _framework density 19.937054
#
# number of rings (size 3 to 8) (size 9 to 14) (size 15 to 20)
#    0.000    3.000    0.000    0.000    0.000    2.800 
#    0.000    9.000    0.000   12.000    0.000    0.000 
#    0.000    0.000    0.000    0.000    0.000    0.000 
#
# Total GULP energy -445959.650812 kJ/mol
# GULP energy per Si atom -5574.495635 kJ/mol
# Density = 1.989168 g / cm^3
# Si number density = 19.937054 Si / 1000 Ang^3
#
#
#
# Elastic Constant Matrix: (Units=GPa)
#
#
# Indices 1 2 3 4 5 6 
#
# 1 49.4239 20.8045 28.1413 0.0000 0.0000 0.0000
# 2 20.8045 49.4239 28.1413 0.0000 0.0000 0.0000
# 3 28.1413 28.1413 81.1628 0.0000 0.0000 0.0000
# 4 0.0000 0.0000 0.0000 21.7833 0.0000 0.0000
# 5 0.0000 0.0000 0.0000 0.0000 21.7833 0.0000
# 6 0.0000 0.0000 0.0000 0.0000 0.0000 10.9956
#
#
#
# Elastic Compliance Matrix: (Units=1/GPa)
#
#
# Indices 1 2 3 4 5 6 
#
# 1 0.027330 -0.007611 -0.006837 0.000000 0.000000 0.000000
# 2 -0.007611 0.027330 -0.006837 0.000000 0.000000 0.000000
# 3 -0.006837 -0.006837 0.017062 0.000000 0.000000 0.000000
# 4 0.000000 0.000000 0.000000 0.045907 0.000000 0.000000
# 5 0.000000 0.000000 0.000000 0.000000 0.045907 0.000000
# 6 0.000000 0.000000 0.000000 0.000000 0.000000 0.090945
#
#
# Mechanical properties :
#
#
# Convention : Reuss Voigt Hill
#
# Bulk Modulus (GPa) = 34.30373 37.13163 35.71768
# Shear Modulus (GPa) = 16.29896 17.77403 17.03649
#
# Velocity S-wave (km/s) = 2.86233 2.98905 2.92638
# Velocity P-wave (km/s) = 5.30729 5.52969 5.41963
#
# Compressibility (1/GPa) = 0.02915134
#
# Stress axis : x y z
#
# Youngs Moduli (GPa) = 36.58989 36.58990 58.60971
#
# Poissons Ratio (x) = 0.27850 0.40071
# Poissons Ratio (y) = 0.27850 0.40071
# Poissons Ratio (z) = 0.25016 0.25016
#
# Static dielectric constant tensor:
#      x y z
#    x 1.709850 0.000000 0.000000 
#    y 0.000000 1.709850 0.000000 
#    z 0.000000 0.000000 1.715180 
# 
# From -- ./inp_files/8556.got.cif
#   From: 2010.05.17/outbox.cif.g08.bks.cpg/sg141_5_cif.got.tgz:8556.got - 2010.05.20 13:30:51.
