data_PCOD9573840
_publ_section_title
;
Structure prediction by ZEFSAII (Michael W. Deem and Ramdas Pophale) SiO2 
 PCOD9573840
Probable space group: I 41/A C D
;
_chemical_formula_sum "Si O2"
_cell_formula_units_Z 112
_cell_length_a 23.234241
_cell_length_b 23.234241
_cell_length_c 10.551222
_cell_angle_alpha 90.000000
_cell_angle_beta 90.000000
_cell_angle_gamma 90.000000
_cell_volume 5695.865696
_symmetry_space_group_name_H-M "I 41/A C D"
_symmetry_group_IT_number 142
_space_group.IT_coordinate_system_code '2'
_symmetry_cell_setting 'tetragonal'
loop_
_space_group_symop_operation_xyz
x,y,z
1/4-y,3/4+x,1/4+z
-x,1/2-y,z
1/4+y,1/4-x,3/4+z
x,-y,1/2-z
1/2-x,y,-z
3/4+y,1/4+x,1/4-z
1/4-y,1/4-x,1/4-z
-x,-y,-z
3/4+y,1/4-x,3/4-z
x,1/2+y,-z
3/4-y,3/4+x,1/4-z
-x,y,1/2+z
1/2+x,-y,z
1/4-y,3/4-x,3/4+z
3/4+y,3/4+x,3/4+z
1/2+x,1/2+y,1/2+z
3/4-y,1/4+x,3/4+z
1/2-x,-y,1/2+z
3/4+y,3/4-x,1/4+z
1/2+x,1/2-y,-z
-x,1/2+y,1/2-z
1/4+y,3/4+x,3/4-z
3/4-y,3/4-x,3/4-z
1/2-x,1/2-y,1/2-z
1/4+y,3/4-x,1/4-z
1/2+x,y,1/2-z
1/4-y,1/4+x,3/4-z
1/2-x,1/2+y,z
x,1/2-y,1/2+z
3/4-y,1/4-x,1/4+z
1/4+y,1/4+x,1/4+z
loop_
_atom_site_type_symbol
_atom_site_label
_atom_site_fract_x
_atom_site_fract_y
_atom_site_fract_z
Si Si1 0.520261 0.934222 0.988467
Si Si2 0.806940 0.443061 0.625000
Si Si3 0.181021 0.693842 0.010518
Si Si4 0.819532 0.100346 0.854207
O O1 0.528964 0.908063 0.129001
O O2 0.476764 0.907868 0.885081
O O3 0.583680 0.937306 0.930959
O O4 0.500000 0.000000 0.000000
O O5 0.844190 0.424718 0.744929
O O6 0.817362 0.509071 0.582494
O O7 0.250000 0.701745 0.000000
O O8 0.171603 0.625659 0.030115
#
# Coordination Sequence:
#
# PCOD9573840 Si02
#       4
#    32  16  32  32
#     4  10  22  38  62  85 126 167 219 256 322 384
#     4  10  24  34  62  94 140 167 212 259 344 392
#     4  10  22  37  62  87 124 167 216 261 319 389
#     4  11  23  39  60  93 134 169 214 266 329 396
#
# _framework density 19.663384000000001
#
# number of rings (size 3 to 8) (size 9 to 14) (size 15 to 20)
#    0.000    1.714    0.000    4.286   20.000    0.000 
#    0.000    0.000    0.000    0.857    0.000    4.000 
#    0.000    0.000    0.000    0.000    0.000    0.000 
#
# Total GULP energy -312253.245929 kJ/mol
# GULP energy per Si atom -5575.950820 kJ/mol
# Density = 1.961863 g / cm^3
# Si number density = 19.663384 Si / 1000 Ang^3
#
#
#
# Elastic Constant Matrix: (Units=GPa)
#
#
# Indices 1 2 3 4 5 6 
#
# 1 46.8677 42.8573 42.3275 0.0000 0.0000 0.0000
# 2 42.8573 46.8693 42.3267 0.0000 0.0000 0.0000
# 3 42.3275 42.3267 159.7382 0.0000 0.0000 0.0000
# 4 0.0000 0.0000 0.0000 27.8706 0.0000 0.0000
# 5 0.0000 0.0000 0.0000 0.0000 27.8710 0.0000
# 6 0.0000 0.0000 0.0000 0.0000 0.0000 3.1973
#
#
#
# Elastic Compliance Matrix: (Units=1/GPa)
#
#
# Indices 1 2 3 4 5 6 
#
# 1 0.132087 -0.117223 -0.003939 0.000000 0.000000 0.000000
# 2 -0.117223 0.132079 -0.003936 0.000000 0.000000 0.000000
# 3 -0.003939 -0.003936 0.008347 0.000000 0.000000 0.000000
# 4 0.000000 0.000000 0.000000 0.035880 0.000000 0.000000
# 5 0.000000 0.000000 0.000000 0.000000 0.035880 0.000000
# 6 0.000000 0.000000 0.000000 0.000000 0.000000 0.312764
#
#
# Mechanical properties :
#
#
# Convention : Reuss Voigt Hill
#
# Bulk Modulus (GPa) = 44.80930 56.49981 50.65456
# Shear Modulus (GPa) = 5.46645 20.18534 12.82589
#
# Velocity S-wave (km/s) = 1.66915 3.20745 2.55673
# Velocity P-wave (km/s) = 5.15290 6.52019 5.87645
#
# Compressibility (1/GPa) = 0.02231680
#
# Stress axis : x y z
#
# Youngs Moduli (GPa) = 7.57079 7.57122 119.80352
#
# Poissons Ratio (x) = 0.88752 0.47193
# Poissons Ratio (y) = 0.88747 0.47154
# Poissons Ratio (z) = 0.02982 0.02980
#
# Static dielectric constant tensor:
#      x y z
#    x 1.676450 0.000000 0.000000 
#    y 0.000000 1.676450 0.000000 
#    z 0.000000 0.000000 1.797900 
# 
# From -- ./inp_files/3340.got.cif
#   From: 2010.05.17/outbox.cif.g08.bks.cpg/sg142_2_cif.got.tgz:3340.got - 2010.05.20 13:39:18.
