data_PCOD9573606
_publ_section_title
;
Structure prediction by ZEFSAII (Michael W. Deem and Ramdas Pophale) SiO2 
 PCOD9573606
Probable space group: I 41/A C D
;
_chemical_formula_sum "Si O2"
_cell_formula_units_Z 96
_cell_length_a 12.567780
_cell_length_b 12.567780
_cell_length_c 26.142285
_cell_angle_alpha 90.000000
_cell_angle_beta 90.000000
_cell_angle_gamma 90.000000
_cell_volume 4129.150234
_symmetry_space_group_name_H-M "I 41/A C D"
_symmetry_group_IT_number 142
_space_group.IT_coordinate_system_code '2'
_symmetry_cell_setting 'tetragonal'
loop_
_space_group_symop_operation_xyz
x,y,z
1/4-y,3/4+x,1/4+z
-x,1/2-y,z
1/4+y,1/4-x,3/4+z
x,-y,1/2-z
1/2-x,y,-z
3/4+y,1/4+x,1/4-z
1/4-y,1/4-x,1/4-z
-x,-y,-z
3/4+y,1/4-x,3/4-z
x,1/2+y,-z
3/4-y,3/4+x,1/4-z
-x,y,1/2+z
1/2+x,-y,z
1/4-y,3/4-x,3/4+z
3/4+y,3/4+x,3/4+z
1/2+x,1/2+y,1/2+z
3/4-y,1/4+x,3/4+z
1/2-x,-y,1/2+z
3/4+y,3/4-x,1/4+z
1/2+x,1/2-y,-z
-x,1/2+y,1/2-z
1/4+y,3/4+x,3/4-z
3/4-y,3/4-x,3/4-z
1/2-x,1/2-y,1/2-z
1/4+y,3/4-x,1/4-z
1/2+x,y,1/2-z
1/4-y,1/4+x,3/4-z
1/2-x,1/2+y,z
x,1/2-y,1/2+z
3/4-y,1/4-x,1/4+z
1/4+y,1/4+x,1/4+z
loop_
_atom_site_type_symbol
_atom_site_label
_atom_site_fract_x
_atom_site_fract_y
_atom_site_fract_z
Si Si1 0.360976 0.306949 0.818903
Si Si2 0.325227 0.199935 0.955509
Si Si3 0.834258 0.251569 0.867751
O O1 0.409253 0.340747 0.875000
O O2 0.391165 0.186685 0.803854
O O3 0.427485 0.387424 0.783819
O O4 0.233971 0.307365 0.824207
O O5 0.252900 0.198457 0.905046
O O6 0.250000 0.159094 0.000000
O O7 0.915231 0.344160 0.852360
#
# Coordination Sequence:
#
# PCOD9573606 Si02
#       3
#    32  32  32
#     4   9  19  38  60  79 111 156 189 224 285 350
#     4  10  20  36  58  83 111 143 185 237 283 332
#     4  10  21  37  57  82 112 148 190 232 276 340
#
# _framework density 23.249336
#
# number of rings (size 3 to 8) (size 9 to 14) (size 15 to 20)
#    0.000    2.333    0.000    7.000    0.000   13.333 
#    0.000   10.000    0.000    0.000    0.000    0.000 
#    0.000    0.000    0.000    0.000    0.000    0.000 
#
# Total GULP energy -267571.545380 kJ/mol
# GULP energy per Si atom -5574.407195 kJ/mol
# Density = 2.319642 g / cm^3
# Si number density = 23.249336 Si / 1000 Ang^3
#
#
#
# Elastic Constant Matrix: (Units=GPa)
#
#
# Indices 1 2 3 4 5 6 
#
# 1 96.4771 27.2299 6.0993 0.0000 0.0000 0.0000
# 2 27.2299 96.4770 6.0990 0.0000 0.0000 0.0000
# 3 6.0993 6.0990 34.5221 0.0000 0.0000 0.0000
# 4 0.0000 0.0000 0.0000 2.1654 0.0000 0.0000
# 5 0.0000 0.0000 0.0000 0.0000 2.1654 0.0000
# 6 0.0000 0.0000 0.0000 0.0000 0.0000 20.8977
#
#
#
# Elastic Compliance Matrix: (Units=1/GPa)
#
#
# Indices 1 2 3 4 5 6 
#
# 1 0.011334 -0.003107 -0.001454 0.000000 0.000000 0.000000
# 2 -0.003107 0.011334 -0.001453 0.000000 0.000000 0.000000
# 3 -0.001454 -0.001453 0.029481 0.000000 0.000000 0.000000
# 4 0.000000 0.000000 0.000000 0.461813 0.000000 0.000000
# 5 0.000000 0.000000 0.000000 0.000000 0.461818 0.000000
# 6 0.000000 0.000000 0.000000 0.000000 0.000000 0.047852
#
#
# Mechanical properties :
#
#
# Convention : Reuss Voigt Hill
#
# Bulk Modulus (GPa) = 24.92491 34.03693 29.48092
# Shear Modulus (GPa) = 4.76630 17.58222 11.17426
#
# Velocity S-wave (km/s) = 1.43336 2.75298 2.19470
# Velocity P-wave (km/s) = 3.67197 4.97764 4.37380
#
# Compressibility (1/GPa) = 0.04012050
#
# Stress axis : x y z
#
# Youngs Moduli (GPa) = 88.23022 88.23019 33.92071
#
# Poissons Ratio (x) = 0.27414 0.04930
# Poissons Ratio (y) = 0.27414 0.04930
# Poissons Ratio (z) = 0.12825 0.12823
#
# Static dielectric constant tensor:
#      x y z
#    x 1.908430 0.000000 0.000000 
#    y 0.000000 1.908430 0.000000 
#    z 0.000000 0.000000 1.972810 
# 
# From -- ./inp_files/12075.got.cif
#   From: 2010.05.17/outbox.cif.g08.bks.cpg/sg142_7_cif.got.tgz:12075.got - 2010.05.20 13:39:18.
