data_PCOD9573952
_publ_section_title
;
Structure prediction by ZEFSAII (Michael W. Deem and Ramdas Pophale) SiO2 
 PCOD9573952
Probable space group: I 41/A C D
;
_chemical_formula_sum "Si O2"
_cell_formula_units_Z 128
_cell_length_a 23.573329
_cell_length_b 23.573329
_cell_length_c 12.356725
_cell_angle_alpha 90.000000
_cell_angle_beta 90.000000
_cell_angle_gamma 90.000000
_cell_volume 6866.654821
_symmetry_space_group_name_H-M "I 41/A C D"
_symmetry_group_IT_number 142
_space_group.IT_coordinate_system_code '2'
_symmetry_cell_setting 'tetragonal'
loop_
_space_group_symop_operation_xyz
x,y,z
1/4-y,3/4+x,1/4+z
-x,1/2-y,z
1/4+y,1/4-x,3/4+z
x,-y,1/2-z
1/2-x,y,-z
3/4+y,1/4+x,1/4-z
1/4-y,1/4-x,1/4-z
-x,-y,-z
3/4+y,1/4-x,3/4-z
x,1/2+y,-z
3/4-y,3/4+x,1/4-z
-x,y,1/2+z
1/2+x,-y,z
1/4-y,3/4-x,3/4+z
3/4+y,3/4+x,3/4+z
1/2+x,1/2+y,1/2+z
3/4-y,1/4+x,3/4+z
1/2-x,-y,1/2+z
3/4+y,3/4-x,1/4+z
1/2+x,1/2-y,-z
-x,1/2+y,1/2-z
1/4+y,3/4+x,3/4-z
3/4-y,3/4-x,3/4-z
1/2-x,1/2-y,1/2-z
1/4+y,3/4-x,1/4-z
1/2+x,y,1/2-z
1/4-y,1/4+x,3/4-z
1/2-x,1/2+y,z
x,1/2-y,1/2+z
3/4-y,1/4-x,1/4+z
1/4+y,1/4+x,1/4+z
loop_
_atom_site_type_symbol
_atom_site_label
_atom_site_fract_x
_atom_site_fract_y
_atom_site_fract_z
Si Si1 0.194872 0.769319 0.318687
Si Si2 0.805952 0.624414 0.463926
Si Si3 0.401169 0.333666 0.182068
Si Si4 0.594030 0.272400 0.454926
O O1 0.250000 0.750000 0.250000
O O2 0.212809 0.818037 0.403397
O O3 0.148545 0.797320 0.238038
O O4 0.155081 0.727986 0.392483
O O5 0.750000 0.592919 0.500000
O O6 0.840573 0.590573 0.375000
O O7 0.849886 0.636304 0.559984
O O8 0.458915 0.330068 0.252619
O O9 0.407385 0.311014 0.061814
O O10 0.547610 0.297610 0.375000
#
# Coordination Sequence:
#
# PCOD9573952 Si02
#       4
#    32  32  32  32
#     4  10  23  37  60  87 119 162 202 244 301 363
#     4   9  20  39  65  83 113 157 203 240 303 357
#     4  10  23  39  56  93 121 159 200 243 303 376
#     4  11  23  37  61  89 128 160 200 247 311 371
#
# _framework density 18.640808
#
# number of rings (size 3 to 8) (size 9 to 14) (size 15 to 20)
#    0.000    2.000    0.000    3.750   10.500    6.500 
#    0.000    0.000   11.000    0.000    0.000    0.000 
#    0.000    0.000    0.000    0.000    0.000    0.000 
#
# Total GULP energy -356998.756490 kJ/mol
# GULP energy per Si atom -5578.105570 kJ/mol
# Density = 1.859838 g / cm^3
# Si number density = 18.640808 Si / 1000 Ang^3
#
#
#
# Elastic Constant Matrix: (Units=GPa)
#
#
# Indices 1 2 3 4 5 6 
#
# 1 102.1874 59.9726 55.4263 0.0000 0.0000 0.0000
# 2 59.9726 102.1874 55.4263 0.0000 0.0000 0.0000
# 3 55.4263 55.4263 119.8962 0.0000 0.0000 0.0000
# 4 0.0000 0.0000 0.0000 26.0220 0.0000 0.0000
# 5 0.0000 0.0000 0.0000 0.0000 26.0220 0.0000
# 6 0.0000 0.0000 0.0000 0.0000 0.0000 5.5785
#
#
#
# Elastic Compliance Matrix: (Units=1/GPa)
#
#
# Indices 1 2 3 4 5 6 
#
# 1 0.016352 -0.007336 -0.004168 0.000000 0.000000 0.000000
# 2 -0.007336 0.016352 -0.004168 0.000000 0.000000 0.000000
# 3 -0.004168 -0.004168 0.012194 0.000000 0.000000 0.000000
# 4 0.000000 0.000000 0.000000 0.038429 0.000000 0.000000
# 5 0.000000 0.000000 0.000000 0.000000 0.038429 0.000000
# 6 0.000000 0.000000 0.000000 0.000000 0.000000 0.179259
#
#
# Mechanical properties :
#
#
# Convention : Reuss Voigt Hill
#
# Bulk Modulus (GPa) = 73.77763 73.99123 73.88443
# Shear Modulus (GPa) = 14.84220 21.75423 18.29822
#
# Velocity S-wave (km/s) = 2.82480 3.41988 3.13648
# Velocity P-wave (km/s) = 7.09252 7.44133 7.26902
#
# Compressibility (1/GPa) = 0.01355424
#
# Stress axis : x y z
#
# Youngs Moduli (GPa) = 61.15401 61.15401 82.00684
#
# Poissons Ratio (x) = 0.44864 0.34180
# Poissons Ratio (y) = 0.44864 0.34180
# Poissons Ratio (z) = 0.25489 0.25489
#
# Static dielectric constant tensor:
#      x y z
#    x 1.682000 0.000000 0.000000 
#    y 0.000000 1.682000 0.000000 
#    z 0.000000 0.000000 1.657260 
# 
# From -- ./inp_files/3452.got.cif
#   From: 2010.05.17/outbox.cif.g08.bks.cpg/sg142_2_cif.got.tgz:3452.got - 2010.05.20 13:39:18.
