data_PCOD9573026
_publ_section_title
;
Structure prediction by ZEFSAII (Michael W. Deem and Ramdas Pophale) SiO2 
 PCOD9573026
Probable space group: I 41/A M D
;
_chemical_formula_sum "Si O2"
_cell_formula_units_Z 160
_cell_length_a 24.772592
_cell_length_b 24.772592
_cell_length_c 13.851361
_cell_angle_alpha 90.000000
_cell_angle_beta 90.000000
_cell_angle_gamma 90.000000
_cell_volume 8500.321425
_symmetry_space_group_name_H-M "I 41/A M D"
_symmetry_group_IT_number 141
_space_group.IT_coordinate_system_code '2'
_symmetry_cell_setting 'tetragonal'
loop_
_space_group_symop_operation_xyz
x,y,z
1/4-y,3/4+x,1/4+z
-x,1/2-y,z
1/4+y,1/4-x,3/4+z
x,-y,-z
-x,1/2+y,-z
1/4+y,3/4+x,1/4-z
1/4-y,1/4-x,3/4-z
-x,-y,-z
3/4+y,1/4-x,3/4-z
x,1/2+y,-z
3/4-y,3/4+x,1/4-z
-x,y,z
x,1/2-y,z
3/4-y,1/4-x,3/4+z
3/4+y,3/4+x,1/4+z
1/2+x,1/2+y,1/2+z
3/4-y,1/4+x,3/4+z
1/2-x,-y,1/2+z
3/4+y,3/4-x,1/4+z
1/2+x,1/2-y,1/2-z
1/2-x,y,1/2-z
3/4+y,1/4+x,3/4-z
3/4-y,3/4-x,1/4-z
1/2-x,1/2-y,1/2-z
1/4+y,3/4-x,1/4-z
1/2+x,y,1/2-z
1/4-y,1/4+x,3/4-z
1/2-x,1/2+y,1/2+z
1/2+x,-y,1/2+z
1/4-y,3/4-x,1/4+z
1/4+y,1/4+x,3/4+z
loop_
_atom_site_type_symbol
_atom_site_label
_atom_site_fract_x
_atom_site_fract_y
_atom_site_fract_z
Si Si1 0.258659 0.812791 0.989167
Si Si2 0.062773 0.607173 0.363626
Si Si3 0.564218 0.102561 0.086715
Si Si4 0.129408 0.532872 0.092638
Si Si5 0.063078 0.133387 0.966998
O O1 0.268232 0.750000 0.019357
O O2 0.198783 0.815601 0.944203
O O3 0.301735 0.826375 0.905839
O O4 0.256772 0.855206 0.076301
O O5 0.078442 0.595600 0.474088
O O6 0.097956 0.651363 0.308093
O O7 0.000000 0.625021 0.362494
O O8 0.500000 0.110452 0.091526
O O9 0.596276 0.153725 0.125000
O O10 0.177567 0.572434 0.125000
O O11 0.080809 0.573225 0.062898
O O12 0.147294 0.500000 0.000000
O O13 0.079807 0.170194 0.875000
O O14 0.000000 0.137154 0.986062
#
# Coordination Sequence:
#
# PCOD9573026 Si02
#       5
#    32  32  32  32  32
#     4  10  20  39  65  91 119 160 209 255 303 373
#     4  10  20  38  59  86 122 162 205 252 304 360
#     4  10  23  39  60  89 123 163 213 263 311 371
#     4  11  24  42  64  89 125 158 204 265 324 380
#     4  11  22  37  61  93 131 167 204 254 318 389
#
# _framework density 18.822818000000002
#
# number of rings (size 3 to 8) (size 9 to 14) (size 15 to 20)
#    0.000    1.600    4.000    1.800    2.800    6.400 
#    0.000    3.000    0.000    0.000    0.000    0.000 
#    0.000    0.000    0.000    0.000    0.000    0.000 
#
# Total GULP energy -446774.961922 kJ/mol
# GULP energy per Si atom -5584.687024 kJ/mol
# Density = 1.877998 g / cm^3
# Si number density = 18.822818 Si / 1000 Ang^3
#
#
#
# Elastic Constant Matrix: (Units=GPa)
#
#
# Indices 1 2 3 4 5 6 
#
# 1 50.2688 52.2246 46.8900 0.0000 0.0000 0.0000
# 2 52.2246 50.2475 46.9039 0.0000 0.0000 0.0000
# 3 46.8900 46.9039 123.5797 0.0000 0.0000 0.0000
# 4 0.0000 0.0000 0.0000 -209.0500 0.0000 0.0000
# 5 0.0000 0.0000 0.0000 0.0000 -207.4907 0.0000
# 6 0.0000 0.0000 0.0000 0.0000 0.0000 19.9760
#
#
#
# Elastic Compliance Matrix: (Units=1/GPa)
#
#
# Indices 1 2 3 4 5 6 
#
# 1 -0.246662 0.261733 -0.005748 0.000000 0.000000 0.000000
# 2 0.261733 -0.246904 -0.005599 0.000000 0.000000 0.000000
# 3 -0.005748 -0.005599 0.012398 0.000000 0.000000 0.000000
# 4 0.000000 0.000000 0.000000 -0.004784 0.000000 0.000000
# 5 0.000000 0.000000 0.000000 0.000000 -0.004819 0.000000
# 6 0.000000 0.000000 0.000000 0.000000 0.000000 0.050060
#
#
# Mechanical properties :
#
#
# Convention : Reuss Voigt Hill
#
# Bulk Modulus (GPa) = 51.00845 57.34809 54.17827
# Shear Modulus (GPa) = -5.34789 -74.10777 -39.72783
#
# Velocity S-wave (km/s) = -1.68741 -6.28146 -4.59913
# Velocity P-wave (km/s) = 4.83339 4.69846 0.80192
#
# Compressibility (1/GPa) = 0.01960459
#
# Stress axis : x y z
#
# Youngs Moduli (GPa) = -4.05413 -4.05016 80.65901
#
# Poissons Ratio (x) = 1.06006 0.46361
# Poissons Ratio (y) = 1.06110 0.45160
# Poissons Ratio (z) = -0.02330 -0.02268
#
# Static dielectric constant tensor:
#      x y z
#    x 1.629830 0.000000 0.000000 
#    y 0.000000 1.629830 0.000000 
#    z 0.000000 0.000000 1.689930 
# 
# From -- ./inp_files/6614.got.cif
#   From: 2010.05.17/outbox.cif.g08.bks.cpg/sg141_4_cif.got.tgz:6614.got - 2010.05.20 13:30:51.
