data_PCOD9573970
_publ_section_title
;
Structure prediction by ZEFSAII (Michael W. Deem and Ramdas Pophale) SiO2 
 PCOD9573970
Probable space group: I 41/A C D
;
_chemical_formula_sum "Si O2"
_cell_formula_units_Z 176
_cell_length_a 26.359853
_cell_length_b 26.359853
_cell_length_c 11.772228
_cell_angle_alpha 90.000000
_cell_angle_beta 90.000000
_cell_angle_gamma 90.000000
_cell_volume 8179.836684
_symmetry_space_group_name_H-M "I 41/A C D"
_symmetry_group_IT_number 142
_space_group.IT_coordinate_system_code '2'
_symmetry_cell_setting 'tetragonal'
loop_
_space_group_symop_operation_xyz
x,y,z
1/4-y,3/4+x,1/4+z
-x,1/2-y,z
1/4+y,1/4-x,3/4+z
x,-y,1/2-z
1/2-x,y,-z
3/4+y,1/4+x,1/4-z
1/4-y,1/4-x,1/4-z
-x,-y,-z
3/4+y,1/4-x,3/4-z
x,1/2+y,-z
3/4-y,3/4+x,1/4-z
-x,y,1/2+z
1/2+x,-y,z
1/4-y,3/4-x,3/4+z
3/4+y,3/4+x,3/4+z
1/2+x,1/2+y,1/2+z
3/4-y,1/4+x,3/4+z
1/2-x,-y,1/2+z
3/4+y,3/4-x,1/4+z
1/2+x,1/2-y,-z
-x,1/2+y,1/2-z
1/4+y,3/4+x,3/4-z
3/4-y,3/4-x,3/4-z
1/2-x,1/2-y,1/2-z
1/4+y,3/4-x,1/4-z
1/2+x,y,1/2-z
1/4-y,1/4+x,3/4-z
1/2-x,1/2+y,z
x,1/2-y,1/2+z
3/4-y,1/4-x,1/4+z
1/4+y,1/4+x,1/4+z
loop_
_atom_site_type_symbol
_atom_site_label
_atom_site_fract_x
_atom_site_fract_y
_atom_site_fract_z
Si Si1 0.069465 0.793785 0.621185
Si Si2 0.334023 0.775204 0.510560
Si Si3 0.406334 0.386583 0.765195
Si Si4 0.249477 0.199429 0.178819
Si Si5 0.763094 0.986907 0.375000
Si Si6 0.728886 0.628345 0.883715
O O1 0.063448 0.736017 0.662568
O O2 0.110352 0.794572 0.521258
O O3 0.087446 0.829326 0.722464
O O4 0.341308 0.714070 0.529875
O O5 0.296665 0.791974 0.406491
O O6 0.304221 0.800277 0.613916
O O7 0.381840 0.419234 0.662354
O O8 0.369661 0.380340 0.875000
O O9 0.250000 0.250000 0.250000
O O10 0.248590 0.154583 0.270061
O O11 0.750000 0.009938 0.500000
O O12 0.749583 0.928096 0.383102
O O13 0.750000 0.653619 0.000000
#
# Coordination Sequence:
#
# PCOD9573970 Si02
#       6
#    32  32  32  32  16  32
#     4   9  21  44  68  99 141 186 239 289 353 433
#     4  10  23  41  68 103 141 188 223 307 362 413
#     4  11  24  40  70 100 135 193 239 278 358 445
#     4  11  22  42  67 102 142 169 240 300 357 434
#     4  10  26  52  72  98 144 184 242 304 374 470
#     4  11  25  44  72 103 131 185 234 295 364 441
#
# _framework density 21.516321000000001
#
# number of rings (size 3 to 8) (size 9 to 14) (size 15 to 20)
#    0.000    1.636    1.818    1.091   10.182    0.000 
#    6.545   10.909    0.000    0.000    0.000    0.000 
#    0.000    0.000    0.000    0.000    0.000    0.000 
#
# Total GULP energy -490580.781124 kJ/mol
# GULP energy per Si atom -5574.781604 kJ/mol
# Density = 2.146735 g / cm^3
# Si number density = 21.516321 Si / 1000 Ang^3
#
#
#
# Elastic Constant Matrix: (Units=GPa)
#
#
# Indices 1 2 3 4 5 6 
#
# 1 67.5666 52.7160 38.1749 0.0000 0.0000 0.0000
# 2 52.7160 67.5650 38.1736 0.0000 0.0000 0.0000
# 3 38.1749 38.1736 122.3831 0.0000 0.0000 0.0000
# 4 0.0000 0.0000 0.0000 33.3185 0.0000 0.0000
# 5 0.0000 0.0000 0.0000 0.0000 33.3189 0.0000
# 6 0.0000 0.0000 0.0000 0.0000 0.0000 18.1794
#
#
#
# Elastic Compliance Matrix: (Units=1/GPa)
#
#
# Indices 1 2 3 4 5 6 
#
# 1 0.038853 -0.028487 -0.003234 0.000000 0.000000 0.000000
# 2 -0.028487 0.038854 -0.003233 0.000000 0.000000 0.000000
# 3 -0.003234 -0.003233 0.010188 0.000000 0.000000 0.000000
# 4 0.000000 0.000000 0.000000 0.030013 0.000000 0.000000
# 5 0.000000 0.000000 0.000000 0.000000 0.030013 0.000000
# 6 0.000000 0.000000 0.000000 0.000000 0.000000 0.055007
#
#
# Mechanical properties :
#
#
# Convention : Reuss Voigt Hill
#
# Bulk Modulus (GPa) = 55.59623 57.29375 56.44499
# Shear Modulus (GPa) = 17.93182 25.52670 21.72926
#
# Velocity S-wave (km/s) = 2.89001 3.44813 3.18133
# Velocity P-wave (km/s) = 6.08534 6.52217 6.30754
#
# Compressibility (1/GPa) = 0.01798683
#
# Stress axis : x y z
#
# Youngs Moduli (GPa) = 25.73774 25.73737 98.15216
#
# Poissons Ratio (x) = 0.73319 0.31740
# Poissons Ratio (y) = 0.73320 0.31735
# Poissons Ratio (z) = 0.08323 0.08321
#
# Static dielectric constant tensor:
#      x y z
#    x 1.905800 0.000000 0.000000 
#    y 0.000000 1.905850 0.000000 
#    z 0.000000 0.000000 2.401240 
# 
# From -- ./inp_files/3943.got.cif
#   From: 2010.05.17/outbox.cif.g08.bks.cpg/sg142_2_cif.got.tgz:3943.got - 2010.05.20 13:39:18.
