data_PCOD9573328
_publ_section_title
;
Structure prediction by ZEFSAII (Michael W. Deem and Ramdas Pophale) SiO2 
 PCOD9573328
Probable space group: I 41/A M D
;
_chemical_formula_sum "Si O2"
_cell_formula_units_Z 116
_cell_length_a 23.761519
_cell_length_b 23.761519
_cell_length_c 9.377751
_cell_angle_alpha 90.000000
_cell_angle_beta 90.000000
_cell_angle_gamma 90.000000
_cell_volume 5294.769978
_symmetry_space_group_name_H-M "I 41/A M D"
_symmetry_group_IT_number 141
_space_group.IT_coordinate_system_code '2'
_symmetry_cell_setting 'tetragonal'
loop_
_space_group_symop_operation_xyz
x,y,z
1/4-y,3/4+x,1/4+z
-x,1/2-y,z
1/4+y,1/4-x,3/4+z
x,-y,-z
-x,1/2+y,-z
1/4+y,3/4+x,1/4-z
1/4-y,1/4-x,3/4-z
-x,-y,-z
3/4+y,1/4-x,3/4-z
x,1/2+y,-z
3/4-y,3/4+x,1/4-z
-x,y,z
x,1/2-y,z
3/4-y,1/4-x,3/4+z
3/4+y,3/4+x,1/4+z
1/2+x,1/2+y,1/2+z
3/4-y,1/4+x,3/4+z
1/2-x,-y,1/2+z
3/4+y,3/4-x,1/4+z
1/2+x,1/2-y,1/2-z
1/2-x,y,1/2-z
3/4+y,1/4+x,3/4-z
3/4-y,3/4-x,1/4-z
1/2-x,1/2-y,1/2-z
1/4+y,3/4-x,1/4-z
1/2+x,y,1/2-z
1/4-y,1/4+x,3/4-z
1/2-x,1/2+y,1/2+z
1/2+x,-y,1/2+z
1/4-y,3/4-x,1/4+z
1/4+y,1/4+x,3/4+z
loop_
_atom_site_type_symbol
_atom_site_label
_atom_site_fract_x
_atom_site_fract_y
_atom_site_fract_z
Si Si1 0.000000 0.250000 0.375000
Si Si2 0.173157 0.750000 0.884493
Si Si3 0.376762 0.750000 0.908073
Si Si4 0.220455 0.129446 0.109996
Si Si5 0.000000 0.066408 0.960871
Si Si6 0.898809 0.573993 0.835506
O O1 0.058926 0.250000 0.458629
O O2 0.125703 0.750000 0.763679
O O3 0.209876 0.805027 0.863887
O O4 0.160499 0.750000 0.051897
O O5 0.348043 0.691429 0.961301
O O6 0.250000 0.104056 0.250000
O O7 0.158305 0.103405 0.113482
O O8 0.237523 0.129488 0.525936
O O9 0.058285 0.082075 0.034508
O O10 0.000000 0.000000 0.000000
#
# Coordination Sequence:
#
# PCOD9573328 Si02
#       6
#     4  16  16  32  16  32
#     4  12  24  40  72 114 144 168 256 306 376 388
#     4  12  22  41  75  96 138 179 239 284 369 422
#     4  11  23  44  70 110 140 188 238 318 345 431
#     4  12  23  41  70 107 134 189 237 301 343 436
#     4  11  23  47  67 102 130 187 235 294 354 448
#     4  11  25  44  72 100 148 184 246 290 365 426
#
# _framework density 21.908411000000001
#
# number of rings (size 3 to 8) (size 9 to 14) (size 15 to 20)
#    0.000    0.552    5.517    3.724    0.000    1.103 
#    0.000    4.138    0.000    3.310    0.000    0.000 
#    0.000    0.000    0.000    0.000    0.000    0.000 
#
# Total GULP energy -323120.969863 kJ/mol
# GULP energy per Si atom -5571.051205 kJ/mol
# Density = 2.185855 g / cm^3
# Si number density = 21.908411 Si / 1000 Ang^3
#
#
#
# Elastic Constant Matrix: (Units=GPa)
#
#
# Indices 1 2 3 4 5 6 
#
# 1 154.0897 65.6447 47.7276 0.0000 0.0000 0.0000
# 2 65.6447 154.0897 47.7276 0.0000 0.0000 0.0000
# 3 47.7276 47.7276 160.2215 0.0000 0.0000 0.0000
# 4 0.0000 0.0000 0.0000 9.5948 0.0000 0.0000
# 5 0.0000 0.0000 0.0000 0.0000 9.5948 0.0000
# 6 0.0000 0.0000 0.0000 0.0000 0.0000 38.7722
#
#
#
# Elastic Compliance Matrix: (Units=1/GPa)
#
#
# Indices 1 2 3 4 5 6 
#
# 1 0.008267 -0.003040 -0.001557 0.000000 0.000000 0.000000
# 2 -0.003040 0.008267 -0.001557 0.000000 0.000000 0.000000
# 3 -0.001557 -0.001557 0.007169 0.000000 0.000000 0.000000
# 4 0.000000 0.000000 0.000000 0.104223 0.000000 0.000000
# 5 0.000000 0.000000 0.000000 0.000000 0.104223 0.000000
# 6 0.000000 0.000000 0.000000 0.000000 0.000000 0.025792
#
#
# Mechanical properties :
#
#
# Convention : Reuss Voigt Hill
#
# Bulk Modulus (GPa) = 87.75615 87.84452 87.80034
# Shear Modulus (GPa) = 18.24506 32.07910 25.16208
#
# Velocity S-wave (km/s) = 2.88894 3.83069 3.39265
# Velocity P-wave (km/s) = 7.16036 7.72974 7.45049
#
# Compressibility (1/GPa) = 0.01139521
#
# Stress axis : x y z
#
# Youngs Moduli (GPa) = 120.96391 120.96391 139.48809
#
# Poissons Ratio (x) = 0.36767 0.21721
# Poissons Ratio (y) = 0.36767 0.21721
# Poissons Ratio (z) = 0.18836 0.18836
#
# Static dielectric constant tensor:
#      x y z
#    x 1.786930 0.000000 0.000000 
#    y 0.000000 1.786930 0.000000 
#    z 0.000000 0.000000 1.978920 
# 
# From -- ./inp_files/2823.got.cif
#   From: 2010.05.17/outbox.cif.g08.bks.cpg/sg141_2_cif.got.tgz:2823.got - 2010.05.20 13:30:51.
