data_PCOD9573628
_publ_section_title
;
Structure prediction by ZEFSAII (Michael W. Deem and Ramdas Pophale) SiO2 
 PCOD9573628
Probable space group: I 41/A C D
;
_chemical_formula_sum "Si O2"
_cell_formula_units_Z 152
_cell_length_a 27.181365
_cell_length_b 27.181365
_cell_length_c 10.410246
_cell_angle_alpha 90.000000
_cell_angle_beta 90.000000
_cell_angle_gamma 90.000000
_cell_volume 7691.366691
_symmetry_space_group_name_H-M "I 41/A C D"
_symmetry_group_IT_number 142
_space_group.IT_coordinate_system_code '2'
_symmetry_cell_setting 'tetragonal'
loop_
_space_group_symop_operation_xyz
x,y,z
1/4-y,3/4+x,1/4+z
-x,1/2-y,z
1/4+y,1/4-x,3/4+z
x,-y,1/2-z
1/2-x,y,-z
3/4+y,1/4+x,1/4-z
1/4-y,1/4-x,1/4-z
-x,-y,-z
3/4+y,1/4-x,3/4-z
x,1/2+y,-z
3/4-y,3/4+x,1/4-z
-x,y,1/2+z
1/2+x,-y,z
1/4-y,3/4-x,3/4+z
3/4+y,3/4+x,3/4+z
1/2+x,1/2+y,1/2+z
3/4-y,1/4+x,3/4+z
1/2-x,-y,1/2+z
3/4+y,3/4-x,1/4+z
1/2+x,1/2-y,-z
-x,1/2+y,1/2-z
1/4+y,3/4+x,3/4-z
3/4-y,3/4-x,3/4-z
1/2-x,1/2-y,1/2-z
1/4+y,3/4-x,1/4-z
1/2+x,y,1/2-z
1/4-y,1/4+x,3/4-z
1/2-x,1/2+y,z
x,1/2-y,1/2+z
3/4-y,1/4-x,1/4+z
1/4+y,1/4+x,1/4+z
loop_
_atom_site_type_symbol
_atom_site_label
_atom_site_fract_x
_atom_site_fract_y
_atom_site_fract_z
Si Si1 0.250000 0.578648 0.500000
Si Si2 0.596425 0.392334 0.634405
Si Si3 0.500000 0.250000 0.625000
Si Si4 0.660472 0.410472 0.875000
Si Si5 0.087431 0.337431 0.125000
Si Si6 0.351923 0.981724 0.970371
Si Si7 0.518354 0.339775 0.796298
O O1 0.201680 0.545517 0.531276
O O2 0.259043 0.609400 0.628355
O O3 0.635936 0.387602 0.748755
O O4 0.607420 0.358887 0.509577
O O5 0.605517 0.447251 0.584303
O O6 0.545213 0.378757 0.704640
O O7 0.493892 0.297992 0.708269
O O8 0.651885 0.468441 0.890223
O O9 0.102750 0.279310 0.130208
O O10 0.560416 0.310416 0.875000
#
# Coordination Sequence:
#
# PCOD9573628 Si02
#       7
#    16  32   8  16  16  32  32
#     4  10  20  36  70  96 136 170 232 278 342 376
#     4  12  26  39  67 106 135 177 227 285 346 407
#     4  12  18  40  68 102 120 170 212 282 356 402
#     4  12  24  42  67  93 148 177 232 273 334 401
#     4  12  25  42  69  98 142 165 224 287 350 412
#     4  11  22  40  64 104 134 179 223 289 332 398
#     4  12  21  39  67 102 134 169 213 288 350 409
#
# _framework density 19.762418
#
# number of rings (size 3 to 8) (size 9 to 14) (size 15 to 20)
#    0.000    0.421    7.368    3.158    0.000    0.000 
#    0.000    0.000    0.000   11.368    0.000    0.000 
#    0.000    0.000    0.000    0.000    0.000    0.000 
#
# Total GULP energy -423966.660117 kJ/mol
# GULP energy per Si atom -5578.508686 kJ/mol
# Density = 1.971744 g / cm^3
# Si number density = 19.762418 Si / 1000 Ang^3
#
#
#
# Elastic Constant Matrix: (Units=GPa)
#
#
# Indices 1 2 3 4 5 6 
#
# 1 59.9769 51.9590 39.4276 0.0000 0.0000 0.0000
# 2 51.9590 59.9769 39.4276 0.0000 0.0000 0.0000
# 3 39.4276 39.4276 139.7224 0.0000 0.0000 0.0000
# 4 0.0000 0.0000 0.0000 58.1346 0.0000 0.0000
# 5 0.0000 0.0000 0.0000 0.0000 58.1346 0.0000
# 6 0.0000 0.0000 0.0000 0.0000 0.0000 30.8217
#
#
#
# Elastic Compliance Matrix: (Units=1/GPa)
#
#
# Indices 1 2 3 4 5 6 
#
# 1 0.067935 -0.056785 -0.003146 0.000000 0.000000 0.000000
# 2 -0.056785 0.067935 -0.003146 0.000000 0.000000 0.000000
# 3 -0.003146 -0.003146 0.008933 0.000000 0.000000 0.000000
# 4 0.000000 0.000000 0.000000 0.017201 0.000000 0.000000
# 5 0.000000 0.000000 0.000000 0.000000 0.017201 0.000000
# 6 0.000000 0.000000 0.000000 0.000000 0.000000 0.032445
#
#
# Mechanical properties :
#
#
# Convention : Reuss Voigt Hill
#
# Bulk Modulus (GPa) = 53.62632 57.92272 55.77452
# Shear Modulus (GPa) = 14.53395 38.00899 26.27147
#
# Velocity S-wave (km/s) = 2.71483 4.39030 3.65000
# Velocity P-wave (km/s) = 6.08453 7.42110 6.78580
#
# Compressibility (1/GPa) = 0.01864756
#
# Stress axis : x y z
#
# Youngs Moduli (GPa) = 14.71992 14.71992 111.94704
#
# Poissons Ratio (x) = 0.83587 0.35223
# Poissons Ratio (y) = 0.83587 0.35223
# Poissons Ratio (z) = 0.04632 0.04632
#
# Static dielectric constant tensor:
#      x y z
#    x 1.716690 0.000000 0.000000 
#    y 0.000000 1.716690 0.000000 
#    z 0.000000 0.000000 1.789250 
# 
# From -- ./inp_files/4089.got.cif
#   From: 2010.05.17/outbox.cif.g08.bks.cpg/sg142_3_cif.got.tgz:4089.got - 2010.05.20 13:39:18.
