data_PCOD9573493
_publ_section_title
;
Structure prediction by ZEFSAII (Michael W. Deem and Ramdas Pophale) SiO2 
 PCOD9573493
Probable space group: I 41/A C D
;
_chemical_formula_sum "Si O2"
_cell_formula_units_Z 240
_cell_length_a 26.198784
_cell_length_b 26.198784
_cell_length_c 20.982915
_cell_angle_alpha 90.000000
_cell_angle_beta 90.000000
_cell_angle_gamma 90.000000
_cell_volume 14402.175206
_symmetry_space_group_name_H-M "I 41/A C D"
_symmetry_group_IT_number 142
_space_group.IT_coordinate_system_code '2'
_symmetry_cell_setting 'tetragonal'
loop_
_space_group_symop_operation_xyz
x,y,z
1/4-y,3/4+x,1/4+z
-x,1/2-y,z
1/4+y,1/4-x,3/4+z
x,-y,1/2-z
1/2-x,y,-z
3/4+y,1/4+x,1/4-z
1/4-y,1/4-x,1/4-z
-x,-y,-z
3/4+y,1/4-x,3/4-z
x,1/2+y,-z
3/4-y,3/4+x,1/4-z
-x,y,1/2+z
1/2+x,-y,z
1/4-y,3/4-x,3/4+z
3/4+y,3/4+x,3/4+z
1/2+x,1/2+y,1/2+z
3/4-y,1/4+x,3/4+z
1/2-x,-y,1/2+z
3/4+y,3/4-x,1/4+z
1/2+x,1/2-y,-z
-x,1/2+y,1/2-z
1/4+y,3/4+x,3/4-z
3/4-y,3/4-x,3/4-z
1/2-x,1/2-y,1/2-z
1/4+y,3/4-x,1/4-z
1/2+x,y,1/2-z
1/4-y,1/4+x,3/4-z
1/2-x,1/2+y,z
x,1/2-y,1/2+z
3/4-y,1/4-x,1/4+z
1/4+y,1/4+x,1/4+z
loop_
_atom_site_type_symbol
_atom_site_label
_atom_site_fract_x
_atom_site_fract_y
_atom_site_fract_z
Si Si1 0.965884 0.827081 0.618459
Si Si2 0.337889 0.658857 0.950473
Si Si3 0.963966 0.370113 0.628253
Si Si4 0.743119 0.679380 0.347423
Si Si5 0.161225 0.152635 0.226196
Si Si6 0.926835 0.176835 0.625000
Si Si7 0.705948 0.754361 0.044207
Si Si8 0.016059 0.410112 0.987519
O O1 0.936894 0.773423 0.609789
O O2 0.936703 0.863098 0.668722
O O3 0.970562 0.860280 0.554341
O O4 0.295206 0.652077 0.896343
O O5 0.356087 0.605853 0.980222
O O6 0.315977 0.697652 0.003786
O O7 0.914521 0.335480 0.625000
O O8 0.970346 0.398554 0.560525
O O9 0.014253 0.334915 0.638694
O O10 0.966645 0.411426 0.684544
O O11 0.788605 0.646816 0.316781
O O12 0.769968 0.722498 0.391271
O O13 0.708011 0.705030 0.293325
O O14 0.111524 0.162406 0.181979
O O15 0.168942 0.205197 0.264867
O O16 0.750000 0.731242 0.000000
#
# Coordination Sequence:
#
# PCOD9573493 Si02
#       8
#    32  32  32  32  32  16  32  32
#     4  10  20  32  46  71 110 156 183 213 256 319
#     4  10  20  33  51  77 108 141 184 224 276 327
#     4  11  22  34  52  79 115 152 184 221 269 334
#     4  10  20  35  53  75 108 139 181 232 274 325
#     4  11  17  32  53  73 106 140 180 226 269 327
#     4  10  19  32  48  80 112 146 178 210 266 322
#     4  10  20  35  53  76 109 145 182 232 269 318
#     4  10  21  33  51  75 106 145 186 221 265 324
#
# _framework density 16.664148999999998
#
# number of rings (size 3 to 8) (size 9 to 14) (size 15 to 20)
#    0.000    1.733    5.333    0.600    1.867    0.000 
#    2.400    0.000    0.000    0.000    0.000    0.000 
#   22.000    0.000    0.000    0.000    0.000    0.000 
#
# Total GULP energy -669308.951752 kJ/mol
# GULP energy per Si atom -5577.574598 kJ/mol
# Density = 1.662622 g / cm^3
# Si number density = 16.664149 Si / 1000 Ang^3
#
#
#
# Elastic Constant Matrix: (Units=GPa)
#
#
# Indices 1 2 3 4 5 6 
#
# 1 88.7843 45.1627 45.9954 0.0000 0.0000 0.0000
# 2 45.1627 88.7793 45.9941 0.0000 0.0000 0.0000
# 3 45.9954 45.9941 79.0495 0.0000 0.0000 0.0000
# 4 0.0000 0.0000 0.0000 23.0060 0.0000 0.0000
# 5 0.0000 0.0000 0.0000 0.0000 23.0063 0.0000
# 6 0.0000 0.0000 0.0000 0.0000 0.0000 17.6119
#
#
#
# Elastic Compliance Matrix: (Units=1/GPa)
#
#
# Indices 1 2 3 4 5 6 
#
# 1 0.017680 -0.005246 -0.007235 0.000000 0.000000 0.000000
# 2 -0.005246 0.017681 -0.007235 0.000000 0.000000 0.000000
# 3 -0.007235 -0.007235 0.021070 0.000000 0.000000 0.000000
# 4 0.000000 0.000000 0.000000 0.043467 0.000000 0.000000
# 5 0.000000 0.000000 0.000000 0.000000 0.043466 0.000000
# 6 0.000000 0.000000 0.000000 0.000000 0.000000 0.056780
#
#
# Mechanical properties :
#
#
# Convention : Reuss Voigt Hill
#
# Bulk Modulus (GPa) = 58.82796 58.99086 58.90941
# Shear Modulus (GPa) = 20.38814 20.68890 20.53852
#
# Velocity S-wave (km/s) = 3.50161 3.52735 3.51450
# Velocity P-wave (km/s) = 7.19216 7.21570 7.20394
#
# Compressibility (1/GPa) = 0.01699872
#
# Stress axis : x y z
#
# Youngs Moduli (GPa) = 56.56207 56.55890 47.46147
#
# Poissons Ratio (x) = 0.29668 0.34338
# Poissons Ratio (y) = 0.29670 0.34339
# Poissons Ratio (z) = 0.40922 0.40921
#
# Static dielectric constant tensor:
#      x y z
#    x 1.562520 0.000000 0.000000 
#    y 0.000000 1.562520 0.000000 
#    z 0.000000 0.000000 1.590570 
# 
# From -- ./inp_files/9316.got.cif
#   From: 2010.05.17/outbox.cif.g08.bks.cpg/sg142_5_cif.got.tgz:9316.got - 2010.05.20 13:39:18.
