data_PCOD9573062
_publ_section_title
;
Structure prediction by ZEFSAII (Michael W. Deem and Ramdas Pophale) SiO2 
 PCOD9573062
Probable space group: I 41/A M D
;
_chemical_formula_sum "Si O2"
_cell_formula_units_Z 160
_cell_length_a 26.058462
_cell_length_b 26.058462
_cell_length_c 13.257532
_cell_angle_alpha 90.000000
_cell_angle_beta 90.000000
_cell_angle_gamma 90.000000
_cell_volume 9002.440159
_symmetry_space_group_name_H-M "I 41/A M D"
_symmetry_group_IT_number 141
_space_group.IT_coordinate_system_code '2'
_symmetry_cell_setting 'tetragonal'
loop_
_space_group_symop_operation_xyz
x,y,z
1/4-y,3/4+x,1/4+z
-x,1/2-y,z
1/4+y,1/4-x,3/4+z
x,-y,-z
-x,1/2+y,-z
1/4+y,3/4+x,1/4-z
1/4-y,1/4-x,3/4-z
-x,-y,-z
3/4+y,1/4-x,3/4-z
x,1/2+y,-z
3/4-y,3/4+x,1/4-z
-x,y,z
x,1/2-y,z
3/4-y,1/4-x,3/4+z
3/4+y,3/4+x,1/4+z
1/2+x,1/2+y,1/2+z
3/4-y,1/4+x,3/4+z
1/2-x,-y,1/2+z
3/4+y,3/4-x,1/4+z
1/2+x,1/2-y,1/2-z
1/2-x,y,1/2-z
3/4+y,1/4+x,3/4-z
3/4-y,3/4-x,1/4-z
1/2-x,1/2-y,1/2-z
1/4+y,3/4-x,1/4-z
1/2+x,y,1/2-z
1/4-y,1/4+x,3/4-z
1/2-x,1/2+y,1/2+z
1/2+x,-y,1/2+z
1/4-y,3/4-x,1/4+z
1/4+y,1/4+x,3/4+z
loop_
_atom_site_type_symbol
_atom_site_label
_atom_site_fract_x
_atom_site_fract_y
_atom_site_fract_z
Si Si1 0.583258 0.750000 0.846692
Si Si2 0.801834 0.134339 0.871388
Si Si3 0.315104 0.847826 0.140872
Si Si4 0.000000 0.972639 0.393637
Si Si5 0.144050 0.330493 0.069218
Si Si6 0.500000 0.187728 0.861159
Si Si7 0.321139 0.750000 0.997950
O O1 0.549871 0.700130 0.875000
O O2 0.582889 0.750000 0.726130
O O3 0.635411 0.750000 0.910778
O O4 0.828534 0.078534 0.875000
O O5 0.741076 0.131530 0.888705
O O6 0.811143 0.160409 0.762284
O O7 0.831446 0.164590 0.958514
O O8 0.363730 0.885178 0.133238
O O9 0.325631 0.798891 0.071360
O O10 0.951721 0.935114 0.381778
O O11 0.000000 0.000000 0.500000
O O12 0.000000 0.015903 0.306766
O O13 0.089991 0.300012 0.064245
O O14 0.500000 0.250000 0.858292
#
# Coordination Sequence:
#
# PCOD9573062 Si02
#       7
#    16  32  32  16  32  16  16
#     4  11  22  38  57  84 123 156 207 259 302 356
#     4   9  19  39  62  91 122 161 191 259 316 368
#     4  10  21  35  65  91 118 157 213 242 307 384
#     4  11  23  40  59  83 125 165 201 259 337 356
#     4  10  21  39  61  88 127 159 202 264 306 372
#     4  11  22  38  61  85 121 170 208 247 320 371
#     4  12  22  34  61  95 114 159 215 260 293 382
#
# _framework density 17.772959
#
# number of rings (size 3 to 8) (size 9 to 14) (size 15 to 20)
#    0.000    1.700    3.000    2.400    1.400    3.200 
#    0.000    0.000   13.200    0.000    0.000    0.000 
#    0.000    0.000    0.000    0.000    0.000    0.000 
#
# Total GULP energy -445992.333637 kJ/mol
# GULP energy per Si atom -5574.904170 kJ/mol
# Density = 1.773251 g / cm^3
# Si number density = 17.772959 Si / 1000 Ang^3
#
#
#
# Elastic Constant Matrix: (Units=GPa)
#
#
# Indices 1 2 3 4 5 6 
#
# 1 137.3204 64.6235 64.2975 0.0000 0.0000 0.0000
# 2 64.6235 137.3203 64.2972 0.0000 0.0000 0.0000
# 3 64.2975 64.2972 91.5615 0.0000 0.0000 0.0000
# 4 0.0000 0.0000 0.0000 20.8336 0.0000 0.0000
# 5 0.0000 0.0000 0.0000 0.0000 20.8385 0.0000
# 6 0.0000 0.0000 0.0000 0.0000 0.0000 20.9481
#
#
#
# Elastic Compliance Matrix: (Units=1/GPa)
#
#
# Indices 1 2 3 4 5 6 
#
# 1 0.011357 -0.002399 -0.006290 0.000000 0.000000 0.000000
# 2 -0.002399 0.011357 -0.006290 0.000000 0.000000 0.000000
# 3 -0.006290 -0.006290 0.019756 0.000000 0.000000 0.000000
# 4 0.000000 0.000000 0.000000 0.047999 0.000000 0.000000
# 5 0.000000 0.000000 0.000000 0.000000 0.047988 0.000000
# 6 0.000000 0.000000 0.000000 0.000000 0.000000 0.047737
#
#
# Mechanical properties :
#
#
# Convention : Reuss Voigt Hill
#
# Bulk Modulus (GPa) = 79.93579 83.62651 81.78115
# Shear Modulus (GPa) = 22.69404 24.05631 23.37517
#
# Velocity S-wave (km/s) = 3.57723 3.68303 3.63052
# Velocity P-wave (km/s) = 7.88263 8.07720 7.98051
#
# Compressibility (1/GPa) = 0.01251004
#
# Stress axis : x y z
#
# Youngs Moduli (GPa) = 88.05487 88.05519 50.61802
#
# Poissons Ratio (x) = 0.21126 0.31839
# Poissons Ratio (y) = 0.21126 0.31839
# Poissons Ratio (z) = 0.55388 0.55387
#
# Static dielectric constant tensor:
#      x y z
#    x 1.612940 0.000000 0.000000 
#    y 0.000000 1.612940 0.000000 
#    z 0.000000 0.000000 1.631910 
# 
# From -- ./inp_files/4972.got.cif
#   From: 2010.05.17/outbox.cif.g08.bks.cpg/sg141_3_cif.got.tgz:4972.got - 2010.05.20 13:30:51.
