data_PCOD9573528
_publ_section_title
;
Structure prediction by ZEFSAII (Michael W. Deem and Ramdas Pophale) SiO2 
 PCOD9573528
Probable space group: I 41/A C D
;
_chemical_formula_sum "Si O2"
_cell_formula_units_Z 240
_cell_length_a 20.938418
_cell_length_b 20.938418
_cell_length_c 26.632344
_cell_angle_alpha 90.000000
_cell_angle_beta 90.000000
_cell_angle_gamma 90.000000
_cell_volume 11676.081637
_symmetry_space_group_name_H-M "I 41/A C D"
_symmetry_group_IT_number 142
_space_group.IT_coordinate_system_code '2'
_symmetry_cell_setting 'tetragonal'
loop_
_space_group_symop_operation_xyz
x,y,z
1/4-y,3/4+x,1/4+z
-x,1/2-y,z
1/4+y,1/4-x,3/4+z
x,-y,1/2-z
1/2-x,y,-z
3/4+y,1/4+x,1/4-z
1/4-y,1/4-x,1/4-z
-x,-y,-z
3/4+y,1/4-x,3/4-z
x,1/2+y,-z
3/4-y,3/4+x,1/4-z
-x,y,1/2+z
1/2+x,-y,z
1/4-y,3/4-x,3/4+z
3/4+y,3/4+x,3/4+z
1/2+x,1/2+y,1/2+z
3/4-y,1/4+x,3/4+z
1/2-x,-y,1/2+z
3/4+y,3/4-x,1/4+z
1/2+x,1/2-y,-z
-x,1/2+y,1/2-z
1/4+y,3/4+x,3/4-z
3/4-y,3/4-x,3/4-z
1/2-x,1/2-y,1/2-z
1/4+y,3/4-x,1/4-z
1/2+x,y,1/2-z
1/4-y,1/4+x,3/4-z
1/2-x,1/2+y,z
x,1/2-y,1/2+z
3/4-y,1/4-x,1/4+z
1/4+y,1/4+x,1/4+z
loop_
_atom_site_type_symbol
_atom_site_label
_atom_site_fract_x
_atom_site_fract_y
_atom_site_fract_z
Si Si1 0.000000 0.250000 0.289695
Si Si2 0.380289 0.815515 0.910049
Si Si3 0.042437 0.371973 0.514351
Si Si4 0.791019 0.121022 0.166412
Si Si5 0.186073 0.837386 0.722507
Si Si6 0.637270 0.901081 0.935114
Si Si7 0.523827 0.453723 0.902500
Si Si8 0.033647 0.521607 0.694115
O O1 0.034360 0.303397 0.322982
O O2 0.049909 0.213151 0.253972
O O3 0.378015 0.883398 0.938295
O O4 0.377427 0.832667 0.851633
O O5 0.322570 0.768867 0.924684
O O6 0.102669 0.405552 0.488543
O O7 0.040895 0.386177 0.573051
O O8 0.979231 0.406728 0.492848
O O9 0.836891 0.086891 0.125000
O O10 0.805945 0.120441 0.226591
O O11 0.719287 0.093941 0.162981
O O12 0.786514 0.197247 0.156424
O O13 0.243966 0.812685 0.686516
O O14 0.693297 0.851251 0.940790
O O15 0.537911 0.463557 0.844545
O O16 0.018609 0.500000 0.750000
#
# Coordination Sequence:
#
# PCOD9573528 Si02
#       8
#    16  32  32  32  32  32  32  32
#     4  10  22  35  64 113 134 158 221 298 343 402
#     4  11  23  36  68 102 135 164 221 289 351 398
#     4  10  19  35  64  94 137 171 219 269 342 417
#     4  11  23  39  67  97 132 172 232 285 324 402
#     4  10  19  37  65 102 127 172 221 273 341 419
#     4  12  22  41  65  98 133 179 226 278 341 414
#     4  11  20  43  67  95 132 186 220 272 351 426
#     4  12  27  43  66  99 143 178 226 288 354 416
#
# _framework density 20.554839999999999
#
# number of rings (size 3 to 8) (size 9 to 14) (size 15 to 20)
#    0.000    1.067    6.667    0.800    3.733    0.533 
#    0.000    3.333    0.000    0.800    0.000    0.000 
#    0.000    0.000    0.000    0.000    0.000    0.000 
#
# Total GULP energy -669856.767681 kJ/mol
# GULP energy per Si atom -5582.139731 kJ/mol
# Density = 2.050806 g / cm^3
# Si number density = 20.554840 Si / 1000 Ang^3
#
#
#
# Elastic Constant Matrix: (Units=GPa)
#
#
# Indices 1 2 3 4 5 6 
#
# 1 42.6586 18.5709 21.6837 0.0000 0.0000 0.0000
# 2 18.5709 42.6586 21.6837 0.0000 0.0000 0.0000
# 3 21.6837 21.6837 116.4310 0.0000 0.0000 0.0000
# 4 0.0000 0.0000 0.0000 23.3340 0.0000 0.0000
# 5 0.0000 0.0000 0.0000 0.0000 23.3340 0.0000
# 6 0.0000 0.0000 0.0000 0.0000 0.0000 -1.7674
#
#
#
# Elastic Compliance Matrix: (Units=1/GPa)
#
#
# Indices 1 2 3 4 5 6 
#
# 1 0.030164 -0.011351 -0.003504 0.000000 0.000000 0.000000
# 2 -0.011351 0.030164 -0.003504 0.000000 0.000000 0.000000
# 3 -0.003504 -0.003504 0.009894 0.000000 0.000000 0.000000
# 4 0.000000 0.000000 0.000000 0.042856 0.000000 0.000000
# 5 0.000000 0.000000 0.000000 0.000000 0.042856 0.000000
# 6 0.000000 0.000000 0.000000 0.000000 0.000000 -0.565789
#
#
# Mechanical properties :
#
#
# Convention : Reuss Voigt Hill
#
# Bulk Modulus (GPa) = 29.84539 36.18052 33.01295
# Shear Modulus (GPa) = -13.81330 18.30077 2.24374
#
# Velocity S-wave (km/s) = -2.59515 2.98709 1.04592
# Velocity P-wave (km/s) = 2.36044 5.43481 4.18980
#
# Compressibility (1/GPa) = 0.03350601
#
# Stress axis : x y z
#
# Youngs Moduli (GPa) = 33.15181 33.15181 101.07301
#
# Poissons Ratio (x) = 0.37629 0.35414
# Poissons Ratio (y) = 0.37629 0.35414
# Poissons Ratio (z) = 0.11616 0.11616
#
# Static dielectric constant tensor:
#      x y z
#    x 1.755620 0.000000 0.000000 
#    y 0.000000 1.755620 0.000000 
#    z 0.000000 0.000000 1.773130 
# 
# From -- ./inp_files/11683.got.cif
#   From: 2010.05.17/outbox.cif.g08.bks.cpg/sg142_6_cif.got.tgz:11683.got - 2010.05.20 13:39:18.
