data_PCOD9573174
_publ_section_title
;
Structure prediction by ZEFSAII (Michael W. Deem and Ramdas Pophale) SiO2 
 PCOD9573174
Probable space group: I 41/A M D
;
_chemical_formula_sum "Si O2"
_cell_formula_units_Z 80
_cell_length_a 16.167762
_cell_length_b 16.167762
_cell_length_c 15.419854
_cell_angle_alpha 90.000000
_cell_angle_beta 90.000000
_cell_angle_gamma 90.000000
_cell_volume 4030.696299
_symmetry_space_group_name_H-M "I 41/A M D"
_symmetry_group_IT_number 141
_space_group.IT_coordinate_system_code '2'
_symmetry_cell_setting 'tetragonal'
loop_
_space_group_symop_operation_xyz
x,y,z
1/4-y,3/4+x,1/4+z
-x,1/2-y,z
1/4+y,1/4-x,3/4+z
x,-y,-z
-x,1/2+y,-z
1/4+y,3/4+x,1/4-z
1/4-y,1/4-x,3/4-z
-x,-y,-z
3/4+y,1/4-x,3/4-z
x,1/2+y,-z
3/4-y,3/4+x,1/4-z
-x,y,z
x,1/2-y,z
3/4-y,1/4-x,3/4+z
3/4+y,3/4+x,1/4+z
1/2+x,1/2+y,1/2+z
3/4-y,1/4+x,3/4+z
1/2-x,-y,1/2+z
3/4+y,3/4-x,1/4+z
1/2+x,1/2-y,1/2-z
1/2-x,y,1/2-z
3/4+y,1/4+x,3/4-z
3/4-y,3/4-x,1/4-z
1/2-x,1/2-y,1/2-z
1/4+y,3/4-x,1/4-z
1/2+x,y,1/2-z
1/4-y,1/4+x,3/4-z
1/2-x,1/2+y,1/2+z
1/2+x,-y,1/2+z
1/4-y,3/4-x,1/4+z
1/4+y,1/4+x,3/4+z
loop_
_atom_site_type_symbol
_atom_site_label
_atom_site_fract_x
_atom_site_fract_y
_atom_site_fract_z
Si Si1 0.595561 0.845561 0.375000
Si Si2 0.095533 0.986604 0.778630
Si Si3 0.593360 0.957291 0.093562
O O1 0.604075 0.750000 0.344039
O O2 0.667835 0.860012 0.444763
O O3 0.146754 0.920864 0.833349
O O4 0.000000 0.968634 0.794931
O O5 0.109734 0.983304 0.675387
O O6 0.500000 0.921467 0.109423
O O7 0.589296 0.000000 0.000000
#
# Coordination Sequence:
#
# PCOD9573174 Si02
#       3
#    16  32  32
#     4   9  20  38  58  88 126 154 189 244 304 372
#     4  10  22  38  60  88 116 158 203 247 309 362
#     4  10  22  39  58  84 118 156 202 251 300 361
#
# _framework density 19.847687000000001
#
# number of rings (size 3 to 8) (size 9 to 14) (size 15 to 20)
#    0.000    2.200    0.000    1.200    5.600    2.400 
#    0.000    8.000    0.000    7.200    0.000    0.000 
#    0.000    0.000    0.000    0.000    0.000    0.000 
#
# Total GULP energy -222833.100048 kJ/mol
# GULP energy per Si atom -5570.827501 kJ/mol
# Density = 1.980251 g / cm^3
# Si number density = 19.847687 Si / 1000 Ang^3
#
#
#
# Elastic Constant Matrix: (Units=GPa)
#
#
# Indices 1 2 3 4 5 6 
#
# 1 78.9070 57.0026 8.1763 0.0000 0.0000 0.0000
# 2 57.0026 78.9070 8.1763 0.0000 0.0000 0.0000
# 3 8.1763 8.1763 24.5375 0.0000 0.0000 0.0000
# 4 0.0000 0.0000 0.0000 29.1502 0.0000 0.0000
# 5 0.0000 0.0000 0.0000 0.0000 29.1502 0.0000
# 6 0.0000 0.0000 0.0000 0.0000 0.0000 31.1642
#
#
#
# Elastic Compliance Matrix: (Units=1/GPa)
#
#
# Indices 1 2 3 4 5 6 
#
# 1 0.026659 -0.018994 -0.002554 0.000000 0.000000 0.000000
# 2 -0.018994 0.026659 -0.002554 0.000000 0.000000 0.000000
# 3 -0.002554 -0.002554 0.042456 0.000000 0.000000 0.000000
# 4 0.000000 0.000000 0.000000 0.034305 0.000000 0.000000
# 5 0.000000 0.000000 0.000000 0.000000 0.034305 0.000000
# 6 0.000000 0.000000 0.000000 0.000000 0.000000 0.032088
#
#
# Mechanical properties :
#
#
# Convention : Reuss Voigt Hill
#
# Bulk Modulus (GPa) = 21.02172 36.56240 28.79206
# Shear Modulus (GPa) = 19.19140 25.15934 22.17537
#
# Velocity S-wave (km/s) = 3.11293 3.56423 3.34620
# Velocity P-wave (km/s) = 4.85128 5.94977 5.42839
#
# Compressibility (1/GPa) = 0.04756985
#
# Stress axis : x y z
#
# Youngs Moduli (GPa) = 37.51076 37.51076 23.55372
#
# Poissons Ratio (x) = 0.71247 0.06016
# Poissons Ratio (y) = 0.71247 0.06016
# Poissons Ratio (z) = 0.09581 0.09581
#
# Static dielectric constant tensor:
#      x y z
#    x 1.717380 0.000000 0.000000 
#    y 0.000000 1.717380 0.000000 
#    z 0.000000 0.000000 1.704200 
# 
# From -- ./inp_files/5717.got.cif
#   From: 2010.05.17/outbox.cif.g08.bks.cpg/sg141_3_cif.got.tgz:5717.got - 2010.05.20 13:30:51.
