data_PCOD9573222
_publ_section_title
;
Structure prediction by ZEFSAII (Michael W. Deem and Ramdas Pophale) SiO2 
 PCOD9573222
Probable space group: I 41/A M D
;
_chemical_formula_sum "Si O2"
_cell_formula_units_Z 136
_cell_length_a 22.591306
_cell_length_b 22.591306
_cell_length_c 11.587290
_cell_angle_alpha 90.000000
_cell_angle_beta 90.000000
_cell_angle_gamma 90.000000
_cell_volume 5913.771673
_symmetry_space_group_name_H-M "I 41/A M D"
_symmetry_group_IT_number 141
_space_group.IT_coordinate_system_code '2'
_symmetry_cell_setting 'tetragonal'
loop_
_space_group_symop_operation_xyz
x,y,z
1/4-y,3/4+x,1/4+z
-x,1/2-y,z
1/4+y,1/4-x,3/4+z
x,-y,-z
-x,1/2+y,-z
1/4+y,3/4+x,1/4-z
1/4-y,1/4-x,3/4-z
-x,-y,-z
3/4+y,1/4-x,3/4-z
x,1/2+y,-z
3/4-y,3/4+x,1/4-z
-x,y,z
x,1/2-y,z
3/4-y,1/4-x,3/4+z
3/4+y,3/4+x,1/4+z
1/2+x,1/2+y,1/2+z
3/4-y,1/4+x,3/4+z
1/2-x,-y,1/2+z
3/4+y,3/4-x,1/4+z
1/2+x,1/2-y,1/2-z
1/2-x,y,1/2-z
3/4+y,1/4+x,3/4-z
3/4-y,3/4-x,1/4-z
1/2-x,1/2-y,1/2-z
1/4+y,3/4-x,1/4-z
1/2+x,y,1/2-z
1/4-y,1/4+x,3/4-z
1/2-x,1/2+y,1/2+z
1/2+x,-y,1/2+z
1/4-y,3/4-x,1/4+z
1/4+y,1/4+x,3/4+z
loop_
_atom_site_type_symbol
_atom_site_label
_atom_site_fract_x
_atom_site_fract_y
_atom_site_fract_z
Si Si1 0.500000 0.129660 0.807051
Si Si2 0.500000 0.119188 0.287118
Si Si3 0.344689 0.250000 0.696693
Si Si4 0.500000 0.250000 0.950634
Si Si5 0.597792 0.544736 0.086984
Si Si6 0.697315 0.374272 0.984586
Si Si7 0.250000 0.848480 0.250000
O O1 0.500000 0.133474 0.668271
O O2 0.500000 0.191449 0.872081
O O3 0.443699 0.091853 0.850011
O O4 0.500000 0.125222 0.427836
O O5 0.500000 0.185667 0.236987
O O6 0.441553 0.081642 0.256552
O O7 0.300626 0.193901 0.696279
O O8 0.644635 0.579212 0.007359
O O9 0.627606 0.503366 0.182957
O O10 0.565308 0.500000 0.000000
O O11 0.720735 0.382571 0.854200
#
# Coordination Sequence:
#
# PCOD9573222 Si02
#       7
#    16  16  16   8  32  32  16
#     4  12  23  44  71 101 142 180 232 286 359 425
#     4  10  22  42  72  99 144 174 219 290 359 414
#     4   9  18  36  66 100 138 182 220 262 343 440
#     4  12  24  43  68 113 144 170 228 307 361 430
#     4  12  26  46  70  98 136 185 236 285 343 414
#     4  11  23  45  70 100 137 179 228 287 342 419
#     4   9  18  38  68  98 132 184 218 261 346 412
#
# _framework density 22.997169
#
# number of rings (size 3 to 8) (size 9 to 14) (size 15 to 20)
#    0.000    1.176    4.706    2.471    0.000    2.353 
#    6.353    0.000    0.000    2.824    0.000    0.000 
#    0.000    0.000    0.000    0.000    0.000    0.000 
#
# Total GULP energy -380401.191963 kJ/mol
# GULP energy per Si atom -5594.135176 kJ/mol
# Density = 2.294483 g / cm^3
# Si number density = 22.997169 Si / 1000 Ang^3
#
#
#
# Elastic Constant Matrix: (Units=GPa)
#
#
# Indices 1 2 3 4 5 6 
#
# 1 116.2066 42.1679 21.9289 0.0000 0.0000 0.0000
# 2 42.1679 116.2066 21.9289 0.0000 0.0000 0.0000
# 3 21.9289 21.9289 52.1561 0.0000 0.0000 0.0000
# 4 0.0000 0.0000 0.0000 10.3307 0.0000 0.0000
# 5 0.0000 0.0000 0.0000 0.0000 10.3307 0.0000
# 6 0.0000 0.0000 0.0000 0.0000 0.0000 59.6865
#
#
#
# Elastic Compliance Matrix: (Units=1/GPa)
#
#
# Indices 1 2 3 4 5 6 
#
# 1 0.010326 -0.003180 -0.003005 0.000000 0.000000 0.000000
# 2 -0.003180 0.010326 -0.003005 0.000000 0.000000 0.000000
# 3 -0.003005 -0.003005 0.021700 0.000000 0.000000 0.000000
# 4 0.000000 0.000000 0.000000 0.096799 0.000000 0.000000
# 5 0.000000 0.000000 0.000000 0.000000 0.096799 0.000000
# 6 0.000000 0.000000 0.000000 0.000000 0.000000 0.016754
#
#
# Mechanical properties :
#
#
# Convention : Reuss Voigt Hill
#
# Bulk Modulus (GPa) = 41.71226 50.73562 46.22394
# Shear Modulus (GPa) = 17.91641 29.30583 23.61112
#
# Velocity S-wave (km/s) = 2.79421 3.57364 3.20769
# Velocity P-wave (km/s) = 5.34673 6.25599 5.81915
#
# Compressibility (1/GPa) = 0.02397377
#
# Stress axis : x y z
#
# Youngs Moduli (GPa) = 96.83983 96.83983 46.08339
#
# Poissons Ratio (x) = 0.30796 0.13846
# Poissons Ratio (y) = 0.30796 0.13846
# Poissons Ratio (z) = 0.29097 0.29097
#
# Static dielectric constant tensor:
#      x y z
#    x 1.843570 0.000000 0.000000 
#    y 0.000000 1.843570 0.000000 
#    z 0.000000 0.000000 1.861780 
# 
# From -- ./inp_files/4718.got.cif
#   From: 2010.05.17/outbox.cif.g08.bks.cpg/sg141_3_cif.got.tgz:4718.got - 2010.05.20 13:30:51.
