data_PCOD9573497
_publ_section_title
;
Structure prediction by ZEFSAII (Michael W. Deem and Ramdas Pophale) SiO2 
 PCOD9573497
Probable space group: I 41/A C D
;
_chemical_formula_sum "Si O2"
_cell_formula_units_Z 136
_cell_length_a 18.893858
_cell_length_b 18.893858
_cell_length_c 15.270376
_cell_angle_alpha 90.000000
_cell_angle_beta 90.000000
_cell_angle_gamma 90.000000
_cell_volume 5451.186300
_symmetry_space_group_name_H-M "I 41/A C D"
_symmetry_group_IT_number 142
_space_group.IT_coordinate_system_code '2'
_symmetry_cell_setting 'tetragonal'
loop_
_space_group_symop_operation_xyz
x,y,z
1/4-y,3/4+x,1/4+z
-x,1/2-y,z
1/4+y,1/4-x,3/4+z
x,-y,1/2-z
1/2-x,y,-z
3/4+y,1/4+x,1/4-z
1/4-y,1/4-x,1/4-z
-x,-y,-z
3/4+y,1/4-x,3/4-z
x,1/2+y,-z
3/4-y,3/4+x,1/4-z
-x,y,1/2+z
1/2+x,-y,z
1/4-y,3/4-x,3/4+z
3/4+y,3/4+x,3/4+z
1/2+x,1/2+y,1/2+z
3/4-y,1/4+x,3/4+z
1/2-x,-y,1/2+z
3/4+y,3/4-x,1/4+z
1/2+x,1/2-y,-z
-x,1/2+y,1/2-z
1/4+y,3/4+x,3/4-z
3/4-y,3/4-x,3/4-z
1/2-x,1/2-y,1/2-z
1/4+y,3/4-x,1/4-z
1/2+x,y,1/2-z
1/4-y,1/4+x,3/4-z
1/2-x,1/2+y,z
x,1/2-y,1/2+z
3/4-y,1/4-x,1/4+z
1/4+y,1/4+x,1/4+z
loop_
_atom_site_type_symbol
_atom_site_label
_atom_site_fract_x
_atom_site_fract_y
_atom_site_fract_z
Si Si1 0.117908 0.251772 0.875381
Si Si2 0.234158 0.670447 0.694697
Si Si3 0.500000 0.750000 0.125000
Si Si4 0.847273 0.284674 0.553904
Si Si5 0.819644 0.928917 0.206795
O O1 0.064148 0.317559 0.890188
O O2 0.168857 0.275763 0.797545
O O3 0.166348 0.243910 0.962162
O O4 0.293197 0.709586 0.634281
O O5 0.263689 0.633737 0.781909
O O6 0.201841 0.606934 0.633255
O O7 0.425017 0.754937 0.075785
O O8 0.844551 0.366335 0.521331
O O9 0.789083 0.000000 0.250000
#
# Coordination Sequence:
#
# PCOD9573497 Si02
#       5
#    32  32   8  32  32
#     4  10  21  38  56  80 116 158 197 243 313 367
#     4  10  19  36  61  88 115 161 206 255 299 374
#     4  12  16  28  58  88 112 136 204 254 280 342
#     4  10  19  32  57  83 110 150 194 245 292 354
#     4   9  16  32  56  88 115 154 205 239 293 366
#
# _framework density 24.948698
#
# number of rings (size 3 to 8) (size 9 to 14) (size 15 to 20)
#    0.000    2.118    2.353    5.647    0.000    0.000 
#    0.000    7.059    0.000    0.000    0.000    0.000 
#    0.000    0.000    0.000    0.000    0.000    0.000 
#
# Total GULP energy -379292.135661 kJ/mol
# GULP energy per Si atom -5577.825524 kJ/mol
# Density = 2.489191 g / cm^3
# Si number density = 24.948698 Si / 1000 Ang^3
#
#
#
# Elastic Constant Matrix: (Units=GPa)
#
#
# Indices 1 2 3 4 5 6 
#
# 1 102.7994 51.2802 32.5103 0.0000 0.0000 0.0000
# 2 51.2802 102.7994 32.5103 0.0000 0.0000 0.0000
# 3 32.5103 32.5103 90.5982 0.0000 0.0000 0.0000
# 4 0.0000 0.0000 0.0000 19.1405 0.0000 0.0000
# 5 0.0000 0.0000 0.0000 0.0000 19.1405 0.0000
# 6 0.0000 0.0000 0.0000 0.0000 0.0000 52.3555
#
#
#
# Elastic Compliance Matrix: (Units=1/GPa)
#
#
# Indices 1 2 3 4 5 6 
#
# 1 0.013529 -0.005881 -0.002745 0.000000 0.000000 0.000000
# 2 -0.005881 0.013529 -0.002745 0.000000 0.000000 0.000000
# 3 -0.002745 -0.002745 0.013007 0.000000 0.000000 0.000000
# 4 0.000000 0.000000 0.000000 0.052245 0.000000 0.000000
# 5 0.000000 0.000000 0.000000 0.000000 0.052245 0.000000
# 6 0.000000 0.000000 0.000000 0.000000 0.000000 0.019100
#
#
# Mechanical properties :
#
#
# Convention : Reuss Voigt Hill
#
# Bulk Modulus (GPa) = 57.71681 58.75541 58.23611
# Shear Modulus (GPa) = 26.01838 30.12039 28.06939
#
# Velocity S-wave (km/s) = 3.23286 3.47838 3.35787
# Velocity P-wave (km/s) = 6.09259 6.30348 6.19893
#
# Compressibility (1/GPa) = 0.01732597
#
# Stress axis : x y z
#
# Youngs Moduli (GPa) = 73.91373 73.91373 76.87910
#
# Poissons Ratio (x) = 0.43468 0.21100
# Poissons Ratio (y) = 0.43468 0.21100
# Poissons Ratio (z) = 0.20286 0.20286
#
# Static dielectric constant tensor:
#      x y z
#    x 2.024720 0.000000 0.000000 
#    y 0.000000 2.024720 0.000000 
#    z 0.000000 0.000000 2.088970 
# 
# From -- ./inp_files/5326.got.cif
#   From: 2010.05.17/outbox.cif.g08.bks.cpg/sg142_3_cif.got.tgz:5326.got - 2010.05.20 13:39:18.
