data_PCOD9573063
_publ_section_title
;
Structure prediction by ZEFSAII (Michael W. Deem and Ramdas Pophale) SiO2 
 PCOD9573063
Probable space group: I 41/A M D
;
_chemical_formula_sum "Si O2"
_cell_formula_units_Z 128
_cell_length_a 19.916673
_cell_length_b 19.916673
_cell_length_c 17.718877
_cell_angle_alpha 90.000000
_cell_angle_beta 90.000000
_cell_angle_gamma 90.000000
_cell_volume 7028.615395
_symmetry_space_group_name_H-M "I 41/A M D"
_symmetry_group_IT_number 141
_space_group.IT_coordinate_system_code '2'
_symmetry_cell_setting 'tetragonal'
loop_
_space_group_symop_operation_xyz
x,y,z
1/4-y,3/4+x,1/4+z
-x,1/2-y,z
1/4+y,1/4-x,3/4+z
x,-y,-z
-x,1/2+y,-z
1/4+y,3/4+x,1/4-z
1/4-y,1/4-x,3/4-z
-x,-y,-z
3/4+y,1/4-x,3/4-z
x,1/2+y,-z
3/4-y,3/4+x,1/4-z
-x,y,z
x,1/2-y,z
3/4-y,1/4-x,3/4+z
3/4+y,3/4+x,1/4+z
1/2+x,1/2+y,1/2+z
3/4-y,1/4+x,3/4+z
1/2-x,-y,1/2+z
3/4+y,3/4-x,1/4+z
1/2+x,1/2-y,1/2-z
1/2-x,y,1/2-z
3/4+y,1/4+x,3/4-z
3/4-y,3/4-x,1/4-z
1/2-x,1/2-y,1/2-z
1/4+y,3/4-x,1/4-z
1/2+x,y,1/2-z
1/4-y,1/4+x,3/4-z
1/2-x,1/2+y,1/2+z
1/2+x,-y,1/2+z
1/4-y,3/4-x,1/4+z
1/4+y,1/4+x,3/4+z
loop_
_atom_site_type_symbol
_atom_site_label
_atom_site_fract_x
_atom_site_fract_y
_atom_site_fract_z
Si Si1 0.324543 0.527143 0.084976
Si Si2 0.424952 0.566145 0.202269
Si Si3 0.855947 0.828011 0.198066
Si Si4 0.425379 0.023279 0.352445
O O1 0.263270 0.486731 0.125000
O O2 0.389977 0.521865 0.137771
O O3 0.312810 0.607202 0.086761
O O4 0.331279 0.500000 0.000000
O O5 0.500000 0.588718 0.180856
O O6 0.378471 0.627537 0.231197
O O7 0.430662 0.521830 0.277353
O O8 0.867023 0.750000 0.212377
O O9 0.899215 0.850786 0.125000
O O10 0.779249 0.836935 0.170669
O O11 0.500000 0.054696 0.363419
#
# Coordination Sequence:
#
# PCOD9573063 Si02
#       4
#    32  32  32  32
#     4  12  23  37  60  85 107 147 197 244 287 339
#     4  10  21  36  52  77 113 146 186 239 285 332
#     4   9  17  30  53  83 119 159 185 215 271 347
#     4   9  19  35  54  82 120 150 178 225 285 341
#
# _framework density 18.211269000000001
#
# number of rings (size 3 to 8) (size 9 to 14) (size 15 to 20)
#    0.000    2.000    2.500    4.500    0.000    3.250 
#    0.000    2.500    0.000    0.000    0.000    0.000 
#    0.000    0.500    0.000    0.000    0.000    0.000 
#
# Total GULP energy -356712.257352 kJ/mol
# GULP energy per Si atom -5573.629021 kJ/mol
# Density = 1.816982 g / cm^3
# Si number density = 18.211269 Si / 1000 Ang^3
#
#
#
# Elastic Constant Matrix: (Units=GPa)
#
#
# Indices 1 2 3 4 5 6 
#
# 1 -41.8109 130.6383 46.8227 0.0000 0.0000 0.0000
# 2 130.6383 -41.7874 46.8400 0.0000 0.0000 0.0000
# 3 46.8227 46.8400 131.5569 0.0000 0.0000 0.0000
# 4 0.0000 0.0000 0.0000 2.4931 0.0000 0.0000
# 5 0.0000 0.0000 0.0000 0.0000 2.4910 0.0000
# 6 0.0000 0.0000 0.0000 0.0000 0.0000 8.7009
#
#
#
# Elastic Compliance Matrix: (Units=1/GPa)
#
#
# Indices 1 2 3 4 5 6 
#
# 1 0.006109 0.011909 -0.006414 0.000000 0.000000 0.000000
# 2 0.011909 0.006110 -0.006414 0.000000 0.000000 0.000000
# 3 -0.006414 -0.006414 0.012168 0.000000 0.000000 0.000000
# 4 0.000000 0.000000 0.000000 0.401106 0.000000 0.000000
# 5 0.000000 0.000000 0.000000 0.000000 0.401439 0.000000
# 6 0.000000 0.000000 0.000000 0.000000 0.000000 0.114931
#
#
# Mechanical properties :
#
#
# Convention : Reuss Voigt Hill
#
# Bulk Modulus (GPa) = 44.34893 55.17341 49.76117
# Shear Modulus (GPa) = 5.25641 -9.01915 -1.88137
#
# Velocity S-wave (km/s) = 1.70077 -2.22784 -1.01751
# Velocity P-wave (km/s) = 5.31622 4.87282 5.09934
#
# Compressibility (1/GPa) = 0.02254846
#
# Stress axis : x y z
#
# Youngs Moduli (GPa) = 163.68616 163.65465 82.18282
#
# Poissons Ratio (x) = -1.94897 0.52716
# Poissons Ratio (y) = -1.94935 0.52713
# Poissons Ratio (z) = 1.04996 1.04971
#
# Static dielectric constant tensor:
#      x y z
#    x 1.660140 0.000000 0.000000 
#    y 0.000000 1.660140 0.000000 
#    z 0.000000 0.000000 1.641330 
# 
# From -- ./inp_files/8224.got.cif
#   From: 2010.05.17/outbox.cif.g08.bks.cpg/sg141_5_cif.got.tgz:8224.got - 2010.05.20 13:30:51.
