data_PCOD9573361
_publ_section_title
;
Structure prediction by ZEFSAII (Michael W. Deem and Ramdas Pophale) SiO2 
 PCOD9573361
Probable space group: I 41/A M D
;
_chemical_formula_sum "Si O2"
_cell_formula_units_Z 92
_cell_length_a 14.757877
_cell_length_b 14.757877
_cell_length_c 19.340998
_cell_angle_alpha 90.000000
_cell_angle_beta 90.000000
_cell_angle_gamma 90.000000
_cell_volume 4212.371374
_symmetry_space_group_name_H-M "I 41/A M D"
_symmetry_group_IT_number 141
_space_group.IT_coordinate_system_code '2'
_symmetry_cell_setting 'tetragonal'
loop_
_space_group_symop_operation_xyz
x,y,z
1/4-y,3/4+x,1/4+z
-x,1/2-y,z
1/4+y,1/4-x,3/4+z
x,-y,-z
-x,1/2+y,-z
1/4+y,3/4+x,1/4-z
1/4-y,1/4-x,3/4-z
-x,-y,-z
3/4+y,1/4-x,3/4-z
x,1/2+y,-z
3/4-y,3/4+x,1/4-z
-x,y,z
x,1/2-y,z
3/4-y,1/4-x,3/4+z
3/4+y,3/4+x,1/4+z
1/2+x,1/2+y,1/2+z
3/4-y,1/4+x,3/4+z
1/2-x,-y,1/2+z
3/4+y,3/4-x,1/4+z
1/2+x,1/2-y,1/2-z
1/2-x,y,1/2-z
3/4+y,1/4+x,3/4-z
3/4-y,3/4-x,1/4-z
1/2-x,1/2-y,1/2-z
1/4+y,3/4-x,1/4-z
1/2+x,y,1/2-z
1/4-y,1/4+x,3/4-z
1/2-x,1/2+y,1/2+z
1/2+x,-y,1/2+z
1/4-y,3/4-x,1/4+z
1/4+y,1/4+x,3/4+z
loop_
_atom_site_type_symbol
_atom_site_label
_atom_site_fract_x
_atom_site_fract_y
_atom_site_fract_z
Si Si1 0.500000 0.108879 0.505185
Si Si2 0.806788 0.354101 0.058712
Si Si3 0.500000 0.750000 0.375000
Si Si4 0.000000 0.250000 0.209788
Si Si5 0.336013 0.603170 0.709323
O O1 0.409335 0.142467 0.468110
O O2 0.500000 0.158851 0.579026
O O3 0.500000 0.000000 0.500000
O O4 0.782333 0.250000 0.075021
O O5 0.807089 0.409246 0.129881
O O6 0.738862 0.389192 0.000080
O O7 0.079451 0.329116 0.210091
O O8 0.250000 0.642143 0.750000
#
# Coordination Sequence:
#
# PCOD9573361 Si02
#       5
#    16  32   4   8  32
#     4  12  29  47  79 107 156 202 252 322 383 462
#     4  12  26  49  79 114 156 210 260 327 392 468
#     4  12  28  50  72 120 150 192 266 304 376 482
#     4  12  24  45  77 108 159 203 258 328 388 475
#     4  12  27  50  77 117 159 204 265 323 399 472
#
# _framework density 21.840430000000001
#
# number of rings (size 3 to 8) (size 9 to 14) (size 15 to 20)
#    0.000    0.000    5.217    3.652    4.870    0.000 
#    0.000    3.478    0.000    0.000    0.000    0.000 
#    0.000    0.000    0.000    0.000    0.000    0.000 
#
# Total GULP energy -256384.496416 kJ/mol
# GULP energy per Si atom -5573.576009 kJ/mol
# Density = 2.179072 g / cm^3
# Si number density = 21.840430 Si / 1000 Ang^3
#
#
#
# Elastic Constant Matrix: (Units=GPa)
#
#
# Indices 1 2 3 4 5 6 
#
# 1 176.3360 23.5494 65.0835 0.0000 0.0000 0.0000
# 2 23.5494 176.3360 65.0835 0.0000 0.0000 0.0000
# 3 65.0835 65.0835 187.3382 0.0000 0.0000 0.0000
# 4 0.0000 0.0000 0.0000 31.6711 0.0000 0.0000
# 5 0.0000 0.0000 0.0000 0.0000 31.6711 0.0000
# 6 0.0000 0.0000 0.0000 0.0000 0.0000 53.1662
#
#
#
# Elastic Compliance Matrix: (Units=1/GPa)
#
#
# Indices 1 2 3 4 5 6 
#
# 1 0.006505 -0.000040 -0.002246 0.000000 0.000000 0.000000
# 2 -0.000040 0.006505 -0.002246 0.000000 0.000000 0.000000
# 3 -0.002246 -0.002246 0.006899 0.000000 0.000000 0.000000
# 4 0.000000 0.000000 0.000000 0.031575 0.000000 0.000000
# 5 0.000000 0.000000 0.000000 0.000000 0.031575 0.000000
# 6 0.000000 0.000000 0.000000 0.000000 0.000000 0.018809
#
#
# Mechanical properties :
#
#
# Convention : Reuss Voigt Hill
#
# Bulk Modulus (GPa) = 92.20843 94.16034 93.18439
# Shear Modulus (GPa) = 43.65031 49.05461 46.35246
#
# Velocity S-wave (km/s) = 4.47542 4.74439 4.61187
# Velocity P-wave (km/s) = 8.30763 8.55680 8.43313
#
# Compressibility (1/GPa) = 0.01084500
#
# Stress axis : x y z
#
# Youngs Moduli (GPa) = 153.71952 153.71952 144.95534
#
# Poissons Ratio (x) = 0.00611 0.32560
# Poissons Ratio (y) = 0.00611 0.32560
# Poissons Ratio (z) = 0.34529 0.34529
#
# Static dielectric constant tensor:
#      x y z
#    x 1.808120 0.000000 0.000000 
#    y 0.000000 1.808120 0.000000 
#    z 0.000000 0.000000 1.851420 
# 
# From -- ./inp_files/9813.got.cif
#   From: 2010.05.17/outbox.cif.g08.bks.cpg/sg141_5_cif.got.tgz:9813.got - 2010.05.20 13:30:51.
