data_PCOD9573633
_publ_section_title
;
Structure prediction by ZEFSAII (Michael W. Deem and Ramdas Pophale) SiO2 
 PCOD9573633
Probable space group: I 41/A C D
;
_chemical_formula_sum "Si O2"
_cell_formula_units_Z 128
_cell_length_a 22.812184
_cell_length_b 22.812184
_cell_length_c 12.119088
_cell_angle_alpha 90.000000
_cell_angle_beta 90.000000
_cell_angle_gamma 90.000000
_cell_volume 6306.721754
_symmetry_space_group_name_H-M "I 41/A C D"
_symmetry_group_IT_number 142
_space_group.IT_coordinate_system_code '2'
_symmetry_cell_setting 'tetragonal'
loop_
_space_group_symop_operation_xyz
x,y,z
1/4-y,3/4+x,1/4+z
-x,1/2-y,z
1/4+y,1/4-x,3/4+z
x,-y,1/2-z
1/2-x,y,-z
3/4+y,1/4+x,1/4-z
1/4-y,1/4-x,1/4-z
-x,-y,-z
3/4+y,1/4-x,3/4-z
x,1/2+y,-z
3/4-y,3/4+x,1/4-z
-x,y,1/2+z
1/2+x,-y,z
1/4-y,3/4-x,3/4+z
3/4+y,3/4+x,3/4+z
1/2+x,1/2+y,1/2+z
3/4-y,1/4+x,3/4+z
1/2-x,-y,1/2+z
3/4+y,3/4-x,1/4+z
1/2+x,1/2-y,-z
-x,1/2+y,1/2-z
1/4+y,3/4+x,3/4-z
3/4-y,3/4-x,3/4-z
1/2-x,1/2-y,1/2-z
1/4+y,3/4-x,1/4-z
1/2+x,y,1/2-z
1/4-y,1/4+x,3/4-z
1/2-x,1/2+y,z
x,1/2-y,1/2+z
3/4-y,1/4-x,1/4+z
1/4+y,1/4+x,1/4+z
loop_
_atom_site_type_symbol
_atom_site_label
_atom_site_fract_x
_atom_site_fract_y
_atom_site_fract_z
Si Si1 0.616894 0.118599 0.701653
Si Si2 0.682965 0.706953 0.153179
Si Si3 0.672501 0.009170 0.125407
Si Si4 0.809192 0.673677 0.248290
O O1 0.641793 0.179429 0.750086
O O2 0.576064 0.088260 0.793563
O O3 0.677380 0.084457 0.676654
O O4 0.584517 0.113257 0.584707
O O5 0.751255 0.693421 0.178951
O O6 0.678011 0.776857 0.160847
O O7 0.739568 0.989568 0.125000
O O8 0.649749 0.000000 0.250000
O O9 0.636179 0.962831 0.052641
#
# Coordination Sequence:
#
# PCOD9573633 Si02
#       4
#    32  32  32  32
#     4  10  20  38  57  87 120 158 203 251 315 364
#     4   9  21  36  58  88 116 158 206 251 302 369
#     4  11  22  37  56  91 127 163 199 248 321 383
#     4  10  20  37  58  84 120 158 203 253 297 368
#
# _framework density 20.295805999999999
#
# number of rings (size 3 to 8) (size 9 to 14) (size 15 to 20)
#    0.000    2.000    2.500    0.750    0.000    8.000 
#    0.000    0.000    0.000    0.750    0.000    0.000 
#    0.000    0.000    0.000    0.000    0.000    0.000 
#
# Total GULP energy -356775.106296 kJ/mol
# GULP energy per Si atom -5574.611036 kJ/mol
# Density = 2.024961 g / cm^3
# Si number density = 20.295806 Si / 1000 Ang^3
#
#
#
# Elastic Constant Matrix: (Units=GPa)
#
#
# Indices 1 2 3 4 5 6 
#
# 1 57.7120 18.8530 10.7670 0.0000 0.0000 0.0000
# 2 18.8530 57.7120 10.7670 0.0000 0.0000 0.0000
# 3 10.7670 10.7670 71.6149 0.0000 0.0000 0.0000
# 4 0.0000 0.0000 0.0000 32.5239 0.0000 0.0000
# 5 0.0000 0.0000 0.0000 0.0000 32.5239 0.0000
# 6 0.0000 0.0000 0.0000 0.0000 0.0000 15.8320
#
#
#
# Elastic Compliance Matrix: (Units=1/GPa)
#
#
# Indices 1 2 3 4 5 6 
#
# 1 0.019686 -0.006048 -0.002050 0.000000 0.000000 0.000000
# 2 -0.006048 0.019686 -0.002050 0.000000 0.000000 0.000000
# 3 -0.002050 -0.002050 0.014580 0.000000 0.000000 0.000000
# 4 0.000000 0.000000 0.000000 0.030747 0.000000 0.000000
# 5 0.000000 0.000000 0.000000 0.000000 0.030747 0.000000
# 6 0.000000 0.000000 0.000000 0.000000 0.000000 0.063163
#
#
# Mechanical properties :
#
#
# Convention : Reuss Voigt Hill
#
# Bulk Modulus (GPa) = 29.71445 29.75699 29.73572
# Shear Modulus (GPa) = 23.79550 25.95276 24.87413
#
# Velocity S-wave (km/s) = 3.42780 3.57981 3.50463
# Velocity P-wave (km/s) = 5.50807 5.63739 5.57311
#
# Compressibility (1/GPa) = 0.03365366
#
# Stress axis : x y z
#
# Youngs Moduli (GPa) = 50.79807 50.79807 68.58668
#
# Poissons Ratio (x) = 0.30724 0.14063
# Poissons Ratio (y) = 0.30724 0.14063
# Poissons Ratio (z) = 0.10415 0.10415
#
# Static dielectric constant tensor:
#      x y z
#    x 1.706500 0.000000 0.000000 
#    y 0.000000 1.706500 0.000000 
#    z 0.000000 0.000000 1.788330 
# 
# From -- ./inp_files/3450.got.cif
#   From: 2010.05.17/outbox.cif.g08.bks.cpg/sg142_2_cif.got.tgz:3450.got - 2010.05.20 13:39:18.
