data_PCOD9573694
_publ_section_title
;
Structure prediction by ZEFSAII (Michael W. Deem and Ramdas Pophale) SiO2 
 PCOD9573694
Probable space group: I 41/A C D
;
_chemical_formula_sum "Si O2"
_cell_formula_units_Z 88
_cell_length_a 12.729049
_cell_length_b 12.729049
_cell_length_c 25.748258
_cell_angle_alpha 90.000000
_cell_angle_beta 90.000000
_cell_angle_gamma 90.000000
_cell_volume 4171.956473
_symmetry_space_group_name_H-M "I 41/A C D"
_symmetry_group_IT_number 142
_space_group.IT_coordinate_system_code '2'
_symmetry_cell_setting 'tetragonal'
loop_
_space_group_symop_operation_xyz
x,y,z
1/4-y,3/4+x,1/4+z
-x,1/2-y,z
1/4+y,1/4-x,3/4+z
x,-y,1/2-z
1/2-x,y,-z
3/4+y,1/4+x,1/4-z
1/4-y,1/4-x,1/4-z
-x,-y,-z
3/4+y,1/4-x,3/4-z
x,1/2+y,-z
3/4-y,3/4+x,1/4-z
-x,y,1/2+z
1/2+x,-y,z
1/4-y,3/4-x,3/4+z
3/4+y,3/4+x,3/4+z
1/2+x,1/2+y,1/2+z
3/4-y,1/4+x,3/4+z
1/2-x,-y,1/2+z
3/4+y,3/4-x,1/4+z
1/2+x,1/2-y,-z
-x,1/2+y,1/2-z
1/4+y,3/4+x,3/4-z
3/4-y,3/4-x,3/4-z
1/2-x,1/2-y,1/2-z
1/4+y,3/4-x,1/4-z
1/2+x,y,1/2-z
1/4-y,1/4+x,3/4-z
1/2-x,1/2+y,z
x,1/2-y,1/2+z
3/4-y,1/4-x,1/4+z
1/4+y,1/4+x,1/4+z
loop_
_atom_site_type_symbol
_atom_site_label
_atom_site_fract_x
_atom_site_fract_y
_atom_site_fract_z
Si Si1 0.140542 0.500000 0.250000
Si Si2 0.228362 0.397211 0.829826
Si Si3 0.489649 0.011318 0.841838
Si Si4 0.500000 0.250000 0.375000
O O1 0.214116 0.410943 0.224892
O O2 0.065685 0.467260 0.297057
O O3 0.299765 0.450236 0.875000
O O4 0.220659 0.280039 0.852046
O O5 0.123518 0.464949 0.830077
O O6 0.495394 0.139400 0.843369
#
# Coordination Sequence:
#
# PCOD9573694 Si02
#       4
#    16  32  32   8
#     4  10  20  40  62  98 124 166 214 268 324 388
#     4  10  21  39  63  90 132 169 212 272 326 382
#     4  11  22  41  66  93 131 173 216 270 332 394
#     4  12  20  40  68  92 124 186 216 252 348 400
#
# _framework density 21.093222000000001
#
# number of rings (size 3 to 8) (size 9 to 14) (size 15 to 20)
#    0.000    1.455    7.273    1.091    0.000    0.727 
#    0.000   23.636    0.000    0.000    0.000    0.000 
#    0.000    0.000    0.000    0.000    0.000    0.000 
#
# Total GULP energy -245180.475539 kJ/mol
# GULP energy per Si atom -5572.283535 kJ/mol
# Density = 2.104521 g / cm^3
# Si number density = 21.093222 Si / 1000 Ang^3
#
#
#
# Elastic Constant Matrix: (Units=GPa)
#
#
# Indices 1 2 3 4 5 6 
#
# 1 97.9883 32.4671 29.4771 0.0000 0.0000 0.0000
# 2 32.4671 97.9880 29.4771 0.0000 0.0000 0.0000
# 3 29.4771 29.4771 101.0898 0.0000 0.0000 0.0000
# 4 0.0000 0.0000 0.0000 2.8348 0.0000 0.0000
# 5 0.0000 0.0000 0.0000 0.0000 2.8350 0.0000
# 6 0.0000 0.0000 0.0000 0.0000 0.0000 25.0783
#
#
#
# Elastic Compliance Matrix: (Units=1/GPa)
#
#
# Indices 1 2 3 4 5 6 
#
# 1 0.012046 -0.003217 -0.002574 0.000000 0.000000 0.000000
# 2 -0.003217 0.012046 -0.002574 0.000000 0.000000 0.000000
# 3 -0.002574 -0.002574 0.011394 0.000000 0.000000 0.000000
# 4 0.000000 0.000000 0.000000 0.352758 0.000000 0.000000
# 5 0.000000 0.000000 0.000000 0.000000 0.352728 0.000000
# 6 0.000000 0.000000 0.000000 0.000000 0.000000 0.039875
#
#
# Mechanical properties :
#
#
# Convention : Reuss Voigt Hill
#
# Bulk Modulus (GPa) = 53.32318 53.32319 53.32318
# Shear Modulus (GPa) = 6.22024 19.85929 13.03976
#
# Velocity S-wave (km/s) = 1.71911 3.07172 2.48905
# Velocity P-wave (km/s) = 5.41065 6.15754 5.79613
#
# Compressibility (1/GPa) = 0.01875357
#
# Stress axis : x y z
#
# Youngs Moduli (GPa) = 83.01812 83.01794 87.76874
#
# Poissons Ratio (x) = 0.26704 0.22596
# Poissons Ratio (y) = 0.26704 0.22596
# Poissons Ratio (z) = 0.21373 0.21373
#
# Static dielectric constant tensor:
#      x y z
#    x 1.802300 0.000000 0.000000 
#    y 0.000000 1.802300 0.000000 
#    z 0.000000 0.000000 1.796030 
# 
# From -- ./inp_files/9603.got.cif
#   From: 2010.05.17/outbox.cif.g08.bks.cpg/sg142_5_cif.got.tgz:9603.got - 2010.05.20 13:39:18.
