data_PCOD9573053
_publ_section_title
;
Structure prediction by ZEFSAII (Michael W. Deem and Ramdas Pophale) SiO2 
 PCOD9573053
Probable space group: I 41/A M D
;
_chemical_formula_sum "Si O2"
_cell_formula_units_Z 160
_cell_length_a 25.407932
_cell_length_b 25.407932
_cell_length_c 14.547572
_cell_angle_alpha 90.000000
_cell_angle_beta 90.000000
_cell_angle_gamma 90.000000
_cell_volume 9391.374347
_symmetry_space_group_name_H-M "I 41/A M D"
_symmetry_group_IT_number 141
_space_group.IT_coordinate_system_code '2'
_symmetry_cell_setting 'tetragonal'
loop_
_space_group_symop_operation_xyz
x,y,z
1/4-y,3/4+x,1/4+z
-x,1/2-y,z
1/4+y,1/4-x,3/4+z
x,-y,-z
-x,1/2+y,-z
1/4+y,3/4+x,1/4-z
1/4-y,1/4-x,3/4-z
-x,-y,-z
3/4+y,1/4-x,3/4-z
x,1/2+y,-z
3/4-y,3/4+x,1/4-z
-x,y,z
x,1/2-y,z
3/4-y,1/4-x,3/4+z
3/4+y,3/4+x,1/4+z
1/2+x,1/2+y,1/2+z
3/4-y,1/4+x,3/4+z
1/2-x,-y,1/2+z
3/4+y,3/4-x,1/4+z
1/2+x,1/2-y,1/2-z
1/2-x,y,1/2-z
3/4+y,1/4+x,3/4-z
3/4-y,3/4-x,1/4-z
1/2-x,1/2-y,1/2-z
1/4+y,3/4-x,1/4-z
1/2+x,y,1/2-z
1/4-y,1/4+x,3/4-z
1/2-x,1/2+y,1/2+z
1/2+x,-y,1/2+z
1/4-y,3/4-x,1/4+z
1/4+y,1/4+x,3/4+z
loop_
_atom_site_type_symbol
_atom_site_label
_atom_site_fract_x
_atom_site_fract_y
_atom_site_fract_z
Si Si1 0.688608 0.580518 0.769340
Si Si2 0.625800 0.112544 0.391606
Si Si3 0.741160 0.310703 0.859261
Si Si4 0.563233 0.811617 0.270697
Si Si5 0.842701 0.463408 0.792441
O O1 0.670773 0.579228 0.875000
O O2 0.750000 0.591546 0.750000
O O3 0.654213 0.619469 0.705995
O O4 0.677473 0.520666 0.736529
O O5 0.582246 0.067547 0.376319
O O6 0.597656 0.159915 0.444481
O O7 0.671742 0.091600 0.459878
O O8 0.747566 0.250000 0.884505
O O9 0.750000 0.316093 0.750000
O O10 0.779222 0.348599 0.916926
O O11 0.500000 0.814003 0.266196
O O12 0.578634 0.750000 0.259585
O O13 0.578357 0.828357 0.375000
O O14 0.807270 0.442731 0.875000
#
# Coordination Sequence:
#
# PCOD9573053 Si02
#       5
#    32  32  32  32  32
#     4  11  22  36  54  76 108 148 189 237 273 319
#     4  11  21  34  56  78 110 146 188 226 271 338
#     4  10  21  33  47  74 112 146 176 220 272 325
#     4   9  19  36  59  88 117 143 177 226 284 344
#     4  11  21  32  50  79 108 143 185 222 274 335
#
# _framework density 17.036909000000001
#
# number of rings (size 3 to 8) (size 9 to 14) (size 15 to 20)
#    0.000    1.600    4.000    2.400    2.800    0.800 
#    0.000    0.000    0.000    6.600    0.000    1.400 
#    0.000    0.000    0.000    0.000    0.000    0.000 
#
# Total GULP energy -446548.726414 kJ/mol
# GULP energy per Si atom -5581.859080 kJ/mol
# Density = 1.699813 g / cm^3
# Si number density = 17.036909 Si / 1000 Ang^3
#
#
#
# Elastic Constant Matrix: (Units=GPa)
#
#
# Indices 1 2 3 4 5 6 
#
# 1 62.7533 20.7949 38.2123 0.0000 0.0000 0.0000
# 2 20.7949 62.7496 38.2123 0.0000 0.0000 0.0000
# 3 38.2123 38.2123 131.1048 0.0000 0.0000 0.0000
# 4 0.0000 0.0000 0.0000 16.6441 0.0000 0.0000
# 5 0.0000 0.0000 0.0000 0.0000 16.6099 0.0000
# 6 0.0000 0.0000 0.0000 0.0000 0.0000 27.0393
#
#
#
# Elastic Compliance Matrix: (Units=1/GPa)
#
#
# Indices 1 2 3 4 5 6 
#
# 1 0.020077 -0.003757 -0.004757 0.000000 0.000000 0.000000
# 2 -0.003757 0.020078 -0.004757 0.000000 0.000000 0.000000
# 3 -0.004757 -0.004757 0.010400 0.000000 0.000000 0.000000
# 4 0.000000 0.000000 0.000000 0.060081 0.000000 0.000000
# 5 0.000000 0.000000 0.000000 0.000000 0.060205 0.000000
# 6 0.000000 0.000000 0.000000 0.000000 0.000000 0.036983
#
#
# Mechanical properties :
#
#
# Convention : Reuss Voigt Hill
#
# Bulk Modulus (GPa) = 41.64170 50.11631 45.87900
# Shear Modulus (GPa) = 20.62956 22.68455 21.65705
#
# Velocity S-wave (km/s) = 3.48354 3.65292 3.56924
# Velocity P-wave (km/s) = 6.37771 6.87546 6.63126
#
# Compressibility (1/GPa) = 0.02401439
#
# Stress axis : x y z
#
# Youngs Moduli (GPa) = 49.80874 49.80518 96.14981
#
# Poissons Ratio (x) = 0.18710 0.45736
# Poissons Ratio (y) = 0.18711 0.45740
# Poissons Ratio (z) = 0.23693 0.23693
#
# Static dielectric constant tensor:
#      x y z
#    x 1.582740 0.000000 0.000000 
#    y 0.000000 1.582740 0.000000 
#    z 0.000000 0.000000 1.592390 
# 
# From -- ./inp_files/6577.got.cif
#   From: 2010.05.17/outbox.cif.g08.bks.cpg/sg141_4_cif.got.tgz:6577.got - 2010.05.20 13:30:51.
