data_PCOD9573455
_publ_section_title
;
Structure prediction by ZEFSAII (Michael W. Deem and Ramdas Pophale) SiO2 
 PCOD9573455
Probable space group: I 41/A C D
;
_chemical_formula_sum "Si O2"
_cell_formula_units_Z 144
_cell_length_a 29.006065
_cell_length_b 29.006065
_cell_length_c 8.832187
_cell_angle_alpha 90.000000
_cell_angle_beta 90.000000
_cell_angle_gamma 90.000000
_cell_volume 7430.976490
_symmetry_space_group_name_H-M "I 41/A C D"
_symmetry_group_IT_number 142
_space_group.IT_coordinate_system_code '2'
_symmetry_cell_setting 'tetragonal'
loop_
_space_group_symop_operation_xyz
x,y,z
1/4-y,3/4+x,1/4+z
-x,1/2-y,z
1/4+y,1/4-x,3/4+z
x,-y,1/2-z
1/2-x,y,-z
3/4+y,1/4+x,1/4-z
1/4-y,1/4-x,1/4-z
-x,-y,-z
3/4+y,1/4-x,3/4-z
x,1/2+y,-z
3/4-y,3/4+x,1/4-z
-x,y,1/2+z
1/2+x,-y,z
1/4-y,3/4-x,3/4+z
3/4+y,3/4+x,3/4+z
1/2+x,1/2+y,1/2+z
3/4-y,1/4+x,3/4+z
1/2-x,-y,1/2+z
3/4+y,3/4-x,1/4+z
1/2+x,1/2-y,-z
-x,1/2+y,1/2-z
1/4+y,3/4+x,3/4-z
3/4-y,3/4-x,3/4-z
1/2-x,1/2-y,1/2-z
1/4+y,3/4-x,1/4-z
1/2+x,y,1/2-z
1/4-y,1/4+x,3/4-z
1/2-x,1/2+y,z
x,1/2-y,1/2+z
3/4-y,1/4-x,1/4+z
1/4+y,1/4+x,1/4+z
loop_
_atom_site_type_symbol
_atom_site_label
_atom_site_fract_x
_atom_site_fract_y
_atom_site_fract_z
Si Si1 0.305427 0.263118 0.963416
Si Si2 0.161053 0.000000 0.750000
Si Si3 0.285389 0.342953 0.746284
Si Si4 0.827838 0.581495 0.541765
Si Si5 0.180174 0.683709 0.766207
O O1 0.309442 0.298951 0.822720
O O2 0.330302 0.216469 0.908854
O O3 0.250000 0.257552 0.000000
O O4 0.325048 0.286657 0.113385
O O5 0.128476 0.972174 0.865506
O O6 0.184994 0.960141 0.654538
O O7 0.306866 0.371868 0.609512
O O8 0.234346 0.326257 0.708077
O O9 0.814596 0.564596 0.375000
O O10 0.883043 0.589117 0.519986
#
# Coordination Sequence:
#
# PCOD9573455 Si02
#       5
#    32  16  32  32  32
#     4  10  18  33  55  85 112 145 185 239 295 359
#     4  10  20  38  56  76 102 148 202 242 286 328
#     4  10  18  37  56  80 114 151 193 239 289 342
#     4  11  24  36  57  85 115 157 199 245 294 352
#     4  10  22  34  56  87 113 153 189 235 303 349
#
# _framework density 19.378340999999999
#
# number of rings (size 3 to 8) (size 9 to 14) (size 15 to 20)
#    0.000    1.778    5.556    3.333    6.222    2.667 
#    0.000    0.000    0.000   53.333    0.000    0.000 
#    0.000    0.889    0.444    0.000    0.000    0.000 
#
# Total GULP energy -401516.944535 kJ/mol
# GULP energy per Si atom -5576.624230 kJ/mol
# Density = 1.933424 g / cm^3
# Si number density = 19.378341 Si / 1000 Ang^3
#
#
#
# Elastic Constant Matrix: (Units=GPa)
#
#
# Indices 1 2 3 4 5 6 
#
# 1 54.0593 15.7558 43.4059 0.0000 0.0000 0.0000
# 2 15.7558 54.0593 43.4059 0.0000 0.0000 0.0000
# 3 43.4059 43.4059 105.3492 0.0000 0.0000 0.0000
# 4 0.0000 0.0000 0.0000 37.3440 0.0000 0.0000
# 5 0.0000 0.0000 0.0000 0.0000 37.3440 0.0000
# 6 0.0000 0.0000 0.0000 0.0000 0.0000 -0.6025
#
#
#
# Elastic Compliance Matrix: (Units=1/GPa)
#
#
# Indices 1 2 3 4 5 6 
#
# 1 0.027739 0.001632 -0.012101 0.000000 0.000000 0.000000
# 2 0.001632 0.027739 -0.012101 0.000000 0.000000 0.000000
# 3 -0.012101 -0.012101 0.019464 0.000000 0.000000 0.000000
# 4 0.000000 0.000000 0.000000 0.026778 0.000000 0.000000
# 5 0.000000 0.000000 0.000000 0.000000 0.026778 0.000000
# 6 0.000000 0.000000 0.000000 0.000000 0.000000 -1.659785
#
#
# Mechanical properties :
#
#
# Convention : Reuss Voigt Hill
#
# Bulk Modulus (GPa) = 33.55621 46.51143 40.03382
# Shear Modulus (GPa) = -3.38705 22.21047 9.41171
#
# Velocity S-wave (km/s) = -1.32350 3.38916 2.20621
# Velocity P-wave (km/s) = 3.87536 6.27447 5.21476
#
# Compressibility (1/GPa) = 0.02980074
#
# Stress axis : x y z
#
# Youngs Moduli (GPa) = 36.05006 36.05006 51.37604
#
# Poissons Ratio (x) = -0.05883 0.62173
# Poissons Ratio (y) = -0.05883 0.62173
# Poissons Ratio (z) = 0.43626 0.43626
#
# Static dielectric constant tensor:
#      x y z
#    x 1.709050 0.000000 0.000000 
#    y 0.000000 1.709050 0.000000 
#    z 0.000000 0.000000 1.798390 
# 
# From -- ./inp_files/2123.got.cif
#   From: 2010.05.17/outbox.cif.g08.bks.cpg/sg142_2_cif.got.tgz:2123.got - 2010.05.20 13:39:18.
