data_PCOD9573070
_publ_section_title
;
Structure prediction by ZEFSAII (Michael W. Deem and Ramdas Pophale) SiO2 
 PCOD9573070
Probable space group: I 41/A M D
;
_chemical_formula_sum "Si O2"
_cell_formula_units_Z 192
_cell_length_a 19.514549
_cell_length_b 19.514549
_cell_length_c 21.055626
_cell_angle_alpha 90.000000
_cell_angle_beta 90.000000
_cell_angle_gamma 90.000000
_cell_volume 8018.353437
_symmetry_space_group_name_H-M "I 41/A M D"
_symmetry_group_IT_number 141
_space_group.IT_coordinate_system_code '2'
_symmetry_cell_setting 'tetragonal'
loop_
_space_group_symop_operation_xyz
x,y,z
1/4-y,3/4+x,1/4+z
-x,1/2-y,z
1/4+y,1/4-x,3/4+z
x,-y,-z
-x,1/2+y,-z
1/4+y,3/4+x,1/4-z
1/4-y,1/4-x,3/4-z
-x,-y,-z
3/4+y,1/4-x,3/4-z
x,1/2+y,-z
3/4-y,3/4+x,1/4-z
-x,y,z
x,1/2-y,z
3/4-y,1/4-x,3/4+z
3/4+y,3/4+x,1/4+z
1/2+x,1/2+y,1/2+z
3/4-y,1/4+x,3/4+z
1/2-x,-y,1/2+z
3/4+y,3/4-x,1/4+z
1/2+x,1/2-y,1/2-z
1/2-x,y,1/2-z
3/4+y,1/4+x,3/4-z
3/4-y,3/4-x,1/4-z
1/2-x,1/2-y,1/2-z
1/4+y,3/4-x,1/4-z
1/2+x,y,1/2-z
1/4-y,1/4+x,3/4-z
1/2-x,1/2+y,1/2+z
1/2+x,-y,1/2+z
1/4-y,3/4-x,1/4+z
1/4+y,1/4+x,3/4+z
loop_
_atom_site_type_symbol
_atom_site_label
_atom_site_fract_x
_atom_site_fract_y
_atom_site_fract_z
Si Si1 0.579727 0.154328 0.421222
Si Si2 0.579587 0.941516 0.858775
Si Si3 0.248633 0.830321 0.130080
Si Si4 0.920472 0.866230 0.055143
Si Si5 0.072420 0.571405 0.444639
Si Si6 0.724262 0.419022 0.992339
O O1 0.500000 0.175382 0.412907
O O2 0.581878 0.072439 0.411861
O O3 0.607667 0.169220 0.492134
O O4 0.627721 0.179840 0.365477
O O5 0.500000 0.928620 0.839494
O O6 0.623051 0.873051 0.875000
O O7 0.624285 0.982314 0.805748
O O8 0.577418 0.994812 0.916990
O O9 0.234568 0.750000 0.112641
O O10 0.192903 0.853667 0.181195
O O11 0.245150 0.879274 0.068702
O O12 0.916345 0.833656 0.125000
O O13 0.000000 0.871446 0.038190
O O14 0.142476 0.585780 0.479983
O O15 0.000000 0.581214 0.479339
O O16 0.742015 0.500000 0.000000
#
# Coordination Sequence:
#
# PCOD9573070 Si02
#       6
#    32  32  32  32  32  32
#     4   9  19  38  60  86 119 156 204 259 310 372
#     4  11  24  44  67  97 134 174 215 267 329 390
#     4   9  19  38  61  86 118 160 204 255 314 378
#     4  10  21  36  54  81 117 160 203 246 306 369
#     4  10  23  42  66  91 124 168 210 262 328 385
#     4  11  22  41  64  95 127 160 211 265 318 380
#
# _framework density 23.945066000000001
#
# number of rings (size 3 to 8) (size 9 to 14) (size 15 to 20)
#    0.000    2.000    1.667    1.000    2.333    5.000 
#    6.000    1.667    0.000    0.000    0.000    0.000 
#    0.000    0.000    0.000    0.000    0.000    0.000 
#
# Total GULP energy -536463.430441 kJ/mol
# GULP energy per Si atom -5588.160734 kJ/mol
# Density = 2.389057 g / cm^3
# Si number density = 23.945066 Si / 1000 Ang^3
#
#
#
# Elastic Constant Matrix: (Units=GPa)
#
#
# Indices 1 2 3 4 5 6 
#
# 1 109.4603 13.7748 11.9814 0.0000 0.0000 0.0000
# 2 13.7748 109.4600 11.9811 0.0000 0.0000 0.0000
# 3 11.9814 11.9811 91.0735 0.0000 0.0000 0.0000
# 4 0.0000 0.0000 0.0000 23.1974 0.0000 0.0000
# 5 0.0000 0.0000 0.0000 0.0000 23.1972 0.0000
# 6 0.0000 0.0000 0.0000 0.0000 0.0000 429.7696
#
#
#
# Elastic Compliance Matrix: (Units=1/GPa)
#
#
# Indices 1 2 3 4 5 6 
#
# 1 0.009389 -0.001062 -0.001096 0.000000 0.000000 0.000000
# 2 -0.001062 0.009389 -0.001096 0.000000 0.000000 0.000000
# 3 -0.001096 -0.001096 0.011268 0.000000 0.000000 0.000000
# 4 0.000000 0.000000 0.000000 0.043108 0.000000 0.000000
# 5 0.000000 0.000000 0.000000 0.000000 0.043109 0.000000
# 6 0.000000 0.000000 0.000000 0.000000 0.000000 0.002327
#
#
# Mechanical properties :
#
#
# Convention : Reuss Voigt Hill
#
# Bulk Modulus (GPa) = 42.47832 42.82983 42.65408
# Shear Modulus (GPa) = 37.61000 113.38327 75.49664
#
# Velocity S-wave (km/s) = 3.96748 6.88870 5.62117
# Velocity P-wave (km/s) = 6.22626 9.01098 7.74481
#
# Compressibility (1/GPa) = 0.02354142
#
# Stress axis : x y z
#
# Youngs Moduli (GPa) = 106.50480 106.50454 88.74381
#
# Poissons Ratio (x) = 0.11307 0.09722
# Poissons Ratio (y) = 0.11307 0.09722
# Poissons Ratio (z) = 0.11668 0.11668
#
# Static dielectric constant tensor:
#      x y z
#    x 1.918310 0.000000 0.000000 
#    y 0.000000 1.918310 0.000000 
#    z 0.000000 0.000000 1.928100 
# 
# From -- ./inp_files/11677.got.cif
#   From: 2010.05.17/outbox.cif.g08.bks.cpg/sg141_6_cif.got.tgz:11677.got - 2010.05.20 13:30:51.
