data_PCOD9573792
_publ_section_title
;
Structure prediction by ZEFSAII (Michael W. Deem and Ramdas Pophale) SiO2 
 PCOD9573792
Probable space group: I 41/A C D
;
_chemical_formula_sum "Si O2"
_cell_formula_units_Z 160
_cell_length_a 21.042908
_cell_length_b 21.042908
_cell_length_c 17.704307
_cell_angle_alpha 90.000000
_cell_angle_beta 90.000000
_cell_angle_gamma 90.000000
_cell_volume 7839.537551
_symmetry_space_group_name_H-M "I 41/A C D"
_symmetry_group_IT_number 142
_space_group.IT_coordinate_system_code '2'
_symmetry_cell_setting 'tetragonal'
loop_
_space_group_symop_operation_xyz
x,y,z
1/4-y,3/4+x,1/4+z
-x,1/2-y,z
1/4+y,1/4-x,3/4+z
x,-y,1/2-z
1/2-x,y,-z
3/4+y,1/4+x,1/4-z
1/4-y,1/4-x,1/4-z
-x,-y,-z
3/4+y,1/4-x,3/4-z
x,1/2+y,-z
3/4-y,3/4+x,1/4-z
-x,y,1/2+z
1/2+x,-y,z
1/4-y,3/4-x,3/4+z
3/4+y,3/4+x,3/4+z
1/2+x,1/2+y,1/2+z
3/4-y,1/4+x,3/4+z
1/2-x,-y,1/2+z
3/4+y,3/4-x,1/4+z
1/2+x,1/2-y,-z
-x,1/2+y,1/2-z
1/4+y,3/4+x,3/4-z
3/4-y,3/4-x,3/4-z
1/2-x,1/2-y,1/2-z
1/4+y,3/4-x,1/4-z
1/2+x,y,1/2-z
1/4-y,1/4+x,3/4-z
1/2-x,1/2+y,z
x,1/2-y,1/2+z
3/4-y,1/4-x,1/4+z
1/4+y,1/4+x,1/4+z
loop_
_atom_site_type_symbol
_atom_site_label
_atom_site_fract_x
_atom_site_fract_y
_atom_site_fract_z
Si Si1 0.157599 0.368092 0.006955
Si Si2 0.196616 0.696412 0.343360
Si Si3 0.944758 0.841020 0.116658
Si Si4 0.317497 0.325659 0.265569
Si Si5 0.245592 0.047390 0.197072
O O1 0.196983 0.329182 0.070529
O O2 0.095012 0.393421 0.050346
O O3 0.136314 0.327696 0.934844
O O4 0.187460 0.434223 0.976937
O O5 0.262378 0.686069 0.297878
O O6 0.180284 0.769467 0.326739
O O7 0.915866 0.771075 0.131050
O O8 0.922741 0.869623 0.036097
O O9 0.293794 0.388524 0.307667
O O10 0.207102 0.000000 0.250000
O O11 0.247240 0.002761 0.125000
#
# Coordination Sequence:
#
# PCOD9573792 Si02
#       5
#    32  32  32  32  32
#     4  10  21  39  66  90 126 169 224 262 324 396
#     4   9  20  39  64  95 119 169 218 266 317 388
#     4  11  23  39  61  92 125 168 216 273 323 380
#     4  10  21  41  64  89 134 167 210 272 326 383
#     4  11  25  40  62  98 133 170 214 272 332 398
#
# _framework density 20.409368000000001
#
# number of rings (size 3 to 8) (size 9 to 14) (size 15 to 20)
#    0.000    1.800    2.000    1.200    8.400    1.600 
#    0.000    0.000    0.000    0.000    0.000    0.000 
#    0.000    0.000    0.000    0.000    0.000    0.000 
#
# Total GULP energy -445956.920546 kJ/mol
# GULP energy per Si atom -5574.461507 kJ/mol
# Density = 2.036292 g / cm^3
# Si number density = 20.409368 Si / 1000 Ang^3
#
#
#
# Elastic Constant Matrix: (Units=GPa)
#
#
# Indices 1 2 3 4 5 6 
#
# 1 84.1138 48.2327 37.2368 0.0000 0.0000 0.0000
# 2 48.2327 84.1152 37.2378 0.0000 0.0000 0.0000
# 3 37.2368 37.2378 100.0835 0.0000 0.0000 0.0000
# 4 0.0000 0.0000 0.0000 25.7474 0.0000 0.0000
# 5 0.0000 0.0000 0.0000 0.0000 25.7456 0.0000
# 6 0.0000 0.0000 0.0000 0.0000 0.0000 0.9309
#
#
#
# Elastic Compliance Matrix: (Units=1/GPa)
#
#
# Indices 1 2 3 4 5 6 
#
# 1 0.018713 -0.009156 -0.003556 0.000000 0.000000 0.000000
# 2 -0.009156 0.018713 -0.003556 0.000000 0.000000 0.000000
# 3 -0.003556 -0.003556 0.012638 0.000000 0.000000 0.000000
# 4 0.000000 0.000000 0.000000 0.038839 0.000000 0.000000
# 5 0.000000 0.000000 0.000000 0.000000 0.038842 0.000000
# 6 0.000000 0.000000 0.000000 0.000000 0.000000 1.074232
#
#
# Mechanical properties :
#
#
# Convention : Reuss Voigt Hill
#
# Bulk Modulus (GPa) = 57.05085 57.08079 57.06582
# Shear Modulus (GPa) = 4.03111 20.19180 12.11145
#
# Velocity S-wave (km/s) = 1.40692 3.14879 2.43868
# Velocity P-wave (km/s) = 5.53653 6.42250 5.99590
#
# Compressibility (1/GPa) = 0.01752822
#
# Stress axis : x y z
#
# Youngs Moduli (GPa) = 53.43840 53.43897 79.12925
#
# Poissons Ratio (x) = 0.48930 0.28135
# Poissons Ratio (y) = 0.48930 0.28137
# Poissons Ratio (z) = 0.19001 0.19002
#
# Static dielectric constant tensor:
#      x y z
#    x 1.732800 0.000000 0.000000 
#    y 0.000000 1.732800 0.000000 
#    z 0.000000 0.000000 1.731950 
# 
# From -- ./inp_files/7350.got.cif
#   From: 2010.05.17/outbox.cif.g08.bks.cpg/sg142_4_cif.got.tgz:7350.got - 2010.05.20 13:39:18.
