data_PCOD9573771
_publ_section_title
;
Structure prediction by ZEFSAII (Michael W. Deem and Ramdas Pophale) SiO2 
 PCOD9573771
Probable space group: I 41/A C D
;
_chemical_formula_sum "Si O2"
_cell_formula_units_Z 104
_cell_length_a 14.123225
_cell_length_b 14.123225
_cell_length_c 27.623063
_cell_angle_alpha 90.000000
_cell_angle_beta 90.000000
_cell_angle_gamma 90.000000
_cell_volume 5509.847642
_symmetry_space_group_name_H-M "I 41/A C D"
_symmetry_group_IT_number 142
_space_group.IT_coordinate_system_code '2'
_symmetry_cell_setting 'tetragonal'
loop_
_space_group_symop_operation_xyz
x,y,z
1/4-y,3/4+x,1/4+z
-x,1/2-y,z
1/4+y,1/4-x,3/4+z
x,-y,1/2-z
1/2-x,y,-z
3/4+y,1/4+x,1/4-z
1/4-y,1/4-x,1/4-z
-x,-y,-z
3/4+y,1/4-x,3/4-z
x,1/2+y,-z
3/4-y,3/4+x,1/4-z
-x,y,1/2+z
1/2+x,-y,z
1/4-y,3/4-x,3/4+z
3/4+y,3/4+x,3/4+z
1/2+x,1/2+y,1/2+z
3/4-y,1/4+x,3/4+z
1/2-x,-y,1/2+z
3/4+y,3/4-x,1/4+z
1/2+x,1/2-y,-z
-x,1/2+y,1/2-z
1/4+y,3/4+x,3/4-z
3/4-y,3/4-x,3/4-z
1/2-x,1/2-y,1/2-z
1/4+y,3/4-x,1/4-z
1/2+x,y,1/2-z
1/4-y,1/4+x,3/4-z
1/2-x,1/2+y,z
x,1/2-y,1/2+z
3/4-y,1/4-x,1/4+z
1/4+y,1/4+x,1/4+z
loop_
_atom_site_type_symbol
_atom_site_label
_atom_site_fract_x
_atom_site_fract_y
_atom_site_fract_z
Si Si1 0.940900 0.892842 0.132330
Si Si2 0.000000 0.750000 0.875000
Si Si3 0.186071 0.260263 0.187175
Si Si4 0.650389 0.059811 0.025100
O O1 0.888381 0.800264 0.110531
O O2 0.888392 0.914000 0.182945
O O3 0.942217 0.979827 0.094760
O O4 0.906827 0.748658 0.843431
O O5 0.162610 0.324714 0.233651
O O6 0.222064 0.155418 0.201189
O O7 0.750000 0.038323 0.000000
#
# Coordination Sequence:
#
# PCOD9573771 Si02
#       4
#    32   8  32  32
#     4   9  19  38  62  85 116 155 193 240 299 363
#     4  12  24  40  56  80 122 160 200 256 300 332
#     4  10  23  38  57  87 117 153 202 246 293 359
#     4  10  21  38  61  88 117 151 194 244 299 363
#
# _framework density 18.875294
#
# number of rings (size 3 to 8) (size 9 to 14) (size 15 to 20)
#    0.000    2.154    0.000    1.846    0.000   12.308 
#    0.000    3.077    0.000    0.000    0.000    0.000 
#    0.000    0.000    0.000    0.000    0.000    0.000 
#
# Total GULP energy -290147.136182 kJ/mol
# GULP energy per Si atom -5579.752619 kJ/mol
# Density = 1.883233 g / cm^3
# Si number density = 18.875294 Si / 1000 Ang^3
#
#
#
# Elastic Constant Matrix: (Units=GPa)
#
#
# Indices 1 2 3 4 5 6 
#
# 1 100.8818 23.3233 56.1539 0.0000 0.0000 0.0000
# 2 23.3233 100.8818 56.1539 0.0000 0.0000 0.0000
# 3 56.1539 56.1539 109.5493 0.0000 0.0000 0.0000
# 4 0.0000 0.0000 0.0000 43.0146 0.0000 0.0000
# 5 0.0000 0.0000 0.0000 0.0000 43.0146 0.0000
# 6 0.0000 0.0000 0.0000 0.0000 0.0000 -2.0102
#
#
#
# Elastic Compliance Matrix: (Units=1/GPa)
#
#
# Indices 1 2 3 4 5 6 
#
# 1 0.013950 0.001057 -0.007692 0.000000 0.000000 0.000000
# 2 0.001057 0.013950 -0.007692 0.000000 0.000000 0.000000
# 3 -0.007692 -0.007692 0.017014 0.000000 0.000000 0.000000
# 4 0.000000 0.000000 0.000000 0.023248 0.000000 0.000000
# 5 0.000000 0.000000 0.000000 0.000000 0.023248 0.000000
# 6 0.000000 0.000000 0.000000 0.000000 0.000000 -0.497472
#
#
# Mechanical properties :
#
#
# Convention : Reuss Voigt Hill
#
# Bulk Modulus (GPa) = 61.50624 64.73055 63.11839
# Shear Modulus (GPa) = -13.44136 28.51594 7.53729
#
# Velocity S-wave (km/s) = -2.67144 3.89106 2.00047
# Velocity P-wave (km/s) = 4.81049 7.38616 6.23283
#
# Compressibility (1/GPa) = 0.01625851
#
# Stress axis : x y z
#
# Youngs Moduli (GPa) = 71.68426 71.68426 58.77423
#
# Poissons Ratio (x) = -0.07574 0.45211
# Poissons Ratio (y) = -0.07574 0.45211
# Poissons Ratio (z) = 0.55141 0.55141
#
# Static dielectric constant tensor:
#      x y z
#    x 1.638520 0.000000 0.000000 
#    y 0.000000 1.638520 0.000000 
#    z 0.000000 0.000000 1.664700 
# 
# From -- ./inp_files/9681.got.cif
#   From: 2010.05.17/outbox.cif.g08.bks.cpg/sg142_5_cif.got.tgz:9681.got - 2010.05.20 13:39:18.
