data_PCOD9573306
_publ_section_title
;
Structure prediction by ZEFSAII (Michael W. Deem and Ramdas Pophale) SiO2 
 PCOD9573306
Probable space group: I 41/A M D
;
_chemical_formula_sum "Si O2"
_cell_formula_units_Z 160
_cell_length_a 21.967786
_cell_length_b 21.967786
_cell_length_c 17.598600
_cell_angle_alpha 90.000000
_cell_angle_beta 90.000000
_cell_angle_gamma 90.000000
_cell_volume 8492.796126
_symmetry_space_group_name_H-M "I 41/A M D"
_symmetry_group_IT_number 141
_space_group.IT_coordinate_system_code '2'
_symmetry_cell_setting 'tetragonal'
loop_
_space_group_symop_operation_xyz
x,y,z
1/4-y,3/4+x,1/4+z
-x,1/2-y,z
1/4+y,1/4-x,3/4+z
x,-y,-z
-x,1/2+y,-z
1/4+y,3/4+x,1/4-z
1/4-y,1/4-x,3/4-z
-x,-y,-z
3/4+y,1/4-x,3/4-z
x,1/2+y,-z
3/4-y,3/4+x,1/4-z
-x,y,z
x,1/2-y,z
3/4-y,1/4-x,3/4+z
3/4+y,3/4+x,1/4+z
1/2+x,1/2+y,1/2+z
3/4-y,1/4+x,3/4+z
1/2-x,-y,1/2+z
3/4+y,3/4-x,1/4+z
1/2+x,1/2-y,1/2-z
1/2-x,y,1/2-z
3/4+y,1/4+x,3/4-z
3/4-y,3/4-x,1/4-z
1/2-x,1/2-y,1/2-z
1/4+y,3/4-x,1/4-z
1/2+x,y,1/2-z
1/4-y,1/4+x,3/4-z
1/2-x,1/2+y,1/2+z
1/2+x,-y,1/2+z
1/4-y,3/4-x,1/4+z
1/4+y,1/4+x,3/4+z
loop_
_atom_site_type_symbol
_atom_site_label
_atom_site_fract_x
_atom_site_fract_y
_atom_site_fract_z
Si Si1 0.682906 0.058314 0.714856
Si Si2 0.500000 0.463438 0.101507
Si Si3 0.178303 0.183548 0.728380
Si Si4 0.619070 0.322034 0.933133
Si Si5 0.500000 0.103979 0.948761
Si Si6 0.126934 0.551518 0.688146
O O1 0.750000 0.057844 0.750000
O O2 0.693746 0.056255 0.625000
O O3 0.652450 0.123588 0.732278
O O4 0.648307 0.004979 0.759821
O O5 0.500000 0.533288 0.073625
O O6 0.437076 0.459811 0.147057
O O7 0.500000 0.407701 0.040375
O O8 0.153103 0.250000 0.750410
O O9 0.250000 0.184908 0.750000
O O10 0.164839 0.176068 0.638752
O O11 0.609851 0.250000 0.950949
O O12 0.556996 0.357819 0.917924
O O13 0.646067 0.360311 0.002492
O O14 0.176042 0.573959 0.625000
#
# Coordination Sequence:
#
# PCOD9573306 Si02
#       6
#    32  16  32  32  16  32
#     4  11  23  40  60  93 126 164 214 267 334 398
#     4  11  24  40  58  90 131 166 217 261 327 389
#     4   9  19  38  62  88 117 156 204 271 321 385
#     4  11  22  39  64  88 124 166 221 263 318 387
#     4  11  23  40  58  88 127 173 209 267 320 386
#     4  12  23  39  62  92 131 173 213 270 326 389
#
# _framework density 18.839496
#
# number of rings (size 3 to 8) (size 9 to 14) (size 15 to 20)
#    0.000    1.200    3.000    4.500    0.000    1.600 
#    1.800    0.000    0.000    0.000    0.000    0.000 
#    0.000    0.000    0.000    0.000    0.000    0.000 
#
# Total GULP energy -445589.050538 kJ/mol
# GULP energy per Si atom -5569.863132 kJ/mol
# Density = 1.879662 g / cm^3
# Si number density = 18.839496 Si / 1000 Ang^3
#
#
#
# Elastic Constant Matrix: (Units=GPa)
#
#
# Indices 1 2 3 4 5 6 
#
# 1 79.5477 48.4920 43.2897 0.0000 0.0000 0.0000
# 2 48.4920 79.5491 43.2887 0.0000 0.0000 0.0000
# 3 43.2897 43.2887 118.5693 0.0000 0.0000 0.0000
# 4 0.0000 0.0000 0.0000 26.2056 0.0000 0.0000
# 5 0.0000 0.0000 0.0000 0.0000 26.2054 0.0000
# 6 0.0000 0.0000 0.0000 0.0000 0.0000 30.1648
#
#
#
# Elastic Compliance Matrix: (Units=1/GPa)
#
#
# Indices 1 2 3 4 5 6 
#
# 1 0.021285 -0.010915 -0.003786 0.000000 0.000000 0.000000
# 2 -0.010915 0.021284 -0.003786 0.000000 0.000000 0.000000
# 3 -0.003786 -0.003786 0.011198 0.000000 0.000000 0.000000
# 4 0.000000 0.000000 0.000000 0.038160 0.000000 0.000000
# 5 0.000000 0.000000 0.000000 0.000000 0.038160 0.000000
# 6 0.000000 0.000000 0.000000 0.000000 0.000000 0.033151
#
#
# Mechanical properties :
#
#
# Convention : Reuss Voigt Hill
#
# Bulk Modulus (GPa) = 59.54387 60.86741 60.20564
# Shear Modulus (GPa) = 24.29413 26.02153 25.15783
#
# Velocity S-wave (km/s) = 3.59490 3.72051 3.65825
# Velocity P-wave (km/s) = 6.99325 7.12985 7.06188
#
# Compressibility (1/GPa) = 0.01679434
#
# Stress axis : x y z
#
# Youngs Moduli (GPa) = 46.98109 46.98268 89.29796
#
# Poissons Ratio (x) = 0.51280 0.33811
# Poissons Ratio (y) = 0.51278 0.33807
# Poissons Ratio (z) = 0.17789 0.17787
#
# Static dielectric constant tensor:
#      x y z
#    x 1.701610 0.000000 0.000000 
#    y 0.000000 1.701600 0.000000 
#    z 0.000000 0.000000 1.813460 
# 
# From -- ./inp_files/8668.got.cif
#   From: 2010.05.17/outbox.cif.g08.bks.cpg/sg141_5_cif.got.tgz:8668.got - 2010.05.20 13:30:51.
