data_PCOD9573485
_publ_section_title
;
Structure prediction by ZEFSAII (Michael W. Deem and Ramdas Pophale) SiO2 
 PCOD9573485
Probable space group: I 41/A C D
;
_chemical_formula_sum "Si O2"
_cell_formula_units_Z 96
_cell_length_a 14.122118
_cell_length_b 14.122118
_cell_length_c 19.709968
_cell_angle_alpha 90.000000
_cell_angle_beta 90.000000
_cell_angle_gamma 90.000000
_cell_volume 3930.842031
_symmetry_space_group_name_H-M "I 41/A C D"
_symmetry_group_IT_number 142
_space_group.IT_coordinate_system_code '2'
_symmetry_cell_setting 'tetragonal'
loop_
_space_group_symop_operation_xyz
x,y,z
1/4-y,3/4+x,1/4+z
-x,1/2-y,z
1/4+y,1/4-x,3/4+z
x,-y,1/2-z
1/2-x,y,-z
3/4+y,1/4+x,1/4-z
1/4-y,1/4-x,1/4-z
-x,-y,-z
3/4+y,1/4-x,3/4-z
x,1/2+y,-z
3/4-y,3/4+x,1/4-z
-x,y,1/2+z
1/2+x,-y,z
1/4-y,3/4-x,3/4+z
3/4+y,3/4+x,3/4+z
1/2+x,1/2+y,1/2+z
3/4-y,1/4+x,3/4+z
1/2-x,-y,1/2+z
3/4+y,3/4-x,1/4+z
1/2+x,1/2-y,-z
-x,1/2+y,1/2-z
1/4+y,3/4+x,3/4-z
3/4-y,3/4-x,3/4-z
1/2-x,1/2-y,1/2-z
1/4+y,3/4-x,1/4-z
1/2+x,y,1/2-z
1/4-y,1/4+x,3/4-z
1/2-x,1/2+y,z
x,1/2-y,1/2+z
3/4-y,1/4-x,1/4+z
1/4+y,1/4+x,1/4+z
loop_
_atom_site_type_symbol
_atom_site_label
_atom_site_fract_x
_atom_site_fract_y
_atom_site_fract_z
Si Si1 0.606713 0.356713 0.375000
Si Si2 0.173162 0.845290 0.158300
Si Si3 0.250000 0.472984 0.500000
Si Si4 0.881477 0.162629 0.271066
O O1 0.588824 0.466950 0.388535
O O2 0.564147 0.339349 0.300489
O O3 0.162627 0.951199 0.189893
O O4 0.118616 0.817523 0.089855
O O5 0.151027 0.768832 0.215378
O O6 0.164595 0.544848 0.520407
#
# Coordination Sequence:
#
# PCOD9573485 Si02
#       4
#    16  32  16  32
#     4  10  18  40  66  97 134 179 216 280 344 400
#     4  11  21  38  69  99 133 182 227 274 345 415
#     4  10  18  40  64 102 134 174 228 276 336 418
#     4  11  21  38  70  98 137 180 223 281 350 405
#
# _framework density 24.422248
#
# number of rings (size 3 to 8) (size 9 to 14) (size 15 to 20)
#    0.000    1.333    6.667    4.000    0.000    0.667 
#    6.000    0.000    7.333    2.000    0.000    0.000 
#    0.000    0.000    0.000    0.000    0.000    0.000 
#
# Total GULP energy -267721.461728 kJ/mol
# GULP energy per Si atom -5577.530453 kJ/mol
# Density = 2.436666 g / cm^3
# Si number density = 24.422248 Si / 1000 Ang^3
#
#
#
# Elastic Constant Matrix: (Units=GPa)
#
#
# Indices 1 2 3 4 5 6 
#
# 1 66.4367 13.8684 35.9911 0.0000 0.0000 0.0000
# 2 13.8684 66.4367 35.9911 0.0000 0.0000 0.0000
# 3 35.9911 35.9911 220.8718 0.0000 0.0000 0.0000
# 4 0.0000 0.0000 0.0000 24.6902 0.0000 0.0000
# 5 0.0000 0.0000 0.0000 0.0000 24.6902 0.0000
# 6 0.0000 0.0000 0.0000 0.0000 0.0000 27.8975
#
#
#
# Elastic Compliance Matrix: (Units=1/GPa)
#
#
# Indices 1 2 3 4 5 6 
#
# 1 0.016803 -0.002220 -0.002376 0.000000 0.000000 0.000000
# 2 -0.002220 0.016803 -0.002376 0.000000 0.000000 0.000000
# 3 -0.002376 -0.002376 0.005302 0.000000 0.000000 0.000000
# 4 0.000000 0.000000 0.000000 0.040502 0.000000 0.000000
# 5 0.000000 0.000000 0.000000 0.000000 0.040502 0.000000
# 6 0.000000 0.000000 0.000000 0.000000 0.000000 0.035845
#
#
# Mechanical properties :
#
#
# Convention : Reuss Voigt Hill
#
# Bulk Modulus (GPa) = 40.06093 58.38291 49.22192
# Shear Modulus (GPa) = 28.08636 33.31524 30.70080
#
# Velocity S-wave (km/s) = 3.39489 3.69743 3.54938
# Velocity P-wave (km/s) = 5.63969 6.49503 6.08242
#
# Compressibility (1/GPa) = 0.02496197
#
# Stress axis : x y z
#
# Youngs Moduli (GPa) = 59.51434 59.51434 188.61088
#
# Poissons Ratio (x) = 0.13214 0.44818
# Poissons Ratio (y) = 0.13214 0.44818
# Poissons Ratio (z) = 0.14142 0.14142
#
# Static dielectric constant tensor:
#      x y z
#    x 1.986020 0.000000 0.000000 
#    y 0.000000 1.986020 0.000000 
#    z 0.000000 0.000000 2.162170 
# 
# From -- ./inp_files/8430.got.cif
#   From: 2010.05.17/outbox.cif.g08.bks.cpg/sg142_5_cif.got.tgz:8430.got - 2010.05.20 13:39:18.
