data_PCOD9573481
_publ_section_title
;
Structure prediction by ZEFSAII (Michael W. Deem and Ramdas Pophale) SiO2 
 PCOD9573481
Probable space group: I 41/A C D
;
_chemical_formula_sum "Si O2"
_cell_formula_units_Z 152
_cell_length_a 25.042430
_cell_length_b 25.042430
_cell_length_c 13.687595
_cell_angle_alpha 90.000000
_cell_angle_beta 90.000000
_cell_angle_gamma 90.000000
_cell_volume 8583.809750
_symmetry_space_group_name_H-M "I 41/A C D"
_symmetry_group_IT_number 142
_space_group.IT_coordinate_system_code '2'
_symmetry_cell_setting 'tetragonal'
loop_
_space_group_symop_operation_xyz
x,y,z
1/4-y,3/4+x,1/4+z
-x,1/2-y,z
1/4+y,1/4-x,3/4+z
x,-y,1/2-z
1/2-x,y,-z
3/4+y,1/4+x,1/4-z
1/4-y,1/4-x,1/4-z
-x,-y,-z
3/4+y,1/4-x,3/4-z
x,1/2+y,-z
3/4-y,3/4+x,1/4-z
-x,y,1/2+z
1/2+x,-y,z
1/4-y,3/4-x,3/4+z
3/4+y,3/4+x,3/4+z
1/2+x,1/2+y,1/2+z
3/4-y,1/4+x,3/4+z
1/2-x,-y,1/2+z
3/4+y,3/4-x,1/4+z
1/2+x,1/2-y,-z
-x,1/2+y,1/2-z
1/4+y,3/4+x,3/4-z
3/4-y,3/4-x,3/4-z
1/2-x,1/2-y,1/2-z
1/4+y,3/4-x,1/4-z
1/2+x,y,1/2-z
1/4-y,1/4+x,3/4-z
1/2-x,1/2+y,z
x,1/2-y,1/2+z
3/4-y,1/4-x,1/4+z
1/4+y,1/4+x,1/4+z
loop_
_atom_site_type_symbol
_atom_site_label
_atom_site_fract_x
_atom_site_fract_y
_atom_site_fract_z
Si Si1 0.000000 0.750000 0.375000
Si Si2 0.709550 0.746403 0.128740
Si Si3 0.995842 0.359351 0.247744
Si Si4 0.678909 0.290430 0.665736
Si Si5 0.360329 0.378222 0.490202
Si Si6 0.593186 0.500000 0.750000
O O1 0.003249 0.698052 0.303474
O O2 0.656493 0.730961 0.070804
O O3 0.690228 0.753188 0.239903
O O4 0.762895 0.711677 0.115279
O O5 0.728807 0.803685 0.084902
O O6 0.019254 0.378681 0.352204
O O7 0.932105 0.367719 0.251163
O O8 0.665815 0.348773 0.704737
O O9 0.359233 0.390768 0.375000
O O10 0.300602 0.377402 0.531099
#
# Coordination Sequence:
#
# PCOD9573481 Si02
#       6
#     8  32  32  32  32  16
#     4  12  24  40  54  88 134 164 196 234 312 396
#     4  10  19  37  60  88 113 155 210 248 284 371
#     4  11  22  39  55  84 129 165 193 247 300 376
#     4  11  20  33  63  88 114 154 204 253 305 353
#     4  11  20  37  57  87 118 150 201 260 297 357
#     4  10  18  38  60  82 120 152 202 258 304 346
#
# _framework density 17.707754000000001
#
# number of rings (size 3 to 8) (size 9 to 14) (size 15 to 20)
#    0.000    1.263    9.474    0.000    0.000    3.368 
#    0.000    1.053    0.000    0.000    8.211    0.000 
#    0.000    0.000    0.000    0.000    0.000    0.000 
#
# Total GULP energy -423162.824546 kJ/mol
# GULP energy per Si atom -5567.931902 kJ/mol
# Density = 1.766745 g / cm^3
# Si number density = 17.707754 Si / 1000 Ang^3
#
#
#
# Elastic Constant Matrix: (Units=GPa)
#
#
# Indices 1 2 3 4 5 6 
#
# 1 114.2919 44.9258 28.6269 0.0000 0.0000 0.0000
# 2 44.9258 114.2914 28.6269 0.0000 0.0000 0.0000
# 3 28.6269 28.6269 86.9247 0.0000 0.0000 0.0000
# 4 0.0000 0.0000 0.0000 20.2678 0.0000 0.0000
# 5 0.0000 0.0000 0.0000 0.0000 20.2676 0.0000
# 6 0.0000 0.0000 0.0000 0.0000 0.0000 30.2175
#
#
#
# Elastic Compliance Matrix: (Units=1/GPa)
#
#
# Indices 1 2 3 4 5 6 
#
# 1 0.010770 -0.003646 -0.002346 0.000000 0.000000 0.000000
# 2 -0.003646 0.010770 -0.002346 0.000000 0.000000 0.000000
# 3 -0.002346 -0.002346 0.013050 0.000000 0.000000 0.000000
# 4 0.000000 0.000000 0.000000 0.049339 0.000000 0.000000
# 5 0.000000 0.000000 0.000000 0.000000 0.049340 0.000000
# 6 0.000000 0.000000 0.000000 0.000000 0.000000 0.033093
#
#
# Mechanical properties :
#
#
# Convention : Reuss Voigt Hill
#
# Bulk Modulus (GPa) = 55.82437 57.76303 56.79370
# Shear Modulus (GPa) = 26.45348 28.37248 27.41298
#
# Velocity S-wave (km/s) = 3.86928 4.00717 3.93883
# Velocity P-wave (km/s) = 7.18022 7.35533 7.26831
#
# Compressibility (1/GPa) = 0.01791332
#
# Stress axis : x y z
#
# Youngs Moduli (GPa) = 92.84755 92.84715 76.63064
#
# Poissons Ratio (x) = 0.33851 0.17980
# Poissons Ratio (y) = 0.33852 0.17980
# Poissons Ratio (z) = 0.21785 0.21785
#
# Static dielectric constant tensor:
#      x y z
#    x 1.618520 0.000000 0.000000 
#    y 0.000000 1.618520 0.000000 
#    z 0.000000 0.000000 1.700650 
# 
# From -- ./inp_files/5515.got.cif
#   From: 2010.05.17/outbox.cif.g08.bks.cpg/sg142_3_cif.got.tgz:5515.got - 2010.05.20 13:39:18.
