data_PCOD9573342
_publ_section_title
;
Structure prediction by ZEFSAII (Michael W. Deem and Ramdas Pophale) SiO2 
 PCOD9573342
Probable space group: I 41/A M D
;
_chemical_formula_sum "Si O2"
_cell_formula_units_Z 80
_cell_length_a 16.164204
_cell_length_b 16.164204
_cell_length_c 14.775019
_cell_angle_alpha 90.000000
_cell_angle_beta 90.000000
_cell_angle_gamma 90.000000
_cell_volume 3860.438993
_symmetry_space_group_name_H-M "I 41/A M D"
_symmetry_group_IT_number 141
_space_group.IT_coordinate_system_code '2'
_symmetry_cell_setting 'tetragonal'
loop_
_space_group_symop_operation_xyz
x,y,z
1/4-y,3/4+x,1/4+z
-x,1/2-y,z
1/4+y,1/4-x,3/4+z
x,-y,-z
-x,1/2+y,-z
1/4+y,3/4+x,1/4-z
1/4-y,1/4-x,3/4-z
-x,-y,-z
3/4+y,1/4-x,3/4-z
x,1/2+y,-z
3/4-y,3/4+x,1/4-z
-x,y,z
x,1/2-y,z
3/4-y,1/4-x,3/4+z
3/4+y,3/4+x,1/4+z
1/2+x,1/2+y,1/2+z
3/4-y,1/4+x,3/4+z
1/2-x,-y,1/2+z
3/4+y,3/4-x,1/4+z
1/2+x,1/2-y,1/2-z
1/2-x,y,1/2-z
3/4+y,1/4+x,3/4-z
3/4-y,3/4-x,1/4-z
1/2-x,1/2-y,1/2-z
1/4+y,3/4-x,1/4-z
1/2+x,y,1/2-z
1/4-y,1/4+x,3/4-z
1/2-x,1/2+y,1/2+z
1/2+x,-y,1/2+z
1/4-y,3/4-x,1/4+z
1/4+y,1/4+x,3/4+z
loop_
_atom_site_type_symbol
_atom_site_label
_atom_site_fract_x
_atom_site_fract_y
_atom_site_fract_z
Si Si1 0.156252 0.650621 0.723160
Si Si2 0.500000 0.387569 0.724351
Si Si3 0.000000 0.880700 0.006122
Si Si4 0.318337 0.750000 0.063494
O O1 0.151075 0.750000 0.721278
O O2 0.250000 0.627400 0.750000
O O3 0.135229 0.614772 0.625000
O O4 0.133330 0.666596 0.462556
O O5 0.422779 0.333858 0.757475
O O6 0.500000 0.389461 0.614737
O O7 0.500000 0.484011 0.745584
O O8 0.000000 0.944039 0.922603
#
# Coordination Sequence:
#
# PCOD9573342 Si02
#       4
#    32  16  16  16
#     4  11  26  46  67  97 136 175 218 272 331 400
#     4   9  21  42  63  93 133 162 225 265 327 395
#     4   9  21  41  64  90 129 181 205 266 335 398
#     4  12  24  38  71  97 125 173 223 272 327 389
#
# _framework density 20.723030999999999
#
# number of rings (size 3 to 8) (size 9 to 14) (size 15 to 20)
#    0.000    1.600    2.000    2.400   11.200    0.000 
#    7.200    0.000    0.000    0.000    0.000    0.000 
#    0.000    0.000    0.000    0.000    0.000    0.000 
#
# Total GULP energy -223058.312275 kJ/mol
# GULP energy per Si atom -5576.457807 kJ/mol
# Density = 2.067586 g / cm^3
# Si number density = 20.723031 Si / 1000 Ang^3
#
#
#
# Elastic Constant Matrix: (Units=GPa)
#
#
# Indices 1 2 3 4 5 6 
#
# 1 120.9081 63.9929 28.4167 0.0000 0.0000 0.0000
# 2 63.9929 120.9054 28.4155 0.0000 0.0000 0.0000
# 3 28.4167 28.4155 115.5381 0.0000 0.0000 0.0000
# 4 0.0000 0.0000 0.0000 22.0752 0.0000 0.0000
# 5 0.0000 0.0000 0.0000 0.0000 22.0755 0.0000
# 6 0.0000 0.0000 0.0000 0.0000 0.0000 2.0006
#
#
#
# Elastic Compliance Matrix: (Units=1/GPa)
#
#
# Indices 1 2 3 4 5 6 
#
# 1 0.011710 -0.005860 -0.001439 0.000000 0.000000 0.000000
# 2 -0.005860 0.011711 -0.001439 0.000000 0.000000 0.000000
# 3 -0.001439 -0.001439 0.009363 0.000000 0.000000 0.000000
# 4 0.000000 0.000000 0.000000 0.045300 0.000000 0.000000
# 5 0.000000 0.000000 0.000000 0.000000 0.045299 0.000000
# 6 0.000000 0.000000 0.000000 0.000000 0.000000 0.499844
#
#
# Mechanical properties :
#
#
# Convention : Reuss Voigt Hill
#
# Bulk Modulus (GPa) = 65.32338 66.55576 65.93957
# Shear Modulus (GPa) = 7.74227 24.99869 16.37048
#
# Velocity S-wave (km/s) = 1.93499 3.47699 2.81368
# Velocity P-wave (km/s) = 6.04837 6.95024 6.51493
#
# Compressibility (1/GPa) = 0.01530845
#
# Stress axis : x y z
#
# Youngs Moduli (GPa) = 85.39411 85.39255 106.80391
#
# Poissons Ratio (x) = 0.50039 0.15369
# Poissons Ratio (y) = 0.50040 0.15368
# Poissons Ratio (z) = 0.12288 0.12287
#
# Static dielectric constant tensor:
#      x y z
#    x 1.729790 0.000000 0.000000 
#    y 0.000000 1.729790 0.000000 
#    z 0.000000 0.000000 1.761610 
# 
# From -- ./inp_files/5787.got.cif
#   From: 2010.05.17/outbox.cif.g08.bks.cpg/sg141_3_cif.got.tgz:5787.got - 2010.05.20 13:30:51.
