data_PCOD9573499
_publ_section_title
;
Structure prediction by ZEFSAII (Michael W. Deem and Ramdas Pophale) SiO2 
 PCOD9573499
Probable space group: I 41/A C D
;
_chemical_formula_sum "Si O2"
_cell_formula_units_Z 192
_cell_length_a 29.568459
_cell_length_b 29.568459
_cell_length_c 14.040733
_cell_angle_alpha 90.000000
_cell_angle_beta 90.000000
_cell_angle_gamma 90.000000
_cell_volume 12275.725355
_symmetry_space_group_name_H-M "I 41/A C D"
_symmetry_group_IT_number 142
_space_group.IT_coordinate_system_code '2'
_symmetry_cell_setting 'tetragonal'
loop_
_space_group_symop_operation_xyz
x,y,z
1/4-y,3/4+x,1/4+z
-x,1/2-y,z
1/4+y,1/4-x,3/4+z
x,-y,1/2-z
1/2-x,y,-z
3/4+y,1/4+x,1/4-z
1/4-y,1/4-x,1/4-z
-x,-y,-z
3/4+y,1/4-x,3/4-z
x,1/2+y,-z
3/4-y,3/4+x,1/4-z
-x,y,1/2+z
1/2+x,-y,z
1/4-y,3/4-x,3/4+z
3/4+y,3/4+x,3/4+z
1/2+x,1/2+y,1/2+z
3/4-y,1/4+x,3/4+z
1/2-x,-y,1/2+z
3/4+y,3/4-x,1/4+z
1/2+x,1/2-y,-z
-x,1/2+y,1/2-z
1/4+y,3/4+x,3/4-z
3/4-y,3/4-x,3/4-z
1/2-x,1/2-y,1/2-z
1/4+y,3/4-x,1/4-z
1/2+x,y,1/2-z
1/4-y,1/4+x,3/4-z
1/2-x,1/2+y,z
x,1/2-y,1/2+z
3/4-y,1/4-x,1/4+z
1/4+y,1/4+x,1/4+z
loop_
_atom_site_type_symbol
_atom_site_label
_atom_site_fract_x
_atom_site_fract_y
_atom_site_fract_z
Si Si1 0.333154 0.105138 0.765359
Si Si2 0.046837 0.051540 0.959645
Si Si3 0.136130 0.084273 0.429292
Si Si4 0.193406 0.701404 0.292368
Si Si5 0.081581 0.553257 0.245594
Si Si6 0.702377 0.999193 0.462468
O O1 0.345377 0.095377 0.875000
O O2 0.322461 0.157794 0.753193
O O3 0.369028 0.091883 0.684149
O O4 0.288561 0.075830 0.734009
O O5 0.048849 0.058562 0.845601
O O6 0.050497 0.997555 0.974568
O O7 0.001290 0.069860 0.007282
O O8 0.088698 0.078902 0.482055
O O9 0.165322 0.125334 0.473658
O O10 0.166008 0.039238 0.444129
O O11 0.185468 0.691519 0.403918
O O12 0.095079 0.500000 0.250000
O O13 0.750000 0.979360 0.500000
O O14 0.722133 0.027868 0.375000
#
# Coordination Sequence:
#
# PCOD9573499 Si02
#       6
#    32  32  32  32  32  32
#     4  10  21  34  47  69 103 133 173 213 252 306
#     4   9  19  35  49  69  99 133 173 216 254 309
#     4  11  20  32  49  73  99 134 178 213 251 300
#     4  10  19  33  52  70  97 134 177 212 260 300
#     4   9  19  33  49  72 101 129 168 215 255 305
#     4  11  20  30  44  66  99 141 175 204 246 293
#
# _framework density 15.640624000000001
#
# number of rings (size 3 to 8) (size 9 to 14) (size 15 to 20)
#    0.000    2.000    3.333    1.000    0.000    2.667 
#    0.000    1.667    0.000    0.000    0.000    0.000 
#    0.000   34.667    0.000    0.000    0.000    0.000 
#
# Total GULP energy -534498.944834 kJ/mol
# GULP energy per Si atom -5567.697342 kJ/mol
# Density = 1.560503 g / cm^3
# Si number density = 15.640624 Si / 1000 Ang^3
#
#
#
# Elastic Constant Matrix: (Units=GPa)
#
#
# Indices 1 2 3 4 5 6 
#
# 1 77.5895 13.5422 35.9521 0.0000 0.0000 0.0000
# 2 13.5422 77.5894 35.9502 0.0000 0.0000 0.0000
# 3 35.9521 35.9502 103.8922 0.0000 0.0000 0.0000
# 4 0.0000 0.0000 0.0000 19.0269 0.0000 0.0000
# 5 0.0000 0.0000 0.0000 0.0000 19.0265 0.0000
# 6 0.0000 0.0000 0.0000 0.0000 0.0000 11.6404
#
#
#
# Elastic Compliance Matrix: (Units=1/GPa)
#
#
# Indices 1 2 3 4 5 6 
#
# 1 0.015354 -0.000260 -0.005223 0.000000 0.000000 0.000000
# 2 -0.000260 0.015354 -0.005223 0.000000 0.000000 0.000000
# 3 -0.005223 -0.005223 0.013240 0.000000 0.000000 0.000000
# 4 0.000000 0.000000 0.000000 0.052557 0.000000 0.000000
# 5 0.000000 0.000000 0.000000 0.000000 0.052558 0.000000
# 6 0.000000 0.000000 0.000000 0.000000 0.000000 0.085908
#
#
# Mechanical properties :
#
#
# Convention : Reuss Voigt Hill
#
# Bulk Modulus (GPa) = 44.37386 47.77333 46.07360
# Shear Modulus (GPa) = 18.94689 21.51386 20.23038
#
# Velocity S-wave (km/s) = 3.48428 3.71281 3.60036
# Velocity P-wave (km/s) = 6.67978 6.99933 6.84142
#
# Compressibility (1/GPa) = 0.02253579
#
# Stress axis : x y z
#
# Youngs Moduli (GPa) = 65.12954 65.13081 75.52694
#
# Poissons Ratio (x) = 0.01691 0.39451
# Poissons Ratio (y) = 0.01691 0.39448
# Poissons Ratio (z) = 0.34020 0.34018
#
# Static dielectric constant tensor:
#      x y z
#    x 1.503990 0.000000 0.000000 
#    y 0.000000 1.504000 0.000000 
#    z 0.000000 0.000000 1.572240 
# 
# From -- ./inp_files/5831.got.cif
#   From: 2010.05.17/outbox.cif.g08.bks.cpg/sg142_3_cif.got.tgz:5831.got - 2010.05.20 13:39:18.
