data_PCOD9573156
_publ_section_title
;
Structure prediction by ZEFSAII (Michael W. Deem and Ramdas Pophale) SiO2 
 PCOD9573156
Probable space group: I 41/A M D
;
_chemical_formula_sum "Si O2"
_cell_formula_units_Z 36
_cell_length_a 12.509814
_cell_length_b 12.509814
_cell_length_c 8.969885
_cell_angle_alpha 90.000000
_cell_angle_beta 90.000000
_cell_angle_gamma 90.000000
_cell_volume 1403.746156
_symmetry_space_group_name_H-M "I 41/A M D"
_symmetry_group_IT_number 141
_space_group.IT_coordinate_system_code '2'
_symmetry_cell_setting 'tetragonal'
loop_
_space_group_symop_operation_xyz
x,y,z
1/4-y,3/4+x,1/4+z
-x,1/2-y,z
1/4+y,1/4-x,3/4+z
x,-y,-z
-x,1/2+y,-z
1/4+y,3/4+x,1/4-z
1/4-y,1/4-x,3/4-z
-x,-y,-z
3/4+y,1/4-x,3/4-z
x,1/2+y,-z
3/4-y,3/4+x,1/4-z
-x,y,z
x,1/2-y,z
3/4-y,1/4-x,3/4+z
3/4+y,3/4+x,1/4+z
1/2+x,1/2+y,1/2+z
3/4-y,1/4+x,3/4+z
1/2-x,-y,1/2+z
3/4+y,3/4-x,1/4+z
1/2+x,1/2-y,1/2-z
1/2-x,y,1/2-z
3/4+y,1/4+x,3/4-z
3/4-y,3/4-x,1/4-z
1/2-x,1/2-y,1/2-z
1/4+y,3/4-x,1/4-z
1/2+x,y,1/2-z
1/4-y,1/4+x,3/4-z
1/2-x,1/2+y,1/2+z
1/2+x,-y,1/2+z
1/4-y,3/4-x,1/4+z
1/4+y,1/4+x,3/4+z
loop_
_atom_site_type_symbol
_atom_site_label
_atom_site_fract_x
_atom_site_fract_y
_atom_site_fract_z
Si Si1 0.382424 0.632424 0.875000
Si Si2 0.000000 0.750000 0.125000
Si Si3 0.000000 0.515409 0.177412
O O1 0.376532 0.750000 0.799855
O O2 0.396496 0.542005 0.751695
O O3 0.000000 0.860254 0.212866
O O4 0.000000 0.500000 0.000000
#
# Coordination Sequence:
#
# PCOD9573156 Si02
#       3
#    16   4  16
#     4   7  16  40  79 105 154 233 284 333 444 552
#     4  12  28  36  72 142 164 192 304 402 412 556
#     4  10  21  43  73 117 173 218 285 365 454 523
#
# _framework density 25.645665000000001
#
# number of rings (size 3 to 8) (size 9 to 14) (size 15 to 20)
#    2.667    0.444    0.000    0.000    6.222    0.000 
#    0.000   13.333    0.000    0.000   23.111    3.111 
#    0.000    0.000    0.000    0.000    0.000    0.000 
#
# Total GULP energy -100345.853517 kJ/mol
# GULP energy per Si atom -5574.769640 kJ/mol
# Density = 2.558729 g / cm^3
# Si number density = 25.645665 Si / 1000 Ang^3
#
#
#
# Elastic Constant Matrix: (Units=GPa)
#
#
# Indices 1 2 3 4 5 6 
#
# 1 190.6015 14.4489 82.4831 0.0000 0.0000 0.0000
# 2 14.4489 190.6015 82.4831 0.0000 0.0000 0.0000
# 3 82.4831 82.4831 197.9525 0.0000 0.0000 0.0000
# 4 0.0000 0.0000 0.0000 48.9277 0.0000 0.0000
# 5 0.0000 0.0000 0.0000 0.0000 48.9277 0.0000
# 6 0.0000 0.0000 0.0000 0.0000 0.0000 25.3944
#
#
#
# Elastic Compliance Matrix: (Units=1/GPa)
#
#
# Indices 1 2 3 4 5 6 
#
# 1 0.006506 0.000830 -0.003057 0.000000 0.000000 0.000000
# 2 0.000830 0.006506 -0.003057 0.000000 0.000000 0.000000
# 3 -0.003057 -0.003057 0.007599 0.000000 0.000000 0.000000
# 4 0.000000 0.000000 0.000000 0.020438 0.000000 0.000000
# 5 0.000000 0.000000 0.000000 0.000000 0.020438 0.000000
# 6 0.000000 0.000000 0.000000 0.000000 0.000000 0.039379
#
#
# Mechanical properties :
#
#
# Convention : Reuss Voigt Hill
#
# Bulk Modulus (GPa) = 99.56098 104.22062 101.89080
# Shear Modulus (GPa) = 43.56020 51.29931 47.42976
#
# Velocity S-wave (km/s) = 4.12581 4.47734 4.30516
# Velocity P-wave (km/s) = 7.84872 8.21314 8.03300
#
# Compressibility (1/GPa) = 0.01004410
#
# Stress axis : x y z
#
# Youngs Moduli (GPa) = 153.69247 153.69247 131.59369
#
# Poissons Ratio (x) = -0.12750 0.40226
# Poissons Ratio (y) = -0.12750 0.40226
# Poissons Ratio (z) = 0.46981 0.46981
#
# Static dielectric constant tensor:
#      x y z
#    x 2.267190 0.000000 0.000000 
#    y 0.000000 2.267190 0.000000 
#    z 0.000000 0.000000 2.051120 
# 
# From -- ./inp_files/1421.got.cif
#   From: 2010.05.17/outbox.cif.g08.bks.cpg/sg141_1_cif.got.tgz:1421.got - 2010.05.20 13:30:51.
