data_PCOD9573219
_publ_section_title
;
Structure prediction by ZEFSAII (Michael W. Deem and Ramdas Pophale) SiO2 
 PCOD9573219
Probable space group: I 41/A M D
;
_chemical_formula_sum "Si O2"
_cell_formula_units_Z 80
_cell_length_a 26.098196
_cell_length_b 26.098196
_cell_length_c 5.313206
_cell_angle_alpha 90.000000
_cell_angle_beta 90.000000
_cell_angle_gamma 90.000000
_cell_volume 3618.908738
_symmetry_space_group_name_H-M "I 41/A M D"
_symmetry_group_IT_number 141
_space_group.IT_coordinate_system_code '2'
_symmetry_cell_setting 'tetragonal'
loop_
_space_group_symop_operation_xyz
x,y,z
1/4-y,3/4+x,1/4+z
-x,1/2-y,z
1/4+y,1/4-x,3/4+z
x,-y,-z
-x,1/2+y,-z
1/4+y,3/4+x,1/4-z
1/4-y,1/4-x,3/4-z
-x,-y,-z
3/4+y,1/4-x,3/4-z
x,1/2+y,-z
3/4-y,3/4+x,1/4-z
-x,y,z
x,1/2-y,z
3/4-y,1/4-x,3/4+z
3/4+y,3/4+x,1/4+z
1/2+x,1/2+y,1/2+z
3/4-y,1/4+x,3/4+z
1/2-x,-y,1/2+z
3/4+y,3/4-x,1/4+z
1/2+x,1/2-y,1/2-z
1/2-x,y,1/2-z
3/4+y,1/4+x,3/4-z
3/4-y,3/4-x,1/4-z
1/2-x,1/2-y,1/2-z
1/4+y,3/4-x,1/4-z
1/2+x,y,1/2-z
1/4-y,1/4+x,3/4-z
1/2-x,1/2+y,1/2+z
1/2+x,-y,1/2+z
1/4-y,3/4-x,1/4+z
1/4+y,1/4+x,3/4+z
loop_
_atom_site_type_symbol
_atom_site_label
_atom_site_fract_x
_atom_site_fract_y
_atom_site_fract_z
Si Si1 0.715560 0.750000 0.003004
Si Si2 0.891939 0.940956 0.555194
Si Si3 0.103915 0.309259 0.113786
O O1 0.750000 0.750000 0.750000
O O2 0.688530 0.693493 0.984450
O O3 0.750000 0.750000 0.250000
O O4 0.840872 0.909129 0.625000
O O5 0.912734 0.908029 0.320141
O O6 0.881460 0.000000 0.500000
O O7 0.113618 0.250000 0.143423
O O8 0.080244 0.330244 0.375000
O O9 0.068739 0.318739 0.875000
#
# Coordination Sequence:
#
# PCOD9573219 Si02
#       3
#    16  32  32
#     4  10  22  42  72 101 134 183 236 290 343 410
#     4  10  23  45  69 102 139 186 236 291 356 421
#     4  11  24  42  67 101 140 187 235 293 357 429
#
# _framework density 22.106112
#
# number of rings (size 3 to 8) (size 9 to 14) (size 15 to 20)
#    0.000    1.600    2.000    1.200    0.000   15.200 
#    0.000    4.000    0.000    0.600    0.000    0.000 
#    0.000    0.000    0.000    0.000    0.000    0.000 
#
# Total GULP energy -222963.635118 kJ/mol
# GULP energy per Si atom -5574.090878 kJ/mol
# Density = 2.205580 g / cm^3
# Si number density = 22.106112 Si / 1000 Ang^3
#
#
#
# Elastic Constant Matrix: (Units=GPa)
#
#
# Indices 1 2 3 4 5 6 
#
# 1 171.2282 121.3795 36.3094 0.0000 0.0000 0.0000
# 2 121.3795 171.2267 36.3075 0.0000 0.0000 0.0000
# 3 36.3094 36.3075 108.9861 0.0000 0.0000 0.0000
# 4 0.0000 0.0000 0.0000 22.0502 0.0000 0.0000
# 5 0.0000 0.0000 0.0000 0.0000 22.0500 0.0000
# 6 0.0000 0.0000 0.0000 0.0000 0.0000 53.7187
#
#
#
# Elastic Compliance Matrix: (Units=1/GPa)
#
#
# Indices 1 2 3 4 5 6 
#
# 1 0.011893 -0.008168 -0.001241 0.000000 0.000000 0.000000
# 2 -0.008168 0.011893 -0.001241 0.000000 0.000000 0.000000
# 3 -0.001241 -0.001241 0.010002 0.000000 0.000000 0.000000
# 4 0.000000 0.000000 0.000000 0.045351 0.000000 0.000000
# 5 0.000000 0.000000 0.000000 0.000000 0.045351 0.000000
# 6 0.000000 0.000000 0.000000 0.000000 0.000000 0.018615
#
#
# Mechanical properties :
#
#
# Convention : Reuss Voigt Hill
#
# Bulk Modulus (GPa) = 80.07076 93.27041 86.67059
# Shear Modulus (GPa) = 29.66126 36.72676 33.19401
#
# Velocity S-wave (km/s) = 3.66699 4.08043 3.87922
# Velocity P-wave (km/s) = 7.36402 8.03017 7.70430
#
# Compressibility (1/GPa) = 0.01248895
#
# Stress axis : x y z
#
# Youngs Moduli (GPa) = 84.08112 84.08098 99.97531
#
# Poissons Ratio (x) = 0.68675 0.12410
# Poissons Ratio (y) = 0.68675 0.12407
# Poissons Ratio (z) = 0.10437 0.10434
#
# Static dielectric constant tensor:
#      x y z
#    x 1.918080 0.000000 0.000000 
#    y 0.000000 1.918080 0.000000 
#    z 0.000000 0.000000 1.775290 
# 
# From -- ./inp_files/991.got.cif
#   From: 2010.05.17/outbox.cif.g08.bks.cpg/sg141_1_cif.got.tgz:991.got - 2010.05.20 13:30:51.
