data_PCOD9573739
_publ_section_title
;
Structure prediction by ZEFSAII (Michael W. Deem and Ramdas Pophale) SiO2 
 PCOD9573739
Probable space group: I 41/A C D
;
_chemical_formula_sum "Si O2"
_cell_formula_units_Z 160
_cell_length_a 26.669854
_cell_length_b 26.669854
_cell_length_c 12.870294
_cell_angle_alpha 90.000000
_cell_angle_beta 90.000000
_cell_angle_gamma 90.000000
_cell_volume 9154.397033
_symmetry_space_group_name_H-M "I 41/A C D"
_symmetry_group_IT_number 142
_space_group.IT_coordinate_system_code '2'
_symmetry_cell_setting 'tetragonal'
loop_
_space_group_symop_operation_xyz
x,y,z
1/4-y,3/4+x,1/4+z
-x,1/2-y,z
1/4+y,1/4-x,3/4+z
x,-y,1/2-z
1/2-x,y,-z
3/4+y,1/4+x,1/4-z
1/4-y,1/4-x,1/4-z
-x,-y,-z
3/4+y,1/4-x,3/4-z
x,1/2+y,-z
3/4-y,3/4+x,1/4-z
-x,y,1/2+z
1/2+x,-y,z
1/4-y,3/4-x,3/4+z
3/4+y,3/4+x,3/4+z
1/2+x,1/2+y,1/2+z
3/4-y,1/4+x,3/4+z
1/2-x,-y,1/2+z
3/4+y,3/4-x,1/4+z
1/2+x,1/2-y,-z
-x,1/2+y,1/2-z
1/4+y,3/4+x,3/4-z
3/4-y,3/4-x,3/4-z
1/2-x,1/2-y,1/2-z
1/4+y,3/4-x,1/4-z
1/2+x,y,1/2-z
1/4-y,1/4+x,3/4-z
1/2-x,1/2+y,z
x,1/2-y,1/2+z
3/4-y,1/4-x,1/4+z
1/4+y,1/4+x,1/4+z
loop_
_atom_site_type_symbol
_atom_site_label
_atom_site_fract_x
_atom_site_fract_y
_atom_site_fract_z
Si Si1 0.573584 0.223580 0.651152
Si Si2 0.840187 0.289903 0.993481
Si Si3 0.870465 0.796576 0.347840
Si Si4 0.287774 0.119329 0.902627
Si Si5 0.275843 0.800273 0.294257
O O1 0.558716 0.273900 0.591704
O O2 0.612963 0.196216 0.578624
O O3 0.596560 0.234377 0.763413
O O4 0.796117 0.283983 0.908418
O O5 0.852648 0.240400 0.060347
O O6 0.826048 0.336866 0.063275
O O7 0.906039 0.843962 0.375000
O O8 0.821471 0.812533 0.283155
O O9 0.319886 0.069886 0.875000
O O10 0.256619 0.149342 0.813492
O O11 0.250000 0.109683 0.000000
O O12 0.250000 0.750000 0.250000
#
# Coordination Sequence:
#
# PCOD9573739 Si02
#       5
#    32  32  32  32  32
#     4  10  21  33  47  80 123 162 199 233 283 356
#     4  10  21  35  59  85 116 156 202 240 297 359
#     4  11  21  37  57  82 124 159 197 246 298 353
#     4  10  22  41  64  89 114 153 204 257 305 362
#     4  10  21  39  62  87 117 155 205 251 298 367
#
# _framework density 17.477938999999999
#
# number of rings (size 3 to 8) (size 9 to 14) (size 15 to 20)
#    0.000    1.800    4.000    0.000    2.800    0.000 
#    3.600    1.000    0.000    0.000    0.000    0.000 
#    0.000    0.000    0.000    0.000    0.000    0.000 
#
# Total GULP energy -445356.275064 kJ/mol
# GULP energy per Si atom -5566.953438 kJ/mol
# Density = 1.743816 g / cm^3
# Si number density = 17.477939 Si / 1000 Ang^3
#
#
#
# Elastic Constant Matrix: (Units=GPa)
#
#
# Indices 1 2 3 4 5 6 
#
# 1 85.9211 53.5189 33.4757 0.0000 0.0000 0.0000
# 2 53.5189 85.9221 33.4768 0.0000 0.0000 0.0000
# 3 33.4757 33.4768 65.8213 0.0000 0.0000 0.0000
# 4 0.0000 0.0000 0.0000 24.6994 0.0000 0.0000
# 5 0.0000 0.0000 0.0000 0.0000 24.6996 0.0000
# 6 0.0000 0.0000 0.0000 0.0000 0.0000 36.2713
#
#
#
# Elastic Compliance Matrix: (Units=1/GPa)
#
#
# Indices 1 2 3 4 5 6 
#
# 1 0.020175 -0.010686 -0.004826 0.000000 0.000000 0.000000
# 2 -0.010686 0.020175 -0.004826 0.000000 0.000000 0.000000
# 3 -0.004826 -0.004826 0.020101 0.000000 0.000000 0.000000
# 4 0.000000 0.000000 0.000000 0.040487 0.000000 0.000000
# 5 0.000000 0.000000 0.000000 0.000000 0.040487 0.000000
# 6 0.000000 0.000000 0.000000 0.000000 0.000000 0.027570
#
#
# Mechanical properties :
#
#
# Convention : Reuss Voigt Hill
#
# Bulk Modulus (GPa) = 50.56808 53.17856 51.87332
# Shear Modulus (GPa) = 23.11997 24.94693 24.03345
#
# Velocity S-wave (km/s) = 3.64099 3.78211 3.71222
# Velocity P-wave (km/s) = 6.83162 7.04022 6.93670
#
# Compressibility (1/GPa) = 0.01977532
#
# Stress axis : x y z
#
# Youngs Moduli (GPa) = 49.56605 49.56591 49.74763
#
# Poissons Ratio (x) = 0.52968 0.24006
# Poissons Ratio (y) = 0.52969 0.24009
# Poissons Ratio (z) = 0.23919 0.23921
#
# Static dielectric constant tensor:
#      x y z
#    x 1.613510 0.000000 0.000000 
#    y 0.000000 1.613510 0.000000 
#    z 0.000000 0.000000 1.632850 
# 
# From -- ./inp_files/3853.got.cif
#   From: 2010.05.17/outbox.cif.g08.bks.cpg/sg142_2_cif.got.tgz:3853.got - 2010.05.20 13:39:18.
