data_PCOD9573419
_publ_section_title
;
Structure prediction by ZEFSAII (Michael W. Deem and Ramdas Pophale) SiO2 
 PCOD9573419
Probable space group: I 41/A C D
;
_chemical_formula_sum "Si O2"
_cell_formula_units_Z 192
_cell_length_a 16.885276
_cell_length_b 16.885276
_cell_length_c 25.652558
_cell_angle_alpha 90.000000
_cell_angle_beta 90.000000
_cell_angle_gamma 90.000000
_cell_volume 7313.866112
_symmetry_space_group_name_H-M "I 41/A C D"
_symmetry_group_IT_number 142
_space_group.IT_coordinate_system_code '2'
_symmetry_cell_setting 'tetragonal'
loop_
_space_group_symop_operation_xyz
x,y,z
1/4-y,3/4+x,1/4+z
-x,1/2-y,z
1/4+y,1/4-x,3/4+z
x,-y,1/2-z
1/2-x,y,-z
3/4+y,1/4+x,1/4-z
1/4-y,1/4-x,1/4-z
-x,-y,-z
3/4+y,1/4-x,3/4-z
x,1/2+y,-z
3/4-y,3/4+x,1/4-z
-x,y,1/2+z
1/2+x,-y,z
1/4-y,3/4-x,3/4+z
3/4+y,3/4+x,3/4+z
1/2+x,1/2+y,1/2+z
3/4-y,1/4+x,3/4+z
1/2-x,-y,1/2+z
3/4+y,3/4-x,1/4+z
1/2+x,1/2-y,-z
-x,1/2+y,1/2-z
1/4+y,3/4+x,3/4-z
3/4-y,3/4-x,3/4-z
1/2-x,1/2-y,1/2-z
1/4+y,3/4-x,1/4-z
1/2+x,y,1/2-z
1/4-y,1/4+x,3/4-z
1/2-x,1/2+y,z
x,1/2-y,1/2+z
3/4-y,1/4-x,1/4+z
1/4+y,1/4+x,1/4+z
loop_
_atom_site_type_symbol
_atom_site_label
_atom_site_fract_x
_atom_site_fract_y
_atom_site_fract_z
Si Si1 0.112702 0.622542 0.583367
Si Si2 0.588327 0.397131 0.981357
Si Si3 0.750000 0.183439 0.500000
Si Si4 0.579331 0.170670 0.375000
Si Si5 0.713960 0.802496 0.330820
Si Si6 0.451121 0.074791 0.329943
Si Si7 0.500000 0.750000 0.467479
Si Si8 0.750000 0.900742 0.500000
O O1 0.147817 0.644534 0.639902
O O2 0.073135 0.706423 0.562751
O O3 0.185744 0.585711 0.548989
O O4 0.037849 0.564880 0.586318
O O5 0.584539 0.397229 0.919106
O O6 0.533037 0.324441 0.000276
O O7 0.675194 0.371414 0.997921
O O8 0.570737 0.468826 0.019988
O O9 0.762133 0.239440 0.550436
O O10 0.500561 0.153284 0.341795
O O11 0.791202 0.820726 0.364179
O O12 0.383689 0.070334 0.287501
#
# Coordination Sequence:
#
# PCOD9573419 Si02
#       8
#    32  32  16  16  32  32  16  16
#     4  10  17  28  48  76 105 129 165 216 275 322
#     4  10  20  31  48  72 102 134 170 213 263 317
#     4   9  16  32  50  69 100 141 172 204 274 352
#     4  10  20  33  46  66  98 136 170 206 256 325
#     4  10  18  29  49  78 103 130 173 231 271 310
#     4   9  17  30  49  70  96 128 170 215 265 320
#     4  10  18  28  46  74 102 127 158 207 260 314
#     4   9  18  32  50  71 100 137 164 202 274 346
#
# _framework density 26.251505000000002
#
# number of rings (size 3 to 8) (size 9 to 14) (size 15 to 20)
#    0.000    2.333    0.000    7.000    0.000    1.667 
#    0.000    0.000    0.000    5.000    0.000    4.667 
#    0.000    1.333    0.000    0.000    0.000    0.000 
#
# Total GULP energy -535039.760574 kJ/mol
# GULP energy per Si atom -5573.330839 kJ/mol
# Density = 2.619176 g / cm^3
# Si number density = 26.251505 Si / 1000 Ang^3
#
#
#
# Elastic Constant Matrix: (Units=GPa)
#
#
# Indices 1 2 3 4 5 6 
#
# 1 48.2506 16.0436 25.5014 0.0000 0.0000 0.0000
# 2 16.0436 48.2506 25.5014 0.0000 0.0000 0.0000
# 3 25.5014 25.5014 176.1259 0.0000 0.0000 0.0000
# 4 0.0000 0.0000 0.0000 36.3777 0.0000 0.0000
# 5 0.0000 0.0000 0.0000 0.0000 36.3782 0.0000
# 6 0.0000 0.0000 0.0000 0.0000 0.0000 31.3549
#
#
#
# Elastic Compliance Matrix: (Units=1/GPa)
#
#
# Indices 1 2 3 4 5 6 
#
# 1 0.024310 -0.006739 -0.002544 0.000000 0.000000 0.000000
# 2 -0.006739 0.024310 -0.002544 0.000000 0.000000 0.000000
# 3 -0.002544 -0.002544 0.006415 0.000000 0.000000 0.000000
# 4 0.000000 0.000000 0.000000 0.027489 0.000000 0.000000
# 5 0.000000 0.000000 0.000000 0.000000 0.027489 0.000000
# 6 0.000000 0.000000 0.000000 0.000000 0.000000 0.031893
#
#
# Mechanical properties :
#
#
# Convention : Reuss Voigt Hill
#
# Bulk Modulus (GPa) = 31.86630 45.19110 38.52870
# Shear Modulus (GPa) = 28.40564 34.52755 31.46660
#
# Velocity S-wave (km/s) = 3.29303 3.63059 3.46592
# Velocity P-wave (km/s) = 5.15984 5.90143 5.54305
#
# Compressibility (1/GPa) = 0.03138112
#
# Stress axis : x y z
#
# Youngs Moduli (GPa) = 41.13456 41.13459 155.89645
#
# Poissons Ratio (x) = 0.27719 0.39664
# Poissons Ratio (y) = 0.27719 0.39664
# Poissons Ratio (z) = 0.10466 0.10466
#
# Static dielectric constant tensor:
#      x y z
#    x 2.136510 0.000000 0.000000 
#    y 0.000000 2.136510 0.000000 
#    z 0.000000 0.000000 2.074580 
# 
# From -- ./inp_files/10488.got.cif
#   From: 2010.05.17/outbox.cif.g08.bks.cpg/sg142_6_cif.got.tgz:10488.got - 2010.05.20 13:39:18.
