data_PCOD9573125
_publ_section_title
;
Structure prediction by ZEFSAII (Michael W. Deem and Ramdas Pophale) SiO2 
 PCOD9573125
Probable space group: I 41/A M D
;
_chemical_formula_sum "Si O2"
_cell_formula_units_Z 144
_cell_length_a 20.744125
_cell_length_b 20.744125
_cell_length_c 17.705121
_cell_angle_alpha 90.000000
_cell_angle_beta 90.000000
_cell_angle_gamma 90.000000
_cell_volume 7618.845042
_symmetry_space_group_name_H-M "I 41/A M D"
_symmetry_group_IT_number 141
_space_group.IT_coordinate_system_code '2'
_symmetry_cell_setting 'tetragonal'
loop_
_space_group_symop_operation_xyz
x,y,z
1/4-y,3/4+x,1/4+z
-x,1/2-y,z
1/4+y,1/4-x,3/4+z
x,-y,-z
-x,1/2+y,-z
1/4+y,3/4+x,1/4-z
1/4-y,1/4-x,3/4-z
-x,-y,-z
3/4+y,1/4-x,3/4-z
x,1/2+y,-z
3/4-y,3/4+x,1/4-z
-x,y,z
x,1/2-y,z
3/4-y,1/4-x,3/4+z
3/4+y,3/4+x,1/4+z
1/2+x,1/2+y,1/2+z
3/4-y,1/4+x,3/4+z
1/2-x,-y,1/2+z
3/4+y,3/4-x,1/4+z
1/2+x,1/2-y,1/2-z
1/2-x,y,1/2-z
3/4+y,1/4+x,3/4-z
3/4-y,3/4-x,1/4-z
1/2-x,1/2-y,1/2-z
1/4+y,3/4-x,1/4-z
1/2+x,y,1/2-z
1/4-y,1/4+x,3/4-z
1/2-x,1/2+y,1/2+z
1/2+x,-y,1/2+z
1/4-y,3/4-x,1/4+z
1/4+y,1/4+x,3/4+z
loop_
_atom_site_type_symbol
_atom_site_label
_atom_site_fract_x
_atom_site_fract_y
_atom_site_fract_z
Si Si1 0.250000 0.913237 0.750000
Si Si2 0.690650 0.173883 0.801518
Si Si3 0.270967 0.868002 0.036825
Si Si4 0.575519 0.626244 0.296103
Si Si5 0.575179 0.430550 0.125428
O O1 0.191795 0.960062 0.772657
O O2 0.275055 0.867167 0.818020
O O3 0.699951 0.250000 0.803993
O O4 0.750000 0.147063 0.750000
O O5 0.692546 0.150210 0.886840
O O6 0.622548 0.158123 0.764373
O O7 0.197048 0.850501 0.052738
O O8 0.292185 0.831614 0.960484
O O9 0.587865 0.662136 0.375000
O O10 0.500000 0.626956 0.277325
O O11 0.611432 0.361432 0.125000
O O12 0.500000 0.427631 0.103912
#
# Coordination Sequence:
#
# PCOD9573125 Si02
#       5
#    16  32  32  32  32
#     4  10  23  40  64  94 125 162 208 270 330 380
#     4  11  23  41  62  89 125 168 213 262 318 381
#     4  11  23  40  64  93 125 163 216 269 322 377
#     4  12  25  40  63  91 127 171 216 268 325 389
#     4  10  21  39  63  91 124 161 206 261 324 391
#
# _framework density 18.900501999999999
#
# number of rings (size 3 to 8) (size 9 to 14) (size 15 to 20)
#    0.000    1.111    2.222    4.333    1.556    4.444 
#    0.000    4.444    0.000    5.333    0.000    0.000 
#    0.000    0.000    0.000    0.000    0.000    0.000 
#
# Total GULP energy -402222.096261 kJ/mol
# GULP energy per Si atom -5586.418004 kJ/mol
# Density = 1.885748 g / cm^3
# Si number density = 18.900502 Si / 1000 Ang^3
#
#
#
# Elastic Constant Matrix: (Units=GPa)
#
#
# Indices 1 2 3 4 5 6 
#
# 1 79.7705 21.5943 25.8611 0.0000 0.0000 0.0000
# 2 21.5943 79.7753 25.8600 0.0000 0.0000 0.0000
# 3 25.8611 25.8600 125.0484 0.0000 0.0000 0.0000
# 4 0.0000 0.0000 0.0000 12.1348 0.0000 0.0000
# 5 0.0000 0.0000 0.0000 0.0000 12.1331 0.0000
# 6 0.0000 0.0000 0.0000 0.0000 0.0000 5.2403
#
#
#
# Elastic Compliance Matrix: (Units=1/GPa)
#
#
# Indices 1 2 3 4 5 6 
#
# 1 0.014109 -0.003080 -0.002281 0.000000 0.000000 0.000000
# 2 -0.003080 0.014108 -0.002281 0.000000 0.000000 0.000000
# 3 -0.002281 -0.002281 0.008940 0.000000 0.000000 0.000000
# 4 0.000000 0.000000 0.000000 0.082408 0.000000 0.000000
# 5 0.000000 0.000000 0.000000 0.000000 0.082419 0.000000
# 6 0.000000 0.000000 0.000000 0.000000 0.000000 0.190828
#
#
# Mechanical properties :
#
#
# Convention : Reuss Voigt Hill
#
# Bulk Modulus (GPa) = 45.71483 47.91391 46.81437
# Shear Modulus (GPa) = 12.03698 19.98691 16.01195
#
# Velocity S-wave (km/s) = 2.52635 3.25542 2.91378
# Velocity P-wave (km/s) = 5.72272 6.28776 6.01188
#
# Compressibility (1/GPa) = 0.02187474
#
# Stress axis : x y z
#
# Youngs Moduli (GPa) = 70.87598 70.88097 111.85340
#
# Poissons Ratio (x) = 0.21830 0.25514
# Poissons Ratio (y) = 0.21828 0.25510
# Poissons Ratio (z) = 0.16167 0.16165
#
# Static dielectric constant tensor:
#      x y z
#    x 1.618230 0.000000 0.000000 
#    y 0.000000 1.618220 0.000000 
#    z 0.000000 0.000000 1.677920 
# 
# From -- ./inp_files/8442.got.cif
#   From: 2010.05.17/outbox.cif.g08.bks.cpg/sg141_5_cif.got.tgz:8442.got - 2010.05.20 13:30:51.
