data_PCOD9573939
_publ_section_title
;
Structure prediction by ZEFSAII (Michael W. Deem and Ramdas Pophale) SiO2 
 PCOD9573939
Probable space group: I 41/A C D
;
_chemical_formula_sum "Si O2"
_cell_formula_units_Z 176
_cell_length_a 16.672995
_cell_length_b 16.672995
_cell_length_c 27.870459
_cell_angle_alpha 90.000000
_cell_angle_beta 90.000000
_cell_angle_gamma 90.000000
_cell_volume 7747.674401
_symmetry_space_group_name_H-M "I 41/A C D"
_symmetry_group_IT_number 142
_space_group.IT_coordinate_system_code '2'
_symmetry_cell_setting 'tetragonal'
loop_
_space_group_symop_operation_xyz
x,y,z
1/4-y,3/4+x,1/4+z
-x,1/2-y,z
1/4+y,1/4-x,3/4+z
x,-y,1/2-z
1/2-x,y,-z
3/4+y,1/4+x,1/4-z
1/4-y,1/4-x,1/4-z
-x,-y,-z
3/4+y,1/4-x,3/4-z
x,1/2+y,-z
3/4-y,3/4+x,1/4-z
-x,y,1/2+z
1/2+x,-y,z
1/4-y,3/4-x,3/4+z
3/4+y,3/4+x,3/4+z
1/2+x,1/2+y,1/2+z
3/4-y,1/4+x,3/4+z
1/2-x,-y,1/2+z
3/4+y,3/4-x,1/4+z
1/2+x,1/2-y,-z
-x,1/2+y,1/2-z
1/4+y,3/4+x,3/4-z
3/4-y,3/4-x,3/4-z
1/2-x,1/2-y,1/2-z
1/4+y,3/4-x,1/4-z
1/2+x,y,1/2-z
1/4-y,1/4+x,3/4-z
1/2-x,1/2+y,z
x,1/2-y,1/2+z
3/4-y,1/4-x,1/4+z
1/4+y,1/4+x,1/4+z
loop_
_atom_site_type_symbol
_atom_site_label
_atom_site_fract_x
_atom_site_fract_y
_atom_site_fract_z
Si Si1 0.052360 0.500000 0.750000
Si Si2 0.389695 0.313009 0.143288
Si Si3 0.135345 0.839605 0.981890
Si Si4 0.317105 0.412278 0.427952
Si Si5 0.341608 0.780814 0.747570
Si Si6 0.722835 0.406194 0.574102
O O1 0.103791 0.501536 0.798558
O O2 0.997351 0.421238 0.744255
O O3 0.395878 0.225211 0.118222
O O4 0.373099 0.299350 0.199136
O O5 0.318939 0.363774 0.118853
O O6 0.189846 0.871314 0.938135
O O7 0.041581 0.853893 0.976640
O O8 0.164924 0.887869 0.028757
O O9 0.352101 0.397900 0.375000
O O10 0.390591 0.410000 0.464922
O O11 0.277021 0.498954 0.424724
O O12 0.250000 0.750000 0.750000
#
# Coordination Sequence:
#
# PCOD9573939 Si02
#       6
#    16  32  32  32  32  32
#     4  10  26  46  78 102 152 202 256 308 368 470
#     4  11  24  41  75 112 148 199 265 322 374 447
#     4  10  23  46  74 104 151 199 251 309 379 456
#     4  12  28  47  75 111 156 199 253 312 395 459
#     4  12  26  47  76 111 157 197 252 321 385 460
#     4  10  22  45  73 105 144 194 258 304 376 452
#
# _framework density 22.716494000000001
#
# number of rings (size 3 to 8) (size 9 to 14) (size 15 to 20)
#    0.000    1.273    3.636    1.091    7.636    3.636 
#    0.000    3.636    0.000    0.000    0.000    0.000 
#    0.000    0.000    0.000    0.000    0.000    0.000 
#
# Total GULP energy -492560.583465 kJ/mol
# GULP energy per Si atom -5597.279358 kJ/mol
# Density = 2.266479 g / cm^3
# Si number density = 22.716494 Si / 1000 Ang^3
#
#
#
# Elastic Constant Matrix: (Units=GPa)
#
#
# Indices 1 2 3 4 5 6 
#
# 1 146.8395 62.1433 67.5250 0.0000 0.0000 0.0000
# 2 62.1433 146.8395 67.5249 0.0000 0.0000 0.0000
# 3 67.5250 67.5249 132.6582 0.0000 0.0000 0.0000
# 4 0.0000 0.0000 0.0000 34.4057 0.0000 0.0000
# 5 0.0000 0.0000 0.0000 0.0000 34.4056 0.0000
# 6 0.0000 0.0000 0.0000 0.0000 0.0000 -753.5478
#
#
#
# Elastic Compliance Matrix: (Units=1/GPa)
#
#
# Indices 1 2 3 4 5 6 
#
# 1 0.009469 -0.002338 -0.003630 0.000000 0.000000 0.000000
# 2 -0.002338 0.009469 -0.003630 0.000000 0.000000 0.000000
# 3 -0.003630 -0.003630 0.011233 0.000000 0.000000 0.000000
# 4 0.000000 0.000000 0.000000 0.029065 0.000000 0.000000
# 5 0.000000 0.000000 0.000000 0.000000 0.029065 0.000000
# 6 0.000000 0.000000 0.000000 0.000000 0.000000 -0.001327
#
#
# Mechanical properties :
#
#
# Convention : Reuss Voigt Hill
#
# Bulk Modulus (GPa) = 91.10724 91.19151 91.14937
# Shear Modulus (GPa) = 45.52615 -121.67105 -38.07245
#
# Velocity S-wave (km/s) = 4.48158 -7.32645 -4.09832
# Velocity P-wave (km/s) = 8.18368 5.59811 4.22101
#
# Compressibility (1/GPa) = 0.01097608
#
# Stress axis : x y z
#
# Youngs Moduli (GPa) = 105.61040 105.61051 89.02185
#
# Poissons Ratio (x) = 0.24693 0.32311
# Poissons Ratio (y) = 0.24693 0.32311
# Poissons Ratio (z) = 0.38332 0.38332
#
# Static dielectric constant tensor:
#      x y z
#    x 1.859140 0.000000 0.000000 
#    y 0.000000 1.859140 0.000000 
#    z 0.000000 0.000000 1.815890 
# 
# From -- ./inp_files/11487.got.cif
#   From: 2010.05.17/outbox.cif.g08.bks.cpg/sg142_6_cif.got.tgz:11487.got - 2010.05.20 13:39:18.
