data_PCOD9573770
_publ_section_title
;
Structure prediction by ZEFSAII (Michael W. Deem and Ramdas Pophale) SiO2 
 PCOD9573770
Probable space group: I 41/A C D
;
_chemical_formula_sum "Si O2"
_cell_formula_units_Z 160
_cell_length_a 28.919517
_cell_length_b 28.919517
_cell_length_c 7.981545
_cell_angle_alpha 90.000000
_cell_angle_beta 90.000000
_cell_angle_gamma 90.000000
_cell_volume 6675.273082
_symmetry_space_group_name_H-M "I 41/A C D"
_symmetry_group_IT_number 142
_space_group.IT_coordinate_system_code '2'
_symmetry_cell_setting 'tetragonal'
loop_
_space_group_symop_operation_xyz
x,y,z
1/4-y,3/4+x,1/4+z
-x,1/2-y,z
1/4+y,1/4-x,3/4+z
x,-y,1/2-z
1/2-x,y,-z
3/4+y,1/4+x,1/4-z
1/4-y,1/4-x,1/4-z
-x,-y,-z
3/4+y,1/4-x,3/4-z
x,1/2+y,-z
3/4-y,3/4+x,1/4-z
-x,y,1/2+z
1/2+x,-y,z
1/4-y,3/4-x,3/4+z
3/4+y,3/4+x,3/4+z
1/2+x,1/2+y,1/2+z
3/4-y,1/4+x,3/4+z
1/2-x,-y,1/2+z
3/4+y,3/4-x,1/4+z
1/2+x,1/2-y,-z
-x,1/2+y,1/2-z
1/4+y,3/4+x,3/4-z
3/4-y,3/4-x,3/4-z
1/2-x,1/2-y,1/2-z
1/4+y,3/4-x,1/4-z
1/2+x,y,1/2-z
1/4-y,1/4+x,3/4-z
1/2-x,1/2+y,z
x,1/2-y,1/2+z
3/4-y,1/4-x,1/4+z
1/4+y,1/4+x,1/4+z
loop_
_atom_site_type_symbol
_atom_site_label
_atom_site_fract_x
_atom_site_fract_y
_atom_site_fract_z
Si Si1 0.846180 0.798718 0.926275
Si Si2 0.599065 0.000000 0.750000
Si Si3 0.098315 0.151686 0.625000
Si Si4 0.863442 0.461959 0.096736
Si Si5 0.454381 0.931163 0.022701
Si Si6 0.446044 0.297993 0.604501
O O1 0.827300 0.845920 0.848588
O O2 0.840832 0.753611 0.814499
O O3 0.809571 0.791945 0.077941
O O4 0.899397 0.799412 0.993492
O O5 0.630192 0.017317 0.591976
O O6 0.562601 0.032681 0.844871
O O7 0.088478 0.104596 0.535400
O O8 0.089945 0.189694 0.483092
O O9 0.868307 0.500000 0.250000
O O10 0.815691 0.434310 0.125000
O O11 0.446967 0.248911 0.705368
#
# Coordination Sequence:
#
# PCOD9573770 Si02
#       6
#    32  16  16  32  32  32
#     4  11  24  45  71 112 154 206 269 312 382 456
#     4  12  28  50  86 114 158 200 246 326 392 466
#     4  10  22  39  58  96 146 198 252 304 376 434
#     4  12  30  55  84 122 151 197 254 321 406 490
#     4  11  24  42  72 108 157 204 257 321 379 451
#     4  10  21  38  60  98 155 213 263 314 370 440
#
# _framework density 23.969056999999999
#
# number of rings (size 3 to 8) (size 9 to 14) (size 15 to 20)
#    0.000    1.000    4.000    1.200    7.000    7.200 
#    1.800    0.000    0.000    0.000    0.000    0.000 
#    0.000    0.000    0.000    0.000    0.000    0.000 
#
# Total GULP energy -446081.862396 kJ/mol
# GULP energy per Si atom -5576.023280 kJ/mol
# Density = 2.391450 g / cm^3
# Si number density = 23.969057 Si / 1000 Ang^3
#
#
#
# Elastic Constant Matrix: (Units=GPa)
#
#
# Indices 1 2 3 4 5 6 
#
# 1 86.1518 49.4634 34.0981 0.0000 0.0000 0.0000
# 2 49.4634 86.1499 34.0976 0.0000 0.0000 0.0000
# 3 34.0981 34.0976 118.3787 0.0000 0.0000 0.0000
# 4 0.0000 0.0000 0.0000 23.5807 0.0000 0.0000
# 5 0.0000 0.0000 0.0000 0.0000 23.5849 0.0000
# 6 0.0000 0.0000 0.0000 0.0000 0.0000 36.6867
#
#
#
# Elastic Compliance Matrix: (Units=1/GPa)
#
#
# Indices 1 2 3 4 5 6 
#
# 1 0.017940 -0.009317 -0.002484 0.000000 0.000000 0.000000
# 2 -0.009317 0.017940 -0.002484 0.000000 0.000000 0.000000
# 3 -0.002484 -0.002484 0.009878 0.000000 0.000000 0.000000
# 4 0.000000 0.000000 0.000000 0.042408 0.000000 0.000000
# 5 0.000000 0.000000 0.000000 0.000000 0.042400 0.000000
# 6 0.000000 0.000000 0.000000 0.000000 0.000000 0.027258
#
#
# Mechanical properties :
#
#
# Convention : Reuss Voigt Hill
#
# Bulk Modulus (GPa) = 58.17653 58.44430 58.31042
# Shear Modulus (GPa) = 26.02500 28.30521 27.16510
#
# Velocity S-wave (km/s) = 3.29868 3.44016 3.37016
# Velocity P-wave (km/s) = 6.23158 6.34159 6.28683
#
# Compressibility (1/GPa) = 0.01718906
#
# Stress axis : x y z
#
# Youngs Moduli (GPa) = 55.74170 55.74050 101.23209
#
# Poissons Ratio (x) = 0.51935 0.25143
# Poissons Ratio (y) = 0.51936 0.25143
# Poissons Ratio (z) = 0.13845 0.13844
#
# Static dielectric constant tensor:
#      x y z
#    x 1.953360 0.000000 0.000000 
#    y 0.000000 1.953350 0.000000 
#    z 0.000000 0.000000 2.405370 
# 
# From -- ./inp_files/2233.got.cif
#   From: 2010.05.17/outbox.cif.g08.bks.cpg/sg142_2_cif.got.tgz:2233.got - 2010.05.20 13:39:18.
