data_PCOD9573422
_publ_section_title
;
Structure prediction by ZEFSAII (Michael W. Deem and Ramdas Pophale) SiO2 
 PCOD9573422
Probable space group: I 41/A C D
;
_chemical_formula_sum "Si O2"
_cell_formula_units_Z 160
_cell_length_a 24.876776
_cell_length_b 24.876776
_cell_length_c 14.862783
_cell_angle_alpha 90.000000
_cell_angle_beta 90.000000
_cell_angle_gamma 90.000000
_cell_volume 9197.892475
_symmetry_space_group_name_H-M "I 41/A C D"
_symmetry_group_IT_number 142
_space_group.IT_coordinate_system_code '2'
_symmetry_cell_setting 'tetragonal'
loop_
_space_group_symop_operation_xyz
x,y,z
1/4-y,3/4+x,1/4+z
-x,1/2-y,z
1/4+y,1/4-x,3/4+z
x,-y,1/2-z
1/2-x,y,-z
3/4+y,1/4+x,1/4-z
1/4-y,1/4-x,1/4-z
-x,-y,-z
3/4+y,1/4-x,3/4-z
x,1/2+y,-z
3/4-y,3/4+x,1/4-z
-x,y,1/2+z
1/2+x,-y,z
1/4-y,3/4-x,3/4+z
3/4+y,3/4+x,3/4+z
1/2+x,1/2+y,1/2+z
3/4-y,1/4+x,3/4+z
1/2-x,-y,1/2+z
3/4+y,3/4-x,1/4+z
1/2+x,1/2-y,-z
-x,1/2+y,1/2-z
1/4+y,3/4+x,3/4-z
3/4-y,3/4-x,3/4-z
1/2-x,1/2-y,1/2-z
1/4+y,3/4-x,1/4-z
1/2+x,y,1/2-z
1/4-y,1/4+x,3/4-z
1/2-x,1/2+y,z
x,1/2-y,1/2+z
3/4-y,1/4-x,1/4+z
1/4+y,1/4+x,1/4+z
loop_
_atom_site_type_symbol
_atom_site_label
_atom_site_fract_x
_atom_site_fract_y
_atom_site_fract_z
Si Si1 0.300916 0.710238 0.357443
Si Si2 0.576533 0.698653 0.255555
Si Si3 0.004580 0.393933 0.714464
Si Si4 0.456555 0.441284 0.954238
Si Si5 0.586209 0.320532 0.710803
O O1 0.319082 0.728505 0.456847
O O2 0.244449 0.680715 0.339070
O O3 0.296089 0.764874 0.298637
O O4 0.351163 0.679360 0.313820
O O5 0.531517 0.660601 0.213685
O O6 0.634864 0.677227 0.223317
O O7 0.572075 0.693041 0.363609
O O8 0.573656 0.763056 0.242022
O O9 0.000084 0.424893 0.621608
O O10 0.063194 0.371346 0.736714
#
# Coordination Sequence:
#
# PCOD9573422 Si02
#       5
#    32  32  32  32  32
#     4   9  20  32  46  63 101 134 160 209 246 294
#     4  10  18  29  47  69 101 132 157 199 245 305
#     4  11  19  29  51  71  96 130 170 202 247 302
#     4  10  19  33  44  68  96 135 169 197 245 301
#     4  10  17  30  48  69  98 136 158 199 252 296
#
# _framework density 17.395288999999998
#
# number of rings (size 3 to 8) (size 9 to 14) (size 15 to 20)
#    0.000    2.000    6.000    1.800    0.000    3.200 
#    0.000    4.000    0.000    0.000    0.000    0.000 
#    0.000   25.600    1.600    0.000    0.000    0.000 
#
# Total GULP energy -445415.376107 kJ/mol
# GULP energy per Si atom -5567.692201 kJ/mol
# Density = 1.735570 g / cm^3
# Si number density = 17.395289 Si / 1000 Ang^3
#
#
#
# Elastic Constant Matrix: (Units=GPa)
#
#
# Indices 1 2 3 4 5 6 
#
# 1 69.1884 10.1353 12.1421 0.0000 0.0000 0.0000
# 2 10.1353 69.1884 12.1421 0.0000 0.0000 0.0000
# 3 12.1421 12.1421 71.0216 0.0000 0.0000 0.0000
# 4 0.0000 0.0000 0.0000 19.3762 0.0000 0.0000
# 5 0.0000 0.0000 0.0000 0.0000 19.3762 0.0000
# 6 0.0000 0.0000 0.0000 0.0000 0.0000 6.9891
#
#
#
# Elastic Compliance Matrix: (Units=1/GPa)
#
#
# Indices 1 2 3 4 5 6 
#
# 1 0.015118 -0.001816 -0.002274 0.000000 0.000000 0.000000
# 2 -0.001816 0.015118 -0.002274 0.000000 0.000000 0.000000
# 3 -0.002274 -0.002274 0.014858 0.000000 0.000000 0.000000
# 4 0.000000 0.000000 0.000000 0.051610 0.000000 0.000000
# 5 0.000000 0.000000 0.000000 0.000000 0.051610 0.000000
# 6 0.000000 0.000000 0.000000 0.000000 0.000000 0.143079
#
#
# Mechanical properties :
#
#
# Convention : Reuss Voigt Hill
#
# Bulk Modulus (GPa) = 30.89631 30.91527 30.90579
# Shear Modulus (GPa) = 15.87754 20.81359 18.34557
#
# Velocity S-wave (km/s) = 3.02445 3.46281 3.25103
# Velocity P-wave (km/s) = 5.47689 5.81368 5.64779
#
# Compressibility (1/GPa) = 0.03236632
#
# Stress axis : x y z
#
# Youngs Moduli (GPa) = 66.14474 66.14474 67.30442
#
# Poissons Ratio (x) = 0.12009 0.15307
# Poissons Ratio (y) = 0.12009 0.15307
# Poissons Ratio (z) = 0.15043 0.15043
#
# Static dielectric constant tensor:
#      x y z
#    x 1.652220 0.000000 0.000000 
#    y 0.000000 1.652220 0.000000 
#    z 0.000000 0.000000 1.661280 
# 
# From -- ./inp_files/7707.got.cif
#   From: 2010.05.17/outbox.cif.g08.bks.cpg/sg142_4_cif.got.tgz:7707.got - 2010.05.20 13:39:18.
