data_PCOD9573349
_publ_section_title
;
Structure prediction by ZEFSAII (Michael W. Deem and Ramdas Pophale) SiO2 
 PCOD9573349
Probable space group: I 41/A M D
;
_chemical_formula_sum "Si O2"
_cell_formula_units_Z 88
_cell_length_a 10.415057
_cell_length_b 10.415057
_cell_length_c 32.726059
_cell_angle_alpha 90.000000
_cell_angle_beta 90.000000
_cell_angle_gamma 90.000000
_cell_volume 3549.907291
_symmetry_space_group_name_H-M "I 41/A M D"
_symmetry_group_IT_number 141
_space_group.IT_coordinate_system_code '2'
_symmetry_cell_setting 'tetragonal'
loop_
_space_group_symop_operation_xyz
x,y,z
1/4-y,3/4+x,1/4+z
-x,1/2-y,z
1/4+y,1/4-x,3/4+z
x,-y,-z
-x,1/2+y,-z
1/4+y,3/4+x,1/4-z
1/4-y,1/4-x,3/4-z
-x,-y,-z
3/4+y,1/4-x,3/4-z
x,1/2+y,-z
3/4-y,3/4+x,1/4-z
-x,y,z
x,1/2-y,z
3/4-y,1/4-x,3/4+z
3/4+y,3/4+x,1/4+z
1/2+x,1/2+y,1/2+z
3/4-y,1/4+x,3/4+z
1/2-x,-y,1/2+z
3/4+y,3/4-x,1/4+z
1/2+x,1/2-y,1/2-z
1/2-x,y,1/2-z
3/4+y,1/4+x,3/4-z
3/4-y,3/4-x,1/4-z
1/2-x,1/2-y,1/2-z
1/4+y,3/4-x,1/4-z
1/2+x,y,1/2-z
1/4-y,1/4+x,3/4-z
1/2-x,1/2+y,1/2+z
1/2+x,-y,1/2+z
1/4-y,3/4-x,1/4+z
1/4+y,1/4+x,3/4+z
loop_
_atom_site_type_symbol
_atom_site_label
_atom_site_fract_x
_atom_site_fract_y
_atom_site_fract_z
Si Si1 0.857159 0.250000 0.573370
Si Si2 0.265433 0.250000 0.800933
Si Si3 0.000000 0.961742 0.732627
Si Si4 0.208535 0.524698 0.668925
Si Si5 0.500000 0.750000 0.474793
O O1 0.861106 0.250000 0.524581
O O2 0.792155 0.387615 0.581635
O O3 0.000000 0.250000 0.591324
O O4 0.250000 0.250000 0.750000
O O5 0.320030 0.374557 0.822585
O O6 0.115317 0.250000 0.806832
O O7 0.125382 0.923170 0.706501
O O8 0.000000 0.116818 0.747596
O O9 0.170382 0.579619 0.625000
#
# Coordination Sequence:
#
# PCOD9573349 Si02
#       5
#    16  16  16  32   8
#     4  12  27  48  73  99 141 196 250 291 346 432
#     4  12  19  40  72 102 137 182 241 298 349 433
#     4  12  24  45  73 104 142 195 241 287 353 445
#     4  12  26  44  72 111 148 184 234 305 370 422
#     4  12  20  38  73 106 132 176 244 296 352 420
#
# _framework density 24.789380999999999
#
# number of rings (size 3 to 8) (size 9 to 14) (size 15 to 20)
#    0.000    0.000    7.273    2.182    2.545    2.909 
#    0.000    1.818    0.000    0.000    0.000    0.000 
#    0.000    0.000    0.000    0.000    0.000    0.000 
#
# Total GULP energy -245106.158868 kJ/mol
# GULP energy per Si atom -5570.594520 kJ/mol
# Density = 2.473296 g / cm^3
# Si number density = 24.789381 Si / 1000 Ang^3
#
#
#
# Elastic Constant Matrix: (Units=GPa)
#
#
# Indices 1 2 3 4 5 6 
#
# 1 79.3005 -7.8517 -9.1999 0.0000 0.0000 0.0000
# 2 -7.8517 79.3010 -9.1998 0.0000 0.0000 0.0000
# 3 -9.1999 -9.1998 111.7069 0.0000 0.0000 0.0000
# 4 0.0000 0.0000 0.0000 2.9708 0.0000 0.0000
# 5 0.0000 0.0000 0.0000 0.0000 2.9707 0.0000
# 6 0.0000 0.0000 0.0000 0.0000 0.0000 -29.7168
#
#
#
# Elastic Compliance Matrix: (Units=1/GPa)
#
#
# Indices 1 2 3 4 5 6 
#
# 1 0.012887 0.001413 0.001178 0.000000 0.000000 0.000000
# 2 0.001413 0.012887 0.001178 0.000000 0.000000 0.000000
# 3 0.001178 0.001178 0.009146 0.000000 0.000000 0.000000
# 4 0.000000 0.000000 0.000000 0.336606 0.000000 0.000000
# 5 0.000000 0.000000 0.000000 0.000000 0.336619 0.000000
# 6 0.000000 0.000000 0.000000 0.000000 0.000000 -0.033651
#
#
# Mechanical properties :
#
#
# Convention : Reuss Voigt Hill
#
# Bulk Modulus (GPa) = 23.55431 24.20061 23.87746
# Shear Modulus (GPa) = 7.34097 15.01562 11.17829
#
# Velocity S-wave (km/s) = 1.72272 2.46382 2.12582
# Velocity P-wave (km/s) = 3.67143 4.22819 3.95961
#
# Compressibility (1/GPa) = 0.04245507
#
# Stress axis : x y z
#
# Youngs Moduli (GPa) = 77.59915 77.59966 109.33771
#
# Poissons Ratio (x) = -0.10961 -0.12876
# Poissons Ratio (y) = -0.10961 -0.12876
# Poissons Ratio (z) = -0.09139 -0.09138
#
# Static dielectric constant tensor:
#      x y z
#    x 3.494160 0.000000 0.000000 
#    y 0.000000 3.494080 0.000000 
#    z 0.000000 0.000000 1.976330 
# 
# From -- ./inp_files/13794.got.cif
#   From: 2010.05.17/outbox.cif.g08.bks.cpg/sg141_7_cif.got.tgz:13794.got - 2010.05.20 13:30:51.
