data_PCOD9573281
_publ_section_title
;
Structure prediction by ZEFSAII (Michael W. Deem and Ramdas Pophale) SiO2 
 PCOD9573281
Probable space group: I 41/A M D
;
_chemical_formula_sum "Si O2"
_cell_formula_units_Z 132
_cell_length_a 22.969007
_cell_length_b 22.969007
_cell_length_c 13.156254
_cell_angle_alpha 90.000000
_cell_angle_beta 90.000000
_cell_angle_gamma 90.000000
_cell_volume 6940.914422
_symmetry_space_group_name_H-M "I 41/A M D"
_symmetry_group_IT_number 141
_space_group.IT_coordinate_system_code '2'
_symmetry_cell_setting 'tetragonal'
loop_
_space_group_symop_operation_xyz
x,y,z
1/4-y,3/4+x,1/4+z
-x,1/2-y,z
1/4+y,1/4-x,3/4+z
x,-y,-z
-x,1/2+y,-z
1/4+y,3/4+x,1/4-z
1/4-y,1/4-x,3/4-z
-x,-y,-z
3/4+y,1/4-x,3/4-z
x,1/2+y,-z
3/4-y,3/4+x,1/4-z
-x,y,z
x,1/2-y,z
3/4-y,1/4-x,3/4+z
3/4+y,3/4+x,1/4+z
1/2+x,1/2+y,1/2+z
3/4-y,1/4+x,3/4+z
1/2-x,-y,1/2+z
3/4+y,3/4-x,1/4+z
1/2+x,1/2-y,1/2-z
1/2-x,y,1/2-z
3/4+y,1/4+x,3/4-z
3/4-y,3/4-x,1/4-z
1/2-x,1/2-y,1/2-z
1/4+y,3/4-x,1/4-z
1/2+x,y,1/2-z
1/4-y,1/4+x,3/4-z
1/2-x,1/2+y,1/2+z
1/2+x,-y,1/2+z
1/4-y,3/4-x,1/4+z
1/4+y,1/4+x,3/4+z
loop_
_atom_site_type_symbol
_atom_site_label
_atom_site_fract_x
_atom_site_fract_y
_atom_site_fract_z
Si Si1 0.293153 0.750000 0.881998
Si Si2 0.814398 0.875207 0.721131
Si Si3 0.000000 0.750000 0.625000
Si Si4 0.167561 0.750000 0.991849
Si Si5 0.899487 0.358381 0.097752
Si Si6 0.000000 0.650657 0.763784
Si Si7 0.318721 0.250000 0.733331
O O1 0.307698 0.692398 0.815958
O O2 0.227031 0.750000 0.924703
O O3 0.333131 0.750000 0.984094
O O4 0.750000 0.895535 0.750000
O O5 0.841807 0.908194 0.625000
O O6 0.853496 0.884640 0.821835
O O7 0.000000 0.816201 0.660894
O O8 0.132609 0.808794 0.965298
O O9 0.174871 0.750000 0.112480
O O10 0.945003 0.328734 0.173743
O O11 0.942052 0.401160 0.033271
O O12 0.250000 0.250000 0.750000
#
# Coordination Sequence:
#
# PCOD9573281 Si02
#       7
#    16  32   4  16  32  16  16
#     4  12  22  40  70  99 133 174 222 285 342 420
#     4  12  24  42  69 102 138 176 227 280 346 405
#     4  12  20  32  52  88 134 168 200 252 348 404
#     4  12  23  43  69  98 131 179 234 274 351 404
#     4  11  23  42  65  98 135 173 222 280 338 408
#     4  11  21  36  58  94 132 169 205 274 334 407
#     4  11  27  45  69  96 135 184 231 282 336 414
#
# _framework density 19.017666999999999
#
# number of rings (size 3 to 8) (size 9 to 14) (size 15 to 20)
#    0.000    0.485    4.848    5.455    0.000    1.455 
#    0.000    3.636    0.000    0.000    0.000    0.000 
#    0.000    0.000    0.000    0.000    0.000    0.000 
#
# Total GULP energy -367937.264415 kJ/mol
# GULP energy per Si atom -5574.807037 kJ/mol
# Density = 1.897438 g / cm^3
# Si number density = 19.017667 Si / 1000 Ang^3
#
#
#
# Elastic Constant Matrix: (Units=GPa)
#
#
# Indices 1 2 3 4 5 6 
#
# 1 142.0889 53.9619 60.9669 0.0000 0.0000 0.0000
# 2 53.9619 142.0891 60.9687 0.0000 0.0000 0.0000
# 3 60.9669 60.9687 98.4753 0.0000 0.0000 0.0000
# 4 0.0000 0.0000 0.0000 30.9436 0.0000 0.0000
# 5 0.0000 0.0000 0.0000 0.0000 30.9438 0.0000
# 6 0.0000 0.0000 0.0000 0.0000 0.0000 14.6585
#
#
#
# Elastic Compliance Matrix: (Units=1/GPa)
#
#
# Indices 1 2 3 4 5 6 
#
# 1 0.009821 -0.001526 -0.005135 0.000000 0.000000 0.000000
# 2 -0.001526 0.009821 -0.005136 0.000000 0.000000 0.000000
# 3 -0.005135 -0.005136 0.016514 0.000000 0.000000 0.000000
# 4 0.000000 0.000000 0.000000 0.032317 0.000000 0.000000
# 5 0.000000 0.000000 0.000000 0.000000 0.032317 0.000000
# 6 0.000000 0.000000 0.000000 0.000000 0.000000 0.068220
#
#
# Mechanical properties :
#
#
# Convention : Reuss Voigt Hill
#
# Bulk Modulus (GPa) = 79.60841 81.60537 80.60689
# Shear Modulus (GPa) = 25.40776 29.09290 27.25033
#
# Velocity S-wave (km/s) = 3.65911 3.91549 3.78947
# Velocity P-wave (km/s) = 7.73325 7.96523 7.85010
#
# Compressibility (1/GPa) = 0.01256149
#
# Stress axis : x y z
#
# Youngs Moduli (GPa) = 101.82373 101.82175 60.55583
#
# Poissons Ratio (x) = 0.15541 0.31097
# Poissons Ratio (y) = 0.15541 0.31099
# Poissons Ratio (z) = 0.52289 0.52291
#
# Static dielectric constant tensor:
#      x y z
#    x 1.638570 0.000000 0.000000 
#    y 0.000000 1.638570 0.000000 
#    z 0.000000 0.000000 1.689800 
# 
# From -- ./inp_files/6334.got.cif
#   From: 2010.05.17/outbox.cif.g08.bks.cpg/sg141_4_cif.got.tgz:6334.got - 2010.05.20 13:30:51.
