data_PCOD9573438
_publ_section_title
;
Structure prediction by ZEFSAII (Michael W. Deem and Ramdas Pophale) SiO2 
 PCOD9573438
Probable space group: I 41/A C D
;
_chemical_formula_sum "Si O2"
_cell_formula_units_Z 80
_cell_length_a 13.385765
_cell_length_b 13.385765
_cell_length_c 17.395767
_cell_angle_alpha 90.000000
_cell_angle_beta 90.000000
_cell_angle_gamma 90.000000
_cell_volume 3116.950997
_symmetry_space_group_name_H-M "I 41/A C D"
_symmetry_group_IT_number 142
_space_group.IT_coordinate_system_code '2'
_symmetry_cell_setting 'tetragonal'
loop_
_space_group_symop_operation_xyz
x,y,z
1/4-y,3/4+x,1/4+z
-x,1/2-y,z
1/4+y,1/4-x,3/4+z
x,-y,1/2-z
1/2-x,y,-z
3/4+y,1/4+x,1/4-z
1/4-y,1/4-x,1/4-z
-x,-y,-z
3/4+y,1/4-x,3/4-z
x,1/2+y,-z
3/4-y,3/4+x,1/4-z
-x,y,1/2+z
1/2+x,-y,z
1/4-y,3/4-x,3/4+z
3/4+y,3/4+x,3/4+z
1/2+x,1/2+y,1/2+z
3/4-y,1/4+x,3/4+z
1/2-x,-y,1/2+z
3/4+y,3/4-x,1/4+z
1/2+x,1/2-y,-z
-x,1/2+y,1/2-z
1/4+y,3/4+x,3/4-z
3/4-y,3/4-x,3/4-z
1/2-x,1/2-y,1/2-z
1/4+y,3/4-x,1/4-z
1/2+x,y,1/2-z
1/4-y,1/4+x,3/4-z
1/2-x,1/2+y,z
x,1/2-y,1/2+z
3/4-y,1/4-x,1/4+z
1/4+y,1/4+x,1/4+z
loop_
_atom_site_type_symbol
_atom_site_label
_atom_site_fract_x
_atom_site_fract_y
_atom_site_fract_z
Si Si1 0.451393 0.357960 0.292964
Si Si2 0.120284 0.866764 0.615194
Si Si3 0.750000 0.875074 0.500000
O O1 0.500000 0.250000 0.273650
O O2 0.400340 0.349661 0.375000
O O3 0.377232 0.392249 0.225292
O O4 0.549673 0.425686 0.294436
O O5 0.136799 0.749004 0.630078
O O6 0.170986 0.934404 0.680664
#
# Coordination Sequence:
#
# PCOD9573438 Si02
#       3
#    32  32  16
#     4  10  19  33  55  85 115 146 204 252 294 369
#     4   9  15  31  51  80 113 143 189 244 288 364
#     4  10  18  30  58  82 108 164 186 242 320 330
#
# _framework density 25.666107
#
# number of rings (size 3 to 8) (size 9 to 14) (size 15 to 20)
#    0.000    2.400    8.000    0.000    0.000    1.600 
#    0.000    0.000    0.000    9.600   10.400    0.000 
#    0.000    0.000    0.000    0.000    0.000    0.000 
#
# Total GULP energy -223346.828102 kJ/mol
# GULP energy per Si atom -5583.670703 kJ/mol
# Density = 2.560769 g / cm^3
# Si number density = 25.666107 Si / 1000 Ang^3
#
#
#
# Elastic Constant Matrix: (Units=GPa)
#
#
# Indices 1 2 3 4 5 6 
#
# 1 85.0510 13.4890 29.2298 0.0000 0.0000 0.0000
# 2 13.4890 85.0506 29.2294 0.0000 0.0000 0.0000
# 3 29.2298 29.2294 262.3103 0.0000 0.0000 0.0000
# 4 0.0000 0.0000 0.0000 17.8735 0.0000 0.0000
# 5 0.0000 0.0000 0.0000 0.0000 17.8735 0.0000
# 6 0.0000 0.0000 0.0000 0.0000 0.0000 11.7987
#
#
#
# Elastic Compliance Matrix: (Units=1/GPa)
#
#
# Indices 1 2 3 4 5 6 
#
# 1 0.012420 -0.001554 -0.001211 0.000000 0.000000 0.000000
# 2 -0.001554 0.012420 -0.001211 0.000000 0.000000 0.000000
# 3 -0.001211 -0.001211 0.004082 0.000000 0.000000 0.000000
# 4 0.000000 0.000000 0.000000 0.055949 0.000000 0.000000
# 5 0.000000 0.000000 0.000000 0.000000 0.055949 0.000000
# 6 0.000000 0.000000 0.000000 0.000000 0.000000 0.084755
#
#
# Mechanical properties :
#
#
# Convention : Reuss Voigt Hill
#
# Bulk Modulus (GPa) = 47.68324 64.03425 55.85875
# Shear Modulus (GPa) = 20.78859 33.54005 27.16432
#
# Velocity S-wave (km/s) = 2.84907 3.61887 3.25679
# Velocity P-wave (km/s) = 5.42601 6.51650 5.99609
#
# Compressibility (1/GPa) = 0.02097173
#
# Stress axis : x y z
#
# Youngs Moduli (GPa) = 80.51393 80.51360 244.96966
#
# Poissons Ratio (x) = 0.12509 0.29663
# Poissons Ratio (y) = 0.12509 0.29663
# Poissons Ratio (z) = 0.09749 0.09749
#
# Static dielectric constant tensor:
#      x y z
#    x 2.041940 0.000000 0.000000 
#    y 0.000000 2.041940 0.000000 
#    z 0.000000 0.000000 2.084250 
# 
# From -- ./inp_files/6465.got.cif
#   From: 2010.05.17/outbox.cif.g08.bks.cpg/sg142_4_cif.got.tgz:6465.got - 2010.05.20 13:39:18.
