data_PCOD9573282
_publ_section_title
;
Structure prediction by ZEFSAII (Michael W. Deem and Ramdas Pophale) SiO2 
 PCOD9573282
Probable space group: I 41/A M D
;
_chemical_formula_sum "Si O2"
_cell_formula_units_Z 160
_cell_length_a 15.928753
_cell_length_b 15.928753
_cell_length_c 28.337684
_cell_angle_alpha 90.000000
_cell_angle_beta 90.000000
_cell_angle_gamma 90.000000
_cell_volume 7189.983751
_symmetry_space_group_name_H-M "I 41/A M D"
_symmetry_group_IT_number 141
_space_group.IT_coordinate_system_code '2'
_symmetry_cell_setting 'tetragonal'
loop_
_space_group_symop_operation_xyz
x,y,z
1/4-y,3/4+x,1/4+z
-x,1/2-y,z
1/4+y,1/4-x,3/4+z
x,-y,-z
-x,1/2+y,-z
1/4+y,3/4+x,1/4-z
1/4-y,1/4-x,3/4-z
-x,-y,-z
3/4+y,1/4-x,3/4-z
x,1/2+y,-z
3/4-y,3/4+x,1/4-z
-x,y,z
x,1/2-y,z
3/4-y,1/4-x,3/4+z
3/4+y,3/4+x,1/4+z
1/2+x,1/2+y,1/2+z
3/4-y,1/4+x,3/4+z
1/2-x,-y,1/2+z
3/4+y,3/4-x,1/4+z
1/2+x,1/2-y,1/2-z
1/2-x,y,1/2-z
3/4+y,1/4+x,3/4-z
3/4-y,3/4-x,1/4-z
1/2-x,1/2-y,1/2-z
1/4+y,3/4-x,1/4-z
1/2+x,y,1/2-z
1/4-y,1/4+x,3/4-z
1/2-x,1/2+y,1/2+z
1/2+x,-y,1/2+z
1/4-y,3/4-x,1/4+z
1/4+y,1/4+x,3/4+z
loop_
_atom_site_type_symbol
_atom_site_label
_atom_site_fract_x
_atom_site_fract_y
_atom_site_fract_z
Si Si1 0.659361 0.941670 0.073327
Si Si2 0.904834 0.657167 0.737223
Si Si3 0.139379 0.497223 0.676781
Si Si4 0.408172 0.561105 0.338018
Si Si5 0.597016 0.101499 0.494327
O O1 0.605417 0.914775 0.028277
O O2 0.621029 0.979639 0.121563
O O3 0.712829 0.857663 0.082217
O O4 0.729690 0.012647 0.063002
O O5 0.891514 0.750000 0.715534
O O6 0.900962 0.579840 0.700400
O O7 0.000000 0.656499 0.756786
O O8 0.121951 0.410539 0.703165
O O9 0.500000 0.578544 0.357106
O O10 0.341214 0.591214 0.375000
O O11 0.362362 0.643176 0.459531
O O12 0.500000 0.125716 0.487475
O O13 0.598795 0.000000 0.500000
#
# Coordination Sequence:
#
# PCOD9573282 Si02
#       5
#    32  32  32  32  32
#     4  11  22  41  68  99 132 176 232 286 347 426
#     4  11  25  45  71 102 137 180 230 290 360 427
#     4  11  22  42  68  98 135 178 234 287 345 418
#     4  12  23  38  60  92 132 178 226 283 340 411
#     4  11  21  36  59  90 134 183 228 277 341 411
#
# _framework density 22.253177999999998
#
# number of rings (size 3 to 8) (size 9 to 14) (size 15 to 20)
#    0.000    0.800    6.000    1.800    0.000    7.000 
#    0.000    3.000    0.000    4.800    0.000    0.000 
#    0.000    0.000    0.000    0.000    0.000    0.000 
#
# Total GULP energy -446494.950296 kJ/mol
# GULP energy per Si atom -5581.186879 kJ/mol
# Density = 2.220253 g / cm^3
# Si number density = 22.253178 Si / 1000 Ang^3
#
#
#
# Elastic Constant Matrix: (Units=GPa)
#
#
# Indices 1 2 3 4 5 6 
#
# 1 96.5517 24.4058 45.4068 0.0000 0.0000 0.0000
# 2 24.4058 96.5517 45.4068 0.0000 0.0000 0.0000
# 3 45.4068 45.4068 100.6954 0.0000 0.0000 0.0000
# 4 0.0000 0.0000 0.0000 -30.7278 0.0000 0.0000
# 5 0.0000 0.0000 0.0000 0.0000 -30.7278 0.0000
# 6 0.0000 0.0000 0.0000 0.0000 0.0000 13.4584
#
#
#
# Elastic Compliance Matrix: (Units=1/GPa)
#
#
# Indices 1 2 3 4 5 6 
#
# 1 0.013180 -0.000681 -0.005636 0.000000 0.000000 0.000000
# 2 -0.000681 0.013180 -0.005636 0.000000 0.000000 0.000000
# 3 -0.005636 -0.005636 0.015014 0.000000 0.000000 0.000000
# 4 0.000000 0.000000 0.000000 -0.032544 0.000000 0.000000
# 5 0.000000 0.000000 0.000000 0.000000 -0.032544 0.000000
# 6 0.000000 0.000000 0.000000 0.000000 0.000000 0.074303
#
#
# Mechanical properties :
#
#
# Convention : Reuss Voigt Hill
#
# Bulk Modulus (GPa) = 57.25017 58.24861 57.74939
# Shear Modulus (GPa) = 62.25238 2.30586 32.27912
#
# Velocity S-wave (km/s) = 5.29484 1.01904 3.81273
# Velocity P-wave (km/s) = 7.94752 5.25517 6.73720
#
# Compressibility (1/GPa) = 0.01746720
#
# Stress axis : x y z
#
# Youngs Moduli (GPa) = 75.87325 75.87325 66.60448
#
# Poissons Ratio (x) = 0.05166 0.37539
# Poissons Ratio (y) = 0.05166 0.37539
# Poissons Ratio (z) = 0.42764 0.42764
#
# Static dielectric constant tensor:
#      x y z
#    x 1.871380 0.000000 0.000000 
#    y 0.000000 1.871380 0.000000 
#    z 0.000000 0.000000 1.852820 
# 
# From -- ./inp_files/12717.got.cif
#   From: 2010.05.17/outbox.cif.g08.bks.cpg/sg141_7_cif.got.tgz:12717.got - 2010.05.20 13:30:51.
