data_PCOD9573795
_publ_section_title
;
Structure prediction by ZEFSAII (Michael W. Deem and Ramdas Pophale) SiO2 
 PCOD9573795
Probable space group: I 41/A C D
;
_chemical_formula_sum "Si O2"
_cell_formula_units_Z 128
_cell_length_a 17.319291
_cell_length_b 17.319291
_cell_length_c 22.460497
_cell_angle_alpha 90.000000
_cell_angle_beta 90.000000
_cell_angle_gamma 90.000000
_cell_volume 6737.202182
_symmetry_space_group_name_H-M "I 41/A C D"
_symmetry_group_IT_number 142
_space_group.IT_coordinate_system_code '2'
_symmetry_cell_setting 'tetragonal'
loop_
_space_group_symop_operation_xyz
x,y,z
1/4-y,3/4+x,1/4+z
-x,1/2-y,z
1/4+y,1/4-x,3/4+z
x,-y,1/2-z
1/2-x,y,-z
3/4+y,1/4+x,1/4-z
1/4-y,1/4-x,1/4-z
-x,-y,-z
3/4+y,1/4-x,3/4-z
x,1/2+y,-z
3/4-y,3/4+x,1/4-z
-x,y,1/2+z
1/2+x,-y,z
1/4-y,3/4-x,3/4+z
3/4+y,3/4+x,3/4+z
1/2+x,1/2+y,1/2+z
3/4-y,1/4+x,3/4+z
1/2-x,-y,1/2+z
3/4+y,3/4-x,1/4+z
1/2+x,1/2-y,-z
-x,1/2+y,1/2-z
1/4+y,3/4+x,3/4-z
3/4-y,3/4-x,3/4-z
1/2-x,1/2-y,1/2-z
1/4+y,3/4-x,1/4-z
1/2+x,y,1/2-z
1/4-y,1/4+x,3/4-z
1/2-x,1/2+y,z
x,1/2-y,1/2+z
3/4-y,1/4-x,1/4+z
1/4+y,1/4+x,1/4+z
loop_
_atom_site_type_symbol
_atom_site_label
_atom_site_fract_x
_atom_site_fract_y
_atom_site_fract_z
Si Si1 0.467072 0.170039 0.440748
Si Si2 0.658115 0.085856 0.726695
Si Si3 0.604315 0.324791 0.636374
Si Si4 0.072856 0.443602 0.510177
O O1 0.500000 0.250000 0.467033
O O2 0.436271 0.186271 0.375000
O O3 0.399181 0.134706 0.481212
O O4 0.540435 0.112962 0.439318
O O5 0.622475 0.097057 0.661611
O O6 0.748953 0.107403 0.726531
O O7 0.645791 0.000000 0.750000
O O8 0.515813 0.353162 0.631247
O O9 0.642016 0.334044 0.701225
O O10 0.000000 0.500000 0.500000
#
# Coordination Sequence:
#
# PCOD9573795 Si02
#       4
#    32  32  32  32
#     4  10  21  41  66  90 127 170 217 271 326 391
#     4  11  25  38  64  97 133 177 219 270 339 396
#     4  11  21  39  69  95 125 174 230 272 320 402
#     4  10  21  40  60  91 134 162 211 277 330 383
#
# _framework density 18.998985000000001
#
# number of rings (size 3 to 8) (size 9 to 14) (size 15 to 20)
#    0.000    1.500    5.000    1.500    7.000    0.000 
#    0.000   10.000    0.000    0.000    0.000    0.000 
#    0.000    0.000    0.000    0.000    0.000    0.000 
#
# Total GULP energy -357172.417859 kJ/mol
# GULP energy per Si atom -5580.819029 kJ/mol
# Density = 1.895574 g / cm^3
# Si number density = 18.998985 Si / 1000 Ang^3
#
#
#
# Elastic Constant Matrix: (Units=GPa)
#
#
# Indices 1 2 3 4 5 6 
#
# 1 95.2694 51.4800 36.9120 0.0000 0.0000 0.0000
# 2 51.4800 95.2693 36.9120 0.0000 0.0000 0.0000
# 3 36.9120 36.9120 117.5161 0.0000 0.0000 0.0000
# 4 0.0000 0.0000 0.0000 25.3431 0.0000 0.0000
# 5 0.0000 0.0000 0.0000 0.0000 25.3431 0.0000
# 6 0.0000 0.0000 0.0000 0.0000 0.0000 33.0098
#
#
#
# Elastic Compliance Matrix: (Units=1/GPa)
#
#
# Indices 1 2 3 4 5 6 
#
# 1 0.015465 -0.007372 -0.002542 0.000000 0.000000 0.000000
# 2 -0.007372 0.015465 -0.002542 0.000000 0.000000 0.000000
# 3 -0.002542 -0.002542 0.010106 0.000000 0.000000 0.000000
# 4 0.000000 0.000000 0.000000 0.039458 0.000000 0.000000
# 5 0.000000 0.000000 0.000000 0.000000 0.039458 0.000000
# 6 0.000000 0.000000 0.000000 0.000000 0.000000 0.030294
#
#
# Mechanical properties :
#
#
# Convention : Reuss Voigt Hill
#
# Bulk Modulus (GPa) = 62.01771 62.07367 62.04569
# Shear Modulus (GPa) = 27.69565 28.92258 28.30912
#
# Velocity S-wave (km/s) = 3.82218 3.90593 3.86428
# Velocity P-wave (km/s) = 7.22442 7.28593 7.25524
#
# Compressibility (1/GPa) = 0.01612443
#
# Stress axis : x y z
#
# Youngs Moduli (GPa) = 64.66259 64.66259 98.94710
#
# Poissons Ratio (x) = 0.47668 0.25153
# Poissons Ratio (y) = 0.47668 0.25153
# Poissons Ratio (z) = 0.16438 0.16438
#
# Static dielectric constant tensor:
#      x y z
#    x 1.682810 0.000000 0.000000 
#    y 0.000000 1.682810 0.000000 
#    z 0.000000 0.000000 1.661520 
# 
# From -- ./inp_files/9975.got.cif
#   From: 2010.05.17/outbox.cif.g08.bks.cpg/sg142_5_cif.got.tgz:9975.got - 2010.05.20 13:39:18.
