data_PCOD9573873
_publ_section_title
;
Structure prediction by ZEFSAII (Michael W. Deem and Ramdas Pophale) SiO2 
 PCOD9573873
Probable space group: I 41/A C D
;
_chemical_formula_sum "Si O2"
_cell_formula_units_Z 160
_cell_length_a 17.959828
_cell_length_b 17.959828
_cell_length_c 23.815115
_cell_angle_alpha 90.000000
_cell_angle_beta 90.000000
_cell_angle_gamma 90.000000
_cell_volume 7681.694464
_symmetry_space_group_name_H-M "I 41/A C D"
_symmetry_group_IT_number 142
_space_group.IT_coordinate_system_code '2'
_symmetry_cell_setting 'tetragonal'
loop_
_space_group_symop_operation_xyz
x,y,z
1/4-y,3/4+x,1/4+z
-x,1/2-y,z
1/4+y,1/4-x,3/4+z
x,-y,1/2-z
1/2-x,y,-z
3/4+y,1/4+x,1/4-z
1/4-y,1/4-x,1/4-z
-x,-y,-z
3/4+y,1/4-x,3/4-z
x,1/2+y,-z
3/4-y,3/4+x,1/4-z
-x,y,1/2+z
1/2+x,-y,z
1/4-y,3/4-x,3/4+z
3/4+y,3/4+x,3/4+z
1/2+x,1/2+y,1/2+z
3/4-y,1/4+x,3/4+z
1/2-x,-y,1/2+z
3/4+y,3/4-x,1/4+z
1/2+x,1/2-y,-z
-x,1/2+y,1/2-z
1/4+y,3/4+x,3/4-z
3/4-y,3/4-x,3/4-z
1/2-x,1/2-y,1/2-z
1/4+y,3/4-x,1/4-z
1/2+x,y,1/2-z
1/4-y,1/4+x,3/4-z
1/2-x,1/2+y,z
x,1/2-y,1/2+z
3/4-y,1/4-x,1/4+z
1/4+y,1/4+x,1/4+z
loop_
_atom_site_type_symbol
_atom_site_label
_atom_site_fract_x
_atom_site_fract_y
_atom_site_fract_z
Si Si1 0.555875 0.641383 0.565240
Si Si2 0.978681 0.867705 0.625726
Si Si3 0.122739 0.380177 0.059603
Si Si4 0.076330 0.980968 0.032364
Si Si5 0.830403 0.764084 0.003455
O O1 0.571936 0.678065 0.625000
O O2 0.466459 0.638922 0.557451
O O3 0.591437 0.558729 0.563047
O O4 0.600596 0.687943 0.519026
O O5 0.922762 0.802853 0.645320
O O6 0.941236 0.918125 0.578449
O O7 0.002888 0.910502 0.681216
O O8 0.142581 0.392581 0.125000
O O9 0.130256 0.448810 0.015962
O O10 0.167002 0.310366 0.034197
O O11 0.000000 0.000000 0.000000
O O12 0.750000 0.802457 0.000000
#
# Coordination Sequence:
#
# PCOD9573873 Si02
#       5
#    32  32  32  32  32
#     4  11  22  40  69  98 128 171 224 277 326 392
#     4  11  22  38  63  93 126 160 210 271 326 387
#     4  11  22  41  68  97 126 169 230 281 319 389
#     4  10  22  40  64  95 132 167 214 271 343 385
#     4  12  25  40  61  96 132 167 217 268 329 386
#
# _framework density 20.828738000000001
#
# number of rings (size 3 to 8) (size 9 to 14) (size 15 to 20)
#    0.000    1.000    4.000    4.200    5.600    0.000 
#    0.000    1.000    0.000    4.800    0.000    0.000 
#    0.000    0.000    0.000    0.000    0.000    0.000 
#
# Total GULP energy -446573.572001 kJ/mol
# GULP energy per Si atom -5582.169650 kJ/mol
# Density = 2.078133 g / cm^3
# Si number density = 20.828738 Si / 1000 Ang^3
#
#
#
# Elastic Constant Matrix: (Units=GPa)
#
#
# Indices 1 2 3 4 5 6 
#
# 1 56.4395 -10.0668 11.8255 0.0000 0.0000 0.0000
# 2 -10.0668 56.4390 11.8250 0.0000 0.0000 0.0000
# 3 11.8255 11.8250 131.2815 0.0000 0.0000 0.0000
# 4 0.0000 0.0000 0.0000 15.3711 0.0000 0.0000
# 5 0.0000 0.0000 0.0000 0.0000 15.3722 0.0000
# 6 0.0000 0.0000 0.0000 0.0000 0.0000 7.6013
#
#
#
# Elastic Compliance Matrix: (Units=1/GPa)
#
#
# Indices 1 2 3 4 5 6 
#
# 1 0.018819 0.003783 -0.002036 0.000000 0.000000 0.000000
# 2 0.003783 0.018820 -0.002036 0.000000 0.000000 0.000000
# 3 -0.002036 -0.002036 0.007984 0.000000 0.000000 0.000000
# 4 0.000000 0.000000 0.000000 0.065057 0.000000 0.000000
# 5 0.000000 0.000000 0.000000 0.000000 0.065053 0.000000
# 6 0.000000 0.000000 0.000000 0.000000 0.000000 0.131557
#
#
# Mechanical properties :
#
#
# Convention : Reuss Voigt Hill
#
# Bulk Modulus (GPa) = 22.19955 30.14749 26.17352
# Shear Modulus (GPa) = 15.48551 23.04066 19.26308
#
# Velocity S-wave (km/s) = 2.72962 3.32956 3.04440
# Velocity P-wave (km/s) = 4.54045 5.41172 4.99512
#
# Compressibility (1/GPa) = 0.04504595
#
# Stress axis : x y z
#
# Youngs Moduli (GPa) = 53.13640 53.13594 125.25050
#
# Poissons Ratio (x) = -0.20103 0.25501
# Poissons Ratio (y) = -0.20103 0.25500
# Poissons Ratio (z) = 0.10819 0.10818
#
# Static dielectric constant tensor:
#      x y z
#    x 1.788080 0.000000 0.000000 
#    y 0.000000 1.788080 0.000000 
#    z 0.000000 0.000000 1.648170 
# 
# From -- ./inp_files/11265.got.cif
#   From: 2010.05.17/outbox.cif.g08.bks.cpg/sg142_6_cif.got.tgz:11265.got - 2010.05.20 13:39:18.
