data_PCOD9573130
_publ_section_title
;
Structure prediction by ZEFSAII (Michael W. Deem and Ramdas Pophale) SiO2 
 PCOD9573130
Probable space group: I 41/A M D
;
_chemical_formula_sum "Si O2"
_cell_formula_units_Z 68
_cell_length_a 14.755325
_cell_length_b 14.755325
_cell_length_c 16.294630
_cell_angle_alpha 90.000000
_cell_angle_beta 90.000000
_cell_angle_gamma 90.000000
_cell_volume 3547.660584
_symmetry_space_group_name_H-M "I 41/A M D"
_symmetry_group_IT_number 141
_space_group.IT_coordinate_system_code '2'
_symmetry_cell_setting 'tetragonal'
loop_
_space_group_symop_operation_xyz
x,y,z
1/4-y,3/4+x,1/4+z
-x,1/2-y,z
1/4+y,1/4-x,3/4+z
x,-y,-z
-x,1/2+y,-z
1/4+y,3/4+x,1/4-z
1/4-y,1/4-x,3/4-z
-x,-y,-z
3/4+y,1/4-x,3/4-z
x,1/2+y,-z
3/4-y,3/4+x,1/4-z
-x,y,z
x,1/2-y,z
3/4-y,1/4-x,3/4+z
3/4+y,3/4+x,1/4+z
1/2+x,1/2+y,1/2+z
3/4-y,1/4+x,3/4+z
1/2-x,-y,1/2+z
3/4+y,3/4-x,1/4+z
1/2+x,1/2-y,1/2-z
1/2-x,y,1/2-z
3/4+y,1/4+x,3/4-z
3/4-y,3/4-x,1/4-z
1/2-x,1/2-y,1/2-z
1/4+y,3/4-x,1/4-z
1/2+x,y,1/2-z
1/4-y,1/4+x,3/4-z
1/2-x,1/2+y,1/2+z
1/2+x,-y,1/2+z
1/4-y,3/4-x,1/4+z
1/4+y,1/4+x,3/4+z
loop_
_atom_site_type_symbol
_atom_site_label
_atom_site_fract_x
_atom_site_fract_y
_atom_site_fract_z
Si Si1 0.250000 0.418858 0.250000
Si Si2 0.103467 0.750000 0.284505
Si Si3 0.605216 0.946816 0.175665
Si Si4 0.500000 0.750000 0.375000
O O1 0.276118 0.362571 0.330393
O O2 0.334218 0.482931 0.225916
O O3 0.143808 0.654789 0.311520
O O4 0.000000 0.750000 0.320429
O O5 0.085023 0.750000 0.186565
O O6 0.500000 0.947636 0.202347
#
# Coordination Sequence:
#
# PCOD9573130 Si02
#       4
#    16  16  32   4
#     4  10  23  37  60  92 118 162 201 240 315 340
#     4   8  18  35  59  84 116 158 197 238 305 350
#     4  10  21  40  59  88 123 159 202 254 291 366
#     4   8  16  32  52  92 108 142 204 236 304 352
#
# _framework density 19.167559000000001
#
# number of rings (size 3 to 8) (size 9 to 14) (size 15 to 20)
#    0.706    1.882    0.000    0.706    3.294    4.706 
#    0.000    0.000    0.000    2.824    0.000    0.000 
#    0.000    0.000    0.000    0.000    0.000    0.000 
#
# Total GULP energy -189451.275944 kJ/mol
# GULP energy per Si atom -5572.096351 kJ/mol
# Density = 1.912393 g / cm^3
# Si number density = 19.167559 Si / 1000 Ang^3
#
#
#
# Elastic Constant Matrix: (Units=GPa)
#
#
# Indices 1 2 3 4 5 6 
#
# 1 74.0408 24.5064 13.1339 0.0000 0.0000 0.0000
# 2 24.5064 74.0408 13.1339 0.0000 0.0000 0.0000
# 3 13.1339 13.1339 60.5759 0.0000 0.0000 0.0000
# 4 0.0000 0.0000 0.0000 2.6134 0.0000 0.0000
# 5 0.0000 0.0000 0.0000 0.0000 2.6134 0.0000
# 6 0.0000 0.0000 0.0000 0.0000 0.0000 16.1374
#
#
#
# Elastic Compliance Matrix: (Units=1/GPa)
#
#
# Indices 1 2 3 4 5 6 
#
# 1 0.015479 -0.004709 -0.002335 0.000000 0.000000 0.000000
# 2 -0.004709 0.015479 -0.002335 0.000000 0.000000 0.000000
# 3 -0.002335 -0.002335 0.017521 0.000000 0.000000 0.000000
# 4 0.000000 0.000000 0.000000 0.382646 0.000000 0.000000
# 5 0.000000 0.000000 0.000000 0.000000 0.382647 0.000000
# 6 0.000000 0.000000 0.000000 0.000000 0.000000 0.061968
#
#
# Mechanical properties :
#
#
# Convention : Reuss Voigt Hill
#
# Bulk Modulus (GPa) = 33.64721 34.46729 34.05725
# Shear Modulus (GPa) = 5.52850 14.79839 10.16345
#
# Velocity S-wave (km/s) = 1.70017 2.78160 2.30520
# Velocity P-wave (km/s) = 4.63103 5.32330 4.98919
#
# Compressibility (1/GPa) = 0.02972014
#
# Stress axis : x y z
#
# Youngs Moduli (GPa) = 64.60399 64.60399 57.07511
#
# Poissons Ratio (x) = 0.30423 0.13327
# Poissons Ratio (y) = 0.30423 0.13327
# Poissons Ratio (z) = 0.15086 0.15086
#
# Static dielectric constant tensor:
#      x y z
#    x 1.687730 0.000000 0.000000 
#    y 0.000000 1.687730 0.000000 
#    z 0.000000 0.000000 1.646380 
# 
# From -- ./inp_files/5688.got.cif
#   From: 2010.05.17/outbox.cif.g08.bks.cpg/sg141_3_cif.got.tgz:5688.got - 2010.05.20 13:30:51.
