data_PCOD9573148
_publ_section_title
;
Structure prediction by ZEFSAII (Michael W. Deem and Ramdas Pophale) SiO2 
 PCOD9573148
Probable space group: I 41/A M D
;
_chemical_formula_sum "Si O2"
_cell_formula_units_Z 128
_cell_length_a 20.744029
_cell_length_b 20.744029
_cell_length_c 13.983541
_cell_angle_alpha 90.000000
_cell_angle_beta 90.000000
_cell_angle_gamma 90.000000
_cell_volume 6017.323798
_symmetry_space_group_name_H-M "I 41/A M D"
_symmetry_group_IT_number 141
_space_group.IT_coordinate_system_code '2'
_symmetry_cell_setting 'tetragonal'
loop_
_space_group_symop_operation_xyz
x,y,z
1/4-y,3/4+x,1/4+z
-x,1/2-y,z
1/4+y,1/4-x,3/4+z
x,-y,-z
-x,1/2+y,-z
1/4+y,3/4+x,1/4-z
1/4-y,1/4-x,3/4-z
-x,-y,-z
3/4+y,1/4-x,3/4-z
x,1/2+y,-z
3/4-y,3/4+x,1/4-z
-x,y,z
x,1/2-y,z
3/4-y,1/4-x,3/4+z
3/4+y,3/4+x,1/4+z
1/2+x,1/2+y,1/2+z
3/4-y,1/4+x,3/4+z
1/2-x,-y,1/2+z
3/4+y,3/4-x,1/4+z
1/2+x,1/2-y,1/2-z
1/2-x,y,1/2-z
3/4+y,1/4+x,3/4-z
3/4-y,3/4-x,1/4-z
1/2-x,1/2-y,1/2-z
1/4+y,3/4-x,1/4-z
1/2+x,y,1/2-z
1/4-y,1/4+x,3/4-z
1/2-x,1/2+y,1/2+z
1/2+x,-y,1/2+z
1/4-y,3/4-x,1/4+z
1/4+y,1/4+x,3/4+z
loop_
_atom_site_type_symbol
_atom_site_label
_atom_site_fract_x
_atom_site_fract_y
_atom_site_fract_z
Si Si1 0.000000 0.153702 0.331683
Si Si2 0.372627 0.608006 0.125535
Si Si3 0.500000 0.623771 0.622834
Si Si4 0.774796 0.885890 0.062957
Si Si5 0.824934 0.250000 0.247511
Si Si6 0.000000 0.018540 0.888608
O O1 0.060995 0.189006 0.375000
O O2 0.000000 0.163841 0.219813
O O3 0.000000 0.088402 0.388634
O O4 0.381362 0.679744 0.173498
O O5 0.365664 0.553591 0.206526
O O6 0.303198 0.609412 0.070991
O O7 0.435047 0.597947 0.058187
O O8 0.500000 0.550820 0.662418
O O9 0.807070 0.942931 0.125000
O O10 0.797952 0.818039 0.110230
O O11 0.750000 0.250000 0.250000
O O12 0.000000 0.000000 0.000000
#
# Coordination Sequence:
#
# PCOD9573148 Si02
#       6
#    16  32  16  32  16  16
#     4  11  22  41  66  94 124 174 222 268 339 417
#     4  11  25  43  67  99 134 176 226 286 336 417
#     4  10  21  42  68  94 126 169 227 279 338 402
#     4  11  23  43  70  98 132 176 227 275 352 408
#     4  12  28  39  63  97 137 178 221 273 340 404
#     4  10  21  40  69  99 130 172 221 281 334 405
#
# _framework density 21.271915
#
# number of rings (size 3 to 8) (size 9 to 14) (size 15 to 20)
#    0.000    1.125    2.500    4.500    7.000    2.500 
#    0.000    0.000    0.000    1.875    0.000    1.750 
#    0.000    0.000    0.000    0.000    0.000    0.000 
#
# Total GULP energy -356473.465488 kJ/mol
# GULP energy per Si atom -5569.897898 kJ/mol
# Density = 2.122350 g / cm^3
# Si number density = 21.271915 Si / 1000 Ang^3
#
#
#
# Elastic Constant Matrix: (Units=GPa)
#
#
# Indices 1 2 3 4 5 6 
#
# 1 137.5904 21.7389 25.4160 0.0000 0.0000 0.0000
# 2 21.7389 137.5910 25.4161 0.0000 0.0000 0.0000
# 3 25.4160 25.4161 93.5474 0.0000 0.0000 0.0000
# 4 0.0000 0.0000 0.0000 27.3189 0.0000 0.0000
# 5 0.0000 0.0000 0.0000 0.0000 27.3204 0.0000
# 6 0.0000 0.0000 0.0000 0.0000 0.0000 25.2765
#
#
#
# Elastic Compliance Matrix: (Units=1/GPa)
#
#
# Indices 1 2 3 4 5 6 
#
# 1 0.007752 -0.000880 -0.001867 0.000000 0.000000 0.000000
# 2 -0.000880 0.007752 -0.001867 0.000000 0.000000 0.000000
# 3 -0.001867 -0.001867 0.011704 0.000000 0.000000 0.000000
# 4 0.000000 0.000000 0.000000 0.036605 0.000000 0.000000
# 5 0.000000 0.000000 0.000000 0.000000 0.036603 0.000000
# 6 0.000000 0.000000 0.000000 0.000000 0.000000 0.039562
#
#
# Mechanical properties :
#
#
# Convention : Reuss Voigt Hill
#
# Bulk Modulus (GPa) = 55.61738 57.09677 56.35707
# Shear Modulus (GPa) = 32.21666 35.72699 33.97182
#
# Velocity S-wave (km/s) = 3.89590 4.10266 4.00062
# Velocity P-wave (km/s) = 6.81469 7.02439 6.92034
#
# Compressibility (1/GPa) = 0.01797999
#
# Stress axis : x y z
#
# Youngs Moduli (GPa) = 129.00138 129.00196 85.43871
#
# Poissons Ratio (x) = 0.11351 0.15952
# Poissons Ratio (y) = 0.11351 0.15952
# Poissons Ratio (z) = 0.24085 0.24085
#
# Static dielectric constant tensor:
#      x y z
#    x 1.860410 0.000000 0.000000 
#    y 0.000000 1.860410 0.000000 
#    z 0.000000 0.000000 1.842540 
# 
# From -- ./inp_files/6275.got.cif
#   From: 2010.05.17/outbox.cif.g08.bks.cpg/sg141_4_cif.got.tgz:6275.got - 2010.05.20 13:30:51.
