data_PCOD9573450
_publ_section_title
;
Structure prediction by ZEFSAII (Michael W. Deem and Ramdas Pophale) SiO2 
 PCOD9573450
Probable space group: I 41/A C D
;
_chemical_formula_sum "Si O2"
_cell_formula_units_Z 192
_cell_length_a 29.628597
_cell_length_b 29.628597
_cell_length_c 13.677661
_cell_angle_alpha 90.000000
_cell_angle_beta 90.000000
_cell_angle_gamma 90.000000
_cell_volume 12006.986139
_symmetry_space_group_name_H-M "I 41/A C D"
_symmetry_group_IT_number 142
_space_group.IT_coordinate_system_code '2'
_symmetry_cell_setting 'tetragonal'
loop_
_space_group_symop_operation_xyz
x,y,z
1/4-y,3/4+x,1/4+z
-x,1/2-y,z
1/4+y,1/4-x,3/4+z
x,-y,1/2-z
1/2-x,y,-z
3/4+y,1/4+x,1/4-z
1/4-y,1/4-x,1/4-z
-x,-y,-z
3/4+y,1/4-x,3/4-z
x,1/2+y,-z
3/4-y,3/4+x,1/4-z
-x,y,1/2+z
1/2+x,-y,z
1/4-y,3/4-x,3/4+z
3/4+y,3/4+x,3/4+z
1/2+x,1/2+y,1/2+z
3/4-y,1/4+x,3/4+z
1/2-x,-y,1/2+z
3/4+y,3/4-x,1/4+z
1/2+x,1/2-y,-z
-x,1/2+y,1/2-z
1/4+y,3/4+x,3/4-z
3/4-y,3/4-x,3/4-z
1/2-x,1/2-y,1/2-z
1/4+y,3/4-x,1/4-z
1/2+x,y,1/2-z
1/4-y,1/4+x,3/4-z
1/2-x,1/2+y,z
x,1/2-y,1/2+z
3/4-y,1/4-x,1/4+z
1/4+y,1/4+x,1/4+z
loop_
_atom_site_type_symbol
_atom_site_label
_atom_site_fract_x
_atom_site_fract_y
_atom_site_fract_z
Si Si1 0.326965 0.101028 0.765133
Si Si2 0.049180 0.049932 0.968728
Si Si3 0.135174 0.085005 0.428040
Si Si4 0.193005 0.702423 0.288939
Si Si5 0.082961 0.552113 0.244013
Si Si6 0.697809 0.985359 0.529137
O O1 0.333645 0.083645 0.875000
O O2 0.320119 0.154786 0.761945
O O3 0.366594 0.089319 0.689029
O O4 0.283042 0.077576 0.715297
O O5 0.051023 0.054674 0.850971
O O6 0.050910 0.996218 0.987276
O O7 0.003429 0.070042 0.012458
O O8 0.086683 0.081181 0.477820
O O9 0.163281 0.127000 0.471674
O O10 0.165842 0.042041 0.456238
O O11 0.188221 0.691029 0.403511
O O12 0.100387 0.500000 0.250000
O O13 0.750000 0.993413 0.500000
O O14 0.704267 0.954267 0.625000
#
# Coordination Sequence:
#
# PCOD9573450 Si02
#       6
#    32  32  32  32  32  32
#     4  11  24  37  48  71 110 140 177 217 264 316
#     4   9  20  35  49  72 101 137 176 218 262 312
#     4  11  21  32  51  76  99 136 182 217 258 305
#     4  10  18  33  54  73  98 135 183 218 260 306
#     4   9  18  32  50  74 104 133 170 222 263 307
#     4  12  21  32  48  70 101 142 175 211 248 294
#
# _framework density 15.990691
#
# number of rings (size 3 to 8) (size 9 to 14) (size 15 to 20)
#    0.000    1.667    3.333    2.500    2.333    1.333 
#    0.000    1.667    0.000    0.000    0.000    0.000 
#    0.000   34.667    0.000    0.000    0.000    0.000 
#
# Total GULP energy -535240.133318 kJ/mol
# GULP energy per Si atom -5575.418055 kJ/mol
# Density = 1.595430 g / cm^3
# Si number density = 15.990691 Si / 1000 Ang^3
#
#
#
# Elastic Constant Matrix: (Units=GPa)
#
#
# Indices 1 2 3 4 5 6 
#
# 1 60.0428 19.4078 21.0329 0.0000 0.0000 0.0000
# 2 19.4078 60.0428 21.0329 0.0000 0.0000 0.0000
# 3 21.0329 21.0329 83.6401 0.0000 0.0000 0.0000
# 4 0.0000 0.0000 0.0000 14.3742 0.0000 0.0000
# 5 0.0000 0.0000 0.0000 0.0000 14.3742 0.0000
# 6 0.0000 0.0000 0.0000 0.0000 0.0000 10.7169
#
#
#
# Elastic Compliance Matrix: (Units=1/GPa)
#
#
# Indices 1 2 3 4 5 6 
#
# 1 0.019564 -0.005045 -0.003651 0.000000 0.000000 0.000000
# 2 -0.005045 0.019564 -0.003651 0.000000 0.000000 0.000000
# 3 -0.003651 -0.003651 0.013792 0.000000 0.000000 0.000000
# 4 0.000000 0.000000 0.000000 0.069569 0.000000 0.000000
# 5 0.000000 0.000000 0.000000 0.000000 0.069569 0.000000
# 6 0.000000 0.000000 0.000000 0.000000 0.000000 0.093311
#
#
# Mechanical properties :
#
#
# Convention : Reuss Voigt Hill
#
# Bulk Modulus (GPa) = 35.42754 36.29698 35.86226
# Shear Modulus (GPa) = 15.65075 17.37654 16.51364
#
# Velocity S-wave (km/s) = 3.13188 3.30004 3.21706
# Velocity P-wave (km/s) = 5.93982 6.10479 6.02287
#
# Compressibility (1/GPa) = 0.02822663
#
# Stress axis : x y z
#
# Youngs Moduli (GPa) = 51.11304 51.11304 72.50407
#
# Poissons Ratio (x) = 0.25786 0.26473
# Poissons Ratio (y) = 0.25786 0.26473
# Poissons Ratio (z) = 0.18663 0.18663
#
# Static dielectric constant tensor:
#      x y z
#    x 1.526350 0.000000 0.000000 
#    y 0.000000 1.526350 0.000000 
#    z 0.000000 0.000000 1.588770 
# 
# From -- ./inp_files/5830.got.cif
#   From: 2010.05.17/outbox.cif.g08.bks.cpg/sg142_3_cif.got.tgz:5830.got - 2010.05.20 13:39:18.
