data_PCOD9573639
_publ_section_title
;
Structure prediction by ZEFSAII (Michael W. Deem and Ramdas Pophale) SiO2 
 PCOD9573639
Probable space group: I 41/A C D
;
_chemical_formula_sum "Si O2"
_cell_formula_units_Z 96
_cell_length_a 22.888616
_cell_length_b 22.888616
_cell_length_c 8.599549
_cell_angle_alpha 90.000000
_cell_angle_beta 90.000000
_cell_angle_gamma 90.000000
_cell_volume 4505.206911
_symmetry_space_group_name_H-M "I 41/A C D"
_symmetry_group_IT_number 142
_space_group.IT_coordinate_system_code '2'
_symmetry_cell_setting 'tetragonal'
loop_
_space_group_symop_operation_xyz
x,y,z
1/4-y,3/4+x,1/4+z
-x,1/2-y,z
1/4+y,1/4-x,3/4+z
x,-y,1/2-z
1/2-x,y,-z
3/4+y,1/4+x,1/4-z
1/4-y,1/4-x,1/4-z
-x,-y,-z
3/4+y,1/4-x,3/4-z
x,1/2+y,-z
3/4-y,3/4+x,1/4-z
-x,y,1/2+z
1/2+x,-y,z
1/4-y,3/4-x,3/4+z
3/4+y,3/4+x,3/4+z
1/2+x,1/2+y,1/2+z
3/4-y,1/4+x,3/4+z
1/2-x,-y,1/2+z
3/4+y,3/4-x,1/4+z
1/2+x,1/2-y,-z
-x,1/2+y,1/2-z
1/4+y,3/4+x,3/4-z
3/4-y,3/4-x,3/4-z
1/2-x,1/2-y,1/2-z
1/4+y,3/4-x,1/4-z
1/2+x,y,1/2-z
1/4-y,1/4+x,3/4-z
1/2-x,1/2+y,z
x,1/2-y,1/2+z
3/4-y,1/4-x,1/4+z
1/4+y,1/4+x,1/4+z
loop_
_atom_site_type_symbol
_atom_site_label
_atom_site_fract_x
_atom_site_fract_y
_atom_site_fract_z
Si Si1 0.683545 0.231707 0.211790
Si Si2 0.632386 0.933166 0.779710
Si Si3 0.913902 0.929429 0.733750
O O1 0.750000 0.250000 0.250000
O O2 0.683768 0.186151 0.069368
O O3 0.658744 0.195421 0.357538
O O4 0.657168 0.292151 0.151471
O O5 0.648920 0.898920 0.625000
O O6 0.662108 0.900497 0.926341
O O7 0.650897 0.000000 0.750000
O O8 0.913829 0.000000 0.750000
#
# Coordination Sequence:
#
# PCOD9573639 Si02
#       3
#    32  32  32
#     4  10  20  39  63  88 121 173 232 275 318 396
#     4  12  24  38  60  94 135 177 217 271 336 401
#     4  10  20  37  60  89 124 169 221 276 333 391
#
# _framework density 21.308676999999999
#
# number of rings (size 3 to 8) (size 9 to 14) (size 15 to 20)
#    0.000    1.333    0.000   10.000    0.000    1.333 
#    0.000    0.000    0.000    1.000    0.000   16.333 
#    0.000    0.000    0.000    0.000    0.000    0.000 
#
# Total GULP energy -267631.666566 kJ/mol
# GULP energy per Si atom -5575.659720 kJ/mol
# Density = 2.126018 g / cm^3
# Si number density = 21.308677 Si / 1000 Ang^3
#
#
#
# Elastic Constant Matrix: (Units=GPa)
#
#
# Indices 1 2 3 4 5 6 
#
# 1 98.3471 31.5628 44.0823 0.0000 0.0000 0.0000
# 2 31.5628 98.3471 44.0823 0.0000 0.0000 0.0000
# 3 44.0823 44.0823 102.8889 0.0000 0.0000 0.0000
# 4 0.0000 0.0000 0.0000 49.6218 0.0000 0.0000
# 5 0.0000 0.0000 0.0000 0.0000 49.6218 0.0000
# 6 0.0000 0.0000 0.0000 0.0000 0.0000 -18.5104
#
#
#
# Elastic Compliance Matrix: (Units=1/GPa)
#
#
# Indices 1 2 3 4 5 6 
#
# 1 0.012914 -0.002060 -0.004650 0.000000 0.000000 0.000000
# 2 -0.002060 0.012914 -0.004650 0.000000 0.000000 0.000000
# 3 -0.004650 -0.004650 0.013704 0.000000 0.000000 0.000000
# 4 0.000000 0.000000 0.000000 0.020152 0.000000 0.000000
# 5 0.000000 0.000000 0.000000 0.000000 0.020152 0.000000
# 6 0.000000 0.000000 0.000000 0.000000 0.000000 -0.054024
#
#
# Mechanical properties :
#
#
# Convention : Reuss Voigt Hill
#
# Bulk Modulus (GPa) = 59.48716 59.89308 59.69012
# Shear Modulus (GPa) = 92.35972 28.13704 60.24838
#
# Velocity S-wave (km/s) = 6.59074 3.63774 5.32311
# Velocity P-wave (km/s) = 9.26793 6.76850 8.11502
#
# Compressibility (1/GPa) = 0.01681035
#
# Stress axis : x y z
#
# Youngs Moduli (GPa) = 77.43807 77.43807 72.97198
#
# Poissons Ratio (x) = 0.15953 0.33933
# Poissons Ratio (y) = 0.15953 0.33933
# Poissons Ratio (z) = 0.36010 0.36010
#
# Static dielectric constant tensor:
#      x y z
#    x 1.789750 0.000000 0.000000 
#    y 0.000000 1.789750 0.000000 
#    z 0.000000 0.000000 1.918570 
# 
# From -- ./inp_files/1579.got.cif
#   From: 2010.05.17/outbox.cif.g08.bks.cpg/sg142_1_cif.got.tgz:1579.got - 2010.05.20 13:39:18.
