data_PCOD9573581
_publ_section_title
;
Structure prediction by ZEFSAII (Michael W. Deem and Ramdas Pophale) SiO2 
 PCOD9573581
Probable space group: I 41/A C D
;
_chemical_formula_sum "Si O2"
_cell_formula_units_Z 96
_cell_length_a 30.875109
_cell_length_b 30.875109
_cell_length_c 5.268115
_cell_angle_alpha 90.000000
_cell_angle_beta 90.000000
_cell_angle_gamma 90.000000
_cell_volume 5021.948396
_symmetry_space_group_name_H-M "I 41/A C D"
_symmetry_group_IT_number 142
_space_group.IT_coordinate_system_code '2'
_symmetry_cell_setting 'tetragonal'
loop_
_space_group_symop_operation_xyz
x,y,z
1/4-y,3/4+x,1/4+z
-x,1/2-y,z
1/4+y,1/4-x,3/4+z
x,-y,1/2-z
1/2-x,y,-z
3/4+y,1/4+x,1/4-z
1/4-y,1/4-x,1/4-z
-x,-y,-z
3/4+y,1/4-x,3/4-z
x,1/2+y,-z
3/4-y,3/4+x,1/4-z
-x,y,1/2+z
1/2+x,-y,z
1/4-y,3/4-x,3/4+z
3/4+y,3/4+x,3/4+z
1/2+x,1/2+y,1/2+z
3/4-y,1/4+x,3/4+z
1/2-x,-y,1/2+z
3/4+y,3/4-x,1/4+z
1/2+x,1/2-y,-z
-x,1/2+y,1/2-z
1/4+y,3/4+x,3/4-z
3/4-y,3/4-x,3/4-z
1/2-x,1/2-y,1/2-z
1/4+y,3/4-x,1/4-z
1/2+x,y,1/2-z
1/4-y,1/4+x,3/4-z
1/2-x,1/2+y,z
x,1/2-y,1/2+z
3/4-y,1/4-x,1/4+z
1/4+y,1/4+x,1/4+z
loop_
_atom_site_type_symbol
_atom_site_label
_atom_site_fract_x
_atom_site_fract_y
_atom_site_fract_z
Si Si1 0.388771 0.920182 0.497005
Si Si2 0.750000 0.102823 0.500000
Si Si3 0.690184 0.059817 0.875000
Si Si4 0.526551 0.948569 0.737053
O O1 0.375037 0.874964 0.625000
O O2 0.385026 0.959749 0.696937
O O3 0.348629 0.933075 0.321100
O O4 0.431845 0.922474 0.333405
O O5 0.733943 0.070515 0.722866
O O6 0.510011 0.939995 0.452586
O O7 0.537033 0.000000 0.750000
#
# Coordination Sequence:
#
# PCOD9573581 Si02
#       4
#    32  16  16  32
#     4  10  22  36  58  75 109 150 186 231 283 344
#     4  10  20  34  54  74 100 144 190 236 276 328
#     4  10  20  34  56  70 102 142 195 234 278 326
#     4  10  22  35  56  87 116 145 184 235 288 346
#
# _framework density 19.116085999999999
#
# number of rings (size 3 to 8) (size 9 to 14) (size 15 to 20)
#    0.000    2.000    0.000    3.000   16.333    0.000 
#    0.000    0.000  132.000    0.000    0.000    0.000 
#    0.000    4.000    0.000    0.000    0.000    0.000 
#
# Total GULP energy -267835.879019 kJ/mol
# GULP energy per Si atom -5579.914146 kJ/mol
# Density = 1.907258 g / cm^3
# Si number density = 19.116086 Si / 1000 Ang^3
#
#
#
# Elastic Constant Matrix: (Units=GPa)
#
#
# Indices 1 2 3 4 5 6 
#
# 1 55.8592 29.1800 7.5261 0.0000 0.0000 0.0000
# 2 29.1800 55.8612 7.5294 0.0000 0.0000 0.0000
# 3 7.5261 7.5294 62.9060 0.0000 0.0000 0.0000
# 4 0.0000 0.0000 0.0000 27.4967 0.0000 0.0000
# 5 0.0000 0.0000 0.0000 0.0000 27.4964 0.0000
# 6 0.0000 0.0000 0.0000 0.0000 0.0000 20.2844
#
#
#
# Elastic Compliance Matrix: (Units=1/GPa)
#
#
# Indices 1 2 3 4 5 6 
#
# 1 0.024748 -0.012734 -0.001437 0.000000 0.000000 0.000000
# 2 -0.012734 0.024747 -0.001439 0.000000 0.000000 0.000000
# 3 -0.001437 -0.001439 0.016241 0.000000 0.000000 0.000000
# 4 0.000000 0.000000 0.000000 0.036368 0.000000 0.000000
# 5 0.000000 0.000000 0.000000 0.000000 0.036368 0.000000
# 6 0.000000 0.000000 0.000000 0.000000 0.000000 0.049299
#
#
# Mechanical properties :
#
#
# Convention : Reuss Voigt Hill
#
# Bulk Modulus (GPa) = 28.97071 29.23303 29.10187
# Shear Modulus (GPa) = 21.69250 23.74823 22.72037
#
# Velocity S-wave (km/s) = 3.37230 3.52848 3.45127
# Velocity P-wave (km/s) = 5.50920 5.65029 5.58019
#
# Compressibility (1/GPa) = 0.03451762
#
# Stress axis : x y z
#
# Youngs Moduli (GPa) = 40.40795 40.40891 61.57325
#
# Poissons Ratio (x) = 0.51455 0.08846
# Poissons Ratio (y) = 0.51454 0.08858
# Poissons Ratio (z) = 0.05805 0.05813
#
# Static dielectric constant tensor:
#      x y z
#    x 1.684790 0.000000 0.000000 
#    y 0.000000 1.684790 0.000000 
#    z 0.000000 0.000000 1.843650 
# 
# From -- ./inp_files/673.got.cif
#   From: 2010.05.17/outbox.cif.g08.bks.cpg/sg142_1_cif.got.tgz:673.got - 2010.05.20 13:39:18.
