data_PCOD9573984
_publ_section_title
;
Structure prediction by ZEFSAII (Michael W. Deem and Ramdas Pophale) SiO2 
 PCOD9573984
Probable space group: I 41/A C D
;
_chemical_formula_sum "Si O2"
_cell_formula_units_Z 80
_cell_length_a 24.555914
_cell_length_b 24.555914
_cell_length_c 5.576602
_cell_angle_alpha 90.000000
_cell_angle_beta 90.000000
_cell_angle_gamma 90.000000
_cell_volume 3362.651481
_symmetry_space_group_name_H-M "I 41/A C D"
_symmetry_group_IT_number 142
_space_group.IT_coordinate_system_code '2'
_symmetry_cell_setting 'tetragonal'
loop_
_space_group_symop_operation_xyz
x,y,z
1/4-y,3/4+x,1/4+z
-x,1/2-y,z
1/4+y,1/4-x,3/4+z
x,-y,1/2-z
1/2-x,y,-z
3/4+y,1/4+x,1/4-z
1/4-y,1/4-x,1/4-z
-x,-y,-z
3/4+y,1/4-x,3/4-z
x,1/2+y,-z
3/4-y,3/4+x,1/4-z
-x,y,1/2+z
1/2+x,-y,z
1/4-y,3/4-x,3/4+z
3/4+y,3/4+x,3/4+z
1/2+x,1/2+y,1/2+z
3/4-y,1/4+x,3/4+z
1/2-x,-y,1/2+z
3/4+y,3/4-x,1/4+z
1/2+x,1/2-y,-z
-x,1/2+y,1/2-z
1/4+y,3/4+x,3/4-z
3/4-y,3/4-x,3/4-z
1/2-x,1/2-y,1/2-z
1/4+y,3/4-x,1/4-z
1/2+x,y,1/2-z
1/4-y,1/4+x,3/4-z
1/2-x,1/2+y,z
x,1/2-y,1/2+z
3/4-y,1/4-x,1/4+z
1/4+y,1/4+x,1/4+z
loop_
_atom_site_type_symbol
_atom_site_label
_atom_site_fract_x
_atom_site_fract_y
_atom_site_fract_z
Si Si1 0.408989 0.922830 0.999718
Si Si2 0.374914 0.239273 0.932643
Si Si3 0.333090 0.500000 0.250000
O O1 0.431395 0.900873 0.743854
O O2 0.372260 0.974422 0.951305
O O3 0.372489 0.877512 0.125000
O O4 0.465571 0.923190 0.146578
O O5 0.404525 0.257307 0.178152
O O6 0.295139 0.454862 0.375000
#
# Coordination Sequence:
#
# PCOD9573984 Si02
#       3
#    32  32  16
#     4  10  23  43  71  97 145 182 227 305 348 419
#     4   8  20  41  68 107 126 180 240 281 360 423
#     4  12  28  44  64 102 144 198 248 290 372 452
#
# _framework density 23.790749999999999
#
# number of rings (size 3 to 8) (size 9 to 14) (size 15 to 20)
#    2.400    0.000    0.000    1.200    5.600    1.600 
#    0.000    0.000    0.000    3.600    0.000    0.000 
#    0.000    0.000    0.000    0.000    0.000    0.000 
#
# Total GULP energy -222723.971526 kJ/mol
# GULP energy per Si atom -5568.099288 kJ/mol
# Density = 2.373660 g / cm^3
# Si number density = 23.790750 Si / 1000 Ang^3
#
#
#
# Elastic Constant Matrix: (Units=GPa)
#
#
# Indices 1 2 3 4 5 6 
#
# 1 116.9442 67.7676 30.0182 0.0000 0.0000 0.0000
# 2 67.7676 116.9445 30.0219 0.0000 0.0000 0.0000
# 3 30.0182 30.0219 165.1648 0.0000 0.0000 0.0000
# 4 0.0000 0.0000 0.0000 22.5717 0.0000 0.0000
# 5 0.0000 0.0000 0.0000 0.0000 22.5736 0.0000
# 6 0.0000 0.0000 0.0000 0.0000 0.0000 25.5394
#
#
#
# Elastic Compliance Matrix: (Units=1/GPa)
#
#
# Indices 1 2 3 4 5 6 
#
# 1 0.013044 -0.007291 -0.001046 0.000000 0.000000 0.000000
# 2 -0.007291 0.013044 -0.001046 0.000000 0.000000 0.000000
# 3 -0.001046 -0.001046 0.006435 0.000000 0.000000 0.000000
# 4 0.000000 0.000000 0.000000 0.044303 0.000000 0.000000
# 5 0.000000 0.000000 0.000000 0.000000 0.044299 0.000000
# 6 0.000000 0.000000 0.000000 0.000000 0.000000 0.039155
#
#
# Mechanical properties :
#
#
# Convention : Reuss Voigt Hill
#
# Bulk Modulus (GPa) = 72.67927 72.74098 72.71013
# Shear Modulus (GPa) = 27.22841 32.22001 29.72421
#
# Velocity S-wave (km/s) = 3.38671 3.68409 3.53852
# Velocity P-wave (km/s) = 6.77560 6.98129 6.87921
#
# Compressibility (1/GPa) = 0.01375908
#
# Stress axis : x y z
#
# Youngs Moduli (GPa) = 76.66228 76.66152 155.40688
#
# Poissons Ratio (x) = 0.55890 0.16249
# Poissons Ratio (y) = 0.55891 0.16256
# Poissons Ratio (z) = 0.08015 0.08019
#
# Static dielectric constant tensor:
#      x y z
#    x 1.872360 0.000000 0.000000 
#    y 0.000000 1.872360 0.000000 
#    z 0.000000 0.000000 2.006380 
# 
# From -- ./inp_files/612.got.cif
#   From: 2010.05.17/outbox.cif.g08.bks.cpg/sg142_1_cif.got.tgz:612.got - 2010.05.20 13:39:18.
