data_PCOD9573369
_publ_section_title
;
Structure prediction by ZEFSAII (Michael W. Deem and Ramdas Pophale) SiO2 
 PCOD9573369
Probable space group: I 41/A M D
;
_chemical_formula_sum "Si O2"
_cell_formula_units_Z 96
_cell_length_a 14.196147
_cell_length_b 14.196147
_cell_length_c 18.359046
_cell_angle_alpha 90.000000
_cell_angle_beta 90.000000
_cell_angle_gamma 90.000000
_cell_volume 3699.909366
_symmetry_space_group_name_H-M "I 41/A M D"
_symmetry_group_IT_number 141
_space_group.IT_coordinate_system_code '2'
_symmetry_cell_setting 'tetragonal'
loop_
_space_group_symop_operation_xyz
x,y,z
1/4-y,3/4+x,1/4+z
-x,1/2-y,z
1/4+y,1/4-x,3/4+z
x,-y,-z
-x,1/2+y,-z
1/4+y,3/4+x,1/4-z
1/4-y,1/4-x,3/4-z
-x,-y,-z
3/4+y,1/4-x,3/4-z
x,1/2+y,-z
3/4-y,3/4+x,1/4-z
-x,y,z
x,1/2-y,z
3/4-y,1/4-x,3/4+z
3/4+y,3/4+x,1/4+z
1/2+x,1/2+y,1/2+z
3/4-y,1/4+x,3/4+z
1/2-x,-y,1/2+z
3/4+y,3/4-x,1/4+z
1/2+x,1/2-y,1/2-z
1/2-x,y,1/2-z
3/4+y,1/4+x,3/4-z
3/4-y,3/4-x,1/4-z
1/2-x,1/2-y,1/2-z
1/4+y,3/4-x,1/4-z
1/2+x,y,1/2-z
1/4-y,1/4+x,3/4-z
1/2-x,1/2+y,1/2+z
1/2+x,-y,1/2+z
1/4-y,3/4-x,1/4+z
1/4+y,1/4+x,3/4+z
loop_
_atom_site_type_symbol
_atom_site_label
_atom_site_fract_x
_atom_site_fract_y
_atom_site_fract_z
Si Si1 0.608439 0.365249 0.046016
Si Si2 0.888807 0.361366 0.734390
Si Si3 0.771645 0.363608 0.593013
O O1 0.646021 0.396021 0.125000
O O2 0.500000 0.392779 0.040071
O O3 0.611646 0.250000 0.047888
O O4 0.662232 0.394596 0.974184
O O5 0.875046 0.250000 0.747722
O O6 0.824306 0.393052 0.667106
O O7 0.865799 0.419872 0.806640
O O8 0.000000 0.375901 0.716815
O O9 0.773979 0.250000 0.598183
#
# Coordination Sequence:
#
# PCOD9573369 Si02
#       3
#    32  32  32
#     4   8  13  22  38  62  96 139 179 212 257 328
#     4   9  17  29  47  74 108 144 182 226 278 340
#     4   9  16  27  44  68 102 143 182 222 276 339
#
# _framework density 25.946580999999998
#
# number of rings (size 3 to 8) (size 9 to 14) (size 15 to 20)
#    0.000    3.333    0.000    2.000    0.000    4.000 
#    0.000    1.667    0.000    8.000    0.000    4.667 
#    0.000    5.333    0.000    1.333    0.000    0.667 
#
# Total GULP energy -268546.829653 kJ/mol
# GULP energy per Si atom -5594.725618 kJ/mol
# Density = 2.588753 g / cm^3
# Si number density = 25.946581 Si / 1000 Ang^3
#
#
#
# Elastic Constant Matrix: (Units=GPa)
#
#
# Indices 1 2 3 4 5 6 
#
# 1 143.4105 41.1069 89.3341 0.0000 0.0000 0.0000
# 2 41.1069 143.4105 89.3341 0.0000 0.0000 0.0000
# 3 89.3341 89.3341 291.2961 0.0000 0.0000 0.0000
# 4 0.0000 0.0000 0.0000 25.9805 0.0000 0.0000
# 5 0.0000 0.0000 0.0000 0.0000 25.9805 0.0000
# 6 0.0000 0.0000 0.0000 0.0000 0.0000 6.4956
#
#
#
# Elastic Compliance Matrix: (Units=1/GPa)
#
#
# Indices 1 2 3 4 5 6 
#
# 1 0.008742 -0.001033 -0.002364 0.000000 0.000000 0.000000
# 2 -0.001033 0.008742 -0.002364 0.000000 0.000000 0.000000
# 3 -0.002364 -0.002364 0.004883 0.000000 0.000000 0.000000
# 4 0.000000 0.000000 0.000000 0.038490 0.000000 0.000000
# 5 0.000000 0.000000 0.000000 0.000000 0.038490 0.000000
# 6 0.000000 0.000000 0.000000 0.000000 0.000000 0.153950
#
#
# Mechanical properties :
#
#
# Convention : Reuss Voigt Hill
#
# Bulk Modulus (GPa) = 92.21698 113.07417 102.64558
# Shear Modulus (GPa) = 18.62654 35.58079 27.10367
#
# Velocity S-wave (km/s) = 2.68224 3.70714 3.23553
# Velocity P-wave (km/s) = 6.72390 7.87388 7.32150
#
# Compressibility (1/GPa) = 0.01084399
#
# Stress axis : x y z
#
# Youngs Moduli (GPa) = 114.39350 114.39350 204.79383
#
# Poissons Ratio (x) = 0.11818 0.48415
# Poissons Ratio (y) = 0.11818 0.48415
# Poissons Ratio (z) = 0.27044 0.27044
#
# Static dielectric constant tensor:
#      x y z
#    x 2.089410 0.000000 0.000000 
#    y 0.000000 2.089410 0.000000 
#    z 0.000000 0.000000 1.960770 
# 
# From -- ./inp_files/9720.got.cif
#   From: 2010.05.17/outbox.cif.g08.bks.cpg/sg141_5_cif.got.tgz:9720.got - 2010.05.20 13:30:51.
