data_PCOD9573489
_publ_section_title
;
Structure prediction by ZEFSAII (Michael W. Deem and Ramdas Pophale) SiO2 
 PCOD9573489
Probable space group: I 41/A C D
;
_chemical_formula_sum "Si O2"
_cell_formula_units_Z 136
_cell_length_a 21.398515
_cell_length_b 21.398515
_cell_length_c 14.551135
_cell_angle_alpha 90.000000
_cell_angle_beta 90.000000
_cell_angle_gamma 90.000000
_cell_volume 6662.912976
_symmetry_space_group_name_H-M "I 41/A C D"
_symmetry_group_IT_number 142
_space_group.IT_coordinate_system_code '2'
_symmetry_cell_setting 'tetragonal'
loop_
_space_group_symop_operation_xyz
x,y,z
1/4-y,3/4+x,1/4+z
-x,1/2-y,z
1/4+y,1/4-x,3/4+z
x,-y,1/2-z
1/2-x,y,-z
3/4+y,1/4+x,1/4-z
1/4-y,1/4-x,1/4-z
-x,-y,-z
3/4+y,1/4-x,3/4-z
x,1/2+y,-z
3/4-y,3/4+x,1/4-z
-x,y,1/2+z
1/2+x,-y,z
1/4-y,3/4-x,3/4+z
3/4+y,3/4+x,3/4+z
1/2+x,1/2+y,1/2+z
3/4-y,1/4+x,3/4+z
1/2-x,-y,1/2+z
3/4+y,3/4-x,1/4+z
1/2+x,1/2-y,-z
-x,1/2+y,1/2-z
1/4+y,3/4+x,3/4-z
3/4-y,3/4-x,3/4-z
1/2-x,1/2-y,1/2-z
1/4+y,3/4-x,1/4-z
1/2+x,y,1/2-z
1/4-y,1/4+x,3/4-z
1/2-x,1/2+y,z
x,1/2-y,1/2+z
3/4-y,1/4-x,1/4+z
1/4+y,1/4+x,1/4+z
loop_
_atom_site_type_symbol
_atom_site_label
_atom_site_fract_x
_atom_site_fract_y
_atom_site_fract_z
Si Si1 0.607379 0.333132 0.181061
Si Si2 0.005056 0.000000 0.750000
Si Si3 0.958323 0.934971 0.075250
Si Si4 0.000000 0.750000 0.125000
Si Si5 0.546660 0.599237 0.624727
Si Si6 0.588213 0.161788 0.875000
O O1 0.656893 0.278680 0.165409
O O2 0.592703 0.382150 0.101777
O O3 0.541386 0.295424 0.186510
O O4 0.615114 0.365216 0.279799
O O5 0.963159 0.057418 0.714627
O O6 0.044811 0.015915 0.841642
O O7 0.951246 0.945013 0.966445
O O8 0.606353 0.643648 0.625000
O O9 0.484710 0.642885 0.618638
#
# Coordination Sequence:
#
# PCOD9573489 Si02
#       6
#    32  16  32   8  32  16
#     4   9  17  29  46  77 110 148 182 220 274 348
#     4  12  22  38  52  84 120 154 198 250 286 352
#     4  10  20  33  53  78 118 153 190 231 284 345
#     4   8  16  22  40  68 108 142 168 212 246 336
#     4  11  23  36  58  86 118 160 194 240 303 369
#     4  10  19  30  54  84 116 150 188 226 290 372
#
# _framework density 20.411493
#
# number of rings (size 3 to 8) (size 9 to 14) (size 15 to 20)
#    0.000    1.882    2.353    2.471    9.882    0.000 
#    0.000    0.000    0.000    0.000    0.000    6.588 
#    3.529    0.235    0.000    0.000    0.000    0.000 
#
# Total GULP energy -378952.310968 kJ/mol
# GULP energy per Si atom -5572.828102 kJ/mol
# Density = 2.036504 g / cm^3
# Si number density = 20.411493 Si / 1000 Ang^3
#
#
#
# Elastic Constant Matrix: (Units=GPa)
#
#
# Indices 1 2 3 4 5 6 
#
# 1 43.8780 16.8659 13.4626 0.0000 0.0000 0.0000
# 2 16.8659 43.8809 13.4625 0.0000 0.0000 0.0000
# 3 13.4626 13.4625 151.1038 0.0000 0.0000 0.0000
# 4 0.0000 0.0000 0.0000 28.3349 0.0000 0.0000
# 5 0.0000 0.0000 0.0000 0.0000 28.3344 0.0000
# 6 0.0000 0.0000 0.0000 0.0000 0.0000 11.3418
#
#
#
# Elastic Compliance Matrix: (Units=1/GPa)
#
#
# Indices 1 2 3 4 5 6 
#
# 1 0.027080 -0.009940 -0.001527 0.000000 0.000000 0.000000
# 2 -0.009940 0.027078 -0.001527 0.000000 0.000000 0.000000
# 3 -0.001527 -0.001527 0.006890 0.000000 0.000000 0.000000
# 4 0.000000 0.000000 0.000000 0.035292 0.000000 0.000000
# 5 0.000000 0.000000 0.000000 0.000000 0.035293 0.000000
# 6 0.000000 0.000000 0.000000 0.000000 0.000000 0.088170
#
#
# Mechanical properties :
#
#
# Convention : Reuss Voigt Hill
#
# Bulk Modulus (GPa) = 28.52248 36.27165 32.39707
# Shear Modulus (GPa) = 19.41926 26.60699 23.01313
#
# Velocity S-wave (km/s) = 3.08780 3.61436 3.36141
# Velocity P-wave (km/s) = 5.16883 5.93523 5.56524
#
# Compressibility (1/GPa) = 0.03506006
#
# Stress axis : x y z
#
# Youngs Moduli (GPa) = 36.92810 36.93061 145.13659
#
# Poissons Ratio (x) = 0.36708 0.22164
# Poissons Ratio (y) = 0.36706 0.22161
# Poissons Ratio (z) = 0.05639 0.05639
#
# Static dielectric constant tensor:
#      x y z
#    x 1.758350 0.000000 0.000000 
#    y 0.000000 1.758340 0.000000 
#    z 0.000000 0.000000 1.825930 
# 
# From -- ./inp_files/5169.got.cif
#   From: 2010.05.17/outbox.cif.g08.bks.cpg/sg142_3_cif.got.tgz:5169.got - 2010.05.20 13:39:18.
