data_PCOD9573368
_publ_section_title
;
Structure prediction by ZEFSAII (Michael W. Deem and Ramdas Pophale) SiO2 
 PCOD9573368
Probable space group: I 41/A M D
;
_chemical_formula_sum "Si O2"
_cell_formula_units_Z 96
_cell_length_a 23.286640
_cell_length_b 23.286640
_cell_length_c 6.659215
_cell_angle_alpha 90.000000
_cell_angle_beta 90.000000
_cell_angle_gamma 90.000000
_cell_volume 3611.076553
_symmetry_space_group_name_H-M "I 41/A M D"
_symmetry_group_IT_number 141
_space_group.IT_coordinate_system_code '2'
_symmetry_cell_setting 'tetragonal'
loop_
_space_group_symop_operation_xyz
x,y,z
1/4-y,3/4+x,1/4+z
-x,1/2-y,z
1/4+y,1/4-x,3/4+z
x,-y,-z
-x,1/2+y,-z
1/4+y,3/4+x,1/4-z
1/4-y,1/4-x,3/4-z
-x,-y,-z
3/4+y,1/4-x,3/4-z
x,1/2+y,-z
3/4-y,3/4+x,1/4-z
-x,y,z
x,1/2-y,z
3/4-y,1/4-x,3/4+z
3/4+y,3/4+x,1/4+z
1/2+x,1/2+y,1/2+z
3/4-y,1/4+x,3/4+z
1/2-x,-y,1/2+z
3/4+y,3/4-x,1/4+z
1/2+x,1/2-y,1/2-z
1/2-x,y,1/2-z
3/4+y,1/4+x,3/4-z
3/4-y,3/4-x,1/4-z
1/2-x,1/2-y,1/2-z
1/4+y,3/4-x,1/4-z
1/2+x,y,1/2-z
1/4-y,1/4+x,3/4-z
1/2-x,1/2+y,1/2+z
1/2+x,-y,1/2+z
1/4-y,3/4-x,1/4+z
1/4+y,1/4+x,3/4+z
loop_
_atom_site_type_symbol
_atom_site_label
_atom_site_fract_x
_atom_site_fract_y
_atom_site_fract_z
Si Si1 0.800098 0.862318 0.536625
Si Si2 0.410402 0.184186 0.886493
Si Si3 0.688197 0.811892 0.532968
O O1 0.828911 0.921090 0.625000
O O2 0.842893 0.833854 0.377298
O O3 0.733884 0.861329 0.471923
O O4 0.806397 0.819364 0.724903
O O5 0.423046 0.250000 0.837186
O O6 0.437676 0.130730 0.768181
O O7 0.427273 0.177273 0.125000
O O8 0.709833 0.750000 0.464969
#
# Coordination Sequence:
#
# PCOD9573368 Si02
#       3
#    32  32  32
#     4   8  13  20  28  36  47  67  93 118 138 155
#     4   9  15  20  27  38  53  74  97 118 134 153
#     4   9  14  19  27  37  51  69  89 115 140 158
#
# _framework density 26.584872000000001
#
# number of rings (size 3 to 8) (size 9 to 14) (size 15 to 20)
#    0.000    4.000    0.000    7.000    0.000    2.333 
#    0.000    0.000    0.000    0.000    0.000    0.000 
#    0.000    0.000    0.000   24.000    0.000    3.667 
#
# Total GULP energy -267422.277714 kJ/mol
# GULP energy per Si atom -5571.297452 kJ/mol
# Density = 2.652436 g / cm^3
# Si number density = 26.584872 Si / 1000 Ang^3
#
#
#
# Elastic Constant Matrix: (Units=GPa)
#
#
# Indices 1 2 3 4 5 6 
#
# 1 224.0452 70.0473 27.0150 0.0000 0.0000 0.0000
# 2 70.0473 224.0443 27.0152 0.0000 0.0000 0.0000
# 3 27.0150 27.0152 75.8872 0.0000 0.0000 0.0000
# 4 0.0000 0.0000 0.0000 38.1049 0.0000 0.0000
# 5 0.0000 0.0000 0.0000 0.0000 38.1061 0.0000
# 6 0.0000 0.0000 0.0000 0.0000 0.0000 22.1477
#
#
#
# Elastic Compliance Matrix: (Units=1/GPa)
#
#
# Indices 1 2 3 4 5 6 
#
# 1 0.005066 -0.001428 -0.001295 0.000000 0.000000 0.000000
# 2 -0.001428 0.005066 -0.001295 0.000000 0.000000 0.000000
# 3 -0.001295 -0.001295 0.014100 0.000000 0.000000 0.000000
# 4 0.000000 0.000000 0.000000 0.026243 0.000000 0.000000
# 5 0.000000 0.000000 0.000000 0.000000 0.026243 0.000000
# 6 0.000000 0.000000 0.000000 0.000000 0.000000 0.045151
#
#
# Mechanical properties :
#
#
# Convention : Reuss Voigt Hill
#
# Bulk Modulus (GPa) = 61.74607 85.79241 73.76924
# Shear Modulus (GPa) = 36.95403 46.33169 41.64286
#
# Velocity S-wave (km/s) = 3.73237 4.17920 3.96209
# Velocity P-wave (km/s) = 6.46920 7.45847 6.98138
#
# Compressibility (1/GPa) = 0.01619536
#
# Stress axis : x y z
#
# Youngs Moduli (GPa) = 197.39768 197.39669 70.92404
#
# Poissons Ratio (x) = 0.28182 0.09186
# Poissons Ratio (y) = 0.28182 0.09186
# Poissons Ratio (z) = 0.25566 0.25567
#
# Static dielectric constant tensor:
#      x y z
#    x 2.107710 0.000000 0.000000 
#    y 0.000000 2.107720 0.000000 
#    z 0.000000 0.000000 2.303220 
# 
# From -- ./inp_files/2512.got.cif
#   From: 2010.05.17/outbox.cif.g08.bks.cpg/sg141_2_cif.got.tgz:2512.got - 2010.05.20 13:30:51.
