data_PCOD9573139
_publ_section_title
;
Structure prediction by ZEFSAII (Michael W. Deem and Ramdas Pophale) SiO2 
 PCOD9573139
Probable space group: I 41/A M D
;
_chemical_formula_sum "Si O2"
_cell_formula_units_Z 144
_cell_length_a 28.139837
_cell_length_b 28.139837
_cell_length_c 9.296952
_cell_angle_alpha 90.000000
_cell_angle_beta 90.000000
_cell_angle_gamma 90.000000
_cell_volume 7361.795405
_symmetry_space_group_name_H-M "I 41/A M D"
_symmetry_group_IT_number 141
_space_group.IT_coordinate_system_code '2'
_symmetry_cell_setting 'tetragonal'
loop_
_space_group_symop_operation_xyz
x,y,z
1/4-y,3/4+x,1/4+z
-x,1/2-y,z
1/4+y,1/4-x,3/4+z
x,-y,-z
-x,1/2+y,-z
1/4+y,3/4+x,1/4-z
1/4-y,1/4-x,3/4-z
-x,-y,-z
3/4+y,1/4-x,3/4-z
x,1/2+y,-z
3/4-y,3/4+x,1/4-z
-x,y,z
x,1/2-y,z
3/4-y,1/4-x,3/4+z
3/4+y,3/4+x,1/4+z
1/2+x,1/2+y,1/2+z
3/4-y,1/4+x,3/4+z
1/2-x,-y,1/2+z
3/4+y,3/4-x,1/4+z
1/2+x,1/2-y,1/2-z
1/2-x,y,1/2-z
3/4+y,1/4+x,3/4-z
3/4-y,3/4-x,1/4-z
1/2-x,1/2-y,1/2-z
1/4+y,3/4-x,1/4-z
1/2+x,y,1/2-z
1/4-y,1/4+x,3/4-z
1/2-x,1/2+y,1/2+z
1/2+x,-y,1/2+z
1/4-y,3/4-x,1/4+z
1/4+y,1/4+x,3/4+z
loop_
_atom_site_type_symbol
_atom_site_label
_atom_site_fract_x
_atom_site_fract_y
_atom_site_fract_z
Si Si1 0.194143 0.194959 0.052900
Si Si2 0.379756 0.695553 0.289654
Si Si3 0.788102 0.461899 0.875000
Si Si4 0.369024 0.617930 0.708649
Si Si5 0.118971 0.509378 0.833655
O O1 0.193230 0.250000 0.099818
O O2 0.169520 0.156707 0.157257
O O3 0.163762 0.191963 0.903535
O O4 0.246532 0.175521 0.015298
O O5 0.385613 0.750000 0.250095
O O6 0.424738 0.674738 0.375000
O O7 0.372804 0.663245 0.150204
O O8 0.750000 0.467925 0.750000
O O9 0.839839 0.470326 0.809217
O O10 0.358759 0.561190 0.694065
O O11 0.378465 0.628465 0.875000
O O12 0.105891 0.500000 0.000000
#
# Coordination Sequence:
#
# PCOD9573139 Si02
#       5
#    32  32  16  32  32
#     4  10  21  40  64  89 119 162 210 256 308 376
#     4   9  19  37  63  88 116 155 205 256 308 369
#     4  10  22  34  54  80 114 162 205 252 300 359
#     4  11  24  39  59  90 130 162 201 264 319 375
#     4  11  21  38  61  85 121 165 213 261 306 368
#
# _framework density 19.560445999999999
#
# number of rings (size 3 to 8) (size 9 to 14) (size 15 to 20)
#    0.000    1.778    2.222    2.667    3.111    3.333 
#    0.000    1.111    0.000    0.000    0.000    3.111 
#    0.000    0.000    0.000    0.000    0.000    0.000 
#
# Total GULP energy -401659.519738 kJ/mol
# GULP energy per Si atom -5578.604441 kJ/mol
# Density = 1.951593 g / cm^3
# Si number density = 19.560446 Si / 1000 Ang^3
#
#
#
# Elastic Constant Matrix: (Units=GPa)
#
#
# Indices 1 2 3 4 5 6 
#
# 1 108.9103 31.4524 19.0853 0.0000 0.0000 0.0000
# 2 31.4524 108.9078 19.0860 0.0000 0.0000 0.0000
# 3 19.0853 19.0860 89.2198 0.0000 0.0000 0.0000
# 4 0.0000 0.0000 0.0000 11.7210 0.0000 0.0000
# 5 0.0000 0.0000 0.0000 0.0000 11.7210 0.0000
# 6 0.0000 0.0000 0.0000 0.0000 0.0000 11.6183
#
#
#
# Elastic Compliance Matrix: (Units=1/GPa)
#
#
# Indices 1 2 3 4 5 6 
#
# 1 0.010237 -0.002673 -0.001618 0.000000 0.000000 0.000000
# 2 -0.002673 0.010238 -0.001618 0.000000 0.000000 0.000000
# 3 -0.001618 -0.001618 0.011901 0.000000 0.000000 0.000000
# 4 0.000000 0.000000 0.000000 0.085317 0.000000 0.000000
# 5 0.000000 0.000000 0.000000 0.000000 0.085317 0.000000
# 6 0.000000 0.000000 0.000000 0.000000 0.000000 0.086071
#
#
# Mechanical properties :
#
#
# Convention : Reuss Voigt Hill
#
# Bulk Modulus (GPa) = 48.64540 49.58723 49.11632
# Shear Modulus (GPa) = 16.24685 22.83966 19.54325
#
# Velocity S-wave (km/s) = 2.88513 3.42079 3.16432
# Velocity P-wave (km/s) = 6.00183 6.40376 6.20605
#
# Compressibility (1/GPa) = 0.02055693
#
# Stress axis : x y z
#
# Youngs Moduli (GPa) = 97.68149 97.67889 84.02945
#
# Poissons Ratio (x) = 0.26109 0.13597
# Poissons Ratio (y) = 0.26110 0.13598
# Poissons Ratio (z) = 0.15806 0.15807
#
# Static dielectric constant tensor:
#      x y z
#    x 1.708420 0.000000 0.000000 
#    y 0.000000 1.708420 0.000000 
#    z 0.000000 0.000000 1.684590 
# 
# From -- ./inp_files/3141.got.cif
#   From: 2010.05.17/outbox.cif.g08.bks.cpg/sg141_2_cif.got.tgz:3141.got - 2010.05.20 13:30:51.
