data_PCOD9573851
_publ_section_title
;
Structure prediction by ZEFSAII (Michael W. Deem and Ramdas Pophale) SiO2 
 PCOD9573851
Probable space group: I 41/A C D
;
_chemical_formula_sum "Si O2"
_cell_formula_units_Z 144
_cell_length_a 21.354509
_cell_length_b 21.354509
_cell_length_c 15.652415
_cell_angle_alpha 90.000000
_cell_angle_beta 90.000000
_cell_angle_gamma 90.000000
_cell_volume 7137.736881
_symmetry_space_group_name_H-M "I 41/A C D"
_symmetry_group_IT_number 142
_space_group.IT_coordinate_system_code '2'
_symmetry_cell_setting 'tetragonal'
loop_
_space_group_symop_operation_xyz
x,y,z
1/4-y,3/4+x,1/4+z
-x,1/2-y,z
1/4+y,1/4-x,3/4+z
x,-y,1/2-z
1/2-x,y,-z
3/4+y,1/4+x,1/4-z
1/4-y,1/4-x,1/4-z
-x,-y,-z
3/4+y,1/4-x,3/4-z
x,1/2+y,-z
3/4-y,3/4+x,1/4-z
-x,y,1/2+z
1/2+x,-y,z
1/4-y,3/4-x,3/4+z
3/4+y,3/4+x,3/4+z
1/2+x,1/2+y,1/2+z
3/4-y,1/4+x,3/4+z
1/2-x,-y,1/2+z
3/4+y,3/4-x,1/4+z
1/2+x,1/2-y,-z
-x,1/2+y,1/2-z
1/4+y,3/4+x,3/4-z
3/4-y,3/4-x,3/4-z
1/2-x,1/2-y,1/2-z
1/4+y,3/4-x,1/4-z
1/2+x,y,1/2-z
1/4-y,1/4+x,3/4-z
1/2-x,1/2+y,z
x,1/2-y,1/2+z
3/4-y,1/4-x,1/4+z
1/4+y,1/4+x,1/4+z
loop_
_atom_site_type_symbol
_atom_site_label
_atom_site_fract_x
_atom_site_fract_y
_atom_site_fract_z
Si Si1 0.489416 0.063978 0.383372
Si Si2 0.894473 0.144473 0.625000
Si Si3 0.271440 0.884222 0.087108
Si Si4 0.464762 0.926880 0.922414
Si Si5 0.608397 0.894178 0.932076
O O1 0.533533 0.122626 0.363771
O O2 0.434467 0.049865 0.317679
O O3 0.455497 0.072335 0.475204
O O4 0.529096 0.999525 0.392817
O O5 0.878241 0.113040 0.533539
O O6 0.325451 0.924550 0.125000
O O7 0.211835 0.879088 0.148446
O O8 0.250000 0.914786 0.000000
O O9 0.533336 0.894656 0.914991
O O10 0.411114 0.892002 0.870100
#
# Coordination Sequence:
#
# PCOD9573851 Si02
#       5
#    32  16  32  32  32
#     4   9  20  39  62  91 126 168 210 266 318 384
#     4  10  22  38  65 100 120 158 226 260 322 377
#     4  11  24  43  65  92 130 175 213 259 333 395
#     4   9  19  39  63  89 129 167 210 261 326 376
#     4  10  22  40  66  94 126 170 211 272 323 387
#
# _framework density 20.174461000000001
#
# number of rings (size 3 to 8) (size 9 to 14) (size 15 to 20)
#    0.000    2.222    0.000    2.667    6.222    0.444 
#    8.000    0.556    0.000    0.000    0.000    0.000 
#    0.000    0.000    0.000    0.000    0.000    0.000 
#
# Total GULP energy -401641.459973 kJ/mol
# GULP energy per Si atom -5578.353611 kJ/mol
# Density = 2.012854 g / cm^3
# Si number density = 20.174461 Si / 1000 Ang^3
#
#
#
# Elastic Constant Matrix: (Units=GPa)
#
#
# Indices 1 2 3 4 5 6 
#
# 1 92.9004 70.1128 42.8451 0.0000 0.0000 0.0000
# 2 70.1128 92.9057 42.8482 0.0000 0.0000 0.0000
# 3 42.8451 42.8482 63.8940 0.0000 0.0000 0.0000
# 4 0.0000 0.0000 0.0000 38.3086 0.0000 0.0000
# 5 0.0000 0.0000 0.0000 0.0000 38.2855 0.0000
# 6 0.0000 0.0000 0.0000 0.0000 0.0000 -725.5752
#
#
#
# Elastic Compliance Matrix: (Units=1/GPa)
#
#
# Indices 1 2 3 4 5 6 
#
# 1 0.026676 -0.017202 -0.006352 0.000000 0.000000 0.000000
# 2 -0.017202 0.026676 -0.006354 0.000000 0.000000 0.000000
# 3 -0.006352 -0.006354 0.024172 0.000000 0.000000 0.000000
# 4 0.000000 0.000000 0.000000 0.026104 0.000000 0.000000
# 5 0.000000 0.000000 0.000000 0.000000 0.026120 0.000000
# 6 0.000000 0.000000 0.000000 0.000000 0.000000 -0.001378
#
#
# Mechanical properties :
#
#
# Convention : Reuss Voigt Hill
#
# Bulk Modulus (GPa) = 56.47477 62.36802 59.42140
# Shear Modulus (GPa) = 25.76137 -123.53663 -48.88763
#
# Velocity S-wave (km/s) = 3.57729 -7.83372 -4.92799
# Velocity P-wave (km/s) = 6.71689 7.13031 1.69185
#
# Compressibility (1/GPa) = 0.01770702
#
# Stress axis : x y z
#
# Youngs Moduli (GPa) = 37.48618 37.48685 41.37060
#
# Poissons Ratio (x) = 0.64485 0.26280
# Poissons Ratio (y) = 0.64484 0.26287
# Poissons Ratio (z) = 0.23812 0.23820
#
# Static dielectric constant tensor:
#      x y z
#    x 1.700580 0.000000 0.000000 
#    y 0.000000 1.700580 0.000000 
#    z 0.000000 0.000000 1.748320 
# 
# From -- ./inp_files/7247.got.cif
#   From: 2010.05.17/outbox.cif.g08.bks.cpg/sg142_4_cif.got.tgz:7247.got - 2010.05.20 13:39:18.
