data_PCOD9573331
_publ_section_title
;
Structure prediction by ZEFSAII (Michael W. Deem and Ramdas Pophale) SiO2 
 PCOD9573331
Probable space group: I 41/A M D
;
_chemical_formula_sum "Si O2"
_cell_formula_units_Z 128
_cell_length_a 15.321644
_cell_length_b 15.321644
_cell_length_c 26.531244
_cell_angle_alpha 90.000000
_cell_angle_beta 90.000000
_cell_angle_gamma 90.000000
_cell_volume 6228.283150
_symmetry_space_group_name_H-M "I 41/A M D"
_symmetry_group_IT_number 141
_space_group.IT_coordinate_system_code '2'
_symmetry_cell_setting 'tetragonal'
loop_
_space_group_symop_operation_xyz
x,y,z
1/4-y,3/4+x,1/4+z
-x,1/2-y,z
1/4+y,1/4-x,3/4+z
x,-y,-z
-x,1/2+y,-z
1/4+y,3/4+x,1/4-z
1/4-y,1/4-x,3/4-z
-x,-y,-z
3/4+y,1/4-x,3/4-z
x,1/2+y,-z
3/4-y,3/4+x,1/4-z
-x,y,z
x,1/2-y,z
3/4-y,1/4-x,3/4+z
3/4+y,3/4+x,1/4+z
1/2+x,1/2+y,1/2+z
3/4-y,1/4+x,3/4+z
1/2-x,-y,1/2+z
3/4+y,3/4-x,1/4+z
1/2+x,1/2-y,1/2-z
1/2-x,y,1/2-z
3/4+y,1/4+x,3/4-z
3/4-y,3/4-x,1/4-z
1/2-x,1/2-y,1/2-z
1/4+y,3/4-x,1/4-z
1/2+x,y,1/2-z
1/4-y,1/4+x,3/4-z
1/2-x,1/2+y,1/2+z
1/2+x,-y,1/2+z
1/4-y,3/4-x,1/4+z
1/4+y,1/4+x,3/4+z
loop_
_atom_site_type_symbol
_atom_site_label
_atom_site_fract_x
_atom_site_fract_y
_atom_site_fract_z
Si Si1 0.212615 0.650830 0.087475
Si Si2 0.163805 0.155224 0.323542
Si Si3 0.643227 0.651347 0.629721
Si Si4 0.895875 0.518840 0.274573
O O1 0.179176 0.750000 0.092917
O O2 0.164816 0.585185 0.125000
O O3 0.316609 0.652748 0.097977
O O4 0.198755 0.619085 0.030214
O O5 0.108850 0.141151 0.375000
O O6 0.144073 0.250000 0.300883
O O7 0.263138 0.153902 0.342442
O O8 0.147045 0.073502 0.288038
O O9 0.606016 0.750000 0.634005
O O10 0.665292 0.632544 0.570965
O O11 0.000000 0.503092 0.272434
#
# Coordination Sequence:
#
# PCOD9573331 Si02
#       4
#    32  32  32  32
#     4  11  24  41  61  82 107 144 190 243 296 339
#     4   9  16  27  49  82 119 158 190 212 247 317
#     4   9  19  36  57  84 118 151 182 218 268 336
#     4   9  19  35  53  77 112 149 185 232 283 327
#
# _framework density 20.551411000000002
#
# number of rings (size 3 to 8) (size 9 to 14) (size 15 to 20)
#    0.000    2.500    0.000    4.500    0.000    7.500 
#    0.000    7.500    0.000    4.500    0.000    0.000 
#    0.000    0.000    0.000    0.000    0.000    0.000 
#
# Total GULP energy -357316.097131 kJ/mol
# GULP energy per Si atom -5583.064018 kJ/mol
# Density = 2.050463 g / cm^3
# Si number density = 20.551411 Si / 1000 Ang^3
#
#
#
# Elastic Constant Matrix: (Units=GPa)
#
#
# Indices 1 2 3 4 5 6 
#
# 1 21.3312 6.5065 -2.9034 0.0000 0.0000 0.0000
# 2 6.5065 21.3315 -2.8999 0.0000 0.0000 0.0000
# 3 -2.9034 -2.8999 74.2361 0.0000 0.0000 0.0000
# 4 0.0000 0.0000 0.0000 14.2132 0.0000 0.0000
# 5 0.0000 0.0000 0.0000 0.0000 14.2124 0.0000
# 6 0.0000 0.0000 0.0000 0.0000 0.0000 -14.6919
#
#
#
# Elastic Compliance Matrix: (Units=1/GPa)
#
#
# Indices 1 2 3 4 5 6 
#
# 1 0.051837 -0.015619 0.001417 0.000000 0.000000 0.000000
# 2 -0.015619 0.051835 0.001414 0.000000 0.000000 0.000000
# 3 0.001417 0.001414 0.013581 0.000000 0.000000 0.000000
# 4 0.000000 0.000000 0.000000 0.070357 0.000000 0.000000
# 5 0.000000 0.000000 0.000000 0.000000 0.070361 0.000000
# 6 0.000000 0.000000 0.000000 0.000000 0.000000 -0.068065
#
#
# Mechanical properties :
#
#
# Convention : Reuss Voigt Hill
#
# Bulk Modulus (GPa) = 10.90768 13.14502 12.02635
# Shear Modulus (GPa) = 20.32181 10.49310 15.40746
#
# Velocity S-wave (km/s) = 3.14798 2.26205 2.74104
# Velocity P-wave (km/s) = 4.30488 3.63766 3.98526
#
# Compressibility (1/GPa) = 0.09167854
#
# Stress axis : x y z
#
# Youngs Moduli (GPa) = 19.29134 19.29189 73.63121
#
# Poissons Ratio (x) = 0.30131 -0.10436
# Poissons Ratio (y) = 0.30130 -0.10411
# Poissons Ratio (z) = -0.02734 -0.02728
#
# Static dielectric constant tensor:
#      x y z
#    x 1.733770 0.000000 0.000000 
#    y 0.000000 1.733770 0.000000 
#    z 0.000000 0.000000 1.743490 
# 
# From -- ./inp_files/11346.got.cif
#   From: 2010.05.17/outbox.cif.g08.bks.cpg/sg141_6_cif.got.tgz:11346.got - 2010.05.20 13:30:51.
