data_PCOD9573169
_publ_section_title
;
Structure prediction by ZEFSAII (Michael W. Deem and Ramdas Pophale) SiO2 
 PCOD9573169
Probable space group: I 41/A M D
;
_chemical_formula_sum "Si O2"
_cell_formula_units_Z 128
_cell_length_a 19.889689
_cell_length_b 19.889689
_cell_length_c 18.626748
_cell_angle_alpha 90.000000
_cell_angle_beta 90.000000
_cell_angle_gamma 90.000000
_cell_volume 7368.736452
_symmetry_space_group_name_H-M "I 41/A M D"
_symmetry_group_IT_number 141
_space_group.IT_coordinate_system_code '2'
_symmetry_cell_setting 'tetragonal'
loop_
_space_group_symop_operation_xyz
x,y,z
1/4-y,3/4+x,1/4+z
-x,1/2-y,z
1/4+y,1/4-x,3/4+z
x,-y,-z
-x,1/2+y,-z
1/4+y,3/4+x,1/4-z
1/4-y,1/4-x,3/4-z
-x,-y,-z
3/4+y,1/4-x,3/4-z
x,1/2+y,-z
3/4-y,3/4+x,1/4-z
-x,y,z
x,1/2-y,z
3/4-y,1/4-x,3/4+z
3/4+y,3/4+x,1/4+z
1/2+x,1/2+y,1/2+z
3/4-y,1/4+x,3/4+z
1/2-x,-y,1/2+z
3/4+y,3/4-x,1/4+z
1/2+x,1/2-y,1/2-z
1/2-x,y,1/2-z
3/4+y,1/4+x,3/4-z
3/4-y,3/4-x,1/4-z
1/2-x,1/2-y,1/2-z
1/4+y,3/4-x,1/4-z
1/2+x,y,1/2-z
1/4-y,1/4+x,3/4-z
1/2-x,1/2+y,1/2+z
1/2+x,-y,1/2+z
1/4-y,3/4-x,1/4+z
1/4+y,1/4+x,3/4+z
loop_
_atom_site_type_symbol
_atom_site_label
_atom_site_fract_x
_atom_site_fract_y
_atom_site_fract_z
Si Si1 0.000000 0.669953 0.992843
Si Si2 0.354695 0.827452 0.572672
Si Si3 0.207750 0.869013 0.076782
Si Si4 0.500000 0.034692 0.575920
Si Si5 0.820827 0.521644 0.422255
O O1 0.067064 0.658166 0.945429
O O2 0.000000 0.750000 0.014423
O O3 0.000000 0.615247 0.057772
O O4 0.349434 0.750000 0.596333
O O5 0.318611 0.836646 0.495781
O O6 0.316304 0.877030 0.626731
O O7 0.147908 0.897908 0.125000
O O8 0.238616 0.813573 0.128463
O O9 0.257399 0.930101 0.060973
O O10 0.500000 0.000000 0.500000
O O11 0.848312 0.500000 0.500000
O O12 0.789982 0.460019 0.375000
#
# Coordination Sequence:
#
# PCOD9573169 Si02
#       5
#    16  32  32  16  32
#     4  10  22  38  56  86 132 166 194 233 286 355
#     4  11  22  40  58  87 118 158 200 238 295 358
#     4  11  22  33  54  83 118 155 194 235 280 351
#     4  12  22  34  54  82 119 160 203 233 281 343
#     4  11  23  40  61  83 114 149 197 256 307 344
#
# _framework density 17.370685999999999
#
# number of rings (size 3 to 8) (size 9 to 14) (size 15 to 20)
#    0.000    1.000    6.250    1.500    0.000    0.500 
#    2.250    0.000    0.000    0.000    0.000    0.000 
#    0.000    0.000    0.000    0.000    0.000    0.000 
#
# Total GULP energy -357105.596568 kJ/mol
# GULP energy per Si atom -5579.774946 kJ/mol
# Density = 1.733115 g / cm^3
# Si number density = 17.370686 Si / 1000 Ang^3
#
#
#
# Elastic Constant Matrix: (Units=GPa)
#
#
# Indices 1 2 3 4 5 6 
#
# 1 56.3151 15.4227 24.1509 0.0000 0.0000 0.0000
# 2 15.4227 56.3180 24.1511 0.0000 0.0000 0.0000
# 3 24.1509 24.1511 97.7854 0.0000 0.0000 0.0000
# 4 0.0000 0.0000 0.0000 29.0466 0.0000 0.0000
# 5 0.0000 0.0000 0.0000 0.0000 29.0465 0.0000
# 6 0.0000 0.0000 0.0000 0.0000 0.0000 22.5598
#
#
#
# Elastic Compliance Matrix: (Units=1/GPa)
#
#
# Indices 1 2 3 4 5 6 
#
# 1 0.020587 -0.003867 -0.004130 0.000000 0.000000 0.000000
# 2 -0.003867 0.020586 -0.004129 0.000000 0.000000 0.000000
# 3 -0.004130 -0.004129 0.012266 0.000000 0.000000 0.000000
# 4 0.000000 0.000000 0.000000 0.034427 0.000000 0.000000
# 5 0.000000 0.000000 0.000000 0.000000 0.034428 0.000000
# 6 0.000000 0.000000 0.000000 0.000000 0.000000 0.044327
#
#
# Mechanical properties :
#
#
# Convention : Reuss Voigt Hill
#
# Bulk Modulus (GPa) = 34.26071 37.54088 35.90080
# Shear Modulus (GPa) = 24.92495 25.91014 25.41755
#
# Velocity S-wave (km/s) = 3.79210 3.86632 3.82939
# Velocity P-wave (km/s) = 6.24015 6.44901 6.34544
#
# Compressibility (1/GPa) = 0.02918795
#
# Stress axis : x y z
#
# Youngs Moduli (GPa) = 48.57381 48.57651 81.52454
#
# Poissons Ratio (x) = 0.18784 0.33666
# Poissons Ratio (y) = 0.18783 0.33664
# Poissons Ratio (z) = 0.20059 0.20059
#
# Static dielectric constant tensor:
#      x y z
#    x 1.764680 0.000000 0.000000 
#    y 0.000000 1.764650 0.000000 
#    z 0.000000 0.000000 1.575130 
# 
# From -- ./inp_files/6214.got.cif
#   From: 2010.05.17/outbox.cif.g08.bks.cpg/sg141_4_cif.got.tgz:6214.got - 2010.05.20 13:30:51.
