data_PCOD9573613
_publ_section_title
;
Structure prediction by ZEFSAII (Michael W. Deem and Ramdas Pophale) SiO2 
 PCOD9573613
Probable space group: I 41/A C D
;
_chemical_formula_sum "Si O2"
_cell_formula_units_Z 176
_cell_length_a 17.083654
_cell_length_b 17.083654
_cell_length_c 27.704481
_cell_angle_alpha 90.000000
_cell_angle_beta 90.000000
_cell_angle_gamma 90.000000
_cell_volume 8085.586967
_symmetry_space_group_name_H-M "I 41/A C D"
_symmetry_group_IT_number 142
_space_group.IT_coordinate_system_code '2'
_symmetry_cell_setting 'tetragonal'
loop_
_space_group_symop_operation_xyz
x,y,z
1/4-y,3/4+x,1/4+z
-x,1/2-y,z
1/4+y,1/4-x,3/4+z
x,-y,1/2-z
1/2-x,y,-z
3/4+y,1/4+x,1/4-z
1/4-y,1/4-x,1/4-z
-x,-y,-z
3/4+y,1/4-x,3/4-z
x,1/2+y,-z
3/4-y,3/4+x,1/4-z
-x,y,1/2+z
1/2+x,-y,z
1/4-y,3/4-x,3/4+z
3/4+y,3/4+x,3/4+z
1/2+x,1/2+y,1/2+z
3/4-y,1/4+x,3/4+z
1/2-x,-y,1/2+z
3/4+y,3/4-x,1/4+z
1/2+x,1/2-y,-z
-x,1/2+y,1/2-z
1/4+y,3/4+x,3/4-z
3/4-y,3/4-x,3/4-z
1/2-x,1/2-y,1/2-z
1/4+y,3/4-x,1/4-z
1/2+x,y,1/2-z
1/4-y,1/4+x,3/4-z
1/2-x,1/2+y,z
x,1/2-y,1/2+z
3/4-y,1/4-x,1/4+z
1/4+y,1/4+x,1/4+z
loop_
_atom_site_type_symbol
_atom_site_label
_atom_site_fract_x
_atom_site_fract_y
_atom_site_fract_z
Si Si1 0.364661 0.604795 0.572065
Si Si2 0.918903 0.796454 0.512404
Si Si3 0.733900 0.661891 0.764980
Si Si4 0.180788 0.569213 0.875000
Si Si5 0.320446 0.416977 0.064428
Si Si6 0.832119 0.152726 0.523707
O O1 0.383660 0.633660 0.625000
O O2 0.421902 0.642868 0.532450
O O3 0.389353 0.513637 0.567734
O O4 0.270769 0.609072 0.562777
O O5 0.879910 0.843786 0.557268
O O6 0.852425 0.740712 0.489267
O O7 0.000000 0.750000 0.520933
O O8 0.750000 0.750000 0.750000
O O9 0.777939 0.598309 0.730543
O O10 0.644300 0.646837 0.756062
O O11 0.170162 0.479093 0.892143
O O12 0.123892 0.584904 0.829421
O O13 0.750000 0.131020 0.500000
#
# Coordination Sequence:
#
# PCOD9573613 Si02
#       6
#    32  32  32  16  32  32
#     4  11  22  38  67  94 123 173 236 283 325 403
#     4  11  24  42  63  94 140 183 215 280 366 424
#     4  10  20  36  59  92 127 170 212 274 352 400
#     4  10  22  40  71 102 129 174 244 294 336 406
#     4  10  20  41  66  94 128 176 234 283 334 412
#     4  11  22  38  65  97 133 177 231 289 346 418
#
# _framework density 21.767129000000001
#
# number of rings (size 3 to 8) (size 9 to 14) (size 15 to 20)
#    0.000    1.455    0.909    7.636    0.000    4.727 
#    0.000    0.000    4.000    0.000    4.727    0.000 
#    0.000    0.000    0.000    0.000    0.000    0.000 
#
# Total GULP energy -490148.242552 kJ/mol
# GULP energy per Si atom -5569.866393 kJ/mol
# Density = 2.171759 g / cm^3
# Si number density = 21.767129 Si / 1000 Ang^3
#
#
#
# Elastic Constant Matrix: (Units=GPa)
#
#
# Indices 1 2 3 4 5 6 
#
# 1 93.1373 37.4424 21.2858 0.0000 0.0000 0.0000
# 2 37.4424 93.1367 21.2858 0.0000 0.0000 0.0000
# 3 21.2858 21.2858 70.6829 0.0000 0.0000 0.0000
# 4 0.0000 0.0000 0.0000 16.9349 0.0000 0.0000
# 5 0.0000 0.0000 0.0000 0.0000 16.9352 0.0000
# 6 0.0000 0.0000 0.0000 0.0000 0.0000 53.1025
#
#
#
# Elastic Compliance Matrix: (Units=1/GPa)
#
#
# Indices 1 2 3 4 5 6 
#
# 1 0.013223 -0.004732 -0.002557 0.000000 0.000000 0.000000
# 2 -0.004732 0.013224 -0.002557 0.000000 0.000000 0.000000
# 3 -0.002557 -0.002557 0.015688 0.000000 0.000000 0.000000
# 4 0.000000 0.000000 0.000000 0.059050 0.000000 0.000000
# 5 0.000000 0.000000 0.000000 0.000000 0.059049 0.000000
# 6 0.000000 0.000000 0.000000 0.000000 0.000000 0.018832
#
#
# Mechanical properties :
#
#
# Convention : Reuss Voigt Hill
#
# Bulk Modulus (GPa) = 44.55819 46.33165 45.44492
# Shear Modulus (GPa) = 24.24386 29.19071 26.71728
#
# Velocity S-wave (km/s) = 3.34096 3.66600 3.50725
# Velocity P-wave (km/s) = 5.94958 6.26504 6.10935
#
# Compressibility (1/GPa) = 0.02244256
#
# Stress axis : x y z
#
# Youngs Moduli (GPa) = 75.62324 75.62280 63.74336
#
# Poissons Ratio (x) = 0.35782 0.16301
# Poissons Ratio (y) = 0.35782 0.16301
# Poissons Ratio (z) = 0.19339 0.19339
#
# Static dielectric constant tensor:
#      x y z
#    x 1.911530 0.000000 0.000000 
#    y 0.000000 1.911530 0.000000 
#    z 0.000000 0.000000 1.827910 
# 
# From -- ./inp_files/11432.got.cif
#   From: 2010.05.17/outbox.cif.g08.bks.cpg/sg142_6_cif.got.tgz:11432.got - 2010.05.20 13:39:18.
