data_PCOD9573921
_publ_section_title
;
Structure prediction by ZEFSAII (Michael W. Deem and Ramdas Pophale) SiO2 
 PCOD9573921
Probable space group: I 41/A C D
;
_chemical_formula_sum "Si O2"
_cell_formula_units_Z 176
_cell_length_a 17.232254
_cell_length_b 17.232254
_cell_length_c 26.081927
_cell_angle_alpha 90.000000
_cell_angle_beta 90.000000
_cell_angle_gamma 90.000000
_cell_volume 7745.043296
_symmetry_space_group_name_H-M "I 41/A C D"
_symmetry_group_IT_number 142
_space_group.IT_coordinate_system_code '2'
_symmetry_cell_setting 'tetragonal'
loop_
_space_group_symop_operation_xyz
x,y,z
1/4-y,3/4+x,1/4+z
-x,1/2-y,z
1/4+y,1/4-x,3/4+z
x,-y,1/2-z
1/2-x,y,-z
3/4+y,1/4+x,1/4-z
1/4-y,1/4-x,1/4-z
-x,-y,-z
3/4+y,1/4-x,3/4-z
x,1/2+y,-z
3/4-y,3/4+x,1/4-z
-x,y,1/2+z
1/2+x,-y,z
1/4-y,3/4-x,3/4+z
3/4+y,3/4+x,3/4+z
1/2+x,1/2+y,1/2+z
3/4-y,1/4+x,3/4+z
1/2-x,-y,1/2+z
3/4+y,3/4-x,1/4+z
1/2+x,1/2-y,-z
-x,1/2+y,1/2-z
1/4+y,3/4+x,3/4-z
3/4-y,3/4-x,3/4-z
1/2-x,1/2-y,1/2-z
1/4+y,3/4-x,1/4-z
1/2+x,y,1/2-z
1/4-y,1/4+x,3/4-z
1/2-x,1/2+y,z
x,1/2-y,1/2+z
3/4-y,1/4-x,1/4+z
1/4+y,1/4+x,1/4+z
loop_
_atom_site_type_symbol
_atom_site_label
_atom_site_fract_x
_atom_site_fract_y
_atom_site_fract_z
Si Si1 0.209311 0.832607 0.615262
Si Si2 0.613603 0.688134 0.482556
Si Si3 0.612378 0.300102 0.209765
Si Si4 0.979088 0.117933 0.655257
Si Si5 0.262247 0.987754 0.125000
Si Si6 0.134421 0.575454 0.285425
O O1 0.182006 0.825282 0.556916
O O2 0.139754 0.805914 0.651702
O O3 0.288260 0.785459 0.624889
O O4 0.223348 0.921581 0.626896
O O5 0.539246 0.634212 0.474703
O O6 0.582115 0.775143 0.469335
O O7 0.636822 0.682203 0.541413
O O8 0.660489 0.357614 0.246276
O O9 0.941064 0.191064 0.625000
O O10 0.066725 0.112610 0.677866
O O11 0.298739 0.950241 0.074229
O O12 0.109369 0.500000 0.250000
#
# Coordination Sequence:
#
# PCOD9573921 Si02
#       6
#    32  32  32  32  16  32
#     4  12  23  43  66  99 134 177 226 281 343 403
#     4  10  23  42  70 100 133 173 224 295 338 410
#     4  10  22  43  69 101 128 175 230 282 342 418
#     4  11  25  44  68  98 134 179 225 281 345 407
#     4  12  28  40  65  98 136 183 220 286 338 412
#     4  11  24  47  68  96 140 185 228 278 356 417
#
# _framework density 22.724212000000001
#
# number of rings (size 3 to 8) (size 9 to 14) (size 15 to 20)
#    0.000    1.091    2.727    3.818    5.091    4.364 
#    0.000    1.818    0.000    0.000    0.000    0.000 
#    0.000    0.000    0.000    0.000    0.000    0.000 
#
# Total GULP energy -491790.652007 kJ/mol
# GULP energy per Si atom -5588.530136 kJ/mol
# Density = 2.267249 g / cm^3
# Si number density = 22.724212 Si / 1000 Ang^3
#
#
#
# Elastic Constant Matrix: (Units=GPa)
#
#
# Indices 1 2 3 4 5 6 
#
# 1 50.2980 -6.6424 5.9773 0.0000 0.0000 0.0000
# 2 -6.6424 50.2985 5.9770 0.0000 0.0000 0.0000
# 3 5.9773 5.9770 94.7062 0.0000 0.0000 0.0000
# 4 0.0000 0.0000 0.0000 23.1991 0.0000 0.0000
# 5 0.0000 0.0000 0.0000 0.0000 23.1996 0.0000
# 6 0.0000 0.0000 0.0000 0.0000 0.0000 17.7504
#
#
#
# Elastic Compliance Matrix: (Units=1/GPa)
#
#
# Indices 1 2 3 4 5 6 
#
# 1 0.020436 0.002874 -0.001471 0.000000 0.000000 0.000000
# 2 0.002874 0.020436 -0.001471 0.000000 0.000000 0.000000
# 3 -0.001471 -0.001471 0.010745 0.000000 0.000000 0.000000
# 4 0.000000 0.000000 0.000000 0.043105 0.000000 0.000000
# 5 0.000000 0.000000 0.000000 0.000000 0.043104 0.000000
# 6 0.000000 0.000000 0.000000 0.000000 0.000000 0.056337
#
#
# Mechanical properties :
#
#
# Convention : Reuss Voigt Hill
#
# Bulk Modulus (GPa) = 19.42548 22.88073 21.15311
# Shear Modulus (GPa) = 23.64524 25.49587 24.57056
#
# Velocity S-wave (km/s) = 3.22923 3.35322 3.29180
# Velocity P-wave (km/s) = 4.74034 5.00827 4.87615
#
# Compressibility (1/GPa) = 0.05147877
#
# Stress axis : x y z
#
# Youngs Moduli (GPa) = 48.93367 48.93423 93.06945
#
# Poissons Ratio (x) = -0.14062 0.13692
# Poissons Ratio (y) = -0.14061 0.13691
# Poissons Ratio (z) = 0.07199 0.07199
#
# Static dielectric constant tensor:
#      x y z
#    x 1.848200 0.000000 0.000000 
#    y 0.000000 1.848200 0.000000 
#    z 0.000000 0.000000 1.832610 
# 
# From -- ./inp_files/11448.got.cif
#   From: 2010.05.17/outbox.cif.g08.bks.cpg/sg142_6_cif.got.tgz:11448.got - 2010.05.20 13:39:18.
