data_PCOD9573707
_publ_section_title
;
Structure prediction by ZEFSAII (Michael W. Deem and Ramdas Pophale) SiO2 
 PCOD9573707
Probable space group: I 41/A C D
;
_chemical_formula_sum "Si O2"
_cell_formula_units_Z 160
_cell_length_a 17.696258
_cell_length_b 17.696258
_cell_length_c 25.867938
_cell_angle_alpha 90.000000
_cell_angle_beta 90.000000
_cell_angle_gamma 90.000000
_cell_volume 8100.740015
_symmetry_space_group_name_H-M "I 41/A C D"
_symmetry_group_IT_number 142
_space_group.IT_coordinate_system_code '2'
_symmetry_cell_setting 'tetragonal'
loop_
_space_group_symop_operation_xyz
x,y,z
1/4-y,3/4+x,1/4+z
-x,1/2-y,z
1/4+y,1/4-x,3/4+z
x,-y,1/2-z
1/2-x,y,-z
3/4+y,1/4+x,1/4-z
1/4-y,1/4-x,1/4-z
-x,-y,-z
3/4+y,1/4-x,3/4-z
x,1/2+y,-z
3/4-y,3/4+x,1/4-z
-x,y,1/2+z
1/2+x,-y,z
1/4-y,3/4-x,3/4+z
3/4+y,3/4+x,3/4+z
1/2+x,1/2+y,1/2+z
3/4-y,1/4+x,3/4+z
1/2-x,-y,1/2+z
3/4+y,3/4-x,1/4+z
1/2+x,1/2-y,-z
-x,1/2+y,1/2-z
1/4+y,3/4+x,3/4-z
3/4-y,3/4-x,3/4-z
1/2-x,1/2-y,1/2-z
1/4+y,3/4-x,1/4-z
1/2+x,y,1/2-z
1/4-y,1/4+x,3/4-z
1/2-x,1/2+y,z
x,1/2-y,1/2+z
3/4-y,1/4-x,1/4+z
1/4+y,1/4+x,1/4+z
loop_
_atom_site_type_symbol
_atom_site_label
_atom_site_fract_x
_atom_site_fract_y
_atom_site_fract_z
Si Si1 0.485006 0.087825 0.740759
Si Si2 0.205651 0.500000 0.250000
Si Si3 0.355976 0.605976 0.125000
Si Si4 0.402663 0.441152 0.663589
Si Si5 0.664052 0.447961 0.684003
Si Si6 0.476349 0.394952 0.855577
O O1 0.533382 0.110418 0.690431
O O2 0.399327 0.081055 0.723023
O O3 0.500369 0.125035 0.795979
O O4 0.507785 0.000000 0.750000
O O5 0.155827 0.453949 0.289921
O O6 0.257614 0.552878 0.285504
O O7 0.285468 0.596127 0.085090
O O8 0.445574 0.599922 0.111941
O O9 0.355243 0.411384 0.615612
O O10 0.438092 0.522067 0.646434
O O11 0.417226 0.332775 0.875000
#
# Coordination Sequence:
#
# PCOD9573707 Si02
#       6
#    32  16  16  32  32  32
#     4  10  20  41  63  87 130 170 203 271 344 381
#     4  12  18  32  60  98 118 150 214 278 326 378
#     4  12  21  36  62  92 128 167 214 272 326 408
#     4  11  22  35  63  94 127 164 218 276 327 398
#     4  12  22  37  65  96 126 170 221 273 339 397
#     4  11  22  40  65  94 127 174 219 273 338 400
#
# _framework density 19.751282
#
# number of rings (size 3 to 8) (size 9 to 14) (size 15 to 20)
#    0.000    0.800   10.000    1.500    0.000    0.000 
#    0.000    0.000   13.200    8.400    0.000    0.000 
#    0.000    0.000    0.000    0.000    0.000    0.000 
#
# Total GULP energy -445789.199191 kJ/mol
# GULP energy per Si atom -5572.364990 kJ/mol
# Density = 1.970633 g / cm^3
# Si number density = 19.751282 Si / 1000 Ang^3
#
#
#
# Elastic Constant Matrix: (Units=GPa)
#
#
# Indices 1 2 3 4 5 6 
#
# 1 62.3488 23.3333 21.6928 0.0000 0.0000 0.0000
# 2 23.3333 62.3473 21.6929 0.0000 0.0000 0.0000
# 3 21.6928 21.6929 85.7517 0.0000 0.0000 0.0000
# 4 0.0000 0.0000 0.0000 23.5868 0.0000 0.0000
# 5 0.0000 0.0000 0.0000 0.0000 23.5867 0.0000
# 6 0.0000 0.0000 0.0000 0.0000 0.0000 11.8313
#
#
#
# Elastic Compliance Matrix: (Units=1/GPa)
#
#
# Indices 1 2 3 4 5 6 
#
# 1 0.019508 -0.006123 -0.003386 0.000000 0.000000 0.000000
# 2 -0.006123 0.019509 -0.003386 0.000000 0.000000 0.000000
# 3 -0.003386 -0.003386 0.013375 0.000000 0.000000 0.000000
# 4 0.000000 0.000000 0.000000 0.042397 0.000000 0.000000
# 5 0.000000 0.000000 0.000000 0.000000 0.042397 0.000000
# 6 0.000000 0.000000 0.000000 0.000000 0.000000 0.084521
#
#
# Mechanical properties :
#
#
# Convention : Reuss Voigt Hill
#
# Bulk Modulus (GPa) = 37.59190 38.20953 37.90071
# Shear Modulus (GPa) = 19.50349 21.38290 20.44320
#
# Velocity S-wave (km/s) = 3.14579 3.29387 3.22068
# Velocity P-wave (km/s) = 5.68055 5.81837 5.74987
#
# Compressibility (1/GPa) = 0.02660148
#
# Stress axis : x y z
#
# Youngs Moduli (GPa) = 51.26023 51.25888 74.76732
#
# Poissons Ratio (x) = 0.31385 0.25317
# Poissons Ratio (y) = 0.31385 0.25319
# Poissons Ratio (z) = 0.17358 0.17358
#
# Static dielectric constant tensor:
#      x y z
#    x 1.727630 0.000000 0.000000 
#    y 0.000000 1.727630 0.000000 
#    z 0.000000 0.000000 1.747160 
# 
# From -- ./inp_files/11367.got.cif
#   From: 2010.05.17/outbox.cif.g08.bks.cpg/sg142_6_cif.got.tgz:11367.got - 2010.05.20 13:39:18.
