data_PCOD9573447
_publ_section_title
;
Structure prediction by ZEFSAII (Michael W. Deem and Ramdas Pophale) SiO2 
 PCOD9573447
Probable space group: I 41/A C D
;
_chemical_formula_sum "Si O2"
_cell_formula_units_Z 192
_cell_length_a 21.353643
_cell_length_b 21.353643
_cell_length_c 23.624045
_cell_angle_alpha 90.000000
_cell_angle_beta 90.000000
_cell_angle_gamma 90.000000
_cell_volume 10772.046430
_symmetry_space_group_name_H-M "I 41/A C D"
_symmetry_group_IT_number 142
_space_group.IT_coordinate_system_code '2'
_symmetry_cell_setting 'tetragonal'
loop_
_space_group_symop_operation_xyz
x,y,z
1/4-y,3/4+x,1/4+z
-x,1/2-y,z
1/4+y,1/4-x,3/4+z
x,-y,1/2-z
1/2-x,y,-z
3/4+y,1/4+x,1/4-z
1/4-y,1/4-x,1/4-z
-x,-y,-z
3/4+y,1/4-x,3/4-z
x,1/2+y,-z
3/4-y,3/4+x,1/4-z
-x,y,1/2+z
1/2+x,-y,z
1/4-y,3/4-x,3/4+z
3/4+y,3/4+x,3/4+z
1/2+x,1/2+y,1/2+z
3/4-y,1/4+x,3/4+z
1/2-x,-y,1/2+z
3/4+y,3/4-x,1/4+z
1/2+x,1/2-y,-z
-x,1/2+y,1/2-z
1/4+y,3/4+x,3/4-z
3/4-y,3/4-x,3/4-z
1/2-x,1/2-y,1/2-z
1/4+y,3/4-x,1/4-z
1/2+x,y,1/2-z
1/4-y,1/4+x,3/4-z
1/2-x,1/2+y,z
x,1/2-y,1/2+z
3/4-y,1/4-x,1/4+z
1/4+y,1/4+x,1/4+z
loop_
_atom_site_type_symbol
_atom_site_label
_atom_site_fract_x
_atom_site_fract_y
_atom_site_fract_z
Si Si1 0.440704 0.513516 0.041724
Si Si2 0.320681 0.903755 0.506290
Si Si3 0.980166 0.818397 0.274726
Si Si4 0.373668 0.296803 0.691732
Si Si5 0.086271 0.339598 0.819975
Si Si6 0.651022 0.302810 0.898193
O O1 0.377401 0.548198 0.020388
O O2 0.422892 0.443862 0.060252
O O3 0.462051 0.553936 0.096092
O O4 0.500000 0.500000 0.000000
O O5 0.250000 0.928685 0.500000
O O6 0.346932 0.869522 0.450158
O O7 0.319242 0.850720 0.555837
O O8 0.911948 0.815320 0.247544
O O9 0.000000 0.750000 0.297474
O O10 0.027551 0.829849 0.221989
O O11 0.993389 0.872604 0.319422
O O12 0.409225 0.316236 0.634729
O O13 0.370943 0.221222 0.690725
O O14 0.591808 0.341808 0.875000
#
# Coordination Sequence:
#
# PCOD9573447 Si02
#       6
#    32  32  32  32  32  32
#     4  11  22  38  58  82 118 162 202 249 299 357
#     4  10  20  38  61  82 110 159 209 240 291 370
#     4   9  19  31  54  88 114 145 187 246 305 357
#     4  11  19  33  57  87 119 147 187 250 315 356
#     4  10  18  32  57  88 115 142 189 246 301 365
#     4   9  20  37  56  82 113 152 199 241 296 370
#
# _framework density 17.823910999999999
#
# number of rings (size 3 to 8) (size 9 to 14) (size 15 to 20)
#    0.000    2.000    3.333    1.000    2.333    0.333 
#    0.000    0.000    3.667    2.000    0.000    0.000 
#    0.000    0.000    0.000    0.000    0.000    0.000 
#
# Total GULP energy -534941.508368 kJ/mol
# GULP energy per Si atom -5572.307379 kJ/mol
# Density = 1.778334 g / cm^3
# Si number density = 17.823911 Si / 1000 Ang^3
#
#
#
# Elastic Constant Matrix: (Units=GPa)
#
#
# Indices 1 2 3 4 5 6 
#
# 1 94.7583 43.8712 42.4656 0.0000 0.0000 0.0000
# 2 43.8712 94.7583 42.4656 0.0000 0.0000 0.0000
# 3 42.4656 42.4656 87.9631 0.0000 0.0000 0.0000
# 4 0.0000 0.0000 0.0000 24.1355 0.0000 0.0000
# 5 0.0000 0.0000 0.0000 0.0000 24.1355 0.0000
# 6 0.0000 0.0000 0.0000 0.0000 0.0000 21.3755
#
#
#
# Elastic Compliance Matrix: (Units=1/GPa)
#
#
# Indices 1 2 3 4 5 6 
#
# 1 0.014947 -0.004704 -0.004945 0.000000 0.000000 0.000000
# 2 -0.004704 0.014947 -0.004945 0.000000 0.000000 0.000000
# 3 -0.004945 -0.004945 0.016143 0.000000 0.000000 0.000000
# 4 0.000000 0.000000 0.000000 0.041433 0.000000 0.000000
# 5 0.000000 0.000000 0.000000 0.000000 0.041433 0.000000
# 6 0.000000 0.000000 0.000000 0.000000 0.000000 0.046782
#
#
# Mechanical properties :
#
#
# Convention : Reuss Voigt Hill
#
# Bulk Modulus (GPa) = 59.35053 59.45381 59.40217
# Shear Modulus (GPa) = 23.75412 23.84113 23.79763
#
# Velocity S-wave (km/s) = 3.65459 3.66128 3.65794
# Velocity P-wave (km/s) = 7.15392 7.16254 7.15823
#
# Compressibility (1/GPa) = 0.01684905
#
# Stress axis : x y z
#
# Youngs Moduli (GPa) = 66.90227 66.90227 61.94664
#
# Poissons Ratio (x) = 0.31472 0.30632
# Poissons Ratio (y) = 0.31472 0.30632
# Poissons Ratio (z) = 0.33083 0.33083
#
# Static dielectric constant tensor:
#      x y z
#    x 1.621230 0.000000 0.000000 
#    y 0.000000 1.621230 0.000000 
#    z 0.000000 0.000000 1.675340 
# 
# From -- ./inp_files/11613.got.cif
#   From: 2010.05.17/outbox.cif.g08.bks.cpg/sg142_6_cif.got.tgz:11613.got - 2010.05.20 13:39:18.
