data_PCOD9573477
_publ_section_title
;
Structure prediction by ZEFSAII (Michael W. Deem and Ramdas Pophale) SiO2 
 PCOD9573477
Probable space group: I 41/A C D
;
_chemical_formula_sum "Si O2"
_cell_formula_units_Z 96
_cell_length_a 16.078086
_cell_length_b 16.078086
_cell_length_c 13.601488
_cell_angle_alpha 90.000000
_cell_angle_beta 90.000000
_cell_angle_gamma 90.000000
_cell_volume 3516.050607
_symmetry_space_group_name_H-M "I 41/A C D"
_symmetry_group_IT_number 142
_space_group.IT_coordinate_system_code '2'
_symmetry_cell_setting 'tetragonal'
loop_
_space_group_symop_operation_xyz
x,y,z
1/4-y,3/4+x,1/4+z
-x,1/2-y,z
1/4+y,1/4-x,3/4+z
x,-y,1/2-z
1/2-x,y,-z
3/4+y,1/4+x,1/4-z
1/4-y,1/4-x,1/4-z
-x,-y,-z
3/4+y,1/4-x,3/4-z
x,1/2+y,-z
3/4-y,3/4+x,1/4-z
-x,y,1/2+z
1/2+x,-y,z
1/4-y,3/4-x,3/4+z
3/4+y,3/4+x,3/4+z
1/2+x,1/2+y,1/2+z
3/4-y,1/4+x,3/4+z
1/2-x,-y,1/2+z
3/4+y,3/4-x,1/4+z
1/2+x,1/2-y,-z
-x,1/2+y,1/2-z
1/4+y,3/4+x,3/4-z
3/4-y,3/4-x,3/4-z
1/2-x,1/2-y,1/2-z
1/4+y,3/4-x,1/4-z
1/2+x,y,1/2-z
1/4-y,1/4+x,3/4-z
1/2-x,1/2+y,z
x,1/2-y,1/2+z
3/4-y,1/4-x,1/4+z
1/4+y,1/4+x,1/4+z
loop_
_atom_site_type_symbol
_atom_site_label
_atom_site_fract_x
_atom_site_fract_y
_atom_site_fract_z
Si Si1 0.117470 0.011303 0.133806
Si Si2 0.100998 0.149003 0.625000
Si Si3 0.879427 0.265861 0.822825
Si Si4 0.750000 0.592403 0.000000
O O1 0.035536 0.966506 0.093250
O O2 0.188685 0.963707 0.067893
O O3 0.118854 0.000000 0.250000
O O4 0.142183 0.107818 0.125000
O O5 0.098048 0.216652 0.710343
O O6 0.188518 0.146057 0.566673
O O7 0.914939 0.179626 0.862386
#
# Coordination Sequence:
#
# PCOD9573477 Si02
#       4
#    32  16  32  16
#     4  11  19  39  64  94 130 171 225 289 340 417
#     4  10  20  41  68  98 136 186 228 293 356 418
#     4  10  24  46  67  97 139 188 233 282 356 434
#     4  10  18  36  66  92 136 178 216 282 360 410
#
# _framework density 27.303362
#
# number of rings (size 3 to 8) (size 9 to 14) (size 15 to 20)
#    0.000    1.667    3.333    2.000    0.000    2.667 
#   18.000    8.333    0.000    0.000    0.000    0.000 
#    0.000    0.000    0.000    0.000    0.000    0.000 
#
# Total GULP energy -268763.696288 kJ/mol
# GULP energy per Si atom -5599.243673 kJ/mol
# Density = 2.724122 g / cm^3
# Si number density = 27.303362 Si / 1000 Ang^3
#
#
#
# Elastic Constant Matrix: (Units=GPa)
#
#
# Indices 1 2 3 4 5 6 
#
# 1 65.9327 94.8519 55.1487 0.0000 0.0000 0.0000
# 2 94.8519 65.9305 55.1505 0.0000 0.0000 0.0000
# 3 55.1487 55.1505 253.1132 0.0000 0.0000 0.0000
# 4 0.0000 0.0000 0.0000 47.5381 0.0000 0.0000
# 5 0.0000 0.0000 0.0000 0.0000 47.5371 0.0000
# 6 0.0000 0.0000 0.0000 0.0000 0.0000 69.1166
#
#
#
# Elastic Compliance Matrix: (Units=1/GPa)
#
#
# Indices 1 2 3 4 5 6 
#
# 1 -0.013632 0.020945 -0.001594 0.000000 0.000000 0.000000
# 2 0.020945 -0.013633 -0.001593 0.000000 0.000000 0.000000
# 3 -0.001594 -0.001593 0.004645 0.000000 0.000000 0.000000
# 4 0.000000 0.000000 0.000000 0.021036 0.000000 0.000000
# 5 0.000000 0.000000 0.000000 0.000000 0.021036 0.000000
# 6 0.000000 0.000000 0.000000 0.000000 0.000000 0.014468
#
#
# Mechanical properties :
#
#
# Convention : Reuss Voigt Hill
#
# Bulk Modulus (GPa) = 77.53717 88.36432 82.95074
# Shear Modulus (GPa) = 1850.44968 44.82671 947.63819
#
# Velocity S-wave (km/s) = 26.06162 4.05631 18.65023
# Velocity P-wave (km/s) = 30.56258 7.37376 22.23110
#
# Compressibility (1/GPa) = 0.01289704
#
# Stress axis : x y z
#
# Youngs Moduli (GPa) = -73.35561 -73.35151 215.27998
#
# Poissons Ratio (x) = 1.53636 0.34305
# Poissons Ratio (y) = 1.53645 0.34296
# Poissons Ratio (z) = -0.11689 -0.11686
#
# Static dielectric constant tensor:
#      x y z
#    x 2.187410 0.000000 0.000000 
#    y 0.000000 2.187420 0.000000 
#    z 0.000000 0.000000 2.080780 
# 
# From -- ./inp_files/3248.got.cif
#   From: 2010.05.17/outbox.cif.g08.bks.cpg/sg142_2_cif.got.tgz:3248.got - 2010.05.20 13:39:18.
