data_PCOD9573515
_publ_section_title
;
Structure prediction by ZEFSAII (Michael W. Deem and Ramdas Pophale) SiO2 
 PCOD9573515
Probable space group: I 41/A C D
;
_chemical_formula_sum "Si O2"
_cell_formula_units_Z 176
_cell_length_a 17.841173
_cell_length_b 17.841173
_cell_length_c 28.926670
_cell_angle_alpha 90.000000
_cell_angle_beta 90.000000
_cell_angle_gamma 90.000000
_cell_volume 9207.574681
_symmetry_space_group_name_H-M "I 41/A C D"
_symmetry_group_IT_number 142
_space_group.IT_coordinate_system_code '2'
_symmetry_cell_setting 'tetragonal'
loop_
_space_group_symop_operation_xyz
x,y,z
1/4-y,3/4+x,1/4+z
-x,1/2-y,z
1/4+y,1/4-x,3/4+z
x,-y,1/2-z
1/2-x,y,-z
3/4+y,1/4+x,1/4-z
1/4-y,1/4-x,1/4-z
-x,-y,-z
3/4+y,1/4-x,3/4-z
x,1/2+y,-z
3/4-y,3/4+x,1/4-z
-x,y,1/2+z
1/2+x,-y,z
1/4-y,3/4-x,3/4+z
3/4+y,3/4+x,3/4+z
1/2+x,1/2+y,1/2+z
3/4-y,1/4+x,3/4+z
1/2-x,-y,1/2+z
3/4+y,3/4-x,1/4+z
1/2+x,1/2-y,-z
-x,1/2+y,1/2-z
1/4+y,3/4+x,3/4-z
3/4-y,3/4-x,3/4-z
1/2-x,1/2-y,1/2-z
1/4+y,3/4-x,1/4-z
1/2+x,y,1/2-z
1/4-y,1/4+x,3/4-z
1/2-x,1/2+y,z
x,1/2-y,1/2+z
3/4-y,1/4-x,1/4+z
1/4+y,1/4+x,1/4+z
loop_
_atom_site_type_symbol
_atom_site_label
_atom_site_fract_x
_atom_site_fract_y
_atom_site_fract_z
Si Si1 0.477047 0.111361 0.679788
Si Si2 0.136417 0.947267 0.449418
Si Si3 0.750000 0.342755 0.000000
Si Si4 0.000000 0.250000 0.193992
Si Si5 0.912846 0.162846 0.625000
Si Si6 0.123278 0.725675 0.733348
Si Si7 0.104040 0.902056 0.083233
O O1 0.459623 0.054714 0.721048
O O2 0.436222 0.186003 0.698905
O O3 0.565697 0.119523 0.670920
O O4 0.432239 0.088785 0.633680
O O5 0.207011 0.895872 0.463375
O O6 0.091456 0.910829 0.406234
O O7 0.083000 0.930787 0.493764
O O8 0.158105 0.030458 0.432838
O O9 0.020774 0.178717 0.161900
O O10 0.072139 0.260962 0.226120
O O11 0.163207 0.787736 0.703643
#
# Coordination Sequence:
#
# PCOD9573515 Si02
#       7
#    32  32  16  16  16  32  32
#     4  11  22  36  64  89 123 154 210 256 317 363
#     4  10  22  37  59  81 124 163 203 246 315 378
#     4  10  24  44  58  88 120 170 208 258 312 398
#     4   9  16  30  59  84 120 152 203 254 294 357
#     4   9  18  34  54  86 112 162 204 245 300 366
#     4  10  19  35  56  89 118 154 197 256 304 358
#     4  12  21  36  60  92 118 157 200 265 310 372
#
# _framework density 19.114695999999999
#
# number of rings (size 3 to 8) (size 9 to 14) (size 15 to 20)
#    0.000    1.636    3.636    1.636    0.000    0.727 
#    0.000    0.000    0.000    0.000    0.000    0.000 
#    0.000    0.000    0.000    0.000    0.000    0.000 
#
# Total GULP energy -490050.713664 kJ/mol
# GULP energy per Si atom -5568.758110 kJ/mol
# Density = 1.907119 g / cm^3
# Si number density = 19.114696 Si / 1000 Ang^3
#
#
#
# Elastic Constant Matrix: (Units=GPa)
#
#
# Indices 1 2 3 4 5 6 
#
# 1 49.6921 4.6261 1.7912 0.0000 0.0000 0.0000
# 2 4.6261 49.6921 1.7912 0.0000 0.0000 0.0000
# 3 1.7912 1.7912 69.8356 0.0000 0.0000 0.0000
# 4 0.0000 0.0000 0.0000 8.0241 0.0000 0.0000
# 5 0.0000 0.0000 0.0000 0.0000 8.0241 0.0000
# 6 0.0000 0.0000 0.0000 0.0000 0.0000 2.5469
#
#
#
# Elastic Compliance Matrix: (Units=1/GPa)
#
#
# Indices 1 2 3 4 5 6 
#
# 1 0.020315 -0.001874 -0.000473 0.000000 0.000000 0.000000
# 2 -0.001874 0.020315 -0.000473 0.000000 0.000000 0.000000
# 3 -0.000473 -0.000473 0.014344 0.000000 0.000000 0.000000
# 4 0.000000 0.000000 0.000000 0.124625 0.000000 0.000000
# 5 0.000000 0.000000 0.000000 0.000000 0.124625 0.000000
# 6 0.000000 0.000000 0.000000 0.000000 0.000000 0.392635
#
#
# Mechanical properties :
#
#
# Convention : Reuss Voigt Hill
#
# Bulk Modulus (GPa) = 20.26996 20.62631 20.44813
# Shear Modulus (GPa) = 6.95464 14.45308 10.70386
#
# Velocity S-wave (km/s) = 1.90952 2.75275 2.36896
# Velocity P-wave (km/s) = 3.93562 4.57360 4.26655
#
# Compressibility (1/GPa) = 0.04933409
#
# Stress axis : x y z
#
# Youngs Moduli (GPa) = 49.22358 49.22358 69.71742
#
# Poissons Ratio (x) = 0.09226 0.03298
# Poissons Ratio (y) = 0.09226 0.03298
# Poissons Ratio (z) = 0.02328 0.02328
#
# Static dielectric constant tensor:
#      x y z
#    x 1.707720 0.000000 0.000000 
#    y 0.000000 1.707720 0.000000 
#    z 0.000000 0.000000 1.687860 
# 
# From -- ./inp_files/11510.got.cif
#   From: 2010.05.17/outbox.cif.g08.bks.cpg/sg142_6_cif.got.tgz:11510.got - 2010.05.20 13:39:18.
