data_PCOD9573058
_publ_section_title
;
Structure prediction by ZEFSAII (Michael W. Deem and Ramdas Pophale) SiO2 
 PCOD9573058
Probable space group: I 41/A M D
;
_chemical_formula_sum "Si O2"
_cell_formula_units_Z 160
_cell_length_a 17.528583
_cell_length_b 17.528583
_cell_length_c 25.652191
_cell_angle_alpha 90.000000
_cell_angle_beta 90.000000
_cell_angle_gamma 90.000000
_cell_volume 7881.667031
_symmetry_space_group_name_H-M "I 41/A M D"
_symmetry_group_IT_number 141
_space_group.IT_coordinate_system_code '2'
_symmetry_cell_setting 'tetragonal'
loop_
_space_group_symop_operation_xyz
x,y,z
1/4-y,3/4+x,1/4+z
-x,1/2-y,z
1/4+y,1/4-x,3/4+z
x,-y,-z
-x,1/2+y,-z
1/4+y,3/4+x,1/4-z
1/4-y,1/4-x,3/4-z
-x,-y,-z
3/4+y,1/4-x,3/4-z
x,1/2+y,-z
3/4-y,3/4+x,1/4-z
-x,y,z
x,1/2-y,z
3/4-y,1/4-x,3/4+z
3/4+y,3/4+x,1/4+z
1/2+x,1/2+y,1/2+z
3/4-y,1/4+x,3/4+z
1/2-x,-y,1/2+z
3/4+y,3/4-x,1/4+z
1/2+x,1/2-y,1/2-z
1/2-x,y,1/2-z
3/4+y,1/4+x,3/4-z
3/4-y,3/4-x,1/4-z
1/2-x,1/2-y,1/2-z
1/4+y,3/4-x,1/4-z
1/2+x,y,1/2-z
1/4-y,1/4+x,3/4-z
1/2-x,1/2+y,1/2+z
1/2+x,-y,1/2+z
1/4-y,3/4-x,1/4+z
1/4+y,1/4+x,3/4+z
loop_
_atom_site_type_symbol
_atom_site_label
_atom_site_fract_x
_atom_site_fract_y
_atom_site_fract_z
Si Si1 0.588730 0.091336 0.670312
Si Si2 0.586738 0.437026 0.375095
Si Si3 0.092314 0.839984 0.971501
Si Si4 0.409489 0.101764 0.960197
Si Si5 0.321007 0.157588 0.171929
O O1 0.500000 0.076161 0.680861
O O2 0.596904 0.153097 0.625000
O O3 0.619721 0.121667 0.724762
O O4 0.623078 0.014696 0.645696
O O5 0.500000 0.455823 0.391003
O O6 0.620443 0.391510 0.423760
O O7 0.587790 0.381564 0.325812
O O8 0.110376 0.750000 0.962779
O O9 0.000000 0.843583 0.975373
O O10 0.500000 0.110534 0.958598
O O11 0.392953 0.019017 0.933457
O O12 0.387617 0.105927 0.021041
O O13 0.360002 0.110002 0.125000
O O14 0.329657 0.250000 0.163408
#
# Coordination Sequence:
#
# PCOD9573058 Si02
#       5
#    32  32  32  32  32
#     4  10  21  36  54  78 107 139 178 222 267 317
#     4  10  21  35  53  80 108 136 179 228 265 308
#     4   9  18  34  56  80 108 143 178 214 265 325
#     4   9  19  36  54  74 107 146 177 213 270 329
#     4   9  19  35  55  80 107 138 180 225 266 314
#
# _framework density 20.300273000000001
#
# number of rings (size 3 to 8) (size 9 to 14) (size 15 to 20)
#    0.000    2.600    0.000    2.400    0.000    6.400 
#    0.000   11.000    0.000    0.000    0.000    0.000 
#    0.000    0.000    0.000    0.000    0.000    0.000 
#
# Total GULP energy -445598.550926 kJ/mol
# GULP energy per Si atom -5569.981887 kJ/mol
# Density = 2.025407 g / cm^3
# Si number density = 20.300273 Si / 1000 Ang^3
#
#
#
# Elastic Constant Matrix: (Units=GPa)
#
#
# Indices 1 2 3 4 5 6 
#
# 1 26.4305 39.7403 51.5407 0.0000 0.0000 0.0000
# 2 39.7403 26.4273 51.5385 0.0000 0.0000 0.0000
# 3 51.5407 51.5385 148.9229 0.0000 0.0000 0.0000
# 4 0.0000 0.0000 0.0000 105.2260 0.0000 0.0000
# 5 0.0000 0.0000 0.0000 0.0000 105.0820 0.0000
# 6 0.0000 0.0000 0.0000 0.0000 0.0000 -16.7567
#
#
#
# Elastic Compliance Matrix: (Units=1/GPa)
#
#
# Indices 1 2 3 4 5 6 
#
# 1 -0.021164 0.053958 -0.011349 0.000000 0.000000 0.000000
# 2 0.053958 -0.021168 -0.011349 0.000000 0.000000 0.000000
# 3 -0.011349 -0.011349 0.014570 0.000000 0.000000 0.000000
# 4 0.000000 0.000000 0.000000 0.009503 0.000000 0.000000
# 5 0.000000 0.000000 0.000000 0.000000 0.009516 0.000000
# 6 0.000000 0.000000 0.000000 0.000000 0.000000 -0.059678
#
#
# Mechanical properties :
#
#
# Convention : Reuss Voigt Hill
#
# Bulk Modulus (GPa) = 28.76943 54.15773 41.46358
# Shear Modulus (GPa) = -41.89221 42.64101 0.37440
#
# Velocity S-wave (km/s) = -4.54765 4.58811 0.42992
# Velocity P-wave (km/s) = 3.65678 7.40297 4.55147
#
# Compressibility (1/GPa) = 0.03475912
#
# Stress axis : x y z
#
# Youngs Moduli (GPa) = -47.25053 -47.24141 68.63389
#
# Poissons Ratio (x) = 2.54904 0.77892
# Poissons Ratio (y) = 2.54953 0.77890
# Poissons Ratio (z) = -0.53624 -0.53612
#
# Static dielectric constant tensor:
#      x y z
#    x 1.786890 0.000000 0.000000 
#    y 0.000000 1.786890 0.000000 
#    z 0.000000 0.000000 1.398880 
# 
# From -- ./inp_files/12747.got.cif
#   From: 2010.05.17/outbox.cif.g08.bks.cpg/sg141_7_cif.got.tgz:12747.got - 2010.05.20 13:30:51.
