data_PCOD9573095
_publ_section_title
;
Structure prediction by ZEFSAII (Michael W. Deem and Ramdas Pophale) SiO2 
 PCOD9573095
Probable space group: I 41/A M D
;
_chemical_formula_sum "Si O2"
_cell_formula_units_Z 112
_cell_length_a 33.242308
_cell_length_b 33.242308
_cell_length_c 5.175223
_cell_angle_alpha 90.000000
_cell_angle_beta 90.000000
_cell_angle_gamma 90.000000
_cell_volume 5718.885564
_symmetry_space_group_name_H-M "I 41/A M D"
_symmetry_group_IT_number 141
_space_group.IT_coordinate_system_code '2'
_symmetry_cell_setting 'tetragonal'
loop_
_space_group_symop_operation_xyz
x,y,z
1/4-y,3/4+x,1/4+z
-x,1/2-y,z
1/4+y,1/4-x,3/4+z
x,-y,-z
-x,1/2+y,-z
1/4+y,3/4+x,1/4-z
1/4-y,1/4-x,3/4-z
-x,-y,-z
3/4+y,1/4-x,3/4-z
x,1/2+y,-z
3/4-y,3/4+x,1/4-z
-x,y,z
x,1/2-y,z
3/4-y,1/4-x,3/4+z
3/4+y,3/4+x,1/4+z
1/2+x,1/2+y,1/2+z
3/4-y,1/4+x,3/4+z
1/2-x,-y,1/2+z
3/4+y,3/4-x,1/4+z
1/2+x,1/2-y,1/2-z
1/2-x,y,1/2-z
3/4+y,1/4+x,3/4-z
3/4-y,3/4-x,1/4-z
1/2-x,1/2-y,1/2-z
1/4+y,3/4-x,1/4-z
1/2+x,y,1/2-z
1/4-y,1/4+x,3/4-z
1/2-x,1/2+y,1/2+z
1/2+x,-y,1/2+z
1/4-y,3/4-x,1/4+z
1/4+y,1/4+x,3/4+z
loop_
_atom_site_type_symbol
_atom_site_label
_atom_site_fract_x
_atom_site_fract_y
_atom_site_fract_z
Si Si1 0.705619 0.955619 0.875000
Si Si2 0.954924 0.141433 0.772807
Si Si3 0.338322 0.204152 0.024970
Si Si4 0.380706 0.972669 0.745748
O O1 0.750000 0.954711 0.750000
O O2 0.664286 0.954061 0.709100
O O3 0.923588 0.173588 0.875000
O O4 0.947006 0.122623 0.491554
O O5 0.000000 0.158621 0.768223
O O6 0.954235 0.106378 0.987380
O O7 0.322516 0.250000 0.074945
O O8 0.308049 0.167058 0.038273
O O9 0.389616 0.000000 0.500000
O O10 0.378889 0.000000 0.000000
#
# Coordination Sequence:
#
# PCOD9573095 Si02
#       4
#    16  32  32  32
#     4  10  22  40  62  86 124 160 201 262 308 364
#     4  10  21  37  60  88 121 160 202 247 309 366
#     4  10  22  40  60  90 124 159 202 256 311 368
#     4  11  24  40  61  91 117 159 211 247 313 378
#
# _framework density 19.584237000000002
#
# number of rings (size 3 to 8) (size 9 to 14) (size 15 to 20)
#    0.000    1.714    0.000    3.429    4.000    4.857 
#    0.000    0.000    0.000    5.143    0.000    0.000 
#    0.000    0.000    0.000    0.000    0.000    0.000 
#
# Total GULP energy -312277.572215 kJ/mol
# GULP energy per Si atom -5576.385218 kJ/mol
# Density = 1.953966 g / cm^3
# Si number density = 19.584237 Si / 1000 Ang^3
#
#
#
# Elastic Constant Matrix: (Units=GPa)
#
#
# Indices 1 2 3 4 5 6 
#
# 1 106.4109 72.9336 -5.1990 0.0000 0.0000 0.0000
# 2 72.9336 106.4109 -5.1990 0.0000 0.0000 0.0000
# 3 -5.1990 -5.1990 61.5492 0.0000 0.0000 0.0000
# 4 0.0000 0.0000 0.0000 26.5430 0.0000 0.0000
# 5 0.0000 0.0000 0.0000 0.0000 26.5430 0.0000
# 6 0.0000 0.0000 0.0000 0.0000 0.0000 38.0837
#
#
#
# Elastic Compliance Matrix: (Units=1/GPa)
#
#
# Indices 1 2 3 4 5 6 
#
# 1 0.017737 -0.012134 0.000473 0.000000 0.000000 0.000000
# 2 -0.012134 0.017737 0.000473 0.000000 0.000000 0.000000
# 3 0.000473 0.000473 0.016327 0.000000 0.000000 0.000000
# 4 0.000000 0.000000 0.000000 0.037675 0.000000 0.000000
# 5 0.000000 0.000000 0.000000 0.000000 0.037675 0.000000
# 6 0.000000 0.000000 0.000000 0.000000 0.000000 0.026258
#
#
# Mechanical properties :
#
#
# Convention : Reuss Voigt Hill
#
# Bulk Modulus (GPa) = 33.98245 44.38247 39.18246
# Shear Modulus (GPa) = 26.94080 32.35632 29.64856
#
# Velocity S-wave (km/s) = 3.71298 4.06909 3.89511
# Velocity P-wave (km/s) = 5.98091 6.69240 6.34663
#
# Compressibility (1/GPa) = 0.02942695
#
# Stress axis : x y z
#
# Youngs Moduli (GPa) = 56.37888 56.37888 61.24773
#
# Poissons Ratio (x) = 0.68409 -0.02899
# Poissons Ratio (y) = 0.68409 -0.02899
# Poissons Ratio (z) = -0.02668 -0.02668
#
# Static dielectric constant tensor:
#      x y z
#    x 1.703000 0.000000 0.000000 
#    y 0.000000 1.703000 0.000000 
#    z 0.000000 0.000000 1.676800 
# 
# From -- ./inp_files/1297.got.cif
#   From: 2010.05.17/outbox.cif.g08.bks.cpg/sg141_1_cif.got.tgz:1297.got - 2010.05.20 13:30:51.
