data_PCOD9573501
_publ_section_title
;
Structure prediction by ZEFSAII (Michael W. Deem and Ramdas Pophale) SiO2 
 PCOD9573501
Probable space group: I 41/A C D
;
_chemical_formula_sum "Si O2"
_cell_formula_units_Z 112
_cell_length_a 13.685024
_cell_length_b 13.685024
_cell_length_c 30.081075
_cell_angle_alpha 90.000000
_cell_angle_beta 90.000000
_cell_angle_gamma 90.000000
_cell_volume 5633.580173
_symmetry_space_group_name_H-M "I 41/A C D"
_symmetry_group_IT_number 142
_space_group.IT_coordinate_system_code '2'
_symmetry_cell_setting 'tetragonal'
loop_
_space_group_symop_operation_xyz
x,y,z
1/4-y,3/4+x,1/4+z
-x,1/2-y,z
1/4+y,1/4-x,3/4+z
x,-y,1/2-z
1/2-x,y,-z
3/4+y,1/4+x,1/4-z
1/4-y,1/4-x,1/4-z
-x,-y,-z
3/4+y,1/4-x,3/4-z
x,1/2+y,-z
3/4-y,3/4+x,1/4-z
-x,y,1/2+z
1/2+x,-y,z
1/4-y,3/4-x,3/4+z
3/4+y,3/4+x,3/4+z
1/2+x,1/2+y,1/2+z
3/4-y,1/4+x,3/4+z
1/2-x,-y,1/2+z
3/4+y,3/4-x,1/4+z
1/2+x,1/2-y,-z
-x,1/2+y,1/2-z
1/4+y,3/4+x,3/4-z
3/4-y,3/4-x,3/4-z
1/2-x,1/2-y,1/2-z
1/4+y,3/4-x,1/4-z
1/2+x,y,1/2-z
1/4-y,1/4+x,3/4-z
1/2-x,1/2+y,z
x,1/2-y,1/2+z
3/4-y,1/4-x,1/4+z
1/4+y,1/4+x,1/4+z
loop_
_atom_site_type_symbol
_atom_site_label
_atom_site_fract_x
_atom_site_fract_y
_atom_site_fract_z
Si Si1 0.392451 0.297450 0.018735
Si Si2 0.386305 0.500000 0.250000
Si Si3 0.898773 0.310301 0.671427
Si Si4 0.580516 0.995774 0.039971
O O1 0.500000 0.250000 0.020407
O O2 0.388714 0.393410 0.048860
O O3 0.316604 0.211431 0.028119
O O4 0.379751 0.338749 0.967661
O O5 0.318637 0.423485 0.275934
O O6 0.885202 0.364799 0.625000
O O7 0.812865 0.230823 0.673992
O O8 0.000000 0.250000 0.670182
O O9 0.500000 0.000000 0.000000
#
# Coordination Sequence:
#
# PCOD9573501 Si02
#       4
#    32  16  32  32
#     4  10  19  34  53  88 115 148 195 262 305 355
#     4  12  18  32  56  80 116 158 192 258 324 344
#     4   9  16  32  56  81 113 146 191 248 295 359
#     4  10  19  33  53  85 120 145 209 255 298 365
#
# _framework density 19.880786000000001
#
# number of rings (size 3 to 8) (size 9 to 14) (size 15 to 20)
#    0.000    2.000    8.571    0.857    0.000    0.000 
#    0.000    0.000    0.000   20.571    7.429    0.000 
#    0.000    0.000    0.000    0.000    0.000    0.000 
#
# Total GULP energy -311776.342025 kJ/mol
# GULP energy per Si atom -5567.434679 kJ/mol
# Density = 1.983554 g / cm^3
# Si number density = 19.880786 Si / 1000 Ang^3
#
#
#
# Elastic Constant Matrix: (Units=GPa)
#
#
# Indices 1 2 3 4 5 6 
#
# 1 137.4756 56.4852 16.4225 0.0000 0.0000 0.0000
# 2 56.4852 137.4752 16.4223 0.0000 0.0000 0.0000
# 3 16.4225 16.4223 42.7873 0.0000 0.0000 0.0000
# 4 0.0000 0.0000 0.0000 14.5861 0.0000 0.0000
# 5 0.0000 0.0000 0.0000 0.0000 14.5724 0.0000
# 6 0.0000 0.0000 0.0000 0.0000 0.0000 53.9989
#
#
#
# Elastic Compliance Matrix: (Units=1/GPa)
#
#
# Indices 1 2 3 4 5 6 
#
# 1 0.008931 -0.003417 -0.002116 0.000000 0.000000 0.000000
# 2 -0.003417 0.008931 -0.002116 0.000000 0.000000 0.000000
# 3 -0.002116 -0.002116 0.024996 0.000000 0.000000 0.000000
# 4 0.000000 0.000000 0.000000 0.068559 0.000000 0.000000
# 5 0.000000 0.000000 0.000000 0.000000 0.068623 0.000000
# 6 0.000000 0.000000 0.000000 0.000000 0.000000 0.018519
#
#
# Mechanical properties :
#
#
# Convention : Reuss Voigt Hill
#
# Bulk Modulus (GPa) = 36.28628 55.15535 45.72081
# Shear Modulus (GPa) = 22.41724 31.85867 27.13796
#
# Velocity S-wave (km/s) = 3.36159 4.00745 3.69865
# Velocity P-wave (km/s) = 5.77569 7.01542 6.42553
#
# Compressibility (1/GPa) = 0.02755863
#
# Stress axis : x y z
#
# Youngs Moduli (GPa) = 111.97442 111.97414 40.00636
#
# Poissons Ratio (x) = 0.38257 0.08467
# Poissons Ratio (y) = 0.38257 0.08467
# Poissons Ratio (z) = 0.23698 0.23698
#
# Static dielectric constant tensor:
#      x y z
#    x 1.740060 0.000000 0.000000 
#    y 0.000000 1.740060 0.000000 
#    z 0.000000 0.000000 1.780260 
# 
# From -- ./inp_files/12196.got.cif
#   From: 2010.05.17/outbox.cif.g08.bks.cpg/sg142_7_cif.got.tgz:12196.got - 2010.05.20 13:39:18.
