data_PCOD9573206
_publ_section_title
;
Structure prediction by ZEFSAII (Michael W. Deem and Ramdas Pophale) SiO2 
 PCOD9573206
Probable space group: I 41/A M D
;
_chemical_formula_sum "Si O2"
_cell_formula_units_Z 160
_cell_length_a 21.193088
_cell_length_b 21.193088
_cell_length_c 16.510476
_cell_angle_alpha 90.000000
_cell_angle_beta 90.000000
_cell_angle_gamma 90.000000
_cell_volume 7415.630417
_symmetry_space_group_name_H-M "I 41/A M D"
_symmetry_group_IT_number 141
_space_group.IT_coordinate_system_code '2'
_symmetry_cell_setting 'tetragonal'
loop_
_space_group_symop_operation_xyz
x,y,z
1/4-y,3/4+x,1/4+z
-x,1/2-y,z
1/4+y,1/4-x,3/4+z
x,-y,-z
-x,1/2+y,-z
1/4+y,3/4+x,1/4-z
1/4-y,1/4-x,3/4-z
-x,-y,-z
3/4+y,1/4-x,3/4-z
x,1/2+y,-z
3/4-y,3/4+x,1/4-z
-x,y,z
x,1/2-y,z
3/4-y,1/4-x,3/4+z
3/4+y,3/4+x,1/4+z
1/2+x,1/2+y,1/2+z
3/4-y,1/4+x,3/4+z
1/2-x,-y,1/2+z
3/4+y,3/4-x,1/4+z
1/2+x,1/2-y,1/2-z
1/2-x,y,1/2-z
3/4+y,1/4+x,3/4-z
3/4-y,3/4-x,1/4-z
1/2-x,1/2-y,1/2-z
1/4+y,3/4-x,1/4-z
1/2+x,y,1/2-z
1/4-y,1/4+x,3/4-z
1/2-x,1/2+y,1/2+z
1/2+x,-y,1/2+z
1/4-y,3/4-x,1/4+z
1/4+y,1/4+x,3/4+z
loop_
_atom_site_type_symbol
_atom_site_label
_atom_site_fract_x
_atom_site_fract_y
_atom_site_fract_z
Si Si1 0.810141 0.618482 0.694686
Si Si2 0.233188 0.379491 0.894840
Si Si3 0.121511 0.125838 0.604986
Si Si4 0.500000 0.558783 0.437336
Si Si5 0.074774 0.750000 0.307943
Si Si6 0.931589 0.494511 0.687568
O O1 0.816181 0.566181 0.625000
O O2 0.750000 0.605382 0.750000
O O3 0.866648 0.628235 0.757572
O O4 0.925793 0.545662 0.615960
O O5 0.189321 0.439321 0.875000
O O6 0.305863 0.382619 0.864733
O O7 0.200168 0.315561 0.861567
O O8 0.242534 0.369322 0.990982
O O9 0.093640 0.190032 0.638052
O O10 0.078510 0.070758 0.640990
O O11 0.500000 0.500000 0.500000
O O12 0.500000 0.626548 0.482160
O O13 0.000000 0.750000 0.287549
O O14 0.000000 0.500446 0.726561
#
# Coordination Sequence:
#
# PCOD9573206 Si02
#       6
#    32  32  32  16  16  32
#     4  10  22  41  65  98 133 177 230 292 364 432
#     4  12  25  42  71 103 142 193 239 298 376 451
#     4  11  24  43  70 101 138 185 236 305 367 442
#     4  12  24  48  72 104 146 201 245 308 378 456
#     4  12  26  46  78 102 146 193 252 312 378 457
#     4  11  24  44  67  95 138 184 229 289 356 435
#
# _framework density 21.576049000000001
#
# number of rings (size 3 to 8) (size 9 to 14) (size 15 to 20)
#    0.000    0.800    5.000    1.800    0.000    7.600 
#    1.800    0.000    0.000    0.000    0.000    0.000 
#    0.000    0.000    0.000    0.000    0.000    0.000 
#
# Total GULP energy -446337.189514 kJ/mol
# GULP energy per Si atom -5579.214869 kJ/mol
# Density = 2.152694 g / cm^3
# Si number density = 21.576049 Si / 1000 Ang^3
#
#
#
# Elastic Constant Matrix: (Units=GPa)
#
#
# Indices 1 2 3 4 5 6 
#
# 1 91.9297 44.3511 25.0168 0.0000 0.0000 0.0000
# 2 44.3511 91.9297 25.0168 0.0000 0.0000 0.0000
# 3 25.0168 25.0168 94.3145 0.0000 0.0000 0.0000
# 4 0.0000 0.0000 0.0000 33.3923 0.0000 0.0000
# 5 0.0000 0.0000 0.0000 0.0000 33.3923 0.0000
# 6 0.0000 0.0000 0.0000 0.0000 0.0000 18.3364
#
#
#
# Elastic Compliance Matrix: (Units=1/GPa)
#
#
# Indices 1 2 3 4 5 6 
#
# 1 0.014574 -0.006444 -0.002156 0.000000 0.000000 0.000000
# 2 -0.006444 0.014574 -0.002156 0.000000 0.000000 0.000000
# 3 -0.002156 -0.002156 0.011747 0.000000 0.000000 0.000000
# 4 0.000000 0.000000 0.000000 0.029947 0.000000 0.000000
# 5 0.000000 0.000000 0.000000 0.000000 0.029947 0.000000
# 6 0.000000 0.000000 0.000000 0.000000 0.000000 0.054536
#
#
# Mechanical properties :
#
#
# Convention : Reuss Voigt Hill
#
# Bulk Modulus (GPa) = 51.59867 51.88260 51.74063
# Shear Modulus (GPa) = 27.27791 29.27679 28.27735
#
# Velocity S-wave (km/s) = 3.55951 3.68762 3.62413
# Velocity P-wave (km/s) = 6.39220 6.49846 6.44555
#
# Compressibility (1/GPa) = 0.01938035
#
# Stress axis : x y z
#
# Youngs Moduli (GPa) = 68.61695 68.61695 85.12993
#
# Poissons Ratio (x) = 0.44218 0.18357
# Poissons Ratio (y) = 0.44218 0.18357
# Poissons Ratio (z) = 0.14796 0.14796
#
# Static dielectric constant tensor:
#      x y z
#    x 1.840150 0.000000 0.000000 
#    y 0.000000 1.840150 0.000000 
#    z 0.000000 0.000000 1.800240 
# 
# From -- ./inp_files/8676.got.cif
#   From: 2010.05.17/outbox.cif.g08.bks.cpg/sg141_5_cif.got.tgz:8676.got - 2010.05.20 13:30:51.
