data_PCOD9573721
_publ_section_title
;
Structure prediction by ZEFSAII (Michael W. Deem and Ramdas Pophale) SiO2 
 PCOD9573721
Probable space group: I 41/A C D
;
_chemical_formula_sum "Si O2"
_cell_formula_units_Z 96
_cell_length_a 16.892346
_cell_length_b 16.892346
_cell_length_c 12.643783
_cell_angle_alpha 90.000000
_cell_angle_beta 90.000000
_cell_angle_gamma 90.000000
_cell_volume 3607.920591
_symmetry_space_group_name_H-M "I 41/A C D"
_symmetry_group_IT_number 142
_space_group.IT_coordinate_system_code '2'
_symmetry_cell_setting 'tetragonal'
loop_
_space_group_symop_operation_xyz
x,y,z
1/4-y,3/4+x,1/4+z
-x,1/2-y,z
1/4+y,1/4-x,3/4+z
x,-y,1/2-z
1/2-x,y,-z
3/4+y,1/4+x,1/4-z
1/4-y,1/4-x,1/4-z
-x,-y,-z
3/4+y,1/4-x,3/4-z
x,1/2+y,-z
3/4-y,3/4+x,1/4-z
-x,y,1/2+z
1/2+x,-y,z
1/4-y,3/4-x,3/4+z
3/4+y,3/4+x,3/4+z
1/2+x,1/2+y,1/2+z
3/4-y,1/4+x,3/4+z
1/2-x,-y,1/2+z
3/4+y,3/4-x,1/4+z
1/2+x,1/2-y,-z
-x,1/2+y,1/2-z
1/4+y,3/4+x,3/4-z
3/4-y,3/4-x,3/4-z
1/2-x,1/2-y,1/2-z
1/4+y,3/4-x,1/4-z
1/2+x,y,1/2-z
1/4-y,1/4+x,3/4-z
1/2-x,1/2+y,z
x,1/2-y,1/2+z
3/4-y,1/4-x,1/4+z
1/4+y,1/4+x,1/4+z
loop_
_atom_site_type_symbol
_atom_site_label
_atom_site_fract_x
_atom_site_fract_y
_atom_site_fract_z
Si Si1 0.225094 0.024907 0.125000
Si Si2 0.431529 0.500000 0.750000
Si Si3 0.928990 0.640512 0.603226
Si Si4 0.050129 0.549590 0.912886
O O1 0.130508 0.009251 0.125026
O O2 0.250080 0.000000 0.250000
O O3 0.396006 0.435608 0.668465
O O4 0.486524 0.443429 0.821251
O O5 0.895534 0.725730 0.631930
O O6 0.919803 0.624088 0.479604
O O7 0.000000 0.500000 0.000000
#
# Coordination Sequence:
#
# PCOD9573721 Si02
#       4
#    16  16  32  32
#     4  12  26  50  78 113 156 205 256 322 388 474
#     4  10  20  42  66  94 142 186 232 314 380 428
#     4  10  22  39  66 101 133 185 253 301 367 455
#     4  10  22  42  69  96 141 197 241 305 389 444
#
# _framework density 26.608124
#
# number of rings (size 3 to 8) (size 9 to 14) (size 15 to 20)
#    0.000    1.667    1.667    2.000    4.667    1.333 
#   12.000    3.333    0.000    0.000    0.000    0.000 
#    0.000    0.000    0.000    0.000    0.000    0.000 
#
# Total GULP energy -267815.071007 kJ/mol
# GULP energy per Si atom -5579.480646 kJ/mol
# Density = 2.654756 g / cm^3
# Si number density = 26.608124 Si / 1000 Ang^3
#
#
#
# Elastic Constant Matrix: (Units=GPa)
#
#
# Indices 1 2 3 4 5 6 
#
# 1 106.2317 16.9629 36.9721 0.0000 0.0000 0.0000
# 2 16.9629 106.2345 36.9723 0.0000 0.0000 0.0000
# 3 36.9721 36.9723 208.4852 0.0000 0.0000 0.0000
# 4 0.0000 0.0000 0.0000 38.7658 0.0000 0.0000
# 5 0.0000 0.0000 0.0000 0.0000 38.7654 0.0000
# 6 0.0000 0.0000 0.0000 0.0000 0.0000 35.4240
#
#
#
# Elastic Compliance Matrix: (Units=1/GPa)
#
#
# Indices 1 2 3 4 5 6 
#
# 1 0.010143 -0.001059 -0.001611 0.000000 0.000000 0.000000
# 2 -0.001059 0.010143 -0.001611 0.000000 0.000000 0.000000
# 3 -0.001611 -0.001611 0.005368 0.000000 0.000000 0.000000
# 4 0.000000 0.000000 0.000000 0.025796 0.000000 0.000000
# 5 0.000000 0.000000 0.000000 0.000000 0.025796 0.000000
# 6 0.000000 0.000000 0.000000 0.000000 0.000000 0.028229
#
#
# Mechanical properties :
#
#
# Convention : Reuss Voigt Hill
#
# Bulk Modulus (GPa) = 58.50616 66.97400 62.74008
# Shear Modulus (GPa) = 41.75904 44.59397 43.17651
#
# Velocity S-wave (km/s) = 3.96588 4.09828 4.03262
# Velocity P-wave (km/s) = 6.55795 6.90070 6.73151
#
# Compressibility (1/GPa) = 0.01709222
#
# Stress axis : x y z
#
# Youngs Moduli (GPa) = 98.58879 98.59146 186.29388
#
# Poissons Ratio (x) = 0.10440 0.30011
# Poissons Ratio (y) = 0.10440 0.30011
# Poissons Ratio (z) = 0.15882 0.15882
#
# Static dielectric constant tensor:
#      x y z
#    x 2.116280 0.000000 0.000000 
#    y 0.000000 2.116260 0.000000 
#    z 0.000000 0.000000 3.274790 
# 
# From -- ./inp_files/3238.got.cif
#   From: 2010.05.17/outbox.cif.g08.bks.cpg/sg142_2_cif.got.tgz:3238.got - 2010.05.20 13:39:18.
