data_PCOD9573619
_publ_section_title
;
Structure prediction by ZEFSAII (Michael W. Deem and Ramdas Pophale) SiO2 
 PCOD9573619
Probable space group: I 41/A C D
;
_chemical_formula_sum "Si O2"
_cell_formula_units_Z 136
_cell_length_a 18.713555
_cell_length_b 18.713555
_cell_length_c 19.205698
_cell_angle_alpha 90.000000
_cell_angle_beta 90.000000
_cell_angle_gamma 90.000000
_cell_volume 6725.780525
_symmetry_space_group_name_H-M "I 41/A C D"
_symmetry_group_IT_number 142
_space_group.IT_coordinate_system_code '2'
_symmetry_cell_setting 'tetragonal'
loop_
_space_group_symop_operation_xyz
x,y,z
1/4-y,3/4+x,1/4+z
-x,1/2-y,z
1/4+y,1/4-x,3/4+z
x,-y,1/2-z
1/2-x,y,-z
3/4+y,1/4+x,1/4-z
1/4-y,1/4-x,1/4-z
-x,-y,-z
3/4+y,1/4-x,3/4-z
x,1/2+y,-z
3/4-y,3/4+x,1/4-z
-x,y,1/2+z
1/2+x,-y,z
1/4-y,3/4-x,3/4+z
3/4+y,3/4+x,3/4+z
1/2+x,1/2+y,1/2+z
3/4-y,1/4+x,3/4+z
1/2-x,-y,1/2+z
3/4+y,3/4-x,1/4+z
1/2+x,1/2-y,-z
-x,1/2+y,1/2-z
1/4+y,3/4+x,3/4-z
3/4-y,3/4-x,3/4-z
1/2-x,1/2-y,1/2-z
1/4+y,3/4-x,1/4-z
1/2+x,y,1/2-z
1/4-y,1/4+x,3/4-z
1/2-x,1/2+y,z
x,1/2-y,1/2+z
3/4-y,1/4-x,1/4+z
1/4+y,1/4+x,1/4+z
loop_
_atom_site_type_symbol
_atom_site_label
_atom_site_fract_x
_atom_site_fract_y
_atom_site_fract_z
Si Si1 0.865767 0.384234 0.125000
Si Si2 0.693682 0.556319 0.125000
Si Si3 0.196732 0.894465 0.617574
Si Si4 0.090883 0.418812 0.252157
Si Si5 0.500000 0.250000 0.125000
Si Si6 0.441729 0.649756 0.266818
O O1 0.779533 0.374940 0.129372
O O2 0.900225 0.348828 0.193862
O O3 0.691443 0.476815 0.092929
O O4 0.639967 0.576380 0.185144
O O5 0.144512 0.898216 0.684856
O O6 0.164867 0.842275 0.560399
O O7 0.060433 0.500000 0.250000
O O8 0.024555 0.365976 0.251298
O O9 0.442184 0.285102 0.177532
#
# Coordination Sequence:
#
# PCOD9573619 Si02
#       6
#    16  16  32  32   8  32
#     4  11  24  39  72 101 124 165 226 283 321 410
#     4   9  20  36  64 102 130 156 214 278 325 386
#     4  10  20  41  66  97 132 166 209 276 345 386
#     4  10  20  36  62  91 124 166 205 259 321 392
#     4  12  28  46  64  84 140 194 212 280 332 394
#     4  12  24  45  62  92 130 177 221 265 335 393
#
# _framework density 20.220700000000001
#
# number of rings (size 3 to 8) (size 9 to 14) (size 15 to 20)
#    0.000    1.412    2.353    3.529    0.000    6.118 
#    0.000    1.176    0.000    0.000    0.000    0.000 
#    0.000    0.000    0.000    0.000    0.000    0.000 
#
# Total GULP energy -379145.907689 kJ/mol
# GULP energy per Si atom -5575.675113 kJ/mol
# Density = 2.017468 g / cm^3
# Si number density = 20.220700 Si / 1000 Ang^3
#
#
#
# Elastic Constant Matrix: (Units=GPa)
#
#
# Indices 1 2 3 4 5 6 
#
# 1 48.0224 58.0371 43.0442 0.0000 0.0000 0.0000
# 2 58.0371 48.0212 43.0448 0.0000 0.0000 0.0000
# 3 43.0442 43.0448 101.0056 0.0000 0.0000 0.0000
# 4 0.0000 0.0000 0.0000 40.5511 0.0000 0.0000
# 5 0.0000 0.0000 0.0000 0.0000 40.5551 0.0000
# 6 0.0000 0.0000 0.0000 0.0000 0.0000 32.5132
#
#
#
# Elastic Compliance Matrix: (Units=1/GPa)
#
#
# Indices 1 2 3 4 5 6 
#
# 1 -0.042715 0.057131 -0.006144 0.000000 0.000000 0.000000
# 2 0.057131 -0.042717 -0.006142 0.000000 0.000000 0.000000
# 3 -0.006144 -0.006142 0.015136 0.000000 0.000000 0.000000
# 4 0.000000 0.000000 0.000000 0.024660 0.000000 0.000000
# 5 0.000000 0.000000 0.000000 0.000000 0.024658 0.000000
# 6 0.000000 0.000000 0.000000 0.000000 0.000000 0.030757
#
#
# Mechanical properties :
#
#
# Convention : Reuss Voigt Hill
#
# Bulk Modulus (GPa) = 51.56211 53.92236 52.74223
# Shear Modulus (GPa) = -68.07723 26.25206 -20.91259
#
# Velocity S-wave (km/s) = -5.80863 3.60707 -3.21941
# Velocity P-wave (km/s) = 4.40816 6.63873 3.51005
#
# Compressibility (1/GPa) = 0.01939409
#
# Stress axis : x y z
#
# Youngs Moduli (GPa) = -23.41106 -23.40973 66.06596
#
# Poissons Ratio (x) = 1.33743 0.40591
# Poissons Ratio (y) = 1.33750 0.40580
# Poissons Ratio (z) = -0.14384 -0.14379
#
# Static dielectric constant tensor:
#      x y z
#    x 1.930840 0.000000 0.000000 
#    y 0.000000 1.930690 0.000000 
#    z 0.000000 0.000000 1.707140 
# 
# From -- ./inp_files/8833.got.cif
#   From: 2010.05.17/outbox.cif.g08.bks.cpg/sg142_5_cif.got.tgz:8833.got - 2010.05.20 13:39:18.
