data_PCOD9573517
_publ_section_title
;
Structure prediction by ZEFSAII (Michael W. Deem and Ramdas Pophale) SiO2 
 PCOD9573517
Probable space group: I 41/A C D
;
_chemical_formula_sum "Si O2"
_cell_formula_units_Z 192
_cell_length_a 19.266596
_cell_length_b 19.266596
_cell_length_c 24.591987
_cell_angle_alpha 90.000000
_cell_angle_beta 90.000000
_cell_angle_gamma 90.000000
_cell_volume 9128.587908
_symmetry_space_group_name_H-M "I 41/A C D"
_symmetry_group_IT_number 142
_space_group.IT_coordinate_system_code '2'
_symmetry_cell_setting 'tetragonal'
loop_
_space_group_symop_operation_xyz
x,y,z
1/4-y,3/4+x,1/4+z
-x,1/2-y,z
1/4+y,1/4-x,3/4+z
x,-y,1/2-z
1/2-x,y,-z
3/4+y,1/4+x,1/4-z
1/4-y,1/4-x,1/4-z
-x,-y,-z
3/4+y,1/4-x,3/4-z
x,1/2+y,-z
3/4-y,3/4+x,1/4-z
-x,y,1/2+z
1/2+x,-y,z
1/4-y,3/4-x,3/4+z
3/4+y,3/4+x,3/4+z
1/2+x,1/2+y,1/2+z
3/4-y,1/4+x,3/4+z
1/2-x,-y,1/2+z
3/4+y,3/4-x,1/4+z
1/2+x,1/2-y,-z
-x,1/2+y,1/2-z
1/4+y,3/4+x,3/4-z
3/4-y,3/4-x,3/4-z
1/2-x,1/2-y,1/2-z
1/4+y,3/4-x,1/4-z
1/2+x,y,1/2-z
1/4-y,1/4+x,3/4-z
1/2-x,1/2+y,z
x,1/2-y,1/2+z
3/4-y,1/4-x,1/4+z
1/4+y,1/4+x,1/4+z
loop_
_atom_site_type_symbol
_atom_site_label
_atom_site_fract_x
_atom_site_fract_y
_atom_site_fract_z
Si Si1 0.285213 0.921391 0.375708
Si Si2 0.804576 0.422160 0.754668
Si Si3 0.911571 0.036046 0.434820
Si Si4 0.383594 0.250368 0.625908
Si Si5 0.918985 0.419083 0.659621
Si Si6 0.451000 0.999659 0.687784
O O1 0.242145 0.992145 0.375000
O O2 0.321273 0.913213 0.317627
O O3 0.342823 0.920385 0.422071
O O4 0.236786 0.858387 0.393174
O O5 0.772106 0.500000 0.750000
O O6 0.754920 0.358217 0.738672
O O7 0.866581 0.423733 0.710814
O O8 0.976913 0.085859 0.427317
O O9 0.909144 0.979918 0.385528
O O10 0.434979 0.185196 0.614417
O O11 0.324565 0.265314 0.580133
O O12 0.899496 0.350505 0.625000
O O13 0.993752 0.437471 0.682542
O O14 0.426980 0.000000 0.750000
#
# Coordination Sequence:
#
# PCOD9573517 Si02
#       6
#    32  32  32  32  32  32
#     4  12  23  35  57  91 128 154 202 260 319 373
#     4  11  19  33  60  87 120 158 195 254 317 365
#     4  10  19  35  57  91 119 150 199 253 308 372
#     4  10  21  39  62  86 121 162 208 258 305 374
#     4   9  19  38  61  89 115 155 210 253 303 372
#     4  11  25  39  61  91 126 167 210 258 316 386
#
# _framework density 21.032826
#
# number of rings (size 3 to 8) (size 9 to 14) (size 15 to 20)
#    0.000    1.500    5.000    1.000    4.667    0.000 
#    0.000    9.167    0.000    0.500    0.000    0.000 
#    0.000    0.000    0.000    0.000    0.000    0.000 
#
# Total GULP energy -534826.843928 kJ/mol
# GULP energy per Si atom -5571.112958 kJ/mol
# Density = 2.098495 g / cm^3
# Si number density = 21.032826 Si / 1000 Ang^3
#
#
#
# Elastic Constant Matrix: (Units=GPa)
#
#
# Indices 1 2 3 4 5 6 
#
# 1 46.3423 4.8236 1.7103 0.0000 0.0000 0.0000
# 2 4.8236 46.3427 1.7102 0.0000 0.0000 0.0000
# 3 1.7103 1.7102 74.0195 0.0000 0.0000 0.0000
# 4 0.0000 0.0000 0.0000 17.4108 0.0000 0.0000
# 5 0.0000 0.0000 0.0000 0.0000 17.4107 0.0000
# 6 0.0000 0.0000 0.0000 0.0000 0.0000 40.6430
#
#
#
# Elastic Compliance Matrix: (Units=1/GPa)
#
#
# Indices 1 2 3 4 5 6 
#
# 1 0.021830 -0.002256 -0.000452 0.000000 0.000000 0.000000
# 2 -0.002256 0.021830 -0.000452 0.000000 0.000000 0.000000
# 3 -0.000452 -0.000452 0.013531 0.000000 0.000000 0.000000
# 4 0.000000 0.000000 0.000000 0.057436 0.000000 0.000000
# 5 0.000000 0.000000 0.000000 0.000000 0.057436 0.000000
# 6 0.000000 0.000000 0.000000 0.000000 0.000000 0.024605
#
#
# Mechanical properties :
#
#
# Convention : Reuss Voigt Hill
#
# Bulk Modulus (GPa) = 19.65773 20.35475 20.00624
# Shear Modulus (GPa) = 22.73309 25.65692 24.19501
#
# Velocity S-wave (km/s) = 3.29118 3.49643 3.39535
# Velocity P-wave (km/s) = 4.87944 5.09888 4.99037
#
# Compressibility (1/GPa) = 0.05087057
#
# Stress axis : x y z
#
# Youngs Moduli (GPa) = 45.80849 45.80891 73.90515
#
# Poissons Ratio (x) = 0.10332 0.03343
# Poissons Ratio (y) = 0.10332 0.03342
# Poissons Ratio (z) = 0.02072 0.02072
#
# Static dielectric constant tensor:
#      x y z
#    x 1.837040 0.000000 0.000000 
#    y 0.000000 1.837040 0.000000 
#    z 0.000000 0.000000 1.750030 
# 
# From -- ./inp_files/10398.got.cif
#   From: 2010.05.17/outbox.cif.g08.bks.cpg/sg142_6_cif.got.tgz:10398.got - 2010.05.20 13:39:18.
