data_PCOD9573384
_publ_section_title
;
Structure prediction by ZEFSAII (Michael W. Deem and Ramdas Pophale) SiO2 
 PCOD9573384
Probable space group: I 41/A M D
;
_chemical_formula_sum "Si O2"
_cell_formula_units_Z 72
_cell_length_a 18.000000
_cell_length_b 18.000000
_cell_length_c 24.000000
_cell_angle_alpha 90.000000
_cell_angle_beta 90.000000
_cell_angle_gamma 90.000000
_cell_volume 7776.000000
_symmetry_space_group_name_H-M "I 41/A M D"
_symmetry_group_IT_number 141
_space_group.IT_coordinate_system_code '2'
_symmetry_cell_setting 'tetragonal'
loop_
_space_group_symop_operation_xyz
x,y,z
1/4-y,3/4+x,1/4+z
-x,1/2-y,z
1/4+y,1/4-x,3/4+z
x,-y,-z
-x,1/2+y,-z
1/4+y,3/4+x,1/4-z
1/4-y,1/4-x,3/4-z
-x,-y,-z
3/4+y,1/4-x,3/4-z
x,1/2+y,-z
3/4-y,3/4+x,1/4-z
-x,y,z
x,1/2-y,z
3/4-y,1/4-x,3/4+z
3/4+y,3/4+x,1/4+z
1/2+x,1/2+y,1/2+z
3/4-y,1/4+x,3/4+z
1/2-x,-y,1/2+z
3/4+y,3/4-x,1/4+z
1/2+x,1/2-y,1/2-z
1/2-x,y,1/2-z
3/4+y,1/4+x,3/4-z
3/4-y,3/4-x,1/4-z
1/2-x,1/2-y,1/2-z
1/4+y,3/4-x,1/4-z
1/2+x,y,1/2-z
1/4-y,1/4+x,3/4-z
1/2-x,1/2+y,1/2+z
1/2+x,-y,1/2+z
1/4-y,3/4-x,1/4+z
1/4+y,1/4+x,3/4+z
loop_
_atom_site_type_symbol
_atom_site_label
_atom_site_fract_x
_atom_site_fract_y
_atom_site_fract_z
Si Si1 0.913939 0.836062 0.125000
Si Si2 0.913911 0.074616 0.329304
Si Si3 0.353187 0.661677 0.597204
Si Si4 0.163201 0.599490 0.230357
Si Si5 0.310468 0.840028 0.048070
O O1 0.904728 0.750000 0.106108
O O2 0.857790 0.850529 0.176646
O O3 0.865778 0.115778 0.375000
O O4 0.896133 0.093335 0.264445
O O5 0.000000 0.093514 0.337356
O O6 0.905652 0.986409 0.340979
O O7 0.371679 0.750000 0.604029
O O8 0.376988 0.630792 0.536030
O O9 0.382075 0.611288 0.649642
O O10 0.250000 0.595707 0.250000
O O11 0.132452 0.518825 0.208600
O O12 0.299338 0.750000 0.053078
#
# Coordination Sequence:
#
# PCOD9573384 Si02
#       5
#    16  32  32  32  32
#     4  11  24  42  64  92 130 168 204 255 312 368
#     4   9  20  36  55  81 117 157 202 261 316 369
#     4  10  22  38  59  88 124 163 205 258 313 370
#     4  11  23  39  65  94 122 163 209 256 307 368
#     4  10  22  39  60  89 124 158 202 260 307 364
#
# _framework density 9.2592590000000001
#
# number of rings (size 3 to 8) (size 9 to 14) (size 15 to 20)
#    0.000    1.889    0.000    4.667    6.222    2.889 
#    0.000    4.444    0.000    0.000    0.000    0.000 
#    0.000    0.000    0.000    0.000    0.000    0.000 
#
# Total GULP energy -401503.359515 kJ/mol
# GULP energy per Si atom -5576.435549 kJ/mol
# Density = 0.923818 g / cm^3
# Si number density = 9.259259 Si / 1000 Ang^3
#
#
#
# Elastic Constant Matrix: (Units=GPa)
#
#
# Indices 1 2 3 4 5 6 
#
# 1 74.4312 36.0622 50.5293 0.0000 0.0000 0.0000
# 2 36.0622 74.4316 50.5298 0.0000 0.0000 0.0000
# 3 50.5293 50.5298 146.7980 0.0000 0.0000 0.0000
# 4 0.0000 0.0000 0.0000 42.4495 0.0000 0.0000
# 5 0.0000 0.0000 0.0000 0.0000 42.4490 0.0000
# 6 0.0000 0.0000 0.0000 0.0000 0.0000 25.7139
#
#
#
# Elastic Compliance Matrix: (Units=1/GPa)
#
#
# Indices 1 2 3 4 5 6 
#
# 1 0.019636 -0.006427 -0.004547 0.000000 0.000000 0.000000
# 2 -0.006427 0.019636 -0.004547 0.000000 0.000000 0.000000
# 3 -0.004547 -0.004547 0.009942 0.000000 0.000000 0.000000
# 4 0.000000 0.000000 0.000000 0.023557 0.000000 0.000000
# 5 0.000000 0.000000 0.000000 0.000000 0.023558 0.000000
# 6 0.000000 0.000000 0.000000 0.000000 0.000000 0.038889
#
#
# Mechanical properties :
#
#
# Convention : Reuss Voigt Hill
#
# Bulk Modulus (GPa) = 55.02646 63.32261 59.17453
# Shear Modulus (GPa) = 29.01650 32.69178 30.85414
#
# Velocity S-wave (km/s) = 3.96269 4.20617 4.08625
# Velocity P-wave (km/s) = 7.12152 7.60642 7.36796
#
# Compressibility (1/GPa) = 0.01817308
#
# Stress axis : x y z
#
# Youngs Moduli (GPa) = 50.92783 50.92786 100.58290
#
# Poissons Ratio (x) = 0.32731 0.45730
# Poissons Ratio (y) = 0.32731 0.45731
# Poissons Ratio (z) = 0.23154 0.23155
#
# Static dielectric constant tensor:
#      x y z
#    x 1.650610 0.000000 0.000000 
#    y 0.000000 1.650620 0.000000 
#    z 0.000000 0.000000 1.636070 
# 
# From -- ./inp_files/11432.got.cif
#   From: 2010.05.17/outbox.ucp.g08.bks.cvg/sg141_6_cif.got.tgz:11432.got - 2010.06.11 11:43:24.
