data_PCOD9573650
_publ_section_title
;
Structure prediction by ZEFSAII (Michael W. Deem and Ramdas Pophale) SiO2 
 PCOD9573650
Probable space group: I 41/A C D
;
_chemical_formula_sum "Si O2"
_cell_formula_units_Z 112
_cell_length_a 20.839992
_cell_length_b 20.839992
_cell_length_c 12.637623
_cell_angle_alpha 90.000000
_cell_angle_beta 90.000000
_cell_angle_gamma 90.000000
_cell_volume 5488.586226
_symmetry_space_group_name_H-M "I 41/A C D"
_symmetry_group_IT_number 142
_space_group.IT_coordinate_system_code '2'
_symmetry_cell_setting 'tetragonal'
loop_
_space_group_symop_operation_xyz
x,y,z
1/4-y,3/4+x,1/4+z
-x,1/2-y,z
1/4+y,1/4-x,3/4+z
x,-y,1/2-z
1/2-x,y,-z
3/4+y,1/4+x,1/4-z
1/4-y,1/4-x,1/4-z
-x,-y,-z
3/4+y,1/4-x,3/4-z
x,1/2+y,-z
3/4-y,3/4+x,1/4-z
-x,y,1/2+z
1/2+x,-y,z
1/4-y,3/4-x,3/4+z
3/4+y,3/4+x,3/4+z
1/2+x,1/2+y,1/2+z
3/4-y,1/4+x,3/4+z
1/2-x,-y,1/2+z
3/4+y,3/4-x,1/4+z
1/2+x,1/2-y,-z
-x,1/2+y,1/2-z
1/4+y,3/4+x,3/4-z
3/4-y,3/4-x,3/4-z
1/2-x,1/2-y,1/2-z
1/4+y,3/4-x,1/4-z
1/2+x,y,1/2-z
1/4-y,1/4+x,3/4-z
1/2-x,1/2+y,z
x,1/2-y,1/2+z
3/4-y,1/4-x,1/4+z
1/4+y,1/4+x,1/4+z
loop_
_atom_site_type_symbol
_atom_site_label
_atom_site_fract_x
_atom_site_fract_y
_atom_site_fract_z
Si Si1 0.890705 0.855432 0.062187
Si Si2 0.883921 0.500000 0.250000
Si Si3 0.605484 0.710749 0.032190
Si Si4 0.195854 0.271813 0.673212
O O1 0.910875 0.854687 0.185517
O O2 0.821252 0.889686 0.039900
O O3 0.894458 0.781677 0.020736
O O4 0.944094 0.891070 0.991976
O O5 0.926078 0.523057 0.347495
O O6 0.553816 0.696185 0.125000
O O7 0.670270 0.713889 0.101169
O O8 0.250000 0.250000 0.750000
#
# Coordination Sequence:
#
# PCOD9573650 Si02
#       4
#    32  16  32  32
#     4  11  24  38  62  92 125 166 209 264 329 398
#     4  10  20  38  58  84 122 164 202 244 314 394
#     4  11  22  37  58  91 126 160 205 264 326 389
#     4  11  22  39  61  88 120 163 212 266 328 391
#
# _framework density 20.405982999999999
#
# number of rings (size 3 to 8) (size 9 to 14) (size 15 to 20)
#    0.000    1.143    0.000   10.286    0.000    7.429 
#    0.000    0.000    0.000   17.143    0.000    0.000 
#    0.000    0.000    0.000    0.000    0.000    0.000 
#
# Total GULP energy -311938.342227 kJ/mol
# GULP energy per Si atom -5570.327540 kJ/mol
# Density = 2.035954 g / cm^3
# Si number density = 20.405983 Si / 1000 Ang^3
#
#
#
# Elastic Constant Matrix: (Units=GPa)
#
#
# Indices 1 2 3 4 5 6 
#
# 1 73.7552 21.6526 42.8514 0.0000 0.0000 0.0000
# 2 21.6526 73.7545 42.8509 0.0000 0.0000 0.0000
# 3 42.8514 42.8509 169.5336 0.0000 0.0000 0.0000
# 4 0.0000 0.0000 0.0000 42.0884 0.0000 0.0000
# 5 0.0000 0.0000 0.0000 0.0000 42.0887 0.0000
# 6 0.0000 0.0000 0.0000 0.0000 0.0000 10.3742
#
#
#
# Elastic Compliance Matrix: (Units=1/GPa)
#
#
# Indices 1 2 3 4 5 6 
#
# 1 0.016377 -0.002816 -0.003427 0.000000 0.000000 0.000000
# 2 -0.002816 0.016377 -0.003427 0.000000 0.000000 0.000000
# 3 -0.003427 -0.003427 0.007631 0.000000 0.000000 0.000000
# 4 0.000000 0.000000 0.000000 0.023760 0.000000 0.000000
# 5 0.000000 0.000000 0.000000 0.000000 0.023759 0.000000
# 6 0.000000 0.000000 0.000000 0.000000 0.000000 0.096393
#
#
# Mechanical properties :
#
#
# Convention : Reuss Voigt Hill
#
# Bulk Modulus (GPa) = 47.52469 59.08367 53.30418
# Shear Modulus (GPa) = 23.73572 32.88949 28.31260
#
# Velocity S-wave (km/s) = 3.41423 4.01902 3.72891
# Velocity P-wave (km/s) = 6.23561 7.11011 6.68717
#
# Compressibility (1/GPa) = 0.02104169
#
# Stress axis : x y z
#
# Youngs Moduli (GPa) = 61.06294 61.06252 131.04139
#
# Poissons Ratio (x) = 0.17198 0.44914
# Poissons Ratio (y) = 0.17198 0.44914
# Poissons Ratio (z) = 0.20929 0.20929
#
# Static dielectric constant tensor:
#      x y z
#    x 1.733190 0.000000 0.000000 
#    y 0.000000 1.733190 0.000000 
#    z 0.000000 0.000000 1.750970 
# 
# From -- ./inp_files/3364.got.cif
#   From: 2010.05.17/outbox.cif.g08.bks.cpg/sg142_2_cif.got.tgz:3364.got - 2010.05.20 13:39:18.
