data_PCOD9573261
_publ_section_title
;
Structure prediction by ZEFSAII (Michael W. Deem and Ramdas Pophale) SiO2 
 PCOD9573261
Probable space group: I 41/A M D
;
_chemical_formula_sum "Si O2"
_cell_formula_units_Z 160
_cell_length_a 18.147218
_cell_length_b 18.147218
_cell_length_c 26.519097
_cell_angle_alpha 90.000000
_cell_angle_beta 90.000000
_cell_angle_gamma 90.000000
_cell_volume 8733.309363
_symmetry_space_group_name_H-M "I 41/A M D"
_symmetry_group_IT_number 141
_space_group.IT_coordinate_system_code '2'
_symmetry_cell_setting 'tetragonal'
loop_
_space_group_symop_operation_xyz
x,y,z
1/4-y,3/4+x,1/4+z
-x,1/2-y,z
1/4+y,1/4-x,3/4+z
x,-y,-z
-x,1/2+y,-z
1/4+y,3/4+x,1/4-z
1/4-y,1/4-x,3/4-z
-x,-y,-z
3/4+y,1/4-x,3/4-z
x,1/2+y,-z
3/4-y,3/4+x,1/4-z
-x,y,z
x,1/2-y,z
3/4-y,1/4-x,3/4+z
3/4+y,3/4+x,1/4+z
1/2+x,1/2+y,1/2+z
3/4-y,1/4+x,3/4+z
1/2-x,-y,1/2+z
3/4+y,3/4-x,1/4+z
1/2+x,1/2-y,1/2-z
1/2-x,y,1/2-z
3/4+y,1/4+x,3/4-z
3/4-y,3/4-x,1/4-z
1/2-x,1/2-y,1/2-z
1/4+y,3/4-x,1/4-z
1/2+x,y,1/2-z
1/4-y,1/4+x,3/4-z
1/2-x,1/2+y,1/2+z
1/2+x,-y,1/2+z
1/4-y,3/4-x,1/4+z
1/4+y,1/4+x,3/4+z
loop_
_atom_site_type_symbol
_atom_site_label
_atom_site_fract_x
_atom_site_fract_y
_atom_site_fract_z
Si Si1 0.623552 0.449609 0.450533
Si Si2 0.196112 0.450872 0.318333
Si Si3 0.863863 0.430298 0.213562
Si Si4 0.000000 0.833601 0.946143
Si Si5 0.500000 0.833807 0.675228
Si Si6 0.799895 0.333157 0.892985
O O1 0.618821 0.500000 0.500000
O O2 0.709943 0.441741 0.436951
O O3 0.573981 0.377846 0.460920
O O4 0.588504 0.489419 0.401709
O O5 0.177967 0.427967 0.375000
O O6 0.144817 0.422649 0.273410
O O7 0.280394 0.424926 0.307747
O O8 0.888913 0.510845 0.193947
O O9 0.926182 0.375702 0.193044
O O10 0.000000 0.750000 0.965093
O O11 0.000000 0.832124 0.885280
O O12 0.500000 0.750000 0.693855
O O13 0.864084 0.385917 0.875000
O O14 0.824231 0.250000 0.899146
#
# Coordination Sequence:
#
# PCOD9573261 Si02
#       6
#    32  32  32  16  16  32
#     4  12  19  36  59  85 120 167 203 253 310 361
#     4  11  20  35  64  92 116 149 210 262 306 358
#     4  11  19  38  64  90 116 156 205 254 302 375
#     4  11  23  37  57  87 128 166 213 263 308 356
#     4  11  22  41  67  89 119 165 203 249 321 386
#     4  12  21  36  59  86 125 170 211 247 301 368
#
# _framework density 18.32066
#
# number of rings (size 3 to 8) (size 9 to 14) (size 15 to 20)
#    0.000    0.600   10.000    0.300    0.000    0.200 
#    1.800    3.000    4.400    0.000    0.000    0.000 
#    0.000    0.000    0.000    0.000    0.000    0.000 
#
# Total GULP energy -446611.185684 kJ/mol
# GULP energy per Si atom -5582.639821 kJ/mol
# Density = 1.827896 g / cm^3
# Si number density = 18.320660 Si / 1000 Ang^3
#
#
#
# Elastic Constant Matrix: (Units=GPa)
#
#
# Indices 1 2 3 4 5 6 
#
# 1 78.0490 21.4157 10.6042 0.0000 0.0000 0.0000
# 2 21.4157 78.0525 10.6035 0.0000 0.0000 0.0000
# 3 10.6042 10.6035 106.5506 0.0000 0.0000 0.0000
# 4 0.0000 0.0000 0.0000 12.7257 0.0000 0.0000
# 5 0.0000 0.0000 0.0000 0.0000 12.7268 0.0000
# 6 0.0000 0.0000 0.0000 0.0000 0.0000 17.4349
#
#
#
# Elastic Compliance Matrix: (Units=1/GPa)
#
#
# Indices 1 2 3 4 5 6 
#
# 1 0.013965 -0.003693 -0.001022 0.000000 0.000000 0.000000
# 2 -0.003693 0.013964 -0.001022 0.000000 0.000000 0.000000
# 3 -0.001022 -0.001022 0.009589 0.000000 0.000000 0.000000
# 4 0.000000 0.000000 0.000000 0.078581 0.000000 0.000000
# 5 0.000000 0.000000 0.000000 0.000000 0.078574 0.000000
# 6 0.000000 0.000000 0.000000 0.000000 0.000000 0.057356
#
#
# Mechanical properties :
#
#
# Convention : Reuss Voigt Hill
#
# Bulk Modulus (GPa) = 38.39810 38.65546 38.52678
# Shear Modulus (GPa) = 18.36992 23.24606 20.80799
#
# Velocity S-wave (km/s) = 3.16996 3.56595 3.37377
# Velocity P-wave (km/s) = 5.86537 6.17251 6.02090
#
# Compressibility (1/GPa) = 0.02604296
#
# Stress axis : x y z
#
# Youngs Moduli (GPa) = 71.60975 71.61310 104.28974
#
# Poissons Ratio (x) = 0.26444 0.10662
# Poissons Ratio (y) = 0.26443 0.10660
# Poissons Ratio (z) = 0.07321 0.07320
#
# Static dielectric constant tensor:
#      x y z
#    x 1.628430 0.000000 0.000000 
#    y 0.000000 1.628430 0.000000 
#    z 0.000000 0.000000 1.650460 
# 
# From -- ./inp_files/12787.got.cif
#   From: 2010.05.17/outbox.cif.g08.bks.cpg/sg141_7_cif.got.tgz:12787.got - 2010.05.20 13:30:51.
