data_PCOD9573867
_publ_section_title
;
Structure prediction by ZEFSAII (Michael W. Deem and Ramdas Pophale) SiO2 
 PCOD9573867
Probable space group: I 41/A C D
;
_chemical_formula_sum "Si O2"
_cell_formula_units_Z 144
_cell_length_a 26.904684
_cell_length_b 26.904684
_cell_length_c 9.768334
_cell_angle_alpha 90.000000
_cell_angle_beta 90.000000
_cell_angle_gamma 90.000000
_cell_volume 7070.925992
_symmetry_space_group_name_H-M "I 41/A C D"
_symmetry_group_IT_number 142
_space_group.IT_coordinate_system_code '2'
_symmetry_cell_setting 'tetragonal'
loop_
_space_group_symop_operation_xyz
x,y,z
1/4-y,3/4+x,1/4+z
-x,1/2-y,z
1/4+y,1/4-x,3/4+z
x,-y,1/2-z
1/2-x,y,-z
3/4+y,1/4+x,1/4-z
1/4-y,1/4-x,1/4-z
-x,-y,-z
3/4+y,1/4-x,3/4-z
x,1/2+y,-z
3/4-y,3/4+x,1/4-z
-x,y,1/2+z
1/2+x,-y,z
1/4-y,3/4-x,3/4+z
3/4+y,3/4+x,3/4+z
1/2+x,1/2+y,1/2+z
3/4-y,1/4+x,3/4+z
1/2-x,-y,1/2+z
3/4+y,3/4-x,1/4+z
1/2+x,1/2-y,-z
-x,1/2+y,1/2-z
1/4+y,3/4+x,3/4-z
3/4-y,3/4-x,3/4-z
1/2-x,1/2-y,1/2-z
1/4+y,3/4-x,1/4-z
1/2+x,y,1/2-z
1/4-y,1/4+x,3/4-z
1/2-x,1/2+y,z
x,1/2-y,1/2+z
3/4-y,1/4-x,1/4+z
1/4+y,1/4+x,1/4+z
loop_
_atom_site_type_symbol
_atom_site_label
_atom_site_fract_x
_atom_site_fract_y
_atom_site_fract_z
Si Si1 0.750000 0.555421 0.500000
Si Si2 0.346740 0.096740 0.375000
Si Si3 0.940932 0.570041 0.576199
Si Si4 0.841175 0.371360 0.912506
Si Si5 0.808299 0.767883 0.961144
Si Si6 0.250000 0.133831 0.500000
O O1 0.727732 0.522269 0.625000
O O2 0.795408 0.591164 0.551419
O O3 0.385401 0.097193 0.498630
O O4 0.295449 0.101456 0.453236
O O5 0.893899 0.604715 0.542649
O O6 0.978265 0.564579 0.451172
O O7 0.916174 0.517788 0.620971
O O8 0.971383 0.583859 0.713063
O O9 0.829852 0.319236 0.981263
O O10 0.750000 0.766579 0.000000
#
# Coordination Sequence:
#
# PCOD9573867 Si02
#       6
#    16  16  32  32  32  16
#     4  12  28  42  62  90 130 188 221 265 324 398
#     4  10  24  38  60  88 132 171 222 284 310 384
#     4  11  25  41  63  97 129 164 227 278 329 397
#     4  11  26  44  65  92 136 173 227 270 337 402
#     4  12  23  41  69  92 127 176 218 273 340 398
#     4  10  22  40  56  90 130 172 221 275 326 390
#
# _framework density 20.365084
#
# number of rings (size 3 to 8) (size 9 to 14) (size 15 to 20)
#    0.000    0.889    2.222    4.000   14.000    0.889 
#    0.000    0.000    0.000    0.667    0.000    3.111 
#    0.000    0.000    0.000    0.000    0.000    0.000 
#
# Total GULP energy -402365.568794 kJ/mol
# GULP energy per Si atom -5588.410678 kJ/mol
# Density = 2.031873 g / cm^3
# Si number density = 20.365084 Si / 1000 Ang^3
#
#
#
# Elastic Constant Matrix: (Units=GPa)
#
#
# Indices 1 2 3 4 5 6 
#
# 1 73.9298 42.3817 13.1268 0.0000 0.0000 0.0000
# 2 42.3817 73.9299 13.1269 0.0000 0.0000 0.0000
# 3 13.1268 13.1269 104.2295 0.0000 0.0000 0.0000
# 4 0.0000 0.0000 0.0000 31.6659 0.0000 0.0000
# 5 0.0000 0.0000 0.0000 0.0000 31.6663 0.0000
# 6 0.0000 0.0000 0.0000 0.0000 0.0000 15.3817
#
#
#
# Elastic Compliance Matrix: (Units=1/GPa)
#
#
# Indices 1 2 3 4 5 6 
#
# 1 0.020273 -0.011424 -0.001114 0.000000 0.000000 0.000000
# 2 -0.011424 0.020273 -0.001114 0.000000 0.000000 0.000000
# 3 -0.001114 -0.001114 0.009875 0.000000 0.000000 0.000000
# 4 0.000000 0.000000 0.000000 0.031580 0.000000 0.000000
# 5 0.000000 0.000000 0.000000 0.000000 0.031579 0.000000
# 6 0.000000 0.000000 0.000000 0.000000 0.000000 0.065013
#
#
# Mechanical properties :
#
#
# Convention : Reuss Voigt Hill
#
# Bulk Modulus (GPa) = 43.26133 43.26222 43.26178
# Shear Modulus (GPa) = 23.40774 27.97302 25.69038
#
# Velocity S-wave (km/s) = 3.39397 3.71020 3.55560
# Velocity P-wave (km/s) = 6.05373 6.29631 6.17621
#
# Compressibility (1/GPa) = 0.02311533
#
# Stress axis : x y z
#
# Youngs Moduli (GPa) = 49.32578 49.32586 101.26656
#
# Poissons Ratio (x) = 0.56351 0.11286
# Poissons Ratio (y) = 0.56351 0.11286
# Poissons Ratio (z) = 0.05497 0.05497
#
# Static dielectric constant tensor:
#      x y z
#    x 1.737580 0.000000 0.000000 
#    y 0.000000 1.737580 0.000000 
#    z 0.000000 0.000000 1.819570 
# 
# From -- ./inp_files/2191.got.cif
#   From: 2010.05.17/outbox.cif.g08.bks.cpg/sg142_2_cif.got.tgz:2191.got - 2010.05.20 13:39:18.
