data_PCOD9573846
_publ_section_title
;
Structure prediction by ZEFSAII (Michael W. Deem and Ramdas Pophale) SiO2 
 PCOD9573846
Probable space group: I 41/A C D
;
_chemical_formula_sum "Si O2"
_cell_formula_units_Z 80
_cell_length_a 24.179390
_cell_length_b 24.179390
_cell_length_c 5.444372
_cell_angle_alpha 90.000000
_cell_angle_beta 90.000000
_cell_angle_gamma 90.000000
_cell_volume 3183.013439
_symmetry_space_group_name_H-M "I 41/A C D"
_symmetry_group_IT_number 142
_space_group.IT_coordinate_system_code '2'
_symmetry_cell_setting 'tetragonal'
loop_
_space_group_symop_operation_xyz
x,y,z
1/4-y,3/4+x,1/4+z
-x,1/2-y,z
1/4+y,1/4-x,3/4+z
x,-y,1/2-z
1/2-x,y,-z
3/4+y,1/4+x,1/4-z
1/4-y,1/4-x,1/4-z
-x,-y,-z
3/4+y,1/4-x,3/4-z
x,1/2+y,-z
3/4-y,3/4+x,1/4-z
-x,y,1/2+z
1/2+x,-y,z
1/4-y,3/4-x,3/4+z
3/4+y,3/4+x,3/4+z
1/2+x,1/2+y,1/2+z
3/4-y,1/4+x,3/4+z
1/2-x,-y,1/2+z
3/4+y,3/4-x,1/4+z
1/2+x,1/2-y,-z
-x,1/2+y,1/2-z
1/4+y,3/4+x,3/4-z
3/4-y,3/4-x,3/4-z
1/2-x,1/2-y,1/2-z
1/4+y,3/4-x,1/4-z
1/2+x,y,1/2-z
1/4-y,1/4+x,3/4-z
1/2-x,1/2+y,z
x,1/2-y,1/2+z
3/4-y,1/4-x,1/4+z
1/4+y,1/4+x,1/4+z
loop_
_atom_site_type_symbol
_atom_site_label
_atom_site_fract_x
_atom_site_fract_y
_atom_site_fract_z
Si Si1 0.614475 0.864475 0.625000
Si Si2 0.761918 0.883034 0.253976
Si Si3 0.036013 0.920166 0.558004
O O1 0.675251 0.862628 0.744520
O O2 0.616266 0.821293 0.400338
O O3 0.750000 0.916261 0.500000
O O4 0.719473 0.831021 0.280301
O O5 0.750000 0.911077 0.000000
O O6 0.004000 0.923416 0.298612
#
# Coordination Sequence:
#
# PCOD9573846 Si02
#       3
#    16  32  32
#     4  10  24  40  64  97 132 166 210 270 328 380
#     4  10  22  38  61  92 129 163 207 265 324 384
#     4  11  24  42  67  97 126 164 216 268 319 382
#
# _framework density 25.133414999999999
#
# number of rings (size 3 to 8) (size 9 to 14) (size 15 to 20)
#    0.000    1.600    0.000    4.800    0.000   35.200 
#    0.000    0.000    0.000   68.400    0.000    0.000 
#    0.000    0.000    0.000    0.000    0.000    0.000 
#
# Total GULP energy -223164.478662 kJ/mol
# GULP energy per Si atom -5579.111967 kJ/mol
# Density = 2.507621 g / cm^3
# Si number density = 25.133415 Si / 1000 Ang^3
#
#
#
# Elastic Constant Matrix: (Units=GPa)
#
#
# Indices 1 2 3 4 5 6 
#
# 1 54.9367 63.1530 52.9518 0.0000 0.0000 0.0000
# 2 63.1530 54.9367 52.9518 0.0000 0.0000 0.0000
# 3 52.9518 52.9518 274.8445 0.0000 0.0000 0.0000
# 4 0.0000 0.0000 0.0000 35.6261 0.0000 0.0000
# 5 0.0000 0.0000 0.0000 0.0000 35.6261 0.0000
# 6 0.0000 0.0000 0.0000 0.0000 0.0000 39.8875
#
#
#
# Elastic Compliance Matrix: (Units=1/GPa)
#
#
# Indices 1 2 3 4 5 6 
#
# 1 -0.055736 0.065973 -0.001972 0.000000 0.000000 0.000000
# 2 0.065973 -0.055736 -0.001972 0.000000 0.000000 0.000000
# 3 -0.001972 -0.001972 0.004398 0.000000 0.000000 0.000000
# 4 0.000000 0.000000 0.000000 0.028069 0.000000 0.000000
# 5 0.000000 0.000000 0.000000 0.000000 0.028069 0.000000
# 6 0.000000 0.000000 0.000000 0.000000 0.000000 0.025071
#
#
# Mechanical properties :
#
#
# Convention : Reuss Voigt Hill
#
# Bulk Modulus (GPa) = 58.88198 80.31455 69.59827
# Shear Modulus (GPa) = -34.65957 36.60537 0.97290
#
# Velocity S-wave (km/s) = -3.71755 3.82048 0.62284
# Velocity P-wave (km/s) = 2.24761 7.17538 5.31685
#
# Compressibility (1/GPa) = 0.01698312
#
# Stress axis : x y z
#
# Youngs Moduli (GPa) = -17.94172 -17.94172 227.35705
#
# Poissons Ratio (x) = 1.18367 0.44840
# Poissons Ratio (y) = 1.18367 0.44840
# Poissons Ratio (z) = -0.03539 -0.03539
#
# Static dielectric constant tensor:
#      x y z
#    x 2.056930 0.000000 0.000000 
#    y 0.000000 2.056930 0.000000 
#    z 0.000000 0.000000 2.126370 
# 
# From -- ./inp_files/608.got.cif
#   From: 2010.05.17/outbox.cif.g08.bks.cpg/sg142_1_cif.got.tgz:608.got - 2010.05.20 13:39:18.
