data_PCOD9573430
_publ_section_title
;
Structure prediction by ZEFSAII (Michael W. Deem and Ramdas Pophale) SiO2 
 PCOD9573430
Probable space group: I 41/A C D
;
_chemical_formula_sum "Si O2"
_cell_formula_units_Z 152
_cell_length_a 22.593766
_cell_length_b 22.593766
_cell_length_c 16.676368
_cell_angle_alpha 90.000000
_cell_angle_beta 90.000000
_cell_angle_gamma 90.000000
_cell_volume 8512.923354
_symmetry_space_group_name_H-M "I 41/A C D"
_symmetry_group_IT_number 142
_space_group.IT_coordinate_system_code '2'
_symmetry_cell_setting 'tetragonal'
loop_
_space_group_symop_operation_xyz
x,y,z
1/4-y,3/4+x,1/4+z
-x,1/2-y,z
1/4+y,1/4-x,3/4+z
x,-y,1/2-z
1/2-x,y,-z
3/4+y,1/4+x,1/4-z
1/4-y,1/4-x,1/4-z
-x,-y,-z
3/4+y,1/4-x,3/4-z
x,1/2+y,-z
3/4-y,3/4+x,1/4-z
-x,y,1/2+z
1/2+x,-y,z
1/4-y,3/4-x,3/4+z
3/4+y,3/4+x,3/4+z
1/2+x,1/2+y,1/2+z
3/4-y,1/4+x,3/4+z
1/2-x,-y,1/2+z
3/4+y,3/4-x,1/4+z
1/2+x,1/2-y,-z
-x,1/2+y,1/2-z
1/4+y,3/4+x,3/4-z
3/4-y,3/4-x,3/4-z
1/2-x,1/2-y,1/2-z
1/4+y,3/4-x,1/4-z
1/2+x,y,1/2-z
1/4-y,1/4+x,3/4-z
1/2-x,1/2+y,z
x,1/2-y,1/2+z
3/4-y,1/4-x,1/4+z
1/4+y,1/4+x,1/4+z
loop_
_atom_site_type_symbol
_atom_site_label
_atom_site_fract_x
_atom_site_fract_y
_atom_site_fract_z
Si Si1 0.952698 0.452794 0.820976
Si Si2 0.500000 0.250000 0.375000
Si Si3 0.119946 0.418067 0.466032
Si Si4 0.056311 0.527962 0.888837
Si Si5 0.351611 0.500000 0.250000
Si Si6 0.614010 0.717357 0.526590
O O1 0.938800 0.500000 0.750000
O O2 0.898183 0.432054 0.875155
O O3 0.000532 0.485635 0.877792
O O4 0.987557 0.397222 0.782869
O O5 0.444572 0.255682 0.435047
O O6 0.081003 0.459219 0.524080
O O7 0.188053 0.431094 0.489002
O O8 0.108350 0.348303 0.487153
O O9 0.106485 0.504077 0.828149
O O10 0.040722 0.591320 0.850837
#
# Coordination Sequence:
#
# PCOD9573430 Si02
#       6
#    32   8  32  32  16  32
#     4  10  21  38  59  87 124 160 202 254 302 378
#     4  12  20  36  58  92 128 152 178 252 320 374
#     4  11  20  35  63  88 115 161 213 248 304 360
#     4  10  17  38  63  83 113 158 205 245 299 372
#     4  10  18  36  62  86 116 152 208 260 288 362
#     4  10  20  36  56  85 124 152 194 251 304 370
#
# _framework density 17.855207
#
# number of rings (size 3 to 8) (size 9 to 14) (size 15 to 20)
#    0.000    1.684    7.368    2.526    0.000    1.684 
#    0.000    0.000    9.263    0.000    0.000    0.000 
#    0.000    0.000    0.000    0.000    0.000    0.000 
#
# Total GULP energy -423584.902636 kJ/mol
# GULP energy per Si atom -5573.485561 kJ/mol
# Density = 1.781457 g / cm^3
# Si number density = 17.855207 Si / 1000 Ang^3
#
#
#
# Elastic Constant Matrix: (Units=GPa)
#
#
# Indices 1 2 3 4 5 6 
#
# 1 74.2707 50.4559 42.3577 0.0000 0.0000 0.0000
# 2 50.4559 74.2707 42.3577 0.0000 0.0000 0.0000
# 3 42.3577 42.3577 97.6428 0.0000 0.0000 0.0000
# 4 0.0000 0.0000 0.0000 8.7852 0.0000 0.0000
# 5 0.0000 0.0000 0.0000 0.0000 8.7852 0.0000
# 6 0.0000 0.0000 0.0000 0.0000 0.0000 3.2849
#
#
#
# Elastic Compliance Matrix: (Units=1/GPa)
#
#
# Indices 1 2 3 4 5 6 
#
# 1 0.026679 -0.015312 -0.004931 0.000000 0.000000 0.000000
# 2 -0.015312 0.026679 -0.004931 0.000000 0.000000 0.000000
# 3 -0.004931 -0.004931 0.014519 0.000000 0.000000 0.000000
# 4 0.000000 0.000000 0.000000 0.113828 0.000000 0.000000
# 5 0.000000 0.000000 0.000000 0.000000 0.113828 0.000000
# 6 0.000000 0.000000 0.000000 0.000000 0.000000 0.304423
#
#
# Mechanical properties :
#
#
# Convention : Reuss Voigt Hill
#
# Bulk Modulus (GPa) = 57.04758 57.39186 57.21972
# Shear Modulus (GPa) = 7.62026 11.57193 9.59610
#
# Velocity S-wave (km/s) = 2.06811 2.54854 2.32079
# Velocity P-wave (km/s) = 6.14184 6.39318 6.26877
#
# Compressibility (1/GPa) = 0.01752923
#
# Stress axis : x y z
#
# Youngs Moduli (GPa) = 37.48321 37.48321 68.87309
#
# Poissons Ratio (x) = 0.57394 0.33960
# Poissons Ratio (y) = 0.57394 0.33960
# Poissons Ratio (z) = 0.18482 0.18482
#
# Static dielectric constant tensor:
#      x y z
#    x 1.639720 0.000000 0.000000 
#    y 0.000000 1.639720 0.000000 
#    z 0.000000 0.000000 1.605020 
# 
# From -- ./inp_files/5472.got.cif
#   From: 2010.05.17/outbox.cif.g08.bks.cpg/sg142_3_cif.got.tgz:5472.got - 2010.05.20 13:39:18.
