data_PCOD9573081
_publ_section_title
;
Structure prediction by ZEFSAII (Michael W. Deem and Ramdas Pophale) SiO2 
 PCOD9573081
Probable space group: I 41/A M D
;
_chemical_formula_sum "Si O2"
_cell_formula_units_Z 160
_cell_length_a 26.227916
_cell_length_b 26.227916
_cell_length_c 11.869469
_cell_angle_alpha 90.000000
_cell_angle_beta 90.000000
_cell_angle_gamma 90.000000
_cell_volume 8165.050191
_symmetry_space_group_name_H-M "I 41/A M D"
_symmetry_group_IT_number 141
_space_group.IT_coordinate_system_code '2'
_symmetry_cell_setting 'tetragonal'
loop_
_space_group_symop_operation_xyz
x,y,z
1/4-y,3/4+x,1/4+z
-x,1/2-y,z
1/4+y,1/4-x,3/4+z
x,-y,-z
-x,1/2+y,-z
1/4+y,3/4+x,1/4-z
1/4-y,1/4-x,3/4-z
-x,-y,-z
3/4+y,1/4-x,3/4-z
x,1/2+y,-z
3/4-y,3/4+x,1/4-z
-x,y,z
x,1/2-y,z
3/4-y,1/4-x,3/4+z
3/4+y,3/4+x,1/4+z
1/2+x,1/2+y,1/2+z
3/4-y,1/4+x,3/4+z
1/2-x,-y,1/2+z
3/4+y,3/4-x,1/4+z
1/2+x,1/2-y,1/2-z
1/2-x,y,1/2-z
3/4+y,1/4+x,3/4-z
3/4-y,3/4-x,1/4-z
1/2-x,1/2-y,1/2-z
1/4+y,3/4-x,1/4-z
1/2+x,y,1/2-z
1/4-y,1/4+x,3/4-z
1/2-x,1/2+y,1/2+z
1/2+x,-y,1/2+z
1/4-y,3/4-x,1/4+z
1/4+y,1/4+x,3/4+z
loop_
_atom_site_type_symbol
_atom_site_label
_atom_site_fract_x
_atom_site_fract_y
_atom_site_fract_z
Si Si1 0.312568 0.859990 0.888292
Si Si2 0.557614 0.870168 0.055489
Si Si3 0.350930 0.309870 0.881853
Si Si4 0.621610 0.949733 0.431413
Si Si5 0.440777 0.532385 0.207870
O O1 0.331613 0.918388 0.875000
O O2 0.348763 0.830831 0.799955
O O3 0.253652 0.844606 0.879828
O O4 0.324407 0.837456 0.011963
O O5 0.500000 0.856913 0.029314
O O6 0.590269 0.821758 0.091594
O O7 0.559755 0.911106 0.156603
O O8 0.339730 0.250000 0.875889
O O9 0.333844 0.339526 0.770099
O O10 0.667057 0.917057 0.375000
O O11 0.583149 0.965917 0.331785
O O12 0.639210 0.000000 0.500000
O O13 0.500000 0.514756 0.205986
#
# Coordination Sequence:
#
# PCOD9573081 Si02
#       5
#    32  32  32  32  32
#     4  10  21  36  58  94 128 160 206 266 316 370
#     4  10  21  37  58  90 131 166 205 257 310 374
#     4  11  22  38  63  92 124 164 210 259 313 375
#     4  12  25  44  67  91 125 160 209 268 322 382
#     4  11  21  37  65  94 122 167 215 260 313 369
#
# _framework density 19.595715999999999
#
# number of rings (size 3 to 8) (size 9 to 14) (size 15 to 20)
#    0.000    1.200    4.000    3.000    0.000    2.800 
#    0.000    1.000    0.000    3.600    0.000    0.000 
#    0.000    0.000    0.000    0.000    0.000    0.000 
#
# Total GULP energy -446420.361296 kJ/mol
# GULP energy per Si atom -5580.254516 kJ/mol
# Density = 1.955112 g / cm^3
# Si number density = 19.595716 Si / 1000 Ang^3
#
#
#
# Elastic Constant Matrix: (Units=GPa)
#
#
# Indices 1 2 3 4 5 6 
#
# 1 40.2748 2.0246 9.4462 0.0000 0.0000 0.0000
# 2 2.0246 40.2729 9.4459 0.0000 0.0000 0.0000
# 3 9.4462 9.4459 115.0316 0.0000 0.0000 0.0000
# 4 0.0000 0.0000 0.0000 24.6829 0.0000 0.0000
# 5 0.0000 0.0000 0.0000 0.0000 24.6846 0.0000
# 6 0.0000 0.0000 0.0000 0.0000 0.0000 25.0183
#
#
#
# Elastic Compliance Matrix: (Units=1/GPa)
#
#
# Indices 1 2 3 4 5 6 
#
# 1 0.025342 -0.000801 -0.002015 0.000000 0.000000 0.000000
# 2 -0.000801 0.025344 -0.002015 0.000000 0.000000 0.000000
# 3 -0.002015 -0.002015 0.009024 0.000000 0.000000 0.000000
# 4 0.000000 0.000000 0.000000 0.040514 0.000000 0.000000
# 5 0.000000 0.000000 0.000000 0.000000 0.040511 0.000000
# 6 0.000000 0.000000 0.000000 0.000000 0.000000 0.039971
#
#
# Mechanical properties :
#
#
# Convention : Reuss Voigt Hill
#
# Bulk Modulus (GPa) = 19.98144 26.37916 23.18030
# Shear Modulus (GPa) = 24.14854 26.52133 25.33493
#
# Velocity S-wave (km/s) = 3.51428 3.68288 3.59957
# Velocity P-wave (km/s) = 5.16583 5.61923 5.39729
#
# Compressibility (1/GPa) = 0.05004645
#
# Stress axis : x y z
#
# Youngs Moduli (GPa) = 39.45958 39.45774 110.81271
#
# Poissons Ratio (x) = 0.03162 0.22332
# Poissons Ratio (y) = 0.03162 0.22332
# Poissons Ratio (z) = 0.07952 0.07952
#
# Static dielectric constant tensor:
#      x y z
#    x 1.715590 0.000000 0.000000 
#    y 0.000000 1.715590 0.000000 
#    z 0.000000 0.000000 1.697980 
# 
# From -- ./inp_files/4888.got.cif
#   From: 2010.05.17/outbox.cif.g08.bks.cpg/sg141_3_cif.got.tgz:4888.got - 2010.05.20 13:30:51.
