data_PCOD9573951
_publ_section_title
;
Structure prediction by ZEFSAII (Michael W. Deem and Ramdas Pophale) SiO2 
 PCOD9573951
Probable space group: I 41/A C D
;
_chemical_formula_sum "Si O2"
_cell_formula_units_Z 136
_cell_length_a 21.215298
_cell_length_b 21.215298
_cell_length_c 14.106165
_cell_angle_alpha 90.000000
_cell_angle_beta 90.000000
_cell_angle_gamma 90.000000
_cell_volume 6349.027854
_symmetry_space_group_name_H-M "I 41/A C D"
_symmetry_group_IT_number 142
_space_group.IT_coordinate_system_code '2'
_symmetry_cell_setting 'tetragonal'
loop_
_space_group_symop_operation_xyz
x,y,z
1/4-y,3/4+x,1/4+z
-x,1/2-y,z
1/4+y,1/4-x,3/4+z
x,-y,1/2-z
1/2-x,y,-z
3/4+y,1/4+x,1/4-z
1/4-y,1/4-x,1/4-z
-x,-y,-z
3/4+y,1/4-x,3/4-z
x,1/2+y,-z
3/4-y,3/4+x,1/4-z
-x,y,1/2+z
1/2+x,-y,z
1/4-y,3/4-x,3/4+z
3/4+y,3/4+x,3/4+z
1/2+x,1/2+y,1/2+z
3/4-y,1/4+x,3/4+z
1/2-x,-y,1/2+z
3/4+y,3/4-x,1/4+z
1/2+x,1/2-y,-z
-x,1/2+y,1/2-z
1/4+y,3/4+x,3/4-z
3/4-y,3/4-x,3/4-z
1/2-x,1/2-y,1/2-z
1/4+y,3/4-x,1/4-z
1/2+x,y,1/2-z
1/4-y,1/4+x,3/4-z
1/2-x,1/2+y,z
x,1/2-y,1/2+z
3/4-y,1/4-x,1/4+z
1/4+y,1/4+x,1/4+z
loop_
_atom_site_type_symbol
_atom_site_label
_atom_site_fract_x
_atom_site_fract_y
_atom_site_fract_z
Si Si1 0.119395 0.528211 0.856092
Si Si2 0.994080 0.647443 0.120738
Si Si3 0.500000 0.750000 0.625000
Si Si4 0.854909 0.756098 0.434428
Si Si5 0.556638 0.549040 0.014717
O O1 0.122252 0.500000 0.750000
O O2 0.180775 0.569226 0.875000
O O3 0.058918 0.574837 0.852614
O O4 0.109125 0.478463 0.942752
O O5 0.938591 0.694865 0.150349
O O6 0.008781 0.596827 0.202224
O O7 0.968597 0.613906 0.028665
O O8 0.496982 0.680991 0.674393
O O9 0.818601 0.810717 0.375406
O O10 0.500000 0.500000 0.000000
#
# Coordination Sequence:
#
# PCOD9573951 Si02
#       5
#    32  32   8  32  32
#     4  11  23  44  71  91 125 182 240 287 339 411
#     4  11  22  36  61  97 139 181 219 272 348 423
#     4  12  20  36  66 104 140 178 200 264 350 424
#     4  11  21  38  62 100 140 173 222 274 343 417
#     4  10  23  36  59  94 128 173 229 275 332 400
#
# _framework density 21.420603
#
# number of rings (size 3 to 8) (size 9 to 14) (size 15 to 20)
#    0.000    1.176    3.529    4.235    3.294    0.000 
#    0.000    0.000    7.765    0.000    0.000    0.000 
#    0.000    0.000    0.000    0.000    0.000    0.000 
#
# Total GULP energy -379132.556490 kJ/mol
# GULP energy per Si atom -5575.478772 kJ/mol
# Density = 2.137185 g / cm^3
# Si number density = 21.420603 Si / 1000 Ang^3
#
#
#
# Elastic Constant Matrix: (Units=GPa)
#
#
# Indices 1 2 3 4 5 6 
#
# 1 43.1449 53.0386 19.5815 0.0000 0.0000 0.0000
# 2 53.0386 43.1431 19.5627 0.0000 0.0000 0.0000
# 3 19.5815 19.5627 106.0076 0.0000 0.0000 0.0000
# 4 0.0000 0.0000 0.0000 27.6015 0.0000 0.0000
# 5 0.0000 0.0000 0.0000 0.0000 27.6007 0.0000
# 6 0.0000 0.0000 0.0000 0.0000 0.0000 -18.1236
#
#
#
# Elastic Compliance Matrix: (Units=1/GPa)
#
#
# Indices 1 2 3 4 5 6 
#
# 1 -0.044915 0.056153 -0.002066 0.000000 0.000000 0.000000
# 2 0.056153 -0.044909 -0.002085 0.000000 0.000000 0.000000
# 3 -0.002066 -0.002085 0.010200 0.000000 0.000000 0.000000
# 4 0.000000 0.000000 0.000000 0.036230 0.000000 0.000000
# 5 0.000000 0.000000 0.000000 0.000000 0.036231 0.000000
# 6 0.000000 0.000000 0.000000 0.000000 0.000000 -0.055177
#
#
# Mechanical properties :
#
#
# Convention : Reuss Voigt Hill
#
# Bulk Modulus (GPa) = 41.01596 41.85126 41.43361
# Shear Modulus (GPa) = -31.60214 14.08989 -8.75612
#
# Velocity S-wave (km/s) = -3.84515 2.56749 -2.02400
# Velocity P-wave (km/s) = 0.72395 5.32631 3.73132
#
# Compressibility (1/GPa) = 0.02438075
#
# Stress axis : x y z
#
# Youngs Moduli (GPa) = -22.26445 -22.26733 98.04214
#
# Poissons Ratio (x) = 1.25038 0.20256
# Poissons Ratio (y) = 1.25022 0.20442
# Poissons Ratio (z) = -0.04600 -0.04643
#
# Static dielectric constant tensor:
#      x y z
#    x 1.771620 0.000000 0.000000 
#    y 0.000000 1.771570 0.000000 
#    z 0.000000 0.000000 4.559180 
# 
# From -- ./inp_files/5334.got.cif
#   From: 2010.05.17/outbox.cif.g08.bks.cpg/sg142_3_cif.got.tgz:5334.got - 2010.05.20 13:39:18.
