data_PCOD9573253
_publ_section_title
;
Structure prediction by ZEFSAII (Michael W. Deem and Ramdas Pophale) SiO2 
 PCOD9573253
Probable space group: I 41/A M D
;
_chemical_formula_sum "Si O2"
_cell_formula_units_Z 128
_cell_length_a 20.068587
_cell_length_b 20.068587
_cell_length_c 15.944095
_cell_angle_alpha 90.000000
_cell_angle_beta 90.000000
_cell_angle_gamma 90.000000
_cell_volume 6421.455310
_symmetry_space_group_name_H-M "I 41/A M D"
_symmetry_group_IT_number 141
_space_group.IT_coordinate_system_code '2'
_symmetry_cell_setting 'tetragonal'
loop_
_space_group_symop_operation_xyz
x,y,z
1/4-y,3/4+x,1/4+z
-x,1/2-y,z
1/4+y,1/4-x,3/4+z
x,-y,-z
-x,1/2+y,-z
1/4+y,3/4+x,1/4-z
1/4-y,1/4-x,3/4-z
-x,-y,-z
3/4+y,1/4-x,3/4-z
x,1/2+y,-z
3/4-y,3/4+x,1/4-z
-x,y,z
x,1/2-y,z
3/4-y,1/4-x,3/4+z
3/4+y,3/4+x,1/4+z
1/2+x,1/2+y,1/2+z
3/4-y,1/4+x,3/4+z
1/2-x,-y,1/2+z
3/4+y,3/4-x,1/4+z
1/2+x,1/2-y,1/2-z
1/2-x,y,1/2-z
3/4+y,1/4+x,3/4-z
3/4-y,3/4-x,1/4-z
1/2-x,1/2-y,1/2-z
1/4+y,3/4-x,1/4-z
1/2+x,y,1/2-z
1/4-y,1/4+x,3/4-z
1/2-x,1/2+y,1/2+z
1/2+x,-y,1/2+z
1/4-y,3/4-x,1/4+z
1/4+y,1/4+x,3/4+z
loop_
_atom_site_type_symbol
_atom_site_label
_atom_site_fract_x
_atom_site_fract_y
_atom_site_fract_z
Si Si1 0.576623 0.173378 0.625000
Si Si2 0.114093 0.000000 0.000000
Si Si3 0.102181 0.250000 0.413641
Si Si4 0.000000 0.352371 0.135323
Si Si5 0.394158 0.111762 0.800862
Si Si6 0.757689 0.250000 0.071160
Si Si7 0.000000 0.491947 0.879524
O O1 0.583896 0.250000 0.654539
O O2 0.623657 0.164735 0.545017
O O3 0.148754 0.063695 0.044032
O O4 0.065446 0.968901 0.070957
O O5 0.063821 0.313821 0.375000
O O6 0.093837 0.250000 0.514631
O O7 0.181712 0.250000 0.398112
O O8 0.071482 0.331293 0.099051
O O9 0.000000 0.428859 0.105432
O O10 0.433693 0.050060 0.840945
O O11 0.759063 0.250000 0.969640
#
# Coordination Sequence:
#
# PCOD9573253 Si02
#       7
#    16  16  16  16  32  16  16
#     4  11  20  30  48  92 142 176 202 220 275 340
#     4   9  18  30  50  76 128 175 212 214 268 341
#     4  10  24  50  74  82  94 143 203 271 335 378
#     4   9  20  38  60  85 118 153 212 246 297 359
#     4  11  20  33  55  91 132 173 198 239 277 354
#     4  11  22  35  62  89 119 143 194 256 311 352
#     4   8  16  32  50  78 116 173 203 233 255 342
#
# _framework density 19.933176
#
# number of rings (size 3 to 8) (size 9 to 14) (size 15 to 20)
#    0.000    2.000    2.500    2.250    0.000    2.500 
#    0.000    2.500   19.250    0.000    0.000    0.000 
#    0.000    0.000    0.000    0.000    0.000    0.000 
#
# Total GULP energy -356543.209367 kJ/mol
# GULP energy per Si atom -5570.987646 kJ/mol
# Density = 1.988781 g / cm^3
# Si number density = 19.933176 Si / 1000 Ang^3
#
#
#
# Elastic Constant Matrix: (Units=GPa)
#
#
# Indices 1 2 3 4 5 6 
#
# 1 144.7585 67.1578 18.8142 0.0000 0.0000 0.0000
# 2 67.1578 144.7591 18.8142 0.0000 0.0000 0.0000
# 3 18.8142 18.8142 74.5907 0.0000 0.0000 0.0000
# 4 0.0000 0.0000 0.0000 26.7250 0.0000 0.0000
# 5 0.0000 0.0000 0.0000 0.0000 26.7247 0.0000
# 6 0.0000 0.0000 0.0000 0.0000 0.0000 6.1323
#
#
#
# Elastic Compliance Matrix: (Units=1/GPa)
#
#
# Indices 1 2 3 4 5 6 
#
# 1 0.008913 -0.003973 -0.001246 0.000000 0.000000 0.000000
# 2 -0.003973 0.008913 -0.001246 0.000000 0.000000 0.000000
# 3 -0.001246 -0.001246 0.014035 0.000000 0.000000 0.000000
# 4 0.000000 0.000000 0.000000 0.037418 0.000000 0.000000
# 5 0.000000 0.000000 0.000000 0.000000 0.037419 0.000000
# 6 0.000000 0.000000 0.000000 0.000000 0.000000 0.163072
#
#
# Mechanical properties :
#
#
# Convention : Reuss Voigt Hill
#
# Bulk Modulus (GPa) = 52.82321 63.74228 58.28274
# Shear Modulus (GPa) = 17.30036 29.20454 23.25245
#
# Velocity S-wave (km/s) = 2.94924 3.83184 3.41914
# Velocity P-wave (km/s) = 6.17698 7.18504 6.69999
#
# Compressibility (1/GPa) = 0.01893107
#
# Stress axis : x y z
#
# Youngs Moduli (GPa) = 112.19212 112.19264 71.24999
#
# Poissons Ratio (x) = 0.44576 0.08878
# Poissons Ratio (y) = 0.44576 0.08878
# Poissons Ratio (z) = 0.13980 0.13980
#
# Static dielectric constant tensor:
#      x y z
#    x 1.791060 0.000000 0.000000 
#    y 0.000000 1.791060 0.000000 
#    z 0.000000 0.000000 1.684090 
# 
# From -- ./inp_files/6332.got.cif
#   From: 2010.05.17/outbox.cif.g08.bks.cpg/sg141_4_cif.got.tgz:6332.got - 2010.05.20 13:30:51.
