data_PCOD9573061
_publ_section_title
;
Structure prediction by ZEFSAII (Michael W. Deem and Ramdas Pophale) SiO2 
 PCOD9573061
Probable space group: I 41/A M D
;
_chemical_formula_sum "Si O2"
_cell_formula_units_Z 136
_cell_length_a 17.805017
_cell_length_b 17.805017
_cell_length_c 20.894795
_cell_angle_alpha 90.000000
_cell_angle_beta 90.000000
_cell_angle_gamma 90.000000
_cell_volume 6624.039293
_symmetry_space_group_name_H-M "I 41/A M D"
_symmetry_group_IT_number 141
_space_group.IT_coordinate_system_code '2'
_symmetry_cell_setting 'tetragonal'
loop_
_space_group_symop_operation_xyz
x,y,z
1/4-y,3/4+x,1/4+z
-x,1/2-y,z
1/4+y,1/4-x,3/4+z
x,-y,-z
-x,1/2+y,-z
1/4+y,3/4+x,1/4-z
1/4-y,1/4-x,3/4-z
-x,-y,-z
3/4+y,1/4-x,3/4-z
x,1/2+y,-z
3/4-y,3/4+x,1/4-z
-x,y,z
x,1/2-y,z
3/4-y,1/4-x,3/4+z
3/4+y,3/4+x,1/4+z
1/2+x,1/2+y,1/2+z
3/4-y,1/4+x,3/4+z
1/2-x,-y,1/2+z
3/4+y,3/4-x,1/4+z
1/2+x,1/2-y,1/2-z
1/2-x,y,1/2-z
3/4+y,1/4+x,3/4-z
3/4-y,3/4-x,1/4-z
1/2-x,1/2-y,1/2-z
1/4+y,3/4-x,1/4-z
1/2+x,y,1/2-z
1/4-y,1/4+x,3/4-z
1/2-x,1/2+y,1/2+z
1/2+x,-y,1/2+z
1/4-y,3/4-x,1/4+z
1/4+y,1/4+x,3/4+z
loop_
_atom_site_type_symbol
_atom_site_label
_atom_site_fract_x
_atom_site_fract_y
_atom_site_fract_z
Si Si1 0.193694 0.332156 0.842343
Si Si2 0.414539 0.973950 0.809086
Si Si3 0.500000 0.250000 0.827138
Si Si4 0.142035 0.141141 0.697634
Si Si5 0.175635 0.668150 0.708126
O O1 0.174211 0.250000 0.870126
O O2 0.149339 0.399339 0.875000
O O3 0.165309 0.333388 0.768984
O O4 0.283329 0.342599 0.843714
O O5 0.500000 0.982705 0.787495
O O6 0.414686 0.952060 0.884374
O O7 0.375684 0.902676 0.776221
O O8 0.372246 0.052056 0.800654
O O9 0.567399 0.315316 0.824129
O O10 0.138235 0.750000 0.717931
O O11 0.250000 0.665442 0.750000
#
# Coordination Sequence:
#
# PCOD9573061 Si02
#       5
#    32  32   8  32  32
#     4  11  25  41  62  93 127 162 212 262 312 371
#     4  10  21  35  61  89 112 160 207 242 313 374
#     4  12  20  42  69  80 134 174 196 261 314 384
#     4  11  23  41  61  93 126 164 206 260 317 370
#     4   9  20  38  59  85 121 154 198 258 307 364
#
# _framework density 20.531279000000001
#
# number of rings (size 3 to 8) (size 9 to 14) (size 15 to 20)
#    0.000    1.647    3.529    0.706    8.235    0.706 
#    0.000    2.353    2.588    0.000    0.000    0.000 
#    0.000    0.000    0.000    0.000    0.000    0.000 
#
# Total GULP energy -378683.494486 kJ/mol
# GULP energy per Si atom -5568.874919 kJ/mol
# Density = 2.048455 g / cm^3
# Si number density = 20.531279 Si / 1000 Ang^3
#
#
#
# Elastic Constant Matrix: (Units=GPa)
#
#
# Indices 1 2 3 4 5 6 
#
# 1 171.3192 70.0311 10.3527 0.0000 0.0000 0.0000
# 2 70.0311 171.3192 10.3527 0.0000 0.0000 0.0000
# 3 10.3527 10.3527 11.4463 0.0000 0.0000 0.0000
# 4 0.0000 0.0000 0.0000 8.2453 0.0000 0.0000
# 5 0.0000 0.0000 0.0000 0.0000 8.2453 0.0000
# 6 0.0000 0.0000 0.0000 0.0000 0.0000 48.0118
#
#
#
# Elastic Compliance Matrix: (Units=1/GPa)
#
#
# Indices 1 2 3 4 5 6 
#
# 1 0.007182 -0.002690 -0.004063 0.000000 0.000000 0.000000
# 2 -0.002690 0.007182 -0.004063 0.000000 0.000000 0.000000
# 3 -0.004063 -0.004063 0.094713 0.000000 0.000000 0.000000
# 4 0.000000 0.000000 0.000000 0.121282 0.000000 0.000000
# 5 0.000000 0.000000 0.000000 0.000000 0.121282 0.000000
# 6 0.000000 0.000000 0.000000 0.000000 0.000000 0.020828
#
#
# Mechanical properties :
#
#
# Convention : Reuss Voigt Hill
#
# Bulk Modulus (GPa) = 11.43559 59.50639 35.47099
# Shear Modulus (GPa) = 11.81334 30.45702 21.13518
#
# Velocity S-wave (km/s) = 2.40132 3.85573 3.21193
# Velocity P-wave (km/s) = 3.64285 6.99059 5.57399
#
# Compressibility (1/GPa) = 0.08744632
#
# Stress axis : x y z
#
# Youngs Moduli (GPa) = 139.22996 139.22997 10.55817
#
# Poissons Ratio (x) = 0.37459 0.04289
# Poissons Ratio (y) = 0.37459 0.04289
# Poissons Ratio (z) = 0.56565 0.56565
#
# Static dielectric constant tensor:
#      x y z
#    x 1.728860 0.000000 0.000000 
#    y 0.000000 1.728860 0.000000 
#    z 0.000000 0.000000 1.755020 
# 
# From -- ./inp_files/10140.got.cif
#   From: 2010.05.17/outbox.cif.g08.bks.cpg/sg141_6_cif.got.tgz:10140.got - 2010.05.20 13:30:51.
