data_PCOD9573230
_publ_section_title
;
Structure prediction by ZEFSAII (Michael W. Deem and Ramdas Pophale) SiO2 
 PCOD9573230
Probable space group: I 41/A M D
;
_chemical_formula_sum "Si O2"
_cell_formula_units_Z 84
_cell_length_a 14.933764
_cell_length_b 14.933764
_cell_length_c 18.490238
_cell_angle_alpha 90.000000
_cell_angle_beta 90.000000
_cell_angle_gamma 90.000000
_cell_volume 4123.643088
_symmetry_space_group_name_H-M "I 41/A M D"
_symmetry_group_IT_number 141
_space_group.IT_coordinate_system_code '2'
_symmetry_cell_setting 'tetragonal'
loop_
_space_group_symop_operation_xyz
x,y,z
1/4-y,3/4+x,1/4+z
-x,1/2-y,z
1/4+y,1/4-x,3/4+z
x,-y,-z
-x,1/2+y,-z
1/4+y,3/4+x,1/4-z
1/4-y,1/4-x,3/4-z
-x,-y,-z
3/4+y,1/4-x,3/4-z
x,1/2+y,-z
3/4-y,3/4+x,1/4-z
-x,y,z
x,1/2-y,z
3/4-y,1/4-x,3/4+z
3/4+y,3/4+x,1/4+z
1/2+x,1/2+y,1/2+z
3/4-y,1/4+x,3/4+z
1/2-x,-y,1/2+z
3/4+y,3/4-x,1/4+z
1/2+x,1/2-y,1/2-z
1/2-x,y,1/2-z
3/4+y,1/4+x,3/4-z
3/4-y,3/4-x,1/4-z
1/2-x,1/2-y,1/2-z
1/4+y,3/4-x,1/4-z
1/2+x,y,1/2-z
1/4-y,1/4+x,3/4-z
1/2-x,1/2+y,1/2+z
1/2+x,-y,1/2+z
1/4-y,3/4-x,1/4+z
1/4+y,1/4+x,3/4+z
loop_
_atom_site_type_symbol
_atom_site_label
_atom_site_fract_x
_atom_site_fract_y
_atom_site_fract_z
Si Si1 0.160734 0.750000 0.301804
Si Si2 0.329008 0.144961 0.200085
Si Si3 0.500000 0.875658 0.243411
Si Si4 0.329181 0.250000 0.971745
Si Si5 0.500000 0.750000 0.375000
O O1 0.250000 0.750000 0.250000
O O2 0.091724 0.833263 0.288690
O O3 0.185423 0.750000 0.385923
O O4 0.344244 0.094244 0.125000
O O5 0.313628 0.250000 0.183808
O O6 0.250000 0.109153 0.250000
O O7 0.415688 0.133678 0.249613
O O8 0.500000 0.836673 0.324746
O O9 0.500000 0.981470 0.241668
#
# Coordination Sequence:
#
# PCOD9573230 Si02
#       5
#    16  32  16  16   4
#     4  10  24  43  66  96 134 183 227 277 345 410
#     4  11  26  46  70  99 138 181 231 282 348 418
#     4  10  23  40  65  96 133 167 232 268 343 393
#     4  12  25  40  69  97 133 177 224 291 343 404
#     4   8  16  44  60  80 132 180 194 272 320 420
#
# _framework density 20.370336000000002
#
# number of rings (size 3 to 8) (size 9 to 14) (size 15 to 20)
#    0.000    1.524    1.905    2.857   10.667    1.524 
#    3.429    0.000    0.000    0.000    0.000    0.000 
#    0.000    0.000    0.000    0.000    0.000    0.000 
#
# Total GULP energy -234529.967765 kJ/mol
# GULP energy per Si atom -5584.046852 kJ/mol
# Density = 2.032397 g / cm^3
# Si number density = 20.370336 Si / 1000 Ang^3
#
#
#
# Elastic Constant Matrix: (Units=GPa)
#
#
# Indices 1 2 3 4 5 6 
#
# 1 95.4853 -4.2257 40.5546 0.0000 0.0000 0.0000
# 2 -4.2257 95.4853 40.5546 0.0000 0.0000 0.0000
# 3 40.5546 40.5546 163.4935 0.0000 0.0000 0.0000
# 4 0.0000 0.0000 0.0000 360.0753 0.0016 0.0000
# 5 0.0000 0.0000 0.0000 0.0016 360.0732 0.0000
# 6 0.0000 0.0000 0.0000 0.0000 0.0000 -3.5620
#
#
#
# Elastic Compliance Matrix: (Units=1/GPa)
#
#
# Indices 1 2 3 4 5 6 
#
# 1 0.012043 0.002014 -0.003487 0.000000 0.000000 0.000000
# 2 0.002014 0.012043 -0.003487 0.000000 0.000000 0.000000
# 3 -0.003487 -0.003487 0.007846 0.000000 0.000000 0.000000
# 4 0.000000 0.000000 0.000000 0.002777 0.000000 0.000000
# 5 0.000000 0.000000 0.000000 0.000000 0.002777 0.000000
# 6 0.000000 0.000000 0.000000 0.000000 0.000000 -0.280743
#
#
# Mechanical properties :
#
#
# Convention : Reuss Voigt Hill
#
# Bulk Modulus (GPa) = 45.42860 56.47012 50.94936
# Shear Modulus (GPa) = -22.12392 161.82269 69.84938
#
# Velocity S-wave (km/s) = -3.29916 8.92260 5.86210
# Velocity P-wave (km/s) = 2.79950 11.57291 8.41931
#
# Compressibility (1/GPa) = 0.02201257
#
# Stress axis : x y z
#
# Youngs Moduli (GPa) = 83.03689 83.03689 127.44969
#
# Poissons Ratio (x) = -0.16722 0.44439
# Poissons Ratio (y) = -0.16722 0.44439
# Poissons Ratio (z) = 0.28953 0.28953
#
# Static dielectric constant tensor:
#      x y z
#    x 1.719290 0.000000 0.000000 
#    y 0.000000 1.719290 0.000000 
#    z 0.000000 0.000000 1.719940 
# 
# From -- ./inp_files/9679.got.cif
#   From: 2010.05.17/outbox.cif.g08.bks.cpg/sg141_5_cif.got.tgz:9679.got - 2010.05.20 13:30:51.
