data_PCOD9573900
_publ_section_title
;
Structure prediction by ZEFSAII (Michael W. Deem and Ramdas Pophale) SiO2 
 PCOD9573900
Probable space group: I 41/A C D
;
_chemical_formula_sum "Si O2"
_cell_formula_units_Z 136
_cell_length_a 24.648821
_cell_length_b 24.648821
_cell_length_c 10.684540
_cell_angle_alpha 90.000000
_cell_angle_beta 90.000000
_cell_angle_gamma 90.000000
_cell_volume 6491.545885
_symmetry_space_group_name_H-M "I 41/A C D"
_symmetry_group_IT_number 142
_space_group.IT_coordinate_system_code '2'
_symmetry_cell_setting 'tetragonal'
loop_
_space_group_symop_operation_xyz
x,y,z
1/4-y,3/4+x,1/4+z
-x,1/2-y,z
1/4+y,1/4-x,3/4+z
x,-y,1/2-z
1/2-x,y,-z
3/4+y,1/4+x,1/4-z
1/4-y,1/4-x,1/4-z
-x,-y,-z
3/4+y,1/4-x,3/4-z
x,1/2+y,-z
3/4-y,3/4+x,1/4-z
-x,y,1/2+z
1/2+x,-y,z
1/4-y,3/4-x,3/4+z
3/4+y,3/4+x,3/4+z
1/2+x,1/2+y,1/2+z
3/4-y,1/4+x,3/4+z
1/2-x,-y,1/2+z
3/4+y,3/4-x,1/4+z
1/2+x,1/2-y,-z
-x,1/2+y,1/2-z
1/4+y,3/4+x,3/4-z
3/4-y,3/4-x,3/4-z
1/2-x,1/2-y,1/2-z
1/4+y,3/4-x,1/4-z
1/2+x,y,1/2-z
1/4-y,1/4+x,3/4-z
1/2-x,1/2+y,z
x,1/2-y,1/2+z
3/4-y,1/4-x,1/4+z
1/4+y,1/4+x,1/4+z
loop_
_atom_site_type_symbol
_atom_site_label
_atom_site_fract_x
_atom_site_fract_y
_atom_site_fract_z
Si Si1 0.553663 0.362020 0.180324
Si Si2 0.000000 0.750000 0.125000
Si Si3 0.374438 0.423178 0.137376
Si Si4 0.364513 0.385488 0.875000
Si Si5 0.708657 0.000000 0.250000
Si Si6 0.718103 0.741274 0.378295
O O1 0.525219 0.303514 0.192706
O O2 0.609609 0.359881 0.099725
O O3 0.575686 0.385721 0.312562
O O4 0.516670 0.408127 0.120940
O O5 0.329066 0.447314 0.226359
O O6 0.427850 0.458459 0.148608
O O7 0.356408 0.425171 0.990936
O O8 0.742203 0.007798 0.375000
O O9 0.750000 0.763293 0.500000
O O10 0.750000 0.750000 0.250000
#
# Coordination Sequence:
#
# PCOD9573900 Si02
#       6
#    32   8  32  16  16  32
#     4  10  22  42  68 104 148 194 235 296 366 440
#     4  12  20  38  72 108 156 190 246 304 368 450
#     4  10  23  45  69  99 144 177 244 292 358 431
#     4   8  20  41  68  96 144 188 228 284 368 429
#     4  12  30  50  74 106 136 190 246 314 372 424
#     4  12  25  43  71 104 143 193 240 287 363 437
#
# _framework density 20.950326
#
# number of rings (size 3 to 8) (size 9 to 14) (size 15 to 20)
#    1.412    0.000    3.529    1.412    4.941    0.471 
#    2.118    0.000    0.000    0.000    0.000    0.000 
#    0.000    0.000    0.000    0.000    0.000    0.000 
#
# Total GULP energy -378749.885521 kJ/mol
# GULP energy per Si atom -5569.851258 kJ/mol
# Density = 2.090264 g / cm^3
# Si number density = 20.950326 Si / 1000 Ang^3
#
#
#
# Elastic Constant Matrix: (Units=GPa)
#
#
# Indices 1 2 3 4 5 6 
#
# 1 92.1532 26.3537 38.2353 0.0000 0.0000 0.0000
# 2 26.3537 92.1560 38.2376 0.0000 0.0000 0.0000
# 3 38.2353 38.2376 103.2048 0.0000 0.0000 0.0000
# 4 0.0000 0.0000 0.0000 25.6077 0.0000 0.0000
# 5 0.0000 0.0000 0.0000 0.0000 25.6075 0.0000
# 6 0.0000 0.0000 0.0000 0.0000 0.0000 26.7081
#
#
#
# Elastic Compliance Matrix: (Units=1/GPa)
#
#
# Indices 1 2 3 4 5 6 
#
# 1 0.013143 -0.002054 -0.004108 0.000000 0.000000 0.000000
# 2 -0.002054 0.013143 -0.004109 0.000000 0.000000 0.000000
# 3 -0.004108 -0.004109 0.012734 0.000000 0.000000 0.000000
# 4 0.000000 0.000000 0.000000 0.039051 0.000000 0.000000
# 5 0.000000 0.000000 0.000000 0.000000 0.039051 0.000000
# 6 0.000000 0.000000 0.000000 0.000000 0.000000 0.037442
#
#
# Mechanical properties :
#
#
# Convention : Reuss Voigt Hill
#
# Bulk Modulus (GPa) = 54.11676 54.79635 54.45656
# Shear Modulus (GPa) = 27.58381 27.89717 27.74049
#
# Velocity S-wave (km/s) = 3.63248 3.65305 3.64278
# Velocity P-wave (km/s) = 6.59395 6.63364 6.61383
#
# Compressibility (1/GPa) = 0.01847856
#
# Stress axis : x y z
#
# Youngs Moduli (GPa) = 76.08328 76.08427 78.53103
#
# Poissons Ratio (x) = 0.15627 0.32264
# Poissons Ratio (y) = 0.15627 0.32266
# Poissons Ratio (z) = 0.31258 0.31261
#
# Static dielectric constant tensor:
#      x y z
#    x 1.771010 0.000000 0.000000 
#    y 0.000000 1.771010 0.000000 
#    z 0.000000 0.000000 1.883890 
# 
# From -- ./inp_files/3678.got.cif
#   From: 2010.05.17/outbox.cif.g08.bks.cpg/sg142_2_cif.got.tgz:3678.got - 2010.05.20 13:39:18.
