data_PCOD9573415
_publ_section_title
;
Structure prediction by ZEFSAII (Michael W. Deem and Ramdas Pophale) SiO2 
 PCOD9573415
Probable space group: I 41/A C D
;
_chemical_formula_sum "Si O2"
_cell_formula_units_Z 128
_cell_length_a 14.813525
_cell_length_b 14.813525
_cell_length_c 22.479001
_cell_angle_alpha 90.000000
_cell_angle_beta 90.000000
_cell_angle_gamma 90.000000
_cell_volume 4932.803734
_symmetry_space_group_name_H-M "I 41/A C D"
_symmetry_group_IT_number 142
_space_group.IT_coordinate_system_code '2'
_symmetry_cell_setting 'tetragonal'
loop_
_space_group_symop_operation_xyz
x,y,z
1/4-y,3/4+x,1/4+z
-x,1/2-y,z
1/4+y,1/4-x,3/4+z
x,-y,1/2-z
1/2-x,y,-z
3/4+y,1/4+x,1/4-z
1/4-y,1/4-x,1/4-z
-x,-y,-z
3/4+y,1/4-x,3/4-z
x,1/2+y,-z
3/4-y,3/4+x,1/4-z
-x,y,1/2+z
1/2+x,-y,z
1/4-y,3/4-x,3/4+z
3/4+y,3/4+x,3/4+z
1/2+x,1/2+y,1/2+z
3/4-y,1/4+x,3/4+z
1/2-x,-y,1/2+z
3/4+y,3/4-x,1/4+z
1/2+x,1/2-y,-z
-x,1/2+y,1/2-z
1/4+y,3/4+x,3/4-z
3/4-y,3/4-x,3/4-z
1/2-x,1/2-y,1/2-z
1/4+y,3/4-x,1/4-z
1/2+x,y,1/2-z
1/4-y,1/4+x,3/4-z
1/2-x,1/2+y,z
x,1/2-y,1/2+z
3/4-y,1/4-x,1/4+z
1/4+y,1/4+x,1/4+z
loop_
_atom_site_type_symbol
_atom_site_label
_atom_site_fract_x
_atom_site_fract_y
_atom_site_fract_z
Si Si1 0.410656 0.559589 0.003963
Si Si2 0.887070 0.601047 0.747071
Si Si3 0.154600 0.404600 0.625000
Si Si4 0.652671 0.381711 0.630975
Si Si5 0.130041 0.119960 0.625000
O O1 0.342047 0.473787 0.003391
O O2 0.396162 0.614730 0.063957
O O3 0.500000 0.500000 0.000000
O O4 0.404023 0.620558 0.945844
O O5 0.926046 0.500000 0.750000
O O6 0.905872 0.637335 0.680610
O O7 0.907562 0.648136 0.810301
O O8 0.261069 0.387465 0.616035
O O9 0.761318 0.366058 0.626567
#
# Coordination Sequence:
#
# PCOD9573415 Si02
#       5
#    32  32  16  32  16
#     4  10  17  24  39  65  94 119 151 193 237 288
#     4   8  13  23  41  61  84 114 144 180 229 278
#     4   9  16  28  44  60  90 129 150 185 248 300
#     4   8  13  23  40  60  84 115 147 180 231 286
#     4   7  10  18  36  60  76  96 136 177 210 257
#
# _framework density 25.948730000000001
#
# number of rings (size 3 to 8) (size 9 to 14) (size 15 to 20)
#    0.000    3.500    0.000    5.250    0.000    0.000 
#    0.000    0.000    0.000   30.000    0.000    0.000 
#    0.000  177.000    0.000    0.000    0.000    0.000 
#
# Total GULP energy -356736.891993 kJ/mol
# GULP energy per Si atom -5574.013937 kJ/mol
# Density = 2.588967 g / cm^3
# Si number density = 25.948730 Si / 1000 Ang^3
#
#
#
# Elastic Constant Matrix: (Units=GPa)
#
#
# Indices 1 2 3 4 5 6 
#
# 1 73.6865 4.1650 33.7762 0.0000 0.0000 0.0000
# 2 4.1650 73.6856 33.7762 0.0000 0.0000 0.0000
# 3 33.7762 33.7762 405.4665 0.0000 0.0000 0.0000
# 4 0.0000 0.0000 0.0000 -25.9118 0.0000 0.0000
# 5 0.0000 0.0000 0.0000 0.0000 -25.9113 0.0000
# 6 0.0000 0.0000 0.0000 0.0000 0.0000 4.8921
#
#
#
# Elastic Compliance Matrix: (Units=1/GPa)
#
#
# Indices 1 2 3 4 5 6 
#
# 1 0.014115 -0.000269 -0.001153 0.000000 0.000000 0.000000
# 2 -0.000269 0.014115 -0.001153 0.000000 0.000000 0.000000
# 3 -0.001153 -0.001153 0.002658 0.000000 0.000000 0.000000
# 4 0.000000 0.000000 0.000000 -0.038592 0.000000 0.000000
# 5 0.000000 0.000000 0.000000 0.000000 -0.038593 0.000000
# 6 0.000000 0.000000 0.000000 0.000000 0.000000 0.204412
#
#
# Mechanical properties :
#
#
# Convention : Reuss Voigt Hill
#
# Bulk Modulus (GPa) = 38.85515 77.36371 58.10943
# Shear Modulus (GPa) = 29.09590 22.68855 25.89223
#
# Velocity S-wave (km/s) = 3.35219 2.96017 3.16226
# Velocity P-wave (km/s) = 5.47624 6.44688 5.98128
#
# Compressibility (1/GPa) = 0.02573661
#
# Stress axis : x y z
#
# Youngs Moduli (GPa) = 70.84710 70.84626 376.15844
#
# Poissons Ratio (x) = 0.01907 0.43385
# Poissons Ratio (y) = 0.01907 0.43386
# Poissons Ratio (z) = 0.08171 0.08171
#
# Static dielectric constant tensor:
#      x y z
#    x 2.156150 0.000000 0.000000 
#    y 0.000000 2.156140 0.000000 
#    z 0.000000 0.000000 2.186110 
# 
# From -- ./inp_files/10040.got.cif
#   From: 2010.05.17/outbox.cif.g08.bks.cpg/sg142_6_cif.got.tgz:10040.got - 2010.05.20 13:39:18.
