data_PCOD9573996
_publ_section_title
;
Structure prediction by ZEFSAII (Michael W. Deem and Ramdas Pophale) SiO2 
 PCOD9573996
Probable space group: I 41/A C D
;
_chemical_formula_sum "Si O2"
_cell_formula_units_Z 72
_cell_length_a 11.137963
_cell_length_b 11.137963
_cell_length_c 24.327334
_cell_angle_alpha 90.000000
_cell_angle_beta 90.000000
_cell_angle_gamma 90.000000
_cell_volume 3017.908439
_symmetry_space_group_name_H-M "I 41/A C D"
_symmetry_group_IT_number 142
_space_group.IT_coordinate_system_code '2'
_symmetry_cell_setting 'tetragonal'
loop_
_space_group_symop_operation_xyz
x,y,z
1/4-y,3/4+x,1/4+z
-x,1/2-y,z
1/4+y,1/4-x,3/4+z
x,-y,1/2-z
1/2-x,y,-z
3/4+y,1/4+x,1/4-z
1/4-y,1/4-x,1/4-z
-x,-y,-z
3/4+y,1/4-x,3/4-z
x,1/2+y,-z
3/4-y,3/4+x,1/4-z
-x,y,1/2+z
1/2+x,-y,z
1/4-y,3/4-x,3/4+z
3/4+y,3/4+x,3/4+z
1/2+x,1/2+y,1/2+z
3/4-y,1/4+x,3/4+z
1/2-x,-y,1/2+z
3/4+y,3/4-x,1/4+z
1/2+x,1/2-y,-z
-x,1/2+y,1/2-z
1/4+y,3/4+x,3/4-z
3/4-y,3/4-x,3/4-z
1/2-x,1/2-y,1/2-z
1/4+y,3/4-x,1/4-z
1/2+x,y,1/2-z
1/4-y,1/4+x,3/4-z
1/2-x,1/2+y,z
x,1/2-y,1/2+z
3/4-y,1/4-x,1/4+z
1/4+y,1/4+x,1/4+z
loop_
_atom_site_type_symbol
_atom_site_label
_atom_site_fract_x
_atom_site_fract_y
_atom_site_fract_z
Si Si1 0.579850 0.502489 0.852969
Si Si2 0.034050 0.614573 0.037672
Si Si3 0.000000 0.750000 0.375000
O O1 0.706462 0.456462 0.875000
O O2 0.520730 0.578503 0.902383
O O3 0.612872 0.577321 0.800261
O O4 0.505873 0.378578 0.844245
O O5 0.000000 0.750000 0.019835
O O6 0.000000 0.500000 0.000000
#
# Coordination Sequence:
#
# PCOD9573996 Si02
#       3
#    32  32   8
#     4  10  23  47  77 115 173 212 280 367 437 521
#     4  12  26  48  79 120 165 224 284 358 446 538
#     4   8  24  40  80 112 146 236 264 352 460 500
#
# _framework density 23.857583000000002
#
# number of rings (size 3 to 8) (size 9 to 14) (size 15 to 20)
#    1.333    0.000    4.444    0.000    6.222    1.778 
#    0.000    4.444    0.000    0.000    0.000    0.000 
#    0.000    0.000    0.000    0.000    0.000    0.000 
#
# Total GULP energy -200448.800127 kJ/mol
# GULP energy per Si atom -5568.022226 kJ/mol
# Density = 2.380328 g / cm^3
# Si number density = 23.857583 Si / 1000 Ang^3
#
#
#
# Elastic Constant Matrix: (Units=GPa)
#
#
# Indices 1 2 3 4 5 6 
#
# 1 190.0448 92.6250 90.9315 0.0000 0.0000 0.0000
# 2 92.6250 190.0448 90.9315 0.0000 0.0000 0.0000
# 3 90.9315 90.9315 122.5711 0.0000 0.0000 0.0000
# 4 0.0000 0.0000 0.0000 44.6616 0.0000 0.0000
# 5 0.0000 0.0000 0.0000 0.0000 44.6616 0.0000
# 6 0.0000 0.0000 0.0000 0.0000 0.0000 62.8474
#
#
#
# Elastic Compliance Matrix: (Units=1/GPa)
#
#
# Indices 1 2 3 4 5 6 
#
# 1 0.008516 -0.001748 -0.005021 0.000000 0.000000 0.000000
# 2 -0.001748 0.008516 -0.005021 0.000000 0.000000 0.000000
# 3 -0.005021 -0.005021 0.015608 0.000000 0.000000 0.000000
# 4 0.000000 0.000000 0.000000 0.022391 0.000000 0.000000
# 5 0.000000 0.000000 0.000000 0.000000 0.022391 0.000000
# 6 0.000000 0.000000 0.000000 0.000000 0.000000 0.015912
#
#
# Mechanical properties :
#
#
# Convention : Reuss Voigt Hill
#
# Bulk Modulus (GPa) = 110.36939 116.84852 113.60896
# Shear Modulus (GPa) = 41.68915 45.64562 43.66738
#
# Velocity S-wave (km/s) = 4.18475 4.37882 4.28288
# Velocity P-wave (km/s) = 8.34935 8.63998 8.49591
#
# Compressibility (1/GPa) = 0.00906048
#
# Stress axis : x y z
#
# Youngs Moduli (GPa) = 117.41937 117.41937 64.06792
#
# Poissons Ratio (x) = 0.20529 0.32169
# Poissons Ratio (y) = 0.20529 0.32169
# Poissons Ratio (z) = 0.58957 0.58957
#
# Static dielectric constant tensor:
#      x y z
#    x 2.025550 0.000000 0.000000 
#    y 0.000000 2.025550 0.000000 
#    z 0.000000 0.000000 2.145070 
# 
# From -- ./inp_files/10767.got.cif
#   From: 2010.05.17/outbox.cif.g08.bks.cpg/sg142_6_cif.got.tgz:10767.got - 2010.05.20 13:39:18.
