data_PCOD9573482
_publ_section_title
;
Structure prediction by ZEFSAII (Michael W. Deem and Ramdas Pophale) SiO2 
 PCOD9573482
Probable space group: I 41/A C D
;
_chemical_formula_sum "Si O2"
_cell_formula_units_Z 160
_cell_length_a 17.456239
_cell_length_b 17.456239
_cell_length_c 29.802132
_cell_angle_alpha 90.000000
_cell_angle_beta 90.000000
_cell_angle_gamma 90.000000
_cell_volume 9081.314008
_symmetry_space_group_name_H-M "I 41/A C D"
_symmetry_group_IT_number 142
_space_group.IT_coordinate_system_code '2'
_symmetry_cell_setting 'tetragonal'
loop_
_space_group_symop_operation_xyz
x,y,z
1/4-y,3/4+x,1/4+z
-x,1/2-y,z
1/4+y,1/4-x,3/4+z
x,-y,1/2-z
1/2-x,y,-z
3/4+y,1/4+x,1/4-z
1/4-y,1/4-x,1/4-z
-x,-y,-z
3/4+y,1/4-x,3/4-z
x,1/2+y,-z
3/4-y,3/4+x,1/4-z
-x,y,1/2+z
1/2+x,-y,z
1/4-y,3/4-x,3/4+z
3/4+y,3/4+x,3/4+z
1/2+x,1/2+y,1/2+z
3/4-y,1/4+x,3/4+z
1/2-x,-y,1/2+z
3/4+y,3/4-x,1/4+z
1/2+x,1/2-y,-z
-x,1/2+y,1/2-z
1/4+y,3/4+x,3/4-z
3/4-y,3/4-x,3/4-z
1/2-x,1/2-y,1/2-z
1/4+y,3/4-x,1/4-z
1/2+x,y,1/2-z
1/4-y,1/4+x,3/4-z
1/2-x,1/2+y,z
x,1/2-y,1/2+z
3/4-y,1/4-x,1/4+z
1/4+y,1/4+x,1/4+z
loop_
_atom_site_type_symbol
_atom_site_label
_atom_site_fract_x
_atom_site_fract_y
_atom_site_fract_z
Si Si1 0.059295 0.026373 0.178404
Si Si2 0.234340 0.052074 0.706930
Si Si3 0.581317 0.630857 0.174512
Si Si4 0.796949 0.953052 0.875000
Si Si5 0.500000 0.250000 0.990840
Si Si6 0.866542 0.354071 0.982283
O O1 0.113186 0.033513 0.134894
O O2 0.096126 0.079990 0.217748
O O3 0.975119 0.058266 0.171767
O O4 0.060475 0.941608 0.198818
O O5 0.163627 0.102336 0.690703
O O6 0.307473 0.106020 0.718283
O O7 0.215863 0.000000 0.750000
O O8 0.257747 0.992509 0.667859
O O9 0.584586 0.665414 0.125000
O O10 0.546266 0.691128 0.209369
O O11 0.551843 0.311969 0.017399
#
# Coordination Sequence:
#
# PCOD9573482 Si02
#       6
#    32  32  32  16  16  32
#     4   9  19  35  61  82 120 153 197 244 304 354
#     4  11  21  37  62  88 118 156 210 249 298 367
#     4  11  24  35  57  91 122 151 203 254 307 363
#     4  10  18  38  61  85 114 156 198 248 290 366
#     4  10  23  36  58  84 129 156 194 256 315 363
#     4   9  18  38  57  88 113 161 200 238 301 370
#
# _framework density 17.618596
#
# number of rings (size 3 to 8) (size 9 to 14) (size 15 to 20)
#    0.000    2.000    5.000    0.300   11.200    0.800 
#    0.000    0.000    0.000    0.000    0.000    5.600 
#    0.000    0.000    0.000    0.000    0.000    0.000 
#
# Total GULP energy -445961.830707 kJ/mol
# GULP energy per Si atom -5574.522884 kJ/mol
# Density = 1.757850 g / cm^3
# Si number density = 17.618596 Si / 1000 Ang^3
#
#
#
# Elastic Constant Matrix: (Units=GPa)
#
#
# Indices 1 2 3 4 5 6 
#
# 1 92.1507 57.1674 19.7377 0.0000 0.0000 0.0000
# 2 57.1674 92.1491 19.7372 0.0000 0.0000 0.0000
# 3 19.7377 19.7372 57.7296 0.0000 0.0000 0.0000
# 4 0.0000 0.0000 0.0000 9.8833 0.0000 0.0000
# 5 0.0000 0.0000 0.0000 0.0000 9.8851 0.0000
# 6 0.0000 0.0000 0.0000 0.0000 0.0000 20.9998
#
#
#
# Elastic Compliance Matrix: (Units=1/GPa)
#
#
# Indices 1 2 3 4 5 6 
#
# 1 0.017974 -0.010612 -0.002517 0.000000 0.000000 0.000000
# 2 -0.010612 0.017974 -0.002517 0.000000 0.000000 0.000000
# 3 -0.002517 -0.002517 0.019043 0.000000 0.000000 0.000000
# 4 0.000000 0.000000 0.000000 0.101181 0.000000 0.000000
# 5 0.000000 0.000000 0.000000 0.000000 0.101162 0.000000
# 6 0.000000 0.000000 0.000000 0.000000 0.000000 0.047619
#
#
# Mechanical properties :
#
#
# Convention : Reuss Voigt Hill
#
# Bulk Modulus (GPa) = 42.19465 48.36821 45.28143
# Shear Modulus (GPa) = 14.52871 17.84612 16.18742
#
# Velocity S-wave (km/s) = 2.87474 3.18608 3.03441
# Velocity P-wave (km/s) = 5.91775 6.40682 6.16714
#
# Compressibility (1/GPa) = 0.02369969
#
# Stress axis : x y z
#
# Youngs Moduli (GPa) = 55.63569 55.63488 52.51165
#
# Poissons Ratio (x) = 0.59037 0.13219
# Poissons Ratio (y) = 0.59038 0.13218
# Poissons Ratio (z) = 0.14005 0.14004
#
# Static dielectric constant tensor:
#      x y z
#    x 1.601650 0.000000 0.000000 
#    y 0.000000 1.601650 0.000000 
#    z 0.000000 0.000000 1.595120 
# 
# From -- ./inp_files/12482.got.cif
#   From: 2010.05.17/outbox.cif.g08.bks.cpg/sg142_7_cif.got.tgz:12482.got - 2010.05.20 13:39:18.
