data_PCOD9573971
_publ_section_title
;
Structure prediction by ZEFSAII (Michael W. Deem and Ramdas Pophale) SiO2 
 PCOD9573971
Probable space group: I 41/A C D
;
_chemical_formula_sum "Si O2"
_cell_formula_units_Z 96
_cell_length_a 17.402490
_cell_length_b 17.402490
_cell_length_c 14.800826
_cell_angle_alpha 90.000000
_cell_angle_beta 90.000000
_cell_angle_gamma 90.000000
_cell_volume 4482.380693
_symmetry_space_group_name_H-M "I 41/A C D"
_symmetry_group_IT_number 142
_space_group.IT_coordinate_system_code '2'
_symmetry_cell_setting 'tetragonal'
loop_
_space_group_symop_operation_xyz
x,y,z
1/4-y,3/4+x,1/4+z
-x,1/2-y,z
1/4+y,1/4-x,3/4+z
x,-y,1/2-z
1/2-x,y,-z
3/4+y,1/4+x,1/4-z
1/4-y,1/4-x,1/4-z
-x,-y,-z
3/4+y,1/4-x,3/4-z
x,1/2+y,-z
3/4-y,3/4+x,1/4-z
-x,y,1/2+z
1/2+x,-y,z
1/4-y,3/4-x,3/4+z
3/4+y,3/4+x,3/4+z
1/2+x,1/2+y,1/2+z
3/4-y,1/4+x,3/4+z
1/2-x,-y,1/2+z
3/4+y,3/4-x,1/4+z
1/2+x,1/2-y,-z
-x,1/2+y,1/2-z
1/4+y,3/4+x,3/4-z
3/4-y,3/4-x,3/4-z
1/2-x,1/2-y,1/2-z
1/4+y,3/4-x,1/4-z
1/2+x,y,1/2-z
1/4-y,1/4+x,3/4-z
1/2-x,1/2+y,z
x,1/2-y,1/2+z
3/4-y,1/4-x,1/4+z
1/4+y,1/4+x,1/4+z
loop_
_atom_site_type_symbol
_atom_site_label
_atom_site_fract_x
_atom_site_fract_y
_atom_site_fract_z
Si Si1 0.706985 0.667761 0.241938
Si Si2 0.029899 0.672766 0.975115
Si Si3 0.160160 0.073883 0.316592
O O1 0.750000 0.750000 0.250000
O O2 0.625564 0.701403 0.214813
O O3 0.754470 0.610367 0.178417
O O4 0.701390 0.625634 0.338509
O O5 0.060380 0.689621 0.875000
O O6 0.000000 0.750000 0.020297
O O7 0.102738 0.636721 0.027108
O O8 0.158655 0.000000 0.250000
#
# Coordination Sequence:
#
# PCOD9573971 Si02
#       3
#    32  32  32
#     4  10  23  41  70 102 134 187 232 281 362 411
#     4  10  23  43  66 101 139 181 236 288 348 416
#     4  11  22  42  70 101 145 180 231 288 354 419
#
# _framework density 21.417190999999999
#
# number of rings (size 3 to 8) (size 9 to 14) (size 15 to 20)
#    0.000    1.667    0.000    5.000    9.333    0.000 
#   12.000    0.000    0.000    0.000    0.000    0.000 
#    0.000    0.000    0.000    0.000    0.000    0.000 
#
# Total GULP energy -267666.333608 kJ/mol
# GULP energy per Si atom -5576.381950 kJ/mol
# Density = 2.136844 g / cm^3
# Si number density = 21.417191 Si / 1000 Ang^3
#
#
#
# Elastic Constant Matrix: (Units=GPa)
#
#
# Indices 1 2 3 4 5 6 
#
# 1 106.5465 100.1857 34.6363 0.0000 0.0000 0.0000
# 2 100.1857 106.5473 34.6364 0.0000 0.0000 0.0000
# 3 34.6363 34.6364 89.5259 0.0000 0.0000 0.0000
# 4 0.0000 0.0000 0.0000 31.2054 0.0000 0.0000
# 5 0.0000 0.0000 0.0000 0.0000 31.2051 0.0000
# 6 0.0000 0.0000 0.0000 0.0000 0.0000 68.1374
#
#
#
# Elastic Compliance Matrix: (Units=1/GPa)
#
#
# Indices 1 2 3 4 5 6 
#
# 1 0.081381 -0.075823 -0.002150 0.000000 0.000000 0.000000
# 2 -0.075823 0.081380 -0.002150 0.000000 0.000000 0.000000
# 3 -0.002150 -0.002150 0.012834 0.000000 0.000000 0.000000
# 4 0.000000 0.000000 0.000000 0.032046 0.000000 0.000000
# 5 0.000000 0.000000 0.000000 0.000000 0.032046 0.000000
# 6 0.000000 0.000000 0.000000 0.000000 0.000000 0.014676
#
#
# Mechanical properties :
#
#
# Convention : Reuss Voigt Hill
#
# Bulk Modulus (GPa) = 65.15382 71.28183 68.21783
# Shear Modulus (GPa) = 11.91259 34.98700 23.44979
#
# Velocity S-wave (km/s) = 2.36098 4.04616 3.31252
# Velocity P-wave (km/s) = 6.15789 7.42855 6.82286
#
# Compressibility (1/GPa) = 0.01534829
#
# Stress axis : x y z
#
# Youngs Moduli (GPa) = 12.28795 12.28805 77.91979
#
# Poissons Ratio (x) = 0.93171 0.16754
# Poissons Ratio (y) = 0.93170 0.16754
# Poissons Ratio (z) = 0.02642 0.02642
#
# Static dielectric constant tensor:
#      x y z
#    x 1.844320 0.000000 0.000000 
#    y 0.000000 1.844310 0.000000 
#    z 0.000000 0.000000 1.749590 
# 
# From -- ./inp_files/6551.got.cif
#   From: 2010.05.17/outbox.cif.g08.bks.cpg/sg142_4_cif.got.tgz:6551.got - 2010.05.20 13:39:18.
