data_PCOD9573713
_publ_section_title
;
Structure prediction by ZEFSAII (Michael W. Deem and Ramdas Pophale) SiO2 
 PCOD9573713
Probable space group: I 41/A C D
;
_chemical_formula_sum "Si O2"
_cell_formula_units_Z 96
_cell_length_a 16.602838
_cell_length_b 16.602838
_cell_length_c 13.952875
_cell_angle_alpha 90.000000
_cell_angle_beta 90.000000
_cell_angle_gamma 90.000000
_cell_volume 3846.169010
_symmetry_space_group_name_H-M "I 41/A C D"
_symmetry_group_IT_number 142
_space_group.IT_coordinate_system_code '2'
_symmetry_cell_setting 'tetragonal'
loop_
_space_group_symop_operation_xyz
x,y,z
1/4-y,3/4+x,1/4+z
-x,1/2-y,z
1/4+y,1/4-x,3/4+z
x,-y,1/2-z
1/2-x,y,-z
3/4+y,1/4+x,1/4-z
1/4-y,1/4-x,1/4-z
-x,-y,-z
3/4+y,1/4-x,3/4-z
x,1/2+y,-z
3/4-y,3/4+x,1/4-z
-x,y,1/2+z
1/2+x,-y,z
1/4-y,3/4-x,3/4+z
3/4+y,3/4+x,3/4+z
1/2+x,1/2+y,1/2+z
3/4-y,1/4+x,3/4+z
1/2-x,-y,1/2+z
3/4+y,3/4-x,1/4+z
1/2+x,1/2-y,-z
-x,1/2+y,1/2-z
1/4+y,3/4+x,3/4-z
3/4-y,3/4-x,3/4-z
1/2-x,1/2-y,1/2-z
1/4+y,3/4-x,1/4-z
1/2+x,y,1/2-z
1/4-y,1/4+x,3/4-z
1/2-x,1/2+y,z
x,1/2-y,1/2+z
3/4-y,1/4-x,1/4+z
1/4+y,1/4+x,1/4+z
loop_
_atom_site_type_symbol
_atom_site_label
_atom_site_fract_x
_atom_site_fract_y
_atom_site_fract_z
Si Si1 0.064783 0.096162 0.266209
Si Si2 0.895407 0.117091 0.286517
Si Si3 0.911429 0.982405 0.036480
O O1 0.067598 0.125113 0.378767
O O2 0.151596 0.129932 0.233688
O O3 0.979036 0.130658 0.230893
O O4 0.067982 0.000000 0.250000
O O5 0.910432 0.038901 0.351867
O O6 0.812259 0.111164 0.231698
O O7 0.000000 0.000000 0.000000
#
# Coordination Sequence:
#
# PCOD9573713 Si02
#       3
#    32  32  32
#     4  10  23  41  66 104 140 186 238 294 365 425
#     4  10  21  43  68 104 143 188 241 294 360 431
#     4  10  20  41  71 102 138 189 242 293 368 428
#
# _framework density 24.959900999999999
#
# number of rings (size 3 to 8) (size 9 to 14) (size 15 to 20)
#    2.000    0.000    3.333    0.000    0.000    7.333 
#    6.000    0.000    0.000    0.000   17.333    0.000 
#    0.000    0.000    0.000    0.000    0.000    0.000 
#
# Total GULP energy -267765.263411 kJ/mol
# GULP energy per Si atom -5578.442988 kJ/mol
# Density = 2.490309 g / cm^3
# Si number density = 24.959901 Si / 1000 Ang^3
#
#
#
# Elastic Constant Matrix: (Units=GPa)
#
#
# Indices 1 2 3 4 5 6 
#
# 1 218.7158 89.4705 35.7923 0.0000 0.0000 0.0000
# 2 89.4705 218.7158 35.7923 0.0000 0.0000 0.0000
# 3 35.7923 35.7923 54.5427 0.0000 0.0000 0.0000
# 4 0.0000 0.0000 0.0000 37.5605 0.0000 0.0000
# 5 0.0000 0.0000 0.0000 0.0000 37.5605 0.0000
# 6 0.0000 0.0000 0.0000 0.0000 0.0000 18.4725
#
#
#
# Elastic Compliance Matrix: (Units=1/GPa)
#
#
# Indices 1 2 3 4 5 6 
#
# 1 0.005783 -0.001954 -0.002512 0.000000 0.000000 0.000000
# 2 -0.001954 0.005783 -0.002512 0.000000 0.000000 0.000000
# 3 -0.002512 -0.002512 0.021631 0.000000 0.000000 0.000000
# 4 0.000000 0.000000 0.000000 0.026624 0.000000 0.000000
# 5 0.000000 0.000000 0.000000 0.000000 0.026624 0.000000
# 6 0.000000 0.000000 0.000000 0.000000 0.000000 0.054134
#
#
# Mechanical properties :
#
#
# Convention : Reuss Voigt Hill
#
# Bulk Modulus (GPa) = 51.97741 90.45385 71.21563
# Shear Modulus (GPa) = 31.06557 40.77997 35.92277
#
# Velocity S-wave (km/s) = 3.53174 4.04644 3.79782
# Velocity P-wave (km/s) = 6.12377 7.62561 6.91558
#
# Compressibility (1/GPa) = 0.01923913
#
# Stress axis : x y z
#
# Youngs Moduli (GPa) = 172.92736 172.92736 46.22895
#
# Poissons Ratio (x) = 0.33798 0.11614
# Poissons Ratio (y) = 0.33798 0.11614
# Poissons Ratio (z) = 0.43444 0.43444
#
# Static dielectric constant tensor:
#      x y z
#    x 2.026020 0.000000 0.000000 
#    y 0.000000 2.026020 0.000000 
#    z 0.000000 0.000000 2.147290 
# 
# From -- ./inp_files/8412.got.cif
#   From: 2010.05.17/outbox.cif.g08.bks.cpg/sg142_5_cif.got.tgz:8412.got - 2010.05.20 13:39:18.
