data_PCOD9573549
_publ_section_title
;
Structure prediction by ZEFSAII (Michael W. Deem and Ramdas Pophale) SiO2 
 PCOD9573549
Probable space group: I 41/A C D
;
_chemical_formula_sum "Si O2"
_cell_formula_units_Z 112
_cell_length_a 16.698678
_cell_length_b 16.698678
_cell_length_c 15.824777
_cell_angle_alpha 90.000000
_cell_angle_beta 90.000000
_cell_angle_gamma 90.000000
_cell_volume 4412.673345
_symmetry_space_group_name_H-M "I 41/A C D"
_symmetry_group_IT_number 142
_space_group.IT_coordinate_system_code '2'
_symmetry_cell_setting 'tetragonal'
loop_
_space_group_symop_operation_xyz
x,y,z
1/4-y,3/4+x,1/4+z
-x,1/2-y,z
1/4+y,1/4-x,3/4+z
x,-y,1/2-z
1/2-x,y,-z
3/4+y,1/4+x,1/4-z
1/4-y,1/4-x,1/4-z
-x,-y,-z
3/4+y,1/4-x,3/4-z
x,1/2+y,-z
3/4-y,3/4+x,1/4-z
-x,y,1/2+z
1/2+x,-y,z
1/4-y,3/4-x,3/4+z
3/4+y,3/4+x,3/4+z
1/2+x,1/2+y,1/2+z
3/4-y,1/4+x,3/4+z
1/2-x,-y,1/2+z
3/4+y,3/4-x,1/4+z
1/2+x,1/2-y,-z
-x,1/2+y,1/2-z
1/4+y,3/4+x,3/4-z
3/4-y,3/4-x,3/4-z
1/2-x,1/2-y,1/2-z
1/4+y,3/4-x,1/4-z
1/2+x,y,1/2-z
1/4-y,1/4+x,3/4-z
1/2-x,1/2+y,z
x,1/2-y,1/2+z
3/4-y,1/4-x,1/4+z
1/4+y,1/4+x,1/4+z
loop_
_atom_site_type_symbol
_atom_site_label
_atom_site_fract_x
_atom_site_fract_y
_atom_site_fract_z
Si Si1 0.033681 0.607611 0.334213
Si Si2 0.093580 0.010584 0.972498
Si Si3 0.346315 0.096315 0.875000
Si Si4 0.069036 0.142030 0.855906
O O1 0.057477 0.692524 0.375000
O O2 0.086422 0.550026 0.393972
O O3 0.061333 0.606555 0.237127
O O4 0.938220 0.592675 0.338369
O O5 0.115928 0.091176 0.923074
O O6 0.148707 0.023838 0.055918
O O7 0.000000 0.000000 0.000000
O O8 0.101981 0.230986 0.853207
#
# Coordination Sequence:
#
# PCOD9573549 Si02
#       4
#    32  32  16  32
#     4  11  22  36  62  95 132 171 227 282 344 415
#     4  10  21  37  59  94 129 171 215 279 347 413
#     4  10  19  38  58  92 134 172 220 280 352 411
#     4  11  21  35  59  97 130 169 219 279 345 404
#
# _framework density 25.381440000000001
#
# number of rings (size 3 to 8) (size 9 to 14) (size 15 to 20)
#    0.000    1.429    2.857    4.714    4.000    0.000 
#    0.000    0.000    0.000    0.000   81.714    0.000 
#    0.000    0.000    0.000    0.000    0.000    0.000 
#
# Total GULP energy -311961.552358 kJ/mol
# GULP energy per Si atom -5570.742006 kJ/mol
# Density = 2.532367 g / cm^3
# Si number density = 25.381440 Si / 1000 Ang^3
#
#
#
# Elastic Constant Matrix: (Units=GPa)
#
#
# Indices 1 2 3 4 5 6 
#
# 1 56.8561 8.0604 47.2289 0.0000 0.0000 0.0000
# 2 8.0604 56.8551 47.2288 0.0000 0.0000 0.0000
# 3 47.2289 47.2288 185.0303 0.0000 0.0000 0.0000
# 4 0.0000 0.0000 0.0000 -51.5125 0.0000 0.0000
# 5 0.0000 0.0000 0.0000 0.0000 -51.4635 0.0000
# 6 0.0000 0.0000 0.0000 0.0000 0.0000 21.1966
#
#
#
# Elastic Compliance Matrix: (Units=1/GPa)
#
#
# Indices 1 2 3 4 5 6 
#
# 1 0.022500 0.002006 -0.006255 0.000000 0.000000 0.000000
# 2 0.002006 0.022500 -0.006255 0.000000 0.000000 0.000000
# 3 -0.006255 -0.006255 0.008598 0.000000 0.000000 0.000000
# 4 0.000000 0.000000 0.000000 -0.019413 0.000000 0.000000
# 5 0.000000 0.000000 0.000000 0.000000 -0.019431 0.000000
# 6 0.000000 0.000000 0.000000 0.000000 0.000000 0.047177
#
#
# Mechanical properties :
#
#
# Convention : Reuss Voigt Hill
#
# Bulk Modulus (GPa) = 30.68462 55.97530 43.32996
# Shear Modulus (GPa) = 53.30327 -3.27431 25.01448
#
# Velocity S-wave (km/s) = 4.58764 -1.13703 3.14274
# Velocity P-wave (km/s) = 6.33858 4.51417 5.50251
#
# Compressibility (1/GPa) = 0.03258962
#
# Stress axis : x y z
#
# Youngs Moduli (GPa) = 44.44470 44.44377 116.30872
#
# Poissons Ratio (x) = -0.08917 0.72753
# Poissons Ratio (y) = -0.08917 0.72754
# Poissons Ratio (z) = 0.27801 0.27801
#
# Static dielectric constant tensor:
#      x y z
#    x 2.125510 0.000000 0.000000 
#    y 0.000000 2.125500 0.000000 
#    z 0.000000 0.000000 2.032900 
# 
# From -- ./inp_files/6857.got.cif
#   From: 2010.05.17/outbox.cif.g08.bks.cpg/sg142_4_cif.got.tgz:6857.got - 2010.05.20 13:39:18.
