data_PCOD9573073
_publ_section_title
;
Structure prediction by ZEFSAII (Michael W. Deem and Ramdas Pophale) SiO2 
 PCOD9573073
Probable space group: I 41/A M D
;
_chemical_formula_sum "Si O2"
_cell_formula_units_Z 176
_cell_length_a 18.254966
_cell_length_b 18.254966
_cell_length_c 27.868135
_cell_angle_alpha 90.000000
_cell_angle_beta 90.000000
_cell_angle_gamma 90.000000
_cell_volume 9286.882751
_symmetry_space_group_name_H-M "I 41/A M D"
_symmetry_group_IT_number 141
_space_group.IT_coordinate_system_code '2'
_symmetry_cell_setting 'tetragonal'
loop_
_space_group_symop_operation_xyz
x,y,z
1/4-y,3/4+x,1/4+z
-x,1/2-y,z
1/4+y,1/4-x,3/4+z
x,-y,-z
-x,1/2+y,-z
1/4+y,3/4+x,1/4-z
1/4-y,1/4-x,3/4-z
-x,-y,-z
3/4+y,1/4-x,3/4-z
x,1/2+y,-z
3/4-y,3/4+x,1/4-z
-x,y,z
x,1/2-y,z
3/4-y,1/4-x,3/4+z
3/4+y,3/4+x,1/4+z
1/2+x,1/2+y,1/2+z
3/4-y,1/4+x,3/4+z
1/2-x,-y,1/2+z
3/4+y,3/4-x,1/4+z
1/2+x,1/2-y,1/2-z
1/2-x,y,1/2-z
3/4+y,1/4+x,3/4-z
3/4-y,3/4-x,1/4-z
1/2-x,1/2-y,1/2-z
1/4+y,3/4-x,1/4-z
1/2+x,y,1/2-z
1/4-y,1/4+x,3/4-z
1/2-x,1/2+y,1/2+z
1/2+x,-y,1/2+z
1/4-y,3/4-x,1/4+z
1/4+y,1/4+x,3/4+z
loop_
_atom_site_type_symbol
_atom_site_label
_atom_site_fract_x
_atom_site_fract_y
_atom_site_fract_z
Si Si1 0.325377 0.566055 0.186024
Si Si2 0.349864 0.662441 0.026754
Si Si3 0.087953 0.916185 0.668666
Si Si4 0.308160 0.405102 0.547058
Si Si5 0.586093 0.836093 0.375000
Si Si6 0.587642 0.670647 0.627925
O O1 0.369484 0.493596 0.169964
O O2 0.343325 0.583428 0.241568
O O3 0.238363 0.555323 0.183814
O O4 0.354845 0.629844 0.152455
O O5 0.339897 0.750000 0.028662
O O6 0.273783 0.626328 0.043307
O O7 0.409438 0.642065 0.066402
O O8 0.367045 0.644644 0.971510
O O9 0.117968 0.867968 0.625000
O O10 0.000000 0.925770 0.665149
O O11 0.361955 0.359036 0.580715
O O12 0.597042 0.750000 0.363856
O O13 0.500000 0.669714 0.624702
O O14 0.614386 0.750000 0.610381
#
# Coordination Sequence:
#
# PCOD9573073 Si02
#       6
#    32  32  32  32  16  32
#     4  10  22  38  58  86 115 148 196 246 289 342
#     4   9  19  37  59  84 115 152 194 236 283 340
#     4  10  22  38  58  86 118 152 191 237 293 352
#     4  10  21  38  60  82 113 156 195 239 287 342
#     4  11  24  38  56  88 124 156 193 238 292 350
#     4  10  21  36  56  82 112 150 193 239 292 345
#
# _framework density 18.951460999999998
#
# number of rings (size 3 to 8) (size 9 to 14) (size 15 to 20)
#    0.000    2.091    0.000    2.182    3.818    6.000 
#    0.000    5.455    0.000    2.182    0.000    0.000 
#    0.000    0.000    0.000    0.000    0.000    0.000 
#
# Total GULP energy -491101.461279 kJ/mol
# GULP energy per Si atom -5580.698424 kJ/mol
# Density = 1.890833 g / cm^3
# Si number density = 18.951461 Si / 1000 Ang^3
#
#
#
# Elastic Constant Matrix: (Units=GPa)
#
#
# Indices 1 2 3 4 5 6 
#
# 1 52.1279 35.8841 49.1576 0.0000 0.0000 0.0000
# 2 35.8841 52.1279 49.1576 0.0000 0.0000 0.0000
# 3 49.1576 49.1576 99.0184 0.0000 0.0000 0.0000
# 4 0.0000 0.0000 0.0000 30.5102 0.0000 0.0000
# 5 0.0000 0.0000 0.0000 0.0000 30.5102 0.0000
# 6 0.0000 0.0000 0.0000 0.0000 0.0000 26.3613
#
#
#
# Elastic Compliance Matrix: (Units=1/GPa)
#
#
# Indices 1 2 3 4 5 6 
#
# 1 0.043535 -0.018027 -0.012663 0.000000 0.000000 0.000000
# 2 -0.018027 0.043535 -0.012663 0.000000 0.000000 0.000000
# 3 -0.012663 -0.012663 0.022673 0.000000 0.000000 0.000000
# 4 0.000000 0.000000 0.000000 0.032776 0.000000 0.000000
# 5 0.000000 0.000000 0.000000 0.000000 0.032776 0.000000
# 6 0.000000 0.000000 0.000000 0.000000 0.000000 0.037934
#
#
# Mechanical properties :
#
#
# Convention : Reuss Voigt Hill
#
# Bulk Modulus (GPa) = 43.41243 52.40810 47.91026
# Shear Modulus (GPa) = 16.25411 22.08132 19.16772
#
# Velocity S-wave (km/s) = 2.93178 3.41713 3.18372
# Velocity P-wave (km/s) = 5.86663 6.57898 6.23299
#
# Compressibility (1/GPa) = 0.02303488
#
# Stress axis : x y z
#
# Youngs Moduli (GPa) = 22.97008 22.97008 44.10615
#
# Poissons Ratio (x) = 0.41408 0.55853
# Poissons Ratio (y) = 0.41408 0.55853
# Poissons Ratio (z) = 0.29088 0.29088
#
# Static dielectric constant tensor:
#      x y z
#    x 1.637660 0.000000 0.000000 
#    y 0.000000 1.637660 0.000000 
#    z 0.000000 0.000000 1.673750 
# 
# From -- ./inp_files/12898.got.cif
#   From: 2010.05.17/outbox.cif.g08.bks.cpg/sg141_7_cif.got.tgz:12898.got - 2010.05.20 13:30:51.
