data_PCOD9573982
_publ_section_title
;
Structure prediction by ZEFSAII (Michael W. Deem and Ramdas Pophale) SiO2 
 PCOD9573982
Probable space group: I 41/A C D
;
_chemical_formula_sum "Si O2"
_cell_formula_units_Z 176
_cell_length_a 17.728204
_cell_length_b 17.728204
_cell_length_c 26.670707
_cell_angle_alpha 90.000000
_cell_angle_beta 90.000000
_cell_angle_gamma 90.000000
_cell_volume 8382.315622
_symmetry_space_group_name_H-M "I 41/A C D"
_symmetry_group_IT_number 142
_space_group.IT_coordinate_system_code '2'
_symmetry_cell_setting 'tetragonal'
loop_
_space_group_symop_operation_xyz
x,y,z
1/4-y,3/4+x,1/4+z
-x,1/2-y,z
1/4+y,1/4-x,3/4+z
x,-y,1/2-z
1/2-x,y,-z
3/4+y,1/4+x,1/4-z
1/4-y,1/4-x,1/4-z
-x,-y,-z
3/4+y,1/4-x,3/4-z
x,1/2+y,-z
3/4-y,3/4+x,1/4-z
-x,y,1/2+z
1/2+x,-y,z
1/4-y,3/4-x,3/4+z
3/4+y,3/4+x,3/4+z
1/2+x,1/2+y,1/2+z
3/4-y,1/4+x,3/4+z
1/2-x,-y,1/2+z
3/4+y,3/4-x,1/4+z
1/2+x,1/2-y,-z
-x,1/2+y,1/2-z
1/4+y,3/4+x,3/4-z
3/4-y,3/4-x,3/4-z
1/2-x,1/2-y,1/2-z
1/4+y,3/4-x,1/4-z
1/2+x,y,1/2-z
1/4-y,1/4+x,3/4-z
1/2-x,1/2+y,z
x,1/2-y,1/2+z
3/4-y,1/4-x,1/4+z
1/4+y,1/4+x,1/4+z
loop_
_atom_site_type_symbol
_atom_site_label
_atom_site_fract_x
_atom_site_fract_y
_atom_site_fract_z
Si Si1 0.996220 0.660345 0.249902
Si Si2 0.644316 0.909374 0.042426
Si Si3 0.028432 0.642665 0.641242
Si Si4 0.750000 0.462069 0.500000
Si Si5 0.560215 0.983614 0.128689
Si Si6 0.319864 0.653209 0.579113
O O1 0.910199 0.633592 0.259231
O O2 0.000000 0.750000 0.253044
O O3 0.012830 0.631183 0.194136
O O4 0.053413 0.625407 0.290253
O O5 0.577454 0.938080 0.078401
O O6 0.704130 0.868350 0.079401
O O7 0.682572 0.980227 0.015141
O O8 0.964371 0.667524 0.602506
O O9 0.073321 0.571651 0.622399
O O10 0.726364 0.407876 0.453659
O O11 0.474183 0.974622 0.146864
O O12 0.362510 0.612510 0.625000
#
# Coordination Sequence:
#
# PCOD9573982 Si02
#       6
#    32  32  32  16  32  32
#     4  11  22  45  69  94 136 179 237 281 345 427
#     4  10  24  42  67 100 131 189 228 291 360 423
#     4  11  23  39  64  98 129 176 217 279 350 410
#     4  12  26  42  68 106 148 178 238 308 374 428
#     4  10  23  43  67  92 140 179 230 281 355 422
#     4  11  26  44  68 101 135 188 234 294 349 429
#
# _framework density 20.996583999999999
#
# number of rings (size 3 to 8) (size 9 to 14) (size 15 to 20)
#    0.000    1.273    1.818    3.273    7.636    6.182 
#    0.000    2.727    0.000    0.000    0.000    0.000 
#    0.000    0.000    0.000    0.000    0.000    0.000 
#
# Total GULP energy -491469.995521 kJ/mol
# GULP energy per Si atom -5584.886313 kJ/mol
# Density = 2.094879 g / cm^3
# Si number density = 20.996584 Si / 1000 Ang^3
#
#
#
# Elastic Constant Matrix: (Units=GPa)
#
#
# Indices 1 2 3 4 5 6 
#
# 1 112.3538 41.0305 34.5011 0.0000 0.0000 0.0000
# 2 41.0305 112.3538 34.5011 0.0000 0.0000 0.0000
# 3 34.5011 34.5011 98.8925 0.0000 0.0000 0.0000
# 4 0.0000 0.0000 0.0000 22.0396 0.0000 0.0000
# 5 0.0000 0.0000 0.0000 0.0000 22.0396 0.0000
# 6 0.0000 0.0000 0.0000 0.0000 0.0000 15.6526
#
#
#
# Elastic Compliance Matrix: (Units=1/GPa)
#
#
# Indices 1 2 3 4 5 6 
#
# 1 0.010877 -0.003144 -0.002698 0.000000 0.000000 0.000000
# 2 -0.003144 0.010877 -0.002698 0.000000 0.000000 0.000000
# 3 -0.002698 -0.002698 0.011994 0.000000 0.000000 0.000000
# 4 0.000000 0.000000 0.000000 0.045373 0.000000 0.000000
# 5 0.000000 0.000000 0.000000 0.000000 0.045373 0.000000
# 6 0.000000 0.000000 0.000000 0.000000 0.000000 0.063887
#
#
# Mechanical properties :
#
#
# Convention : Reuss Voigt Hill
#
# Bulk Modulus (GPa) = 59.99068 60.40728 60.19898
# Shear Modulus (GPa) = 23.69478 26.18419 24.93948
#
# Velocity S-wave (km/s) = 3.36297 3.53522 3.45017
# Velocity P-wave (km/s) = 6.61159 6.74509 6.67867
#
# Compressibility (1/GPa) = 0.01666926
#
# Stress axis : x y z
#
# Youngs Moduli (GPa) = 91.93729 91.93729 83.37168
#
# Poissons Ratio (x) = 0.28902 0.22493
# Poissons Ratio (y) = 0.28902 0.22493
# Poissons Ratio (z) = 0.24804 0.24804
#
# Static dielectric constant tensor:
#      x y z
#    x 1.753370 0.000000 0.000000 
#    y 0.000000 1.753370 0.000000 
#    z 0.000000 0.000000 1.741330 
# 
# From -- ./inp_files/11469.got.cif
#   From: 2010.05.17/outbox.cif.g08.bks.cpg/sg142_6_cif.got.tgz:11469.got - 2010.05.20 13:39:18.
