data_PCOD9573008
_publ_section_title
;
Structure prediction by ZEFSAII (Michael W. Deem and Ramdas Pophale) SiO2 
 PCOD9573008
Probable space group: I 41/A M D
;
_chemical_formula_sum "Si O2"
_cell_formula_units_Z 192
_cell_length_a 21.258059
_cell_length_b 21.258059
_cell_length_c 24.310777
_cell_angle_alpha 90.000000
_cell_angle_beta 90.000000
_cell_angle_gamma 90.000000
_cell_volume 10986.163441
_symmetry_space_group_name_H-M "I 41/A M D"
_symmetry_group_IT_number 141
_space_group.IT_coordinate_system_code '2'
_symmetry_cell_setting 'tetragonal'
loop_
_space_group_symop_operation_xyz
x,y,z
1/4-y,3/4+x,1/4+z
-x,1/2-y,z
1/4+y,1/4-x,3/4+z
x,-y,-z
-x,1/2+y,-z
1/4+y,3/4+x,1/4-z
1/4-y,1/4-x,3/4-z
-x,-y,-z
3/4+y,1/4-x,3/4-z
x,1/2+y,-z
3/4-y,3/4+x,1/4-z
-x,y,z
x,1/2-y,z
3/4-y,1/4-x,3/4+z
3/4+y,3/4+x,1/4+z
1/2+x,1/2+y,1/2+z
3/4-y,1/4+x,3/4+z
1/2-x,-y,1/2+z
3/4+y,3/4-x,1/4+z
1/2+x,1/2-y,1/2-z
1/2-x,y,1/2-z
3/4+y,1/4+x,3/4-z
3/4-y,3/4-x,1/4-z
1/2-x,1/2-y,1/2-z
1/4+y,3/4-x,1/4-z
1/2+x,y,1/2-z
1/4-y,1/4+x,3/4-z
1/2-x,1/2+y,1/2+z
1/2+x,-y,1/2+z
1/4-y,3/4-x,1/4+z
1/4+y,1/4+x,3/4+z
loop_
_atom_site_type_symbol
_atom_site_label
_atom_site_fract_x
_atom_site_fract_y
_atom_site_fract_z
Si Si1 0.793767 0.181138 0.696480
Si Si2 0.673151 0.943537 0.242804
Si Si3 0.376990 0.323284 0.983811
Si Si4 0.222229 0.750000 0.660062
Si Si5 0.698719 0.630143 0.914799
Si Si6 0.256045 0.175750 0.577452
Si Si7 0.650146 0.750000 0.728538
O O1 0.823313 0.250000 0.686327
O O2 0.750000 0.186475 0.750000
O O3 0.837725 0.123291 0.712784
O O4 0.751370 0.166493 0.642904
O O5 0.750000 0.949826 0.250000
O O6 0.648645 0.996632 0.201697
O O7 0.628366 0.953279 0.296651
O O8 0.392600 0.250000 0.986094
O O9 0.355490 0.346938 0.043719
O O10 0.315021 0.330894 0.946144
O O11 0.437024 0.362136 0.965214
O O12 0.219055 0.810770 0.621521
O O13 0.286177 0.750000 0.694250
O O14 0.167785 0.750000 0.706449
O O15 0.672685 0.577316 0.875000
O O16 0.274801 0.250000 0.567189
#
# Coordination Sequence:
#
# PCOD9573008 Si02
#       7
#    32  32  32  16  32  32  16
#     4   9  19  37  60  84 113 149 184 229 286 347
#     4  10  23  34  57  90 114 146 192 238 287 341
#     4  10  20  37  56  77 108 150 198 234 280 331
#     4  11  24  38  52  80 116 152 195 238 292 348
#     4  11  22  36  57  79 114 154 193 242 288 335
#     4   9  20  38  56  81 121 154 184 230 293 352
#     4  11  23  36  54  82 109 151 196 246 288 321
#
# _framework density 17.476527999999998
#
# number of rings (size 3 to 8) (size 9 to 14) (size 15 to 20)
#    0.000    2.000    2.500    0.250    5.833    3.333 
#    0.000    0.000    0.000    0.500    0.000    0.000 
#    0.000   10.667    0.000    0.000    0.000    0.000 
#
# Total GULP energy -534838.047830 kJ/mol
# GULP energy per Si atom -5571.229665 kJ/mol
# Density = 1.743675 g / cm^3
# Si number density = 17.476528 Si / 1000 Ang^3
#
#
#
# Elastic Constant Matrix: (Units=GPa)
#
#
# Indices 1 2 3 4 5 6 
#
# 1 82.1537 42.9938 24.5406 0.0000 0.0000 0.0000
# 2 42.9938 82.1581 24.5416 0.0000 0.0000 0.0000
# 3 24.5406 24.5416 101.6707 0.0000 0.0000 0.0000
# 4 0.0000 0.0000 0.0000 17.1054 0.0000 0.0000
# 5 0.0000 0.0000 0.0000 0.0000 17.1052 0.0000
# 6 0.0000 0.0000 0.0000 0.0000 0.0000 25.6271
#
#
#
# Elastic Compliance Matrix: (Units=1/GPa)
#
#
# Indices 1 2 3 4 5 6 
#
# 1 0.017181 -0.008354 -0.002130 0.000000 0.000000 0.000000
# 2 -0.008354 0.017180 -0.002130 0.000000 0.000000 0.000000
# 3 -0.002130 -0.002130 0.010864 0.000000 0.000000 0.000000
# 4 0.000000 0.000000 0.000000 0.058461 0.000000 0.000000
# 5 0.000000 0.000000 0.000000 0.000000 0.058462 0.000000
# 6 0.000000 0.000000 0.000000 0.000000 0.000000 0.039021
#
#
# Mechanical properties :
#
#
# Convention : Reuss Voigt Hill
#
# Bulk Modulus (GPa) = 50.01386 50.01495 50.01441
# Shear Modulus (GPa) = 21.45329 23.56130 22.50729
#
# Velocity S-wave (km/s) = 3.50744 3.67572 3.59257
# Velocity P-wave (km/s) = 6.71437 6.83338 6.77413
#
# Compressibility (1/GPa) = 0.01999446
#
# Stress axis : x y z
#
# Youngs Moduli (GPa) = 58.20430 58.20734 92.04598
#
# Poissons Ratio (x) = 0.48629 0.19609
# Poissons Ratio (y) = 0.48627 0.19610
# Poissons Ratio (z) = 0.12400 0.12401
#
# Static dielectric constant tensor:
#      x y z
#    x 1.593120 0.000000 0.000000 
#    y 0.000000 1.593120 0.000000 
#    z 0.000000 0.000000 1.608400 
# 
# From -- ./inp_files/11769.got.cif
#   From: 2010.05.17/outbox.cif.g08.bks.cpg/sg141_6_cif.got.tgz:11769.got - 2010.05.20 13:30:51.
