data_PCOD9573311
_publ_section_title
;
Structure prediction by ZEFSAII (Michael W. Deem and Ramdas Pophale) SiO2 
 PCOD9573311
Probable space group: I 41/A M D
;
_chemical_formula_sum "Si O2"
_cell_formula_units_Z 128
_cell_length_a 20.585505
_cell_length_b 20.585505
_cell_length_c 14.461480
_cell_angle_alpha 90.000000
_cell_angle_beta 90.000000
_cell_angle_gamma 90.000000
_cell_volume 6128.240382
_symmetry_space_group_name_H-M "I 41/A M D"
_symmetry_group_IT_number 141
_space_group.IT_coordinate_system_code '2'
_symmetry_cell_setting 'tetragonal'
loop_
_space_group_symop_operation_xyz
x,y,z
1/4-y,3/4+x,1/4+z
-x,1/2-y,z
1/4+y,1/4-x,3/4+z
x,-y,-z
-x,1/2+y,-z
1/4+y,3/4+x,1/4-z
1/4-y,1/4-x,3/4-z
-x,-y,-z
3/4+y,1/4-x,3/4-z
x,1/2+y,-z
3/4-y,3/4+x,1/4-z
-x,y,z
x,1/2-y,z
3/4-y,1/4-x,3/4+z
3/4+y,3/4+x,1/4+z
1/2+x,1/2+y,1/2+z
3/4-y,1/4+x,3/4+z
1/2-x,-y,1/2+z
3/4+y,3/4-x,1/4+z
1/2+x,1/2-y,1/2-z
1/2-x,y,1/2-z
3/4+y,1/4+x,3/4-z
3/4-y,3/4-x,1/4-z
1/2-x,1/2-y,1/2-z
1/4+y,3/4-x,1/4-z
1/2+x,y,1/2-z
1/4-y,1/4+x,3/4-z
1/2-x,1/2+y,1/2+z
1/2+x,-y,1/2+z
1/4-y,3/4-x,1/4+z
1/4+y,1/4+x,3/4+z
loop_
_atom_site_type_symbol
_atom_site_label
_atom_site_fract_x
_atom_site_fract_y
_atom_site_fract_z
Si Si1 0.000000 0.481364 0.374018
Si Si2 0.355064 0.427376 0.519158
Si Si3 0.140700 0.533442 0.706144
Si Si4 0.370693 0.673717 0.102109
Si Si5 0.130414 0.750000 0.769903
O O1 0.068112 0.485222 0.323248
O O2 0.000000 0.407523 0.415765
O O3 0.000000 0.547920 0.433268
O O4 0.381912 0.500000 0.500000
O O5 0.345753 0.404248 0.625000
O O6 0.282470 0.427473 0.477601
O O7 0.400342 0.380109 0.458192
O O8 0.175773 0.574228 0.625000
O O9 0.127326 0.574032 0.798779
O O10 0.352806 0.750000 0.094270
O O11 0.438340 0.660238 0.051333
#
# Coordination Sequence:
#
# PCOD9573311 Si02
#       5
#    16  32  32  32  16
#     4  11  22  40  68 100 138 178 217 268 349 415
#     4  12  26  46  69  99 133 177 233 296 357 411
#     4  12  24  41  70 103 138 174 219 282 347 413
#     4  12  26  44  68  97 138 186 229 282 343 413
#     4  11  23  42  68 101 136 178 225 278 340 423
#
# _framework density 20.886908999999999
#
# number of rings (size 3 to 8) (size 9 to 14) (size 15 to 20)
#    0.000    0.250    8.750    1.125    0.000    0.500 
#    4.500    0.000    0.000    0.000    0.000    0.000 
#    0.000    0.000    0.000    0.000    0.000    0.000 
#
# Total GULP energy -357199.243437 kJ/mol
# GULP energy per Si atom -5581.238179 kJ/mol
# Density = 2.083937 g / cm^3
# Si number density = 20.886909 Si / 1000 Ang^3
#
#
#
# Elastic Constant Matrix: (Units=GPa)
#
#
# Indices 1 2 3 4 5 6 
#
# 1 69.3030 -4.6323 13.4296 0.0000 0.0000 0.0000
# 2 -4.6323 69.3015 13.4295 0.0000 0.0000 0.0000
# 3 13.4296 13.4295 88.1371 0.0000 0.0000 0.0000
# 4 0.0000 0.0000 0.0000 25.8475 0.0000 0.0000
# 5 0.0000 0.0000 0.0000 0.0000 25.8474 0.0000
# 6 0.0000 0.0000 0.0000 0.0000 0.0000 -49.4862
#
#
#
# Elastic Compliance Matrix: (Units=1/GPa)
#
#
# Indices 1 2 3 4 5 6 
#
# 1 0.015016 0.001491 -0.002515 0.000000 0.000000 0.000000
# 2 0.001491 0.015017 -0.002515 0.000000 0.000000 0.000000
# 3 -0.002515 -0.002515 0.012112 0.000000 0.000000 0.000000
# 4 0.000000 0.000000 0.000000 0.038688 0.000000 0.000000
# 5 0.000000 0.000000 0.000000 0.000000 0.038689 0.000000
# 6 0.000000 0.000000 0.000000 0.000000 0.000000 -0.020208
#
#
# Mechanical properties :
#
#
# Convention : Reuss Voigt Hill
#
# Bulk Modulus (GPa) = 28.51698 30.13281 29.32490
# Shear Modulus (GPa) = 42.34307 14.07605 28.20956
#
# Velocity S-wave (km/s) = 4.50739 2.59881 3.67902
# Velocity P-wave (km/s) = 6.38525 4.84387 5.66721
#
# Compressibility (1/GPa) = 0.03506683
#
# Stress axis : x y z
#
# Youngs Moduli (GPa) = 66.59348 66.59206 82.55939
#
# Poissons Ratio (x) = -0.09930 0.20766
# Poissons Ratio (y) = -0.09930 0.20766
# Poissons Ratio (z) = 0.16750 0.16750
#
# Static dielectric constant tensor:
#      x y z
#    x 1.723510 0.000000 0.000000 
#    y 0.000000 1.723510 0.000000 
#    z 0.000000 0.000000 1.927290 
# 
# From -- ./inp_files/6234.got.cif
#   From: 2010.05.17/outbox.cif.g08.bks.cpg/sg141_4_cif.got.tgz:6234.got - 2010.05.20 13:30:51.
