data_PCOD9573608
_publ_section_title
;
Structure prediction by ZEFSAII (Michael W. Deem and Ramdas Pophale) SiO2 
 PCOD9573608
Probable space group: I 41/A C D
;
_chemical_formula_sum "Si O2"
_cell_formula_units_Z 160
_cell_length_a 15.227814
_cell_length_b 15.227814
_cell_length_c 30.509433
_cell_angle_alpha 90.000000
_cell_angle_beta 90.000000
_cell_angle_gamma 90.000000
_cell_volume 7074.720120
_symmetry_space_group_name_H-M "I 41/A C D"
_symmetry_group_IT_number 142
_space_group.IT_coordinate_system_code '2'
_symmetry_cell_setting 'tetragonal'
loop_
_space_group_symop_operation_xyz
x,y,z
1/4-y,3/4+x,1/4+z
-x,1/2-y,z
1/4+y,1/4-x,3/4+z
x,-y,1/2-z
1/2-x,y,-z
3/4+y,1/4+x,1/4-z
1/4-y,1/4-x,1/4-z
-x,-y,-z
3/4+y,1/4-x,3/4-z
x,1/2+y,-z
3/4-y,3/4+x,1/4-z
-x,y,1/2+z
1/2+x,-y,z
1/4-y,3/4-x,3/4+z
3/4+y,3/4+x,3/4+z
1/2+x,1/2+y,1/2+z
3/4-y,1/4+x,3/4+z
1/2-x,-y,1/2+z
3/4+y,3/4-x,1/4+z
1/2+x,1/2-y,-z
-x,1/2+y,1/2-z
1/4+y,3/4+x,3/4-z
3/4-y,3/4-x,3/4-z
1/2-x,1/2-y,1/2-z
1/4+y,3/4-x,1/4-z
1/2+x,y,1/2-z
1/4-y,1/4+x,3/4-z
1/2-x,1/2+y,z
x,1/2-y,1/2+z
3/4-y,1/4-x,1/4+z
1/4+y,1/4+x,1/4+z
loop_
_atom_site_type_symbol
_atom_site_label
_atom_site_fract_x
_atom_site_fract_y
_atom_site_fract_z
Si Si1 0.063008 0.919583 0.346437
Si Si2 0.797303 0.404452 0.231883
Si Si3 0.771457 0.185789 0.948827
Si Si4 0.174640 0.167615 0.833788
Si Si5 0.434618 0.181928 0.044151
O O1 0.084298 0.834298 0.375000
O O2 0.136121 0.923346 0.308365
O O3 0.072404 0.002416 0.379294
O O4 0.970862 0.932538 0.322774
O O5 0.770273 0.500000 0.250000
O O6 0.721544 0.341905 0.213462
O O7 0.850222 0.351218 0.267812
O O8 0.819839 0.116911 0.916966
O O9 0.846324 0.262366 0.947629
O O10 0.750000 0.167487 0.000000
O O11 0.107068 0.249652 0.831704
O O12 0.500000 0.250000 0.019812
#
# Coordination Sequence:
#
# PCOD9573608 Si02
#       5
#    32  32  32  32  32
#     4  10  21  36  57  84 120 154 194 251 319 354
#     4  11  19  39  62  82 117 158 200 247 305 366
#     4  11  20  39  60  84 120 162 201 247 311 378
#     4  10  24  34  58  94 114 151 207 258 300 360
#     4  10  20  36  58  88 117 156 200 246 300 374
#
# _framework density 22.615735999999998
#
# number of rings (size 3 to 8) (size 9 to 14) (size 15 to 20)
#    0.000    1.600    4.000    1.200    2.800    0.000 
#    0.000    0.000    0.000    5.400    0.000    0.000 
#    0.000    0.000    0.000    0.000    0.000    0.000 
#
# Total GULP energy -445676.152532 kJ/mol
# GULP energy per Si atom -5570.951907 kJ/mol
# Density = 2.256426 g / cm^3
# Si number density = 22.615736 Si / 1000 Ang^3
#
#
#
# Elastic Constant Matrix: (Units=GPa)
#
#
# Indices 1 2 3 4 5 6 
#
# 1 47.8583 18.3129 3.5978 0.0000 0.0000 0.0000
# 2 18.3129 47.8583 3.5978 0.0000 0.0000 0.0000
# 3 3.5978 3.5978 53.2237 0.0000 0.0000 0.0000
# 4 0.0000 0.0000 0.0000 19.5398 0.0000 0.0000
# 5 0.0000 0.0000 0.0000 0.0000 19.5398 0.0000
# 6 0.0000 0.0000 0.0000 0.0000 0.0000 27.8823
#
#
#
# Elastic Compliance Matrix: (Units=1/GPa)
#
#
# Indices 1 2 3 4 5 6 
#
# 1 0.024535 -0.009311 -0.001029 0.000000 0.000000 0.000000
# 2 -0.009311 0.024535 -0.001029 0.000000 0.000000 0.000000
# 3 -0.001029 -0.001029 0.018928 0.000000 0.000000 0.000000
# 4 0.000000 0.000000 0.000000 0.051178 0.000000 0.000000
# 5 0.000000 0.000000 0.000000 0.000000 0.051178 0.000000
# 6 0.000000 0.000000 0.000000 0.000000 0.000000 0.035865
#
#
# Mechanical properties :
#
#
# Convention : Reuss Voigt Hill
#
# Bulk Modulus (GPa) = 22.09473 22.21750 22.15612
# Shear Modulus (GPa) = 20.48814 21.62115 21.05464
#
# Velocity S-wave (km/s) = 3.01312 3.09532 3.05450
# Velocity P-wave (km/s) = 4.67932 4.75604 4.71783
#
# Compressibility (1/GPa) = 0.04525966
#
# Stress axis : x y z
#
# Youngs Moduli (GPa) = 40.75770 40.75770 52.83249
#
# Poissons Ratio (x) = 0.37950 0.05437
# Poissons Ratio (y) = 0.37950 0.05437
# Poissons Ratio (z) = 0.04195 0.04195
#
# Static dielectric constant tensor:
#      x y z
#    x 1.917730 0.000000 0.000000 
#    y 0.000000 1.917730 0.000000 
#    z 0.000000 0.000000 1.871980 
# 
# From -- ./inp_files/12428.got.cif
#   From: 2010.05.17/outbox.cif.g08.bks.cpg/sg142_7_cif.got.tgz:12428.got - 2010.05.20 13:39:18.
