data_PCOD9573756
_publ_section_title
;
Structure prediction by ZEFSAII (Michael W. Deem and Ramdas Pophale) SiO2 
 PCOD9573756
Probable space group: I 41/A C D
;
_chemical_formula_sum "Si O2"
_cell_formula_units_Z 144
_cell_length_a 26.376390
_cell_length_b 26.376390
_cell_length_c 11.304732
_cell_angle_alpha 90.000000
_cell_angle_beta 90.000000
_cell_angle_gamma 90.000000
_cell_volume 7864.859747
_symmetry_space_group_name_H-M "I 41/A C D"
_symmetry_group_IT_number 142
_space_group.IT_coordinate_system_code '2'
_symmetry_cell_setting 'tetragonal'
loop_
_space_group_symop_operation_xyz
x,y,z
1/4-y,3/4+x,1/4+z
-x,1/2-y,z
1/4+y,1/4-x,3/4+z
x,-y,1/2-z
1/2-x,y,-z
3/4+y,1/4+x,1/4-z
1/4-y,1/4-x,1/4-z
-x,-y,-z
3/4+y,1/4-x,3/4-z
x,1/2+y,-z
3/4-y,3/4+x,1/4-z
-x,y,1/2+z
1/2+x,-y,z
1/4-y,3/4-x,3/4+z
3/4+y,3/4+x,3/4+z
1/2+x,1/2+y,1/2+z
3/4-y,1/4+x,3/4+z
1/2-x,-y,1/2+z
3/4+y,3/4-x,1/4+z
1/2+x,1/2-y,-z
-x,1/2+y,1/2-z
1/4+y,3/4+x,3/4-z
3/4-y,3/4-x,3/4-z
1/2-x,1/2-y,1/2-z
1/4+y,3/4-x,1/4-z
1/2+x,y,1/2-z
1/4-y,1/4+x,3/4-z
1/2-x,1/2+y,z
x,1/2-y,1/2+z
3/4-y,1/4-x,1/4+z
1/4+y,1/4+x,1/4+z
loop_
_atom_site_type_symbol
_atom_site_label
_atom_site_fract_x
_atom_site_fract_y
_atom_site_fract_z
Si Si1 0.975698 0.654723 0.812251
Si Si2 0.089943 0.839943 0.375000
Si Si3 0.449090 0.570837 0.490753
Si Si4 0.721626 0.701633 0.882270
Si Si5 0.397785 0.623579 0.875499
O O1 0.954888 0.704888 0.875000
O O2 0.959472 0.608216 0.898112
O O3 0.945857 0.650554 0.689019
O O4 0.035717 0.655150 0.811270
O O5 0.096771 0.877615 0.483480
O O6 0.501254 0.561291 0.418525
O O7 0.436315 0.515130 0.539797
O O8 0.405013 0.598809 0.416655
O O9 0.684494 0.655251 0.913312
O O10 0.750000 0.719698 0.000000
#
# Coordination Sequence:
#
# PCOD9573756 Si02
#       5
#    32  16  32  32  32
#     4  10  21  37  53  82 122 159 199 238 288 357
#     4  12  23  36  56  82 124 168 198 234 300 372
#     4  10  22  38  59  88 122 152 203 254 299 362
#     4  11  21  37  63  90 120 157 203 253 312 362
#     4  11  23  38  58  86 121 158 199 254 300 361
#
# _framework density 18.309290000000001
#
# number of rings (size 3 to 8) (size 9 to 14) (size 15 to 20)
#    0.000    1.333    4.444    1.667    3.111    0.000 
#    0.000    0.000    0.000    0.000    0.000   10.889 
#    0.000    0.000    0.000    0.000    0.000    0.000 
#
# Total GULP energy -401536.367915 kJ/mol
# GULP energy per Si atom -5576.893999 kJ/mol
# Density = 1.826762 g / cm^3
# Si number density = 18.309290 Si / 1000 Ang^3
#
#
#
# Elastic Constant Matrix: (Units=GPa)
#
#
# Indices 1 2 3 4 5 6 
#
# 1 72.5867 37.3514 13.5734 0.0000 0.0000 0.0000
# 2 37.3514 72.5867 13.5734 0.0000 0.0000 0.0000
# 3 13.5734 13.5734 88.9749 0.0000 0.0000 0.0000
# 4 0.0000 0.0000 0.0000 23.2063 0.0000 0.0000
# 5 0.0000 0.0000 0.0000 0.0000 23.2063 0.0000
# 6 0.0000 0.0000 0.0000 0.0000 0.0000 23.4798
#
#
#
# Elastic Compliance Matrix: (Units=1/GPa)
#
#
# Indices 1 2 3 4 5 6 
#
# 1 0.018916 -0.009464 -0.001442 0.000000 0.000000 0.000000
# 2 -0.009464 0.018916 -0.001442 0.000000 0.000000 0.000000
# 3 -0.001442 -0.001442 0.011679 0.000000 0.000000 0.000000
# 4 0.000000 0.000000 0.000000 0.043092 0.000000 0.000000
# 5 0.000000 0.000000 0.000000 0.000000 0.043092 0.000000
# 6 0.000000 0.000000 0.000000 0.000000 0.000000 0.042590
#
#
# Mechanical properties :
#
#
# Convention : Reuss Voigt Hill
#
# Bulk Modulus (GPa) = 40.29743 40.34939 40.32341
# Shear Modulus (GPa) = 23.66830 25.28850 24.47840
#
# Velocity S-wave (km/s) = 3.59930 3.72046 3.66038
# Velocity P-wave (km/s) = 6.27139 6.36720 6.31948
#
# Compressibility (1/GPa) = 0.02481548
#
# Stress axis : x y z
#
# Youngs Moduli (GPa) = 52.86436 52.86436 85.62323
#
# Poissons Ratio (x) = 0.50032 0.12346
# Poissons Ratio (y) = 0.50032 0.12346
# Poissons Ratio (z) = 0.07623 0.07623
#
# Static dielectric constant tensor:
#      x y z
#    x 1.634450 0.000000 0.000000 
#    y 0.000000 1.634450 0.000000 
#    z 0.000000 0.000000 1.696740 
# 
# From -- ./inp_files/3742.got.cif
#   From: 2010.05.17/outbox.cif.g08.bks.cpg/sg142_2_cif.got.tgz:3742.got - 2010.05.20 13:39:18.
