data_PCOD9573879
_publ_section_title
;
Structure prediction by ZEFSAII (Michael W. Deem and Ramdas Pophale) SiO2 
 PCOD9573879
Probable space group: I 41/A C D
;
_chemical_formula_sum "Si O2"
_cell_formula_units_Z 176
_cell_length_a 26.766949
_cell_length_b 26.766949
_cell_length_c 11.361446
_cell_angle_alpha 90.000000
_cell_angle_beta 90.000000
_cell_angle_gamma 90.000000
_cell_volume 8140.130203
_symmetry_space_group_name_H-M "I 41/A C D"
_symmetry_group_IT_number 142
_space_group.IT_coordinate_system_code '2'
_symmetry_cell_setting 'tetragonal'
loop_
_space_group_symop_operation_xyz
x,y,z
1/4-y,3/4+x,1/4+z
-x,1/2-y,z
1/4+y,1/4-x,3/4+z
x,-y,1/2-z
1/2-x,y,-z
3/4+y,1/4+x,1/4-z
1/4-y,1/4-x,1/4-z
-x,-y,-z
3/4+y,1/4-x,3/4-z
x,1/2+y,-z
3/4-y,3/4+x,1/4-z
-x,y,1/2+z
1/2+x,-y,z
1/4-y,3/4-x,3/4+z
3/4+y,3/4+x,3/4+z
1/2+x,1/2+y,1/2+z
3/4-y,1/4+x,3/4+z
1/2-x,-y,1/2+z
3/4+y,3/4-x,1/4+z
1/2+x,1/2-y,-z
-x,1/2+y,1/2-z
1/4+y,3/4+x,3/4-z
3/4-y,3/4-x,3/4-z
1/2-x,1/2-y,1/2-z
1/4+y,3/4-x,1/4-z
1/2+x,y,1/2-z
1/4-y,1/4+x,3/4-z
1/2-x,1/2+y,z
x,1/2-y,1/2+z
3/4-y,1/4-x,1/4+z
1/4+y,1/4+x,1/4+z
loop_
_atom_site_type_symbol
_atom_site_label
_atom_site_fract_x
_atom_site_fract_y
_atom_site_fract_z
Si Si1 0.725278 0.975278 0.625000
Si Si2 0.468425 0.884195 0.792921
Si Si3 0.049586 0.978059 0.057172
Si Si4 0.611210 0.542553 0.163697
Si Si5 0.404744 0.918815 0.584763
Si Si6 0.082787 0.871965 0.669070
O O1 0.750000 0.992416 0.500000
O O2 0.729861 0.914891 0.624586
O O3 0.465721 0.940334 0.841956
O O4 0.443221 0.887371 0.665236
O O5 0.431865 0.853705 0.880219
O O6 0.525402 0.867290 0.791518
O O7 0.084488 0.023112 0.100179
O O8 0.078176 0.950888 0.951270
O O9 0.000000 0.000000 0.000000
O O10 0.588526 0.500000 0.250000
O O11 0.612568 0.594111 0.236779
O O12 0.350464 0.899537 0.625000
O O13 0.414065 0.904538 0.450310
#
# Coordination Sequence:
#
# PCOD9573879 Si02
#       6
#    16  32  32  32  32  32
#     4  10  24  46  68 100 138 189 236 286 358 449
#     4  11  24  40  66  94 138 177 233 294 356 427
#     4  12  21  39  68 100 127 175 234 284 353 418
#     4  11  21  40  68  91 131 174 223 283 347 424
#     4  10  22  41  62  96 138 168 223 293 353 415
#     4  11  23  43  64  98 132 183 229 292 357 434
#
# _framework density 21.621276000000002
#
# number of rings (size 3 to 8) (size 9 to 14) (size 15 to 20)
#    0.000    1.091    3.636    2.727    0.000    0.364 
#    1.636    0.000    0.000    3.273    0.000    0.000 
#    0.000    0.000    0.000    0.000    0.000    0.000 
#
# Total GULP energy -491902.645087 kJ/mol
# GULP energy per Si atom -5589.802785 kJ/mol
# Density = 2.157206 g / cm^3
# Si number density = 21.621276 Si / 1000 Ang^3
#
#
#
# Elastic Constant Matrix: (Units=GPa)
#
#
# Indices 1 2 3 4 5 6 
#
# 1 96.0230 26.3512 30.7001 0.0000 0.0000 0.0000
# 2 26.3512 96.0232 30.6990 0.0000 0.0000 0.0000
# 3 30.7001 30.6990 126.2029 0.0000 0.0000 0.0000
# 4 0.0000 0.0000 0.0000 25.2202 0.0000 0.0000
# 5 0.0000 0.0000 0.0000 0.0000 25.2208 0.0000
# 6 0.0000 0.0000 0.0000 0.0000 0.0000 29.0880
#
#
#
# Elastic Compliance Matrix: (Units=1/GPa)
#
#
# Indices 1 2 3 4 5 6 
#
# 1 0.011830 -0.002523 -0.002264 0.000000 0.000000 0.000000
# 2 -0.002523 0.011830 -0.002264 0.000000 0.000000 0.000000
# 3 -0.002264 -0.002264 0.009025 0.000000 0.000000 0.000000
# 4 0.000000 0.000000 0.000000 0.039651 0.000000 0.000000
# 5 0.000000 0.000000 0.000000 0.000000 0.039650 0.000000
# 6 0.000000 0.000000 0.000000 0.000000 0.000000 0.034378
#
#
# Mechanical properties :
#
#
# Convention : Reuss Voigt Hill
#
# Bulk Modulus (GPa) = 53.80968 54.86107 54.33537
# Shear Modulus (GPa) = 30.00092 31.27237 30.63665
#
# Velocity S-wave (km/s) = 3.72904 3.80724 3.76835
# Velocity P-wave (km/s) = 6.59412 6.68996 6.64221
#
# Compressibility (1/GPa) = 0.01858402
#
# Stress axis : x y z
#
# Youngs Moduli (GPa) = 84.52827 84.52901 110.79991
#
# Poissons Ratio (x) = 0.21324 0.25087
# Poissons Ratio (y) = 0.21324 0.25086
# Poissons Ratio (z) = 0.19139 0.19138
#
# Static dielectric constant tensor:
#      x y z
#    x 1.836420 0.000000 0.000000 
#    y 0.000000 1.836430 0.000000 
#    z 0.000000 0.000000 1.806270 
# 
# From -- ./inp_files/3992.got.cif
#   From: 2010.05.17/outbox.cif.g08.bks.cpg/sg142_2_cif.got.tgz:3992.got - 2010.05.20 13:39:18.
