data_PCOD9573869
_publ_section_title
;
Structure prediction by ZEFSAII (Michael W. Deem and Ramdas Pophale) SiO2 
 PCOD9573869
Probable space group: I 41/A C D
;
_chemical_formula_sum "Si O2"
_cell_formula_units_Z 64
_cell_length_a 24.182374
_cell_length_b 24.182374
_cell_length_c 4.743516
_cell_angle_alpha 90.000000
_cell_angle_beta 90.000000
_cell_angle_gamma 90.000000
_cell_volume 2773.947498
_symmetry_space_group_name_H-M "I 41/A C D"
_symmetry_group_IT_number 142
_space_group.IT_coordinate_system_code '2'
_symmetry_cell_setting 'tetragonal'
loop_
_space_group_symop_operation_xyz
x,y,z
1/4-y,3/4+x,1/4+z
-x,1/2-y,z
1/4+y,1/4-x,3/4+z
x,-y,1/2-z
1/2-x,y,-z
3/4+y,1/4+x,1/4-z
1/4-y,1/4-x,1/4-z
-x,-y,-z
3/4+y,1/4-x,3/4-z
x,1/2+y,-z
3/4-y,3/4+x,1/4-z
-x,y,1/2+z
1/2+x,-y,z
1/4-y,3/4-x,3/4+z
3/4+y,3/4+x,3/4+z
1/2+x,1/2+y,1/2+z
3/4-y,1/4+x,3/4+z
1/2-x,-y,1/2+z
3/4+y,3/4-x,1/4+z
1/2+x,1/2-y,-z
-x,1/2+y,1/2-z
1/4+y,3/4+x,3/4-z
3/4-y,3/4-x,3/4-z
1/2-x,1/2-y,1/2-z
1/4+y,3/4-x,1/4-z
1/2+x,y,1/2-z
1/4-y,1/4+x,3/4-z
1/2-x,1/2+y,z
x,1/2-y,1/2+z
3/4-y,1/4-x,1/4+z
1/4+y,1/4+x,1/4+z
loop_
_atom_site_type_symbol
_atom_site_label
_atom_site_fract_x
_atom_site_fract_y
_atom_site_fract_z
Si Si1 0.683581 0.786580 0.481856
Si Si2 0.189599 0.560402 0.375000
Si Si3 0.637876 0.387876 0.875000
O O1 0.750000 0.797322 0.500000
O O2 0.670452 0.768421 0.798085
O O3 0.650382 0.834569 0.320782
O O4 0.183389 0.500000 0.250000
O O5 0.146601 0.566495 0.631149
#
# Coordination Sequence:
#
# PCOD9573869 Si02
#       3
#    32  16  16
#     4  10  22  40  62  91 124 161 211 264 313 375
#     4  12  25  38  56  90 130 163 199 246 305 385
#     4  12  23  40  66  87 120 170 211 254 319 380
#
# _framework density 23.071812999999999
#
# number of rings (size 3 to 8) (size 9 to 14) (size 15 to 20)
#    0.000    1.000    0.000    7.500    0.000    8.000 
#    0.000    0.000    0.000    4.500    0.000    0.000 
#    0.000    0.000    0.000    0.000    0.000    0.000 
#
# Total GULP energy -178635.839187 kJ/mol
# GULP energy per Si atom -5582.369975 kJ/mol
# Density = 2.301930 g / cm^3
# Si number density = 23.071813 Si / 1000 Ang^3
#
#
#
# Elastic Constant Matrix: (Units=GPa)
#
#
# Indices 1 2 3 4 5 6 
#
# 1 110.9344 28.7606 32.4033 0.0000 0.0000 0.0000
# 2 28.7606 110.9351 32.3982 0.0000 0.0000 0.0000
# 3 32.4033 32.3982 137.1143 0.0000 0.0000 0.0000
# 4 0.0000 0.0000 0.0000 53.8911 0.0000 0.0000
# 5 0.0000 0.0000 0.0000 0.0000 53.8919 0.0000
# 6 0.0000 0.0000 0.0000 0.0000 0.0000 24.1398
#
#
#
# Elastic Compliance Matrix: (Units=1/GPa)
#
#
# Indices 1 2 3 4 5 6 
#
# 1 0.010105 -0.002065 -0.001900 0.000000 0.000000 0.000000
# 2 -0.002065 0.010104 -0.001900 0.000000 0.000000 0.000000
# 3 -0.001900 -0.001900 0.008191 0.000000 0.000000 0.000000
# 4 0.000000 0.000000 0.000000 0.018556 0.000000 0.000000
# 5 0.000000 0.000000 0.000000 0.000000 0.018556 0.000000
# 6 0.000000 0.000000 0.000000 0.000000 0.000000 0.041425
#
#
# Mechanical properties :
#
#
# Convention : Reuss Voigt Hill
#
# Bulk Modulus (GPa) = 59.98368 60.67867 60.33117
# Shear Modulus (GPa) = 40.25023 44.07935 42.16479
#
# Velocity S-wave (km/s) = 4.18133 4.37570 4.27962
# Velocity P-wave (km/s) = 7.02613 7.20320 7.11521
#
# Compressibility (1/GPa) = 0.01667120
#
# Stress axis : x y z
#
# Youngs Moduli (GPa) = 98.96437 98.96732 122.08428
#
# Poissons Ratio (x) = 0.20435 0.23197
# Poissons Ratio (y) = 0.20434 0.23191
# Poissons Ratio (z) = 0.18804 0.18799
#
# Static dielectric constant tensor:
#      x y z
#    x 1.935830 0.000000 0.000000 
#    y 0.000000 1.935840 0.000000 
#    z 0.000000 0.000000 1.830300 
# 
# From -- ./inp_files/545.got.cif
#   From: 2010.05.17/outbox.cif.g08.bks.cpg/sg142_1_cif.got.tgz:545.got - 2010.05.20 13:39:18.
