data_PCOD9573370
_publ_section_title
;
Structure prediction by ZEFSAII (Michael W. Deem and Ramdas Pophale) SiO2 
 PCOD9573370
Probable space group: I 41/A M D
;
_chemical_formula_sum "Si O2"
_cell_formula_units_Z 160
_cell_length_a 14.871084
_cell_length_b 14.871084
_cell_length_c 34.323985
_cell_angle_alpha 90.000000
_cell_angle_beta 90.000000
_cell_angle_gamma 90.000000
_cell_volume 7590.719741
_symmetry_space_group_name_H-M "I 41/A M D"
_symmetry_group_IT_number 141
_space_group.IT_coordinate_system_code '2'
_symmetry_cell_setting 'tetragonal'
loop_
_space_group_symop_operation_xyz
x,y,z
1/4-y,3/4+x,1/4+z
-x,1/2-y,z
1/4+y,1/4-x,3/4+z
x,-y,-z
-x,1/2+y,-z
1/4+y,3/4+x,1/4-z
1/4-y,1/4-x,3/4-z
-x,-y,-z
3/4+y,1/4-x,3/4-z
x,1/2+y,-z
3/4-y,3/4+x,1/4-z
-x,y,z
x,1/2-y,z
3/4-y,1/4-x,3/4+z
3/4+y,3/4+x,1/4+z
1/2+x,1/2+y,1/2+z
3/4-y,1/4+x,3/4+z
1/2-x,-y,1/2+z
3/4+y,3/4-x,1/4+z
1/2+x,1/2-y,1/2-z
1/2-x,y,1/2-z
3/4+y,1/4+x,3/4-z
3/4-y,3/4-x,1/4-z
1/2-x,1/2-y,1/2-z
1/4+y,3/4-x,1/4-z
1/2+x,y,1/2-z
1/4-y,1/4+x,3/4-z
1/2-x,1/2+y,1/2+z
1/2+x,-y,1/2+z
1/4-y,3/4-x,1/4+z
1/4+y,1/4+x,3/4+z
loop_
_atom_site_type_symbol
_atom_site_label
_atom_site_fract_x
_atom_site_fract_y
_atom_site_fract_z
Si Si1 0.140871 0.646729 0.243459
Si Si2 0.222332 0.615071 0.934680
Si Si3 0.904697 0.904867 0.400301
Si Si4 0.811539 0.649785 0.713362
Si Si5 0.651187 0.455996 0.666040
O O1 0.113102 0.750000 0.242112
O O2 0.250000 0.645517 0.250000
O O3 0.106972 0.594753 0.281298
O O4 0.115158 0.596520 0.203481
O O5 0.192128 0.653063 0.893556
O O6 0.323220 0.630542 0.950372
O O7 0.217721 0.507207 0.926695
O O8 0.806629 0.862520 0.409137
O O9 0.000000 0.855274 0.406437
O O10 0.908050 0.991118 0.428306
O O11 0.847377 0.750000 0.722282
O O12 0.750000 0.619216 0.750000
O O13 0.652285 0.402285 0.625000
#
# Coordination Sequence:
#
# PCOD9573370 Si02
#       5
#    32  32  32  32  32
#     4   9  16  26  43  68  96 127 164 206 257 313
#     4   9  15  25  40  61  93 126 162 209 255 300
#     4   9  16  25  40  63  92 129 169 208 255 305
#     4   9  15  23  39  65  94 125 165 211 255 301
#     4   8  14  25  42  65  92 124 162 206 254 305
#
# _framework density 21.078371000000001
#
# number of rings (size 3 to 8) (size 9 to 14) (size 15 to 20)
#    0.000    3.200    0.000    4.800    0.000    0.000 
#    0.000    0.000    0.000    2.400    0.000   15.400 
#    0.000    8.000    0.000    0.800    0.000    0.800 
#
# Total GULP energy -445509.862622 kJ/mol
# GULP energy per Si atom -5568.873283 kJ/mol
# Density = 2.103040 g / cm^3
# Si number density = 21.078371 Si / 1000 Ang^3
#
#
#
# Elastic Constant Matrix: (Units=GPa)
#
#
# Indices 1 2 3 4 5 6 
#
# 1 71.4543 29.1371 46.1151 0.0000 0.0000 0.0000
# 2 29.1371 71.4543 46.1151 0.0000 0.0000 0.0000
# 3 46.1151 46.1151 190.1250 0.0000 0.0000 0.0000
# 4 0.0000 0.0000 0.0000 27.4547 0.0000 0.0000
# 5 0.0000 0.0000 0.0000 0.0000 27.4547 0.0000
# 6 0.0000 0.0000 0.0000 0.0000 0.0000 -6.2965
#
#
#
# Elastic Compliance Matrix: (Units=1/GPa)
#
#
# Indices 1 2 3 4 5 6 
#
# 1 0.018208 -0.005423 -0.003101 0.000000 0.000000 0.000000
# 2 -0.005423 0.018208 -0.003101 0.000000 0.000000 0.000000
# 3 -0.003101 -0.003101 0.006764 0.000000 0.000000 0.000000
# 4 0.000000 0.000000 0.000000 0.036424 0.000000 0.000000
# 5 0.000000 0.000000 0.000000 0.000000 0.036424 0.000000
# 6 0.000000 0.000000 0.000000 0.000000 0.000000 -0.158819
#
#
# Mechanical properties :
#
#
# Convention : Reuss Voigt Hill
#
# Bulk Modulus (GPa) = 50.17777 63.97424 57.07600
# Shear Modulus (GPa) = -387.60629 23.83370 -181.88630
#
# Velocity S-wave (km/s) = -13.57525 3.36626 -9.29935
# Velocity P-wave (km/s) = 14.89495 6.74726 9.38973
#
# Compressibility (1/GPa) = 0.01992914
#
# Stress axis : x y z
#
# Youngs Moduli (GPa) = 54.92189 54.92190 147.84305
#
# Poissons Ratio (x) = 0.29786 0.45844
# Poissons Ratio (y) = 0.29786 0.45844
# Poissons Ratio (z) = 0.17030 0.17030
#
# Static dielectric constant tensor:
#      x y z
#    x 1.777760 0.000000 0.000000 
#    y 0.000000 1.777760 0.000000 
#    z 0.000000 0.000000 1.736000 
# 
# From -- ./inp_files/14305.got.cif
#   From: 2010.05.17/outbox.cif.g08.bks.cpg/sg141_8_cif.got.tgz:14305.got - 2010.05.20 13:30:51.
