data_PCOD9573092
_publ_section_title
;
Structure prediction by ZEFSAII (Michael W. Deem and Ramdas Pophale) SiO2 
 PCOD9573092
Probable space group: I 41/A M D
;
_chemical_formula_sum "Si O2"
_cell_formula_units_Z 176
_cell_length_a 18.417433
_cell_length_b 18.417433
_cell_length_c 27.417332
_cell_angle_alpha 90.000000
_cell_angle_beta 90.000000
_cell_angle_gamma 90.000000
_cell_volume 9300.009416
_symmetry_space_group_name_H-M "I 41/A M D"
_symmetry_group_IT_number 141
_space_group.IT_coordinate_system_code '2'
_symmetry_cell_setting 'tetragonal'
loop_
_space_group_symop_operation_xyz
x,y,z
1/4-y,3/4+x,1/4+z
-x,1/2-y,z
1/4+y,1/4-x,3/4+z
x,-y,-z
-x,1/2+y,-z
1/4+y,3/4+x,1/4-z
1/4-y,1/4-x,3/4-z
-x,-y,-z
3/4+y,1/4-x,3/4-z
x,1/2+y,-z
3/4-y,3/4+x,1/4-z
-x,y,z
x,1/2-y,z
3/4-y,1/4-x,3/4+z
3/4+y,3/4+x,1/4+z
1/2+x,1/2+y,1/2+z
3/4-y,1/4+x,3/4+z
1/2-x,-y,1/2+z
3/4+y,3/4-x,1/4+z
1/2+x,1/2-y,1/2-z
1/2-x,y,1/2-z
3/4+y,1/4+x,3/4-z
3/4-y,3/4-x,1/4-z
1/2-x,1/2-y,1/2-z
1/4+y,3/4-x,1/4-z
1/2+x,y,1/2-z
1/4-y,1/4+x,3/4-z
1/2-x,1/2+y,1/2+z
1/2+x,-y,1/2+z
1/4-y,3/4-x,1/4+z
1/4+y,1/4+x,3/4+z
loop_
_atom_site_type_symbol
_atom_site_label
_atom_site_fract_x
_atom_site_fract_y
_atom_site_fract_z
Si Si1 0.320071 0.664280 0.092333
Si Si2 0.417609 0.053954 0.137744
Si Si3 0.083097 0.548634 0.457309
Si Si4 0.346493 0.427883 0.701541
Si Si5 0.084052 0.165949 0.875000
Si Si6 0.686374 0.071588 0.437321
O O1 0.332915 0.750000 0.095792
O O2 0.374474 0.620962 0.056692
O O3 0.240783 0.648129 0.069589
O O4 0.328768 0.624345 0.144949
O O5 0.379547 0.129547 0.125000
O O6 0.500000 0.061694 0.155635
O O7 0.418952 0.003728 0.089531
O O8 0.365919 0.008258 0.173351
O O9 0.117288 0.500000 0.500000
O O10 0.000000 0.566494 0.471300
O O11 0.366283 0.357310 0.670340
O O12 0.264164 0.452360 0.690230
O O13 0.349155 0.413756 0.759169
O O14 0.094940 0.250000 0.887579
#
# Coordination Sequence:
#
# PCOD9573092 Si02
#       6
#    32  32  32  32  16  32
#     4  11  22  37  62  93 122 156 208 265 307 361
#     4  10  21  37  57  84 120 155 195 249 307 369
#     4   9  20  39  60  82 115 158 197 242 307 373
#     4  11  22  38  63  90 120 164 212 254 300 369
#     4  11  24  42  62  90 132 168 199 252 316 372
#     4  10  22  39  62  88 121 165 210 259 305 362
#
# _framework density 18.924713000000001
#
# number of rings (size 3 to 8) (size 9 to 14) (size 15 to 20)
#    0.000    1.727    1.818    2.727    5.091    2.727 
#    0.000    1.818    0.000    3.273    0.000    0.000 
#    0.000    0.000    0.000    0.000    0.000    0.000 
#
# Total GULP energy -491288.572661 kJ/mol
# GULP energy per Si atom -5582.824689 kJ/mol
# Density = 1.888164 g / cm^3
# Si number density = 18.924713 Si / 1000 Ang^3
#
#
#
# Elastic Constant Matrix: (Units=GPa)
#
#
# Indices 1 2 3 4 5 6 
#
# 1 101.3394 46.0405 29.5065 0.0000 0.0000 0.0000
# 2 46.0405 101.3403 29.5064 0.0000 0.0000 0.0000
# 3 29.5065 29.5064 106.4083 0.0000 0.0000 0.0000
# 4 0.0000 0.0000 0.0000 15.3523 0.0000 0.0000
# 5 0.0000 0.0000 0.0000 0.0000 15.3532 0.0000
# 6 0.0000 0.0000 0.0000 0.0000 0.0000 21.0602
#
#
#
# Elastic Compliance Matrix: (Units=1/GPa)
#
#
# Indices 1 2 3 4 5 6 
#
# 1 0.012858 -0.005225 -0.002117 0.000000 0.000000 0.000000
# 2 -0.005225 0.012858 -0.002116 0.000000 0.000000 0.000000
# 3 -0.002117 -0.002116 0.010572 0.000000 0.000000 0.000000
# 4 0.000000 0.000000 0.000000 0.065137 0.000000 0.000000
# 5 0.000000 0.000000 0.000000 0.000000 0.065133 0.000000
# 6 0.000000 0.000000 0.000000 0.000000 0.000000 0.047483
#
#
# Mechanical properties :
#
#
# Convention : Reuss Voigt Hill
#
# Bulk Modulus (GPa) = 57.56769 57.68832 57.62801
# Shear Modulus (GPa) = 20.94265 23.95545 22.44905
#
# Velocity S-wave (km/s) = 3.33021 3.56171 3.44790
# Velocity P-wave (km/s) = 6.72848 6.88938 6.80941
#
# Compressibility (1/GPa) = 0.01737085
#
# Stress axis : x y z
#
# Youngs Moduli (GPa) = 77.77210 77.77292 94.59350
#
# Poissons Ratio (x) = 0.40639 0.20021
# Poissons Ratio (y) = 0.40639 0.20020
# Poissons Ratio (z) = 0.16461 0.16460
#
# Static dielectric constant tensor:
#      x y z
#    x 1.651990 0.000000 0.000000 
#    y 0.000000 1.651990 0.000000 
#    z 0.000000 0.000000 1.698260 
# 
# From -- ./inp_files/12901.got.cif
#   From: 2010.05.17/outbox.cif.g08.bks.cpg/sg141_7_cif.got.tgz:12901.got - 2010.05.20 13:30:51.
