data_PCOD9573496
_publ_section_title
;
Structure prediction by ZEFSAII (Michael W. Deem and Ramdas Pophale) SiO2 
 PCOD9573496
Probable space group: I 41/A C D
;
_chemical_formula_sum "Si O2"
_cell_formula_units_Z 160
_cell_length_a 25.994434
_cell_length_b 25.994434
_cell_length_c 10.892920
_cell_angle_alpha 90.000000
_cell_angle_beta 90.000000
_cell_angle_gamma 90.000000
_cell_volume 7360.461498
_symmetry_space_group_name_H-M "I 41/A C D"
_symmetry_group_IT_number 142
_space_group.IT_coordinate_system_code '2'
_symmetry_cell_setting 'tetragonal'
loop_
_space_group_symop_operation_xyz
x,y,z
1/4-y,3/4+x,1/4+z
-x,1/2-y,z
1/4+y,1/4-x,3/4+z
x,-y,1/2-z
1/2-x,y,-z
3/4+y,1/4+x,1/4-z
1/4-y,1/4-x,1/4-z
-x,-y,-z
3/4+y,1/4-x,3/4-z
x,1/2+y,-z
3/4-y,3/4+x,1/4-z
-x,y,1/2+z
1/2+x,-y,z
1/4-y,3/4-x,3/4+z
3/4+y,3/4+x,3/4+z
1/2+x,1/2+y,1/2+z
3/4-y,1/4+x,3/4+z
1/2-x,-y,1/2+z
3/4+y,3/4-x,1/4+z
1/2+x,1/2-y,-z
-x,1/2+y,1/2-z
1/4+y,3/4+x,3/4-z
3/4-y,3/4-x,3/4-z
1/2-x,1/2-y,1/2-z
1/4+y,3/4-x,1/4-z
1/2+x,y,1/2-z
1/4-y,1/4+x,3/4-z
1/2-x,1/2+y,z
x,1/2-y,1/2+z
3/4-y,1/4-x,1/4+z
1/4+y,1/4+x,1/4+z
loop_
_atom_site_type_symbol
_atom_site_label
_atom_site_fract_x
_atom_site_fract_y
_atom_site_fract_z
Si Si1 0.252787 0.781490 0.128431
Si Si2 0.369186 0.705746 0.629409
Si Si3 0.826012 0.489934 0.383321
Si Si4 0.413625 0.249155 0.120486
Si Si5 0.134922 0.537071 0.134419
O O1 0.250000 0.750000 0.250000
O O2 0.309038 0.807881 0.130893
O O3 0.207783 0.824016 0.123152
O O4 0.250000 0.751374 0.000000
O O5 0.405790 0.655790 0.625000
O O6 0.383842 0.738644 0.506881
O O7 0.381636 0.735941 0.756425
O O8 0.849716 0.500000 0.250000
O O9 0.769195 0.519195 0.375000
O O10 0.850926 0.514836 0.501341
O O11 0.828863 0.428786 0.402483
O O12 0.451962 0.200550 0.102270
O O13 0.144425 0.500000 0.250000
#
# Coordination Sequence:
#
# PCOD9573496 Si02
#       5
#    32  32  32  32  32
#     4  11  25  41  56  74 107 153 192 228 273 326
#     4  10  20  35  57  83 109 140 183 227 270 331
#     4   9  17  31  54  85 115 137 167 222 283 330
#     4   9  17  32  57  86 111 134 166 221 287 336
#     4  10  19  32  54  79 105 140 179 221 269 324
#
# _framework density 21.737767000000002
#
# number of rings (size 3 to 8) (size 9 to 14) (size 15 to 20)
#    0.000    2.200    0.000    4.200    0.000    7.200 
#    0.000    0.000    0.000   19.200    0.000    0.000 
#    0.000    0.000    0.000    0.000    0.000    0.000 
#
# Total GULP energy -445741.551931 kJ/mol
# GULP energy per Si atom -5571.769399 kJ/mol
# Density = 2.168829 g / cm^3
# Si number density = 21.737767 Si / 1000 Ang^3
#
#
#
# Elastic Constant Matrix: (Units=GPa)
#
#
# Indices 1 2 3 4 5 6 
#
# 1 49.2334 3.6664 16.8311 0.0000 0.0000 0.0000
# 2 3.6664 49.2334 16.8311 0.0000 0.0000 0.0000
# 3 16.8311 16.8311 155.3234 0.0000 0.0000 0.0000
# 4 0.0000 0.0000 0.0000 25.9635 0.0000 0.0000
# 5 0.0000 0.0000 0.0000 0.0000 25.9635 0.0000
# 6 0.0000 0.0000 0.0000 0.0000 0.0000 4.7563
#
#
#
# Elastic Compliance Matrix: (Units=1/GPa)
#
#
# Indices 1 2 3 4 5 6 
#
# 1 0.021125 -0.000821 -0.002200 0.000000 0.000000 0.000000
# 2 -0.000821 0.021125 -0.002200 0.000000 0.000000 0.000000
# 3 -0.002200 -0.002200 0.006915 0.000000 0.000000 0.000000
# 4 0.000000 0.000000 0.000000 0.038516 0.000000 0.000000
# 5 0.000000 0.000000 0.000000 0.000000 0.038516 0.000000
# 6 0.000000 0.000000 0.000000 0.000000 0.000000 0.210246
#
#
# Mechanical properties :
#
#
# Convention : Reuss Voigt Hill
#
# Bulk Modulus (GPa) = 25.82524 36.49416 31.15970
# Shear Modulus (GPa) = 13.89693 25.76745 19.83219
#
# Velocity S-wave (km/s) = 2.53118 3.44667 3.02377
# Velocity P-wave (km/s) = 4.52202 5.71526 5.15329
#
# Compressibility (1/GPa) = 0.03872180
#
# Stress axis : x y z
#
# Youngs Moduli (GPa) = 47.33797 47.33797 144.61311
#
# Poissons Ratio (x) = 0.03887 0.31817
# Poissons Ratio (y) = 0.03887 0.31817
# Poissons Ratio (z) = 0.10415 0.10415
#
# Static dielectric constant tensor:
#      x y z
#    x 1.845060 0.000000 0.000000 
#    y 0.000000 1.845060 0.000000 
#    z 0.000000 0.000000 1.624240 
# 
# From -- ./inp_files/3885.got.cif
#   From: 2010.05.17/outbox.cif.g08.bks.cpg/sg142_2_cif.got.tgz:3885.got - 2010.05.20 13:39:18.
