data_PCOD9573837
_publ_section_title
;
Structure prediction by ZEFSAII (Michael W. Deem and Ramdas Pophale) SiO2 
 PCOD9573837
Probable space group: I 41/A C D
;
_chemical_formula_sum "Si O2"
_cell_formula_units_Z 160
_cell_length_a 22.280768
_cell_length_b 22.280768
_cell_length_c 14.613164
_cell_angle_alpha 90.000000
_cell_angle_beta 90.000000
_cell_angle_gamma 90.000000
_cell_volume 7254.451330
_symmetry_space_group_name_H-M "I 41/A C D"
_symmetry_group_IT_number 142
_space_group.IT_coordinate_system_code '2'
_symmetry_cell_setting 'tetragonal'
loop_
_space_group_symop_operation_xyz
x,y,z
1/4-y,3/4+x,1/4+z
-x,1/2-y,z
1/4+y,1/4-x,3/4+z
x,-y,1/2-z
1/2-x,y,-z
3/4+y,1/4+x,1/4-z
1/4-y,1/4-x,1/4-z
-x,-y,-z
3/4+y,1/4-x,3/4-z
x,1/2+y,-z
3/4-y,3/4+x,1/4-z
-x,y,1/2+z
1/2+x,-y,z
1/4-y,3/4-x,3/4+z
3/4+y,3/4+x,3/4+z
1/2+x,1/2+y,1/2+z
3/4-y,1/4+x,3/4+z
1/2-x,-y,1/2+z
3/4+y,3/4-x,1/4+z
1/2+x,1/2-y,-z
-x,1/2+y,1/2-z
1/4+y,3/4+x,3/4-z
3/4-y,3/4-x,3/4-z
1/2-x,1/2-y,1/2-z
1/4+y,3/4-x,1/4-z
1/2+x,y,1/2-z
1/4-y,1/4+x,3/4-z
1/2-x,1/2+y,z
x,1/2-y,1/2+z
3/4-y,1/4-x,1/4+z
1/4+y,1/4+x,1/4+z
loop_
_atom_site_type_symbol
_atom_site_label
_atom_site_fract_x
_atom_site_fract_y
_atom_site_fract_z
Si Si1 0.807982 0.487232 0.936662
Si Si2 0.550136 0.104235 0.336948
Si Si3 0.679546 0.259389 0.236187
Si Si4 0.114768 0.015024 0.400820
Si Si5 0.492704 0.843564 0.349641
O O1 0.796929 0.546929 0.875000
O O2 0.796266 0.423973 0.888411
O O3 0.750000 0.491177 0.000000
O O4 0.864542 0.485989 0.002640
O O5 0.598515 0.151486 0.375000
O O6 0.498453 0.098572 0.414289
O O7 0.521306 0.128422 0.242579
O O8 0.584306 0.038538 0.340415
O O9 0.750000 0.250000 0.250000
O O10 0.682077 0.320511 0.178921
O O11 0.645523 0.216663 0.165039
O O12 0.542893 0.808193 0.410785
#
# Coordination Sequence:
#
# PCOD9573837 Si02
#       5
#    32  32  32  32  32
#     4   9  18  35  57  93 124 174 227 269 336 415
#     4  11  22  43  68  96 132 171 227 287 341 410
#     4  10  24  41  64 103 133 166 228 283 351 416
#     4  10  22  36  66  94 132 174 223 283 345 416
#     4  11  25  46  70  98 135 185 235 288 346 421
#
# _framework density 22.055423999999999
#
# number of rings (size 3 to 8) (size 9 to 14) (size 15 to 20)
#    0.000    1.800    2.000    1.800    5.600    3.200 
#    3.600    0.000    8.800    0.000    0.000    0.000 
#    0.000    0.000    0.000    0.000    0.000    0.000 
#
# Total GULP energy -445396.475914 kJ/mol
# GULP energy per Si atom -5567.455949 kJ/mol
# Density = 2.200522 g / cm^3
# Si number density = 22.055424 Si / 1000 Ang^3
#
#
#
# Elastic Constant Matrix: (Units=GPa)
#
#
# Indices 1 2 3 4 5 6 
#
# 1 53.4548 34.1902 36.1093 0.0000 0.0000 0.0000
# 2 34.1902 53.4547 36.1094 0.0000 0.0000 0.0000
# 3 36.1093 36.1094 125.5704 0.0000 0.0000 0.0000
# 4 0.0000 0.0000 0.0000 39.0929 0.0000 0.0000
# 5 0.0000 0.0000 0.0000 0.0000 39.0922 0.0000
# 6 0.0000 0.0000 0.0000 0.0000 0.0000 21.6555
#
#
#
# Elastic Compliance Matrix: (Units=1/GPa)
#
#
# Indices 1 2 3 4 5 6 
#
# 1 0.033431 -0.018478 -0.004300 0.000000 0.000000 0.000000
# 2 -0.018478 0.033431 -0.004300 0.000000 0.000000 0.000000
# 3 -0.004300 -0.004300 0.010437 0.000000 0.000000 0.000000
# 4 0.000000 0.000000 0.000000 0.025580 0.000000 0.000000
# 5 0.000000 0.000000 0.000000 0.000000 0.025581 0.000000
# 6 0.000000 0.000000 0.000000 0.000000 0.000000 0.046178
#
#
# Mechanical properties :
#
#
# Convention : Reuss Voigt Hill
#
# Bulk Modulus (GPa) = 43.21026 49.47751 46.34389
# Shear Modulus (GPa) = 21.14108 28.37286 24.75697
#
# Velocity S-wave (km/s) = 3.09939 3.59058 3.35399
# Velocity P-wave (km/s) = 5.69583 6.29854 6.00476
#
# Compressibility (1/GPa) = 0.02314265
#
# Stress axis : x y z
#
# Youngs Moduli (GPa) = 29.91256 29.91247 95.81663
#
# Poissons Ratio (x) = 0.55273 0.41199
# Poissons Ratio (y) = 0.55273 0.41200
# Poissons Ratio (z) = 0.12862 0.12862
#
# Static dielectric constant tensor:
#      x y z
#    x 1.923730 0.000000 0.000000 
#    y 0.000000 1.923730 0.000000 
#    z 0.000000 0.000000 1.926640 
# 
# From -- ./inp_files/5460.got.cif
#   From: 2010.05.17/outbox.cif.g08.bks.cpg/sg142_3_cif.got.tgz:5460.got - 2010.05.20 13:39:18.
