data_PCOD9573396
_publ_section_title
;
Structure prediction by ZEFSAII (Michael W. Deem and Ramdas Pophale) SiO2 
 PCOD9573396
Probable space group: I 41/A M D
;
_chemical_formula_sum "Si O2"
_cell_formula_units_Z 96
_cell_length_a 18.000000
_cell_length_b 18.000000
_cell_length_c 30.000000
_cell_angle_alpha 90.000000
_cell_angle_beta 90.000000
_cell_angle_gamma 90.000000
_cell_volume 9720.000000
_symmetry_space_group_name_H-M "I 41/A M D"
_symmetry_group_IT_number 141
_space_group.IT_coordinate_system_code '2'
_symmetry_cell_setting 'tetragonal'
loop_
_space_group_symop_operation_xyz
x,y,z
1/4-y,3/4+x,1/4+z
-x,1/2-y,z
1/4+y,1/4-x,3/4+z
x,-y,-z
-x,1/2+y,-z
1/4+y,3/4+x,1/4-z
1/4-y,1/4-x,3/4-z
-x,-y,-z
3/4+y,1/4-x,3/4-z
x,1/2+y,-z
3/4-y,3/4+x,1/4-z
-x,y,z
x,1/2-y,z
3/4-y,1/4-x,3/4+z
3/4+y,3/4+x,1/4+z
1/2+x,1/2+y,1/2+z
3/4-y,1/4+x,3/4+z
1/2-x,-y,1/2+z
3/4+y,3/4-x,1/4+z
1/2+x,1/2-y,1/2-z
1/2-x,y,1/2-z
3/4+y,1/4+x,3/4-z
3/4-y,3/4-x,1/4-z
1/2-x,1/2-y,1/2-z
1/4+y,3/4-x,1/4-z
1/2+x,y,1/2-z
1/4-y,1/4+x,3/4-z
1/2-x,1/2+y,1/2+z
1/2+x,-y,1/2+z
1/4-y,3/4-x,1/4+z
1/4+y,1/4+x,3/4+z
loop_
_atom_site_type_symbol
_atom_site_label
_atom_site_fract_x
_atom_site_fract_y
_atom_site_fract_z
Si Si1 0.413220 0.665630 0.997228
Si Si2 0.155892 0.095369 0.655341
Si Si3 0.686728 0.106368 0.074693
Si Si4 0.335019 0.750000 0.269020
Si Si5 0.692159 0.062226 0.946620
Si Si6 0.000000 0.836558 0.925580
Si Si7 0.852851 0.425599 0.927506
O O1 0.500000 0.647229 0.993146
O O2 0.406798 0.750000 0.014037
O O3 0.370961 0.658132 0.950302
O O4 0.370089 0.608552 0.028552
O O5 0.177295 0.073259 0.605592
O O6 0.116121 0.173608 0.655123
O O7 0.234770 0.105511 0.679416
O O8 0.116119 0.022130 0.674763
O O9 0.660327 0.089674 0.125000
O O10 0.688835 0.026893 0.048573
O O11 0.250000 0.750000 0.250000
O O12 0.387070 0.750000 0.226400
O O13 0.350130 0.676929 0.298382
O O14 0.775854 0.093193 0.952722
O O15 0.000000 0.750000 0.921641
O O16 0.847480 0.402521 0.875000
#
# Coordination Sequence:
#
# PCOD9573396 Si02
#       7
#    32  32  32  16  32  16  32
#     4  11  25  40  56  86 124 156 193 243 306 368
#     4   9  19  39  62  88 118 155 202 252 307 358
#     4   9  20  40  65  88 113 151 203 253 297 358
#     4  12  22  38  64  92 128 172 214 264 314 376
#     4   9  20  38  65  90 115 153 206 254 298 365
#     4  12  26  38  56  92 134 166 208 256 318 374
#     4   9  19  39  64  90 116 162 215 255 304 370
#
# _framework density 9.8765429999999999
#
# number of rings (size 3 to 8) (size 9 to 14) (size 15 to 20)
#    0.000    2.167    1.667    2.500    3.500    3.333 
#    3.000    4.167    0.000    0.000    0.000    0.000 
#    0.000    0.000    0.000    0.000    0.000    0.000 
#
# Total GULP energy -535309.871821 kJ/mol
# GULP energy per Si atom -5576.144498 kJ/mol
# Density = 0.985406 g / cm^3
# Si number density = 9.876543 Si / 1000 Ang^3
#
#
#
# Elastic Constant Matrix: (Units=GPa)
#
#
# Indices 1 2 3 4 5 6 
#
# 1 82.4580 50.0285 -7.0507 0.0000 0.0000 0.0000
# 2 50.0285 82.4589 -7.0507 0.0000 0.0000 0.0000
# 3 -7.0507 -7.0507 -4.7263 0.0000 0.0000 0.0000
# 4 0.0000 0.0000 0.0000 -2.0182 0.0000 0.0000
# 5 0.0000 0.0000 0.0000 0.0000 -2.0196 0.0000
# 6 0.0000 0.0000 0.0000 0.0000 0.0000 20.9700
#
#
#
# Elastic Compliance Matrix: (Units=1/GPa)
#
#
# Indices 1 2 3 4 5 6 
#
# 1 0.018675 -0.012161 -0.009717 0.000000 0.000000 0.000000
# 2 -0.012161 0.018675 -0.009717 0.000000 0.000000 0.000000
# 3 -0.009717 -0.009717 -0.182590 0.000000 0.000000 0.000000
# 4 0.000000 0.000000 0.000000 -0.495498 0.000000 0.000000
# 5 0.000000 0.000000 0.000000 0.000000 -0.495154 0.000000
# 6 0.000000 0.000000 0.000000 0.000000 0.000000 0.047687
#
#
# Mechanical properties :
#
#
# Convention : Reuss Voigt Hill
#
# Bulk Modulus (GPa) = -4.79774 25.78276 10.49251
# Shear Modulus (GPa) = -4.56833 11.67068 3.55117
#
# Velocity S-wave (km/s) = -1.52241 2.43333 1.34227
# Velocity P-wave (km/s) = 2.35041 4.57992 2.77950
#
# Compressibility (1/GPa) = -0.20843157
#
# Stress axis : x y z
#
# Youngs Moduli (GPa) = 53.54821 53.54873 -5.47674
#
# Poissons Ratio (x) = 0.65121 -0.05322
# Poissons Ratio (y) = 0.65120 -0.05322
# Poissons Ratio (z) = 0.52034 0.52034
#
# Static dielectric constant tensor:
#      x y z
#    x 1.706590 0.000000 0.000000 
#    y 0.000000 1.706590 0.000000 
#    z 0.000000 0.000000 1.732170 
# 
# From -- ./inp_files/14457.got.cif
#   From: 2010.05.17/outbox.ucp.g08.bks.cvg/sg141_8_cif.got.tgz:14457.got - 2010.06.11 11:43:24.
