data_PCOD9573936
_publ_section_title
;
Structure prediction by ZEFSAII (Michael W. Deem and Ramdas Pophale) SiO2 
 PCOD9573936
Probable space group: I 41/A C D
;
_chemical_formula_sum "Si O2"
_cell_formula_units_Z 128
_cell_length_a 14.603813
_cell_length_b 14.603813
_cell_length_c 24.856960
_cell_angle_alpha 90.000000
_cell_angle_beta 90.000000
_cell_angle_gamma 90.000000
_cell_volume 5301.277519
_symmetry_space_group_name_H-M "I 41/A C D"
_symmetry_group_IT_number 142
_space_group.IT_coordinate_system_code '2'
_symmetry_cell_setting 'tetragonal'
loop_
_space_group_symop_operation_xyz
x,y,z
1/4-y,3/4+x,1/4+z
-x,1/2-y,z
1/4+y,1/4-x,3/4+z
x,-y,1/2-z
1/2-x,y,-z
3/4+y,1/4+x,1/4-z
1/4-y,1/4-x,1/4-z
-x,-y,-z
3/4+y,1/4-x,3/4-z
x,1/2+y,-z
3/4-y,3/4+x,1/4-z
-x,y,1/2+z
1/2+x,-y,z
1/4-y,3/4-x,3/4+z
3/4+y,3/4+x,3/4+z
1/2+x,1/2+y,1/2+z
3/4-y,1/4+x,3/4+z
1/2-x,-y,1/2+z
3/4+y,3/4-x,1/4+z
1/2+x,1/2-y,-z
-x,1/2+y,1/2-z
1/4+y,3/4+x,3/4-z
3/4-y,3/4-x,3/4-z
1/2-x,1/2-y,1/2-z
1/4+y,3/4-x,1/4-z
1/2+x,y,1/2-z
1/4-y,1/4+x,3/4-z
1/2-x,1/2+y,z
x,1/2-y,1/2+z
3/4-y,1/4-x,1/4+z
1/4+y,1/4+x,1/4+z
loop_
_atom_site_type_symbol
_atom_site_label
_atom_site_fract_x
_atom_site_fract_y
_atom_site_fract_z
Si Si1 0.921224 0.901872 0.725375
Si Si2 0.992135 0.139206 0.566390
Si Si3 0.262760 0.634344 0.866454
Si Si4 0.354078 0.888601 0.992242
O O1 0.879973 0.825327 0.764488
O O2 0.030516 0.892552 0.729564
O O3 0.895051 0.000000 0.750000
O O4 0.897361 0.912679 0.662986
O O5 0.956349 0.073108 0.614289
O O6 0.000000 0.250000 0.573533
O O7 0.088602 0.100394 0.546438
O O8 0.212458 0.537543 0.875000
O O9 0.309506 0.642976 0.808976
O O10 0.250000 0.916939 0.000000
#
# Coordination Sequence:
#
# PCOD9573936 Si02
#       4
#    32  32  32  32
#     4  10  22  45  64  98 137 177 226 280 347 412
#     4  10  23  47  69  95 140 181 226 285 343 413
#     4  12  25  39  71  98 132 182 225 283 347 415
#     4  10  25  44  67  98 134 176 229 290 337 409
#
# _framework density 24.145125
#
# number of rings (size 3 to 8) (size 9 to 14) (size 15 to 20)
#    0.000    1.500    2.500    0.750    7.000    2.500 
#    0.000    0.000    0.000    0.000    0.000    0.000 
#    0.000    0.000    0.000    0.000    0.000    0.000 
#
# Total GULP energy -358061.482135 kJ/mol
# GULP energy per Si atom -5594.710658 kJ/mol
# Density = 2.409017 g / cm^3
# Si number density = 24.145125 Si / 1000 Ang^3
#
#
#
# Elastic Constant Matrix: (Units=GPa)
#
#
# Indices 1 2 3 4 5 6 
#
# 1 64.1671 16.5029 16.8890 0.0000 0.0000 0.0000
# 2 16.5029 64.1670 16.8885 0.0000 0.0000 0.0000
# 3 16.8890 16.8885 89.4300 0.0000 0.0000 0.0000
# 4 0.0000 0.0000 0.0000 24.2015 0.0000 0.0000
# 5 0.0000 0.0000 0.0000 0.0000 24.1990 0.0000
# 6 0.0000 0.0000 0.0000 0.0000 0.0000 1.3741
#
#
#
# Elastic Compliance Matrix: (Units=1/GPa)
#
#
# Indices 1 2 3 4 5 6 
#
# 1 0.017220 -0.003760 -0.002542 0.000000 0.000000 0.000000
# 2 -0.003760 0.017220 -0.002542 0.000000 0.000000 0.000000
# 3 -0.002542 -0.002542 0.012142 0.000000 0.000000 0.000000
# 4 0.000000 0.000000 0.000000 0.041320 0.000000 0.000000
# 5 0.000000 0.000000 0.000000 0.000000 0.041324 0.000000
# 6 0.000000 0.000000 0.000000 0.000000 0.000000 0.727746
#
#
# Mechanical properties :
#
#
# Convention : Reuss Voigt Hill
#
# Bulk Modulus (GPa) = 34.60792 35.36942 34.98867
# Shear Modulus (GPa) = 5.65424 21.12051 13.38737
#
# Velocity S-wave (km/s) = 1.53195 2.96080 2.35724
# Velocity P-wave (km/s) = 4.18253 5.13506 4.68308
#
# Compressibility (1/GPa) = 0.02889512
#
# Stress axis : x y z
#
# Youngs Moduli (GPa) = 58.07075 58.07086 82.35845
#
# Poissons Ratio (x) = 0.21833 0.20936
# Poissons Ratio (y) = 0.21833 0.20935
# Poissons Ratio (z) = 0.14762 0.14761
#
# Static dielectric constant tensor:
#      x y z
#    x 1.946480 0.000000 0.000000 
#    y 0.000000 1.946470 0.000000 
#    z 0.000000 0.000000 2.000550 
# 
# From -- ./inp_files/9957.got.cif
#   From: 2010.05.17/outbox.cif.g08.bks.cpg/sg142_5_cif.got.tgz:9957.got - 2010.05.20 13:39:18.
