data_PCOD9573054
_publ_section_title
;
Structure prediction by ZEFSAII (Michael W. Deem and Ramdas Pophale) SiO2 
 PCOD9573054
Probable space group: I 41/A M D
;
_chemical_formula_sum "Si O2"
_cell_formula_units_Z 192
_cell_length_a 20.193240
_cell_length_b 20.193240
_cell_length_c 24.249215
_cell_angle_alpha 90.000000
_cell_angle_beta 90.000000
_cell_angle_gamma 90.000000
_cell_volume 9888.028239
_symmetry_space_group_name_H-M "I 41/A M D"
_symmetry_group_IT_number 141
_space_group.IT_coordinate_system_code '2'
_symmetry_cell_setting 'tetragonal'
loop_
_space_group_symop_operation_xyz
x,y,z
1/4-y,3/4+x,1/4+z
-x,1/2-y,z
1/4+y,1/4-x,3/4+z
x,-y,-z
-x,1/2+y,-z
1/4+y,3/4+x,1/4-z
1/4-y,1/4-x,3/4-z
-x,-y,-z
3/4+y,1/4-x,3/4-z
x,1/2+y,-z
3/4-y,3/4+x,1/4-z
-x,y,z
x,1/2-y,z
3/4-y,1/4-x,3/4+z
3/4+y,3/4+x,1/4+z
1/2+x,1/2+y,1/2+z
3/4-y,1/4+x,3/4+z
1/2-x,-y,1/2+z
3/4+y,3/4-x,1/4+z
1/2+x,1/2-y,1/2-z
1/2-x,y,1/2-z
3/4+y,1/4+x,3/4-z
3/4-y,3/4-x,1/4-z
1/2-x,1/2-y,1/2-z
1/4+y,3/4-x,1/4-z
1/2+x,y,1/2-z
1/4-y,1/4+x,3/4-z
1/2-x,1/2+y,1/2+z
1/2+x,-y,1/2+z
1/4-y,3/4-x,1/4+z
1/4+y,1/4+x,3/4+z
loop_
_atom_site_type_symbol
_atom_site_label
_atom_site_fract_x
_atom_site_fract_y
_atom_site_fract_z
Si Si1 0.114067 0.179266 0.817941
Si Si2 0.765510 0.325412 0.687021
Si Si3 0.696206 0.824008 0.925762
Si Si4 0.624788 0.535791 0.943300
Si Si5 0.575836 0.456635 0.731296
Si Si6 0.174554 0.974604 0.851191
O O1 0.075479 0.174522 0.875000
O O2 0.102535 0.250000 0.790542
O O3 0.190734 0.176713 0.836327
O O4 0.096801 0.118553 0.778906
O O5 0.791728 0.250000 0.686380
O O6 0.750000 0.345159 0.750000
O O7 0.803535 0.379244 0.650895
O O8 0.668726 0.750000 0.939547
O O9 0.655239 0.889087 0.946731
O O10 0.706414 0.828138 0.860081
O O11 0.766370 0.829035 0.956834
O O12 0.680085 0.483333 0.922489
O O13 0.600255 0.500000 0.000000
O O14 0.500000 0.464544 0.712127
O O15 0.624666 0.502733 0.696221
O O16 0.211250 0.038751 0.875000
#
# Coordination Sequence:
#
# PCOD9573054 Si02
#       6
#    32  32  32  32  32  32
#     4  11  21  32  47  70 105 159 216 254 289 347
#     4  10  21  33  47  74 117 161 204 255 309 359
#     4  10  23  41  63  94 126 156 196 251 311 373
#     4  11  23  40  65  95 122 157 198 243 315 380
#     4  11  21  35  54  79 117 157 200 255 311 357
#     4  12  20  31  56  86 115 154 198 254 297 362
#
# _framework density 19.41742
#
# number of rings (size 3 to 8) (size 9 to 14) (size 15 to 20)
#    0.000    1.167    6.667    1.000    2.333    2.167 
#    0.000    0.000    0.000    5.000    0.000    0.000 
#    0.000    0.000    0.000    0.000    0.000    0.000 
#
# Total GULP energy -535017.392167 kJ/mol
# GULP energy per Si atom -5573.097835 kJ/mol
# Density = 1.937323 g / cm^3
# Si number density = 19.417420 Si / 1000 Ang^3
#
#
#
# Elastic Constant Matrix: (Units=GPa)
#
#
# Indices 1 2 3 4 5 6 
#
# 1 86.7637 24.5843 14.0798 0.0000 0.0000 0.0000
# 2 24.5843 86.7632 14.0804 0.0000 0.0000 0.0000
# 3 14.0798 14.0804 79.0899 0.0000 0.0000 0.0000
# 4 0.0000 0.0000 0.0000 19.3122 0.0000 0.0000
# 5 0.0000 0.0000 0.0000 0.0000 19.3107 0.0000
# 6 0.0000 0.0000 0.0000 0.0000 0.0000 10.1176
#
#
#
# Elastic Compliance Matrix: (Units=1/GPa)
#
#
# Indices 1 2 3 4 5 6 
#
# 1 0.012743 -0.003339 -0.001674 0.000000 0.000000 0.000000
# 2 -0.003339 0.012743 -0.001674 0.000000 0.000000 0.000000
# 3 -0.001674 -0.001674 0.013240 0.000000 0.000000 0.000000
# 4 0.000000 0.000000 0.000000 0.051781 0.000000 0.000000
# 5 0.000000 0.000000 0.000000 0.000000 0.051785 0.000000
# 6 0.000000 0.000000 0.000000 0.000000 0.000000 0.098838
#
#
# Mechanical properties :
#
#
# Convention : Reuss Voigt Hill
#
# Bulk Modulus (GPa) = 39.44513 39.78953 39.61733
# Shear Modulus (GPa) = 19.01458 23.07291 21.04374
#
# Velocity S-wave (km/s) = 3.13270 3.45085 3.29562
# Velocity P-wave (km/s) = 5.78303 6.03440 5.91005
#
# Compressibility (1/GPa) = 0.02535167
#
# Stress axis : x y z
#
# Youngs Moduli (GPa) = 78.47216 78.47151 75.52898
#
# Poissons Ratio (x) = 0.26203 0.12645
# Poissons Ratio (y) = 0.26203 0.12646
# Poissons Ratio (z) = 0.13137 0.13138
#
# Static dielectric constant tensor:
#      x y z
#    x 1.719570 0.000000 0.000000 
#    y 0.000000 1.719580 0.000000 
#    z 0.000000 0.000000 1.770020 
# 
# From -- ./inp_files/13042.got.cif
#   From: 2010.05.17/outbox.cif.g08.bks.cpg/sg141_7_cif.got.tgz:13042.got - 2010.05.20 13:30:51.
