data_PCOD9573768
_publ_section_title
;
Structure prediction by ZEFSAII (Michael W. Deem and Ramdas Pophale) SiO2 
 PCOD9573768
Probable space group: I 41/A C D
;
_chemical_formula_sum "Si O2"
_cell_formula_units_Z 168
_cell_length_a 21.042514
_cell_length_b 21.042514
_cell_length_c 20.655471
_cell_angle_alpha 90.000000
_cell_angle_beta 90.000000
_cell_angle_gamma 90.000000
_cell_volume 9145.982206
_symmetry_space_group_name_H-M "I 41/A C D"
_symmetry_group_IT_number 142
_space_group.IT_coordinate_system_code '2'
_symmetry_cell_setting 'tetragonal'
loop_
_space_group_symop_operation_xyz
x,y,z
1/4-y,3/4+x,1/4+z
-x,1/2-y,z
1/4+y,1/4-x,3/4+z
x,-y,1/2-z
1/2-x,y,-z
3/4+y,1/4+x,1/4-z
1/4-y,1/4-x,1/4-z
-x,-y,-z
3/4+y,1/4-x,3/4-z
x,1/2+y,-z
3/4-y,3/4+x,1/4-z
-x,y,1/2+z
1/2+x,-y,z
1/4-y,3/4-x,3/4+z
3/4+y,3/4+x,3/4+z
1/2+x,1/2+y,1/2+z
3/4-y,1/4+x,3/4+z
1/2-x,-y,1/2+z
3/4+y,3/4-x,1/4+z
1/2+x,1/2-y,-z
-x,1/2+y,1/2-z
1/4+y,3/4+x,3/4-z
3/4-y,3/4-x,3/4-z
1/2-x,1/2-y,1/2-z
1/4+y,3/4-x,1/4-z
1/2+x,y,1/2-z
1/4-y,1/4+x,3/4-z
1/2-x,1/2+y,z
x,1/2-y,1/2+z
3/4-y,1/4-x,1/4+z
1/4+y,1/4+x,1/4+z
loop_
_atom_site_type_symbol
_atom_site_label
_atom_site_fract_x
_atom_site_fract_y
_atom_site_fract_z
Si Si1 0.125858 0.740024 0.458866
Si Si2 0.231520 0.727081 0.857627
Si Si3 0.000000 0.250000 0.625000
Si Si4 0.063315 0.571802 0.021925
Si Si5 0.431398 0.286018 0.699167
Si Si6 0.852189 0.332935 0.923205
O O1 0.183953 0.739677 0.408518
O O2 0.063164 0.752006 0.417155
O O3 0.099417 0.684372 0.506235
O O4 0.141768 0.794143 0.510476
O O5 0.267638 0.781113 0.815902
O O6 0.197897 0.683918 0.802879
O O7 0.284123 0.684318 0.893694
O O8 0.127001 0.596599 0.056407
O O9 0.013642 0.630584 0.023476
O O10 0.500000 0.250000 0.698746
O O11 0.403707 0.307788 0.629781
#
# Coordination Sequence:
#
# PCOD9573768 Si02
#       6
#    32  32   8  32  32  32
#     4  12  21  33  54  90 127 151 192 245 312 372
#     4  10  23  38  53  88 127 159 197 254 309 366
#     4  12  24  32  58  96 124 144 180 262 336 344
#     4  10  21  38  57  84 125 162 197 247 314 370
#     4  11  20  32  58  92 125 151 186 247 317 363
#     4  11  22  34  58  80 118 170 200 235 301 377
#
# _framework density 18.368722000000002
#
# number of rings (size 3 to 8) (size 9 to 14) (size 15 to 20)
#    0.000    1.143    2.857    5.143    4.000    0.000 
#    0.000    0.000    0.000    0.000    0.000   60.000 
#    0.000    0.000    0.000    0.000    0.000    0.000 
#
# Total GULP energy -468330.728351 kJ/mol
# GULP energy per Si atom -5575.365814 kJ/mol
# Density = 1.832691 g / cm^3
# Si number density = 18.368722 Si / 1000 Ang^3
#
#
#
# Elastic Constant Matrix: (Units=GPa)
#
#
# Indices 1 2 3 4 5 6 
#
# 1 83.1828 29.2838 54.3418 0.0000 0.0000 0.0000
# 2 29.2838 83.1828 54.3418 0.0000 0.0000 0.0000
# 3 54.3418 54.3418 139.0908 0.0000 0.0000 0.0000
# 4 0.0000 0.0000 0.0000 23.8674 0.0000 0.0000
# 5 0.0000 0.0000 0.0000 0.0000 23.8674 0.0000
# 6 0.0000 0.0000 0.0000 0.0000 0.0000 20.7452
#
#
#
# Elastic Compliance Matrix: (Units=1/GPa)
#
#
# Indices 1 2 3 4 5 6 
#
# 1 0.016419 -0.002134 -0.005581 0.000000 0.000000 0.000000
# 2 -0.002134 0.016419 -0.005581 0.000000 0.000000 0.000000
# 3 -0.005581 -0.005581 0.011550 0.000000 0.000000 0.000000
# 4 0.000000 0.000000 0.000000 0.041898 0.000000 0.000000
# 5 0.000000 0.000000 0.000000 0.000000 0.041898 0.000000
# 6 0.000000 0.000000 0.000000 0.000000 0.000000 0.048204
#
#
# Mechanical properties :
#
#
# Convention : Reuss Voigt Hill
#
# Bulk Modulus (GPa) = 56.19199 64.59900 60.39550
# Shear Modulus (GPa) = 23.93341 24.86193 24.39767
#
# Velocity S-wave (km/s) = 3.61355 3.68298 3.64843
# Velocity P-wave (km/s) = 6.93310 7.30274 7.12032
#
# Compressibility (1/GPa) = 0.01779613
#
# Stress axis : x y z
#
# Youngs Moduli (GPa) = 60.90510 60.90510 86.57685
#
# Poissons Ratio (x) = 0.12999 0.48318
# Poissons Ratio (y) = 0.12999 0.48318
# Poissons Ratio (z) = 0.33991 0.33991
#
# Static dielectric constant tensor:
#      x y z
#    x 1.656380 0.000000 0.000000 
#    y 0.000000 1.656380 0.000000 
#    z 0.000000 0.000000 1.705370 
# 
# From -- ./inp_files/9077.got.cif
#   From: 2010.05.17/outbox.cif.g08.bks.cpg/sg142_5_cif.got.tgz:9077.got - 2010.05.20 13:39:18.
