data_PCOD9573052
_publ_section_title
;
Structure prediction by ZEFSAII (Michael W. Deem and Ramdas Pophale) SiO2 
 PCOD9573052
Probable space group: I 41/A M D
;
_chemical_formula_sum "Si O2"
_cell_formula_units_Z 104
_cell_length_a 17.276302
_cell_length_b 17.276302
_cell_length_c 17.067153
_cell_angle_alpha 90.000000
_cell_angle_beta 90.000000
_cell_angle_gamma 90.000000
_cell_volume 5094.043580
_symmetry_space_group_name_H-M "I 41/A M D"
_symmetry_group_IT_number 141
_space_group.IT_coordinate_system_code '2'
_symmetry_cell_setting 'tetragonal'
loop_
_space_group_symop_operation_xyz
x,y,z
1/4-y,3/4+x,1/4+z
-x,1/2-y,z
1/4+y,1/4-x,3/4+z
x,-y,-z
-x,1/2+y,-z
1/4+y,3/4+x,1/4-z
1/4-y,1/4-x,3/4-z
-x,-y,-z
3/4+y,1/4-x,3/4-z
x,1/2+y,-z
3/4-y,3/4+x,1/4-z
-x,y,z
x,1/2-y,z
3/4-y,1/4-x,3/4+z
3/4+y,3/4+x,1/4+z
1/2+x,1/2+y,1/2+z
3/4-y,1/4+x,3/4+z
1/2-x,-y,1/2+z
3/4+y,3/4-x,1/4+z
1/2+x,1/2-y,1/2-z
1/2-x,y,1/2-z
3/4+y,1/4+x,3/4-z
3/4-y,3/4-x,1/4-z
1/2-x,1/2-y,1/2-z
1/4+y,3/4-x,1/4-z
1/2+x,y,1/2-z
1/4-y,1/4+x,3/4-z
1/2-x,1/2+y,1/2+z
1/2+x,-y,1/2+z
1/4-y,3/4-x,1/4+z
1/4+y,1/4+x,3/4+z
loop_
_atom_site_type_symbol
_atom_site_label
_atom_site_fract_x
_atom_site_fract_y
_atom_site_fract_z
Si Si1 0.334626 0.090828 0.392255
Si Si2 0.750000 0.535470 0.750000
Si Si3 0.177323 0.250000 0.599688
Si Si4 0.000000 0.480642 0.683240
Si Si5 0.000000 0.750000 0.801236
Si Si6 0.000000 0.366565 0.413344
O O1 0.420098 0.055327 0.394079
O O2 0.324250 0.176429 0.424583
O O3 0.307885 0.086503 0.301540
O O4 0.271723 0.044498 0.442162
O O5 0.220100 0.250000 0.514651
O O6 0.083732 0.250000 0.590932
O O7 0.000000 0.544727 0.612867
O O8 0.079398 0.750000 0.749376
O O9 0.075586 0.325586 0.375000
#
# Coordination Sequence:
#
# PCOD9573052 Si02
#       6
#    32  16  16  16   8  16
#     4  11  25  42  65  94 133 167 222 269 335 395
#     4  10  24  42  64  98 126 168 220 278 322 402
#     4  12  23  42  62  92 135 173 218 270 328 401
#     4  12  23  37  63  97 133 178 208 270 337 395
#     4  10  21  32  54  94 126 175 210 254 310 393
#     4   9  18  31  52  81 131 171 207 242 304 392
#
# _framework density 20.416001000000001
#
# number of rings (size 3 to 8) (size 9 to 14) (size 15 to 20)
#    0.000    1.385    6.154    0.923    8.615    1.231 
#    0.000    0.000    0.000    0.000    0.000    0.000 
#    0.000    0.000    0.000    0.000    0.000    0.000 
#
# Total GULP energy -290273.869684 kJ/mol
# GULP energy per Si atom -5582.189802 kJ/mol
# Density = 2.036953 g / cm^3
# Si number density = 20.416001 Si / 1000 Ang^3
#
#
#
# Elastic Constant Matrix: (Units=GPa)
#
#
# Indices 1 2 3 4 5 6 
#
# 1 86.2936 -2.5887 15.8361 0.0000 0.0000 0.0000
# 2 -2.5887 86.2936 15.8361 0.0000 0.0000 0.0000
# 3 15.8361 15.8361 47.3795 0.0000 0.0000 0.0000
# 4 0.0000 0.0000 0.0000 19.8336 0.0000 0.0000
# 5 0.0000 0.0000 0.0000 0.0000 19.8336 0.0000
# 6 0.0000 0.0000 0.0000 0.0000 0.0000 10.9666
#
#
#
# Elastic Compliance Matrix: (Units=1/GPa)
#
#
# Indices 1 2 3 4 5 6 
#
# 1 0.012464 0.001213 -0.004571 0.000000 0.000000 0.000000
# 2 0.001213 0.012464 -0.004571 0.000000 0.000000 0.000000
# 3 -0.004571 -0.004571 0.024162 0.000000 0.000000 0.000000
# 4 0.000000 0.000000 0.000000 0.050419 0.000000 0.000000
# 5 0.000000 0.000000 0.000000 0.000000 0.050419 0.000000
# 6 0.000000 0.000000 0.000000 0.000000 0.000000 0.091186
#
#
# Mechanical properties :
#
#
# Convention : Reuss Voigt Hill
#
# Bulk Modulus (GPa) = 30.09334 30.90373 30.49854
# Shear Modulus (GPa) = 18.65327 22.85232 20.75279
#
# Velocity S-wave (km/s) = 3.02596 3.34927 3.19171
# Velocity P-wave (km/s) = 5.19429 5.48878 5.34356
#
# Compressibility (1/GPa) = 0.03322994
#
# Stress axis : x y z
#
# Youngs Moduli (GPa) = 80.23362 80.23362 41.38749
#
# Poissons Ratio (x) = -0.09730 0.18919
# Poissons Ratio (y) = -0.09730 0.18919
# Poissons Ratio (z) = 0.36676 0.36676
#
# Static dielectric constant tensor:
#      x y z
#    x 1.886910 0.000000 0.000000 
#    y 0.000000 1.886910 0.000000 
#    z 0.000000 0.000000 1.792160 
# 
# From -- ./inp_files/7880.got.cif
#   From: 2010.05.17/outbox.cif.g08.bks.cpg/sg141_4_cif.got.tgz:7880.got - 2010.05.20 13:30:51.
