data_PCOD9573158
_publ_section_title
;
Structure prediction by ZEFSAII (Michael W. Deem and Ramdas Pophale) SiO2 
 PCOD9573158
Probable space group: I 41/A M D
;
_chemical_formula_sum "Si O2"
_cell_formula_units_Z 176
_cell_length_a 17.814776
_cell_length_b 17.814776
_cell_length_c 29.275796
_cell_angle_alpha 90.000000
_cell_angle_beta 90.000000
_cell_angle_gamma 90.000000
_cell_volume 9291.149415
_symmetry_space_group_name_H-M "I 41/A M D"
_symmetry_group_IT_number 141
_space_group.IT_coordinate_system_code '2'
_symmetry_cell_setting 'tetragonal'
loop_
_space_group_symop_operation_xyz
x,y,z
1/4-y,3/4+x,1/4+z
-x,1/2-y,z
1/4+y,1/4-x,3/4+z
x,-y,-z
-x,1/2+y,-z
1/4+y,3/4+x,1/4-z
1/4-y,1/4-x,3/4-z
-x,-y,-z
3/4+y,1/4-x,3/4-z
x,1/2+y,-z
3/4-y,3/4+x,1/4-z
-x,y,z
x,1/2-y,z
3/4-y,1/4-x,3/4+z
3/4+y,3/4+x,1/4+z
1/2+x,1/2+y,1/2+z
3/4-y,1/4+x,3/4+z
1/2-x,-y,1/2+z
3/4+y,3/4-x,1/4+z
1/2+x,1/2-y,1/2-z
1/2-x,y,1/2-z
3/4+y,1/4+x,3/4-z
3/4-y,3/4-x,1/4-z
1/2-x,1/2-y,1/2-z
1/4+y,3/4-x,1/4-z
1/2+x,y,1/2-z
1/4-y,1/4+x,3/4-z
1/2-x,1/2+y,1/2+z
1/2+x,-y,1/2+z
1/4-y,3/4-x,1/4+z
1/4+y,1/4+x,3/4+z
loop_
_atom_site_type_symbol
_atom_site_label
_atom_site_fract_x
_atom_site_fract_y
_atom_site_fract_z
Si Si1 0.790436 0.836503 0.002766
Si Si2 0.207893 0.338892 0.889907
Si Si3 0.659326 0.904887 0.584766
Si Si4 0.000000 0.840755 0.471953
Si Si5 0.413795 0.376011 0.208673
Si Si6 0.500000 0.340422 0.868764
Si Si7 0.173332 0.423332 0.375000
O O1 0.821434 0.750000 0.000637
O O2 0.832726 0.896863 0.970426
O O3 0.709008 0.833000 0.979422
O O4 0.780485 0.856296 0.056035
O O5 0.197935 0.250000 0.886011
O O6 0.135492 0.385492 0.875000
O O7 0.276999 0.363682 0.857519
O O8 0.621843 0.825816 0.597348
O O9 0.741352 0.911194 0.608589
O O10 0.928004 0.861631 0.501013
O O11 0.000000 0.868334 0.420916
O O12 0.000000 0.750000 0.468797
O O13 0.500000 0.356242 0.194639
O O14 0.355481 0.374186 0.167463
O O15 0.500000 0.250000 0.866797
#
# Coordination Sequence:
#
# PCOD9573158 Si02
#       7
#    32  32  32  16  32  16  16
#     4   9  19  39  63  86 125 169 203 249 322 376
#     4  11  24  44  68  93 123 162 206 259 322 390
#     4  11  21  41  62  94 125 165 209 258 317 378
#     4   9  18  33  49  83 121 159 215 255 308 350
#     4   9  18  32  53  79 119 171 209 248 293 354
#     4  11  22  37  65  91 120 155 207 274 313 372
#     4  10  22  34  53  84 123 162 214 252 306 368
#
# _framework density 18.942758000000001
#
# number of rings (size 3 to 8) (size 9 to 14) (size 15 to 20)
#    0.000    2.000    1.818    1.636    2.545    3.818 
#    0.000    6.364    0.000    0.000    0.000    0.000 
#    0.000    0.000    0.000    0.000    0.000    0.000 
#
# Total GULP energy -490526.304269 kJ/mol
# GULP energy per Si atom -5574.162549 kJ/mol
# Density = 1.889964 g / cm^3
# Si number density = 18.942758 Si / 1000 Ang^3
#
#
#
# Elastic Constant Matrix: (Units=GPa)
#
#
# Indices 1 2 3 4 5 6 
#
# 1 66.8799 37.9530 27.1244 0.0000 0.0000 0.0000
# 2 37.9530 66.8799 27.1244 0.0000 0.0000 0.0000
# 3 27.1244 27.1244 84.0807 0.0000 0.0000 0.0000
# 4 0.0000 0.0000 0.0000 21.2151 0.0000 0.0000
# 5 0.0000 0.0000 0.0000 0.0000 21.2151 0.0000
# 6 0.0000 0.0000 0.0000 0.0000 0.0000 16.6501
#
#
#
# Elastic Compliance Matrix: (Units=1/GPa)
#
#
# Indices 1 2 3 4 5 6 
#
# 1 0.023010 -0.011560 -0.003694 0.000000 0.000000 0.000000
# 2 -0.011560 0.023010 -0.003694 0.000000 0.000000 0.000000
# 3 -0.003694 -0.003694 0.014277 0.000000 0.000000 0.000000
# 4 0.000000 0.000000 0.000000 0.047136 0.000000 0.000000
# 5 0.000000 0.000000 0.000000 0.000000 0.047136 0.000000
# 6 0.000000 0.000000 0.000000 0.000000 0.000000 0.060060
#
#
# Mechanical properties :
#
#
# Convention : Reuss Voigt Hill
#
# Bulk Modulus (GPa) = 44.63890 44.69376 44.66633
# Shear Modulus (GPa) = 19.23138 20.19198 19.71168
#
# Velocity S-wave (km/s) = 3.18973 3.26843 3.22932
# Velocity P-wave (km/s) = 6.09772 6.15539 6.12662
#
# Compressibility (1/GPa) = 0.02240198
#
# Stress axis : x y z
#
# Youngs Moduli (GPa) = 43.45892 43.45892 70.04440
#
# Poissons Ratio (x) = 0.50237 0.25874
# Poissons Ratio (y) = 0.50237 0.25874
# Poissons Ratio (z) = 0.16053 0.16053
#
# Static dielectric constant tensor:
#      x y z
#    x 1.654640 0.000000 0.000000 
#    y 0.000000 1.654640 0.000000 
#    z 0.000000 0.000000 1.677650 
# 
# From -- ./inp_files/12982.got.cif
#   From: 2010.05.17/outbox.cif.g08.bks.cpg/sg141_7_cif.got.tgz:12982.got - 2010.05.20 13:30:51.
