data_PCOD9573566
_publ_section_title
;
Structure prediction by ZEFSAII (Michael W. Deem and Ramdas Pophale) SiO2 
 PCOD9573566
Probable space group: I 41/A C D
;
_chemical_formula_sum "Si O2"
_cell_formula_units_Z 112
_cell_length_a 15.288515
_cell_length_b 15.288515
_cell_length_c 18.429475
_cell_angle_alpha 90.000000
_cell_angle_beta 90.000000
_cell_angle_gamma 90.000000
_cell_volume 4307.681361
_symmetry_space_group_name_H-M "I 41/A C D"
_symmetry_group_IT_number 142
_space_group.IT_coordinate_system_code '2'
_symmetry_cell_setting 'tetragonal'
loop_
_space_group_symop_operation_xyz
x,y,z
1/4-y,3/4+x,1/4+z
-x,1/2-y,z
1/4+y,1/4-x,3/4+z
x,-y,1/2-z
1/2-x,y,-z
3/4+y,1/4+x,1/4-z
1/4-y,1/4-x,1/4-z
-x,-y,-z
3/4+y,1/4-x,3/4-z
x,1/2+y,-z
3/4-y,3/4+x,1/4-z
-x,y,1/2+z
1/2+x,-y,z
1/4-y,3/4-x,3/4+z
3/4+y,3/4+x,3/4+z
1/2+x,1/2+y,1/2+z
3/4-y,1/4+x,3/4+z
1/2-x,-y,1/2+z
3/4+y,3/4-x,1/4+z
1/2+x,1/2-y,-z
-x,1/2+y,1/2-z
1/4+y,3/4+x,3/4-z
3/4-y,3/4-x,3/4-z
1/2-x,1/2-y,1/2-z
1/4+y,3/4-x,1/4-z
1/2+x,y,1/2-z
1/4-y,1/4+x,3/4-z
1/2-x,1/2+y,z
x,1/2-y,1/2+z
3/4-y,1/4-x,1/4+z
1/4+y,1/4+x,1/4+z
loop_
_atom_site_type_symbol
_atom_site_label
_atom_site_fract_x
_atom_site_fract_y
_atom_site_fract_z
Si Si1 0.126069 0.623932 0.875000
Si Si2 0.153374 0.588000 0.291775
Si Si3 0.696900 0.105348 0.569601
Si Si4 0.980560 0.347256 0.979302
O O1 0.117554 0.517998 0.878712
O O2 0.074356 0.655052 0.945141
O O3 0.114265 0.500000 0.250000
O O4 0.130311 0.619690 0.375000
O O5 0.252573 0.559142 0.305387
O O6 0.143329 0.676790 0.245115
O O7 0.750000 0.143036 0.500000
O O8 0.594771 0.124697 0.577192
O O9 0.000000 0.250000 0.959279
#
# Coordination Sequence:
#
# PCOD9573566 Si02
#       4
#    16  32  32  32
#     4  10  19  40  68  96 137 186 236 304 370 440
#     4  11  23  42  70  99 136 187 241 294 368 446
#     4   9  20  39  65  92 130 181 237 293 361 428
#     4  11  23  38  64 105 140 183 236 303 373 452
#
# _framework density 26.000066
#
# number of rings (size 3 to 8) (size 9 to 14) (size 15 to 20)
#    0.000    1.714    1.429    3.000    0.000    5.714 
#    0.000    0.000    0.000    0.000    0.000    0.000 
#    0.000    0.000    0.000    0.000    0.000    0.000 
#
# Total GULP energy -311909.727437 kJ/mol
# GULP energy per Si atom -5569.816561 kJ/mol
# Density = 2.594089 g / cm^3
# Si number density = 26.000066 Si / 1000 Ang^3
#
#
#
# Elastic Constant Matrix: (Units=GPa)
#
#
# Indices 1 2 3 4 5 6 
#
# 1 122.5951 5.5948 45.5900 0.0000 0.0000 0.0000
# 2 5.5948 122.5934 45.5895 0.0000 0.0000 0.0000
# 3 45.5900 45.5895 106.2675 0.0000 0.0000 0.0000
# 4 0.0000 0.0000 0.0000 1.5615 0.0000 0.0000
# 5 0.0000 0.0000 0.0000 0.0000 1.5646 0.0000
# 6 0.0000 0.0000 0.0000 0.0000 0.0000 15.0635
#
#
#
# Elastic Compliance Matrix: (Units=1/GPa)
#
#
# Indices 1 2 3 4 5 6 
#
# 1 0.009887 0.001340 -0.004816 0.000000 0.000000 0.000000
# 2 0.001340 0.009887 -0.004816 0.000000 0.000000 0.000000
# 3 -0.004816 -0.004816 0.013543 0.000000 0.000000 0.000000
# 4 0.000000 0.000000 0.000000 0.640428 0.000000 0.000000
# 5 0.000000 0.000000 0.000000 0.000000 0.639130 0.000000
# 6 0.000000 0.000000 0.000000 0.000000 0.000000 0.066385
#
#
# Mechanical properties :
#
#
# Convention : Reuss Voigt Hill
#
# Bulk Modulus (GPa) = 59.77001 60.55607 60.16304
# Shear Modulus (GPa) = 3.56780 20.61670 12.09225
#
# Velocity S-wave (km/s) = 1.17269 2.81899 2.15892
# Velocity P-wave (km/s) = 4.98718 5.82554 5.42258
#
# Compressibility (1/GPa) = 0.01673080
#
# Stress axis : x y z
#
# Youngs Moduli (GPa) = 101.14408 101.14276 73.84000
#
# Poissons Ratio (x) = -0.13552 0.35564
# Poissons Ratio (y) = -0.13552 0.35565
# Poissons Ratio (z) = 0.48715 0.48715
#
# Static dielectric constant tensor:
#      x y z
#    x 2.191960 0.000000 0.000000 
#    y 0.000000 2.191960 0.000000 
#    z 0.000000 0.000000 2.299270 
# 
# From -- ./inp_files/11130.got.cif
#   From: 2010.05.17/outbox.cif.g08.bks.cpg/sg142_6_cif.got.tgz:11130.got - 2010.05.20 13:39:18.
