data_PCOD9573914
_publ_section_title
;
Structure prediction by ZEFSAII (Michael W. Deem and Ramdas Pophale) SiO2 
 PCOD9573914
Probable space group: I 41/A C D
;
_chemical_formula_sum "Si O2"
_cell_formula_units_Z 160
_cell_length_a 20.711431
_cell_length_b 20.711431
_cell_length_c 18.210252
_cell_angle_alpha 90.000000
_cell_angle_beta 90.000000
_cell_angle_gamma 90.000000
_cell_volume 7811.531141
_symmetry_space_group_name_H-M "I 41/A C D"
_symmetry_group_IT_number 142
_space_group.IT_coordinate_system_code '2'
_symmetry_cell_setting 'tetragonal'
loop_
_space_group_symop_operation_xyz
x,y,z
1/4-y,3/4+x,1/4+z
-x,1/2-y,z
1/4+y,1/4-x,3/4+z
x,-y,1/2-z
1/2-x,y,-z
3/4+y,1/4+x,1/4-z
1/4-y,1/4-x,1/4-z
-x,-y,-z
3/4+y,1/4-x,3/4-z
x,1/2+y,-z
3/4-y,3/4+x,1/4-z
-x,y,1/2+z
1/2+x,-y,z
1/4-y,3/4-x,3/4+z
3/4+y,3/4+x,3/4+z
1/2+x,1/2+y,1/2+z
3/4-y,1/4+x,3/4+z
1/2-x,-y,1/2+z
3/4+y,3/4-x,1/4+z
1/2+x,1/2-y,-z
-x,1/2+y,1/2-z
1/4+y,3/4+x,3/4-z
3/4-y,3/4-x,3/4-z
1/2-x,1/2-y,1/2-z
1/4+y,3/4-x,1/4-z
1/2+x,y,1/2-z
1/4-y,1/4+x,3/4-z
1/2-x,1/2+y,z
x,1/2-y,1/2+z
3/4-y,1/4-x,1/4+z
1/4+y,1/4+x,1/4+z
loop_
_atom_site_type_symbol
_atom_site_label
_atom_site_fract_x
_atom_site_fract_y
_atom_site_fract_z
Si Si1 0.316600 0.838877 0.292608
Si Si2 0.612531 0.581037 0.560320
Si Si3 0.075941 0.574227 0.262167
Si Si4 0.526296 0.372026 0.403519
Si Si5 0.438085 0.427658 0.214195
O O1 0.240365 0.849259 0.278938
O O2 0.360323 0.901417 0.277792
O O3 0.354872 0.792233 0.236127
O O4 0.318802 0.817330 0.376779
O O5 0.666570 0.583430 0.625000
O O6 0.548182 0.608044 0.601353
O O7 0.635543 0.630324 0.497914
O O8 0.071135 0.500000 0.250000
O O9 0.070270 0.585544 0.348959
O O10 0.008053 0.602956 0.232831
O O11 0.551512 0.301512 0.375000
O O12 0.433929 0.500000 0.250000
#
# Coordination Sequence:
#
# PCOD9573914 Si02
#       5
#    32  32  32  32  32
#     4  11  25  40  64  97 125 173 222 268 333 395
#     4  12  22  41  67  95 129 173 215 279 328 394
#     4  10  22  43  63  90 131 172 212 269 327 396
#     4  10  23  44  66  92 125 172 223 260 333 395
#     4  11  23  41  63  94 132 169 218 272 337 395
#
# _framework density 20.48254
#
# number of rings (size 3 to 8) (size 9 to 14) (size 15 to 20)
#    0.000    1.200    4.000    1.800    5.600    1.200 
#    0.000    0.000    0.000    0.000    0.000    0.000 
#    0.000    0.000    0.000    0.000    0.000    0.000 
#
# Total GULP energy -445648.924643 kJ/mol
# GULP energy per Si atom -5570.611558 kJ/mol
# Density = 2.043592 g / cm^3
# Si number density = 20.482540 Si / 1000 Ang^3
#
#
#
# Elastic Constant Matrix: (Units=GPa)
#
#
# Indices 1 2 3 4 5 6 
#
# 1 40.4674 99.3993 27.1317 0.0000 0.0000 0.0000
# 2 99.3993 40.4674 27.1317 0.0000 0.0000 0.0000
# 3 27.1317 27.1317 132.7991 0.0000 0.0000 0.0000
# 4 0.0000 0.0000 0.0000 59.0858 0.0000 0.0000
# 5 0.0000 0.0000 0.0000 0.0000 59.0858 0.0000
# 6 0.0000 0.0000 0.0000 0.0000 0.0000 24.5380
#
#
#
# Elastic Compliance Matrix: (Units=1/GPa)
#
#
# Indices 1 2 3 4 5 6 
#
# 1 -0.004602 0.012367 -0.001586 0.000000 0.000000 0.000000
# 2 0.012367 -0.004602 -0.001586 0.000000 0.000000 0.000000
# 3 -0.001586 -0.001586 0.008178 0.000000 0.000000 0.000000
# 4 0.000000 0.000000 0.000000 0.016925 0.000000 0.000000
# 5 0.000000 0.000000 0.000000 0.000000 0.016925 0.000000
# 6 0.000000 0.000000 0.000000 0.000000 0.000000 0.040753
#
#
# Mechanical properties :
#
#
# Convention : Reuss Voigt Hill
#
# Bulk Modulus (GPa) = 57.59423 57.89550 57.74486
# Shear Modulus (GPa) = 81.99855 32.54665 57.27260
#
# Velocity S-wave (km/s) = 6.33406 3.99054 5.29362
# Velocity P-wave (km/s) = 9.03734 7.03987 8.10041
#
# Compressibility (1/GPa) = 0.01736285
#
# Stress axis : x y z
#
# Youngs Moduli (GPa) = -217.30676 -217.30676 122.27293
#
# Poissons Ratio (x) = 2.68742 0.19398
# Poissons Ratio (y) = 2.68742 0.19398
# Poissons Ratio (z) = -0.34475 -0.34475
#
# Static dielectric constant tensor:
#      x y z
#    x 1.798720 0.000000 0.000000 
#    y 0.000000 1.798720 0.000000 
#    z 0.000000 0.000000 1.770430 
# 
# From -- ./inp_files/7409.got.cif
#   From: 2010.05.17/outbox.cif.g08.bks.cpg/sg142_4_cif.got.tgz:7409.got - 2010.05.20 13:39:18.
