data_PCOD9573433
_publ_section_title
;
Structure prediction by ZEFSAII (Michael W. Deem and Ramdas Pophale) SiO2 
 PCOD9573433
Probable space group: I 41/A C D
;
_chemical_formula_sum "Si O2"
_cell_formula_units_Z 72
_cell_length_a 16.285027
_cell_length_b 16.285027
_cell_length_c 10.968536
_cell_angle_alpha 90.000000
_cell_angle_beta 90.000000
_cell_angle_gamma 90.000000
_cell_volume 2908.878829
_symmetry_space_group_name_H-M "I 41/A C D"
_symmetry_group_IT_number 142
_space_group.IT_coordinate_system_code '2'
_symmetry_cell_setting 'tetragonal'
loop_
_space_group_symop_operation_xyz
x,y,z
1/4-y,3/4+x,1/4+z
-x,1/2-y,z
1/4+y,1/4-x,3/4+z
x,-y,1/2-z
1/2-x,y,-z
3/4+y,1/4+x,1/4-z
1/4-y,1/4-x,1/4-z
-x,-y,-z
3/4+y,1/4-x,3/4-z
x,1/2+y,-z
3/4-y,3/4+x,1/4-z
-x,y,1/2+z
1/2+x,-y,z
1/4-y,3/4-x,3/4+z
3/4+y,3/4+x,3/4+z
1/2+x,1/2+y,1/2+z
3/4-y,1/4+x,3/4+z
1/2-x,-y,1/2+z
3/4+y,3/4-x,1/4+z
1/2+x,1/2-y,-z
-x,1/2+y,1/2-z
1/4+y,3/4+x,3/4-z
3/4-y,3/4-x,3/4-z
1/2-x,1/2-y,1/2-z
1/4+y,3/4-x,1/4-z
1/2+x,y,1/2-z
1/4-y,1/4+x,3/4-z
1/2-x,1/2+y,z
x,1/2-y,1/2+z
3/4-y,1/4-x,1/4+z
1/4+y,1/4+x,1/4+z
loop_
_atom_site_type_symbol
_atom_site_label
_atom_site_fract_x
_atom_site_fract_y
_atom_site_fract_z
Si Si1 0.883784 0.633784 0.875000
Si Si2 0.000000 0.750000 0.625000
Si Si3 0.250000 0.951651 0.000000
Si Si4 0.844137 0.699133 0.452831
O O1 0.853967 0.580389 0.760149
O O2 0.857420 0.726158 0.857405
O O3 0.081922 0.776890 0.548084
O O4 0.251179 0.998822 0.125000
O O5 0.750000 0.697473 0.500000
O O6 0.870291 0.620291 0.375000
#
# Coordination Sequence:
#
# PCOD9573433 Si02
#       4
#    16   8  16  32
#     4  10  17  40  76 112 166 218 279 356 444 532
#     4  12  26  48  92 118 172 224 286 376 452 546
#     4   8  16  30  68 120 166 216 272 370 438 526
#     4  12  25  50  84 124 163 230 292 361 456 550
#
# _framework density 24.751805000000001
#
# number of rings (size 3 to 8) (size 9 to 14) (size 15 to 20)
#    1.333    0.000    6.667    0.000    0.000    1.778 
#    0.000    2.222   19.556    2.667    5.778    0.000 
#    0.000    0.000    0.000    0.000    0.000    0.000 
#
# Total GULP energy -200771.116560 kJ/mol
# GULP energy per Si atom -5576.975460 kJ/mol
# Density = 2.469547 g / cm^3
# Si number density = 24.751805 Si / 1000 Ang^3
#
#
#
# Elastic Constant Matrix: (Units=GPa)
#
#
# Indices 1 2 3 4 5 6 
#
# 1 177.7195 113.6488 54.2111 0.0000 0.0000 0.0000
# 2 113.6488 177.7192 54.2112 0.0000 0.0000 0.0000
# 3 54.2111 54.2112 87.6107 0.0000 0.0000 0.0000
# 4 0.0000 0.0000 0.0000 -14.9029 0.0000 0.0000
# 5 0.0000 0.0000 0.0000 0.0000 -14.9039 0.0000
# 6 0.0000 0.0000 0.0000 0.0000 0.0000 48.7846
#
#
#
# Elastic Compliance Matrix: (Units=1/GPa)
#
#
# Indices 1 2 3 4 5 6 
#
# 1 0.010033 -0.005575 -0.002759 0.000000 0.000000 0.000000
# 2 -0.005575 0.010033 -0.002759 0.000000 0.000000 0.000000
# 3 -0.002759 -0.002759 0.014828 0.000000 0.000000 0.000000
# 4 0.000000 0.000000 0.000000 -0.067101 0.000000 0.000000
# 5 0.000000 0.000000 0.000000 0.000000 -0.067096 0.000000
# 6 0.000000 0.000000 0.000000 0.000000 0.000000 0.020498
#
#
# Mechanical properties :
#
#
# Convention : Reuss Voigt Hill
#
# Bulk Modulus (GPa) = 78.67735 98.57683 88.62709
# Shear Modulus (GPa) = -95.45098 18.52745 -38.46176
#
# Velocity S-wave (km/s) = -6.21667 2.73889 -3.94623
# Velocity P-wave (km/s) = 4.43551 7.06503 3.88850
#
# Compressibility (1/GPa) = 0.01271014
#
# Stress axis : x y z
#
# Youngs Moduli (GPa) = 99.66859 99.66832 67.43797
#
# Poissons Ratio (x) = 0.55560 0.18606
# Poissons Ratio (y) = 0.55561 0.18606
# Poissons Ratio (z) = 0.27498 0.27498
#
# Static dielectric constant tensor:
#      x y z
#    x 2.030940 0.000000 0.000000 
#    y 0.000000 2.030940 0.000000 
#    z 0.000000 0.000000 1.981690 
# 
# From -- ./inp_files/2947.got.cif
#   From: 2010.05.17/outbox.cif.g08.bks.cpg/sg142_2_cif.got.tgz:2947.got - 2010.05.20 13:39:18.
