data_PCOD9573258
_publ_section_title
;
Structure prediction by ZEFSAII (Michael W. Deem and Ramdas Pophale) SiO2 
 PCOD9573258
Probable space group: I 41/A M D
;
_chemical_formula_sum "Si O2"
_cell_formula_units_Z 160
_cell_length_a 21.188417
_cell_length_b 21.188417
_cell_length_c 17.872163
_cell_angle_alpha 90.000000
_cell_angle_beta 90.000000
_cell_angle_gamma 90.000000
_cell_volume 8023.689974
_symmetry_space_group_name_H-M "I 41/A M D"
_symmetry_group_IT_number 141
_space_group.IT_coordinate_system_code '2'
_symmetry_cell_setting 'tetragonal'
loop_
_space_group_symop_operation_xyz
x,y,z
1/4-y,3/4+x,1/4+z
-x,1/2-y,z
1/4+y,1/4-x,3/4+z
x,-y,-z
-x,1/2+y,-z
1/4+y,3/4+x,1/4-z
1/4-y,1/4-x,3/4-z
-x,-y,-z
3/4+y,1/4-x,3/4-z
x,1/2+y,-z
3/4-y,3/4+x,1/4-z
-x,y,z
x,1/2-y,z
3/4-y,1/4-x,3/4+z
3/4+y,3/4+x,1/4+z
1/2+x,1/2+y,1/2+z
3/4-y,1/4+x,3/4+z
1/2-x,-y,1/2+z
3/4+y,3/4-x,1/4+z
1/2+x,1/2-y,1/2-z
1/2-x,y,1/2-z
3/4+y,1/4+x,3/4-z
3/4-y,3/4-x,1/4-z
1/2-x,1/2-y,1/2-z
1/4+y,3/4-x,1/4-z
1/2+x,y,1/2-z
1/4-y,1/4+x,3/4-z
1/2-x,1/2+y,1/2+z
1/2+x,-y,1/2+z
1/4-y,3/4-x,1/4+z
1/4+y,1/4+x,3/4+z
loop_
_atom_site_type_symbol
_atom_site_label
_atom_site_fract_x
_atom_site_fract_y
_atom_site_fract_z
Si Si1 0.187774 0.319896 0.489355
Si Si2 0.927981 0.177981 0.375000
Si Si3 0.138562 0.147874 0.648580
Si Si4 0.399813 0.750000 0.402656
Si Si5 0.000000 0.573104 0.015509
Si Si6 0.763168 0.557330 0.941094
Si Si7 0.922552 0.250000 0.077094
O O1 0.213916 0.250000 0.470380
O O2 0.124859 0.329279 0.438811
O O3 0.169337 0.320857 0.576187
O O4 0.232705 0.379194 0.474657
O O5 0.921974 0.250000 0.345420
O O6 0.147866 0.189883 0.722919
O O7 0.063554 0.147017 0.635876
O O8 0.171401 0.080981 0.660646
O O9 0.440087 0.809914 0.375000
O O10 0.337059 0.750000 0.353500
O O11 0.398344 0.750000 0.491355
O O12 0.000000 0.500000 0.000000
O O13 0.719069 0.530932 0.875000
O O14 0.769607 0.500000 0.000000
O O15 0.000000 0.250000 0.076702
#
# Coordination Sequence:
#
# PCOD9573258 Si02
#       7
#    32  16  32  16  16  32  16
#     4  11  23  43  69 100 138 172 230 292 342 414
#     4   9  20  38  64 100 132 176 218 268 347 406
#     4  12  25  43  67 101 135 178 226 285 351 413
#     4  11  18  40  67  90 128 174 218 282 346 411
#     4  12  25  43  60  95 135 178 230 280 341 418
#     4  12  26  49  70  94 135 192 236 282 341 412
#     4  12  22  42  72 103 135 169 224 293 362 410
#
# _framework density 19.940950000000001
#
# number of rings (size 3 to 8) (size 9 to 14) (size 15 to 20)
#    0.000    0.600    8.000    0.600    2.800    1.600 
#    3.600    0.000    0.000    4.800    0.000    0.000 
#    0.000    0.000    0.000    0.000    0.000    0.000 
#
# Total GULP energy -447073.552848 kJ/mol
# GULP energy per Si atom -5588.419411 kJ/mol
# Density = 1.989556 g / cm^3
# Si number density = 19.940950 Si / 1000 Ang^3
#
#
#
# Elastic Constant Matrix: (Units=GPa)
#
#
# Indices 1 2 3 4 5 6 
#
# 1 119.8431 52.9967 23.6359 0.0000 0.0000 0.0000
# 2 52.9967 119.8409 23.6368 0.0000 0.0000 0.0000
# 3 23.6359 23.6368 63.4982 0.0000 0.0000 0.0000
# 4 0.0000 0.0000 0.0000 8.5564 0.0000 0.0000
# 5 0.0000 0.0000 0.0000 0.0000 8.5542 0.0000
# 6 0.0000 0.0000 0.0000 0.0000 0.0000 48.5131
#
#
#
# Elastic Compliance Matrix: (Units=1/GPa)
#
#
# Indices 1 2 3 4 5 6 
#
# 1 0.010701 -0.004259 -0.002398 0.000000 0.000000 0.000000
# 2 -0.004259 0.010701 -0.002398 0.000000 0.000000 0.000000
# 3 -0.002398 -0.002398 0.017534 0.000000 0.000000 0.000000
# 4 0.000000 0.000000 0.000000 0.116872 0.000000 0.000000
# 5 0.000000 0.000000 0.000000 0.000000 0.116901 0.000000
# 6 0.000000 0.000000 0.000000 0.000000 0.000000 0.020613
#
#
# Mechanical properties :
#
#
# Convention : Reuss Voigt Hill
#
# Bulk Modulus (GPa) = 48.01796 55.96900 51.99348
# Shear Modulus (GPa) = 15.70488 26.65227 21.17857
#
# Velocity S-wave (km/s) = 2.80941 3.65986 3.26247
# Velocity P-wave (km/s) = 5.88694 6.78143 6.34995
#
# Compressibility (1/GPa) = 0.02082554
#
# Stress axis : x y z
#
# Youngs Moduli (GPa) = 93.45277 93.45026 57.03347
#
# Poissons Ratio (x) = 0.39802 0.13674
# Poissons Ratio (y) = 0.39803 0.13676
# Poissons Ratio (z) = 0.22406 0.22409
#
# Static dielectric constant tensor:
#      x y z
#    x 1.716600 0.000000 0.000000 
#    y 0.000000 1.716600 0.000000 
#    z 0.000000 0.000000 1.680900 
# 
# From -- ./inp_files/8730.got.cif
#   From: 2010.05.17/outbox.cif.g08.bks.cpg/sg141_5_cif.got.tgz:8730.got - 2010.05.20 13:30:51.
