data_PCOD9573473
_publ_section_title
;
Structure prediction by ZEFSAII (Michael W. Deem and Ramdas Pophale) SiO2 
 PCOD9573473
Probable space group: I 41/A C D
;
_chemical_formula_sum "Si O2"
_cell_formula_units_Z 176
_cell_length_a 29.003140
_cell_length_b 29.003140
_cell_length_c 11.199902
_cell_angle_alpha 90.000000
_cell_angle_beta 90.000000
_cell_angle_gamma 90.000000
_cell_volume 9421.157419
_symmetry_space_group_name_H-M "I 41/A C D"
_symmetry_group_IT_number 142
_space_group.IT_coordinate_system_code '2'
_symmetry_cell_setting 'tetragonal'
loop_
_space_group_symop_operation_xyz
x,y,z
1/4-y,3/4+x,1/4+z
-x,1/2-y,z
1/4+y,1/4-x,3/4+z
x,-y,1/2-z
1/2-x,y,-z
3/4+y,1/4+x,1/4-z
1/4-y,1/4-x,1/4-z
-x,-y,-z
3/4+y,1/4-x,3/4-z
x,1/2+y,-z
3/4-y,3/4+x,1/4-z
-x,y,1/2+z
1/2+x,-y,z
1/4-y,3/4-x,3/4+z
3/4+y,3/4+x,3/4+z
1/2+x,1/2+y,1/2+z
3/4-y,1/4+x,3/4+z
1/2-x,-y,1/2+z
3/4+y,3/4-x,1/4+z
1/2+x,1/2-y,-z
-x,1/2+y,1/2-z
1/4+y,3/4+x,3/4-z
3/4-y,3/4-x,3/4-z
1/2-x,1/2-y,1/2-z
1/4+y,3/4-x,1/4-z
1/2+x,y,1/2-z
1/4-y,1/4+x,3/4-z
1/2-x,1/2+y,z
x,1/2-y,1/2+z
3/4-y,1/4-x,1/4+z
1/4+y,1/4+x,1/4+z
loop_
_atom_site_type_symbol
_atom_site_label
_atom_site_fract_x
_atom_site_fract_y
_atom_site_fract_z
Si Si1 0.089137 0.912512 0.384115
Si Si2 0.442388 0.368731 0.157890
Si Si3 0.048325 0.617411 0.131173
Si Si4 0.619115 0.500000 0.750000
Si Si5 0.396149 0.948786 0.214142
Si Si6 0.637527 0.433489 0.552348
O O1 0.140692 0.890692 0.375000
O O2 0.059902 0.878247 0.299727
O O3 0.070581 0.909235 0.517775
O O4 0.089555 0.962862 0.325613
O O5 0.418468 0.320717 0.122569
O O6 0.493909 0.378084 0.117983
O O7 0.405631 0.404842 0.104679
O O8 0.065050 0.588712 0.247681
O O9 0.647216 0.472642 0.649174
O O10 0.350985 0.930123 0.284154
O O11 0.410205 0.000000 0.250000
O O12 0.380568 0.949275 0.076591
#
# Coordination Sequence:
#
# PCOD9573473 Si02
#       6
#    32  32  32  16  32  32
#     4   9  19  36  55  79 112 145 185 234 279 339
#     4   9  20  36  55  82 110 152 189 235 286 341
#     4  10  20  36  58  80 115 150 190 236 290 338
#     4  10  18  36  62  84 108 154 188 230 294 346
#     4  10  20  37  58  81 111 154 185 234 284 344
#     4   9  20  36  57  79 116 147 186 233 292 340
#
# _framework density 18.681356999999998
#
# number of rings (size 3 to 8) (size 9 to 14) (size 15 to 20)
#    0.000    2.545    0.000    2.182    2.545    0.364 
#    6.545    4.545   14.000    3.273    0.000    0.000 
#    0.000    0.000    0.000    0.000    0.000    0.000 
#
# Total GULP energy -490226.763277 kJ/mol
# GULP energy per Si atom -5570.758674 kJ/mol
# Density = 1.863884 g / cm^3
# Si number density = 18.681357 Si / 1000 Ang^3
#
#
#
# Elastic Constant Matrix: (Units=GPa)
#
#
# Indices 1 2 3 4 5 6 
#
# 1 131.4934 -35.7891 21.8534 0.0000 0.0000 0.0000
# 2 -35.7891 131.4934 21.8534 0.0000 0.0000 0.0000
# 3 21.8534 21.8534 91.1931 0.0000 0.0000 0.0000
# 4 0.0000 0.0000 0.0000 15.0524 0.0000 0.0000
# 5 0.0000 0.0000 0.0000 0.0000 15.0524 0.0000
# 6 0.0000 0.0000 0.0000 0.0000 0.0000 3.7736
#
#
#
# Elastic Compliance Matrix: (Units=1/GPa)
#
#
# Indices 1 2 3 4 5 6 
#
# 1 0.008855 0.002877 -0.002812 0.000000 0.000000 0.000000
# 2 0.002877 0.008855 -0.002812 0.000000 0.000000 0.000000
# 3 -0.002812 -0.002812 0.012313 0.000000 0.000000 0.000000
# 4 0.000000 0.000000 0.000000 0.066435 0.000000 0.000000
# 5 0.000000 0.000000 0.000000 0.000000 0.066435 0.000000
# 6 0.000000 0.000000 0.000000 0.000000 0.000000 0.264999
#
#
# Mechanical properties :
#
#
# Convention : Reuss Voigt Hill
#
# Bulk Modulus (GPa) = 40.76230 41.11281 40.93756
# Shear Modulus (GPa) = 11.32346 29.85983 20.59165
#
# Velocity S-wave (km/s) = 2.46466 4.00231 3.32363
# Velocity P-wave (km/s) = 5.47417 6.58886 6.05721
#
# Compressibility (1/GPa) = 0.02453247
#
# Stress axis : x y z
#
# Youngs Moduli (GPa) = 112.92543 112.92543 81.21298
#
# Poissons Ratio (x) = -0.32494 0.22834
# Poissons Ratio (y) = -0.32494 0.22834
# Poissons Ratio (z) = 0.31751 0.31751
#
# Static dielectric constant tensor:
#      x y z
#    x 1.656040 0.000000 0.000000 
#    y 0.000000 1.656040 0.000000 
#    z 0.000000 0.000000 1.703830 
# 
# From -- ./inp_files/3956.got.cif
#   From: 2010.05.17/outbox.cif.g08.bks.cpg/sg142_2_cif.got.tgz:3956.got - 2010.05.20 13:39:18.
