data_PCOD9573734
_publ_section_title
;
Structure prediction by ZEFSAII (Michael W. Deem and Ramdas Pophale) SiO2 
 PCOD9573734
Probable space group: I 41/A C D
;
_chemical_formula_sum "Si O2"
_cell_formula_units_Z 88
_cell_length_a 10.722149
_cell_length_b 10.722149
_cell_length_c 26.858274
_cell_angle_alpha 90.000000
_cell_angle_beta 90.000000
_cell_angle_gamma 90.000000
_cell_volume 3087.747482
_symmetry_space_group_name_H-M "I 41/A C D"
_symmetry_group_IT_number 142
_space_group.IT_coordinate_system_code '2'
_symmetry_cell_setting 'tetragonal'
loop_
_space_group_symop_operation_xyz
x,y,z
1/4-y,3/4+x,1/4+z
-x,1/2-y,z
1/4+y,1/4-x,3/4+z
x,-y,1/2-z
1/2-x,y,-z
3/4+y,1/4+x,1/4-z
1/4-y,1/4-x,1/4-z
-x,-y,-z
3/4+y,1/4-x,3/4-z
x,1/2+y,-z
3/4-y,3/4+x,1/4-z
-x,y,1/2+z
1/2+x,-y,z
1/4-y,3/4-x,3/4+z
3/4+y,3/4+x,3/4+z
1/2+x,1/2+y,1/2+z
3/4-y,1/4+x,3/4+z
1/2-x,-y,1/2+z
3/4+y,3/4-x,1/4+z
1/2+x,1/2-y,-z
-x,1/2+y,1/2-z
1/4+y,3/4+x,3/4-z
3/4-y,3/4-x,3/4-z
1/2-x,1/2-y,1/2-z
1/4+y,3/4-x,1/4-z
1/2+x,y,1/2-z
1/4-y,1/4+x,3/4-z
1/2-x,1/2+y,z
x,1/2-y,1/2+z
3/4-y,1/4-x,1/4+z
1/4+y,1/4+x,1/4+z
loop_
_atom_site_type_symbol
_atom_site_label
_atom_site_fract_x
_atom_site_fract_y
_atom_site_fract_z
Si Si1 0.500000 0.250000 0.695915
Si Si2 0.000000 0.750000 0.875000
Si Si3 0.610803 0.875690 0.710579
Si Si4 0.140079 0.486961 0.826720
O O1 0.596843 0.187746 0.735837
O O2 0.423454 0.147635 0.665897
O O3 0.889173 0.721437 0.835489
O O4 0.733437 0.956503 0.703001
O O5 0.477119 0.943725 0.699834
O O6 0.191970 0.558031 0.875000
#
# Coordination Sequence:
#
# PCOD9573734 Si02
#       4
#    16   8  32  32
#     4  11  28  49  83 122 179 242 316 378 464 554
#     4  10  20  44  72 108 162 224 290 370 428 534
#     4  11  25  49  80 120 174 239 307 375 468 543
#     4  12  27  50  84 130 179 236 307 386 466 556
#
# _framework density 28.499741
#
# number of rings (size 3 to 8) (size 9 to 14) (size 15 to 20)
#    0.000    0.727    3.636    2.182    0.000   14.545 
#    0.000    0.000    0.000    0.000    0.000    0.000 
#    0.000    0.000    0.000    0.000    0.000    0.000 
#
# Total GULP energy -246002.948953 kJ/mol
# GULP energy per Si atom -5590.976113 kJ/mol
# Density = 2.843487 g / cm^3
# Si number density = 28.499741 Si / 1000 Ang^3
#
#
#
# Elastic Constant Matrix: (Units=GPa)
#
#
# Indices 1 2 3 4 5 6 
#
# 1 191.2060 91.8359 69.0351 0.0000 0.0000 0.0000
# 2 91.8359 191.2068 69.0349 0.0000 0.0000 0.0000
# 3 69.0351 69.0349 142.9307 0.0000 0.0000 0.0000
# 4 0.0000 0.0000 0.0000 9.7735 0.0000 0.0000
# 5 0.0000 0.0000 0.0000 0.0000 9.7731 0.0000
# 6 0.0000 0.0000 0.0000 0.0000 0.0000 67.1322
#
#
#
# Elastic Compliance Matrix: (Units=1/GPa)
#
#
# Indices 1 2 3 4 5 6 
#
# 1 0.007343 -0.002721 -0.002232 0.000000 0.000000 0.000000
# 2 -0.002721 0.007343 -0.002232 0.000000 0.000000 0.000000
# 3 -0.002232 -0.002232 0.009153 0.000000 0.000000 0.000000
# 4 0.000000 0.000000 0.000000 0.102317 0.000000 0.000000
# 5 0.000000 0.000000 0.000000 0.000000 0.102322 0.000000
# 6 0.000000 0.000000 0.000000 0.000000 0.000000 0.014896
#
#
# Mechanical properties :
#
#
# Convention : Reuss Voigt Hill
#
# Bulk Modulus (GPa) = 105.62708 109.46171 107.54440
# Shear Modulus (GPa) = 19.16442 37.03159 28.09801
#
# Velocity S-wave (km/s) = 2.59596 3.60858 3.14332
# Velocity P-wave (km/s) = 6.79178 7.47354 7.14080
#
# Compressibility (1/GPa) = 0.00946727
#
# Stress axis : x y z
#
# Youngs Moduli (GPa) = 136.18935 136.19028 109.25490
#
# Poissons Ratio (x) = 0.37053 0.24391
# Poissons Ratio (y) = 0.37052 0.24390
# Poissons Ratio (z) = 0.30404 0.30403
#
# Static dielectric constant tensor:
#      x y z
#    x 2.435290 0.000000 0.000000 
#    y 0.000000 2.435290 0.000000 
#    z 0.000000 0.000000 2.310370 
# 
# From -- ./inp_files/11985.got.cif
#   From: 2010.05.17/outbox.cif.g08.bks.cpg/sg142_6_cif.got.tgz:11985.got - 2010.05.20 13:39:18.
