data_PCOD9573658
_publ_section_title
;
Structure prediction by ZEFSAII (Michael W. Deem and Ramdas Pophale) SiO2 
 PCOD9573658
Probable space group: I 41/A C D
;
_chemical_formula_sum "Si O2"
_cell_formula_units_Z 192
_cell_length_a 17.948056
_cell_length_b 17.948056
_cell_length_c 31.142814
_cell_angle_alpha 90.000000
_cell_angle_beta 90.000000
_cell_angle_gamma 90.000000
_cell_volume 10032.119201
_symmetry_space_group_name_H-M "I 41/A C D"
_symmetry_group_IT_number 142
_space_group.IT_coordinate_system_code '2'
_symmetry_cell_setting 'tetragonal'
loop_
_space_group_symop_operation_xyz
x,y,z
1/4-y,3/4+x,1/4+z
-x,1/2-y,z
1/4+y,1/4-x,3/4+z
x,-y,1/2-z
1/2-x,y,-z
3/4+y,1/4+x,1/4-z
1/4-y,1/4-x,1/4-z
-x,-y,-z
3/4+y,1/4-x,3/4-z
x,1/2+y,-z
3/4-y,3/4+x,1/4-z
-x,y,1/2+z
1/2+x,-y,z
1/4-y,3/4-x,3/4+z
3/4+y,3/4+x,3/4+z
1/2+x,1/2+y,1/2+z
3/4-y,1/4+x,3/4+z
1/2-x,-y,1/2+z
3/4+y,3/4-x,1/4+z
1/2+x,1/2-y,-z
-x,1/2+y,1/2-z
1/4+y,3/4+x,3/4-z
3/4-y,3/4-x,3/4-z
1/2-x,1/2-y,1/2-z
1/4+y,3/4-x,1/4-z
1/2+x,y,1/2-z
1/4-y,1/4+x,3/4-z
1/2-x,1/2+y,z
x,1/2-y,1/2+z
3/4-y,1/4-x,1/4+z
1/4+y,1/4+x,1/4+z
loop_
_atom_site_type_symbol
_atom_site_label
_atom_site_fract_x
_atom_site_fract_y
_atom_site_fract_z
Si Si1 0.365232 0.713407 0.206501
Si Si2 0.971854 0.053222 0.919771
Si Si3 0.373001 0.932903 0.466353
Si Si4 0.534438 0.000000 0.750000
Si Si5 0.383764 0.899077 0.997334
Si Si6 0.397255 0.852746 0.625000
Si Si7 0.421993 0.011427 0.670639
O O1 0.281275 0.714839 0.187602
O O2 0.365071 0.647621 0.241745
O O3 0.377562 0.791249 0.229230
O O4 0.412445 0.701757 0.164303
O O5 0.955959 0.057633 0.869506
O O6 0.055251 0.073792 0.934852
O O7 0.908856 0.094167 0.947753
O O8 0.302230 0.898594 0.442459
O O9 0.364825 0.018618 0.482823
O O10 0.589500 0.070009 0.752944
O O11 0.482755 0.003142 0.707953
O O12 0.316938 0.848240 0.601635
#
# Coordination Sequence:
#
# PCOD9573658 Si02
#       7
#    32  32  32  16  32  16  32
#     4   8  16  36  61  84 114 160 199 240 302 362
#     4   8  18  37  61  83 118 156 203 245 298 367
#     4   9  18  38  64  85 116 162 208 239 304 374
#     4  12  26  38  58  94 134 144 202 278 312 338
#     4   9  20  40  63  85 114 164 200 251 307 367
#     4  10  20  38  61  86 122 160 200 245 296 370
#     4  11  23  37  58  93 125 157 200 260 301 358
#
# _framework density 19.138528999999998
#
# number of rings (size 3 to 8) (size 9 to 14) (size 15 to 20)
#    0.000    2.667    0.000    3.000    2.333    4.667 
#    0.000   15.000    0.000    0.000    0.000    0.000 
#    0.000    0.000    0.000    0.000    0.000    0.000 
#
# Total GULP energy -535105.963129 kJ/mol
# GULP energy per Si atom -5574.020449 kJ/mol
# Density = 1.909497 g / cm^3
# Si number density = 19.138529 Si / 1000 Ang^3
#
#
#
# Elastic Constant Matrix: (Units=GPa)
#
#
# Indices 1 2 3 4 5 6 
#
# 1 59.3471 41.8369 54.5842 0.0000 0.0000 0.0000
# 2 41.8369 59.3477 54.5845 0.0000 0.0000 0.0000
# 3 54.5842 54.5845 177.2754 0.0000 0.0000 0.0000
# 4 0.0000 0.0000 0.0000 23.7737 0.0000 0.0000
# 5 0.0000 0.0000 0.0000 0.0000 23.7736 0.0000
# 6 0.0000 0.0000 0.0000 0.0000 0.0000 -7.7835
#
#
#
# Elastic Compliance Matrix: (Units=1/GPa)
#
#
# Indices 1 2 3 4 5 6 
#
# 1 0.035954 -0.021155 -0.004557 0.000000 0.000000 0.000000
# 2 -0.021155 0.035954 -0.004557 0.000000 0.000000 0.000000
# 3 -0.004557 -0.004557 0.008447 0.000000 0.000000 0.000000
# 4 0.000000 0.000000 0.000000 0.042063 0.000000 0.000000
# 5 0.000000 0.000000 0.000000 0.000000 0.042064 0.000000
# 6 0.000000 0.000000 0.000000 0.000000 0.000000 -0.128477
#
#
# Mechanical properties :
#
#
# Convention : Reuss Voigt Hill
#
# Bulk Modulus (GPa) = 50.45786 66.44236 58.45011
# Shear Modulus (GPa) = 48.47431 17.61706 33.04569
#
# Velocity S-wave (km/s) = 5.03817 3.03727 4.15981
# Velocity P-wave (km/s) = 7.76311 6.86236 7.32659
#
# Compressibility (1/GPa) = 0.01981852
#
# Stress axis : x y z
#
# Youngs Moduli (GPa) = 27.81317 27.81346 118.38379
#
# Poissons Ratio (x) = 0.58838 0.53946
# Poissons Ratio (y) = 0.58838 0.53945
# Poissons Ratio (z) = 0.12674 0.12674
#
# Static dielectric constant tensor:
#      x y z
#    x 1.692000 0.000000 0.000000 
#    y 0.000000 1.692000 0.000000 
#    z 0.000000 0.000000 1.665520 
# 
# From -- ./inp_files/12613.got.cif
#   From: 2010.05.17/outbox.cif.g08.bks.cpg/sg142_7_cif.got.tgz:12613.got - 2010.05.20 13:39:18.
