data_PCOD9573660
_publ_section_title
;
Structure prediction by ZEFSAII (Michael W. Deem and Ramdas Pophale) SiO2 
 PCOD9573660
Probable space group: I 41/A C D
;
_chemical_formula_sum "Si O2"
_cell_formula_units_Z 104
_cell_length_a 22.171529
_cell_length_b 22.171529
_cell_length_c 10.877558
_cell_angle_alpha 90.000000
_cell_angle_beta 90.000000
_cell_angle_gamma 90.000000
_cell_volume 5347.154046
_symmetry_space_group_name_H-M "I 41/A C D"
_symmetry_group_IT_number 142
_space_group.IT_coordinate_system_code '2'
_symmetry_cell_setting 'tetragonal'
loop_
_space_group_symop_operation_xyz
x,y,z
1/4-y,3/4+x,1/4+z
-x,1/2-y,z
1/4+y,1/4-x,3/4+z
x,-y,1/2-z
1/2-x,y,-z
3/4+y,1/4+x,1/4-z
1/4-y,1/4-x,1/4-z
-x,-y,-z
3/4+y,1/4-x,3/4-z
x,1/2+y,-z
3/4-y,3/4+x,1/4-z
-x,y,1/2+z
1/2+x,-y,z
1/4-y,3/4-x,3/4+z
3/4+y,3/4+x,3/4+z
1/2+x,1/2+y,1/2+z
3/4-y,1/4+x,3/4+z
1/2-x,-y,1/2+z
3/4+y,3/4-x,1/4+z
1/2+x,1/2-y,-z
-x,1/2+y,1/2-z
1/4+y,3/4+x,3/4-z
3/4-y,3/4-x,3/4-z
1/2-x,1/2-y,1/2-z
1/4+y,3/4-x,1/4-z
1/2+x,y,1/2-z
1/4-y,1/4+x,3/4-z
1/2-x,1/2+y,z
x,1/2-y,1/2+z
3/4-y,1/4-x,1/4+z
1/4+y,1/4+x,1/4+z
loop_
_atom_site_type_symbol
_atom_site_label
_atom_site_fract_x
_atom_site_fract_y
_atom_site_fract_z
Si Si1 0.071492 0.018746 0.383295
Si Si2 0.088513 0.154280 0.479291
Si Si3 0.217280 0.180974 0.382843
Si Si4 0.500000 0.750000 0.875000
O O1 0.079009 0.088694 0.419239
O O2 0.999285 0.007418 0.374883
O O3 0.096507 0.000000 0.250000
O O4 0.096307 0.981276 0.499508
O O5 0.100124 0.149877 0.625000
O O6 0.147265 0.182061 0.414534
O O7 0.032644 0.198587 0.454971
O O8 0.250000 0.150873 0.500000
#
# Coordination Sequence:
#
# PCOD9573660 Si02
#       4
#    32  32  32   8
#     4  10  22  38  61  91 121 166 218 253 301 377
#     4  12  23  41  63  90 136 166 204 266 318 382
#     4  10  20  38  62  86 119 168 213 247 306 378
#     4  12  26  36  56 106 132 166 200 252 338 378
#
# _framework density 19.449598000000002
#
# number of rings (size 3 to 8) (size 9 to 14) (size 15 to 20)
#    0.000    1.231    6.154    0.462    0.000    1.231 
#    5.538    0.000    0.000    5.538    0.000    0.000 
#    0.000    0.000    0.000    0.000    0.000    0.000 
#
# Total GULP energy -289939.706654 kJ/mol
# GULP energy per Si atom -5575.763589 kJ/mol
# Density = 1.940533 g / cm^3
# Si number density = 19.449598 Si / 1000 Ang^3
#
#
#
# Elastic Constant Matrix: (Units=GPa)
#
#
# Indices 1 2 3 4 5 6 
#
# 1 61.6384 -1.7355 48.3707 0.0000 0.0000 0.0000
# 2 -1.7355 61.6378 48.3707 0.0000 0.0000 0.0000
# 3 48.3707 48.3707 221.9270 0.0000 0.0000 0.0000
# 4 0.0000 0.0000 0.0000 18.7679 0.0000 0.0000
# 5 0.0000 0.0000 0.0000 0.0000 18.7678 0.0000
# 6 0.0000 0.0000 0.0000 0.0000 0.0000 12.4966
#
#
#
# Elastic Compliance Matrix: (Units=1/GPa)
#
#
# Indices 1 2 3 4 5 6 
#
# 1 0.020771 0.004991 -0.005615 0.000000 0.000000 0.000000
# 2 0.004991 0.020771 -0.005615 0.000000 0.000000 0.000000
# 3 -0.005615 -0.005615 0.006954 0.000000 0.000000 0.000000
# 4 0.000000 0.000000 0.000000 0.053283 0.000000 0.000000
# 5 0.000000 0.000000 0.000000 0.000000 0.053283 0.000000
# 6 0.000000 0.000000 0.000000 0.000000 0.000000 0.080022
#
#
# Mechanical properties :
#
#
# Convention : Reuss Voigt Hill
#
# Bulk Modulus (GPa) = 27.76434 59.46834 43.61634
# Shear Modulus (GPa) = 19.26297 26.68628 22.97462
#
# Velocity S-wave (km/s) = 3.15048 3.70817 3.44064
# Velocity P-wave (km/s) = 5.24786 6.99829 6.18531
#
# Compressibility (1/GPa) = 0.03601742
#
# Stress axis : x y z
#
# Youngs Moduli (GPa) = 48.14509 48.14454 143.80922
#
# Poissons Ratio (x) = -0.24030 0.80749
# Poissons Ratio (y) = -0.24030 0.80749
# Poissons Ratio (z) = 0.27033 0.27033
#
# Static dielectric constant tensor:
#      x y z
#    x 1.675100 0.000000 0.000000 
#    y 0.000000 1.675100 0.000000 
#    z 0.000000 0.000000 1.740310 
# 
# From -- ./inp_files/1804.got.cif
#   From: 2010.05.17/outbox.cif.g08.bks.cpg/sg142_1_cif.got.tgz:1804.got - 2010.05.20 13:39:18.
