data_PCOD9573688
_publ_section_title
;
Structure prediction by ZEFSAII (Michael W. Deem and Ramdas Pophale) SiO2 
 PCOD9573688
Probable space group: I 41/A C D
;
_chemical_formula_sum "Si O2"
_cell_formula_units_Z 112
_cell_length_a 13.275078
_cell_length_b 13.275078
_cell_length_c 28.360247
_cell_angle_alpha 90.000000
_cell_angle_beta 90.000000
_cell_angle_gamma 90.000000
_cell_volume 4997.860984
_symmetry_space_group_name_H-M "I 41/A C D"
_symmetry_group_IT_number 142
_space_group.IT_coordinate_system_code '2'
_symmetry_cell_setting 'tetragonal'
loop_
_space_group_symop_operation_xyz
x,y,z
1/4-y,3/4+x,1/4+z
-x,1/2-y,z
1/4+y,1/4-x,3/4+z
x,-y,1/2-z
1/2-x,y,-z
3/4+y,1/4+x,1/4-z
1/4-y,1/4-x,1/4-z
-x,-y,-z
3/4+y,1/4-x,3/4-z
x,1/2+y,-z
3/4-y,3/4+x,1/4-z
-x,y,1/2+z
1/2+x,-y,z
1/4-y,3/4-x,3/4+z
3/4+y,3/4+x,3/4+z
1/2+x,1/2+y,1/2+z
3/4-y,1/4+x,3/4+z
1/2-x,-y,1/2+z
3/4+y,3/4-x,1/4+z
1/2+x,1/2-y,-z
-x,1/2+y,1/2-z
1/4+y,3/4+x,3/4-z
3/4-y,3/4-x,3/4-z
1/2-x,1/2-y,1/2-z
1/4+y,3/4-x,1/4-z
1/2+x,y,1/2-z
1/4-y,1/4+x,3/4-z
1/2-x,1/2+y,z
x,1/2-y,1/2+z
3/4-y,1/4-x,1/4+z
1/4+y,1/4+x,1/4+z
loop_
_atom_site_type_symbol
_atom_site_label
_atom_site_fract_x
_atom_site_fract_y
_atom_site_fract_z
Si Si1 0.520825 0.634910 0.282840
Si Si2 0.139062 0.110939 0.625000
Si Si3 0.316298 0.302134 0.429413
Si Si4 0.214442 0.483856 0.948632
O O1 0.500000 0.750000 0.294210
O O2 0.493995 0.613999 0.227813
O O3 0.456613 0.554562 0.312839
O O4 0.636068 0.604775 0.293799
O O5 0.154908 0.227037 0.612251
O O6 0.199241 0.061389 0.668644
O O7 0.339579 0.419786 0.426657
O O8 0.250000 0.517137 0.000000
#
# Coordination Sequence:
#
# PCOD9573688 Si02
#       4
#    32  16  32  32
#     4  10  20  39  71 101 136 193 242 293 370 440
#     4  10  22  44  67  99 148 190 244 304 368 431
#     4  10  21  43  65  99 145 187 236 301 367 435
#     4  11  20  44  72  99 147 194 241 302 369 445
#
# _framework density 22.409586000000001
#
# number of rings (size 3 to 8) (size 9 to 14) (size 15 to 20)
#    0.000    1.714    8.571    0.000    0.000    1.143 
#   15.429    0.000    0.000    0.000    0.000    0.000 
#    0.000    0.000    0.000    0.000    0.000    0.000 
#
# Total GULP energy -313079.320945 kJ/mol
# GULP energy per Si atom -5590.702160 kJ/mol
# Density = 2.235858 g / cm^3
# Si number density = 22.409586 Si / 1000 Ang^3
#
#
#
# Elastic Constant Matrix: (Units=GPa)
#
#
# Indices 1 2 3 4 5 6 
#
# 1 147.6763 34.8990 20.0239 0.0000 0.0000 0.0000
# 2 34.8990 147.6776 20.0235 0.0000 0.0000 0.0000
# 3 20.0239 20.0235 70.7217 0.0000 0.0000 0.0000
# 4 0.0000 0.0000 0.0000 7.7891 0.0000 0.0000
# 5 0.0000 0.0000 0.0000 0.0000 7.7901 0.0000
# 6 0.0000 0.0000 0.0000 0.0000 0.0000 11.1927
#
#
#
# Elastic Compliance Matrix: (Units=1/GPa)
#
#
# Indices 1 2 3 4 5 6 
#
# 1 0.007353 -0.001514 -0.001653 0.000000 0.000000 0.000000
# 2 -0.001514 0.007353 -0.001653 0.000000 0.000000 0.000000
# 3 -0.001653 -0.001653 0.015076 0.000000 0.000000 0.000000
# 4 0.000000 0.000000 0.000000 0.128384 0.000000 0.000000
# 5 0.000000 0.000000 0.000000 0.000000 0.128368 0.000000
# 6 0.000000 0.000000 0.000000 0.000000 0.000000 0.089344
#
#
# Mechanical properties :
#
#
# Convention : Reuss Voigt Hill
#
# Bulk Modulus (GPa) = 49.64723 57.32980 53.48852
# Shear Modulus (GPa) = 12.74749 24.76300 18.75525
#
# Velocity S-wave (km/s) = 2.38763 3.32779 2.89611
# Velocity P-wave (km/s) = 5.45926 6.35640 5.92484
#
# Compressibility (1/GPa) = 0.02014211
#
# Stress axis : x y z
#
# Youngs Moduli (GPa) = 135.99050 135.99197 66.32955
#
# Poissons Ratio (x) = 0.20583 0.10968
# Poissons Ratio (y) = 0.20583 0.10967
# Poissons Ratio (z) = 0.22486 0.22485
#
# Static dielectric constant tensor:
#      x y z
#    x 1.832040 0.000000 0.000000 
#    y 0.000000 1.832040 0.000000 
#    z 0.000000 0.000000 1.856280 
# 
# From -- ./inp_files/11087.got.cif
#   From: 2010.05.17/outbox.cif.g08.bks.cpg/sg142_6_cif.got.tgz:11087.got - 2010.05.20 13:39:18.
