data_PCOD9573862
_publ_section_title
;
Structure prediction by ZEFSAII (Michael W. Deem and Ramdas Pophale) SiO2 
 PCOD9573862
Probable space group: I 41/A C D
;
_chemical_formula_sum "Si O2"
_cell_formula_units_Z 176
_cell_length_a 26.596432
_cell_length_b 26.596432
_cell_length_c 12.789379
_cell_angle_alpha 90.000000
_cell_angle_beta 90.000000
_cell_angle_gamma 90.000000
_cell_volume 9046.825519
_symmetry_space_group_name_H-M "I 41/A C D"
_symmetry_group_IT_number 142
_space_group.IT_coordinate_system_code '2'
_symmetry_cell_setting 'tetragonal'
loop_
_space_group_symop_operation_xyz
x,y,z
1/4-y,3/4+x,1/4+z
-x,1/2-y,z
1/4+y,1/4-x,3/4+z
x,-y,1/2-z
1/2-x,y,-z
3/4+y,1/4+x,1/4-z
1/4-y,1/4-x,1/4-z
-x,-y,-z
3/4+y,1/4-x,3/4-z
x,1/2+y,-z
3/4-y,3/4+x,1/4-z
-x,y,1/2+z
1/2+x,-y,z
1/4-y,3/4-x,3/4+z
3/4+y,3/4+x,3/4+z
1/2+x,1/2+y,1/2+z
3/4-y,1/4+x,3/4+z
1/2-x,-y,1/2+z
3/4+y,3/4-x,1/4+z
1/2+x,1/2-y,-z
-x,1/2+y,1/2-z
1/4+y,3/4+x,3/4-z
3/4-y,3/4-x,3/4-z
1/2-x,1/2-y,1/2-z
1/4+y,3/4-x,1/4-z
1/2+x,y,1/2-z
1/4-y,1/4+x,3/4-z
1/2-x,1/2+y,z
x,1/2-y,1/2+z
3/4-y,1/4-x,1/4+z
1/4+y,1/4+x,1/4+z
loop_
_atom_site_type_symbol
_atom_site_label
_atom_site_fract_x
_atom_site_fract_y
_atom_site_fract_z
Si Si1 0.269030 0.299552 0.688300
Si Si2 0.917473 0.865970 0.127378
Si Si3 0.826511 0.105534 0.235297
Si Si4 0.476652 0.886150 0.796634
Si Si5 0.416062 0.588782 0.098467
Si Si6 0.750000 0.482819 0.500000
O O1 0.250000 0.250000 0.750000
O O2 0.293901 0.343518 0.758110
O O3 0.310172 0.282998 0.602923
O O4 0.220322 0.326780 0.640886
O O5 0.867647 0.891208 0.173652
O O6 0.903643 0.807894 0.108651
O O7 0.965326 0.873204 0.199526
O O8 0.928931 0.892904 0.017492
O O9 0.796477 0.053260 0.244642
O O10 0.854292 0.104292 0.125000
O O11 0.454127 0.887340 0.681231
O O12 0.361162 0.611162 0.125000
O O13 0.746206 0.503795 0.625000
#
# Coordination Sequence:
#
# PCOD9573862 Si02
#       6
#    32  32  32  32  32  16
#     4  11  22  40  65  95 126 164 226 270 328 397
#     4  10  22  40  62  90 130 162 213 272 317 395
#     4  10  25  42  64  97 129 175 223 272 343 406
#     4  10  22  39  62  94 123 168 213 264 331 390
#     4  10  22  40  62  91 125 165 209 268 331 383
#     4  10  24  46  64  94 134 176 228 270 346 422
#
# _framework density 19.454338
#
# number of rings (size 3 to 8) (size 9 to 14) (size 15 to 20)
#    0.000    1.818    1.818    0.545    7.636    1.091 
#    6.545    0.000    0.000    3.273    0.000    0.000 
#    0.000    0.000    0.000    0.000    0.000    0.000 
#
# Total GULP energy -490342.792777 kJ/mol
# GULP energy per Si atom -5572.077191 kJ/mol
# Density = 1.941006 g / cm^3
# Si number density = 19.454338 Si / 1000 Ang^3
#
#
#
# Elastic Constant Matrix: (Units=GPa)
#
#
# Indices 1 2 3 4 5 6 
#
# 1 73.9740 78.5196 29.5470 0.0000 0.0000 0.0000
# 2 78.5196 73.9743 29.5466 0.0000 0.0000 0.0000
# 3 29.5470 29.5466 94.5505 0.0000 0.0000 0.0000
# 4 0.0000 0.0000 0.0000 19.2139 0.0000 0.0000
# 5 0.0000 0.0000 0.0000 0.0000 19.2138 0.0000
# 6 0.0000 0.0000 0.0000 0.0000 0.0000 17.9981
#
#
#
# Elastic Compliance Matrix: (Units=1/GPa)
#
#
# Indices 1 2 3 4 5 6 
#
# 1 -0.106270 0.113731 -0.002331 0.000000 0.000000 0.000000
# 2 0.113731 -0.106269 -0.002332 0.000000 0.000000 0.000000
# 3 -0.002331 -0.002332 0.012034 0.000000 0.000000 0.000000
# 4 0.000000 0.000000 0.000000 0.052046 0.000000 0.000000
# 5 0.000000 0.000000 0.000000 0.000000 0.052046 0.000000
# 6 0.000000 0.000000 0.000000 0.000000 0.000000 0.055561
#
#
# Mechanical properties :
#
#
# Convention : Reuss Voigt Hill
#
# Bulk Modulus (GPa) = 56.72293 57.52502 57.12397
# Shear Modulus (GPa) = -19.75418 18.27754 -0.73832
#
# Velocity S-wave (km/s) = -3.19001 3.06847 -0.61672
# Velocity P-wave (km/s) = 3.95626 6.49519 5.37771
#
# Compressibility (1/GPa) = 0.01762956
#
# Stress axis : x y z
#
# Youngs Moduli (GPa) = -9.40999 -9.41008 83.10066
#
# Poissons Ratio (x) = 1.07021 0.19371
# Poissons Ratio (y) = 1.07021 0.19381
# Poissons Ratio (z) = -0.02193 -0.02195
#
# Static dielectric constant tensor:
#      x y z
#    x 1.673190 0.000000 0.000000 
#    y 0.000000 1.673190 0.000000 
#    z 0.000000 0.000000 1.719600 
# 
# From -- ./inp_files/4000.got.cif
#   From: 2010.05.17/outbox.cif.g08.bks.cpg/sg142_2_cif.got.tgz:4000.got - 2010.05.20 13:39:18.
