data_PCOD9573120
_publ_section_title
;
Structure prediction by ZEFSAII (Michael W. Deem and Ramdas Pophale) SiO2 
 PCOD9573120
Probable space group: I 41/A M D
;
_chemical_formula_sum "Si O2"
_cell_formula_units_Z 240
_cell_length_a 28.473988
_cell_length_b 28.473988
_cell_length_c 16.179738
_cell_angle_alpha 90.000000
_cell_angle_beta 90.000000
_cell_angle_gamma 90.000000
_cell_volume 13118.013699
_symmetry_space_group_name_H-M "I 41/A M D"
_symmetry_group_IT_number 141
_space_group.IT_coordinate_system_code '2'
_symmetry_cell_setting 'tetragonal'
loop_
_space_group_symop_operation_xyz
x,y,z
1/4-y,3/4+x,1/4+z
-x,1/2-y,z
1/4+y,1/4-x,3/4+z
x,-y,-z
-x,1/2+y,-z
1/4+y,3/4+x,1/4-z
1/4-y,1/4-x,3/4-z
-x,-y,-z
3/4+y,1/4-x,3/4-z
x,1/2+y,-z
3/4-y,3/4+x,1/4-z
-x,y,z
x,1/2-y,z
3/4-y,1/4-x,3/4+z
3/4+y,3/4+x,1/4+z
1/2+x,1/2+y,1/2+z
3/4-y,1/4+x,3/4+z
1/2-x,-y,1/2+z
3/4+y,3/4-x,1/4+z
1/2+x,1/2-y,1/2-z
1/2-x,y,1/2-z
3/4+y,1/4+x,3/4-z
3/4-y,3/4-x,1/4-z
1/2-x,1/2-y,1/2-z
1/4+y,3/4-x,1/4-z
1/2+x,y,1/2-z
1/4-y,1/4+x,3/4-z
1/2-x,1/2+y,1/2+z
1/2+x,-y,1/2+z
1/4-y,3/4-x,1/4+z
1/4+y,1/4+x,3/4+z
loop_
_atom_site_type_symbol
_atom_site_label
_atom_site_fract_x
_atom_site_fract_y
_atom_site_fract_z
Si Si1 0.771556 0.305930 0.338397
Si Si2 0.794190 0.145499 0.028425
Si Si3 0.683862 0.806182 0.185072
Si Si4 0.874554 0.875831 0.838460
Si Si5 0.118566 0.306511 0.312911
Si Si6 0.734677 0.484677 0.125000
Si Si7 0.056250 0.960590 0.113873
Si Si8 0.219176 0.925305 0.466826
O O1 0.763090 0.250000 0.342384
O O2 0.750000 0.322545 0.250000
O O3 0.744849 0.329875 0.413734
O O4 0.827358 0.313621 0.342213
O O5 0.836499 0.134815 0.090306
O O6 0.809065 0.176887 0.950669
O O7 0.766844 0.102736 0.985084
O O8 0.681980 0.750000 0.183728
O O9 0.642353 0.828272 0.133184
O O10 0.734502 0.820354 0.146597
O O11 0.684741 0.822632 0.280504
O O12 0.882423 0.833142 0.775418
O O13 0.855242 0.922404 0.792259
O O14 0.110574 0.250000 0.307470
O O15 0.082496 0.332496 0.375000
O O16 0.789827 0.475406 0.139133
O O17 0.707823 0.464476 0.203129
O O18 0.000000 0.960195 0.111890
#
# Coordination Sequence:
#
# PCOD9573120 Si02
#       8
#    32  32  32  32  32  16  32  32
#     4  10  21  39  62  88 122 158 200 260 316 366
#     4  12  22  35  59  90 121 157 207 259 306 366
#     4   9  20  40  60  85 118 158 205 254 310 374
#     4  12  24  38  64  93 120 161 210 262 317 375
#     4  11  26  45  66  93 130 170 213 265 323 387
#     4  10  24  40  52  70 120 170 213 236 288 357
#     4   9  19  37  61  85 118 155 196 253 311 365
#     4  11  23  38  53  80 114 169 207 250 291 363
#
# _framework density 18.295452999999998
#
# number of rings (size 3 to 8) (size 9 to 14) (size 15 to 20)
#    0.000    1.467    4.000    2.000    2.800    2.800 
#    0.000    0.000    0.000    0.000    0.000    0.000 
#    0.000    1.067    0.000    0.000    0.000    0.000 
#
# Total GULP energy -669664.461987 kJ/mol
# GULP energy per Si atom -5580.537183 kJ/mol
# Density = 1.825381 g / cm^3
# Si number density = 18.295453 Si / 1000 Ang^3
#
#
#
# Elastic Constant Matrix: (Units=GPa)
#
#
# Indices 1 2 3 4 5 6 
#
# 1 68.0484 36.3194 40.8039 0.0000 0.0000 0.0000
# 2 36.3194 68.0484 40.8039 0.0000 0.0000 0.0000
# 3 40.8039 40.8039 107.1469 0.0000 0.0000 0.0000
# 4 0.0000 0.0000 0.0000 26.2224 0.0000 0.0000
# 5 0.0000 0.0000 0.0000 0.0000 26.2224 0.0000
# 6 0.0000 0.0000 0.0000 0.0000 0.0000 20.7556
#
#
#
# Elastic Compliance Matrix: (Units=1/GPa)
#
#
# Indices 1 2 3 4 5 6 
#
# 1 0.022581 -0.008936 -0.005196 0.000000 0.000000 0.000000
# 2 -0.008936 0.022581 -0.005196 0.000000 0.000000 0.000000
# 3 -0.005196 -0.005196 0.013291 0.000000 0.000000 0.000000
# 4 0.000000 0.000000 0.000000 0.038135 0.000000 0.000000
# 5 0.000000 0.000000 0.000000 0.000000 0.038135 0.000000
# 6 0.000000 0.000000 0.000000 0.000000 0.000000 0.048180
#
#
# Mechanical properties :
#
#
# Convention : Reuss Voigt Hill
#
# Bulk Modulus (GPa) = 50.51770 53.23315 51.87543
# Shear Modulus (GPa) = 21.91465 22.99449 22.45457
#
# Velocity S-wave (km/s) = 3.46471 3.54904 3.50713
# Velocity P-wave (km/s) = 6.60891 6.77892 6.69446
#
# Compressibility (1/GPa) = 0.01979504
#
# Stress axis : x y z
#
# Youngs Moduli (GPa) = 44.28560 44.28560 75.24131
#
# Poissons Ratio (x) = 0.39575 0.39096
# Poissons Ratio (y) = 0.39575 0.39096
# Poissons Ratio (z) = 0.23011 0.23011
#
# Static dielectric constant tensor:
#      x y z
#    x 1.637710 0.000000 0.000000 
#    y 0.000000 1.637710 0.000000 
#    z 0.000000 0.000000 1.658690 
# 
# From -- ./inp_files/7054.got.cif
#   From: 2010.05.17/outbox.cif.g08.bks.cpg/sg141_4_cif.got.tgz:7054.got - 2010.05.20 13:30:51.
