data_PCOD9573069
_publ_section_title
;
Structure prediction by ZEFSAII (Michael W. Deem and Ramdas Pophale) SiO2 
 PCOD9573069
Probable space group: I 41/A M D
;
_chemical_formula_sum "Si O2"
_cell_formula_units_Z 112
_cell_length_a 18.288222
_cell_length_b 18.288222
_cell_length_c 18.523519
_cell_angle_alpha 90.000000
_cell_angle_beta 90.000000
_cell_angle_gamma 90.000000
_cell_volume 6195.358825
_symmetry_space_group_name_H-M "I 41/A M D"
_symmetry_group_IT_number 141
_space_group.IT_coordinate_system_code '2'
_symmetry_cell_setting 'tetragonal'
loop_
_space_group_symop_operation_xyz
x,y,z
1/4-y,3/4+x,1/4+z
-x,1/2-y,z
1/4+y,1/4-x,3/4+z
x,-y,-z
-x,1/2+y,-z
1/4+y,3/4+x,1/4-z
1/4-y,1/4-x,3/4-z
-x,-y,-z
3/4+y,1/4-x,3/4-z
x,1/2+y,-z
3/4-y,3/4+x,1/4-z
-x,y,z
x,1/2-y,z
3/4-y,1/4-x,3/4+z
3/4+y,3/4+x,1/4+z
1/2+x,1/2+y,1/2+z
3/4-y,1/4+x,3/4+z
1/2-x,-y,1/2+z
3/4+y,3/4-x,1/4+z
1/2+x,1/2-y,1/2-z
1/2-x,y,1/2-z
3/4+y,1/4+x,3/4-z
3/4-y,3/4-x,1/4-z
1/2-x,1/2-y,1/2-z
1/4+y,3/4-x,1/4-z
1/2+x,y,1/2-z
1/4-y,1/4+x,3/4-z
1/2-x,1/2+y,1/2+z
1/2+x,-y,1/2+z
1/4-y,3/4-x,1/4+z
1/4+y,1/4+x,3/4+z
loop_
_atom_site_type_symbol
_atom_site_label
_atom_site_fract_x
_atom_site_fract_y
_atom_site_fract_z
Si Si1 0.834641 0.162087 0.229888
Si Si2 0.913492 0.663492 0.625000
Si Si3 0.413600 0.413862 0.563519
Si Si4 0.330927 0.660797 0.153063
O O1 0.844735 0.250000 0.219833
O O2 0.750000 0.149606 0.250000
O O3 0.878146 0.136985 0.301082
O O4 0.866961 0.120827 0.160359
O O5 0.900397 0.750000 0.621043
O O6 0.500000 0.419275 0.555926
O O7 0.391362 0.358639 0.625000
O O8 0.388489 0.391594 0.483292
O O9 0.391188 0.494845 0.590194
O O10 0.338418 0.750000 0.142812
#
# Coordination Sequence:
#
# PCOD9573069 Si02
#       4
#    32  16  32  32
#     4  10  21  36  54  80 110 139 181 231 270 315
#     4   9  18  34  54  74 102 142 180 216 267 322
#     4   9  19  36  56  80 110 142 179 223 269 321
#     4   9  19  37  56  76 109 148 180 216 269 328
#
# _framework density 18.078049
#
# number of rings (size 3 to 8) (size 9 to 14) (size 15 to 20)
#    0.000    2.714    0.000    2.571    0.000    5.429 
#    7.714    8.571    0.000    0.000    0.000    0.000 
#    0.000    0.000    0.000    0.000    0.000    0.000 
#
# Total GULP energy -311859.362566 kJ/mol
# GULP energy per Si atom -5568.917189 kJ/mol
# Density = 1.803690 g / cm^3
# Si number density = 18.078049 Si / 1000 Ang^3
#
#
#
# Elastic Constant Matrix: (Units=GPa)
#
#
# Indices 1 2 3 4 5 6 
#
# 1 199.8770 -131.7758 66.2927 0.0000 0.0000 0.0000
# 2 -131.7758 199.8629 66.2977 0.0000 0.0000 0.0000
# 3 66.2927 66.2977 204.4224 0.0000 0.0000 0.0000
# 4 0.0000 0.0000 0.0000 24.8896 0.0000 0.0000
# 5 0.0000 0.0000 0.0000 0.0000 24.8928 0.0000
# 6 0.0000 0.0000 0.0000 0.0000 0.0000 24.0583
#
#
#
# Elastic Compliance Matrix: (Units=1/GPa)
#
#
# Indices 1 2 3 4 5 6 
#
# 1 0.021431 0.018417 -0.012923 0.000000 0.000000 0.000000
# 2 0.018417 0.021433 -0.012924 0.000000 0.000000 0.000000
# 3 -0.012923 -0.012924 0.013274 0.000000 0.000000 0.000000
# 4 0.000000 0.000000 0.000000 0.040177 0.000000 0.000000
# 5 0.000000 0.000000 0.000000 0.000000 0.040172 0.000000
# 6 0.000000 0.000000 0.000000 0.000000 0.000000 0.041566
#
#
# Mechanical properties :
#
#
# Convention : Reuss Voigt Hill
#
# Bulk Modulus (GPa) = 24.22511 67.31016 45.76763
# Shear Modulus (GPa) = 24.19276 54.99131 39.59204
#
# Velocity S-wave (km/s) = 3.66216 5.52131 4.68489
# Velocity P-wave (km/s) = 5.59565 8.82952 7.39161
#
# Compressibility (1/GPa) = 0.04127948
#
# Stress axis : x y z
#
# Youngs Moduli (GPa) = 46.66065 46.65614 75.33486
#
# Poissons Ratio (x) = -0.85927 0.97355
# Poissons Ratio (y) = -0.85935 0.97361
# Poissons Ratio (z) = 0.60300 0.60297
#
# Static dielectric constant tensor:
#      x y z
#    x 1.642010 0.000000 0.000000 
#    y 0.000000 1.642000 0.000000 
#    z 0.000000 0.000000 1.628180 
# 
# From -- ./inp_files/7899.got.cif
#   From: 2010.05.17/outbox.cif.g08.bks.cpg/sg141_4_cif.got.tgz:7899.got - 2010.05.20 13:30:51.
