data_PCOD9573050
_publ_section_title
;
Structure prediction by ZEFSAII (Michael W. Deem and Ramdas Pophale) SiO2 
 PCOD9573050
Probable space group: I 41/A M D
;
_chemical_formula_sum "Si O2"
_cell_formula_units_Z 160
_cell_length_a 17.732614
_cell_length_b 17.732614
_cell_length_c 26.559172
_cell_angle_alpha 90.000000
_cell_angle_beta 90.000000
_cell_angle_gamma 90.000000
_cell_volume 8351.414756
_symmetry_space_group_name_H-M "I 41/A M D"
_symmetry_group_IT_number 141
_space_group.IT_coordinate_system_code '2'
_symmetry_cell_setting 'tetragonal'
loop_
_space_group_symop_operation_xyz
x,y,z
1/4-y,3/4+x,1/4+z
-x,1/2-y,z
1/4+y,1/4-x,3/4+z
x,-y,-z
-x,1/2+y,-z
1/4+y,3/4+x,1/4-z
1/4-y,1/4-x,3/4-z
-x,-y,-z
3/4+y,1/4-x,3/4-z
x,1/2+y,-z
3/4-y,3/4+x,1/4-z
-x,y,z
x,1/2-y,z
3/4-y,1/4-x,3/4+z
3/4+y,3/4+x,1/4+z
1/2+x,1/2+y,1/2+z
3/4-y,1/4+x,3/4+z
1/2-x,-y,1/2+z
3/4+y,3/4-x,1/4+z
1/2+x,1/2-y,1/2-z
1/2-x,y,1/2-z
3/4+y,1/4+x,3/4-z
3/4-y,3/4-x,1/4-z
1/2-x,1/2-y,1/2-z
1/4+y,3/4-x,1/4-z
1/2+x,y,1/2-z
1/4-y,1/4+x,3/4-z
1/2-x,1/2+y,1/2+z
1/2+x,-y,1/2+z
1/4-y,3/4-x,1/4+z
1/4+y,1/4+x,3/4+z
loop_
_atom_site_type_symbol
_atom_site_label
_atom_site_fract_x
_atom_site_fract_y
_atom_site_fract_z
Si Si1 0.684738 0.750000 0.064526
Si Si2 0.409527 0.598784 0.220057
Si Si3 0.183313 0.886220 0.572459
Si Si4 0.750000 0.047770 0.250000
Si Si5 0.295278 0.895137 0.428565
Si Si6 0.000000 0.340904 0.291094
Si Si7 0.000000 0.659307 0.913076
O O1 0.737377 0.675912 0.072429
O O2 0.622197 0.750000 0.107336
O O3 0.640725 0.750000 0.011148
O O4 0.500000 0.597621 0.221917
O O5 0.385890 0.519159 0.193910
O O6 0.378934 0.602729 0.277073
O O7 0.383950 0.672784 0.190144
O O8 0.179124 0.929124 0.625000
O O9 0.154569 0.936702 0.526305
O O10 0.124516 0.819146 0.572359
O O11 0.714608 0.997934 0.294773
O O12 0.330964 0.919037 0.375000
O O13 0.000000 0.250000 0.284235
O O14 0.000000 0.750000 0.913544
#
# Coordination Sequence:
#
# PCOD9573050 Si02
#       7
#    16  32  32  16  32  16  16
#     4  12  23  47  64  95 136 177 209 280 339 377
#     4  10  20  45  63  91 132 175 211 273 337 387
#     4  11  23  39  67  94 128 173 214 277 330 397
#     4  10  22  40  63  91 126 172 220 260 336 401
#     4  11  23  39  68  95 129 174 217 272 336 400
#     4  12  25  44  69  94 133 173 226 271 337 398
#     4  10  25  39  69  92 125 172 229 266 320 410
#
# _framework density 19.158429999999999
#
# number of rings (size 3 to 8) (size 9 to 14) (size 15 to 20)
#    0.000    1.200    6.000    0.900    9.800    0.800 
#    0.000    1.500    0.000    0.000    0.000    0.000 
#    0.000    0.000    0.000    0.000    0.000    0.000 
#
# Total GULP energy -445866.331241 kJ/mol
# GULP energy per Si atom -5573.329141 kJ/mol
# Density = 1.911482 g / cm^3
# Si number density = 19.158430 Si / 1000 Ang^3
#
#
#
# Elastic Constant Matrix: (Units=GPa)
#
#
# Indices 1 2 3 4 5 6 
#
# 1 91.5698 28.5253 41.8952 0.0000 0.0000 0.0000
# 2 28.5253 91.5701 41.8953 0.0000 0.0000 0.0000
# 3 41.8952 41.8953 157.1749 0.0000 0.0000 0.0000
# 4 0.0000 0.0000 0.0000 16.5648 0.0000 0.0000
# 5 0.0000 0.0000 0.0000 0.0000 16.5650 0.0000
# 6 0.0000 0.0000 0.0000 0.0000 0.0000 -24.8216
#
#
#
# Elastic Compliance Matrix: (Units=1/GPa)
#
#
# Indices 1 2 3 4 5 6 
#
# 1 0.013045 -0.002816 -0.002727 0.000000 0.000000 0.000000
# 2 -0.002816 0.013045 -0.002727 0.000000 0.000000 0.000000
# 3 -0.002727 -0.002727 0.007816 0.000000 0.000000 0.000000
# 4 0.000000 0.000000 0.000000 0.060369 0.000000 0.000000
# 5 0.000000 0.000000 0.000000 0.000000 0.060368 0.000000
# 6 0.000000 0.000000 0.000000 0.000000 0.000000 -0.040288
#
#
# Mechanical properties :
#
#
# Convention : Reuss Voigt Hill
#
# Bulk Modulus (GPa) = 57.57815 62.77182 60.17499
# Shear Modulus (GPa) = 36.58057 16.86158 26.72108
#
# Velocity S-wave (km/s) = 4.37438 2.96989 3.73868
# Velocity P-wave (km/s) = 7.45872 6.67803 7.07914
#
# Compressibility (1/GPa) = 0.01736770
#
# Stress axis : x y z
#
# Youngs Moduli (GPa) = 76.65520 76.65540 127.94455
#
# Poissons Ratio (x) = 0.21589 0.34885
# Poissons Ratio (y) = 0.21589 0.34885
# Poissons Ratio (z) = 0.20901 0.20901
#
# Static dielectric constant tensor:
#      x y z
#    x 1.718240 0.000000 0.000000 
#    y 0.000000 1.718240 0.000000 
#    z 0.000000 0.000000 1.665300 
# 
# From -- ./inp_files/12835.got.cif
#   From: 2010.05.17/outbox.cif.g08.bks.cpg/sg141_7_cif.got.tgz:12835.got - 2010.05.20 13:30:51.
