data_PCOD9573655
_publ_section_title
;
Structure prediction by ZEFSAII (Michael W. Deem and Ramdas Pophale) SiO2 
 PCOD9573655
Probable space group: I 41/A C D
;
_chemical_formula_sum "Si O2"
_cell_formula_units_Z 144
_cell_length_a 19.562275
_cell_length_b 19.562275
_cell_length_c 17.676454
_cell_angle_alpha 90.000000
_cell_angle_beta 90.000000
_cell_angle_gamma 90.000000
_cell_volume 6764.471432
_symmetry_space_group_name_H-M "I 41/A C D"
_symmetry_group_IT_number 142
_space_group.IT_coordinate_system_code '2'
_symmetry_cell_setting 'tetragonal'
loop_
_space_group_symop_operation_xyz
x,y,z
1/4-y,3/4+x,1/4+z
-x,1/2-y,z
1/4+y,1/4-x,3/4+z
x,-y,1/2-z
1/2-x,y,-z
3/4+y,1/4+x,1/4-z
1/4-y,1/4-x,1/4-z
-x,-y,-z
3/4+y,1/4-x,3/4-z
x,1/2+y,-z
3/4-y,3/4+x,1/4-z
-x,y,1/2+z
1/2+x,-y,z
1/4-y,3/4-x,3/4+z
3/4+y,3/4+x,3/4+z
1/2+x,1/2+y,1/2+z
3/4-y,1/4+x,3/4+z
1/2-x,-y,1/2+z
3/4+y,3/4-x,1/4+z
1/2+x,1/2-y,-z
-x,1/2+y,1/2-z
1/4+y,3/4+x,3/4-z
3/4-y,3/4-x,3/4-z
1/2-x,1/2-y,1/2-z
1/4+y,3/4-x,1/4-z
1/2+x,y,1/2-z
1/4-y,1/4+x,3/4-z
1/2-x,1/2+y,z
x,1/2-y,1/2+z
3/4-y,1/4-x,1/4+z
1/4+y,1/4+x,1/4+z
loop_
_atom_site_type_symbol
_atom_site_label
_atom_site_fract_x
_atom_site_fract_y
_atom_site_fract_z
Si Si1 0.567096 0.382942 0.677178
Si Si2 0.208258 0.546566 0.072292
Si Si3 0.027522 0.000000 0.750000
Si Si4 0.777868 0.675587 0.835919
Si Si5 0.137414 0.755338 0.222833
O O1 0.636512 0.419977 0.649141
O O2 0.519274 0.437673 0.719224
O O3 0.590588 0.322053 0.732618
O O4 0.534666 0.357091 0.598904
O O5 0.264524 0.514524 0.125000
O O6 0.151074 0.488523 0.058918
O O7 0.250000 0.569269 0.000000
O O8 0.069696 0.973545 0.822961
O O9 0.843168 0.709405 0.795017
O O10 0.710894 0.717592 0.808137
#
# Coordination Sequence:
#
# PCOD9573655 Si02
#       5
#    32  32  16  32  32
#     4  10  20  38  60  90 120 162 210 264 311 377
#     4  11  22  36  60  91 121 156 202 262 314 377
#     4  10  20  38  60  90 128 168 208 254 320 384
#     4   9  20  37  57  85 125 164 198 251 326 383
#     4   9  19  37  60  84 117 163 207 255 313 375
#
# _framework density 21.287693000000001
#
# number of rings (size 3 to 8) (size 9 to 14) (size 15 to 20)
#    0.000    2.222    1.111    1.333    1.556    3.111 
#    4.000    0.000    0.000    0.000    0.000    0.000 
#    0.000    0.000    0.000    0.000    0.000    0.000 
#
# Total GULP energy -401607.413926 kJ/mol
# GULP energy per Si atom -5577.880749 kJ/mol
# Density = 2.123924 g / cm^3
# Si number density = 21.287693 Si / 1000 Ang^3
#
#
#
# Elastic Constant Matrix: (Units=GPa)
#
#
# Indices 1 2 3 4 5 6 
#
# 1 36.6807 29.6286 8.9918 0.0000 0.0000 0.0000
# 2 29.6286 36.6807 8.9918 0.0000 0.0000 0.0000
# 3 8.9918 8.9918 70.3324 0.0000 0.0000 0.0000
# 4 0.0000 0.0000 0.0000 152.4365 0.0000 0.0000
# 5 0.0000 0.0000 0.0000 0.0000 152.4365 0.0000
# 6 0.0000 0.0000 0.0000 0.0000 0.0000 18.5390
#
#
#
# Elastic Compliance Matrix: (Units=1/GPa)
#
#
# Indices 1 2 3 4 5 6 
#
# 1 0.078712 -0.063089 -0.001997 0.000000 0.000000 0.000000
# 2 -0.063089 0.078712 -0.001997 0.000000 0.000000 0.000000
# 3 -0.001997 -0.001997 0.014729 0.000000 0.000000 0.000000
# 4 0.000000 0.000000 0.000000 0.006560 0.000000 0.000000
# 5 0.000000 0.000000 0.000000 0.000000 0.006560 0.000000
# 6 0.000000 0.000000 0.000000 0.000000 0.000000 0.053940
#
#
# Mechanical properties :
#
#
# Convention : Reuss Voigt Hill
#
# Bulk Modulus (GPa) = 26.32637 26.54649 26.43643
# Shear Modulus (GPa) = 12.95196 71.08783 42.01989
#
# Velocity S-wave (km/s) = 2.46930 5.78501 4.44769
# Velocity P-wave (km/s) = 4.53031 7.55773 6.23069
#
# Compressibility (1/GPa) = 0.03798473
#
# Stress axis : x y z
#
# Youngs Moduli (GPa) = 12.70460 12.70460 67.89374
#
# Poissons Ratio (x) = 0.80152 0.13560
# Poissons Ratio (y) = 0.80152 0.13560
# Poissons Ratio (z) = 0.02537 0.02537
#
# Static dielectric constant tensor:
#      x y z
#    x 1.783290 0.000000 0.000000 
#    y 0.000000 1.783290 0.000000 
#    z 0.000000 0.000000 1.757310 
# 
# From -- ./inp_files/7255.got.cif
#   From: 2010.05.17/outbox.cif.g08.bks.cpg/sg142_4_cif.got.tgz:7255.got - 2010.05.20 13:39:18.
