data_PCOD9573475
_publ_section_title
;
Structure prediction by ZEFSAII (Michael W. Deem and Ramdas Pophale) SiO2 
 PCOD9573475
Probable space group: I 41/A C D
;
_chemical_formula_sum "Si O2"
_cell_formula_units_Z 88
_cell_length_a 12.673345
_cell_length_b 12.673345
_cell_length_c 18.717491
_cell_angle_alpha 90.000000
_cell_angle_beta 90.000000
_cell_angle_gamma 90.000000
_cell_volume 3006.284988
_symmetry_space_group_name_H-M "I 41/A C D"
_symmetry_group_IT_number 142
_space_group.IT_coordinate_system_code '2'
_symmetry_cell_setting 'tetragonal'
loop_
_space_group_symop_operation_xyz
x,y,z
1/4-y,3/4+x,1/4+z
-x,1/2-y,z
1/4+y,1/4-x,3/4+z
x,-y,1/2-z
1/2-x,y,-z
3/4+y,1/4+x,1/4-z
1/4-y,1/4-x,1/4-z
-x,-y,-z
3/4+y,1/4-x,3/4-z
x,1/2+y,-z
3/4-y,3/4+x,1/4-z
-x,y,1/2+z
1/2+x,-y,z
1/4-y,3/4-x,3/4+z
3/4+y,3/4+x,3/4+z
1/2+x,1/2+y,1/2+z
3/4-y,1/4+x,3/4+z
1/2-x,-y,1/2+z
3/4+y,3/4-x,1/4+z
1/2+x,1/2-y,-z
-x,1/2+y,1/2-z
1/4+y,3/4+x,3/4-z
3/4-y,3/4-x,3/4-z
1/2-x,1/2-y,1/2-z
1/4+y,3/4-x,1/4-z
1/2+x,y,1/2-z
1/4-y,1/4+x,3/4-z
1/2-x,1/2+y,z
x,1/2-y,1/2+z
3/4-y,1/4-x,1/4+z
1/4+y,1/4+x,1/4+z
loop_
_atom_site_type_symbol
_atom_site_label
_atom_site_fract_x
_atom_site_fract_y
_atom_site_fract_z
Si Si1 0.071340 0.022292 0.409387
Si Si2 0.000000 0.750000 0.125000
Si Si3 0.948085 0.000000 0.750000
Si Si4 0.647700 0.625645 0.202347
O O1 0.146260 0.035070 0.476855
O O2 0.006952 0.134276 0.411592
O O3 0.104436 0.015679 0.327074
O O4 0.996268 0.924944 0.430913
O O5 0.031093 0.094215 0.729368
O O6 0.673650 0.576351 0.125000
#
# Coordination Sequence:
#
# PCOD9573475 Si02
#       4
#    32   8  16  32
#     4  10  20  35  61  88 121 160 207 259 325 378
#     4  12  20  36  62  88 116 168 202 268 324 392
#     4  10  18  36  64  86 122 168 212 262 324 380
#     4   9  19  36  61  84 119 161 205 261 320 386
#
# _framework density 29.272008
#
# number of rings (size 3 to 8) (size 9 to 14) (size 15 to 20)
#    0.000    2.182    3.636    0.000    0.000    0.000 
#    0.000    2.727    0.000    0.000    0.000    0.000 
#    0.000    0.000    0.000    0.000    0.000    0.000 
#
# Total GULP energy -245570.539348 kJ/mol
# GULP energy per Si atom -5581.148622 kJ/mol
# Density = 2.920538 g / cm^3
# Si number density = 29.272008 Si / 1000 Ang^3
#
#
#
# Elastic Constant Matrix: (Units=GPa)
#
#
# Indices 1 2 3 4 5 6 
#
# 1 87.9137 32.0321 56.2537 0.0000 0.0000 0.0000
# 2 32.0321 87.9143 56.2538 0.0000 0.0000 0.0000
# 3 56.2537 56.2538 448.4091 0.0000 0.0000 0.0000
# 4 0.0000 0.0000 0.0000 99.8205 0.0000 0.0000
# 5 0.0000 0.0000 0.0000 0.0000 99.8149 0.0000
# 6 0.0000 0.0000 0.0000 0.0000 0.0000 14.6524
#
#
#
# Elastic Compliance Matrix: (Units=1/GPa)
#
#
# Indices 1 2 3 4 5 6 
#
# 1 0.013672 -0.004223 -0.001185 0.000000 0.000000 0.000000
# 2 -0.004223 0.013672 -0.001185 0.000000 0.000000 0.000000
# 3 -0.001185 -0.001185 0.002528 0.000000 0.000000 0.000000
# 4 0.000000 0.000000 0.000000 0.010018 0.000000 0.000000
# 5 0.000000 0.000000 0.000000 0.000000 0.010019 0.000000
# 6 0.000000 0.000000 0.000000 0.000000 0.000000 0.068248
#
#
# Mechanical properties :
#
#
# Convention : Reuss Voigt Hill
#
# Bulk Modulus (GPa) = 59.93812 101.47959 80.70885
# Shear Modulus (GPa) = 36.52175 74.83739 55.67957
#
# Velocity S-wave (km/s) = 3.53607 5.06179 4.36609
# Velocity P-wave (km/s) = 6.09856 8.30092 7.28346
#
# Compressibility (1/GPa) = 0.01668387
#
# Stress axis : x y z
#
# Youngs Moduli (GPa) = 73.14233 73.14286 395.64403
#
# Poissons Ratio (x) = 0.30888 0.46899
# Poissons Ratio (y) = 0.30888 0.46899
# Poissons Ratio (z) = 0.08670 0.08670
#
# Static dielectric constant tensor:
#      x y z
#    x 2.305470 0.000000 0.000000 
#    y 0.000000 2.305470 0.000000 
#    z 0.000000 0.000000 12.529630 
# 
# From -- ./inp_files/8321.got.cif
#   From: 2010.05.17/outbox.cif.g08.bks.cpg/sg142_5_cif.got.tgz:8321.got - 2010.05.20 13:39:18.
