data_PCOD9573404
_publ_section_title
;
Structure prediction by ZEFSAII (Michael W. Deem and Ramdas Pophale) SiO2 
 PCOD9573404
Probable space group: I 41/A C D
;
_chemical_formula_sum "Si O2"
_cell_formula_units_Z 192
_cell_length_a 21.243732
_cell_length_b 21.243732
_cell_length_c 20.639314
_cell_angle_alpha 90.000000
_cell_angle_beta 90.000000
_cell_angle_gamma 90.000000
_cell_volume 9314.442932
_symmetry_space_group_name_H-M "I 41/A C D"
_symmetry_group_IT_number 142
_space_group.IT_coordinate_system_code '2'
_symmetry_cell_setting 'tetragonal'
loop_
_space_group_symop_operation_xyz
x,y,z
1/4-y,3/4+x,1/4+z
-x,1/2-y,z
1/4+y,1/4-x,3/4+z
x,-y,1/2-z
1/2-x,y,-z
3/4+y,1/4+x,1/4-z
1/4-y,1/4-x,1/4-z
-x,-y,-z
3/4+y,1/4-x,3/4-z
x,1/2+y,-z
3/4-y,3/4+x,1/4-z
-x,y,1/2+z
1/2+x,-y,z
1/4-y,3/4-x,3/4+z
3/4+y,3/4+x,3/4+z
1/2+x,1/2+y,1/2+z
3/4-y,1/4+x,3/4+z
1/2-x,-y,1/2+z
3/4+y,3/4-x,1/4+z
1/2+x,1/2-y,-z
-x,1/2+y,1/2-z
1/4+y,3/4+x,3/4-z
3/4-y,3/4-x,3/4-z
1/2-x,1/2-y,1/2-z
1/4+y,3/4-x,1/4-z
1/2+x,y,1/2-z
1/4-y,1/4+x,3/4-z
1/2-x,1/2+y,z
x,1/2-y,1/2+z
3/4-y,1/4-x,1/4+z
1/4+y,1/4+x,1/4+z
loop_
_atom_site_type_symbol
_atom_site_label
_atom_site_fract_x
_atom_site_fract_y
_atom_site_fract_z
Si Si1 0.126575 0.758191 0.436958
Si Si2 0.090751 0.656488 0.587523
Si Si3 0.368285 0.881716 0.125000
Si Si4 0.294558 0.156450 0.262041
Si Si5 0.500000 0.750000 0.762115
Si Si6 0.542145 0.455826 0.921611
Si Si7 0.178111 0.230499 0.926205
O O1 0.130910 0.684570 0.414587
O O2 0.146221 0.797692 0.374422
O O3 0.175729 0.768782 0.496140
O O4 0.057688 0.770467 0.466145
O O5 0.105957 0.600341 0.538396
O O6 0.149589 0.702087 0.593978
O O7 0.032655 0.696499 0.556526
O O8 0.069016 0.625057 0.653640
O O9 0.366812 0.939934 0.075613
O O10 0.302540 0.228331 0.287113
O O11 0.229420 0.155567 0.222385
O O12 0.531948 0.512104 0.869041
#
# Coordination Sequence:
#
# PCOD9573404 Si02
#       7
#    32  32  16  32  16  32  32
#     4  10  19  29  44  70  99 142 173 224 266 337
#     4  10  18  29  46  71 100 140 174 225 272 327
#     4  10  16  31  46  66  96 130 182 216 270 318
#     4   9  17  32  45  65  94 142 169 223 278 322
#     4  10  18  30  46  72 104 137 175 218 274 340
#     4   9  19  30  45  63 100 142 176 216 284 334
#     4  10  17  29  47  68  99 139 178 223 274 332
#
# _framework density 20.613149
#
# number of rings (size 3 to 8) (size 9 to 14) (size 15 to 20)
#    0.000    2.333    3.333    2.500    0.000    1.000 
#    0.000    0.000    0.000    0.000    0.000    0.000 
#    0.000    0.000  442.000    0.000    0.000    0.000 
#
# Total GULP energy -535175.096455 kJ/mol
# GULP energy per Si atom -5574.740588 kJ/mol
# Density = 2.056623 g / cm^3
# Si number density = 20.613149 Si / 1000 Ang^3
#
#
#
# Elastic Constant Matrix: (Units=GPa)
#
#
# Indices 1 2 3 4 5 6 
#
# 1 33.1611 15.7038 20.8607 0.0000 0.0000 0.0000
# 2 15.7038 33.1610 20.8614 0.0000 0.0000 0.0000
# 3 20.8607 20.8614 115.4663 0.0000 0.0000 0.0000
# 4 0.0000 0.0000 0.0000 27.2481 0.0000 0.0000
# 5 0.0000 0.0000 0.0000 0.0000 27.2482 0.0000
# 6 0.0000 0.0000 0.0000 0.0000 0.0000 11.1583
#
#
#
# Elastic Compliance Matrix: (Units=1/GPa)
#
#
# Indices 1 2 3 4 5 6 
#
# 1 0.040740 -0.016543 -0.004371 0.000000 0.000000 0.000000
# 2 -0.016543 0.040740 -0.004372 0.000000 0.000000 0.000000
# 3 -0.004371 -0.004372 0.010240 0.000000 0.000000 0.000000
# 4 0.000000 0.000000 0.000000 0.036700 0.000000 0.000000
# 5 0.000000 0.000000 0.000000 0.000000 0.036700 0.000000
# 6 0.000000 0.000000 0.000000 0.000000 0.000000 0.089619
#
#
# Mechanical properties :
#
#
# Convention : Reuss Voigt Hill
#
# Bulk Modulus (GPa) = 24.30253 32.96005 28.63129
# Shear Modulus (GPa) = 15.67267 21.42177 18.54722
#
# Velocity S-wave (km/s) = 2.76039 3.22720 3.00288
# Velocity P-wave (km/s) = 4.68776 5.46909 5.09343
#
# Compressibility (1/GPa) = 0.04114798
#
# Stress axis : x y z
#
# Youngs Moduli (GPa) = 24.54608 24.54580 97.65452
#
# Poissons Ratio (x) = 0.40605 0.42689
# Poissons Ratio (y) = 0.40606 0.42693
# Poissons Ratio (z) = 0.10730 0.10731
#
# Static dielectric constant tensor:
#      x y z
#    x 1.760130 0.000000 0.000000 
#    y 0.000000 1.760130 0.000000 
#    z 0.000000 0.000000 1.795470 
# 
# From -- ./inp_files/9228.got.cif
#   From: 2010.05.17/outbox.cif.g08.bks.cpg/sg142_5_cif.got.tgz:9228.got - 2010.05.20 13:39:18.
