data_PCOD9573678
_publ_section_title
;
Structure prediction by ZEFSAII (Michael W. Deem and Ramdas Pophale) SiO2 
 PCOD9573678
Probable space group: I 41/A C D
;
_chemical_formula_sum "Si O2"
_cell_formula_units_Z 168
_cell_length_a 20.593265
_cell_length_b 20.593265
_cell_length_c 19.346926
_cell_angle_alpha 90.000000
_cell_angle_beta 90.000000
_cell_angle_gamma 90.000000
_cell_volume 8204.693971
_symmetry_space_group_name_H-M "I 41/A C D"
_symmetry_group_IT_number 142
_space_group.IT_coordinate_system_code '2'
_symmetry_cell_setting 'tetragonal'
loop_
_space_group_symop_operation_xyz
x,y,z
1/4-y,3/4+x,1/4+z
-x,1/2-y,z
1/4+y,1/4-x,3/4+z
x,-y,1/2-z
1/2-x,y,-z
3/4+y,1/4+x,1/4-z
1/4-y,1/4-x,1/4-z
-x,-y,-z
3/4+y,1/4-x,3/4-z
x,1/2+y,-z
3/4-y,3/4+x,1/4-z
-x,y,1/2+z
1/2+x,-y,z
1/4-y,3/4-x,3/4+z
3/4+y,3/4+x,3/4+z
1/2+x,1/2+y,1/2+z
3/4-y,1/4+x,3/4+z
1/2-x,-y,1/2+z
3/4+y,3/4-x,1/4+z
1/2+x,1/2-y,-z
-x,1/2+y,1/2-z
1/4+y,3/4+x,3/4-z
3/4-y,3/4-x,3/4-z
1/2-x,1/2-y,1/2-z
1/4+y,3/4-x,1/4-z
1/2+x,y,1/2-z
1/4-y,1/4+x,3/4-z
1/2-x,1/2+y,z
x,1/2-y,1/2+z
3/4-y,1/4-x,1/4+z
1/4+y,1/4+x,1/4+z
loop_
_atom_site_type_symbol
_atom_site_label
_atom_site_fract_x
_atom_site_fract_y
_atom_site_fract_z
Si Si1 0.814956 0.158046 0.968712
Si Si2 0.000000 0.250000 0.125000
Si Si3 0.761098 0.302405 0.326609
Si Si4 0.802883 0.663681 0.700787
Si Si5 0.141362 0.523393 0.827504
Si Si6 0.850991 0.740048 0.420599
O O1 0.798991 0.166526 0.889164
O O2 0.879030 0.116624 0.976467
O O3 0.750000 0.125834 0.000000
O O4 0.826060 0.224408 0.010093
O O5 0.998702 0.321531 0.161833
O O6 0.802886 0.241050 0.301952
O O7 0.749504 0.348798 0.261576
O O8 0.692783 0.274668 0.359610
O O9 0.782988 0.639173 0.625506
O O10 0.156694 0.500000 0.750000
O O11 0.199205 0.550796 0.875000
O O12 0.084413 0.577991 0.825081
#
# Coordination Sequence:
#
# PCOD9573678 Si02
#       6
#    32   8  32  32  32  32
#     4  10  21  39  63  90 127 169 218 274 327 395
#     4  12  20  32  68 100 130 176 240 282 332 420
#     4   9  20  40  61  86 130 171 213 268 345 392
#     4  10  21  38  62  91 122 173 213 271 330 403
#     4  11  24  42  64  93 134 180 223 277 341 411
#     4  10  20  39  61  98 131 176 219 281 342 400
#
# _framework density 20.476082999999999
#
# number of rings (size 3 to 8) (size 9 to 14) (size 15 to 20)
#    0.000    1.905    0.952    4.000    2.667    3.048 
#    0.000    0.000    0.000    0.000    0.000    1.333 
#    0.000    0.000    0.000    0.000    0.000    0.000 
#
# Total GULP energy -468275.023342 kJ/mol
# GULP energy per Si atom -5574.702659 kJ/mol
# Density = 2.042948 g / cm^3
# Si number density = 20.476083 Si / 1000 Ang^3
#
#
#
# Elastic Constant Matrix: (Units=GPa)
#
#
# Indices 1 2 3 4 5 6 
#
# 1 61.9284 29.8900 21.3181 0.0000 0.0000 0.0000
# 2 29.8900 61.9312 21.3183 0.0000 0.0000 0.0000
# 3 21.3181 21.3183 138.8075 0.0000 0.0000 0.0000
# 4 0.0000 0.0000 0.0000 9.3222 0.0000 0.0000
# 5 0.0000 0.0000 0.0000 0.0000 9.3224 0.0000
# 6 0.0000 0.0000 0.0000 0.0000 0.0000 17.5959
#
#
#
# Elastic Compliance Matrix: (Units=1/GPa)
#
#
# Indices 1 2 3 4 5 6 
#
# 1 0.021470 -0.009742 -0.001801 0.000000 0.000000 0.000000
# 2 -0.009742 0.021469 -0.001801 0.000000 0.000000 0.000000
# 3 -0.001801 -0.001801 0.007757 0.000000 0.000000 0.000000
# 4 0.000000 0.000000 0.000000 0.107271 0.000000 0.000000
# 5 0.000000 0.000000 0.000000 0.000000 0.107269 0.000000
# 6 0.000000 0.000000 0.000000 0.000000 0.000000 0.056831
#
#
# Mechanical properties :
#
#
# Convention : Reuss Voigt Hill
#
# Bulk Modulus (GPa) = 41.65352 45.30223 43.47788
# Shear Modulus (GPa) = 14.01509 19.92414 16.96962
#
# Velocity S-wave (km/s) = 2.61906 3.12275 2.88193
# Velocity P-wave (km/s) = 5.43440 5.93082 5.68802
#
# Compressibility (1/GPa) = 0.02400757
#
# Stress axis : x y z
#
# Youngs Moduli (GPa) = 46.57727 46.57938 128.90846
#
# Poissons Ratio (x) = 0.45378 0.23218
# Poissons Ratio (y) = 0.45376 0.23217
# Poissons Ratio (z) = 0.08389 0.08389
#
# Static dielectric constant tensor:
#      x y z
#    x 1.756160 0.000000 0.000000 
#    y 0.000000 1.756160 0.000000 
#    z 0.000000 0.000000 1.794510 
# 
# From -- ./inp_files/9091.got.cif
#   From: 2010.05.17/outbox.cif.g08.bks.cpg/sg142_5_cif.got.tgz:9091.got - 2010.05.20 13:39:18.
