data_PCOD9573267
_publ_section_title
;
Structure prediction by ZEFSAII (Michael W. Deem and Ramdas Pophale) SiO2 
 PCOD9573267
Probable space group: I 41/A M D
;
_chemical_formula_sum "Si O2"
_cell_formula_units_Z 192
_cell_length_a 17.374405
_cell_length_b 17.374405
_cell_length_c 33.667910
_cell_angle_alpha 90.000000
_cell_angle_beta 90.000000
_cell_angle_gamma 90.000000
_cell_volume 10163.330278
_symmetry_space_group_name_H-M "I 41/A M D"
_symmetry_group_IT_number 141
_space_group.IT_coordinate_system_code '2'
_symmetry_cell_setting 'tetragonal'
loop_
_space_group_symop_operation_xyz
x,y,z
1/4-y,3/4+x,1/4+z
-x,1/2-y,z
1/4+y,1/4-x,3/4+z
x,-y,-z
-x,1/2+y,-z
1/4+y,3/4+x,1/4-z
1/4-y,1/4-x,3/4-z
-x,-y,-z
3/4+y,1/4-x,3/4-z
x,1/2+y,-z
3/4-y,3/4+x,1/4-z
-x,y,z
x,1/2-y,z
3/4-y,1/4-x,3/4+z
3/4+y,3/4+x,1/4+z
1/2+x,1/2+y,1/2+z
3/4-y,1/4+x,3/4+z
1/2-x,-y,1/2+z
3/4+y,3/4-x,1/4+z
1/2+x,1/2-y,1/2-z
1/2-x,y,1/2-z
3/4+y,1/4+x,3/4-z
3/4-y,3/4-x,1/4-z
1/2-x,1/2-y,1/2-z
1/4+y,3/4-x,1/4-z
1/2+x,y,1/2-z
1/4-y,1/4+x,3/4-z
1/2-x,1/2+y,1/2+z
1/2+x,-y,1/2+z
1/4-y,3/4-x,1/4+z
1/4+y,1/4+x,3/4+z
loop_
_atom_site_type_symbol
_atom_site_label
_atom_site_fract_x
_atom_site_fract_y
_atom_site_fract_z
Si Si1 0.637679 0.921166 0.680513
Si Si2 0.588500 0.966548 0.386074
Si Si3 0.415255 0.561635 0.534890
Si Si4 0.000000 0.839489 0.451334
Si Si5 0.846120 0.433510 0.419427
Si Si6 0.323565 0.250000 0.220434
Si Si7 0.842558 0.008353 0.739836
O O1 0.622192 0.830166 0.684256
O O2 0.727055 0.928427 0.668259
O O3 0.591444 0.968688 0.647966
O O4 0.623276 0.962538 0.722912
O O5 0.500000 0.938519 0.390552
O O6 0.648762 0.898762 0.375000
O O7 0.609856 0.012137 0.426542
O O8 0.424164 0.500000 0.500000
O O9 0.500000 0.596147 0.542791
O O10 0.346456 0.614789 0.518899
O O11 0.000000 0.750000 0.443382
O O12 0.000000 0.856802 0.498472
O O13 0.847879 0.402122 0.375000
O O14 0.786272 0.393260 0.448997
O O15 0.926186 0.428797 0.442655
O O16 0.250000 0.250000 0.250000
O O17 0.750000 0.007289 0.750000
#
# Coordination Sequence:
#
# PCOD9573267 Si02
#       7
#    32  32  32  16  32  16  32
#     4  11  20  37  60  88 118 154 207 255 313 371
#     4  11  22  36  56  87 122 157 205 258 302 362
#     4   9  17  30  50  82 117 148 187 242 306 361
#     4  12  24  40  64  88 122 166 208 258 320 388
#     4  11  20  33  59  87 115 155 209 266 313 378
#     4  12  20  44  62  86 122 170 212 258 322 402
#     4   9  16  29  53  80 110 153 195 246 303 366
#
# _framework density 18.891445999999998
#
# number of rings (size 3 to 8) (size 9 to 14) (size 15 to 20)
#    0.000    1.500    3.333    5.500    0.000    0.167 
#    1.500    0.000    0.000    0.000   13.000    0.000 
#    0.000    0.000    0.000    0.000    0.000    0.000 
#
# Total GULP energy -535268.754747 kJ/mol
# GULP energy per Si atom -5575.716195 kJ/mol
# Density = 1.884845 g / cm^3
# Si number density = 18.891446 Si / 1000 Ang^3
#
#
#
# Elastic Constant Matrix: (Units=GPa)
#
#
# Indices 1 2 3 4 5 6 
#
# 1 82.8448 17.1474 29.6355 0.0000 0.0000 0.0000
# 2 17.1474 82.8454 29.6359 0.0000 0.0000 0.0000
# 3 29.6355 29.6359 136.5496 0.0000 0.0000 0.0000
# 4 0.0000 0.0000 0.0000 26.0474 0.0000 0.0000
# 5 0.0000 0.0000 0.0000 0.0000 26.0467 0.0000
# 6 0.0000 0.0000 0.0000 0.0000 0.0000 11.5866
#
#
#
# Elastic Compliance Matrix: (Units=1/GPa)
#
#
# Indices 1 2 3 4 5 6 
#
# 1 0.013349 -0.001872 -0.002491 0.000000 0.000000 0.000000
# 2 -0.001872 0.013349 -0.002491 0.000000 0.000000 0.000000
# 3 -0.002491 -0.002491 0.008405 0.000000 0.000000 0.000000
# 4 0.000000 0.000000 0.000000 0.038392 0.000000 0.000000
# 5 0.000000 0.000000 0.000000 0.000000 0.038393 0.000000
# 6 0.000000 0.000000 0.000000 0.000000 0.000000 0.086306
#
#
# Mechanical properties :
#
#
# Convention : Reuss Voigt Hill
#
# Bulk Modulus (GPa) = 46.73911 50.56416 48.65164
# Shear Modulus (GPa) = 22.82759 27.79087 25.30923
#
# Velocity S-wave (km/s) = 3.47991 3.83963 3.66419
# Velocity P-wave (km/s) = 6.39851 6.81768 6.61142
#
# Compressibility (1/GPa) = 0.02139536
#
# Stress axis : x y z
#
# Youngs Moduli (GPa) = 74.91038 74.91071 118.98278
#
# Poissons Ratio (x) = 0.14023 0.29638
# Poissons Ratio (y) = 0.14023 0.29638
# Poissons Ratio (z) = 0.18660 0.18660
#
# Static dielectric constant tensor:
#      x y z
#    x 1.798050 0.000000 0.000000 
#    y 0.000000 1.797870 0.000000 
#    z 0.000000 0.000000 1.653210 
# 
# From -- ./inp_files/14465.got.cif
#   From: 2010.05.17/outbox.cif.g08.bks.cpg/sg141_8_cif.got.tgz:14465.got - 2010.05.20 13:30:51.
