data_PCOD9573034
_publ_section_title
;
Structure prediction by ZEFSAII (Michael W. Deem and Ramdas Pophale) SiO2 
 PCOD9573034
Probable space group: I 41/A M D
;
_chemical_formula_sum "Si O2"
_cell_formula_units_Z 112
_cell_length_a 17.527537
_cell_length_b 17.527537
_cell_length_c 18.374075
_cell_angle_alpha 90.000000
_cell_angle_beta 90.000000
_cell_angle_gamma 90.000000
_cell_volume 5644.783243
_symmetry_space_group_name_H-M "I 41/A M D"
_symmetry_group_IT_number 141
_space_group.IT_coordinate_system_code '2'
_symmetry_cell_setting 'tetragonal'
loop_
_space_group_symop_operation_xyz
x,y,z
1/4-y,3/4+x,1/4+z
-x,1/2-y,z
1/4+y,1/4-x,3/4+z
x,-y,-z
-x,1/2+y,-z
1/4+y,3/4+x,1/4-z
1/4-y,1/4-x,3/4-z
-x,-y,-z
3/4+y,1/4-x,3/4-z
x,1/2+y,-z
3/4-y,3/4+x,1/4-z
-x,y,z
x,1/2-y,z
3/4-y,1/4-x,3/4+z
3/4+y,3/4+x,1/4+z
1/2+x,1/2+y,1/2+z
3/4-y,1/4+x,3/4+z
1/2-x,-y,1/2+z
3/4+y,3/4-x,1/4+z
1/2+x,1/2-y,1/2-z
1/2-x,y,1/2-z
3/4+y,1/4+x,3/4-z
3/4-y,3/4-x,1/4-z
1/2-x,1/2-y,1/2-z
1/4+y,3/4-x,1/4-z
1/2+x,y,1/2-z
1/4-y,1/4+x,3/4-z
1/2-x,1/2+y,1/2+z
1/2+x,-y,1/2+z
1/4-y,3/4-x,1/4+z
1/4+y,1/4+x,3/4+z
loop_
_atom_site_type_symbol
_atom_site_label
_atom_site_fract_x
_atom_site_fract_y
_atom_site_fract_z
Si Si1 0.910775 0.570959 0.685780
Si Si2 0.166655 0.083346 0.875000
Si Si3 0.142614 0.161475 0.023353
Si Si4 0.177247 0.336708 0.596648
O O1 0.856671 0.606671 0.625000
O O2 0.900340 0.480343 0.699380
O O3 0.895727 0.604844 0.766491
O O4 0.000000 0.583991 0.666985
O O5 0.135494 0.120025 0.800522
O O6 0.255028 0.105163 0.883581
O O7 0.131523 0.250000 0.007851
O O8 0.091578 0.133281 0.089540
O O9 0.209073 0.250000 0.591972
#
# Coordination Sequence:
#
# PCOD9573034 Si02
#       4
#    32  16  32  32
#     4   9  20  38  58  82 116 153 194 239 288 348
#     4  10  20  38  62  81 112 156 195 240 284 346
#     4  10  22  38  57  86 119 152 193 241 292 346
#     4  10  22  39  59  86 117 150 193 242 289 344
#
# _framework density 19.841328000000001
#
# number of rings (size 3 to 8) (size 9 to 14) (size 15 to 20)
#    0.000    2.286    0.000    3.429    2.000    6.571 
#    0.000    5.714    0.000    3.857    0.000    0.000 
#    0.000    0.000    0.000    0.000    0.000    0.000 
#
# Total GULP energy -312525.832217 kJ/mol
# GULP energy per Si atom -5580.818432 kJ/mol
# Density = 1.979617 g / cm^3
# Si number density = 19.841328 Si / 1000 Ang^3
#
#
#
# Elastic Constant Matrix: (Units=GPa)
#
#
# Indices 1 2 3 4 5 6 
#
# 1 31.9257 25.3932 41.8977 0.0000 0.0000 0.0000
# 2 25.3932 31.9259 41.8978 0.0000 0.0000 0.0000
# 3 41.8977 41.8978 146.2572 0.0000 0.0000 0.0000
# 4 0.0000 0.0000 0.0000 12.8069 0.0000 0.0000
# 5 0.0000 0.0000 0.0000 0.0000 12.8061 0.0000
# 6 0.0000 0.0000 0.0000 0.0000 0.0000 15.9927
#
#
#
# Elastic Compliance Matrix: (Units=1/GPa)
#
#
# Indices 1 2 3 4 5 6 
#
# 1 0.091549 -0.061531 -0.008599 0.000000 0.000000 0.000000
# 2 -0.061531 0.091548 -0.008599 0.000000 0.000000 0.000000
# 3 -0.008599 -0.008599 0.011764 0.000000 0.000000 0.000000
# 4 0.000000 0.000000 0.000000 0.078083 0.000000 0.000000
# 5 0.000000 0.000000 0.000000 0.000000 0.078088 0.000000
# 6 0.000000 0.000000 0.000000 0.000000 0.000000 0.062529
#
#
# Mechanical properties :
#
#
# Convention : Reuss Voigt Hill
#
# Bulk Modulus (GPa) = 26.73623 47.60958 37.17290
# Shear Modulus (GPa) = 8.56920 15.04915 11.80917
#
# Velocity S-wave (km/s) = 2.08044 2.75703 2.44228
# Velocity P-wave (km/s) = 4.39036 5.84655 5.16998
#
# Compressibility (1/GPa) = 0.03740244
#
# Stress axis : x y z
#
# Youngs Moduli (GPa) = 10.92315 10.92323 85.00628
#
# Poissons Ratio (x) = 0.67212 0.73096
# Poissons Ratio (y) = 0.67212 0.73096
# Poissons Ratio (z) = 0.09393 0.09393
#
# Static dielectric constant tensor:
#      x y z
#    x 1.703480 0.000000 0.000000 
#    y 0.000000 1.703490 0.000000 
#    z 0.000000 0.000000 1.701360 
# 
# From -- ./inp_files/7952.got.cif
#   From: 2010.05.17/outbox.cif.g08.bks.cpg/sg141_4_cif.got.tgz:7952.got - 2010.05.20 13:30:51.
