data_PCOD9573164
_publ_section_title
;
Structure prediction by ZEFSAII (Michael W. Deem and Ramdas Pophale) SiO2 
 PCOD9573164
Probable space group: I 41/A M D
;
_chemical_formula_sum "Si O2"
_cell_formula_units_Z 96
_cell_length_a 25.498010
_cell_length_b 25.498010
_cell_length_c 7.633428
_cell_angle_alpha 90.000000
_cell_angle_beta 90.000000
_cell_angle_gamma 90.000000
_cell_volume 4962.861871
_symmetry_space_group_name_H-M "I 41/A M D"
_symmetry_group_IT_number 141
_space_group.IT_coordinate_system_code '2'
_symmetry_cell_setting 'tetragonal'
loop_
_space_group_symop_operation_xyz
x,y,z
1/4-y,3/4+x,1/4+z
-x,1/2-y,z
1/4+y,1/4-x,3/4+z
x,-y,-z
-x,1/2+y,-z
1/4+y,3/4+x,1/4-z
1/4-y,1/4-x,3/4-z
-x,-y,-z
3/4+y,1/4-x,3/4-z
x,1/2+y,-z
3/4-y,3/4+x,1/4-z
-x,y,z
x,1/2-y,z
3/4-y,1/4-x,3/4+z
3/4+y,3/4+x,1/4+z
1/2+x,1/2+y,1/2+z
3/4-y,1/4+x,3/4+z
1/2-x,-y,1/2+z
3/4+y,3/4-x,1/4+z
1/2+x,1/2-y,1/2-z
1/2-x,y,1/2-z
3/4+y,1/4+x,3/4-z
3/4-y,3/4-x,1/4-z
1/2-x,1/2-y,1/2-z
1/4+y,3/4-x,1/4-z
1/2+x,y,1/2-z
1/4-y,1/4+x,3/4-z
1/2-x,1/2+y,1/2+z
1/2+x,-y,1/2+z
1/4-y,3/4-x,1/4+z
1/4+y,1/4+x,3/4+z
loop_
_atom_site_type_symbol
_atom_site_label
_atom_site_fract_x
_atom_site_fract_y
_atom_site_fract_z
Si Si1 0.876495 0.188237 0.728615
Si Si2 0.940376 0.190376 0.375000
Si Si3 0.354408 0.000000 0.000000
Si Si4 0.644048 0.956748 0.637795
O O1 0.865121 0.250000 0.758098
O O2 0.903080 0.182379 0.538295
O O3 0.827477 0.149381 0.712737
O O4 0.915931 0.165931 0.875000
O O5 0.934188 0.250000 0.311454
O O6 0.380376 0.980358 0.818272
O O7 0.322954 0.052213 0.939968
O O8 0.660954 0.000000 0.500000
#
# Coordination Sequence:
#
# PCOD9573164 Si02
#       4
#    32  16  16  32
#     4  11  23  40  61  88 125 165 211 270 329 393
#     4   9  18  34  58  84 108 144 198 252 306 370
#     4  10  22  36  63  88 124 158 211 268 318 384
#     4  11  23  38  59  91 122 161 210 261 324 390
#
# _framework density 19.343678000000001
#
# number of rings (size 3 to 8) (size 9 to 14) (size 15 to 20)
#    0.000    1.500    0.000    6.000    9.333    2.333 
#    0.000    0.833    0.000    0.000    0.000    0.000 
#    0.000    0.000    0.000    0.000    0.000    0.000 
#
# Total GULP energy -267579.849284 kJ/mol
# GULP energy per Si atom -5574.580193 kJ/mol
# Density = 1.929965 g / cm^3
# Si number density = 19.343678 Si / 1000 Ang^3
#
#
#
# Elastic Constant Matrix: (Units=GPa)
#
#
# Indices 1 2 3 4 5 6 
#
# 1 -3.0132 106.4133 23.3350 0.0000 0.0000 0.0000
# 2 106.4133 -3.0132 23.3350 0.0000 0.0000 0.0000
# 3 23.3350 23.3350 69.8161 0.0000 0.0000 0.0000
# 4 0.0000 0.0000 0.0000 27.9881 0.0000 0.0000
# 5 0.0000 0.0000 0.0000 0.0000 27.9881 0.0000
# 6 0.0000 0.0000 0.0000 0.0000 0.0000 7.4886
#
#
#
# Elastic Compliance Matrix: (Units=1/GPa)
#
#
# Indices 1 2 3 4 5 6 
#
# 1 0.001125 0.010264 -0.003807 0.000000 0.000000 0.000000
# 2 0.010264 0.001125 -0.003807 0.000000 0.000000 0.000000
# 3 -0.003807 -0.003807 0.016868 0.000000 0.000000 0.000000
# 4 0.000000 0.000000 0.000000 0.035729 0.000000 0.000000
# 5 0.000000 0.000000 0.000000 0.000000 0.035729 0.000000
# 6 0.000000 0.000000 0.000000 0.000000 0.000000 0.133536
#
#
# Mechanical properties :
#
#
# Convention : Reuss Voigt Hill
#
# Bulk Modulus (GPa) = 40.95030 41.10624 41.02827
# Shear Modulus (GPa) = 22.03107 6.74006 14.38557
#
# Velocity S-wave (km/s) = 3.37846 1.86867 2.73001
# Velocity P-wave (km/s) = 6.03610 5.09436 5.58512
#
# Compressibility (1/GPa) = 0.02441985
#
# Stress axis : x y z
#
# Youngs Moduli (GPa) = 888.57985 888.57985 59.28377
#
# Poissons Ratio (x) = -9.12034 0.22568
# Poissons Ratio (y) = -9.12034 0.22568
# Poissons Ratio (z) = 3.38257 3.38257
#
# Static dielectric constant tensor:
#      x y z
#    x 1.764610 0.000000 0.000000 
#    y 0.000000 1.764610 0.000000 
#    z 0.000000 0.000000 1.688490 
# 
# From -- ./inp_files/2531.got.cif
#   From: 2010.05.17/outbox.cif.g08.bks.cpg/sg141_2_cif.got.tgz:2531.got - 2010.05.20 13:30:51.
