data_PCOD9573068
_publ_section_title
;
Structure prediction by ZEFSAII (Michael W. Deem and Ramdas Pophale) SiO2 
 PCOD9573068
Probable space group: I 41/A M D
;
_chemical_formula_sum "Si O2"
_cell_formula_units_Z 192
_cell_length_a 19.558185
_cell_length_b 19.558185
_cell_length_c 21.638726
_cell_angle_alpha 90.000000
_cell_angle_beta 90.000000
_cell_angle_gamma 90.000000
_cell_volume 8277.301741
_symmetry_space_group_name_H-M "I 41/A M D"
_symmetry_group_IT_number 141
_space_group.IT_coordinate_system_code '2'
_symmetry_cell_setting 'tetragonal'
loop_
_space_group_symop_operation_xyz
x,y,z
1/4-y,3/4+x,1/4+z
-x,1/2-y,z
1/4+y,1/4-x,3/4+z
x,-y,-z
-x,1/2+y,-z
1/4+y,3/4+x,1/4-z
1/4-y,1/4-x,3/4-z
-x,-y,-z
3/4+y,1/4-x,3/4-z
x,1/2+y,-z
3/4-y,3/4+x,1/4-z
-x,y,z
x,1/2-y,z
3/4-y,1/4-x,3/4+z
3/4+y,3/4+x,1/4+z
1/2+x,1/2+y,1/2+z
3/4-y,1/4+x,3/4+z
1/2-x,-y,1/2+z
3/4+y,3/4-x,1/4+z
1/2+x,1/2-y,1/2-z
1/2-x,y,1/2-z
3/4+y,1/4+x,3/4-z
3/4-y,3/4-x,1/4-z
1/2-x,1/2-y,1/2-z
1/4+y,3/4-x,1/4-z
1/2+x,y,1/2-z
1/4-y,1/4+x,3/4-z
1/2-x,1/2+y,1/2+z
1/2+x,-y,1/2+z
1/4-y,3/4-x,1/4+z
1/4+y,1/4+x,3/4+z
loop_
_atom_site_type_symbol
_atom_site_label
_atom_site_fract_x
_atom_site_fract_y
_atom_site_fract_z
Si Si1 0.745551 0.830248 0.129260
Si Si2 0.925358 0.566903 0.542282
Si Si3 0.924670 0.527070 0.340503
Si Si4 0.096140 0.828350 0.322582
Si Si5 0.922142 0.869757 0.059834
Si Si6 0.282493 0.917577 0.006495
O O1 0.760998 0.750000 0.109829
O O2 0.677185 0.826496 0.168639
O O3 0.806827 0.857899 0.172003
O O4 0.733543 0.881333 0.071782
O O5 0.931795 0.500000 0.500000
O O6 0.912489 0.530807 0.608147
O O7 0.858852 0.604569 0.516309
O O8 0.000000 0.602099 0.542856
O O9 0.925967 0.606149 0.363242
O O10 0.864389 0.519460 0.292192
O O11 0.000000 0.513259 0.313805
O O12 0.072581 0.750000 0.335208
O O13 0.080761 0.850445 0.251565
O O14 0.918925 0.831076 0.125000
O O15 0.000000 0.884467 0.043420
O O16 0.280110 0.000000 0.000000
#
# Coordination Sequence:
#
# PCOD9573068 Si02
#       6
#    32  32  32  32  32  32
#     4  10  21  38  58  83 117 152 189 241 303 355
#     4   9  19  37  60  85 115 150 187 233 291 350
#     4  11  23  39  59  85 120 156 192 240 297 352
#     4  10  21  37  58  83 112 151 200 247 292 349
#     4  10  21  36  54  77 109 152 196 239 290 346
#     4  11  22  37  61  90 119 150 193 242 290 354
#
# _framework density 23.195965000000001
#
# number of rings (size 3 to 8) (size 9 to 14) (size 15 to 20)
#    0.000    1.833    0.000    4.500    0.000    7.167 
#    0.000    3.333    0.000    3.000    0.000    4.667 
#    0.000    0.000    0.000    0.000    0.000    0.000 
#
# Total GULP energy -535160.791149 kJ/mol
# GULP energy per Si atom -5574.591574 kJ/mol
# Density = 2.314317 g / cm^3
# Si number density = 23.195965 Si / 1000 Ang^3
#
#
#
# Elastic Constant Matrix: (Units=GPa)
#
#
# Indices 1 2 3 4 5 6 
#
# 1 102.0659 11.4470 7.7486 0.0000 0.0000 0.0000
# 2 11.4470 102.0649 7.7480 0.0000 0.0000 0.0000
# 3 7.7486 7.7480 60.8880 0.0000 0.0000 0.0000
# 4 0.0000 0.0000 0.0000 25.4414 0.0000 0.0000
# 5 0.0000 0.0000 0.0000 0.0000 25.4414 0.0000
# 6 0.0000 0.0000 0.0000 0.0000 0.0000 16.0623
#
#
#
# Elastic Compliance Matrix: (Units=1/GPa)
#
#
# Indices 1 2 3 4 5 6 
#
# 1 0.010000 -0.001035 -0.001141 0.000000 0.000000 0.000000
# 2 -0.001035 0.010000 -0.001141 0.000000 0.000000 0.000000
# 3 -0.001141 -0.001141 0.016714 0.000000 0.000000 0.000000
# 4 0.000000 0.000000 0.000000 0.039306 0.000000 0.000000
# 5 0.000000 0.000000 0.000000 0.000000 0.039306 0.000000
# 6 0.000000 0.000000 0.000000 0.000000 0.000000 0.062258
#
#
# Mechanical properties :
#
#
# Convention : Reuss Voigt Hill
#
# Bulk Modulus (GPa) = 33.24340 35.43398 34.33869
# Shear Modulus (GPa) = 25.74070 29.26069 27.50070
#
# Velocity S-wave (km/s) = 3.33484 3.55555 3.44696
# Velocity P-wave (km/s) = 5.40286 5.67142 5.53877
#
# Compressibility (1/GPa) = 0.03008116
#
# Stress axis : x y z
#
# Youngs Moduli (GPa) = 99.99716 99.99629 59.83023
#
# Poissons Ratio (x) = 0.10349 0.06826
# Poissons Ratio (y) = 0.10349 0.06826
# Poissons Ratio (z) = 0.11409 0.11408
#
# Static dielectric constant tensor:
#      x y z
#    x 1.937360 0.000000 0.000000 
#    y 0.000000 1.937360 0.000000 
#    z 0.000000 0.000000 1.993190 
# 
# From -- ./inp_files/11725.got.cif
#   From: 2010.05.17/outbox.cif.g08.bks.cpg/sg141_6_cif.got.tgz:11725.got - 2010.05.20 13:30:51.
