data_PCOD9573787
_publ_section_title
;
Structure prediction by ZEFSAII (Michael W. Deem and Ramdas Pophale) SiO2 
 PCOD9573787
Probable space group: I 41/A C D
;
_chemical_formula_sum "Si O2"
_cell_formula_units_Z 176
_cell_length_a 24.680436
_cell_length_b 24.680436
_cell_length_c 14.193206
_cell_angle_alpha 90.000000
_cell_angle_beta 90.000000
_cell_angle_gamma 90.000000
_cell_volume 8645.421292
_symmetry_space_group_name_H-M "I 41/A C D"
_symmetry_group_IT_number 142
_space_group.IT_coordinate_system_code '2'
_symmetry_cell_setting 'tetragonal'
loop_
_space_group_symop_operation_xyz
x,y,z
1/4-y,3/4+x,1/4+z
-x,1/2-y,z
1/4+y,1/4-x,3/4+z
x,-y,1/2-z
1/2-x,y,-z
3/4+y,1/4+x,1/4-z
1/4-y,1/4-x,1/4-z
-x,-y,-z
3/4+y,1/4-x,3/4-z
x,1/2+y,-z
3/4-y,3/4+x,1/4-z
-x,y,1/2+z
1/2+x,-y,z
1/4-y,3/4-x,3/4+z
3/4+y,3/4+x,3/4+z
1/2+x,1/2+y,1/2+z
3/4-y,1/4+x,3/4+z
1/2-x,-y,1/2+z
3/4+y,3/4-x,1/4+z
1/2+x,1/2-y,-z
-x,1/2+y,1/2-z
1/4+y,3/4+x,3/4-z
3/4-y,3/4-x,3/4-z
1/2-x,1/2-y,1/2-z
1/4+y,3/4-x,1/4-z
1/2+x,y,1/2-z
1/4-y,1/4+x,3/4-z
1/2-x,1/2+y,z
x,1/2-y,1/2+z
3/4-y,1/4-x,1/4+z
1/4+y,1/4+x,1/4+z
loop_
_atom_site_type_symbol
_atom_site_label
_atom_site_fract_x
_atom_site_fract_y
_atom_site_fract_z
Si Si1 0.638730 0.754600 0.294770
Si Si2 0.674203 0.580365 0.428712
Si Si3 0.032003 0.632612 0.347504
Si Si4 0.432822 0.860368 0.791724
Si Si5 0.704332 0.545669 0.625000
Si Si6 0.928570 0.554204 0.692633
O O1 0.649605 0.726212 0.195481
O O2 0.602843 0.716300 0.361875
O O3 0.605842 0.809535 0.274839
O O4 0.686480 0.775051 0.363711
O O5 0.662533 0.644687 0.438032
O O6 0.668378 0.560054 0.535188
O O7 0.733190 0.559688 0.397322
O O8 0.628750 0.556796 0.359866
O O9 0.060712 0.689289 0.375000
O O10 0.068497 0.602123 0.270002
O O11 0.974597 0.636105 0.294084
O O12 0.937064 0.500000 0.750000
#
# Coordination Sequence:
#
# PCOD9573787 Si02
#       6
#    32  32  32  32  16  32
#     4  10  21  39  62  90 135 176 222 282 330 403
#     4  10  23  43  67  98 131 164 221 287 334 417
#     4  11  23  40  65  96 132 183 231 278 346 404
#     4  10  22  39  62  97 133 171 225 279 335 402
#     4  10  24  44  70 100 119 178 222 272 371 402
#     4  10  24  41  62  97 134 174 225 277 342 411
#
# _framework density 20.357596999999998
#
# number of rings (size 3 to 8) (size 9 to 14) (size 15 to 20)
#    0.000    1.818    0.000    3.818    7.636    6.909 
#   13.091    0.000    0.000    0.000    0.000    0.000 
#    0.000    0.000    0.000    0.000    0.000    0.000 
#
# Total GULP energy -490911.360981 kJ/mol
# GULP energy per Si atom -5578.538193 kJ/mol
# Density = 2.031126 g / cm^3
# Si number density = 20.357597 Si / 1000 Ang^3
#
#
#
# Elastic Constant Matrix: (Units=GPa)
#
#
# Indices 1 2 3 4 5 6 
#
# 1 78.2951 32.5152 38.1319 0.0000 0.0000 0.0000
# 2 32.5152 78.2917 38.1284 0.0000 0.0000 0.0000
# 3 38.1319 38.1284 166.6338 0.0000 0.0000 0.0000
# 4 0.0000 0.0000 0.0000 23.5493 0.0000 0.0000
# 5 0.0000 0.0000 0.0000 0.0000 23.5480 0.0000
# 6 0.0000 0.0000 0.0000 0.0000 0.0000 10.6171
#
#
#
# Elastic Compliance Matrix: (Units=1/GPa)
#
#
# Indices 1 2 3 4 5 6 
#
# 1 0.016278 -0.005567 -0.002451 0.000000 0.000000 0.000000
# 2 -0.005567 0.016278 -0.002451 0.000000 0.000000 0.000000
# 3 -0.002451 -0.002451 0.007123 0.000000 0.000000 0.000000
# 4 0.000000 0.000000 0.000000 0.042464 0.000000 0.000000
# 5 0.000000 0.000000 0.000000 0.000000 0.042467 0.000000
# 6 0.000000 0.000000 0.000000 0.000000 0.000000 0.094188
#
#
# Mechanical properties :
#
#
# Convention : Reuss Voigt Hill
#
# Bulk Modulus (GPa) = 53.35736 60.08573 56.72154
# Shear Modulus (GPa) = 20.32671 25.83921 23.08296
#
# Velocity S-wave (km/s) = 3.16331 3.56654 3.37096
# Velocity P-wave (km/s) = 6.29356 6.82199 6.56310
#
# Compressibility (1/GPa) = 0.01874156
#
# Stress axis : x y z
#
# Youngs Moduli (GPa) = 61.43361 61.43200 140.39199
#
# Poissons Ratio (x) = 0.34196 0.34413
# Poissons Ratio (y) = 0.34197 0.34408
# Poissons Ratio (z) = 0.15059 0.15056
#
# Static dielectric constant tensor:
#      x y z
#    x 1.755300 0.000000 0.000000 
#    y 0.000000 1.755310 0.000000 
#    z 0.000000 0.000000 1.661650 
# 
# From -- ./inp_files/5562.got.cif
#   From: 2010.05.17/outbox.cif.g08.bks.cpg/sg142_3_cif.got.tgz:5562.got - 2010.05.20 13:39:18.
