data_PCOD9573860
_publ_section_title
;
Structure prediction by ZEFSAII (Michael W. Deem and Ramdas Pophale) SiO2 
 PCOD9573860
Probable space group: I 41/A C D
;
_chemical_formula_sum "Si O2"
_cell_formula_units_Z 152
_cell_length_a 16.607823
_cell_length_b 16.607823
_cell_length_c 25.637799
_cell_angle_alpha 90.000000
_cell_angle_beta 90.000000
_cell_angle_gamma 90.000000
_cell_volume 7071.412203
_symmetry_space_group_name_H-M "I 41/A C D"
_symmetry_group_IT_number 142
_space_group.IT_coordinate_system_code '2'
_symmetry_cell_setting 'tetragonal'
loop_
_space_group_symop_operation_xyz
x,y,z
1/4-y,3/4+x,1/4+z
-x,1/2-y,z
1/4+y,1/4-x,3/4+z
x,-y,1/2-z
1/2-x,y,-z
3/4+y,1/4+x,1/4-z
1/4-y,1/4-x,1/4-z
-x,-y,-z
3/4+y,1/4-x,3/4-z
x,1/2+y,-z
3/4-y,3/4+x,1/4-z
-x,y,1/2+z
1/2+x,-y,z
1/4-y,3/4-x,3/4+z
3/4+y,3/4+x,3/4+z
1/2+x,1/2+y,1/2+z
3/4-y,1/4+x,3/4+z
1/2-x,-y,1/2+z
3/4+y,3/4-x,1/4+z
1/2+x,1/2-y,-z
-x,1/2+y,1/2-z
1/4+y,3/4+x,3/4-z
3/4-y,3/4-x,3/4-z
1/2-x,1/2-y,1/2-z
1/4+y,3/4-x,1/4-z
1/2+x,y,1/2-z
1/4-y,1/4+x,3/4-z
1/2-x,1/2+y,z
x,1/2-y,1/2+z
3/4-y,1/4-x,1/4+z
1/4+y,1/4+x,1/4+z
loop_
_atom_site_type_symbol
_atom_site_label
_atom_site_fract_x
_atom_site_fract_y
_atom_site_fract_z
Si Si1 0.760712 0.607944 0.332806
Si Si2 0.250000 0.405764 0.500000
Si Si3 0.607083 0.310486 0.035819
Si Si4 0.671631 0.251543 0.286538
Si Si5 0.379613 0.405444 0.738171
Si Si6 0.500000 0.250000 0.625000
O O1 0.796563 0.546563 0.375000
O O2 0.792713 0.565260 0.280118
O O3 0.801622 0.696672 0.335838
O O4 0.667561 0.613810 0.316349
O O5 0.306654 0.354963 0.538848
O O6 0.630249 0.221224 0.019237
O O7 0.555887 0.304488 0.088198
O O8 0.548834 0.351985 0.993004
O O9 0.750000 0.250000 0.250000
O O10 0.650297 0.346047 0.285026
O O11 0.373053 0.500000 0.750000
#
# Coordination Sequence:
#
# PCOD9573860 Si02
#       6
#    32  16  32  32  32   8
#     4  10  22  39  62  91 126 172 224 274 330 416
#     4  10  22  40  58  86 124 166 214 264 340 396
#     4  11  22  37  60  94 127 166 212 274 339 401
#     4   9  20  39  63  87 124 176 215 269 340 405
#     4  11  20  39  63  92 129 173 222 275 346 405
#     4  12  24  36  64 100 126 164 224 288 328 404
#
# _framework density 21.494999
#
# number of rings (size 3 to 8) (size 9 to 14) (size 15 to 20)
#    0.000    1.684    4.211    0.000    2.947    0.000 
#    0.000    2.105    0.000    5.053    0.000    0.000 
#    0.000    0.000    0.000    0.000    0.000    0.000 
#
# Total GULP energy -423352.034754 kJ/mol
# GULP energy per Si atom -5570.421510 kJ/mol
# Density = 2.144608 g / cm^3
# Si number density = 21.494999 Si / 1000 Ang^3
#
#
#
# Elastic Constant Matrix: (Units=GPa)
#
#
# Indices 1 2 3 4 5 6 
#
# 1 130.6021 29.4868 5.7953 0.0000 0.0000 0.0000
# 2 29.4868 130.6021 5.7953 0.0000 0.0000 0.0000
# 3 5.7953 5.7953 23.8887 0.0000 0.0000 0.0000
# 4 0.0000 0.0000 0.0000 23.6236 0.0000 0.0000
# 5 0.0000 0.0000 0.0000 0.0000 23.6236 0.0000
# 6 0.0000 0.0000 0.0000 0.0000 0.0000 39.6779
#
#
#
# Elastic Compliance Matrix: (Units=1/GPa)
#
#
# Indices 1 2 3 4 5 6 
#
# 1 0.008124 -0.001766 -0.001542 0.000000 0.000000 0.000000
# 2 -0.001766 0.008124 -0.001542 0.000000 0.000000 0.000000
# 3 -0.001542 -0.001542 0.042609 0.000000 0.000000 0.000000
# 4 0.000000 0.000000 0.000000 0.042331 0.000000 0.000000
# 5 0.000000 0.000000 0.000000 0.000000 0.042331 0.000000
# 6 0.000000 0.000000 0.000000 0.000000 0.000000 0.025203
#
#
# Mechanical properties :
#
#
# Convention : Reuss Voigt Hill
#
# Bulk Modulus (GPa) = 20.34356 40.80532 30.57444
# Shear Modulus (GPa) = 25.66633 33.65271 29.65952
#
# Velocity S-wave (km/s) = 3.45927 3.96107 3.71864
# Velocity P-wave (km/s) = 5.04383 6.32020 5.71774
#
# Compressibility (1/GPa) = 0.04915561
#
# Stress axis : x y z
#
# Youngs Moduli (GPa) = 123.09272 123.09272 23.46915
#
# Poissons Ratio (x) = 0.21735 0.03620
# Poissons Ratio (y) = 0.21735 0.03620
# Poissons Ratio (z) = 0.18987 0.18987
#
# Static dielectric constant tensor:
#      x y z
#    x 1.846970 0.000000 0.000000 
#    y 0.000000 1.846970 0.000000 
#    z 0.000000 0.000000 1.805160 
# 
# From -- ./inp_files/12469.got.cif
#   From: 2010.05.17/outbox.cif.g08.bks.cpg/sg142_7_cif.got.tgz:12469.got - 2010.05.20 13:39:18.
