data_PCOD9573187
_publ_section_title
;
Structure prediction by ZEFSAII (Michael W. Deem and Ramdas Pophale) SiO2 
 PCOD9573187
Probable space group: I 41/A M D
;
_chemical_formula_sum "Si O2"
_cell_formula_units_Z 112
_cell_length_a 14.085113
_cell_length_b 14.085113
_cell_length_c 22.671165
_cell_angle_alpha 90.000000
_cell_angle_beta 90.000000
_cell_angle_gamma 90.000000
_cell_volume 4497.741679
_symmetry_space_group_name_H-M "I 41/A M D"
_symmetry_group_IT_number 141
_space_group.IT_coordinate_system_code '2'
_symmetry_cell_setting 'tetragonal'
loop_
_space_group_symop_operation_xyz
x,y,z
1/4-y,3/4+x,1/4+z
-x,1/2-y,z
1/4+y,1/4-x,3/4+z
x,-y,-z
-x,1/2+y,-z
1/4+y,3/4+x,1/4-z
1/4-y,1/4-x,3/4-z
-x,-y,-z
3/4+y,1/4-x,3/4-z
x,1/2+y,-z
3/4-y,3/4+x,1/4-z
-x,y,z
x,1/2-y,z
3/4-y,1/4-x,3/4+z
3/4+y,3/4+x,1/4+z
1/2+x,1/2+y,1/2+z
3/4-y,1/4+x,3/4+z
1/2-x,-y,1/2+z
3/4+y,3/4-x,1/4+z
1/2+x,1/2-y,1/2-z
1/2-x,y,1/2-z
3/4+y,1/4+x,3/4-z
3/4-y,3/4-x,1/4-z
1/2-x,1/2-y,1/2-z
1/4+y,3/4-x,1/4-z
1/2+x,y,1/2-z
1/4-y,1/4+x,3/4-z
1/2-x,1/2+y,1/2+z
1/2+x,-y,1/2+z
1/4-y,3/4-x,1/4+z
1/4+y,1/4+x,3/4+z
loop_
_atom_site_type_symbol
_atom_site_label
_atom_site_fract_x
_atom_site_fract_y
_atom_site_fract_z
Si Si1 0.606767 0.136378 0.054570
Si Si2 0.294966 0.544966 0.375000
Si Si3 0.889898 0.645678 0.885468
Si Si4 0.198504 0.359125 0.989842
O O1 0.500000 0.099862 0.040522
O O2 0.603044 0.250000 0.044545
O O3 0.623455 0.126546 0.125000
O O4 0.700426 0.106570 0.018068
O O5 0.187621 0.574498 0.387468
O O6 0.341251 0.579950 0.435786
O O7 0.860528 0.750000 0.864318
O O8 0.000000 0.632051 0.870984
O O9 0.873475 0.643334 0.955537
O O10 0.211109 0.250000 0.969655
#
# Coordination Sequence:
#
# PCOD9573187 Si02
#       4
#    32  16  32  32
#     4   8  15  31  59  96 138 181 224 275 340 419
#     4  12  24  40  68 102 134 178 238 298 352 424
#     4  10  24  47  70  94 134 184 230 285 352 418
#     4  10  22  39  62  97 137 179 233 293 354 419
#
# _framework density 24.901385999999999
#
# number of rings (size 3 to 8) (size 9 to 14) (size 15 to 20)
#    0.000    2.286    0.000    2.571    2.000    4.571 
#    0.000    2.857    0.000    7.714    0.000    0.000 
#    0.000    0.000    0.000    0.000    0.000    0.000 
#
# Total GULP energy -313164.413398 kJ/mol
# GULP energy per Si atom -5592.221668 kJ/mol
# Density = 2.484471 g / cm^3
# Si number density = 24.901386 Si / 1000 Ang^3
#
#
#
# Elastic Constant Matrix: (Units=GPa)
#
#
# Indices 1 2 3 4 5 6 
#
# 1 100.8609 34.8199 5.0013 0.0000 0.0000 0.0000
# 2 34.8199 100.8605 5.0013 0.0000 0.0000 0.0000
# 3 5.0013 5.0013 95.2793 0.0000 0.0000 0.0000
# 4 0.0000 0.0000 0.0000 2.7286 0.0000 0.0000
# 5 0.0000 0.0000 0.0000 0.0000 2.7292 0.0000
# 6 0.0000 0.0000 0.0000 0.0000 0.0000 21.6487
#
#
#
# Elastic Compliance Matrix: (Units=1/GPa)
#
#
# Indices 1 2 3 4 5 6 
#
# 1 0.011271 -0.003872 -0.000388 0.000000 0.000000 0.000000
# 2 -0.003872 0.011271 -0.000388 0.000000 0.000000 0.000000
# 3 -0.000388 -0.000388 0.010536 0.000000 0.000000 0.000000
# 4 0.000000 0.000000 0.000000 0.366490 0.000000 0.000000
# 5 0.000000 0.000000 0.000000 0.000000 0.366408 0.000000
# 6 0.000000 0.000000 0.000000 0.000000 0.000000 0.046192
#
#
# Mechanical properties :
#
#
# Convention : Reuss Voigt Hill
#
# Bulk Modulus (GPa) = 42.05125 42.96062 42.50593
# Shear Modulus (GPa) = 6.02852 22.23317 14.13085
#
# Velocity S-wave (km/s) = 1.55763 2.99130 2.38475
# Velocity P-wave (km/s) = 4.48985 5.40558 4.96885
#
# Compressibility (1/GPa) = 0.02378051
#
# Stress axis : x y z
#
# Youngs Moduli (GPa) = 88.72720 88.72688 94.91060
#
# Poissons Ratio (x) = 0.34352 0.03686
# Poissons Ratio (y) = 0.34352 0.03686
# Poissons Ratio (z) = 0.03446 0.03446
#
# Static dielectric constant tensor:
#      x y z
#    x 2.001880 0.000000 0.000000 
#    y 0.000000 2.001880 0.000000 
#    z 0.000000 0.000000 1.976870 
# 
# From -- ./inp_files/11134.got.cif
#   From: 2010.05.17/outbox.cif.g08.bks.cpg/sg141_6_cif.got.tgz:11134.got - 2010.05.20 13:30:51.
