data_PCOD9573407
_publ_section_title
;
Structure prediction by ZEFSAII (Michael W. Deem and Ramdas Pophale) SiO2 
 PCOD9573407
Probable space group: I 41/A C D
;
_chemical_formula_sum "Si O2"
_cell_formula_units_Z 160
_cell_length_a 16.293423
_cell_length_b 16.293423
_cell_length_c 29.099382
_cell_angle_alpha 90.000000
_cell_angle_beta 90.000000
_cell_angle_gamma 90.000000
_cell_volume 7725.176858
_symmetry_space_group_name_H-M "I 41/A C D"
_symmetry_group_IT_number 142
_space_group.IT_coordinate_system_code '2'
_symmetry_cell_setting 'tetragonal'
loop_
_space_group_symop_operation_xyz
x,y,z
1/4-y,3/4+x,1/4+z
-x,1/2-y,z
1/4+y,1/4-x,3/4+z
x,-y,1/2-z
1/2-x,y,-z
3/4+y,1/4+x,1/4-z
1/4-y,1/4-x,1/4-z
-x,-y,-z
3/4+y,1/4-x,3/4-z
x,1/2+y,-z
3/4-y,3/4+x,1/4-z
-x,y,1/2+z
1/2+x,-y,z
1/4-y,3/4-x,3/4+z
3/4+y,3/4+x,3/4+z
1/2+x,1/2+y,1/2+z
3/4-y,1/4+x,3/4+z
1/2-x,-y,1/2+z
3/4+y,3/4-x,1/4+z
1/2+x,1/2-y,-z
-x,1/2+y,1/2-z
1/4+y,3/4+x,3/4-z
3/4-y,3/4-x,3/4-z
1/2-x,1/2-y,1/2-z
1/4+y,3/4-x,1/4-z
1/2+x,y,1/2-z
1/4-y,1/4+x,3/4-z
1/2-x,1/2+y,z
x,1/2-y,1/2+z
3/4-y,1/4-x,1/4+z
1/4+y,1/4+x,1/4+z
loop_
_atom_site_type_symbol
_atom_site_label
_atom_site_fract_x
_atom_site_fract_y
_atom_site_fract_z
Si Si1 0.152502 0.219560 0.008296
Si Si2 0.494488 0.380509 0.363640
Si Si3 0.833020 0.880193 0.532818
Si Si4 0.756124 0.868762 0.632747
Si Si5 0.347383 0.043500 0.012648
O O1 0.142049 0.249076 0.059639
O O2 0.250000 0.209323 0.000000
O O3 0.122599 0.293764 0.976509
O O4 0.114691 0.129588 0.003220
O O5 0.559192 0.309192 0.375000
O O6 0.404345 0.345656 0.375000
O O7 0.528096 0.465156 0.384676
O O8 0.750000 0.876224 0.500000
O O9 0.810048 0.881487 0.586696
O O10 0.877598 0.961336 0.513386
O O11 0.681240 0.931240 0.625000
O O12 0.791126 0.891208 0.682477
O O13 0.250000 0.044360 0.000000
#
# Coordination Sequence:
#
# PCOD9573407 Si02
#       5
#    32  32  32  32  32
#     4  10  19  37  55  87 132 156 203 279 334 378
#     4  10  20  35  59  86 114 163 216 262 321 387
#     4  10  16  32  56  84 123 170 198 262 343 381
#     4  11  17  32  56  84 124 159 221 258 314 406
#     4  10  20  32  55  94 124 163 212 266 334 396
#
# _framework density 20.711500000000001
#
# number of rings (size 3 to 8) (size 9 to 14) (size 15 to 20)
#    0.000    1.800    8.000    1.200    0.000    0.000 
#    7.200    1.000    0.000    4.800    0.000    0.000 
#    0.000    0.000    0.000    0.000    0.000    0.000 
#
# Total GULP energy -445450.441628 kJ/mol
# GULP energy per Si atom -5568.130520 kJ/mol
# Density = 2.066436 g / cm^3
# Si number density = 20.711500 Si / 1000 Ang^3
#
#
#
# Elastic Constant Matrix: (Units=GPa)
#
#
# Indices 1 2 3 4 5 6 
#
# 1 63.5726 16.3570 31.1197 0.0000 0.0000 0.0000
# 2 16.3570 63.5720 31.1208 0.0000 0.0000 0.0000
# 3 31.1197 31.1208 151.7365 0.0000 0.0000 0.0000
# 4 0.0000 0.0000 0.0000 10.3889 0.0000 0.0000
# 5 0.0000 0.0000 0.0000 0.0000 10.3926 0.0000
# 6 0.0000 0.0000 0.0000 0.0000 0.0000 -0.9161
#
#
#
# Elastic Compliance Matrix: (Units=1/GPa)
#
#
# Indices 1 2 3 4 5 6 
#
# 1 0.018034 -0.003145 -0.003054 0.000000 0.000000 0.000000
# 2 -0.003145 0.018034 -0.003054 0.000000 0.000000 0.000000
# 3 -0.003054 -0.003054 0.007843 0.000000 0.000000 0.000000
# 4 0.000000 0.000000 0.000000 0.096256 0.000000 0.000000
# 5 0.000000 0.000000 0.000000 0.000000 0.096223 0.000000
# 6 0.000000 0.000000 0.000000 0.000000 0.000000 -1.091604
#
#
# Mechanical properties :
#
#
# Convention : Reuss Voigt Hill
#
# Bulk Modulus (GPa) = 39.36039 48.45287 43.90663
# Shear Modulus (GPa) = -6.03690 17.32533 5.64421
#
# Velocity S-wave (km/s) = -1.70912 2.89538 1.65260
# Velocity P-wave (km/s) = 3.89238 5.88410 4.98865
#
# Compressibility (1/GPa) = 0.02540625
#
# Stress axis : x y z
#
# Youngs Moduli (GPa) = 55.45058 55.44957 127.50339
#
# Poissons Ratio (x) = 0.17441 0.38933
# Poissons Ratio (y) = 0.17441 0.38936
# Poissons Ratio (z) = 0.16932 0.16933
#
# Static dielectric constant tensor:
#      x y z
#    x 1.645620 0.000000 0.000000 
#    y 0.000000 1.645650 0.000000 
#    z 0.000000 0.000000 1.746640 
# 
# From -- ./inp_files/12429.got.cif
#   From: 2010.05.17/outbox.cif.g08.bks.cpg/sg142_7_cif.got.tgz:12429.got - 2010.05.20 13:39:18.
