data_PCOD9573811
_publ_section_title
;
Structure prediction by ZEFSAII (Michael W. Deem and Ramdas Pophale) SiO2 
 PCOD9573811
Probable space group: I 41/A C D
;
_chemical_formula_sum "Si O2"
_cell_formula_units_Z 144
_cell_length_a 19.796342
_cell_length_b 19.796342
_cell_length_c 17.217181
_cell_angle_alpha 90.000000
_cell_angle_beta 90.000000
_cell_angle_gamma 90.000000
_cell_volume 6747.329844
_symmetry_space_group_name_H-M "I 41/A C D"
_symmetry_group_IT_number 142
_space_group.IT_coordinate_system_code '2'
_symmetry_cell_setting 'tetragonal'
loop_
_space_group_symop_operation_xyz
x,y,z
1/4-y,3/4+x,1/4+z
-x,1/2-y,z
1/4+y,1/4-x,3/4+z
x,-y,1/2-z
1/2-x,y,-z
3/4+y,1/4+x,1/4-z
1/4-y,1/4-x,1/4-z
-x,-y,-z
3/4+y,1/4-x,3/4-z
x,1/2+y,-z
3/4-y,3/4+x,1/4-z
-x,y,1/2+z
1/2+x,-y,z
1/4-y,3/4-x,3/4+z
3/4+y,3/4+x,3/4+z
1/2+x,1/2+y,1/2+z
3/4-y,1/4+x,3/4+z
1/2-x,-y,1/2+z
3/4+y,3/4-x,1/4+z
1/2+x,1/2-y,-z
-x,1/2+y,1/2-z
1/4+y,3/4+x,3/4-z
3/4-y,3/4-x,3/4-z
1/2-x,1/2-y,1/2-z
1/4+y,3/4-x,1/4-z
1/2+x,y,1/2-z
1/4-y,1/4+x,3/4-z
1/2-x,1/2+y,z
x,1/2-y,1/2+z
3/4-y,1/4-x,1/4+z
1/4+y,1/4+x,1/4+z
loop_
_atom_site_type_symbol
_atom_site_label
_atom_site_fract_x
_atom_site_fract_y
_atom_site_fract_z
Si Si1 0.101726 0.725390 0.154312
Si Si2 0.287097 0.085925 0.667447
Si Si3 0.082155 0.008292 0.338047
Si Si4 0.460272 0.068711 0.977306
Si Si5 0.325700 0.500000 0.750000
O O1 0.077415 0.791744 0.107697
O O2 0.172268 0.698550 0.121302
O O3 0.118289 0.746030 0.243211
O O4 0.337621 0.022652 0.658985
O O5 0.319646 0.143004 0.720546
O O6 0.273473 0.111916 0.579445
O O7 0.221751 0.059201 0.714082
O O8 0.061121 0.000000 0.250000
O O9 0.060382 0.944368 0.389133
O O10 0.500000 0.000000 0.000000
#
# Coordination Sequence:
#
# PCOD9573811 Si02
#       5
#    32  32  32  32  16
#     4  10  21  41  65  86 120 169 214 259 317 379
#     4  11  19  37  57  91 126 160 202 252 315 382
#     4  11  22  38  63  93 124 162 208 259 317 380
#     4  10  22  40  61  86 123 166 207 257 310 375
#     4  10  22  32  60  92 124 162 198 254 324 374
#
# _framework density 21.341774000000001
#
# number of rings (size 3 to 8) (size 9 to 14) (size 15 to 20)
#    0.000    1.556    5.556    0.000    0.000    0.889 
#    8.000    1.111    0.000    2.667    0.000    0.000 
#    0.000    0.000    0.000    0.000    0.000    0.000 
#
# Total GULP energy -401740.847142 kJ/mol
# GULP energy per Si atom -5579.733988 kJ/mol
# Density = 2.129320 g / cm^3
# Si number density = 21.341774 Si / 1000 Ang^3
#
#
#
# Elastic Constant Matrix: (Units=GPa)
#
#
# Indices 1 2 3 4 5 6 
#
# 1 36.6147 16.2397 13.1387 0.0000 0.0000 0.0000
# 2 16.2397 36.6147 13.1387 0.0000 0.0000 0.0000
# 3 13.1387 13.1387 168.0237 0.0000 0.0000 0.0000
# 4 0.0000 0.0000 0.0000 23.1696 0.0000 0.0000
# 5 0.0000 0.0000 0.0000 0.0000 23.1696 0.0000
# 6 0.0000 0.0000 0.0000 0.0000 0.0000 24.3300
#
#
#
# Elastic Compliance Matrix: (Units=1/GPa)
#
#
# Indices 1 2 3 4 5 6 
#
# 1 0.034382 -0.014697 -0.001539 0.000000 0.000000 0.000000
# 2 -0.014697 0.034382 -0.001539 0.000000 0.000000 0.000000
# 3 -0.001539 -0.001539 0.006192 0.000000 0.000000 0.000000
# 4 0.000000 0.000000 0.000000 0.043160 0.000000 0.000000
# 5 0.000000 0.000000 0.000000 0.000000 0.043160 0.000000
# 6 0.000000 0.000000 0.000000 0.000000 0.000000 0.041102
#
#
# Mechanical properties :
#
#
# Convention : Reuss Voigt Hill
#
# Bulk Modulus (GPa) = 25.37719 36.25414 30.81566
# Shear Modulus (GPa) = 19.91512 27.38292 23.64902
#
# Velocity S-wave (km/s) = 3.05807 3.58588 3.33244
# Velocity P-wave (km/s) = 4.93819 5.84542 5.41085
#
# Compressibility (1/GPa) = 0.03940547
#
# Stress axis : x y z
#
# Youngs Moduli (GPa) = 29.08457 29.08457 161.49157
#
# Poissons Ratio (x) = 0.42746 0.24858
# Poissons Ratio (y) = 0.42746 0.24858
# Poissons Ratio (z) = 0.04477 0.04477
#
# Static dielectric constant tensor:
#      x y z
#    x 1.880740 0.000000 0.000000 
#    y 0.000000 1.880740 0.000000 
#    z 0.000000 0.000000 1.776250 
# 
# From -- ./inp_files/7298.got.cif
#   From: 2010.05.17/outbox.cif.g08.bks.cpg/sg142_4_cif.got.tgz:7298.got - 2010.05.20 13:39:18.
