data_PCOD9573536
_publ_section_title
;
Structure prediction by ZEFSAII (Michael W. Deem and Ramdas Pophale) SiO2 
 PCOD9573536
Probable space group: I 41/A C D
;
_chemical_formula_sum "Si O2"
_cell_formula_units_Z 128
_cell_length_a 15.364406
_cell_length_b 15.364406
_cell_length_c 27.289000
_cell_angle_alpha 90.000000
_cell_angle_beta 90.000000
_cell_angle_gamma 90.000000
_cell_volume 6441.977014
_symmetry_space_group_name_H-M "I 41/A C D"
_symmetry_group_IT_number 142
_space_group.IT_coordinate_system_code '2'
_symmetry_cell_setting 'tetragonal'
loop_
_space_group_symop_operation_xyz
x,y,z
1/4-y,3/4+x,1/4+z
-x,1/2-y,z
1/4+y,1/4-x,3/4+z
x,-y,1/2-z
1/2-x,y,-z
3/4+y,1/4+x,1/4-z
1/4-y,1/4-x,1/4-z
-x,-y,-z
3/4+y,1/4-x,3/4-z
x,1/2+y,-z
3/4-y,3/4+x,1/4-z
-x,y,1/2+z
1/2+x,-y,z
1/4-y,3/4-x,3/4+z
3/4+y,3/4+x,3/4+z
1/2+x,1/2+y,1/2+z
3/4-y,1/4+x,3/4+z
1/2-x,-y,1/2+z
3/4+y,3/4-x,1/4+z
1/2+x,1/2-y,-z
-x,1/2+y,1/2-z
1/4+y,3/4+x,3/4-z
3/4-y,3/4-x,3/4-z
1/2-x,1/2-y,1/2-z
1/4+y,3/4-x,1/4-z
1/2+x,y,1/2-z
1/4-y,1/4+x,3/4-z
1/2-x,1/2+y,z
x,1/2-y,1/2+z
3/4-y,1/4-x,1/4+z
1/4+y,1/4+x,1/4+z
loop_
_atom_site_type_symbol
_atom_site_label
_atom_site_fract_x
_atom_site_fract_y
_atom_site_fract_z
Si Si1 0.665409 0.918824 0.182272
Si Si2 0.476586 0.155619 0.001151
Si Si3 0.047953 0.579564 0.672176
Si Si4 0.631654 0.396852 0.565576
O O1 0.650090 0.900090 0.125000
O O2 0.646437 0.833488 0.213910
O O3 0.767413 0.940331 0.188889
O O4 0.602114 0.998848 0.193579
O O5 0.500000 0.250000 0.979339
O O6 0.416486 0.176296 0.048476
O O7 0.564039 0.110914 0.020672
O O8 0.076017 0.590615 0.615681
O O9 0.944626 0.568989 0.678852
#
# Coordination Sequence:
#
# PCOD9573536 Si02
#       4
#    32  32  32  32
#     4  10  22  37  55  88 127 152 194 244 301 363
#     4  10  20  35  61  85 116 157 198 239 298 354
#     4  10  19  36  62  87 114 152 202 253 292 349
#     4  10  19  36  63  88 113 156 203 248 299 357
#
# _framework density 19.869676999999999
#
# number of rings (size 3 to 8) (size 9 to 14) (size 15 to 20)
#    0.000    2.000    2.500    1.500    0.000    0.500 
#    0.000   12.500    5.500    0.000    0.000    0.000 
#    0.000    0.000    0.000    0.000    0.000    0.000 
#
# Total GULP energy -357284.364515 kJ/mol
# GULP energy per Si atom -5582.568196 kJ/mol
# Density = 1.982445 g / cm^3
# Si number density = 19.869677 Si / 1000 Ang^3
#
#
#
# Elastic Constant Matrix: (Units=GPa)
#
#
# Indices 1 2 3 4 5 6 
#
# 1 108.0474 73.1197 16.9539 0.0000 0.0000 0.0000
# 2 73.1197 108.0474 16.9539 0.0000 0.0000 0.0000
# 3 16.9539 16.9539 42.8405 0.0000 0.0000 0.0000
# 4 0.0000 0.0000 0.0000 -56.5830 0.0000 0.0000
# 5 0.0000 0.0000 0.0000 0.0000 -56.5830 0.0000
# 6 0.0000 0.0000 0.0000 0.0000 0.0000 29.2790
#
#
#
# Elastic Compliance Matrix: (Units=1/GPa)
#
#
# Indices 1 2 3 4 5 6 
#
# 1 0.017296 -0.011335 -0.002359 0.000000 0.000000 0.000000
# 2 -0.011335 0.017296 -0.002359 0.000000 0.000000 0.000000
# 3 -0.002359 -0.002359 0.025210 0.000000 0.000000 0.000000
# 4 0.000000 0.000000 0.000000 -0.017673 0.000000 0.000000
# 5 0.000000 0.000000 0.000000 0.000000 -0.017673 0.000000
# 6 0.000000 0.000000 0.000000 0.000000 0.000000 0.034154
#
#
# Mechanical properties :
#
#
# Convention : Reuss Voigt Hill
#
# Bulk Modulus (GPa) = 36.10676 52.55450 44.33063
# Shear Modulus (GPa) = 50.02635 -6.65024 21.68805
#
# Velocity S-wave (km/s) = 5.02314 -1.83145 3.30739
# Velocity P-wave (km/s) = 7.20096 4.69412 6.07818
#
# Compressibility (1/GPa) = 0.02769564
#
# Stress axis : x y z
#
# Youngs Moduli (GPa) = 57.81696 57.81696 39.66731
#
# Poissons Ratio (x) = 0.65533 0.09358
# Poissons Ratio (y) = 0.65533 0.09358
# Poissons Ratio (z) = 0.13640 0.13640
#
# Static dielectric constant tensor:
#      x y z
#    x 1.710390 0.000000 0.000000 
#    y 0.000000 1.710390 0.000000 
#    z 0.000000 0.000000 1.705360 
# 
# From -- ./inp_files/9983.got.cif
#   From: 2010.05.17/outbox.cif.g08.bks.cpg/sg142_5_cif.got.tgz:9983.got - 2010.05.20 13:39:18.
