data_PCOD9573885
_publ_section_title
;
Structure prediction by ZEFSAII (Michael W. Deem and Ramdas Pophale) SiO2 
 PCOD9573885
Probable space group: I 41/A C D
;
_chemical_formula_sum "Si O2"
_cell_formula_units_Z 128
_cell_length_a 20.891453
_cell_length_b 20.891453
_cell_length_c 11.496825
_cell_angle_alpha 90.000000
_cell_angle_beta 90.000000
_cell_angle_gamma 90.000000
_cell_volume 5017.821560
_symmetry_space_group_name_H-M "I 41/A C D"
_symmetry_group_IT_number 142
_space_group.IT_coordinate_system_code '2'
_symmetry_cell_setting 'tetragonal'
loop_
_space_group_symop_operation_xyz
x,y,z
1/4-y,3/4+x,1/4+z
-x,1/2-y,z
1/4+y,1/4-x,3/4+z
x,-y,1/2-z
1/2-x,y,-z
3/4+y,1/4+x,1/4-z
1/4-y,1/4-x,1/4-z
-x,-y,-z
3/4+y,1/4-x,3/4-z
x,1/2+y,-z
3/4-y,3/4+x,1/4-z
-x,y,1/2+z
1/2+x,-y,z
1/4-y,3/4-x,3/4+z
3/4+y,3/4+x,3/4+z
1/2+x,1/2+y,1/2+z
3/4-y,1/4+x,3/4+z
1/2-x,-y,1/2+z
3/4+y,3/4-x,1/4+z
1/2+x,1/2-y,-z
-x,1/2+y,1/2-z
1/4+y,3/4+x,3/4-z
3/4-y,3/4-x,3/4-z
1/2-x,1/2-y,1/2-z
1/4+y,3/4-x,1/4-z
1/2+x,y,1/2-z
1/4-y,1/4+x,3/4-z
1/2-x,1/2+y,z
x,1/2-y,1/2+z
3/4-y,1/4-x,1/4+z
1/4+y,1/4+x,1/4+z
loop_
_atom_site_type_symbol
_atom_site_label
_atom_site_fract_x
_atom_site_fract_y
_atom_site_fract_z
Si Si1 0.673526 0.411804 0.504780
Si Si2 0.120128 0.276049 0.661476
Si Si3 0.527546 0.378906 0.166377
Si Si4 0.242466 0.323240 0.375441
O O1 0.750000 0.421654 0.500000
O O2 0.649332 0.399332 0.375000
O O3 0.654430 0.350307 0.582036
O O4 0.629855 0.471010 0.542312
O O5 0.095567 0.345567 0.625000
O O6 0.094144 0.263841 0.792413
O O7 0.102175 0.234964 0.546853
O O8 0.196575 0.282797 0.666391
O O9 0.477772 0.437109 0.154001
O O10 0.250000 0.356386 0.500000
#
# Coordination Sequence:
#
# PCOD9573885 Si02
#       4
#    32  32  32  32
#     4  12  25  40  65 100 137 177 220 277 347 415
#     4  11  23  41  68  96 127 170 217 273 334 395
#     4  11  22  42  67  95 128 173 227 269 320 401
#     4  10  22  41  66  95 131 172 217 270 330 400
#
# _framework density 25.509079
#
# number of rings (size 3 to 8) (size 9 to 14) (size 15 to 20)
#    0.000    1.000    0.000    9.000    0.000    2.000 
#    0.000    0.000    0.000   30.750    0.000    0.000 
#    0.000    0.000    0.000    0.000    0.000    0.000 
#
# Total GULP energy -357602.843555 kJ/mol
# GULP energy per Si atom -5587.544431 kJ/mol
# Density = 2.545102 g / cm^3
# Si number density = 25.509079 Si / 1000 Ang^3
#
#
#
# Elastic Constant Matrix: (Units=GPa)
#
#
# Indices 1 2 3 4 5 6 
#
# 1 53.8147 26.1862 28.4763 0.0000 0.0000 0.0000
# 2 26.1862 53.8147 28.4763 0.0000 0.0000 0.0000
# 3 28.4763 28.4763 254.5179 0.0000 0.0000 0.0000
# 4 0.0000 0.0000 0.0000 34.2142 0.0000 0.0000
# 5 0.0000 0.0000 0.0000 0.0000 34.2142 0.0000
# 6 0.0000 0.0000 0.0000 0.0000 0.0000 28.1855
#
#
#
# Elastic Compliance Matrix: (Units=1/GPa)
#
#
# Indices 1 2 3 4 5 6 
#
# 1 0.024888 -0.011306 -0.001520 0.000000 0.000000 0.000000
# 2 -0.011306 0.024888 -0.001520 0.000000 0.000000 0.000000
# 3 -0.001520 -0.001520 0.004269 0.000000 0.000000 0.000000
# 4 0.000000 0.000000 0.000000 0.029228 0.000000 0.000000
# 5 0.000000 0.000000 0.000000 0.000000 0.029228 0.000000
# 6 0.000000 0.000000 0.000000 0.000000 0.000000 0.035479
#
#
# Mechanical properties :
#
#
# Convention : Reuss Voigt Hill
#
# Bulk Modulus (GPa) = 39.44145 58.71391 49.07768
# Shear Modulus (GPa) = 27.00920 37.92334 32.46627
#
# Velocity S-wave (km/s) = 3.25746 3.85991 3.57141
# Velocity P-wave (km/s) = 5.44457 6.55225 6.02393
#
# Compressibility (1/GPa) = 0.02535404
#
# Stress axis : x y z
#
# Youngs Moduli (GPa) = 40.17992 40.17992 234.24566
#
# Poissons Ratio (x) = 0.45429 0.35595
# Poissons Ratio (y) = 0.45429 0.35595
# Poissons Ratio (z) = 0.06106 0.06106
#
# Static dielectric constant tensor:
#      x y z
#    x 2.034230 0.000000 0.000000 
#    y 0.000000 2.034230 0.000000 
#    z 0.000000 0.000000 2.103080 
# 
# From -- ./inp_files/3472.got.cif
#   From: 2010.05.17/outbox.cif.g08.bks.cpg/sg142_2_cif.got.tgz:3472.got - 2010.05.20 13:39:18.
