data_PCOD9573527
_publ_section_title
;
Structure prediction by ZEFSAII (Michael W. Deem and Ramdas Pophale) SiO2 
 PCOD9573527
Probable space group: I 41/A C D
;
_chemical_formula_sum "Si O2"
_cell_formula_units_Z 160
_cell_length_a 18.573028
_cell_length_b 18.573028
_cell_length_c 25.496161
_cell_angle_alpha 90.000000
_cell_angle_beta 90.000000
_cell_angle_gamma 90.000000
_cell_volume 8795.088620
_symmetry_space_group_name_H-M "I 41/A C D"
_symmetry_group_IT_number 142
_space_group.IT_coordinate_system_code '2'
_symmetry_cell_setting 'tetragonal'
loop_
_space_group_symop_operation_xyz
x,y,z
1/4-y,3/4+x,1/4+z
-x,1/2-y,z
1/4+y,1/4-x,3/4+z
x,-y,1/2-z
1/2-x,y,-z
3/4+y,1/4+x,1/4-z
1/4-y,1/4-x,1/4-z
-x,-y,-z
3/4+y,1/4-x,3/4-z
x,1/2+y,-z
3/4-y,3/4+x,1/4-z
-x,y,1/2+z
1/2+x,-y,z
1/4-y,3/4-x,3/4+z
3/4+y,3/4+x,3/4+z
1/2+x,1/2+y,1/2+z
3/4-y,1/4+x,3/4+z
1/2-x,-y,1/2+z
3/4+y,3/4-x,1/4+z
1/2+x,1/2-y,-z
-x,1/2+y,1/2-z
1/4+y,3/4+x,3/4-z
3/4-y,3/4-x,3/4-z
1/2-x,1/2-y,1/2-z
1/4+y,3/4-x,1/4-z
1/2+x,y,1/2-z
1/4-y,1/4+x,3/4-z
1/2-x,1/2+y,z
x,1/2-y,1/2+z
3/4-y,1/4-x,1/4+z
1/4+y,1/4+x,1/4+z
loop_
_atom_site_type_symbol
_atom_site_label
_atom_site_fract_x
_atom_site_fract_y
_atom_site_fract_z
Si Si1 0.204754 0.935020 0.785447
Si Si2 0.829945 0.217296 0.255174
Si Si3 0.478126 0.140787 0.114192
Si Si4 0.003450 0.863031 0.394818
Si Si5 0.752940 0.658542 0.884456
O O1 0.177735 0.868637 0.750295
O O2 0.247984 0.893120 0.832256
O O3 0.138741 0.969516 0.817462
O O4 0.237087 0.000000 0.750000
O O5 0.750000 0.250000 0.250000
O O6 0.861674 0.240396 0.310143
O O7 0.878100 0.247972 0.207460
O O8 0.544211 0.173576 0.146332
O O9 0.439346 0.075633 0.142725
O O10 0.079033 0.829033 0.375000
O O11 0.943031 0.806970 0.375000
O O12 0.973865 0.940437 0.374940
#
# Coordination Sequence:
#
# PCOD9573527 Si02
#       5
#    32  32  32  32  32
#     4  10  19  35  65  88 112 160 205 245 301 364
#     4  11  20  39  65  85 121 162 199 250 313 362
#     4  11  24  40  63  88 124 163 200 247 311 369
#     4  10  19  35  63  89 116 153 204 248 298 358
#     4  10  19  41  60  89 123 156 203 253 300 362
#
# _framework density 18.191970999999999
#
# number of rings (size 3 to 8) (size 9 to 14) (size 15 to 20)
#    0.000    1.600    8.000    1.200    0.000    3.200 
#    3.600    2.000    0.000    0.000    0.000    0.000 
#    0.000    0.000    0.000    0.000    0.000    0.000 
#
# Total GULP energy -445833.012110 kJ/mol
# GULP energy per Si atom -5572.912651 kJ/mol
# Density = 1.815056 g / cm^3
# Si number density = 18.191971 Si / 1000 Ang^3
#
#
#
# Elastic Constant Matrix: (Units=GPa)
#
#
# Indices 1 2 3 4 5 6 
#
# 1 97.2094 53.6575 19.6651 0.0000 0.0000 0.0000
# 2 53.6575 97.2086 19.6655 0.0000 0.0000 0.0000
# 3 19.6651 19.6655 65.1440 0.0000 0.0000 0.0000
# 4 0.0000 0.0000 0.0000 19.4927 0.0000 0.0000
# 5 0.0000 0.0000 0.0000 0.0000 19.4924 0.0000
# 6 0.0000 0.0000 0.0000 0.0000 0.0000 23.5312
#
#
#
# Elastic Compliance Matrix: (Units=1/GPa)
#
#
# Indices 1 2 3 4 5 6 
#
# 1 0.015078 -0.007883 -0.002172 0.000000 0.000000 0.000000
# 2 -0.007883 0.015078 -0.002172 0.000000 0.000000 0.000000
# 3 -0.002172 -0.002172 0.016662 0.000000 0.000000 0.000000
# 4 0.000000 0.000000 0.000000 0.051301 0.000000 0.000000
# 5 0.000000 0.000000 0.000000 0.000000 0.051302 0.000000
# 6 0.000000 0.000000 0.000000 0.000000 0.000000 0.042497
#
#
# Mechanical properties :
#
#
# Convention : Reuss Voigt Hill
#
# Bulk Modulus (GPa) = 44.71555 49.50424 47.10989
# Shear Modulus (GPa) = 22.33873 23.60819 22.97346
#
# Velocity S-wave (km/s) = 3.50801 3.60630 3.55749
# Velocity P-wave (km/s) = 6.40635 6.67921 6.54420
#
# Compressibility (1/GPa) = 0.02236359
#
# Stress axis : x y z
#
# Youngs Moduli (GPa) = 66.32241 66.32167 60.01734
#
# Poissons Ratio (x) = 0.52284 0.13034
# Poissons Ratio (y) = 0.52284 0.13035
# Poissons Ratio (z) = 0.14404 0.14405
#
# Static dielectric constant tensor:
#      x y z
#    x 1.646310 0.000000 0.000000 
#    y 0.000000 1.646310 0.000000 
#    z 0.000000 0.000000 1.641730 
# 
# From -- ./inp_files/11302.got.cif
#   From: 2010.05.17/outbox.cif.g08.bks.cpg/sg142_6_cif.got.tgz:11302.got - 2010.05.20 13:39:18.
