data_PCOD9573043
_publ_section_title
;
Structure prediction by ZEFSAII (Michael W. Deem and Ramdas Pophale) SiO2 
 PCOD9573043
Probable space group: I 41/A M D
;
_chemical_formula_sum "Si O2"
_cell_formula_units_Z 176
_cell_length_a 17.518768
_cell_length_b 17.518768
_cell_length_c 30.547236
_cell_angle_alpha 90.000000
_cell_angle_beta 90.000000
_cell_angle_gamma 90.000000
_cell_volume 9375.167653
_symmetry_space_group_name_H-M "I 41/A M D"
_symmetry_group_IT_number 141
_space_group.IT_coordinate_system_code '2'
_symmetry_cell_setting 'tetragonal'
loop_
_space_group_symop_operation_xyz
x,y,z
1/4-y,3/4+x,1/4+z
-x,1/2-y,z
1/4+y,1/4-x,3/4+z
x,-y,-z
-x,1/2+y,-z
1/4+y,3/4+x,1/4-z
1/4-y,1/4-x,3/4-z
-x,-y,-z
3/4+y,1/4-x,3/4-z
x,1/2+y,-z
3/4-y,3/4+x,1/4-z
-x,y,z
x,1/2-y,z
3/4-y,1/4-x,3/4+z
3/4+y,3/4+x,1/4+z
1/2+x,1/2+y,1/2+z
3/4-y,1/4+x,3/4+z
1/2-x,-y,1/2+z
3/4+y,3/4-x,1/4+z
1/2+x,1/2-y,1/2-z
1/2-x,y,1/2-z
3/4+y,1/4+x,3/4-z
3/4-y,3/4-x,1/4-z
1/2-x,1/2-y,1/2-z
1/4+y,3/4-x,1/4-z
1/2+x,y,1/2-z
1/4-y,1/4+x,3/4-z
1/2-x,1/2+y,1/2+z
1/2+x,-y,1/2+z
1/4-y,3/4-x,1/4+z
1/4+y,1/4+x,3/4+z
loop_
_atom_site_type_symbol
_atom_site_label
_atom_site_fract_x
_atom_site_fract_y
_atom_site_fract_z
Si Si1 0.628477 0.463301 0.850224
Si Si2 0.672851 0.161391 0.026951
Si Si3 0.092425 0.450680 0.791936
Si Si4 0.000000 0.616543 0.510838
Si Si5 0.590057 0.834974 0.218151
Si Si6 0.222527 0.250000 0.173828
Si Si7 0.697942 0.947942 0.375000
O O1 0.627770 0.538878 0.819310
O O2 0.597848 0.391620 0.822569
O O3 0.573944 0.473518 0.892249
O O4 0.714954 0.442500 0.859697
O O5 0.692536 0.250000 0.033396
O O6 0.720420 0.136786 0.983708
O O7 0.582148 0.154269 0.021102
O O8 0.118602 0.382629 0.759720
O O9 0.136560 0.439783 0.836745
O O10 0.000000 0.449665 0.797268
O O11 0.000000 0.596136 0.459121
O O12 0.000000 0.544282 0.543508
O O13 0.500000 0.826994 0.225546
O O14 0.622771 0.750000 0.212495
#
# Coordination Sequence:
#
# PCOD9573043 Si02
#       7
#    32  32  32  16  32  16  16
#     4  11  21  39  60  82 119 155 197 245 297 353
#     4  10  20  40  60  80 115 161 197 250 304 349
#     4   9  21  40  58  81 122 157 185 242 306 354
#     4  11  23  34  60  88 117 149 212 242 298 368
#     4   9  18  37  64  88 110 152 201 242 295 351
#     4  11  22  40  56  86 122 160 184 264 306 346
#     4  12  24  34  58  91 117 156 202 230 298 370
#
# _framework density 18.772997
#
# number of rings (size 3 to 8) (size 9 to 14) (size 15 to 20)
#    0.000    1.818    1.818    3.545    0.000    5.818 
#    0.000    2.727    2.000    0.000    0.000    0.000 
#    0.000    0.000    0.000    0.000    0.000    0.000 
#
# Total GULP energy -490514.151926 kJ/mol
# GULP energy per Si atom -5574.024454 kJ/mol
# Density = 1.873027 g / cm^3
# Si number density = 18.772997 Si / 1000 Ang^3
#
#
#
# Elastic Constant Matrix: (Units=GPa)
#
#
# Indices 1 2 3 4 5 6 
#
# 1 85.3700 11.2326 41.2826 0.0000 0.0000 0.0000
# 2 11.2326 85.3700 41.2826 0.0000 0.0000 0.0000
# 3 41.2826 41.2826 130.6412 0.0000 0.0000 0.0000
# 4 0.0000 0.0000 0.0000 57.8536 0.0000 0.0000
# 5 0.0000 0.0000 0.0000 0.0000 57.8536 0.0000
# 6 0.0000 0.0000 0.0000 0.0000 0.0000 9.6461
#
#
#
# Elastic Compliance Matrix: (Units=1/GPa)
#
#
# Indices 1 2 3 4 5 6 
#
# 1 0.013835 0.000347 -0.004481 0.000000 0.000000 0.000000
# 2 0.000347 0.013835 -0.004481 0.000000 0.000000 0.000000
# 3 -0.004481 -0.004481 0.010487 0.000000 0.000000 0.000000
# 4 0.000000 0.000000 0.000000 0.017285 0.000000 0.000000
# 5 0.000000 0.000000 0.000000 0.000000 0.017285 0.000000
# 6 0.000000 0.000000 0.000000 0.000000 0.000000 0.103669
#
#
# Mechanical properties :
#
#
# Convention : Reuss Voigt Hill
#
# Bulk Modulus (GPa) = 47.79014 54.33073 51.06044
# Shear Modulus (GPa) = 24.92474 38.90954 31.91714
#
# Velocity S-wave (km/s) = 3.64770 4.55756 4.12778
# Velocity P-wave (km/s) = 6.57671 7.52986 7.06937
#
# Compressibility (1/GPa) = 0.02092482
#
# Stress axis : x y z
#
# Youngs Moduli (GPa) = 72.27929 72.27929 95.35750
#
# Poissons Ratio (x) = -0.02506 0.42734
# Poissons Ratio (y) = -0.02506 0.42734
# Poissons Ratio (z) = 0.32392 0.32392
#
# Static dielectric constant tensor:
#      x y z
#    x 1.636320 0.000000 0.000000 
#    y 0.000000 1.636320 0.000000 
#    z 0.000000 0.000000 1.682500 
# 
# From -- ./inp_files/14405.got.cif
#   From: 2010.05.17/outbox.cif.g08.bks.cpg/sg141_8_cif.got.tgz:14405.got - 2010.05.20 13:30:51.
