data_PCOD9573188
_publ_section_title
;
Structure prediction by ZEFSAII (Michael W. Deem and Ramdas Pophale) SiO2 
 PCOD9573188
Probable space group: I 41/A M D
;
_chemical_formula_sum "Si O2"
_cell_formula_units_Z 64
_cell_length_a 18.220374
_cell_length_b 18.220374
_cell_length_c 6.745109
_cell_angle_alpha 90.000000
_cell_angle_beta 90.000000
_cell_angle_gamma 90.000000
_cell_volume 2239.254970
_symmetry_space_group_name_H-M "I 41/A M D"
_symmetry_group_IT_number 141
_space_group.IT_coordinate_system_code '2'
_symmetry_cell_setting 'tetragonal'
loop_
_space_group_symop_operation_xyz
x,y,z
1/4-y,3/4+x,1/4+z
-x,1/2-y,z
1/4+y,1/4-x,3/4+z
x,-y,-z
-x,1/2+y,-z
1/4+y,3/4+x,1/4-z
1/4-y,1/4-x,3/4-z
-x,-y,-z
3/4+y,1/4-x,3/4-z
x,1/2+y,-z
3/4-y,3/4+x,1/4-z
-x,y,z
x,1/2-y,z
3/4-y,1/4-x,3/4+z
3/4+y,3/4+x,1/4+z
1/2+x,1/2+y,1/2+z
3/4-y,1/4+x,3/4+z
1/2-x,-y,1/2+z
3/4+y,3/4-x,1/4+z
1/2+x,1/2-y,1/2-z
1/2-x,y,1/2-z
3/4+y,1/4+x,3/4-z
3/4-y,3/4-x,1/4-z
1/2-x,1/2-y,1/2-z
1/4+y,3/4-x,1/4-z
1/2+x,y,1/2-z
1/4-y,1/4+x,3/4-z
1/2-x,1/2+y,1/2+z
1/2+x,-y,1/2+z
1/4-y,3/4-x,1/4+z
1/4+y,1/4+x,3/4+z
loop_
_atom_site_type_symbol
_atom_site_label
_atom_site_fract_x
_atom_site_fract_y
_atom_site_fract_z
Si Si1 0.079520 0.362028 0.653080
Si Si2 0.771617 0.616819 0.479590
O O1 0.154363 0.335879 0.549763
O O2 0.092652 0.450456 0.684160
O O3 0.000000 0.346552 0.567149
O O4 0.081662 0.331662 0.875000
O O5 0.804104 0.554104 0.625000
O O6 0.750000 0.595575 0.250000
#
# Coordination Sequence:
#
# PCOD9573188 Si02
#       2
#    32  32
#     4  10  23  42  65  94 131 176 228 285 342 403
#     4  10  22  39  66  99 135 175 225 282 344 408
#
# _framework density 28.580933000000002
#
# number of rings (size 3 to 8) (size 9 to 14) (size 15 to 20)
#    0.000    2.000    0.000    1.500    0.000   27.500 
#    0.000    0.000    0.000    0.000    0.000    3.500 
#    0.000   18.000    0.000    0.000    0.000    0.000 
#
# Total GULP energy -178805.095102 kJ/mol
# GULP energy per Si atom -5587.659222 kJ/mol
# Density = 2.851588 g / cm^3
# Si number density = 28.580933 Si / 1000 Ang^3
#
#
#
# Elastic Constant Matrix: (Units=GPa)
#
#
# Indices 1 2 3 4 5 6 
#
# 1 218.1835 13.1797 28.9705 0.0000 0.0000 0.0000
# 2 13.1797 218.1835 28.9705 0.0000 0.0000 0.0000
# 3 28.9705 28.9705 108.9600 0.0000 0.0000 0.0000
# 4 0.0000 0.0000 0.0000 29.5212 0.0000 0.0000
# 5 0.0000 0.0000 0.0000 0.0000 29.5212 0.0000
# 6 0.0000 0.0000 0.0000 0.0000 0.0000 -7.8641
#
#
#
# Elastic Compliance Matrix: (Units=1/GPa)
#
#
# Indices 1 2 3 4 5 6 
#
# 1 0.004754 -0.000124 -0.001231 0.000000 0.000000 0.000000
# 2 -0.000124 0.004754 -0.001231 0.000000 0.000000 0.000000
# 3 -0.001231 -0.001231 0.009832 0.000000 0.000000 0.000000
# 4 0.000000 0.000000 0.000000 0.033874 0.000000 0.000000
# 5 0.000000 0.000000 0.000000 0.000000 0.033874 0.000000
# 6 0.000000 0.000000 0.000000 0.000000 0.000000 -0.127159
#
#
# Mechanical properties :
#
#
# Convention : Reuss Voigt Hill
#
# Bulk Modulus (GPa) = 70.57788 76.39649 73.48719
# Shear Modulus (GPa) = -165.69731 41.84940 -61.92395
#
# Velocity S-wave (km/s) = -7.62238 3.83069 -4.65974
# Velocity P-wave (km/s) = 7.26084 6.80834 1.78414
#
# Compressibility (1/GPa) = 0.01416874
#
# Stress axis : x y z
#
# Youngs Moduli (GPa) = 210.33827 210.33827 101.70478
#
# Poissons Ratio (x) = 0.02602 0.12522
# Poissons Ratio (y) = 0.02602 0.12522
# Poissons Ratio (z) = 0.25896 0.25896
#
# Static dielectric constant tensor:
#      x y z
#    x 2.218120 0.000000 0.000000 
#    y 0.000000 2.218120 0.000000 
#    z 0.000000 0.000000 2.437640 
# 
# From -- ./inp_files/747.got.cif
#   From: 2010.05.17/outbox.cif.g08.bks.cpg/sg141_1_cif.got.tgz:747.got - 2010.05.20 13:30:51.
