data_PCOD9573330
_publ_section_title
;
Structure prediction by ZEFSAII (Michael W. Deem and Ramdas Pophale) SiO2 
 PCOD9573330
Probable space group: I 41/A M D
;
_chemical_formula_sum "Si O2"
_cell_formula_units_Z 84
_cell_length_a 14.650235
_cell_length_b 14.650235
_cell_length_c 19.018734
_cell_angle_alpha 90.000000
_cell_angle_beta 90.000000
_cell_angle_gamma 90.000000
_cell_volume 4081.979192
_symmetry_space_group_name_H-M "I 41/A M D"
_symmetry_group_IT_number 141
_space_group.IT_coordinate_system_code '2'
_symmetry_cell_setting 'tetragonal'
loop_
_space_group_symop_operation_xyz
x,y,z
1/4-y,3/4+x,1/4+z
-x,1/2-y,z
1/4+y,1/4-x,3/4+z
x,-y,-z
-x,1/2+y,-z
1/4+y,3/4+x,1/4-z
1/4-y,1/4-x,3/4-z
-x,-y,-z
3/4+y,1/4-x,3/4-z
x,1/2+y,-z
3/4-y,3/4+x,1/4-z
-x,y,z
x,1/2-y,z
3/4-y,1/4-x,3/4+z
3/4+y,3/4+x,1/4+z
1/2+x,1/2+y,1/2+z
3/4-y,1/4+x,3/4+z
1/2-x,-y,1/2+z
3/4+y,3/4-x,1/4+z
1/2+x,1/2-y,1/2-z
1/2-x,y,1/2-z
3/4+y,1/4+x,3/4-z
3/4-y,3/4-x,1/4-z
1/2-x,1/2-y,1/2-z
1/4+y,3/4-x,1/4-z
1/2+x,y,1/2-z
1/4-y,1/4+x,3/4-z
1/2-x,1/2+y,1/2+z
1/2+x,-y,1/2+z
1/4-y,3/4-x,1/4+z
1/4+y,1/4+x,3/4+z
loop_
_atom_site_type_symbol
_atom_site_label
_atom_site_fract_x
_atom_site_fract_y
_atom_site_fract_z
Si Si1 0.187266 0.648209 0.427334
Si Si2 0.500000 0.250000 0.125000
Si Si3 0.000000 0.888907 0.501333
Si Si4 0.754523 0.363235 0.418479
O O1 0.214985 0.750000 0.406016
O O2 0.242325 0.619921 0.497631
O O3 0.170095 0.579468 0.363953
O O4 0.087146 0.647147 0.461289
O O5 0.413461 0.250000 0.175556
O O6 0.000000 0.000000 0.500000
O O7 0.838327 0.411674 0.375000
O O8 0.750161 0.250000 0.410542
#
# Coordination Sequence:
#
# PCOD9573330 Si02
#       4
#    32   4  16  32
#     4  11  24  39  58  87 125 169 207 253 312 382
#     4  12  28  36  52  84 124 180 188 236 306 376
#     4  12  24  34  52  82 122 160 199 237 290 377
#     4  11  24  37  57  89 128 167 204 253 316 391
#
# _framework density 20.578254000000001
#
# number of rings (size 3 to 8) (size 9 to 14) (size 15 to 20)
#    0.000    0.762    3.810    3.429   10.667    0.381 
#    0.000    0.000    0.000    4.571    0.000    0.000 
#    0.000    0.000    0.000    0.000    0.000    0.000 
#
# Total GULP energy -233988.275798 kJ/mol
# GULP energy per Si atom -5571.149424 kJ/mol
# Density = 2.053142 g / cm^3
# Si number density = 20.578254 Si / 1000 Ang^3
#
#
#
# Elastic Constant Matrix: (Units=GPa)
#
#
# Indices 1 2 3 4 5 6 
#
# 1 105.2570 29.3138 53.8585 0.0000 0.0000 0.0000
# 2 29.3138 105.2594 53.8587 0.0000 0.0000 0.0000
# 3 53.8585 53.8587 110.2707 0.0000 0.0000 0.0000
# 4 0.0000 0.0000 0.0000 42.1358 0.0000 0.0000
# 5 0.0000 0.0000 0.0000 0.0000 42.1351 0.0000
# 6 0.0000 0.0000 0.0000 0.0000 0.0000 15.2984
#
#
#
# Elastic Compliance Matrix: (Units=1/GPa)
#
#
# Indices 1 2 3 4 5 6 
#
# 1 0.012684 -0.000483 -0.005959 0.000000 0.000000 0.000000
# 2 -0.000483 0.012684 -0.005959 0.000000 0.000000 0.000000
# 3 -0.005959 -0.005959 0.014890 0.000000 0.000000 0.000000
# 4 0.000000 0.000000 0.000000 0.023733 0.000000 0.000000
# 5 0.000000 0.000000 0.000000 0.000000 0.023733 0.000000
# 6 0.000000 0.000000 0.000000 0.000000 0.000000 0.065366
#
#
# Mechanical properties :
#
#
# Convention : Reuss Voigt Hill
#
# Bulk Modulus (GPa) = 64.70442 66.09433 65.39938
# Shear Modulus (GPa) = 27.31557 32.16425 29.73991
#
# Velocity S-wave (km/s) = 3.64730 3.95780 3.80572
# Velocity P-wave (km/s) = 7.01772 7.28518 7.15270
#
# Compressibility (1/GPa) = 0.01545489
#
# Stress axis : x y z
#
# Youngs Moduli (GPa) = 78.83672 78.83895 67.15991
#
# Poissons Ratio (x) = 0.03810 0.40023
# Poissons Ratio (y) = 0.03810 0.40022
# Poissons Ratio (z) = 0.46981 0.46981
#
# Static dielectric constant tensor:
#      x y z
#    x 1.843410 0.000000 0.000000 
#    y 0.000000 1.843410 0.000000 
#    z 0.000000 0.000000 1.788890 
# 
# From -- ./inp_files/9630.got.cif
#   From: 2010.05.17/outbox.cif.g08.bks.cpg/sg141_5_cif.got.tgz:9630.got - 2010.05.20 13:30:51.
