data_PCOD9573233
_publ_section_title
;
Structure prediction by ZEFSAII (Michael W. Deem and Ramdas Pophale) SiO2 
 PCOD9573233
Probable space group: I 41/A M D
;
_chemical_formula_sum "Si O2"
_cell_formula_units_Z 160
_cell_length_a 23.065788
_cell_length_b 23.065788
_cell_length_c 15.485589
_cell_angle_alpha 90.000000
_cell_angle_beta 90.000000
_cell_angle_gamma 90.000000
_cell_volume 8238.806836
_symmetry_space_group_name_H-M "I 41/A M D"
_symmetry_group_IT_number 141
_space_group.IT_coordinate_system_code '2'
_symmetry_cell_setting 'tetragonal'
loop_
_space_group_symop_operation_xyz
x,y,z
1/4-y,3/4+x,1/4+z
-x,1/2-y,z
1/4+y,1/4-x,3/4+z
x,-y,-z
-x,1/2+y,-z
1/4+y,3/4+x,1/4-z
1/4-y,1/4-x,3/4-z
-x,-y,-z
3/4+y,1/4-x,3/4-z
x,1/2+y,-z
3/4-y,3/4+x,1/4-z
-x,y,z
x,1/2-y,z
3/4-y,1/4-x,3/4+z
3/4+y,3/4+x,1/4+z
1/2+x,1/2+y,1/2+z
3/4-y,1/4+x,3/4+z
1/2-x,-y,1/2+z
3/4+y,3/4-x,1/4+z
1/2+x,1/2-y,1/2-z
1/2-x,y,1/2-z
3/4+y,1/4+x,3/4-z
3/4-y,3/4-x,1/4-z
1/2-x,1/2-y,1/2-z
1/4+y,3/4-x,1/4-z
1/2+x,y,1/2-z
1/4-y,1/4+x,3/4-z
1/2-x,1/2+y,1/2+z
1/2+x,-y,1/2+z
1/4-y,3/4-x,1/4+z
1/4+y,1/4+x,3/4+z
loop_
_atom_site_type_symbol
_atom_site_label
_atom_site_fract_x
_atom_site_fract_y
_atom_site_fract_z
Si Si1 0.138534 0.135304 0.121109
Si Si2 0.271412 0.682946 0.151437
Si Si3 0.432313 0.365885 0.212722
Si Si4 0.567072 0.494989 0.787009
Si Si5 0.568851 0.815160 0.283709
O O1 0.115224 0.070438 0.108447
O O2 0.112483 0.153743 0.213084
O O3 0.205767 0.144345 0.099830
O O4 0.105136 0.169677 0.046517
O O5 0.292814 0.750000 0.140045
O O6 0.250000 0.679630 0.250000
O O7 0.231893 0.674186 0.065845
O O8 0.500000 0.355837 0.236422
O O9 0.416422 0.333579 0.125000
O O10 0.424879 0.435759 0.202355
O O11 0.500000 0.481733 0.806975
O O12 0.500000 0.810555 0.295425
O O13 0.592719 0.750000 0.269221
O O14 0.590225 0.840225 0.375000
#
# Coordination Sequence:
#
# PCOD9573233 Si02
#       5
#    32  32  32  32  32
#     4  11  20  34  59  82 111 151 198 244 292 347
#     4   9  19  34  53  80 118 159 199 245 295 350
#     4  10  23  43  63  86 119 153 198 251 308 372
#     4   9  20  37  57  86 116 148 193 239 291 361
#     4   9  18  29  43  74 116 148 178 227 293 358
#
# _framework density 19.420287999999999
#
# number of rings (size 3 to 8) (size 9 to 14) (size 15 to 20)
#    0.000    2.400    0.000    4.200    2.800    2.600 
#    0.000    2.000    8.800    0.000    0.000    0.000 
#    0.000    0.000    0.000    0.000    0.000    0.000 
#
# Total GULP energy -445797.853507 kJ/mol
# GULP energy per Si atom -5572.473169 kJ/mol
# Density = 1.937609 g / cm^3
# Si number density = 19.420288 Si / 1000 Ang^3
#
#
#
# Elastic Constant Matrix: (Units=GPa)
#
#
# Indices 1 2 3 4 5 6 
#
# 1 41.6046 26.2529 20.2432 0.0000 0.0000 0.0000
# 2 26.2529 41.6075 20.2465 0.0000 0.0000 0.0000
# 3 20.2432 20.2465 103.7661 0.0000 0.0000 0.0000
# 4 0.0000 0.0000 0.0000 2.4985 0.0000 0.0000
# 5 0.0000 0.0000 0.0000 0.0000 2.4964 0.0000
# 6 0.0000 0.0000 0.0000 0.0000 0.0000 30.7614
#
#
#
# Elastic Compliance Matrix: (Units=1/GPa)
#
#
# Indices 1 2 3 4 5 6 
#
# 1 0.040907 -0.024228 -0.003253 0.000000 0.000000 0.000000
# 2 -0.024228 0.040905 -0.003255 0.000000 0.000000 0.000000
# 3 -0.003253 -0.003255 0.010907 0.000000 0.000000 0.000000
# 4 0.000000 0.000000 0.000000 0.400244 0.000000 0.000000
# 5 0.000000 0.000000 0.000000 0.000000 0.400581 0.000000
# 6 0.000000 0.000000 0.000000 0.000000 0.000000 0.032508
#
#
# Mechanical properties :
#
#
# Convention : Reuss Voigt Hill
#
# Bulk Modulus (GPa) = 32.00298 35.60707 33.80503
# Shear Modulus (GPa) = 5.01033 15.16695 10.08864
#
# Velocity S-wave (km/s) = 1.60796 2.79764 2.28170
# Velocity P-wave (km/s) = 4.46792 5.36754 4.93826
#
# Compressibility (1/GPa) = 0.03124709
#
# Stress axis : x y z
#
# Youngs Moduli (GPa) = 24.44597 24.44702 91.68650
#
# Poissons Ratio (x) = 0.59230 0.29826
# Poissons Ratio (y) = 0.59227 0.29842
# Poissons Ratio (z) = 0.07952 0.07957
#
# Static dielectric constant tensor:
#      x y z
#    x 1.710770 0.000000 0.000000 
#    y 0.000000 1.710770 0.000000 
#    z 0.000000 0.000000 1.732110 
# 
# From -- ./inp_files/6591.got.cif
#   From: 2010.05.17/outbox.cif.g08.bks.cpg/sg141_4_cif.got.tgz:6591.got - 2010.05.20 13:30:51.
