data_PCOD9573478
_publ_section_title
;
Structure prediction by ZEFSAII (Michael W. Deem and Ramdas Pophale) SiO2 
 PCOD9573478
Probable space group: I 41/A C D
;
_chemical_formula_sum "Si O2"
_cell_formula_units_Z 240
_cell_length_a 20.056895
_cell_length_b 20.056895
_cell_length_c 29.905245
_cell_angle_alpha 90.000000
_cell_angle_beta 90.000000
_cell_angle_gamma 90.000000
_cell_volume 12030.253161
_symmetry_space_group_name_H-M "I 41/A C D"
_symmetry_group_IT_number 142
_space_group.IT_coordinate_system_code '2'
_symmetry_cell_setting 'tetragonal'
loop_
_space_group_symop_operation_xyz
x,y,z
1/4-y,3/4+x,1/4+z
-x,1/2-y,z
1/4+y,1/4-x,3/4+z
x,-y,1/2-z
1/2-x,y,-z
3/4+y,1/4+x,1/4-z
1/4-y,1/4-x,1/4-z
-x,-y,-z
3/4+y,1/4-x,3/4-z
x,1/2+y,-z
3/4-y,3/4+x,1/4-z
-x,y,1/2+z
1/2+x,-y,z
1/4-y,3/4-x,3/4+z
3/4+y,3/4+x,3/4+z
1/2+x,1/2+y,1/2+z
3/4-y,1/4+x,3/4+z
1/2-x,-y,1/2+z
3/4+y,3/4-x,1/4+z
1/2+x,1/2-y,-z
-x,1/2+y,1/2-z
1/4+y,3/4+x,3/4-z
3/4-y,3/4-x,3/4-z
1/2-x,1/2-y,1/2-z
1/4+y,3/4-x,1/4-z
1/2+x,y,1/2-z
1/4-y,1/4+x,3/4-z
1/2-x,1/2+y,z
x,1/2-y,1/2+z
3/4-y,1/4-x,1/4+z
1/4+y,1/4+x,1/4+z
loop_
_atom_site_type_symbol
_atom_site_label
_atom_site_fract_x
_atom_site_fract_y
_atom_site_fract_z
Si Si1 0.378973 0.490824 0.527343
Si Si2 0.363611 0.386390 0.875000
Si Si3 0.717303 0.733615 0.148534
Si Si4 0.148445 0.271556 0.518583
Si Si5 0.286742 0.796396 0.428413
Si Si6 0.128589 0.071518 0.724872
Si Si7 0.394268 0.098082 0.946258
Si Si8 0.308922 0.494708 0.165875
O O1 0.436791 0.502516 0.563215
O O2 0.362886 0.561128 0.503371
O O3 0.404469 0.435889 0.493832
O O4 0.307433 0.469186 0.548037
O O5 0.345531 0.310249 0.866858
O O6 0.351745 0.427112 0.828328
O O7 0.773403 0.743513 0.110653
O O8 0.686074 0.803747 0.163108
O O9 0.219266 0.287914 0.542348
O O10 0.156227 0.288083 0.465706
O O11 0.141519 0.192314 0.522448
O O12 0.100946 0.322684 0.545043
O O13 0.287487 0.868932 0.405656
O O14 0.122724 0.000000 0.750000
O O15 0.318926 0.076707 0.933174
O O16 0.259126 0.509126 0.125000
#
# Coordination Sequence:
#
# PCOD9573478 Si02
#       8
#    32  16  32  32  32  32  32  32
#     4  11  25  38  58  93 132 161 204 270 323 383
#     4  10  22  38  57  94 126 160 220 268 314 405
#     4  11  22  39  61  85 137 166 202 261 338 386
#     4  10  19  34  64  81 114 160 214 256 308 381
#     4  10  18  37  57  88 115 156 211 256 307 383
#     4  11  20  37  59  89 127 165 202 270 337 371
#     4  11  22  40  60  86 124 170 208 256 317 398
#     4  11  21  35  62  91 117 156 211 271 307 364
#
# _framework density 19.949705000000002
#
# number of rings (size 3 to 8) (size 9 to 14) (size 15 to 20)
#    0.000    1.333    5.333    1.600    3.733    0.000 
#    2.400    3.333    0.000    0.000    0.000    0.000 
#    0.000    0.000    0.000    0.000    0.000    0.000 
#
# Total GULP energy -668224.993012 kJ/mol
# GULP energy per Si atom -5568.541608 kJ/mol
# Density = 1.990430 g / cm^3
# Si number density = 19.949705 Si / 1000 Ang^3
#
#
#
# Elastic Constant Matrix: (Units=GPa)
#
#
# Indices 1 2 3 4 5 6 
#
# 1 76.1881 -8.9998 12.7514 0.0000 0.0000 0.0000
# 2 -8.9998 76.1895 12.7512 0.0000 0.0000 0.0000
# 3 12.7514 12.7512 61.4270 0.0000 0.0000 0.0000
# 4 0.0000 0.0000 0.0000 20.5024 0.0000 0.0000
# 5 0.0000 0.0000 0.0000 0.0000 20.5025 0.0000
# 6 0.0000 0.0000 0.0000 0.0000 0.0000 10.5941
#
#
#
# Elastic Compliance Matrix: (Units=1/GPa)
#
#
# Indices 1 2 3 4 5 6 
#
# 1 0.013948 0.002209 -0.003354 0.000000 0.000000 0.000000
# 2 0.002209 0.013947 -0.003354 0.000000 0.000000 0.000000
# 3 -0.003354 -0.003354 0.017672 0.000000 0.000000 0.000000
# 4 0.000000 0.000000 0.000000 0.048775 0.000000 0.000000
# 5 0.000000 0.000000 0.000000 0.000000 0.048775 0.000000
# 6 0.000000 0.000000 0.000000 0.000000 0.000000 0.094392
#
#
# Mechanical properties :
#
#
# Convention : Reuss Voigt Hill
#
# Bulk Modulus (GPa) = 27.34529 27.42337 27.38433
# Shear Modulus (GPa) = 19.32774 23.47327 21.40050
#
# Velocity S-wave (km/s) = 3.11597 3.43391 3.27880
# Velocity P-wave (km/s) = 5.16552 5.43125 5.30005
#
# Compressibility (1/GPa) = 0.03656937
#
# Stress axis : x y z
#
# Youngs Moduli (GPa) = 71.69664 71.69810 56.58710
#
# Poissons Ratio (x) = -0.15837 0.18979
# Poissons Ratio (y) = -0.15837 0.18978
# Poissons Ratio (z) = 0.24046 0.24046
#
# Static dielectric constant tensor:
#      x y z
#    x 1.741520 0.000000 0.000000 
#    y 0.000000 1.741530 0.000000 
#    z 0.000000 0.000000 1.794420 
# 
# From -- ./inp_files/12750.got.cif
#   From: 2010.05.17/outbox.cif.g08.bks.cpg/sg142_7_cif.got.tgz:12750.got - 2010.05.20 13:39:18.
