data_PCOD9573042
_publ_section_title
;
Structure prediction by ZEFSAII (Michael W. Deem and Ramdas Pophale) SiO2 
 PCOD9573042
Probable space group: I 41/A M D
;
_chemical_formula_sum "Si O2"
_cell_formula_units_Z 128
_cell_length_a 18.780791
_cell_length_b 18.780791
_cell_length_c 17.223737
_cell_angle_alpha 90.000000
_cell_angle_beta 90.000000
_cell_angle_gamma 90.000000
_cell_volume 6075.123972
_symmetry_space_group_name_H-M "I 41/A M D"
_symmetry_group_IT_number 141
_space_group.IT_coordinate_system_code '2'
_symmetry_cell_setting 'tetragonal'
loop_
_space_group_symop_operation_xyz
x,y,z
1/4-y,3/4+x,1/4+z
-x,1/2-y,z
1/4+y,1/4-x,3/4+z
x,-y,-z
-x,1/2+y,-z
1/4+y,3/4+x,1/4-z
1/4-y,1/4-x,3/4-z
-x,-y,-z
3/4+y,1/4-x,3/4-z
x,1/2+y,-z
3/4-y,3/4+x,1/4-z
-x,y,z
x,1/2-y,z
3/4-y,1/4-x,3/4+z
3/4+y,3/4+x,1/4+z
1/2+x,1/2+y,1/2+z
3/4-y,1/4+x,3/4+z
1/2-x,-y,1/2+z
3/4+y,3/4-x,1/4+z
1/2+x,1/2-y,1/2-z
1/2-x,y,1/2-z
3/4+y,1/4+x,3/4-z
3/4-y,3/4-x,1/4-z
1/2-x,1/2-y,1/2-z
1/4+y,3/4-x,1/4-z
1/2+x,y,1/2-z
1/4-y,1/4+x,3/4-z
1/2-x,1/2+y,1/2+z
1/2+x,-y,1/2+z
1/4-y,3/4-x,1/4+z
1/4+y,1/4+x,3/4+z
loop_
_atom_site_type_symbol
_atom_site_label
_atom_site_fract_x
_atom_site_fract_y
_atom_site_fract_z
Si Si1 0.684552 0.250000 0.806863
Si Si2 0.500000 0.837726 0.128700
Si Si3 0.500000 0.041229 0.748980
Si Si4 0.654229 0.607549 0.104424
Si Si5 0.114947 0.250000 0.853098
Si Si6 0.280433 0.895259 0.944346
O O1 0.750000 0.250000 0.750000
O O2 0.681923 0.319516 0.859187
O O3 0.623104 0.250000 0.740467
O O4 0.500000 0.750000 0.128752
O O5 0.500000 0.879957 0.210902
O O6 0.428697 0.871073 0.090882
O O7 0.500000 0.064678 0.658285
O O8 0.434465 0.994536 0.781049
O O9 0.672804 0.545680 0.165255
O O10 0.686632 0.579782 0.024671
O O11 0.069497 0.319497 0.875000
O O12 0.335962 0.914039 0.875000
#
# Coordination Sequence:
#
# PCOD9573042 Si02
#       6
#    16  16  16  32  16  32
#     4  12  25  39  62  97 138 180 216 270 337 410
#     4  10  20  39  72  93 128 170 220 279 340 387
#     4  10  23  41  65 100 138 171 223 281 331 413
#     4  11  24  43  69  98 133 177 229 282 341 413
#     4  11  22  36  66 102 135 169 208 261 339 419
#     4  11  24  44  68  95 131 179 228 284 342 406
#
# _framework density 21.069528999999999
#
# number of rings (size 3 to 8) (size 9 to 14) (size 15 to 20)
#    0.000    1.125    1.250    6.000    1.750    3.000 
#    0.000   10.000    0.000    0.000    0.000    0.000 
#    0.000    0.000    0.000    0.000    0.000    0.000 
#
# Total GULP energy -356505.714702 kJ/mol
# GULP energy per Si atom -5570.401792 kJ/mol
# Density = 2.102157 g / cm^3
# Si number density = 21.069529 Si / 1000 Ang^3
#
#
#
# Elastic Constant Matrix: (Units=GPa)
#
#
# Indices 1 2 3 4 5 6 
#
# 1 111.6592 55.5795 60.5154 0.0000 0.0000 0.0000
# 2 55.5795 111.6635 60.5146 0.0000 0.0000 0.0000
# 3 60.5154 60.5146 167.8877 0.0000 0.0000 0.0000
# 4 0.0000 0.0000 0.0000 34.3574 0.0000 0.0000
# 5 0.0000 0.0000 0.0000 0.0000 34.3572 0.0000
# 6 0.0000 0.0000 0.0000 0.0000 0.0000 14.6128
#
#
#
# Elastic Compliance Matrix: (Units=1/GPa)
#
#
# Indices 1 2 3 4 5 6 
#
# 1 0.012961 -0.004871 -0.002916 0.000000 0.000000 0.000000
# 2 -0.004871 0.012960 -0.002916 0.000000 0.000000 0.000000
# 3 -0.002916 -0.002916 0.008058 0.000000 0.000000 0.000000
# 4 0.000000 0.000000 0.000000 0.029106 0.000000 0.000000
# 5 0.000000 0.000000 0.000000 0.000000 0.029106 0.000000
# 6 0.000000 0.000000 0.000000 0.000000 0.000000 0.068433
#
#
# Mechanical properties :
#
#
# Convention : Reuss Voigt Hill
#
# Bulk Modulus (GPa) = 79.52885 82.71437 81.12161
# Shear Modulus (GPa) = 26.84993 30.97222 28.91107
#
# Velocity S-wave (km/s) = 3.57367 3.83822 3.70831
# Velocity P-wave (km/s) = 7.40649 7.68021 7.54459
#
# Compressibility (1/GPa) = 0.01257405
#
# Stress axis : x y z
#
# Youngs Moduli (GPa) = 77.15636 77.16059 124.09380
#
# Poissons Ratio (x) = 0.37583 0.36186
# Poissons Ratio (y) = 0.37581 0.36182
# Poissons Ratio (z) = 0.22499 0.22498
#
# Static dielectric constant tensor:
#      x y z
#    x 1.820480 0.000000 0.000000 
#    y 0.000000 1.820480 0.000000 
#    z 0.000000 0.000000 1.767370 
# 
# From -- ./inp_files/6297.got.cif
#   From: 2010.05.17/outbox.cif.g08.bks.cpg/sg141_4_cif.got.tgz:6297.got - 2010.05.20 13:30:51.
