data_PCOD9573235
_publ_section_title
;
Structure prediction by ZEFSAII (Michael W. Deem and Ramdas Pophale) SiO2 
 PCOD9573235
Probable space group: I 41/A M D
;
_chemical_formula_sum "Si O2"
_cell_formula_units_Z 144
_cell_length_a 31.316480
_cell_length_b 31.316480
_cell_length_c 7.250336
_cell_angle_alpha 90.000000
_cell_angle_beta 90.000000
_cell_angle_gamma 90.000000
_cell_volume 7110.563440
_symmetry_space_group_name_H-M "I 41/A M D"
_symmetry_group_IT_number 141
_space_group.IT_coordinate_system_code '2'
_symmetry_cell_setting 'tetragonal'
loop_
_space_group_symop_operation_xyz
x,y,z
1/4-y,3/4+x,1/4+z
-x,1/2-y,z
1/4+y,1/4-x,3/4+z
x,-y,-z
-x,1/2+y,-z
1/4+y,3/4+x,1/4-z
1/4-y,1/4-x,3/4-z
-x,-y,-z
3/4+y,1/4-x,3/4-z
x,1/2+y,-z
3/4-y,3/4+x,1/4-z
-x,y,z
x,1/2-y,z
3/4-y,1/4-x,3/4+z
3/4+y,3/4+x,1/4+z
1/2+x,1/2+y,1/2+z
3/4-y,1/4+x,3/4+z
1/2-x,-y,1/2+z
3/4+y,3/4-x,1/4+z
1/2+x,1/2-y,1/2-z
1/2-x,y,1/2-z
3/4+y,1/4+x,3/4-z
3/4-y,3/4-x,1/4-z
1/2-x,1/2-y,1/2-z
1/4+y,3/4-x,1/4-z
1/2+x,y,1/2-z
1/4-y,1/4+x,3/4-z
1/2-x,1/2+y,1/2+z
1/2+x,-y,1/2+z
1/4-y,3/4-x,1/4+z
1/4+y,1/4+x,3/4+z
loop_
_atom_site_type_symbol
_atom_site_label
_atom_site_fract_x
_atom_site_fract_y
_atom_site_fract_z
Si Si1 0.791868 0.041868 0.375000
Si Si2 0.100052 0.413614 0.768362
Si Si3 0.883824 0.799727 0.689393
Si Si4 0.755045 0.624475 0.465145
Si Si5 0.688562 0.798644 0.119287
O O1 0.750000 0.038548 0.250000
O O2 0.786213 0.088086 0.463657
O O3 0.134218 0.384218 0.875000
O O4 0.076446 0.388309 0.605156
O O5 0.122618 0.457546 0.700734
O O6 0.066797 0.427801 0.928182
O O7 0.889660 0.750000 0.742150
O O8 0.926973 0.823028 0.625000
O O9 0.852429 0.800885 0.513098
O O10 0.750000 0.614066 0.250000
O O11 0.776455 0.670703 0.471957
O O12 0.703024 0.750000 0.130256
#
# Coordination Sequence:
#
# PCOD9573235 Si02
#       5
#    16  32  32  32  32
#     4  12  28  40  62  88 130 174 225 268 316 385
#     4  11  23  41  69  93 132 170 220 266 325 389
#     4  11  24  42  68  97 127 169 214 265 331 396
#     4  10  26  42  65  94 128 173 217 269 325 386
#     4  10  23  43  67  97 130 165 213 271 328 389
#
# _framework density 20.251560999999999
#
# number of rings (size 3 to 8) (size 9 to 14) (size 15 to 20)
#    0.000    1.333    2.222    1.333   12.444    5.111 
#    0.000    2.222    0.000    0.000    0.000    0.000 
#    0.000    0.000    0.000    0.000    0.000    0.000 
#
# Total GULP energy -402496.960992 kJ/mol
# GULP energy per Si atom -5590.235569 kJ/mol
# Density = 2.020547 g / cm^3
# Si number density = 20.251561 Si / 1000 Ang^3
#
#
#
# Elastic Constant Matrix: (Units=GPa)
#
#
# Indices 1 2 3 4 5 6 
#
# 1 134.1402 94.4673 30.4481 0.0000 0.0000 0.0000
# 2 94.4673 134.1509 30.4523 0.0000 0.0000 0.0000
# 3 30.4481 30.4523 39.8064 0.0000 0.0000 0.0000
# 4 0.0000 0.0000 0.0000 16.9030 0.0000 0.0000
# 5 0.0000 0.0000 0.0000 0.0000 16.9022 0.0000
# 6 0.0000 0.0000 0.0000 0.0000 0.0000 74.1495
#
#
#
# Elastic Compliance Matrix: (Units=1/GPa)
#
#
# Indices 1 2 3 4 5 6 
#
# 1 0.015349 -0.009854 -0.004201 0.000000 0.000000 0.000000
# 2 -0.009854 0.015348 -0.004204 0.000000 0.000000 0.000000
# 3 -0.004201 -0.004204 0.031551 0.000000 0.000000 0.000000
# 4 0.000000 0.000000 0.000000 0.059161 0.000000 0.000000
# 5 0.000000 0.000000 0.000000 0.000000 0.059164 0.000000
# 6 0.000000 0.000000 0.000000 0.000000 0.000000 0.013486
#
#
# Mechanical properties :
#
#
# Convention : Reuss Voigt Hill
#
# Bulk Modulus (GPa) = 38.86730 68.75922 53.81326
# Shear Modulus (GPa) = 20.90707 31.77293 26.34000
#
# Velocity S-wave (km/s) = 3.21653 3.96525 3.61035
# Velocity P-wave (km/s) = 5.74706 7.41556 6.63397
#
# Compressibility (1/GPa) = 0.02572857
#
# Stress axis : x y z
#
# Youngs Moduli (GPa) = 65.15294 65.15548 31.69475
#
# Poissons Ratio (x) = 0.64207 0.13316
# Poissons Ratio (y) = 0.64205 0.13323
# Poissons Ratio (z) = 0.27373 0.27388
#
# Static dielectric constant tensor:
#      x y z
#    x 1.782600 0.000000 0.000000 
#    y 0.000000 1.782590 0.000000 
#    z 0.000000 0.000000 1.727540 
# 
# From -- ./inp_files/3216.got.cif
#   From: 2010.05.17/outbox.cif.g08.bks.cpg/sg141_2_cif.got.tgz:3216.got - 2010.05.20 13:30:51.
