data_PCOD9573641
_publ_section_title
;
Structure prediction by ZEFSAII (Michael W. Deem and Ramdas Pophale) SiO2 
 PCOD9573641
Probable space group: I 41/A C D
;
_chemical_formula_sum "Si O2"
_cell_formula_units_Z 144
_cell_length_a 16.171360
_cell_length_b 16.171360
_cell_length_c 25.695711
_cell_angle_alpha 90.000000
_cell_angle_beta 90.000000
_cell_angle_gamma 90.000000
_cell_volume 6719.759496
_symmetry_space_group_name_H-M "I 41/A C D"
_symmetry_group_IT_number 142
_space_group.IT_coordinate_system_code '2'
_symmetry_cell_setting 'tetragonal'
loop_
_space_group_symop_operation_xyz
x,y,z
1/4-y,3/4+x,1/4+z
-x,1/2-y,z
1/4+y,1/4-x,3/4+z
x,-y,1/2-z
1/2-x,y,-z
3/4+y,1/4+x,1/4-z
1/4-y,1/4-x,1/4-z
-x,-y,-z
3/4+y,1/4-x,3/4-z
x,1/2+y,-z
3/4-y,3/4+x,1/4-z
-x,y,1/2+z
1/2+x,-y,z
1/4-y,3/4-x,3/4+z
3/4+y,3/4+x,3/4+z
1/2+x,1/2+y,1/2+z
3/4-y,1/4+x,3/4+z
1/2-x,-y,1/2+z
3/4+y,3/4-x,1/4+z
1/2+x,1/2-y,-z
-x,1/2+y,1/2-z
1/4+y,3/4+x,3/4-z
3/4-y,3/4-x,3/4-z
1/2-x,1/2-y,1/2-z
1/4+y,3/4-x,1/4-z
1/2+x,y,1/2-z
1/4-y,1/4+x,3/4-z
1/2-x,1/2+y,z
x,1/2-y,1/2+z
3/4-y,1/4-x,1/4+z
1/4+y,1/4+x,1/4+z
loop_
_atom_site_type_symbol
_atom_site_label
_atom_site_fract_x
_atom_site_fract_y
_atom_site_fract_z
Si Si1 0.573935 0.919535 0.549071
Si Si2 0.095072 0.408171 0.500704
Si Si3 0.073289 0.486094 0.165437
Si Si4 0.105869 0.163992 0.366727
Si Si5 0.935765 0.000000 0.750000
O O1 0.489817 0.878292 0.527543
O O2 0.552506 0.954735 0.606803
O O3 0.657988 0.867794 0.557174
O O4 0.591471 0.993729 0.508505
O O5 0.104711 0.372987 0.442759
O O6 0.178648 0.372615 0.524179
O O7 0.122332 0.571266 0.152886
O O8 0.999275 0.514000 0.202440
O O9 0.110659 0.263891 0.368580
#
# Coordination Sequence:
#
# PCOD9573641 Si02
#       5
#    32  32  32  32  16
#     4   9  22  45  64  85 130 169 211 258 331 380
#     4  10  22  42  62  92 123 167 213 264 319 382
#     4  10  22  40  62  94 123 167 212 261 318 393
#     4  10  20  37  61  91 127 166 209 265 316 382
#     4  12  24  38  62 100 124 156 222 262 318 392
#
# _framework density 21.429338000000001
#
# number of rings (size 3 to 8) (size 9 to 14) (size 15 to 20)
#    0.000    2.000    2.222    0.000    3.111    2.667 
#    8.000    4.444    0.000    0.000    0.000    0.000 
#    0.000    0.000    0.000    0.000    0.000    0.000 
#
# Total GULP energy -400999.017489 kJ/mol
# GULP energy per Si atom -5569.430798 kJ/mol
# Density = 2.138056 g / cm^3
# Si number density = 21.429338 Si / 1000 Ang^3
#
#
#
# Elastic Constant Matrix: (Units=GPa)
#
#
# Indices 1 2 3 4 5 6 
#
# 1 78.1343 29.1640 14.1232 0.0000 0.0000 0.0000
# 2 29.1640 78.1343 14.1232 0.0000 0.0000 0.0000
# 3 14.1232 14.1232 36.9585 0.0000 0.0000 0.0000
# 4 0.0000 0.0000 0.0000 16.2774 0.0000 0.0000
# 5 0.0000 0.0000 0.0000 0.0000 16.2774 0.0000
# 6 0.0000 0.0000 0.0000 0.0000 0.0000 27.8633
#
#
#
# Elastic Compliance Matrix: (Units=1/GPa)
#
#
# Indices 1 2 3 4 5 6 
#
# 1 0.015391 -0.005029 -0.003960 0.000000 0.000000 0.000000
# 2 -0.005029 0.015391 -0.003960 0.000000 0.000000 0.000000
# 3 -0.003960 -0.003960 0.030084 0.000000 0.000000 0.000000
# 4 0.000000 0.000000 0.000000 0.061435 0.000000 0.000000
# 5 0.000000 0.000000 0.000000 0.000000 0.061435 0.000000
# 6 0.000000 0.000000 0.000000 0.000000 0.000000 0.035890
#
#
# Mechanical properties :
#
#
# Convention : Reuss Voigt Hill
#
# Bulk Modulus (GPa) = 28.59670 34.22752 31.41211
# Shear Modulus (GPa) = 19.44168 21.13807 20.28988
#
# Velocity S-wave (km/s) = 3.01532 3.14412 3.08039
# Velocity P-wave (km/s) = 5.04941 5.40256 5.22896
#
# Compressibility (1/GPa) = 0.03496907
#
# Stress axis : x y z
#
# Youngs Moduli (GPa) = 64.97141 64.97141 33.24054
#
# Poissons Ratio (x) = 0.32675 0.13163
# Poissons Ratio (y) = 0.32675 0.13163
# Poissons Ratio (z) = 0.25727 0.25727
#
# Static dielectric constant tensor:
#      x y z
#    x 1.831800 0.000000 0.000000 
#    y 0.000000 1.831800 0.000000 
#    z 0.000000 0.000000 1.785650 
# 
# From -- ./inp_files/10119.got.cif
#   From: 2010.05.17/outbox.cif.g08.bks.cpg/sg142_6_cif.got.tgz:10119.got - 2010.05.20 13:39:18.
