data_PCOD9573262
_publ_section_title
;
Structure prediction by ZEFSAII (Michael W. Deem and Ramdas Pophale) SiO2 
 PCOD9573262
Probable space group: I 41/A M D
;
_chemical_formula_sum "Si O2"
_cell_formula_units_Z 68
_cell_length_a 23.232181
_cell_length_b 23.232181
_cell_length_c 6.890188
_cell_angle_alpha 90.000000
_cell_angle_beta 90.000000
_cell_angle_gamma 90.000000
_cell_volume 3718.870342
_symmetry_space_group_name_H-M "I 41/A M D"
_symmetry_group_IT_number 141
_space_group.IT_coordinate_system_code '2'
_symmetry_cell_setting 'tetragonal'
loop_
_space_group_symop_operation_xyz
x,y,z
1/4-y,3/4+x,1/4+z
-x,1/2-y,z
1/4+y,1/4-x,3/4+z
x,-y,-z
-x,1/2+y,-z
1/4+y,3/4+x,1/4-z
1/4-y,1/4-x,3/4-z
-x,-y,-z
3/4+y,1/4-x,3/4-z
x,1/2+y,-z
3/4-y,3/4+x,1/4-z
-x,y,z
x,1/2-y,z
3/4-y,1/4-x,3/4+z
3/4+y,3/4+x,1/4+z
1/2+x,1/2+y,1/2+z
3/4-y,1/4+x,3/4+z
1/2-x,-y,1/2+z
3/4+y,3/4-x,1/4+z
1/2+x,1/2-y,1/2-z
1/2-x,y,1/2-z
3/4+y,1/4+x,3/4-z
3/4-y,3/4-x,1/4-z
1/2-x,1/2-y,1/2-z
1/4+y,3/4-x,1/4-z
1/2+x,y,1/2-z
1/4-y,1/4+x,3/4-z
1/2-x,1/2+y,1/2+z
1/2+x,-y,1/2+z
1/4-y,3/4-x,1/4+z
1/4+y,1/4+x,3/4+z
loop_
_atom_site_type_symbol
_atom_site_label
_atom_site_fract_x
_atom_site_fract_y
_atom_site_fract_z
Si Si1 0.500000 0.750000 0.375000
Si Si2 0.688258 0.750000 0.151478
Si Si3 0.622845 0.250000 0.452333
Si Si4 0.406638 0.434066 0.069460
O O1 0.500000 0.695315 0.230355
O O2 0.750000 0.750000 0.250000
O O3 0.644197 0.750000 0.326734
O O4 0.683153 0.804615 0.012280
O O5 0.648555 0.194364 0.339617
O O6 0.347959 0.402042 0.125000
O O7 0.400117 0.500000 0.000000
#
# Coordination Sequence:
#
# PCOD9573262 Si02
#       4
#     4  16  16  32
#     4  12  24  36  66 100 132 158 200 256 330 392
#     4  11  19  41  68  88 116 167 214 251 318 389
#     4  11  22  42  62  95 126 161 205 256 320 386
#     4  11  23  40  63  90 125 164 212 261 314 372
#
# _framework density 18.285122999999999
#
# number of rings (size 3 to 8) (size 9 to 14) (size 15 to 20)
#    0.000    0.941    4.706    4.235    0.000    1.882 
#    0.000    7.059    0.000    0.000    0.000    0.000 
#    0.000    0.000    0.000    0.000    0.000    0.000 
#
# Total GULP energy -189919.020795 kJ/mol
# GULP energy per Si atom -5585.853553 kJ/mol
# Density = 1.824350 g / cm^3
# Si number density = 18.285123 Si / 1000 Ang^3
#
#
#
# Elastic Constant Matrix: (Units=GPa)
#
#
# Indices 1 2 3 4 5 6 
#
# 1 165.1207 66.5321 64.8971 0.0000 0.0000 0.0000
# 2 66.5321 165.1108 64.8956 0.0000 0.0000 0.0000
# 3 64.8971 64.8956 145.8232 0.0000 0.0000 0.0000
# 4 0.0000 0.0000 0.0000 10.2609 0.0000 0.0000
# 5 0.0000 0.0000 0.0000 0.0000 10.2564 0.0000
# 6 0.0000 0.0000 0.0000 0.0000 0.0000 25.8580
#
#
#
# Elastic Compliance Matrix: (Units=1/GPa)
#
#
# Indices 1 2 3 4 5 6 
#
# 1 0.007947 -0.002196 -0.002559 0.000000 0.000000 0.000000
# 2 -0.002196 0.007948 -0.002559 0.000000 0.000000 0.000000
# 3 -0.002559 -0.002559 0.009136 0.000000 0.000000 0.000000
# 4 0.000000 0.000000 0.000000 0.097458 0.000000 0.000000
# 5 0.000000 0.000000 0.000000 0.000000 0.097500 0.000000
# 6 0.000000 0.000000 0.000000 0.000000 0.000000 0.038673
#
#
# Mechanical properties :
#
#
# Convention : Reuss Voigt Hill
#
# Bulk Modulus (GPa) = 96.15362 96.52270 96.33816
# Shear Modulus (GPa) = 18.06636 27.92371 22.99504
#
# Velocity S-wave (km/s) = 3.14671 3.91209 3.55009
# Velocity P-wave (km/s) = 8.11802 8.56201 8.34297
#
# Compressibility (1/GPa) = 0.01040002
#
# Stress axis : x y z
#
# Youngs Moduli (GPa) = 125.83301 125.82513 109.46161
#
# Poissons Ratio (x) = 0.27636 0.28014
# Poissons Ratio (y) = 0.27638 0.28016
# Poissons Ratio (z) = 0.32204 0.32204
#
# Static dielectric constant tensor:
#      x y z
#    x 1.534070 0.000000 0.000000 
#    y 0.000000 1.533990 0.000000 
#    z 0.000000 0.000000 1.537350 
# 
# From -- ./inp_files/915.got.cif
#   From: 2010.05.17/outbox.cif.g08.bks.cpg/sg141_1_cif.got.tgz:915.got - 2010.05.20 13:30:51.
