data_PCOD9573677
_publ_section_title
;
Structure prediction by ZEFSAII (Michael W. Deem and Ramdas Pophale) SiO2 
 PCOD9573677
Probable space group: I 41/A C D
;
_chemical_formula_sum "Si O2"
_cell_formula_units_Z 160
_cell_length_a 18.175101
_cell_length_b 18.175101
_cell_length_c 28.924159
_cell_angle_alpha 90.000000
_cell_angle_beta 90.000000
_cell_angle_gamma 90.000000
_cell_volume 9554.641711
_symmetry_space_group_name_H-M "I 41/A C D"
_symmetry_group_IT_number 142
_space_group.IT_coordinate_system_code '2'
_symmetry_cell_setting 'tetragonal'
loop_
_space_group_symop_operation_xyz
x,y,z
1/4-y,3/4+x,1/4+z
-x,1/2-y,z
1/4+y,1/4-x,3/4+z
x,-y,1/2-z
1/2-x,y,-z
3/4+y,1/4+x,1/4-z
1/4-y,1/4-x,1/4-z
-x,-y,-z
3/4+y,1/4-x,3/4-z
x,1/2+y,-z
3/4-y,3/4+x,1/4-z
-x,y,1/2+z
1/2+x,-y,z
1/4-y,3/4-x,3/4+z
3/4+y,3/4+x,3/4+z
1/2+x,1/2+y,1/2+z
3/4-y,1/4+x,3/4+z
1/2-x,-y,1/2+z
3/4+y,3/4-x,1/4+z
1/2+x,1/2-y,-z
-x,1/2+y,1/2-z
1/4+y,3/4+x,3/4-z
3/4-y,3/4-x,3/4-z
1/2-x,1/2-y,1/2-z
1/4+y,3/4-x,1/4-z
1/2+x,y,1/2-z
1/4-y,1/4+x,3/4-z
1/2-x,1/2+y,z
x,1/2-y,1/2+z
3/4-y,1/4-x,1/4+z
1/4+y,1/4+x,1/4+z
loop_
_atom_site_type_symbol
_atom_site_label
_atom_site_fract_x
_atom_site_fract_y
_atom_site_fract_z
Si Si1 0.514738 0.475544 0.448028
Si Si2 0.263650 0.388430 0.126908
Si Si3 0.724638 0.231225 0.947563
Si Si4 0.763137 0.362709 0.123200
Si Si5 0.558524 0.310164 0.430815
O O1 0.500000 0.500000 0.500000
O O2 0.584753 0.511618 0.421528
O O3 0.442385 0.488439 0.416793
O O4 0.533319 0.389432 0.447262
O O5 0.190578 0.440578 0.125000
O O6 0.262306 0.333464 0.082988
O O7 0.332633 0.443482 0.127232
O O8 0.735599 0.308368 0.920843
O O9 0.638779 0.211706 0.947102
O O10 0.750000 0.233935 0.000000
O O11 0.835942 0.414059 0.125000
O O12 0.500000 0.250000 0.445930
O O13 0.560871 0.310871 0.375000
#
# Coordination Sequence:
#
# PCOD9573677 Si02
#       5
#    32  32  32  32  32
#     4  11  22  37  59  89 120 152 193 242 294 344
#     4  10  20  39  59  83 117 154 190 237 297 345
#     4  11  22  37  60  87 120 153 193 241 295 343
#     4  10  22  38  60  85 116 151 194 242 287 348
#     4  11  20  38  66  88 114 150 202 249 287 343
#
# _framework density 16.745788000000001
#
# number of rings (size 3 to 8) (size 9 to 14) (size 15 to 20)
#    0.000    1.400    6.000    1.200    2.800    3.200 
#    0.000    4.000    0.000    2.400    0.000    0.000 
#    0.000    0.000    0.000    0.000    0.000    0.000 
#
# Total GULP energy -446546.282440 kJ/mol
# GULP energy per Si atom -5581.828531 kJ/mol
# Density = 1.670767 g / cm^3
# Si number density = 16.745788 Si / 1000 Ang^3
#
#
#
# Elastic Constant Matrix: (Units=GPa)
#
#
# Indices 1 2 3 4 5 6 
#
# 1 158.7217 66.7902 75.1917 0.0000 0.0000 0.0000
# 2 66.7902 158.7285 75.1926 0.0000 0.0000 0.0000
# 3 75.1917 75.1926 165.0466 0.0000 0.0000 0.0000
# 4 0.0000 0.0000 0.0000 23.0042 0.0000 0.0000
# 5 0.0000 0.0000 0.0000 0.0000 23.0034 0.0000
# 6 0.0000 0.0000 0.0000 0.0000 0.0000 35.0476
#
#
#
# Elastic Compliance Matrix: (Units=1/GPa)
#
#
# Indices 1 2 3 4 5 6 
#
# 1 0.008623 -0.002254 -0.002902 0.000000 0.000000 0.000000
# 2 -0.002254 0.008623 -0.002902 0.000000 0.000000 0.000000
# 3 -0.002902 -0.002902 0.008703 0.000000 0.000000 0.000000
# 4 0.000000 0.000000 0.000000 0.043470 0.000000 0.000000
# 5 0.000000 0.000000 0.000000 0.000000 0.043472 0.000000
# 6 0.000000 0.000000 0.000000 0.000000 0.000000 0.028533
#
#
# Mechanical properties :
#
#
# Convention : Reuss Voigt Hill
#
# Bulk Modulus (GPa) = 101.68274 101.87177 101.77726
# Shear Modulus (GPa) = 31.09118 33.89918 32.49518
#
# Velocity S-wave (km/s) = 4.31357 4.50415 4.40989
# Velocity P-wave (km/s) = 9.25540 9.38169 9.31876
#
# Compressibility (1/GPa) = 0.00983451
#
# Stress axis : x y z
#
# Youngs Moduli (GPa) = 115.96232 115.96789 114.90485
#
# Poissons Ratio (x) = 0.26139 0.33343
# Poissons Ratio (y) = 0.26138 0.33342
# Poissons Ratio (z) = 0.33650 0.33650
#
# Static dielectric constant tensor:
#      x y z
#    x 1.557240 0.000000 0.000000 
#    y 0.000000 1.557210 0.000000 
#    z 0.000000 0.000000 1.535060 
# 
# From -- ./inp_files/11283.got.cif
#   From: 2010.05.17/outbox.cif.g08.bks.cpg/sg142_6_cif.got.tgz:11283.got - 2010.05.20 13:39:18.
