data_PCOD9573842
_publ_section_title
;
Structure prediction by ZEFSAII (Michael W. Deem and Ramdas Pophale) SiO2 
 PCOD9573842
Probable space group: I 41/A C D
;
_chemical_formula_sum "Si O2"
_cell_formula_units_Z 240
_cell_length_a 21.388950
_cell_length_b 21.388950
_cell_length_c 26.147410
_cell_angle_alpha 90.000000
_cell_angle_beta 90.000000
_cell_angle_gamma 90.000000
_cell_volume 11962.104920
_symmetry_space_group_name_H-M "I 41/A C D"
_symmetry_group_IT_number 142
_space_group.IT_coordinate_system_code '2'
_symmetry_cell_setting 'tetragonal'
loop_
_space_group_symop_operation_xyz
x,y,z
1/4-y,3/4+x,1/4+z
-x,1/2-y,z
1/4+y,1/4-x,3/4+z
x,-y,1/2-z
1/2-x,y,-z
3/4+y,1/4+x,1/4-z
1/4-y,1/4-x,1/4-z
-x,-y,-z
3/4+y,1/4-x,3/4-z
x,1/2+y,-z
3/4-y,3/4+x,1/4-z
-x,y,1/2+z
1/2+x,-y,z
1/4-y,3/4-x,3/4+z
3/4+y,3/4+x,3/4+z
1/2+x,1/2+y,1/2+z
3/4-y,1/4+x,3/4+z
1/2-x,-y,1/2+z
3/4+y,3/4-x,1/4+z
1/2+x,1/2-y,-z
-x,1/2+y,1/2-z
1/4+y,3/4+x,3/4-z
3/4-y,3/4-x,3/4-z
1/2-x,1/2-y,1/2-z
1/4+y,3/4-x,1/4-z
1/2+x,y,1/2-z
1/4-y,1/4+x,3/4-z
1/2-x,1/2+y,z
x,1/2-y,1/2+z
3/4-y,1/4-x,1/4+z
1/4+y,1/4+x,1/4+z
loop_
_atom_site_type_symbol
_atom_site_label
_atom_site_fract_x
_atom_site_fract_y
_atom_site_fract_z
Si Si1 0.026214 0.975817 0.103617
Si Si2 0.686556 0.416467 0.969602
Si Si3 0.263572 0.513572 0.125000
Si Si4 0.557573 0.599988 0.651534
Si Si5 0.843805 0.674267 0.209280
Si Si6 0.347409 0.905604 0.358148
Si Si7 0.958514 0.940796 0.210230
Si Si8 0.977999 0.320810 0.237795
O O1 0.094956 0.945683 0.099017
O O2 0.982153 0.949396 0.058287
O O3 0.996967 0.956564 0.158654
O O4 0.030400 0.050730 0.111437
O O5 0.697273 0.461791 0.922703
O O6 0.683173 0.345459 0.947937
O O7 0.750000 0.419596 0.000000
O O8 0.628366 0.436448 0.004317
O O9 0.284838 0.442337 0.128149
O O10 0.611529 0.638472 0.625000
O O11 0.516247 0.651209 0.680336
O O12 0.862128 0.642462 0.155326
O O13 0.907385 0.686136 0.240495
O O14 0.388272 0.926564 0.309654
O O15 0.986305 0.875279 0.230915
O O16 0.961166 0.000000 0.250000
O O17 0.000000 0.250000 0.240605
#
# Coordination Sequence:
#
# PCOD9573842 Si02
#       8
#    32  32  16  32  32  32  32  32
#     4  11  20  39  65  98 133 174 226 286 346 417
#     4  11  20  37  63  93 126 167 223 269 334 397
#     4  12  22  38  66  92 127 170 211 278 332 406
#     4  11  22  39  67  93 125 178 236 280 334 421
#     4  10  22  37  62  96 130 170 218 282 331 402
#     4  11  22  39  62  99 132 166 225 279 347 405
#     4  11  23  40  66  98 136 186 227 289 358 432
#     4  11  23  41  64  97 136 182 232 287 352 417
#
# _framework density 20.063358999999998
#
# number of rings (size 3 to 8) (size 9 to 14) (size 15 to 20)
#    0.000    1.067    6.000    0.800    1.867    0.800 
#    0.000    7.333    2.933    0.000    0.000    0.000 
#    0.000    0.000    0.000    0.000    0.000    0.000 
#
# Total GULP energy -668917.179007 kJ/mol
# GULP energy per Si atom -5574.309825 kJ/mol
# Density = 2.001769 g / cm^3
# Si number density = 20.063359 Si / 1000 Ang^3
#
#
#
# Elastic Constant Matrix: (Units=GPa)
#
#
# Indices 1 2 3 4 5 6 
#
# 1 105.2340 61.1752 40.2717 0.0000 0.0000 0.0000
# 2 61.1752 105.2355 40.2764 0.0000 0.0000 0.0000
# 3 40.2717 40.2764 75.8224 0.0000 0.0000 0.0000
# 4 0.0000 0.0000 0.0000 25.3761 0.0000 0.0000
# 5 0.0000 0.0000 0.0000 0.0000 25.3724 0.0000
# 6 0.0000 0.0000 0.0000 0.0000 0.0000 34.5894
#
#
#
# Elastic Compliance Matrix: (Units=1/GPa)
#
#
# Indices 1 2 3 4 5 6 
#
# 1 0.015392 -0.007304 -0.004296 0.000000 0.000000 0.000000
# 2 -0.007304 0.015393 -0.004297 0.000000 0.000000 0.000000
# 3 -0.004296 -0.004297 0.017753 0.000000 0.000000 0.000000
# 4 0.000000 0.000000 0.000000 0.039407 0.000000 0.000000
# 5 0.000000 0.000000 0.000000 0.000000 0.039413 0.000000
# 6 0.000000 0.000000 0.000000 0.000000 0.000000 0.028911
#
#
# Mechanical properties :
#
#
# Convention : Reuss Voigt Hill
#
# Bulk Modulus (GPa) = 59.72026 63.30429 61.51228
# Shear Modulus (GPa) = 25.82050 26.70549 26.26300
#
# Velocity S-wave (km/s) = 3.59130 3.65232 3.62194
# Velocity P-wave (km/s) = 6.85762 7.02899 6.94383
#
# Compressibility (1/GPa) = 0.01674474
#
# Stress axis : x y z
#
# Youngs Moduli (GPa) = 64.96705 64.96438 56.32842
#
# Poissons Ratio (x) = 0.47449 0.24197
# Poissons Ratio (y) = 0.47451 0.24207
# Poissons Ratio (z) = 0.27908 0.27918
#
# Static dielectric constant tensor:
#      x y z
#    x 1.602970 0.000000 0.000000 
#    y 0.000000 1.607580 0.000000 
#    z 0.000000 0.000000 1.767500 
# 
# From -- ./inp_files/11679.got.cif
#   From: 2010.05.17/outbox.cif.g08.bks.cpg/sg142_6_cif.got.tgz:11679.got - 2010.05.20 13:39:18.
