data_PCOD9573135
_publ_section_title
;
Structure prediction by ZEFSAII (Michael W. Deem and Ramdas Pophale) SiO2 
 PCOD9573135
Probable space group: I 41/A M D
;
_chemical_formula_sum "Si O2"
_cell_formula_units_Z 160
_cell_length_a 20.283140
_cell_length_b 20.283140
_cell_length_c 19.119132
_cell_angle_alpha 90.000000
_cell_angle_beta 90.000000
_cell_angle_gamma 90.000000
_cell_volume 7865.721189
_symmetry_space_group_name_H-M "I 41/A M D"
_symmetry_group_IT_number 141
_space_group.IT_coordinate_system_code '2'
_symmetry_cell_setting 'tetragonal'
loop_
_space_group_symop_operation_xyz
x,y,z
1/4-y,3/4+x,1/4+z
-x,1/2-y,z
1/4+y,1/4-x,3/4+z
x,-y,-z
-x,1/2+y,-z
1/4+y,3/4+x,1/4-z
1/4-y,1/4-x,3/4-z
-x,-y,-z
3/4+y,1/4-x,3/4-z
x,1/2+y,-z
3/4-y,3/4+x,1/4-z
-x,y,z
x,1/2-y,z
3/4-y,1/4-x,3/4+z
3/4+y,3/4+x,1/4+z
1/2+x,1/2+y,1/2+z
3/4-y,1/4+x,3/4+z
1/2-x,-y,1/2+z
3/4+y,3/4-x,1/4+z
1/2+x,1/2-y,1/2-z
1/2-x,y,1/2-z
3/4+y,1/4+x,3/4-z
3/4-y,3/4-x,1/4-z
1/2-x,1/2-y,1/2-z
1/4+y,3/4-x,1/4-z
1/2+x,y,1/2-z
1/4-y,1/4+x,3/4-z
1/2-x,1/2+y,1/2+z
1/2+x,-y,1/2+z
1/4-y,3/4-x,1/4+z
1/4+y,1/4+x,3/4+z
loop_
_atom_site_type_symbol
_atom_site_label
_atom_site_fract_x
_atom_site_fract_y
_atom_site_fract_z
Si Si1 0.336280 0.679735 0.915891
Si Si2 0.787587 0.677819 0.823541
Si Si3 0.071347 0.327235 0.048958
Si Si4 0.669273 0.328363 0.576360
Si Si5 0.897559 0.424301 0.173743
O O1 0.364708 0.750000 0.892571
O O2 0.373090 0.623090 0.875000
O O3 0.261682 0.678312 0.888794
O O4 0.340374 0.675035 0.998919
O O5 0.823247 0.750000 0.824792
O O6 0.750000 0.678283 0.750000
O O7 0.826292 0.609686 0.825225
O O8 0.072834 0.250000 0.070967
O O9 0.071529 0.380306 0.111557
O O10 0.000000 0.335274 0.011299
O O11 0.134770 0.337513 0.999661
O O12 0.624729 0.374729 0.625000
O O13 0.663766 0.250000 0.592132
O O14 0.746721 0.347045 0.583835
#
# Coordination Sequence:
#
# PCOD9573135 Si02
#       5
#    32  32  32  32  32
#     4  11  23  39  59  87 125 169 216 265 316 378
#     4  10  21  40  63  87 125 176 223 265 321 391
#     4  10  22  42  69  98 130 174 222 268 331 406
#     4  11  25  46  70  98 131 171 217 275 340 408
#     4  12  23  40  65  96 132 165 216 278 333 386
#
# _framework density 20.341428000000001
#
# number of rings (size 3 to 8) (size 9 to 14) (size 15 to 20)
#    0.000    1.200    2.000    4.200    0.000    6.800 
#    3.600    2.000    0.000    0.000    0.000    0.000 
#    0.000    0.000    0.000    0.000    0.000    0.000 
#
# Total GULP energy -445723.745585 kJ/mol
# GULP energy per Si atom -5571.546820 kJ/mol
# Density = 2.029513 g / cm^3
# Si number density = 20.341428 Si / 1000 Ang^3
#
#
#
# Elastic Constant Matrix: (Units=GPa)
#
#
# Indices 1 2 3 4 5 6 
#
# 1 143.5962 72.3455 61.4412 0.0000 0.0000 0.0000
# 2 72.3455 143.5962 61.4412 0.0000 0.0000 0.0000
# 3 61.4412 61.4412 102.2120 0.0000 0.0000 0.0000
# 4 0.0000 0.0000 0.0000 13.2238 0.0000 0.0000
# 5 0.0000 0.0000 0.0000 0.0000 13.2238 0.0000
# 6 0.0000 0.0000 0.0000 0.0000 0.0000 28.4353
#
#
#
# Elastic Compliance Matrix: (Units=1/GPa)
#
#
# Indices 1 2 3 4 5 6 
#
# 1 0.010537 -0.003498 -0.004231 0.000000 0.000000 0.000000
# 2 -0.003498 0.010537 -0.004231 0.000000 0.000000 0.000000
# 3 -0.004231 -0.004231 0.014870 0.000000 0.000000 0.000000
# 4 0.000000 0.000000 0.000000 0.075621 0.000000 0.000000
# 5 0.000000 0.000000 0.000000 0.000000 0.075621 0.000000
# 6 0.000000 0.000000 0.000000 0.000000 0.000000 0.035168
#
#
# Mechanical properties :
#
#
# Convention : Reuss Voigt Hill
#
# Bulk Modulus (GPa) = 83.17132 86.65112 84.91122
# Shear Modulus (GPa) = 19.97752 23.92170 21.94961
#
# Velocity S-wave (km/s) = 3.13726 3.43302 3.28847
# Velocity P-wave (km/s) = 7.35525 7.64232 7.50015
#
# Compressibility (1/GPa) = 0.01202337
#
# Stress axis : x y z
#
# Youngs Moduli (GPa) = 94.90604 94.90604 67.24870
#
# Poissons Ratio (x) = 0.33200 0.28453
# Poissons Ratio (y) = 0.33200 0.28453
# Poissons Ratio (z) = 0.40154 0.40154
#
# Static dielectric constant tensor:
#      x y z
#    x 1.742070 0.000000 0.000000 
#    y 0.000000 1.742070 0.000000 
#    z 0.000000 0.000000 1.738470 
# 
# From -- ./inp_files/8572.got.cif
#   From: 2010.05.17/outbox.cif.g08.bks.cpg/sg141_5_cif.got.tgz:8572.got - 2010.05.20 13:30:51.
