data_PCOD9573106
_publ_section_title
;
Structure prediction by ZEFSAII (Michael W. Deem and Ramdas Pophale) SiO2 
 PCOD9573106
Probable space group: I 41/A M D
;
_chemical_formula_sum "Si O2"
_cell_formula_units_Z 240
_cell_length_a 20.876752
_cell_length_b 20.876752
_cell_length_c 29.823968
_cell_angle_alpha 90.000000
_cell_angle_beta 90.000000
_cell_angle_gamma 90.000000
_cell_volume 12998.441651
_symmetry_space_group_name_H-M "I 41/A M D"
_symmetry_group_IT_number 141
_space_group.IT_coordinate_system_code '2'
_symmetry_cell_setting 'tetragonal'
loop_
_space_group_symop_operation_xyz
x,y,z
1/4-y,3/4+x,1/4+z
-x,1/2-y,z
1/4+y,1/4-x,3/4+z
x,-y,-z
-x,1/2+y,-z
1/4+y,3/4+x,1/4-z
1/4-y,1/4-x,3/4-z
-x,-y,-z
3/4+y,1/4-x,3/4-z
x,1/2+y,-z
3/4-y,3/4+x,1/4-z
-x,y,z
x,1/2-y,z
3/4-y,1/4-x,3/4+z
3/4+y,3/4+x,1/4+z
1/2+x,1/2+y,1/2+z
3/4-y,1/4+x,3/4+z
1/2-x,-y,1/2+z
3/4+y,3/4-x,1/4+z
1/2+x,1/2-y,1/2-z
1/2-x,y,1/2-z
3/4+y,1/4+x,3/4-z
3/4-y,3/4-x,1/4-z
1/2-x,1/2-y,1/2-z
1/4+y,3/4-x,1/4-z
1/2+x,y,1/2-z
1/4-y,1/4+x,3/4-z
1/2-x,1/2+y,1/2+z
1/2+x,-y,1/2+z
1/4-y,3/4-x,1/4+z
1/4+y,1/4+x,3/4+z
loop_
_atom_site_type_symbol
_atom_site_label
_atom_site_fract_x
_atom_site_fract_y
_atom_site_fract_z
Si Si1 0.208536 0.323009 0.043382
Si Si2 0.427851 0.906207 0.741658
Si Si3 0.849073 0.965670 0.832952
Si Si4 0.426654 0.061488 0.027345
Si Si5 0.795629 0.821918 0.148202
Si Si6 0.430184 0.819817 0.375000
Si Si7 0.179246 0.589144 0.228632
Si Si8 0.128713 0.484525 0.384929
O O1 0.182830 0.250000 0.045204
O O2 0.230914 0.348052 0.091986
O O3 0.275188 0.320486 0.016072
O O4 0.164318 0.374092 0.016749
O O5 0.500000 0.879720 0.741687
O O6 0.401370 0.922400 0.692362
O O7 0.374815 0.863180 0.766118
O O8 0.787002 0.924388 0.842521
O O9 0.879691 0.994422 0.877964
O O10 0.830089 0.025396 0.801421
O O11 0.500000 0.071483 0.013720
O O12 0.421781 0.041115 0.078997
O O13 0.400716 0.000000 0.000000
O O14 0.771016 0.750000 0.153979
O O15 0.854845 0.818375 0.112359
O O16 0.822768 0.850594 0.194578
O O17 0.500000 0.817571 0.400214
O O18 0.250000 0.587888 0.250000
O O19 0.174190 0.424190 0.375000
#
# Coordination Sequence:
#
# PCOD9573106 Si02
#       8
#    32  32  32  32  32  16  32  32
#     4  10  22  37  57  85 117 156 197 240 300 361
#     4  10  21  38  58  83 119 157 194 239 296 364
#     4  11  21  35  57  88 117 152 193 248 305 361
#     4  11  23  40  61  88 118 150 196 251 300 357
#     4  11  21  36  56  83 115 151 197 247 301 359
#     4   9  18  32  50  74 106 142 182 232 290 351
#     4  11  22  36  55  84 118 152 197 246 300 361
#     4  12  21  35  61  87 120 154 193 250 304 365
#
# _framework density 18.463753000000001
#
# number of rings (size 3 to 8) (size 9 to 14) (size 15 to 20)
#    0.000    1.267    4.000    3.200    1.867    1.600 
#    0.000    0.000    0.000    0.000    0.000    0.000 
#    0.000    0.000    0.000    0.000    0.000    0.000 
#
# Total GULP energy -668243.085371 kJ/mol
# GULP energy per Si atom -5568.692378 kJ/mol
# Density = 1.842173 g / cm^3
# Si number density = 18.463753 Si / 1000 Ang^3
#
#
#
# Elastic Constant Matrix: (Units=GPa)
#
#
# Indices 1 2 3 4 5 6 
#
# 1 78.2760 17.6563 16.8851 0.0000 0.0000 0.0000
# 2 17.6563 78.2761 16.8850 0.0000 0.0000 0.0000
# 3 16.8851 16.8850 77.9357 0.0000 0.0000 0.0000
# 4 0.0000 0.0000 0.0000 17.4540 0.0000 0.0000
# 5 0.0000 0.0000 0.0000 0.0000 17.4538 0.0000
# 6 0.0000 0.0000 0.0000 0.0000 0.0000 8.1349
#
#
#
# Elastic Compliance Matrix: (Units=1/GPa)
#
#
# Indices 1 2 3 4 5 6 
#
# 1 0.013890 -0.002606 -0.002445 0.000000 0.000000 0.000000
# 2 -0.002606 0.013890 -0.002445 0.000000 0.000000 0.000000
# 3 -0.002445 -0.002445 0.013890 0.000000 0.000000 0.000000
# 4 0.000000 0.000000 0.000000 0.057293 0.000000 0.000000
# 5 0.000000 0.000000 0.000000 0.000000 0.057294 0.000000
# 6 0.000000 0.000000 0.000000 0.000000 0.000000 0.122928
#
#
# Mechanical properties :
#
#
# Convention : Reuss Voigt Hill
#
# Bulk Modulus (GPa) = 37.48078 37.48227 37.48153
# Shear Modulus (GPa) = 16.49779 20.81263 18.65521
#
# Velocity S-wave (km/s) = 2.99243 3.36105 3.18208
# Velocity P-wave (km/s) = 5.68183 5.95035 5.81764
#
# Compressibility (1/GPa) = 0.02668034
#
# Stress axis : x y z
#
# Youngs Moduli (GPa) = 71.99184 71.99191 71.99179
#
# Poissons Ratio (x) = 0.18760 0.17601
# Poissons Ratio (y) = 0.18760 0.17601
# Poissons Ratio (z) = 0.17601 0.17601
#
# Static dielectric constant tensor:
#      x y z
#    x 1.645370 0.000000 0.000000 
#    y 0.000000 1.645370 0.000000 
#    z 0.000000 0.000000 1.684190 
# 
# From -- ./inp_files/13162.got.cif
#   From: 2010.05.17/outbox.cif.g08.bks.cpg/sg141_7_cif.got.tgz:13162.got - 2010.05.20 13:30:51.
