data_PCOD9573379
_publ_section_title
;
Structure prediction by ZEFSAII (Michael W. Deem and Ramdas Pophale) SiO2 
 PCOD9573379
Probable space group: I 41/A M D
;
_chemical_formula_sum "Si O2"
_cell_formula_units_Z 80
_cell_length_a 21.000000
_cell_length_b 21.000000
_cell_length_c 18.000000
_cell_angle_alpha 90.000000
_cell_angle_beta 90.000000
_cell_angle_gamma 90.000000
_cell_volume 7938.000000
_symmetry_space_group_name_H-M "I 41/A M D"
_symmetry_group_IT_number 141
_space_group.IT_coordinate_system_code '2'
_symmetry_cell_setting 'tetragonal'
loop_
_space_group_symop_operation_xyz
x,y,z
1/4-y,3/4+x,1/4+z
-x,1/2-y,z
1/4+y,1/4-x,3/4+z
x,-y,-z
-x,1/2+y,-z
1/4+y,3/4+x,1/4-z
1/4-y,1/4-x,3/4-z
-x,-y,-z
3/4+y,1/4-x,3/4-z
x,1/2+y,-z
3/4-y,3/4+x,1/4-z
-x,y,z
x,1/2-y,z
3/4-y,1/4-x,3/4+z
3/4+y,3/4+x,1/4+z
1/2+x,1/2+y,1/2+z
3/4-y,1/4+x,3/4+z
1/2-x,-y,1/2+z
3/4+y,3/4-x,1/4+z
1/2+x,1/2-y,1/2-z
1/2-x,y,1/2-z
3/4+y,1/4+x,3/4-z
3/4-y,3/4-x,1/4-z
1/2-x,1/2-y,1/2-z
1/4+y,3/4-x,1/4-z
1/2+x,y,1/2-z
1/4-y,1/4+x,3/4-z
1/2-x,1/2+y,1/2+z
1/2+x,-y,1/2+z
1/4-y,3/4-x,1/4+z
1/4+y,1/4+x,3/4+z
loop_
_atom_site_type_symbol
_atom_site_label
_atom_site_fract_x
_atom_site_fract_y
_atom_site_fract_z
Si Si1 0.676971 0.570949 0.464020
Si Si2 0.187543 0.174378 0.208172
Si Si3 0.568497 0.364950 0.199927
Si Si4 0.572407 0.510077 0.201042
Si Si5 0.427248 0.177743 0.715034
O O1 0.675900 0.500000 0.500000
O O2 0.683471 0.566530 0.375000
O O3 0.731803 0.618469 0.493857
O O4 0.616084 0.616543 0.483543
O O5 0.185427 0.250000 0.222447
O O6 0.250000 0.148261 0.250000
O O7 0.124279 0.146425 0.242605
O O8 0.195862 0.166237 0.120380
O O9 0.575243 0.325243 0.125000
O O10 0.500000 0.353298 0.235366
O O11 0.571852 0.437817 0.173233
O O12 0.500000 0.520775 0.231246
O O13 0.428501 0.178501 0.625000
O O14 0.500000 0.158527 0.738045
O O15 0.417690 0.250000 0.741167
#
# Coordination Sequence:
#
# PCOD9573379 Si02
#       5
#    32  32  32  32  32
#     4  11  25  41  61  92 124 159 209 270 320 365
#     4  10  20  38  62  90 125 167 209 250 308 384
#     4  11  22  37  63  96 128 166 213 267 317 367
#     4  10  23  42  63  86 125 177 211 245 316 399
#     4   8  15  33  62  89 115 154 199 242 301 376
#
# _framework density 10.078105000000001
#
# number of rings (size 3 to 8) (size 9 to 14) (size 15 to 20)
#    0.000    2.000    2.000    1.800    2.800    4.200 
#    0.000    1.000    0.000    1.200    0.000    0.000 
#    0.000    0.000    0.000    0.000    0.000    0.000 
#
# Total GULP energy -445884.118824 kJ/mol
# GULP energy per Si atom -5573.551485 kJ/mol
# Density = 1.005517 g / cm^3
# Si number density = 10.078105 Si / 1000 Ang^3
#
#
#
# Elastic Constant Matrix: (Units=GPa)
#
#
# Indices 1 2 3 4 5 6 
#
# 1 116.5498 46.6685 53.6375 0.0000 0.0000 0.0000
# 2 46.6685 116.5502 53.6376 0.0000 0.0000 0.0000
# 3 53.6375 53.6376 58.0262 0.0000 0.0000 0.0000
# 4 0.0000 0.0000 0.0000 23.8473 0.0000 0.0000
# 5 0.0000 0.0000 0.0000 0.0000 23.8474 0.0000
# 6 0.0000 0.0000 0.0000 0.0000 0.0000 31.6128
#
#
#
# Elastic Compliance Matrix: (Units=1/GPa)
#
#
# Indices 1 2 3 4 5 6 
#
# 1 0.014961 0.000651 -0.014430 0.000000 0.000000 0.000000
# 2 0.000651 0.014961 -0.014430 0.000000 0.000000 0.000000
# 3 -0.014430 -0.014430 0.043912 0.000000 0.000000 0.000000
# 4 0.000000 0.000000 0.000000 0.041933 0.000000 0.000000
# 5 0.000000 0.000000 0.000000 0.000000 0.041933 0.000000
# 6 0.000000 0.000000 0.000000 0.000000 0.000000 0.031633
#
#
# Mechanical properties :
#
#
# Convention : Reuss Voigt Hill
#
# Bulk Modulus (GPa) = 57.43105 66.55707 61.99406
# Shear Modulus (GPa) = 19.87623 25.00701 22.44162
#
# Velocity S-wave (km/s) = 3.14364 3.52612 3.34036
# Velocity P-wave (km/s) = 6.45999 7.04772 6.76025
#
# Compressibility (1/GPa) = 0.01741218
#
# Stress axis : x y z
#
# Youngs Moduli (GPa) = 66.84244 66.84258 22.77301
#
# Poissons Ratio (x) = -0.04349 0.32862
# Poissons Ratio (y) = -0.04349 0.32862
# Poissons Ratio (z) = 0.96456 0.96457
#
# Static dielectric constant tensor:
#      x y z
#    x 1.751440 0.000000 0.000000 
#    y 0.000000 1.751440 0.000000 
#    z 0.000000 0.000000 1.773290 
# 
# From -- ./inp_files/8569.got.cif
#   From: 2010.05.17/outbox.ucp.g08.bks.cvg/sg141_5_cif.got.tgz:8569.got - 2010.06.11 11:43:24.
