data_PCOD9573813
_publ_section_title
;
Structure prediction by ZEFSAII (Michael W. Deem and Ramdas Pophale) SiO2 
 PCOD9573813
Probable space group: I 41/A C D
;
_chemical_formula_sum "Si O2"
_cell_formula_units_Z 216
_cell_length_a 28.349384
_cell_length_b 28.349384
_cell_length_c 10.396537
_cell_angle_alpha 90.000000
_cell_angle_beta 90.000000
_cell_angle_gamma 90.000000
_cell_volume 8355.567591
_symmetry_space_group_name_H-M "I 41/A C D"
_symmetry_group_IT_number 142
_space_group.IT_coordinate_system_code '2'
_symmetry_cell_setting 'tetragonal'
loop_
_space_group_symop_operation_xyz
x,y,z
1/4-y,3/4+x,1/4+z
-x,1/2-y,z
1/4+y,1/4-x,3/4+z
x,-y,1/2-z
1/2-x,y,-z
3/4+y,1/4+x,1/4-z
1/4-y,1/4-x,1/4-z
-x,-y,-z
3/4+y,1/4-x,3/4-z
x,1/2+y,-z
3/4-y,3/4+x,1/4-z
-x,y,1/2+z
1/2+x,-y,z
1/4-y,3/4-x,3/4+z
3/4+y,3/4+x,3/4+z
1/2+x,1/2+y,1/2+z
3/4-y,1/4+x,3/4+z
1/2-x,-y,1/2+z
3/4+y,3/4-x,1/4+z
1/2+x,1/2-y,-z
-x,1/2+y,1/2-z
1/4+y,3/4+x,3/4-z
3/4-y,3/4-x,3/4-z
1/2-x,1/2-y,1/2-z
1/4+y,3/4-x,1/4-z
1/2+x,y,1/2-z
1/4-y,1/4+x,3/4-z
1/2-x,1/2+y,z
x,1/2-y,1/2+z
3/4-y,1/4-x,1/4+z
1/4+y,1/4+x,1/4+z
loop_
_atom_site_type_symbol
_atom_site_label
_atom_site_fract_x
_atom_site_fract_y
_atom_site_fract_z
Si Si1 0.708479 0.458479 0.375000
Si Si2 0.285583 0.334308 0.676812
Si Si3 0.914248 0.067356 0.500965
Si Si4 0.500000 0.750000 0.125000
Si Si5 0.947429 0.551355 0.789118
Si Si6 0.412267 0.291644 0.241394
Si Si7 0.686421 0.934268 0.353855
Si Si8 0.523640 0.383977 0.717045
O O1 0.704020 0.511645 0.429393
O O2 0.697052 0.424585 0.494015
O O3 0.230445 0.320059 0.678166
O O4 0.297148 0.333070 0.830663
O O5 0.289336 0.386459 0.615408
O O6 0.323506 0.300569 0.608073
O O7 0.923747 0.064449 0.347089
O O8 0.939252 0.113480 0.555292
O O9 0.858120 0.070891 0.494980
O O10 0.450234 0.745475 0.199961
O O11 0.967413 0.500000 0.750000
O O12 0.987935 0.589218 0.813982
O O13 0.440634 0.340065 0.227745
O O14 0.393158 0.265949 0.117677
#
# Coordination Sequence:
#
# PCOD9573813 Si02
#       8
#    16  32  32   8  32  32  32  32
#     4  10  22  30  64  98 154 199 246 295 328 421
#     4  11  22  41  74 101 149 193 236 302 364 435
#     4  10  21  41  66 105 146 187 245 305 360 441
#     4  12  28  50  76  92 130 192 240 314 392 446
#     4   9  22  39  65 103 137 181 239 293 360 428
#     4  11  25  46  70 100 136 181 244 313 380 455
#     4  11  19  37  60 102 146 197 247 289 352 416
#     4  11  24  46  70 106 143 181 239 311 378 446
#
# _framework density 25.851026999999998
#
# number of rings (size 3 to 8) (size 9 to 14) (size 15 to 20)
#    0.000    1.481    2.963    1.778    6.222    5.333 
#    0.000    0.741    3.259    0.000    0.000    0.000 
#    0.000    0.000    0.000    0.000    0.000    0.000 
#
# Total GULP energy -602400.331793 kJ/mol
# GULP energy per Si atom -5577.780850 kJ/mol
# Density = 2.579219 g / cm^3
# Si number density = 25.851027 Si / 1000 Ang^3
#
#
#
# Elastic Constant Matrix: (Units=GPa)
#
#
# Indices 1 2 3 4 5 6 
#
# 1 161.0454 81.1614 25.9625 0.0000 0.0000 0.0000
# 2 81.1614 161.0454 25.9625 0.0000 0.0000 0.0000
# 3 25.9625 25.9625 27.3029 0.0000 0.0000 0.0000
# 4 0.0000 0.0000 0.0000 23.1645 0.0000 0.0000
# 5 0.0000 0.0000 0.0000 0.0000 23.1645 0.0000
# 6 0.0000 0.0000 0.0000 0.0000 0.0000 39.4510
#
#
#
# Elastic Compliance Matrix: (Units=1/GPa)
#
#
# Indices 1 2 3 4 5 6 
#
# 1 0.008852 -0.003666 -0.004931 0.000000 0.000000 0.000000
# 2 -0.003666 0.008852 -0.004931 0.000000 0.000000 0.000000
# 3 -0.004931 -0.004931 0.046005 0.000000 0.000000 0.000000
# 4 0.000000 0.000000 0.000000 0.043169 0.000000 0.000000
# 5 0.000000 0.000000 0.000000 0.000000 0.043169 0.000000
# 6 0.000000 0.000000 0.000000 0.000000 0.000000 0.025348
#
#
# Mechanical properties :
#
#
# Convention : Reuss Voigt Hill
#
# Bulk Modulus (GPa) = 27.28426 68.39626 47.84026
# Shear Modulus (GPa) = 23.29158 31.57651 27.43404
#
# Velocity S-wave (km/s) = 3.00491 3.49876 3.26120
# Velocity P-wave (km/s) = 4.75570 6.54500 5.72074
#
# Compressibility (1/GPa) = 0.03665116
#
# Stress axis : x y z
#
# Youngs Moduli (GPa) = 112.96855 112.96855 21.73697
#
# Poissons Ratio (x) = 0.41416 0.10719
# Poissons Ratio (y) = 0.41416 0.10719
# Poissons Ratio (z) = 0.55708 0.55708
#
# Static dielectric constant tensor:
#      x y z
#    x 2.085300 0.000000 0.000000 
#    y 0.000000 2.085300 0.000000 
#    z 0.000000 0.000000 2.135960 
# 
# From -- ./inp_files/5798.got.cif
#   From: 2010.05.17/outbox.cif.g08.bks.cpg/sg142_3_cif.got.tgz:5798.got - 2010.05.20 13:39:18.
