data_PCOD9573988
_publ_section_title
;
Structure prediction by ZEFSAII (Michael W. Deem and Ramdas Pophale) SiO2 
 PCOD9573988
Probable space group: I 41/A C D
;
_chemical_formula_sum "Si O2"
_cell_formula_units_Z 176
_cell_length_a 17.028975
_cell_length_b 17.028975
_cell_length_c 25.783576
_cell_angle_alpha 90.000000
_cell_angle_beta 90.000000
_cell_angle_gamma 90.000000
_cell_volume 7476.875801
_symmetry_space_group_name_H-M "I 41/A C D"
_symmetry_group_IT_number 142
_space_group.IT_coordinate_system_code '2'
_symmetry_cell_setting 'tetragonal'
loop_
_space_group_symop_operation_xyz
x,y,z
1/4-y,3/4+x,1/4+z
-x,1/2-y,z
1/4+y,1/4-x,3/4+z
x,-y,1/2-z
1/2-x,y,-z
3/4+y,1/4+x,1/4-z
1/4-y,1/4-x,1/4-z
-x,-y,-z
3/4+y,1/4-x,3/4-z
x,1/2+y,-z
3/4-y,3/4+x,1/4-z
-x,y,1/2+z
1/2+x,-y,z
1/4-y,3/4-x,3/4+z
3/4+y,3/4+x,3/4+z
1/2+x,1/2+y,1/2+z
3/4-y,1/4+x,3/4+z
1/2-x,-y,1/2+z
3/4+y,3/4-x,1/4+z
1/2+x,1/2-y,-z
-x,1/2+y,1/2-z
1/4+y,3/4+x,3/4-z
3/4-y,3/4-x,3/4-z
1/2-x,1/2-y,1/2-z
1/4+y,3/4-x,1/4-z
1/2+x,y,1/2-z
1/4-y,1/4+x,3/4-z
1/2-x,1/2+y,z
x,1/2-y,1/2+z
3/4-y,1/4-x,1/4+z
1/4+y,1/4+x,1/4+z
loop_
_atom_site_type_symbol
_atom_site_label
_atom_site_fract_x
_atom_site_fract_y
_atom_site_fract_z
Si Si1 0.863014 0.700972 0.256373
Si Si2 0.345657 0.098676 0.092426
Si Si3 0.696997 0.334124 0.395106
Si Si4 0.593124 0.069006 0.330405
Si Si5 0.692720 0.841112 0.794853
Si Si6 0.250000 0.909510 0.000000
O O1 0.866640 0.662232 0.199311
O O2 0.915468 0.642137 0.290823
O O3 0.868513 0.792942 0.241406
O O4 0.778209 0.696432 0.285477
O O5 0.262831 0.116040 0.064174
O O6 0.339271 0.147806 0.146552
O O7 0.368289 0.010564 0.110379
O O8 0.613347 0.363347 0.375000
O O9 0.701809 0.241155 0.395933
O O10 0.715844 0.358258 0.453605
O O11 0.649622 0.100379 0.375000
O O12 0.706488 0.928134 0.773318
#
# Coordination Sequence:
#
# PCOD9573988 Si02
#       6
#    32  32  32  32  32  16
#     4  11  24  42  73 104 151 189 245 319 373 448
#     4  11  23  44  75 106 142 194 258 314 373 453
#     4  11  26  45  70 104 148 189 246 314 374 454
#     4  12  26  44  72 109 145 199 253 308 393 463
#     4  10  23  44  70 108 142 194 249 310 376 440
#     4  10  24  42  72  96 140 190 244 292 366 454
#
# _framework density 23.539244
#
# number of rings (size 3 to 8) (size 9 to 14) (size 15 to 20)
#    0.000    1.091    1.818    3.273   12.727    0.364 
#    0.000    0.000    0.000    4.909    0.000    0.000 
#    0.000    0.000    0.000    0.000    0.000    0.000 
#
# Total GULP energy -491180.534349 kJ/mol
# GULP energy per Si atom -5581.596981 kJ/mol
# Density = 2.348567 g / cm^3
# Si number density = 23.539244 Si / 1000 Ang^3
#
#
#
# Elastic Constant Matrix: (Units=GPa)
#
#
# Indices 1 2 3 4 5 6 
#
# 1 80.3567 18.1618 25.3715 0.0000 0.0000 0.0000
# 2 18.1618 80.3559 25.3754 0.0000 0.0000 0.0000
# 3 25.3715 25.3754 90.8987 0.0000 0.0000 0.0000
# 4 0.0000 0.0000 0.0000 24.8855 0.0000 0.0000
# 5 0.0000 0.0000 0.0000 0.0000 24.8855 0.0000
# 6 0.0000 0.0000 0.0000 0.0000 0.0000 13.8047
#
#
#
# Elastic Compliance Matrix: (Units=1/GPa)
#
#
# Indices 1 2 3 4 5 6 
#
# 1 0.013967 -0.002112 -0.003309 0.000000 0.000000 0.000000
# 2 -0.002112 0.013967 -0.003310 0.000000 0.000000 0.000000
# 3 -0.003309 -0.003310 0.012849 0.000000 0.000000 0.000000
# 4 0.000000 0.000000 0.000000 0.040184 0.000000 0.000000
# 5 0.000000 0.000000 0.000000 0.000000 0.040184 0.000000
# 6 0.000000 0.000000 0.000000 0.000000 0.000000 0.072439
#
#
# Mechanical properties :
#
#
# Convention : Reuss Voigt Hill
#
# Bulk Modulus (GPa) = 42.87815 43.26986 43.07401
# Shear Modulus (GPa) = 22.84941 24.89531 23.87236
#
# Velocity S-wave (km/s) = 3.11898 3.25562 3.18803
# Velocity P-wave (km/s) = 5.58801 5.70561 5.64711
#
# Compressibility (1/GPa) = 0.02332190
#
# Stress axis : x y z
#
# Youngs Moduli (GPa) = 71.59987 71.59695 77.82876
#
# Poissons Ratio (x) = 0.15120 0.25752
# Poissons Ratio (y) = 0.15120 0.25758
# Poissons Ratio (z) = 0.23691 0.23696
#
# Static dielectric constant tensor:
#      x y z
#    x 1.902000 0.000000 0.000000 
#    y 0.000000 1.902000 0.000000 
#    z 0.000000 0.000000 1.943140 
# 
# From -- ./inp_files/11419.got.cif
#   From: 2010.05.17/outbox.cif.g08.bks.cpg/sg142_6_cif.got.tgz:11419.got - 2010.05.20 13:39:18.
