data_PCOD9573387
_publ_section_title
;
Structure prediction by ZEFSAII (Michael W. Deem and Ramdas Pophale) SiO2 
 PCOD9573387
Probable space group: I 41/A M D
;
_chemical_formula_sum "Si O2"
_cell_formula_units_Z 80
_cell_length_a 24.000000
_cell_length_b 24.000000
_cell_length_c 15.000000
_cell_angle_alpha 90.000000
_cell_angle_beta 90.000000
_cell_angle_gamma 90.000000
_cell_volume 8640.000000
_symmetry_space_group_name_H-M "I 41/A M D"
_symmetry_group_IT_number 141
_space_group.IT_coordinate_system_code '2'
_symmetry_cell_setting 'tetragonal'
loop_
_space_group_symop_operation_xyz
x,y,z
1/4-y,3/4+x,1/4+z
-x,1/2-y,z
1/4+y,1/4-x,3/4+z
x,-y,-z
-x,1/2+y,-z
1/4+y,3/4+x,1/4-z
1/4-y,1/4-x,3/4-z
-x,-y,-z
3/4+y,1/4-x,3/4-z
x,1/2+y,-z
3/4-y,3/4+x,1/4-z
-x,y,z
x,1/2-y,z
3/4-y,1/4-x,3/4+z
3/4+y,3/4+x,1/4+z
1/2+x,1/2+y,1/2+z
3/4-y,1/4+x,3/4+z
1/2-x,-y,1/2+z
3/4+y,3/4-x,1/4+z
1/2+x,1/2-y,1/2-z
1/2-x,y,1/2-z
3/4+y,1/4+x,3/4-z
3/4-y,3/4-x,1/4-z
1/2-x,1/2-y,1/2-z
1/4+y,3/4-x,1/4-z
1/2+x,y,1/2-z
1/4-y,1/4+x,3/4-z
1/2-x,1/2+y,1/2+z
1/2+x,-y,1/2+z
1/4-y,3/4-x,1/4+z
1/4+y,1/4+x,3/4+z
loop_
_atom_site_type_symbol
_atom_site_label
_atom_site_fract_x
_atom_site_fract_y
_atom_site_fract_z
Si Si1 0.065007 0.108821 0.121766
Si Si2 0.126362 0.538561 0.586774
Si Si3 0.066358 0.500458 0.767644
Si Si4 0.900464 0.686822 0.718390
Si Si5 0.118950 0.182999 0.964248
O O1 0.071334 0.147327 0.209168
O O2 0.000000 0.104715 0.094857
O O3 0.083558 0.047264 0.158163
O O4 0.098284 0.141982 0.044294
O O5 0.135722 0.500000 0.500000
O O6 0.182038 0.567963 0.625000
O O7 0.097085 0.510420 0.672888
O O8 0.086876 0.589023 0.553099
O O9 0.074108 0.436063 0.796133
O O10 0.000000 0.509439 0.753750
O O11 0.932575 0.682575 0.625000
O O12 0.897913 0.750000 0.750445
O O13 0.086857 0.163144 0.875000
O O14 0.109098 0.250000 0.981089
#
# Coordination Sequence:
#
# PCOD9573387 Si02
#       5
#    32  32  32  32  32
#     4  11  22  39  63  94 132 167 209 265 323 384
#     4  11  22  38  61  87 125 169 218 266 311 372
#     4  10  22  41  64  92 126 168 215 258 316 393
#     4  11  21  34  56  90 128 166 202 251 321 390
#     4  11  25  44  68  95 125 169 221 273 328 385
#
# _framework density 9.2592590000000001
#
# number of rings (size 3 to 8) (size 9 to 14) (size 15 to 20)
#    0.000    1.200    4.000    3.600    0.000    7.600 
#    0.000    4.000    0.000    0.000    0.000    0.000 
#    0.000    0.000    0.000    0.000    0.000    0.000 
#
# Total GULP energy -446665.893108 kJ/mol
# GULP energy per Si atom -5583.323664 kJ/mol
# Density = 0.923818 g / cm^3
# Si number density = 9.259259 Si / 1000 Ang^3
#
#
#
# Elastic Constant Matrix: (Units=GPa)
#
#
# Indices 1 2 3 4 5 6 
#
# 1 111.2914 43.7954 43.0220 0.0000 0.0000 0.0000
# 2 43.7954 111.2889 43.0196 0.0000 0.0000 0.0000
# 3 43.0220 43.0196 110.3267 0.0000 0.0000 0.0000
# 4 0.0000 0.0000 0.0000 36.4123 0.0000 0.0000
# 5 0.0000 0.0000 0.0000 0.0000 36.4128 0.0000
# 6 0.0000 0.0000 0.0000 0.0000 0.0000 27.6289
#
#
#
# Elastic Compliance Matrix: (Units=1/GPa)
#
#
# Indices 1 2 3 4 5 6 
#
# 1 0.011522 -0.003294 -0.003209 0.000000 0.000000 0.000000
# 2 -0.003294 0.011522 -0.003208 0.000000 0.000000 0.000000
# 3 -0.003209 -0.003208 0.011566 0.000000 0.000000 0.000000
# 4 0.000000 0.000000 0.000000 0.027463 0.000000 0.000000
# 5 0.000000 0.000000 0.000000 0.000000 0.027463 0.000000
# 6 0.000000 0.000000 0.000000 0.000000 0.000000 0.036194
#
#
# Mechanical properties :
#
#
# Convention : Reuss Voigt Hill
#
# Bulk Modulus (GPa) = 65.83904 65.84234 65.84069
# Shear Modulus (GPa) = 33.28563 33.62880 33.45722
#
# Velocity S-wave (km/s) = 4.24420 4.26603 4.25513
# Velocity P-wave (km/s) = 7.72321 7.73934 7.73128
#
# Compressibility (1/GPa) = 0.01518856
#
# Stress axis : x y z
#
# Youngs Moduli (GPa) = 86.79046 86.78986 86.45875
#
# Poissons Ratio (x) = 0.28588 0.27741
# Poissons Ratio (y) = 0.28588 0.27739
# Poissons Ratio (z) = 0.27848 0.27845
#
# Static dielectric constant tensor:
#      x y z
#    x 1.650060 0.000000 0.000000 
#    y 0.000000 1.650060 0.000000 
#    z 0.000000 0.000000 1.626120 
# 
# From -- ./inp_files/6576.got.cif
#   From: 2010.05.17/outbox.ucp.g08.bks.cvg/sg141_4_cif.got.tgz:6576.got - 2010.06.11 11:43:24.
