data_PCOD9573791
_publ_section_title
;
Structure prediction by ZEFSAII (Michael W. Deem and Ramdas Pophale) SiO2 
 PCOD9573791
Probable space group: I 41/A C D
;
_chemical_formula_sum "Si O2"
_cell_formula_units_Z 160
_cell_length_a 24.488958
_cell_length_b 24.488958
_cell_length_c 13.236611
_cell_angle_alpha 90.000000
_cell_angle_beta 90.000000
_cell_angle_gamma 90.000000
_cell_volume 7938.115592
_symmetry_space_group_name_H-M "I 41/A C D"
_symmetry_group_IT_number 142
_space_group.IT_coordinate_system_code '2'
_symmetry_cell_setting 'tetragonal'
loop_
_space_group_symop_operation_xyz
x,y,z
1/4-y,3/4+x,1/4+z
-x,1/2-y,z
1/4+y,1/4-x,3/4+z
x,-y,1/2-z
1/2-x,y,-z
3/4+y,1/4+x,1/4-z
1/4-y,1/4-x,1/4-z
-x,-y,-z
3/4+y,1/4-x,3/4-z
x,1/2+y,-z
3/4-y,3/4+x,1/4-z
-x,y,1/2+z
1/2+x,-y,z
1/4-y,3/4-x,3/4+z
3/4+y,3/4+x,3/4+z
1/2+x,1/2+y,1/2+z
3/4-y,1/4+x,3/4+z
1/2-x,-y,1/2+z
3/4+y,3/4-x,1/4+z
1/2+x,1/2-y,-z
-x,1/2+y,1/2-z
1/4+y,3/4+x,3/4-z
3/4-y,3/4-x,3/4-z
1/2-x,1/2-y,1/2-z
1/4+y,3/4-x,1/4-z
1/2+x,y,1/2-z
1/4-y,1/4+x,3/4-z
1/2-x,1/2+y,z
x,1/2-y,1/2+z
3/4-y,1/4-x,1/4+z
1/4+y,1/4+x,1/4+z
loop_
_atom_site_type_symbol
_atom_site_label
_atom_site_fract_x
_atom_site_fract_y
_atom_site_fract_z
Si Si1 0.916824 0.625639 0.776659
Si Si2 0.458732 0.125735 0.841508
Si Si3 0.732618 0.309829 0.782099
Si Si4 0.599634 0.586432 0.860373
Si Si5 0.869700 0.534709 0.659863
O O1 0.878666 0.628666 0.875000
O O2 0.884313 0.662588 0.694366
O O3 0.916513 0.566658 0.723749
O O4 0.977986 0.635352 0.813824
O O5 0.432101 0.182101 0.875000
O O6 0.446254 0.078837 0.925196
O O7 0.426011 0.105891 0.743125
O O8 0.750000 0.250000 0.750000
O O9 0.776983 0.327858 0.863710
O O10 0.740212 0.351028 0.687402
O O11 0.665494 0.583824 0.866847
O O12 0.842277 0.500000 0.750000
#
# Coordination Sequence:
#
# PCOD9573791 Si02
#       5
#    32  32  32  32  32
#     4  10  22  40  63  95 132 172 224 270 333 390
#     4  12  23  43  65  98 137 177 222 278 339 401
#     4  12  23  41  72  97 127 177 226 279 329 395
#     4  10  24  40  65  95 136 166 221 277 325 396
#     4  10  21  39  65  96 130 165 223 271 332 388
#
# _framework density 20.155916000000001
#
# number of rings (size 3 to 8) (size 9 to 14) (size 15 to 20)
#    1.200    0.000    2.000    5.400    0.000    2.000 
#    0.000    0.000    4.400    0.000    0.000    0.000 
#    0.000    0.000    0.000    0.000    0.000    0.000 
#
# Total GULP energy -445450.030233 kJ/mol
# GULP energy per Si atom -5568.125378 kJ/mol
# Density = 2.011004 g / cm^3
# Si number density = 20.155916 Si / 1000 Ang^3
#
#
#
# Elastic Constant Matrix: (Units=GPa)
#
#
# Indices 1 2 3 4 5 6 
#
# 1 47.9521 4.8991 -11.1948 0.0000 0.0000 0.0000
# 2 4.8991 47.9521 -11.1948 0.0000 0.0000 0.0000
# 3 -11.1948 -11.1948 73.0603 0.0000 0.0000 0.0000
# 4 0.0000 0.0000 0.0000 28.6955 0.0000 0.0000
# 5 0.0000 0.0000 0.0000 0.0000 28.6955 0.0000
# 6 0.0000 0.0000 0.0000 0.0000 0.0000 16.0763
#
#
#
# Elastic Compliance Matrix: (Units=1/GPa)
#
#
# Indices 1 2 3 4 5 6 
#
# 1 0.021731 -0.001496 0.003100 0.000000 0.000000 0.000000
# 2 -0.001496 0.021731 0.003100 0.000000 0.000000 0.000000
# 3 0.003100 0.003100 0.014637 0.000000 0.000000 0.000000
# 4 0.000000 0.000000 0.000000 0.034849 0.000000 0.000000
# 5 0.000000 0.000000 0.000000 0.000000 0.034849 0.000000
# 6 0.000000 0.000000 0.000000 0.000000 0.000000 0.062203
#
#
# Mechanical properties :
#
#
# Convention : Reuss Voigt Hill
#
# Bulk Modulus (GPa) = 14.81296 14.88704 14.85000
# Shear Modulus (GPa) = 24.61922 27.12380 25.87151
#
# Velocity S-wave (km/s) = 3.49870 3.67236 3.58658
# Velocity P-wave (km/s) = 4.86686 5.03821 4.95328
#
# Compressibility (1/GPa) = 0.06750847
#
# Stress axis : x y z
#
# Youngs Moduli (GPa) = 46.01749 46.01749 68.31776
#
# Poissons Ratio (x) = 0.06886 -0.21182
# Poissons Ratio (y) = 0.06886 -0.21182
# Poissons Ratio (z) = -0.14268 -0.14268
#
# Static dielectric constant tensor:
#      x y z
#    x 1.722960 0.000000 0.000000 
#    y 0.000000 1.722960 0.000000 
#    z 0.000000 0.000000 1.743840 
# 
# From -- ./inp_files/5454.got.cif
#   From: 2010.05.17/outbox.cif.g08.bks.cpg/sg142_3_cif.got.tgz:5454.got - 2010.05.20 13:39:18.
