data_PCOD9573113
_publ_section_title
;
Structure prediction by ZEFSAII (Michael W. Deem and Ramdas Pophale) SiO2 
 PCOD9573113
Probable space group: I 41/A M D
;
_chemical_formula_sum "Si O2"
_cell_formula_units_Z 176
_cell_length_a 17.668128
_cell_length_b 17.668128
_cell_length_c 24.461839
_cell_angle_alpha 90.000000
_cell_angle_beta 90.000000
_cell_angle_gamma 90.000000
_cell_volume 7636.074860
_symmetry_space_group_name_H-M "I 41/A M D"
_symmetry_group_IT_number 141
_space_group.IT_coordinate_system_code '2'
_symmetry_cell_setting 'tetragonal'
loop_
_space_group_symop_operation_xyz
x,y,z
1/4-y,3/4+x,1/4+z
-x,1/2-y,z
1/4+y,1/4-x,3/4+z
x,-y,-z
-x,1/2+y,-z
1/4+y,3/4+x,1/4-z
1/4-y,1/4-x,3/4-z
-x,-y,-z
3/4+y,1/4-x,3/4-z
x,1/2+y,-z
3/4-y,3/4+x,1/4-z
-x,y,z
x,1/2-y,z
3/4-y,1/4-x,3/4+z
3/4+y,3/4+x,1/4+z
1/2+x,1/2+y,1/2+z
3/4-y,1/4+x,3/4+z
1/2-x,-y,1/2+z
3/4+y,3/4-x,1/4+z
1/2+x,1/2-y,1/2-z
1/2-x,y,1/2-z
3/4+y,1/4+x,3/4-z
3/4-y,3/4-x,1/4-z
1/2-x,1/2-y,1/2-z
1/4+y,3/4-x,1/4-z
1/2+x,y,1/2-z
1/4-y,1/4+x,3/4-z
1/2-x,1/2+y,1/2+z
1/2+x,-y,1/2+z
1/4-y,3/4-x,1/4+z
1/4+y,1/4+x,3/4+z
loop_
_atom_site_type_symbol
_atom_site_label
_atom_site_fract_x
_atom_site_fract_y
_atom_site_fract_z
Si Si1 0.142395 0.882417 0.819869
Si Si2 0.417439 0.581863 0.189199
Si Si3 0.292358 0.463419 0.187541
Si Si4 0.124265 0.250000 0.724727
Si Si5 0.588171 0.165811 0.206752
Si Si6 0.000000 0.533651 0.870462
Si Si7 0.618367 0.750000 0.355127
O O1 0.171802 0.837466 0.872893
O O2 0.209955 0.932312 0.793512
O O3 0.107072 0.833620 0.771402
O O4 0.074440 0.932081 0.843522
O O5 0.500000 0.551115 0.206840
O O6 0.342853 0.535078 0.208144
O O7 0.413564 0.669880 0.207332
O O8 0.268462 0.481539 0.125000
O O9 0.353151 0.395447 0.184969
O O10 0.197454 0.250000 0.685303
O O11 0.129170 0.250000 0.789903
O O12 0.500000 0.146205 0.199308
O O13 0.600930 0.250000 0.184065
O O14 0.000000 0.445825 0.863526
O O15 0.571654 0.678347 0.375000
#
# Coordination Sequence:
#
# PCOD9573113 Si02
#       7
#    32  32  32  16  32  16  16
#     4  10  21  41  64  95 124 166 219 278 335 382
#     4  10  21  38  66  94 127 168 221 272 328 393
#     4  10  23  40  60  93 135 173 218 268 329 401
#     4  10  23  43  68  98 128 174 224 280 336 401
#     4  11  23  39  63  94 130 169 217 267 330 395
#     4  10  22  44  72  95 126 175 228 286 337 399
#     4  11  27  44  63  94 136 176 215 270 354 426
#
# _framework density 23.048492
#
# number of rings (size 3 to 8) (size 9 to 14) (size 15 to 20)
#    0.000    1.727    0.909    2.182    2.545   10.182 
#    0.000    6.364    0.000    0.000    0.000    0.000 
#    0.000    0.000    0.000    0.000    0.000    0.000 
#
# Total GULP energy -491187.330719 kJ/mol
# GULP energy per Si atom -5581.674213 kJ/mol
# Density = 2.299603 g / cm^3
# Si number density = 23.048492 Si / 1000 Ang^3
#
#
#
# Elastic Constant Matrix: (Units=GPa)
#
#
# Indices 1 2 3 4 5 6 
#
# 1 148.4944 67.7260 17.7271 0.0000 0.0000 0.0000
# 2 67.7260 148.4949 17.7305 0.0000 0.0000 0.0000
# 3 17.7271 17.7305 83.5884 0.0000 0.0000 0.0000
# 4 0.0000 0.0000 0.0000 -13.5087 0.0000 0.0000
# 5 0.0000 0.0000 0.0000 0.0000 -13.4767 0.0000
# 6 0.0000 0.0000 0.0000 0.0000 0.0000 16.6945
#
#
#
# Elastic Compliance Matrix: (Units=1/GPa)
#
#
# Indices 1 2 3 4 5 6 
#
# 1 0.008586 -0.003795 -0.001016 0.000000 0.000000 0.000000
# 2 -0.003795 0.008586 -0.001017 0.000000 0.000000 0.000000
# 3 -0.001016 -0.001017 0.012394 0.000000 0.000000 0.000000
# 4 0.000000 0.000000 0.000000 -0.074027 0.000000 0.000000
# 5 0.000000 0.000000 0.000000 0.000000 -0.074202 0.000000
# 6 0.000000 0.000000 0.000000 0.000000 0.000000 0.059900
#
#
# Mechanical properties :
#
#
# Convention : Reuss Voigt Hill
#
# Bulk Modulus (GPa) = 55.82690 65.21610 60.52150
# Shear Modulus (GPa) = -121.54825 16.43475 -52.55675
#
# Velocity S-wave (km/s) = -7.26983 2.67320 -4.78040
# Velocity P-wave (km/s) = 6.79655 6.15505 2.03820
#
# Compressibility (1/GPa) = 0.01791251
#
# Stress axis : x y z
#
# Youngs Moduli (GPa) = 116.46498 116.46415 80.68110
#
# Poissons Ratio (x) = 0.44195 0.08197
# Poissons Ratio (y) = 0.44195 0.08201
# Poissons Ratio (z) = 0.11833 0.11839
#
# Static dielectric constant tensor:
#      x y z
#    x 1.844850 0.000000 0.000000 
#    y 0.000000 1.844850 0.000000 
#    z 0.000000 0.000000 2.005050 
# 
# From -- ./inp_files/12984.got.cif
#   From: 2010.05.17/outbox.cif.g08.bks.cpg/sg141_7_cif.got.tgz:12984.got - 2010.05.20 13:30:51.
