data_PCOD9573656
_publ_section_title
;
Structure prediction by ZEFSAII (Michael W. Deem and Ramdas Pophale) SiO2 
 PCOD9573656
Probable space group: I 41/A C D
;
_chemical_formula_sum "Si O2"
_cell_formula_units_Z 80
_cell_length_a 12.211310
_cell_length_b 12.211310
_cell_length_c 22.503721
_cell_angle_alpha 90.000000
_cell_angle_beta 90.000000
_cell_angle_gamma 90.000000
_cell_volume 3355.666929
_symmetry_space_group_name_H-M "I 41/A C D"
_symmetry_group_IT_number 142
_space_group.IT_coordinate_system_code '2'
_symmetry_cell_setting 'tetragonal'
loop_
_space_group_symop_operation_xyz
x,y,z
1/4-y,3/4+x,1/4+z
-x,1/2-y,z
1/4+y,1/4-x,3/4+z
x,-y,1/2-z
1/2-x,y,-z
3/4+y,1/4+x,1/4-z
1/4-y,1/4-x,1/4-z
-x,-y,-z
3/4+y,1/4-x,3/4-z
x,1/2+y,-z
3/4-y,3/4+x,1/4-z
-x,y,1/2+z
1/2+x,-y,z
1/4-y,3/4-x,3/4+z
3/4+y,3/4+x,3/4+z
1/2+x,1/2+y,1/2+z
3/4-y,1/4+x,3/4+z
1/2-x,-y,1/2+z
3/4+y,3/4-x,1/4+z
1/2+x,1/2-y,-z
-x,1/2+y,1/2-z
1/4+y,3/4+x,3/4-z
3/4-y,3/4-x,3/4-z
1/2-x,1/2-y,1/2-z
1/4+y,3/4-x,1/4-z
1/2+x,y,1/2-z
1/4-y,1/4+x,3/4-z
1/2-x,1/2+y,z
x,1/2-y,1/2+z
3/4-y,1/4-x,1/4+z
1/4+y,1/4+x,1/4+z
loop_
_atom_site_type_symbol
_atom_site_label
_atom_site_fract_x
_atom_site_fract_y
_atom_site_fract_z
Si Si1 0.036114 0.000000 0.750000
Si Si2 0.847773 0.306877 0.683841
Si Si3 0.078299 0.350089 0.455805
O O1 0.114777 0.094484 0.726828
O O2 0.952825 0.052370 0.797535
O O3 0.916007 0.333994 0.625000
O O4 0.876434 0.200932 0.723934
O O5 0.716847 0.312935 0.674998
O O6 0.000000 0.250000 0.437848
#
# Coordination Sequence:
#
# PCOD9573656 Si02
#       3
#    16  32  32
#     4  10  20  38  60  90 130 168 220 290 326 412
#     4  10  21  41  64  93 132 184 221 280 351 407
#     4   9  20  40  62  91 135 168 225 284 333 414
#
# _framework density 23.840267999999998
#
# number of rings (size 3 to 8) (size 9 to 14) (size 15 to 20)
#    0.000    2.400    0.000    1.200    0.000    7.200 
#   28.800    0.000    0.000    0.000    0.000    0.000 
#    0.000    0.000    0.000    0.000    0.000    0.000 
#
# Total GULP energy -223205.440932 kJ/mol
# GULP energy per Si atom -5580.136023 kJ/mol
# Density = 2.378601 g / cm^3
# Si number density = 23.840268 Si / 1000 Ang^3
#
#
#
# Elastic Constant Matrix: (Units=GPa)
#
#
# Indices 1 2 3 4 5 6 
#
# 1 143.2750 52.0390 14.9089 0.0000 0.0000 0.0000
# 2 52.0390 143.2758 14.9088 0.0000 0.0000 0.0000
# 3 14.9089 14.9088 100.5264 0.0000 0.0000 0.0000
# 4 0.0000 0.0000 0.0000 9.8265 0.0000 0.0000
# 5 0.0000 0.0000 0.0000 0.0000 9.8248 0.0000
# 6 0.0000 0.0000 0.0000 0.0000 0.0000 22.9048
#
#
#
# Elastic Compliance Matrix: (Units=1/GPa)
#
#
# Indices 1 2 3 4 5 6 
#
# 1 0.008100 -0.002861 -0.000777 0.000000 0.000000 0.000000
# 2 -0.002861 0.008100 -0.000777 0.000000 0.000000 0.000000
# 3 -0.000777 -0.000777 0.010178 0.000000 0.000000 0.000000
# 4 0.000000 0.000000 0.000000 0.101766 0.000000 0.000000
# 5 0.000000 0.000000 0.000000 0.000000 0.101784 0.000000
# 6 0.000000 0.000000 0.000000 0.000000 0.000000 0.043659
#
#
# Mechanical properties :
#
#
# Convention : Reuss Voigt Hill
#
# Bulk Modulus (GPa) = 56.98811 61.19896 59.09353
# Shear Modulus (GPa) = 17.34518 28.85924 23.10221
#
# Velocity S-wave (km/s) = 2.70025 3.48303 3.11632
# Velocity P-wave (km/s) = 5.80326 6.47314 6.14733
#
# Compressibility (1/GPa) = 0.01754752
#
# Stress axis : x y z
#
# Youngs Moduli (GPa) = 123.46336 123.46409 98.25032
#
# Poissons Ratio (x) = 0.35323 0.07633
# Poissons Ratio (y) = 0.35323 0.07633
# Poissons Ratio (z) = 0.09592 0.09592
#
# Static dielectric constant tensor:
#      x y z
#    x 1.948840 0.000000 0.000000 
#    y 0.000000 1.948840 0.000000 
#    z 0.000000 0.000000 2.030230 
# 
# From -- ./inp_files/9565.got.cif
#   From: 2010.05.17/outbox.cif.g08.bks.cpg/sg142_5_cif.got.tgz:9565.got - 2010.05.20 13:39:18.
