data_PCOD9573143
_publ_section_title
;
Structure prediction by ZEFSAII (Michael W. Deem and Ramdas Pophale) SiO2 
 PCOD9573143
Probable space group: I 41/A M D
;
_chemical_formula_sum "Si O2"
_cell_formula_units_Z 136
_cell_length_a 23.000994
_cell_length_b 23.000994
_cell_length_c 11.940209
_cell_angle_alpha 90.000000
_cell_angle_beta 90.000000
_cell_angle_gamma 90.000000
_cell_volume 6316.916527
_symmetry_space_group_name_H-M "I 41/A M D"
_symmetry_group_IT_number 141
_space_group.IT_coordinate_system_code '2'
_symmetry_cell_setting 'tetragonal'
loop_
_space_group_symop_operation_xyz
x,y,z
1/4-y,3/4+x,1/4+z
-x,1/2-y,z
1/4+y,1/4-x,3/4+z
x,-y,-z
-x,1/2+y,-z
1/4+y,3/4+x,1/4-z
1/4-y,1/4-x,3/4-z
-x,-y,-z
3/4+y,1/4-x,3/4-z
x,1/2+y,-z
3/4-y,3/4+x,1/4-z
-x,y,z
x,1/2-y,z
3/4-y,1/4-x,3/4+z
3/4+y,3/4+x,1/4+z
1/2+x,1/2+y,1/2+z
3/4-y,1/4+x,3/4+z
1/2-x,-y,1/2+z
3/4+y,3/4-x,1/4+z
1/2+x,1/2-y,1/2-z
1/2-x,y,1/2-z
3/4+y,1/4+x,3/4-z
3/4-y,3/4-x,1/4-z
1/2-x,1/2-y,1/2-z
1/4+y,3/4-x,1/4-z
1/2+x,y,1/2-z
1/4-y,1/4+x,3/4-z
1/2-x,1/2+y,1/2+z
1/2+x,-y,1/2+z
1/4-y,3/4-x,1/4+z
1/4+y,1/4+x,3/4+z
loop_
_atom_site_type_symbol
_atom_site_label
_atom_site_fract_x
_atom_site_fract_y
_atom_site_fract_z
Si Si1 0.500000 0.750000 0.642475
Si Si2 0.659578 0.184010 0.588910
Si Si3 0.888540 0.335716 0.144499
Si Si4 0.432464 0.461847 0.331723
Si Si5 0.803815 0.641186 0.665921
O O1 0.448383 0.800449 0.642058
O O2 0.650784 0.250000 0.630518
O O3 0.608200 0.141801 0.625000
O O4 0.653006 0.185299 0.454605
O O5 0.724071 0.162902 0.619881
O O6 0.899900 0.404593 0.126283
O O7 0.856099 0.330026 0.263066
O O8 0.500000 0.457233 0.361153
O O9 0.425665 0.460097 0.196818
O O10 0.828994 0.578994 0.625000
O O11 0.750000 0.635845 0.750000
#
# Coordination Sequence:
#
# PCOD9573143 Si02
#       5
#     8  32  32  32  32
#     4  12  24  40  64 102 130 176 206 266 338 376
#     4  11  25  41  66  94 126 178 227 272 329 386
#     4  11  23  42  65  95 136 167 213 273 322 392
#     4  10  22  41  63  95 130 174 216 260 333 398
#     4  10  21  40  66  94 129 168 214 261 321 392
#
# _framework density 21.529492000000001
#
# number of rings (size 3 to 8) (size 9 to 14) (size 15 to 20)
#    0.000    1.412    4.706    0.000    3.294    1.647 
#    0.000   12.353    0.000    0.000    0.000    0.000 
#    0.000    0.000    0.000    0.000    0.000    0.000 
#
# Total GULP energy -378932.151472 kJ/mol
# GULP energy per Si atom -5572.531639 kJ/mol
# Density = 2.148049 g / cm^3
# Si number density = 21.529492 Si / 1000 Ang^3
#
#
#
# Elastic Constant Matrix: (Units=GPa)
#
#
# Indices 1 2 3 4 5 6 
#
# 1 136.6184 51.3649 15.8914 0.0000 0.0000 0.0000
# 2 51.3649 136.6145 15.8917 0.0000 0.0000 0.0000
# 3 15.8914 15.8917 62.1637 0.0000 0.0000 0.0000
# 4 0.0000 0.0000 0.0000 -0.4639 0.0000 0.0000
# 5 0.0000 0.0000 0.0000 0.0000 -0.4638 0.0000
# 6 0.0000 0.0000 0.0000 0.0000 0.0000 19.8733
#
#
#
# Elastic Compliance Matrix: (Units=1/GPa)
#
#
# Indices 1 2 3 4 5 6 
#
# 1 0.008645 -0.003085 -0.001421 0.000000 0.000000 0.000000
# 2 -0.003085 0.008645 -0.001421 0.000000 0.000000 0.000000
# 3 -0.001421 -0.001421 0.016813 0.000000 0.000000 0.000000
# 4 0.000000 0.000000 0.000000 -2.155471 0.000000 0.000000
# 5 0.000000 0.000000 0.000000 0.000000 -2.155900 0.000000
# 6 0.000000 0.000000 0.000000 0.000000 0.000000 0.050319
#
#
# Mechanical properties :
#
#
# Convention : Reuss Voigt Hill
#
# Bulk Modulus (GPa) = 44.94822 55.74363 50.34592
# Shear Modulus (GPa) = -1.18830 20.60568 9.70869
#
# Velocity S-wave (km/s) = -0.74373 3.09704 2.12586
# Velocity P-wave (km/s) = 4.49281 6.22390 5.42781
#
# Compressibility (1/GPa) = 0.02224782
#
# Stress axis : x y z
#
# Youngs Moduli (GPa) = 115.67570 115.67217 59.47680
#
# Poissons Ratio (x) = 0.35685 0.08453
# Poissons Ratio (y) = 0.35686 0.08454
# Poissons Ratio (z) = 0.16441 0.16442
#
# Static dielectric constant tensor:
#      x y z
#    x 1.764550 0.000000 0.000000 
#    y 0.000000 1.764550 0.000000 
#    z 0.000000 0.000000 1.836180 
# 
# From -- ./inp_files/4658.got.cif
#   From: 2010.05.17/outbox.cif.g08.bks.cpg/sg141_3_cif.got.tgz:4658.got - 2010.05.20 13:30:51.
