data_PCOD9573198
_publ_section_title
;
Structure prediction by ZEFSAII (Michael W. Deem and Ramdas Pophale) SiO2 
 PCOD9573198
Probable space group: I 41/A M D
;
_chemical_formula_sum "Si O2"
_cell_formula_units_Z 80
_cell_length_a 27.338864
_cell_length_b 27.338864
_cell_length_c 5.253536
_cell_angle_alpha 90.000000
_cell_angle_beta 90.000000
_cell_angle_gamma 90.000000
_cell_volume 3926.563649
_symmetry_space_group_name_H-M "I 41/A M D"
_symmetry_group_IT_number 141
_space_group.IT_coordinate_system_code '2'
_symmetry_cell_setting 'tetragonal'
loop_
_space_group_symop_operation_xyz
x,y,z
1/4-y,3/4+x,1/4+z
-x,1/2-y,z
1/4+y,1/4-x,3/4+z
x,-y,-z
-x,1/2+y,-z
1/4+y,3/4+x,1/4-z
1/4-y,1/4-x,3/4-z
-x,-y,-z
3/4+y,1/4-x,3/4-z
x,1/2+y,-z
3/4-y,3/4+x,1/4-z
-x,y,z
x,1/2-y,z
3/4-y,1/4-x,3/4+z
3/4+y,3/4+x,1/4+z
1/2+x,1/2+y,1/2+z
3/4-y,1/4+x,3/4+z
1/2-x,-y,1/2+z
3/4+y,3/4-x,1/4+z
1/2+x,1/2-y,1/2-z
1/2-x,y,1/2-z
3/4+y,1/4+x,3/4-z
3/4-y,3/4-x,1/4-z
1/2-x,1/2-y,1/2-z
1/4+y,3/4-x,1/4-z
1/2+x,y,1/2-z
1/4-y,1/4+x,3/4-z
1/2-x,1/2+y,1/2+z
1/2+x,-y,1/2+z
1/4-y,3/4-x,1/4+z
1/4+y,1/4+x,3/4+z
loop_
_atom_site_type_symbol
_atom_site_label
_atom_site_fract_x
_atom_site_fract_y
_atom_site_fract_z
Si Si1 0.500000 0.331676 0.651467
Si Si2 0.147648 0.750000 0.590915
Si Si3 0.907944 0.532626 0.753244
Si Si4 0.303622 0.946379 0.875000
O O1 0.546971 0.296971 0.625000
O O2 0.500000 0.364742 0.406109
O O3 0.500000 0.364544 0.905432
O O4 0.179854 0.700990 0.563220
O O5 0.904765 0.500000 0.500000
O O6 0.853401 0.555237 0.792557
O O7 0.920185 0.500000 0.000000
O O8 0.250000 0.945393 0.750000
#
# Coordination Sequence:
#
# PCOD9573198 Si02
#       4
#    16  16  32  16
#     4  11  26  45  68  99 134 173 228 293 354 424
#     4  12  24  44  72  99 136 179 230 290 358 421
#     4  11  24  42  66  99 138 182 229 287 347 418
#     4  10  22  40  66  98 137 184 228 282 343 412
#
# _framework density 20.37405
#
# number of rings (size 3 to 8) (size 9 to 14) (size 15 to 20)
#    0.000    1.000    0.000    6.000    5.600    6.400 
#    0.000    0.000    0.000    0.000    0.000    0.000 
#    0.000    0.000    0.000    0.000    0.000    0.000 
#
# Total GULP energy -223274.425014 kJ/mol
# GULP energy per Si atom -5581.860625 kJ/mol
# Density = 2.032768 g / cm^3
# Si number density = 20.374050 Si / 1000 Ang^3
#
#
#
# Elastic Constant Matrix: (Units=GPa)
#
#
# Indices 1 2 3 4 5 6 
#
# 1 164.7199 105.5740 70.9638 0.0000 0.0000 0.0000
# 2 105.5740 164.7214 70.9636 0.0000 0.0000 0.0000
# 3 70.9638 70.9636 178.5294 0.0000 0.0000 0.0000
# 4 0.0000 0.0000 0.0000 22.2875 0.0000 0.0000
# 5 0.0000 0.0000 0.0000 0.0000 22.2806 0.0000
# 6 0.0000 0.0000 0.0000 0.0000 0.0000 -43.2333
#
#
#
# Elastic Compliance Matrix: (Units=1/GPa)
#
#
# Indices 1 2 3 4 5 6 
#
# 1 0.010791 -0.006116 -0.001859 0.000000 0.000000 0.000000
# 2 -0.006116 0.010791 -0.001858 0.000000 0.000000 0.000000
# 3 -0.001859 -0.001858 0.007079 0.000000 0.000000 0.000000
# 4 0.000000 0.000000 0.000000 0.044868 0.000000 0.000000
# 5 0.000000 0.000000 0.000000 0.000000 0.044882 0.000000
# 6 0.000000 0.000000 0.000000 0.000000 0.000000 -0.023130
#
#
# Mechanical properties :
#
#
# Convention : Reuss Voigt Hill
#
# Bulk Modulus (GPa) = 111.16158 111.44152 111.30155
# Shear Modulus (GPa) = 42.39245 17.63158 30.01202
#
# Velocity S-wave (km/s) = 4.56643 2.94495 3.84220
# Velocity P-wave (km/s) = 9.08195 8.14740 8.62734
#
# Compressibility (1/GPa) = 0.00899591
#
# Stress axis : x y z
#
# Youngs Moduli (GPa) = 92.66640 92.66759 141.26744
#
# Poissons Ratio (x) = 0.56674 0.26255
# Poissons Ratio (y) = 0.56673 0.26254
# Poissons Ratio (z) = 0.17222 0.17222
#
# Static dielectric constant tensor:
#      x y z
#    x 1.733380 0.000000 0.000000 
#    y 0.000000 1.733350 0.000000 
#    z 0.000000 0.000000 1.642560 
# 
# From -- ./inp_files/1037.got.cif
#   From: 2010.05.17/outbox.cif.g08.bks.cpg/sg141_1_cif.got.tgz:1037.got - 2010.05.20 13:30:51.
