data_PCOD9573535
_publ_section_title
;
Structure prediction by ZEFSAII (Michael W. Deem and Ramdas Pophale) SiO2 
 PCOD9573535
Probable space group: I 41/A C D
;
_chemical_formula_sum "Si O2"
_cell_formula_units_Z 144
_cell_length_a 17.344989
_cell_length_b 17.344989
_cell_length_c 20.181681
_cell_angle_alpha 90.000000
_cell_angle_beta 90.000000
_cell_angle_gamma 90.000000
_cell_volume 6071.631351
_symmetry_space_group_name_H-M "I 41/A C D"
_symmetry_group_IT_number 142
_space_group.IT_coordinate_system_code '2'
_symmetry_cell_setting 'tetragonal'
loop_
_space_group_symop_operation_xyz
x,y,z
1/4-y,3/4+x,1/4+z
-x,1/2-y,z
1/4+y,1/4-x,3/4+z
x,-y,1/2-z
1/2-x,y,-z
3/4+y,1/4+x,1/4-z
1/4-y,1/4-x,1/4-z
-x,-y,-z
3/4+y,1/4-x,3/4-z
x,1/2+y,-z
3/4-y,3/4+x,1/4-z
-x,y,1/2+z
1/2+x,-y,z
1/4-y,3/4-x,3/4+z
3/4+y,3/4+x,3/4+z
1/2+x,1/2+y,1/2+z
3/4-y,1/4+x,3/4+z
1/2-x,-y,1/2+z
3/4+y,3/4-x,1/4+z
1/2+x,1/2-y,-z
-x,1/2+y,1/2-z
1/4+y,3/4+x,3/4-z
3/4-y,3/4-x,3/4-z
1/2-x,1/2-y,1/2-z
1/4+y,3/4-x,1/4-z
1/2+x,y,1/2-z
1/4-y,1/4+x,3/4-z
1/2-x,1/2+y,z
x,1/2-y,1/2+z
3/4-y,1/4-x,1/4+z
1/4+y,1/4+x,1/4+z
loop_
_atom_site_type_symbol
_atom_site_label
_atom_site_fract_x
_atom_site_fract_y
_atom_site_fract_z
Si Si1 0.254286 0.721855 0.847365
Si Si2 0.750000 0.471587 0.500000
Si Si3 0.602670 0.281785 0.086125
Si Si4 0.500000 0.750000 0.220588
Si Si5 0.185216 0.935216 0.375000
Si Si6 0.414266 0.406456 0.966707
O O1 0.307775 0.709841 0.910790
O O2 0.194239 0.653508 0.854030
O O3 0.215810 0.804215 0.838465
O O4 0.310367 0.705264 0.784178
O O5 0.770824 0.527163 0.438075
O O6 0.675907 0.419034 0.480711
O O7 0.554499 0.334561 0.137074
O O8 0.563390 0.292124 0.016423
O O9 0.427043 0.801233 0.196667
#
# Coordination Sequence:
#
# PCOD9573535 Si02
#       6
#    32  16  32  16  16  32
#     4  10  20  35  62  93 130 167 224 283 348 397
#     4  10  24  42  68 102 144 188 238 300 362 436
#     4   9  16  29  55  91 112 159 220 284 320 400
#     4  10  19  36  60  91 126 160 236 274 344 420
#     4  10  24  42  64  98 138 184 240 292 362 432
#     4  10  21  37  61  93 133 179 218 283 351 417
#
# _framework density 23.716856
#
# number of rings (size 3 to 8) (size 9 to 14) (size 15 to 20)
#    0.000    2.444    4.444    0.000    3.111    1.778 
#    0.000    4.444    0.000    2.667    0.000    0.000 
#    0.000    0.000    0.000    0.000    0.000    0.000 
#
# Total GULP energy -401251.159850 kJ/mol
# GULP energy per Si atom -5572.932776 kJ/mol
# Density = 2.366287 g / cm^3
# Si number density = 23.716856 Si / 1000 Ang^3
#
#
#
# Elastic Constant Matrix: (Units=GPa)
#
#
# Indices 1 2 3 4 5 6 
#
# 1 89.1506 65.1682 15.0674 0.0000 0.0000 0.0000
# 2 65.1682 89.1506 15.0674 0.0000 0.0000 0.0000
# 3 15.0674 15.0674 76.2402 0.0000 0.0000 0.0000
# 4 0.0000 0.0000 0.0000 4.9059 0.0000 0.0000
# 5 0.0000 0.0000 0.0000 0.0000 4.9059 0.0000
# 6 0.0000 0.0000 0.0000 0.0000 0.0000 2.9722
#
#
#
# Elastic Compliance Matrix: (Units=1/GPa)
#
#
# Indices 1 2 3 4 5 6 
#
# 1 0.024219 -0.017478 -0.001332 0.000000 0.000000 0.000000
# 2 -0.017478 0.024219 -0.001332 0.000000 0.000000 0.000000
# 3 -0.001332 -0.001332 0.013643 0.000000 0.000000 0.000000
# 4 0.000000 0.000000 0.000000 0.203837 0.000000 0.000000
# 5 0.000000 0.000000 0.000000 0.000000 0.203837 0.000000
# 6 0.000000 0.000000 0.000000 0.000000 0.000000 0.336447
#
#
# Mechanical properties :
#
#
# Convention : Reuss Voigt Hill
#
# Bulk Modulus (GPa) = 45.88191 49.46085 47.67138
# Shear Modulus (GPa) = 5.85650 13.17269 9.51459
#
# Velocity S-wave (km/s) = 1.57312 2.35928 2.00511
# Velocity P-wave (km/s) = 4.76312 5.32180 5.05019
#
# Compressibility (1/GPa) = 0.02179508
#
# Stress axis : x y z
#
# Youngs Moduli (GPa) = 41.29038 41.29038 73.29789
#
# Poissons Ratio (x) = 0.72169 0.09764
# Poissons Ratio (y) = 0.72169 0.09764
# Poissons Ratio (z) = 0.05500 0.05500
#
# Static dielectric constant tensor:
#      x y z
#    x 1.921560 0.000000 0.000000 
#    y 0.000000 1.921560 0.000000 
#    z 0.000000 0.000000 1.855050 
# 
# From -- ./inp_files/10177.got.cif
#   From: 2010.05.17/outbox.cif.g08.bks.cpg/sg142_6_cif.got.tgz:10177.got - 2010.05.20 13:39:18.
