data_PCOD9573100
_publ_section_title
;
Structure prediction by ZEFSAII (Michael W. Deem and Ramdas Pophale) SiO2 
 PCOD9573100
Probable space group: I 41/A M D
;
_chemical_formula_sum "Si O2"
_cell_formula_units_Z 144
_cell_length_a 22.506606
_cell_length_b 22.506606
_cell_length_c 16.169019
_cell_angle_alpha 90.000000
_cell_angle_beta 90.000000
_cell_angle_gamma 90.000000
_cell_volume 8190.373139
_symmetry_space_group_name_H-M "I 41/A M D"
_symmetry_group_IT_number 141
_space_group.IT_coordinate_system_code '2'
_symmetry_cell_setting 'tetragonal'
loop_
_space_group_symop_operation_xyz
x,y,z
1/4-y,3/4+x,1/4+z
-x,1/2-y,z
1/4+y,1/4-x,3/4+z
x,-y,-z
-x,1/2+y,-z
1/4+y,3/4+x,1/4-z
1/4-y,1/4-x,3/4-z
-x,-y,-z
3/4+y,1/4-x,3/4-z
x,1/2+y,-z
3/4-y,3/4+x,1/4-z
-x,y,z
x,1/2-y,z
3/4-y,1/4-x,3/4+z
3/4+y,3/4+x,1/4+z
1/2+x,1/2+y,1/2+z
3/4-y,1/4+x,3/4+z
1/2-x,-y,1/2+z
3/4+y,3/4-x,1/4+z
1/2+x,1/2-y,1/2-z
1/2-x,y,1/2-z
3/4+y,1/4+x,3/4-z
3/4-y,3/4-x,1/4-z
1/2-x,1/2-y,1/2-z
1/4+y,3/4-x,1/4-z
1/2+x,y,1/2-z
1/4-y,1/4+x,3/4-z
1/2-x,1/2+y,1/2+z
1/2+x,-y,1/2+z
1/4-y,3/4-x,1/4+z
1/4+y,1/4+x,3/4+z
loop_
_atom_site_type_symbol
_atom_site_label
_atom_site_fract_x
_atom_site_fract_y
_atom_site_fract_z
Si Si1 0.500000 0.848153 0.860501
Si Si2 0.000000 0.316150 0.186061
Si Si3 0.221429 0.820318 0.340802
Si Si4 0.905194 0.873501 0.362279
Si Si5 0.681097 0.750000 0.731952
Si Si6 0.431844 0.405049 0.674848
O O1 0.441780 0.808221 0.875000
O O2 0.500000 0.862239 0.762528
O O3 0.500000 0.897970 0.929903
O O4 0.057636 0.321498 0.131120
O O5 0.000000 0.250000 0.225088
O O6 0.202986 0.750000 0.342120
O O7 0.250000 0.831281 0.250000
O O8 0.166155 0.863135 0.361565
O O9 0.276136 0.828470 0.403010
O O10 0.941066 0.912300 0.429766
O O11 0.923496 0.894487 0.271702
O O12 0.750000 0.750000 0.750000
O O13 0.500000 0.391382 0.650258
O O14 0.386838 0.363163 0.625000
#
# Coordination Sequence:
#
# PCOD9573100 Si02
#       6
#    16  16  32  32  16  32
#     4  11  18  38  65  91 113 149 206 262 321 378
#     4  12  20  34  64  97 122 149 202 270 332 389
#     4  10  21  37  61  90 125 172 216 252 311 391
#     4  12  22  40  63  94 125 166 211 267 323 386
#     4  12  27  43  63  93 132 164 212 278 336 392
#     4  11  23  38  59  95 135 171 208 261 325 385
#
# _framework density 17.581616
#
# number of rings (size 3 to 8) (size 9 to 14) (size 15 to 20)
#    0.000    0.778    8.889    0.000    1.556    2.000 
#    0.000    0.000    4.889    0.000    0.000    0.000 
#    0.000    0.000    0.000    0.000    0.000    0.000 
#
# Total GULP energy -401706.954850 kJ/mol
# GULP energy per Si atom -5579.263262 kJ/mol
# Density = 1.754160 g / cm^3
# Si number density = 17.581616 Si / 1000 Ang^3
#
#
#
# Elastic Constant Matrix: (Units=GPa)
#
#
# Indices 1 2 3 4 5 6 
#
# 1 122.5494 56.2930 47.3354 0.0000 0.0000 0.0000
# 2 56.2930 122.5460 47.3364 0.0000 0.0000 0.0000
# 3 47.3354 47.3364 121.8527 0.0000 0.0000 0.0000
# 4 0.0000 0.0000 0.0000 -136.9348 0.0000 0.0000
# 5 0.0000 0.0000 0.0000 0.0000 -137.0936 0.0000
# 6 0.0000 0.0000 0.0000 0.0000 0.0000 11.2983
#
#
#
# Elastic Compliance Matrix: (Units=1/GPa)
#
#
# Indices 1 2 3 4 5 6 
#
# 1 0.011066 -0.004027 -0.002734 0.000000 0.000000 0.000000
# 2 -0.004027 0.011066 -0.002735 0.000000 0.000000 0.000000
# 3 -0.002734 -0.002735 0.010331 0.000000 0.000000 0.000000
# 4 0.000000 0.000000 0.000000 -0.007303 0.000000 0.000000
# 5 0.000000 0.000000 0.000000 0.000000 -0.007294 0.000000
# 6 0.000000 0.000000 0.000000 0.000000 0.000000 0.088509
#
#
# Mechanical properties :
#
#
# Convention : Reuss Voigt Hill
#
# Bulk Modulus (GPa) = 74.23098 74.31976 74.27537
# Shear Modulus (GPa) = 38.50366 -38.14713 0.17827
#
# Velocity S-wave (km/s) = 4.68482 -4.66308 0.31877
# Velocity P-wave (km/s) = 8.46025 3.65660 6.51715
#
# Compressibility (1/GPa) = 0.01347146
#
# Stress axis : x y z
#
# Youngs Moduli (GPa) = 90.36727 90.36362 96.79477
#
# Poissons Ratio (x) = 0.36390 0.26467
# Poissons Ratio (y) = 0.36392 0.26470
# Poissons Ratio (z) = 0.24709 0.24711
#
# Static dielectric constant tensor:
#      x y z
#    x 1.600750 0.000000 0.000000 
#    y 0.000000 1.600750 0.000000 
#    z 0.000000 0.000000 1.619640 
# 
# From -- ./inp_files/8494.got.cif
#   From: 2010.05.17/outbox.cif.g08.bks.cpg/sg141_5_cif.got.tgz:8494.got - 2010.05.20 13:30:51.
