data_PCOD9573637
_publ_section_title
;
Structure prediction by ZEFSAII (Michael W. Deem and Ramdas Pophale) SiO2 
 PCOD9573637
Probable space group: I 41/A C D
;
_chemical_formula_sum "Si O2"
_cell_formula_units_Z 160
_cell_length_a 20.679582
_cell_length_b 20.679582
_cell_length_c 17.428867
_cell_angle_alpha 90.000000
_cell_angle_beta 90.000000
_cell_angle_gamma 90.000000
_cell_volume 7453.369775
_symmetry_space_group_name_H-M "I 41/A C D"
_symmetry_group_IT_number 142
_space_group.IT_coordinate_system_code '2'
_symmetry_cell_setting 'tetragonal'
loop_
_space_group_symop_operation_xyz
x,y,z
1/4-y,3/4+x,1/4+z
-x,1/2-y,z
1/4+y,1/4-x,3/4+z
x,-y,1/2-z
1/2-x,y,-z
3/4+y,1/4+x,1/4-z
1/4-y,1/4-x,1/4-z
-x,-y,-z
3/4+y,1/4-x,3/4-z
x,1/2+y,-z
3/4-y,3/4+x,1/4-z
-x,y,1/2+z
1/2+x,-y,z
1/4-y,3/4-x,3/4+z
3/4+y,3/4+x,3/4+z
1/2+x,1/2+y,1/2+z
3/4-y,1/4+x,3/4+z
1/2-x,-y,1/2+z
3/4+y,3/4-x,1/4+z
1/2+x,1/2-y,-z
-x,1/2+y,1/2-z
1/4+y,3/4+x,3/4-z
3/4-y,3/4-x,3/4-z
1/2-x,1/2-y,1/2-z
1/4+y,3/4-x,1/4-z
1/2+x,y,1/2-z
1/4-y,1/4+x,3/4-z
1/2-x,1/2+y,z
x,1/2-y,1/2+z
3/4-y,1/4-x,1/4+z
1/4+y,1/4+x,1/4+z
loop_
_atom_site_type_symbol
_atom_site_label
_atom_site_fract_x
_atom_site_fract_y
_atom_site_fract_z
Si Si1 0.870438 0.932104 0.264239
Si Si2 0.832172 0.807782 0.640956
Si Si3 0.429901 0.417251 0.176380
Si Si4 0.191127 0.691989 0.322046
Si Si5 0.425413 0.068713 0.855368
O O1 0.921281 0.934525 0.195826
O O2 0.835872 0.862159 0.264074
O O3 0.905826 0.934782 0.345680
O O4 0.831256 0.000000 0.250000
O O5 0.872190 0.866968 0.671955
O O6 0.860668 0.737108 0.627328
O O7 0.767345 0.800666 0.689404
O O8 0.414867 0.490447 0.146962
O O9 0.446199 0.419216 0.266902
O O10 0.163959 0.763938 0.338550
O O11 0.362961 0.112961 0.875000
#
# Coordination Sequence:
#
# PCOD9573637 Si02
#       5
#    32  32  32  32  32
#     4   9  17  34  59  87 116 152 200 245 295 365
#     4  10  20  37  59  83 119 161 194 251 312 358
#     4  10  22  40  60  85 122 161 205 255 312 374
#     4   9  18  36  61  86 116 159 200 245 308 364
#     4  10  21  41  63  85 121 163 207 255 310 373
#
# _framework density 21.466799000000002
#
# number of rings (size 3 to 8) (size 9 to 14) (size 15 to 20)
#    0.000    2.400    2.000    0.000    0.000    3.600 
#   10.800    6.000    0.000    0.000    0.000    0.000 
#    0.000    0.000    0.000    0.000    0.000    0.000 
#
# Total GULP energy -445519.526805 kJ/mol
# GULP energy per Si atom -5568.994085 kJ/mol
# Density = 2.141794 g / cm^3
# Si number density = 21.466799 Si / 1000 Ang^3
#
#
#
# Elastic Constant Matrix: (Units=GPa)
#
#
# Indices 1 2 3 4 5 6 
#
# 1 94.7692 68.2287 21.9136 0.0000 0.0000 0.0000
# 2 68.2287 94.7692 21.9136 0.0000 0.0000 0.0000
# 3 21.9136 21.9136 65.6270 0.0000 0.0000 0.0000
# 4 0.0000 0.0000 0.0000 35.2019 0.0000 0.0000
# 5 0.0000 0.0000 0.0000 0.0000 35.2019 0.0000
# 6 0.0000 0.0000 0.0000 0.0000 0.0000 62.4823
#
#
#
# Elastic Compliance Matrix: (Units=1/GPa)
#
#
# Indices 1 2 3 4 5 6 
#
# 1 0.022209 -0.015469 -0.002251 0.000000 0.000000 0.000000
# 2 -0.015469 0.022209 -0.002251 0.000000 0.000000 0.000000
# 3 -0.002251 -0.002251 0.016741 0.000000 0.000000 0.000000
# 4 0.000000 0.000000 0.000000 0.028408 0.000000 0.000000
# 5 0.000000 0.000000 0.000000 0.000000 0.028408 0.000000
# 6 0.000000 0.000000 0.000000 0.000000 0.000000 0.016005
#
#
# Mechanical properties :
#
#
# Convention : Reuss Voigt Hill
#
# Bulk Modulus (GPa) = 47.12860 53.25302 50.19081
# Shear Modulus (GPa) = 27.62549 36.11786 31.87168
#
# Velocity S-wave (km/s) = 3.59122 4.10628 3.85736
# Velocity P-wave (km/s) = 6.26080 6.88063 6.57802
#
# Compressibility (1/GPa) = 0.02121854
#
# Stress axis : x y z
#
# Youngs Moduli (GPa) = 45.02626 45.02626 59.73483
#
# Poissons Ratio (x) = 0.69651 0.13444
# Poissons Ratio (y) = 0.69651 0.13444
# Poissons Ratio (z) = 0.10134 0.10134
#
# Static dielectric constant tensor:
#      x y z
#    x 1.817470 0.000000 0.000000 
#    y 0.000000 1.817470 0.000000 
#    z 0.000000 0.000000 1.844680 
# 
# From -- ./inp_files/7393.got.cif
#   From: 2010.05.17/outbox.cif.g08.bks.cpg/sg142_4_cif.got.tgz:7393.got - 2010.05.20 13:39:18.
