data_PCOD9573622
_publ_section_title
;
Structure prediction by ZEFSAII (Michael W. Deem and Ramdas Pophale) SiO2 
 PCOD9573622
Probable space group: I 41/A C D
;
_chemical_formula_sum "Si O2"
_cell_formula_units_Z 160
_cell_length_a 26.209389
_cell_length_b 26.209389
_cell_length_c 13.142466
_cell_angle_alpha 90.000000
_cell_angle_beta 90.000000
_cell_angle_gamma 90.000000
_cell_volume 9027.981397
_symmetry_space_group_name_H-M "I 41/A C D"
_symmetry_group_IT_number 142
_space_group.IT_coordinate_system_code '2'
_symmetry_cell_setting 'tetragonal'
loop_
_space_group_symop_operation_xyz
x,y,z
1/4-y,3/4+x,1/4+z
-x,1/2-y,z
1/4+y,1/4-x,3/4+z
x,-y,1/2-z
1/2-x,y,-z
3/4+y,1/4+x,1/4-z
1/4-y,1/4-x,1/4-z
-x,-y,-z
3/4+y,1/4-x,3/4-z
x,1/2+y,-z
3/4-y,3/4+x,1/4-z
-x,y,1/2+z
1/2+x,-y,z
1/4-y,3/4-x,3/4+z
3/4+y,3/4+x,3/4+z
1/2+x,1/2+y,1/2+z
3/4-y,1/4+x,3/4+z
1/2-x,-y,1/2+z
3/4+y,3/4-x,1/4+z
1/2+x,1/2-y,-z
-x,1/2+y,1/2-z
1/4+y,3/4+x,3/4-z
3/4-y,3/4-x,3/4-z
1/2-x,1/2-y,1/2-z
1/4+y,3/4-x,1/4-z
1/2+x,y,1/2-z
1/4-y,1/4+x,3/4-z
1/2-x,1/2+y,z
x,1/2-y,1/2+z
3/4-y,1/4-x,1/4+z
1/4+y,1/4+x,1/4+z
loop_
_atom_site_type_symbol
_atom_site_label
_atom_site_fract_x
_atom_site_fract_y
_atom_site_fract_z
Si Si1 0.299250 0.238567 0.562468
Si Si2 0.594089 0.424405 0.604671
Si Si3 0.245485 0.640062 0.340358
Si Si4 0.307480 0.931329 0.506019
Si Si5 0.146710 0.653458 0.465404
O O1 0.250000 0.258131 0.500000
O O2 0.325785 0.284389 0.621019
O O3 0.276846 0.190898 0.628262
O O4 0.339230 0.211485 0.487324
O O5 0.600446 0.464235 0.512772
O O6 0.626176 0.441041 0.702788
O O7 0.621245 0.373551 0.561984
O O8 0.282673 0.594010 0.311523
O O9 0.201628 0.630426 0.426456
O O10 0.250000 0.951672 0.500000
O O11 0.321804 0.928197 0.625000
O O12 0.107740 0.642261 0.375000
#
# Coordination Sequence:
#
# PCOD9573622 Si02
#       5
#    32  32  32  32  32
#     4  10  20  36  63  86 116 157 197 249 294 347
#     4  11  21  38  58  85 119 150 203 251 292 345
#     4  10  21  39  58  84 120 160 201 236 292 361
#     4  12  24  37  53  84 126 164 196 234 298 362
#     4   9  20  38  58  87 113 151 200 241 292 358
#
# _framework density 17.722677999999998
#
# number of rings (size 3 to 8) (size 9 to 14) (size 15 to 20)
#    0.000    1.600    4.000    1.200    0.000    2.400 
#    0.000    0.000    0.000    0.600    0.000    4.200 
#    0.000    0.000    0.000    0.000    0.000    0.000 
#
# Total GULP energy -445941.140398 kJ/mol
# GULP energy per Si atom -5574.264255 kJ/mol
# Density = 1.768234 g / cm^3
# Si number density = 17.722678 Si / 1000 Ang^3
#
#
#
# Elastic Constant Matrix: (Units=GPa)
#
#
# Indices 1 2 3 4 5 6 
#
# 1 82.7206 50.9839 28.0037 0.0000 0.0000 0.0000
# 2 50.9839 82.7201 28.0044 0.0000 0.0000 0.0000
# 3 28.0037 28.0044 70.9455 0.0000 0.0000 0.0000
# 4 0.0000 0.0000 0.0000 27.0499 0.0000 0.0000
# 5 0.0000 0.0000 0.0000 0.0000 27.0500 0.0000
# 6 0.0000 0.0000 0.0000 0.0000 0.0000 10.6761
#
#
#
# Elastic Compliance Matrix: (Units=1/GPa)
#
#
# Indices 1 2 3 4 5 6 
#
# 1 0.020235 -0.011274 -0.003537 0.000000 0.000000 0.000000
# 2 -0.011274 0.020235 -0.003537 0.000000 0.000000 0.000000
# 3 -0.003537 -0.003537 0.016888 0.000000 0.000000 0.000000
# 4 0.000000 0.000000 0.000000 0.036969 0.000000 0.000000
# 5 0.000000 0.000000 0.000000 0.000000 0.036969 0.000000
# 6 0.000000 0.000000 0.000000 0.000000 0.000000 0.093667
#
#
# Mechanical properties :
#
#
# Convention : Reuss Voigt Hill
#
# Bulk Modulus (GPa) = 48.40023 50.04115 49.22069
# Shear Modulus (GPa) = 18.61876 21.58149 20.10013
#
# Velocity S-wave (km/s) = 3.24475 3.49339 3.37136
# Velocity P-wave (km/s) = 6.43482 6.67598 6.55651
#
# Compressibility (1/GPa) = 0.02066106
#
# Stress axis : x y z
#
# Youngs Moduli (GPa) = 49.41922 49.41844 59.21477
#
# Poissons Ratio (x) = 0.55716 0.20943
# Poissons Ratio (y) = 0.55717 0.20946
# Poissons Ratio (z) = 0.17479 0.17481
#
# Static dielectric constant tensor:
#      x y z
#    x 1.604140 0.000000 0.000000 
#    y 0.000000 1.604140 0.000000 
#    z 0.000000 0.000000 1.651380 
# 
# From -- ./inp_files/5388.got.cif
#   From: 2010.05.17/outbox.cif.g08.bks.cpg/sg142_3_cif.got.tgz:5388.got - 2010.05.20 13:39:18.
