data_PCOD9573772
_publ_section_title
;
Structure prediction by ZEFSAII (Michael W. Deem and Ramdas Pophale) SiO2 
 PCOD9573772
Probable space group: I 41/A C D
;
_chemical_formula_sum "Si O2"
_cell_formula_units_Z 136
_cell_length_a 22.965536
_cell_length_b 22.965536
_cell_length_c 11.409205
_cell_angle_alpha 90.000000
_cell_angle_beta 90.000000
_cell_angle_gamma 90.000000
_cell_volume 6017.395482
_symmetry_space_group_name_H-M "I 41/A C D"
_symmetry_group_IT_number 142
_space_group.IT_coordinate_system_code '2'
_symmetry_cell_setting 'tetragonal'
loop_
_space_group_symop_operation_xyz
x,y,z
1/4-y,3/4+x,1/4+z
-x,1/2-y,z
1/4+y,1/4-x,3/4+z
x,-y,1/2-z
1/2-x,y,-z
3/4+y,1/4+x,1/4-z
1/4-y,1/4-x,1/4-z
-x,-y,-z
3/4+y,1/4-x,3/4-z
x,1/2+y,-z
3/4-y,3/4+x,1/4-z
-x,y,1/2+z
1/2+x,-y,z
1/4-y,3/4-x,3/4+z
3/4+y,3/4+x,3/4+z
1/2+x,1/2+y,1/2+z
3/4-y,1/4+x,3/4+z
1/2-x,-y,1/2+z
3/4+y,3/4-x,1/4+z
1/2+x,1/2-y,-z
-x,1/2+y,1/2-z
1/4+y,3/4+x,3/4-z
3/4-y,3/4-x,3/4-z
1/2-x,1/2-y,1/2-z
1/4+y,3/4-x,1/4-z
1/2+x,y,1/2-z
1/4-y,1/4+x,3/4-z
1/2-x,1/2+y,z
x,1/2-y,1/2+z
3/4-y,1/4-x,1/4+z
1/4+y,1/4+x,1/4+z
loop_
_atom_site_type_symbol
_atom_site_label
_atom_site_fract_x
_atom_site_fract_y
_atom_site_fract_z
Si Si1 0.154695 0.372913 0.848801
Si Si2 0.500000 0.750000 0.875000
Si Si3 0.218902 0.892202 0.791483
Si Si4 0.468010 0.941355 0.200792
Si Si5 0.405414 0.720930 0.209403
O O1 0.212070 0.394561 0.779349
O O2 0.112004 0.342161 0.759541
O O3 0.137542 0.427792 0.928726
O O4 0.165505 0.318420 0.939487
O O5 0.562268 0.758903 0.808620
O O6 0.193868 0.943868 0.875000
O O7 0.211435 0.833680 0.865731
O O8 0.502796 0.896490 0.119000
O O9 0.499196 0.000000 0.250000
O O10 0.458047 0.708047 0.125000
#
# Coordination Sequence:
#
# PCOD9573772 Si02
#       5
#    32   8  32  32  32
#     4  10  21  38  61  88 122 160 206 262 317 390
#     4  12  26  44  64  86 128 176 218 272 320 386
#     4   9  18  37  62  88 116 158 207 252 314 387
#     4   9  20  38  62  87 118 159 205 257 317 387
#     4  12  25  39  59  90 123 163 210 261 325 384
#
# _framework density 22.601140999999998
#
# number of rings (size 3 to 8) (size 9 to 14) (size 15 to 20)
#    0.000    1.882    0.000    5.294    0.000    9.412 
#    0.000    3.529    0.000    0.000    0.000    0.000 
#    0.000    0.000    0.000    0.000    0.000    0.000 
#
# Total GULP energy -378871.454223 kJ/mol
# GULP energy per Si atom -5571.639033 kJ/mol
# Density = 2.254970 g / cm^3
# Si number density = 22.601141 Si / 1000 Ang^3
#
#
#
# Elastic Constant Matrix: (Units=GPa)
#
#
# Indices 1 2 3 4 5 6 
#
# 1 -438.9078 553.0043 39.8012 0.0000 0.0000 0.0000
# 2 553.0043 -438.9078 39.8012 0.0000 0.0000 0.0000
# 3 39.8012 39.8012 78.3992 0.0000 0.0000 0.0000
# 4 0.0000 0.0000 0.0000 27.0974 0.0000 0.0000
# 5 0.0000 0.0000 0.0000 0.0000 27.0974 0.0000
# 6 0.0000 0.0000 0.0000 0.0000 0.0000 26.8597
#
#
#
# Elastic Compliance Matrix: (Units=1/GPa)
#
#
# Indices 1 2 3 4 5 6 
#
# 1 0.006282 0.007290 -0.006890 0.000000 0.000000 0.000000
# 2 0.007290 0.006282 -0.006890 0.000000 0.000000 0.000000
# 3 -0.006890 -0.006890 0.019751 0.000000 0.000000 0.000000
# 4 0.000000 0.000000 0.000000 0.036904 0.000000 0.000000
# 5 0.000000 0.000000 0.000000 0.000000 0.036904 0.000000
# 6 0.000000 0.000000 0.000000 0.000000 0.000000 0.037230
#
#
# Mechanical properties :
#
#
# Convention : Reuss Voigt Hill
#
# Bulk Modulus (GPa) = 51.72173 51.75524 51.73849
# Shear Modulus (GPa) = 30.71691 -79.25729 -24.27019
#
# Velocity S-wave (km/s) = 3.69058 -5.92823 -3.28052
# Velocity P-wave (km/s) = 6.41052 4.88973 2.93132
#
# Compressibility (1/GPa) = 0.01933423
#
# Stress axis : x y z
#
# Youngs Moduli (GPa) = 159.19479 159.19479 50.63084
#
# Poissons Ratio (x) = -1.16049 0.34884
# Poissons Ratio (y) = -1.16049 0.34884
# Poissons Ratio (z) = 1.09683 1.09683
#
# Static dielectric constant tensor:
#      x y z
#    x 1.874570 0.000000 0.000000 
#    y 0.000000 1.874570 0.000000 
#    z 0.000000 0.000000 1.751920 
# 
# From -- ./inp_files/3595.got.cif
#   From: 2010.05.17/outbox.cif.g08.bks.cpg/sg142_2_cif.got.tgz:3595.got - 2010.05.20 13:39:18.
