data_PCOD9573403
_publ_section_title
;
Structure prediction by ZEFSAII (Michael W. Deem and Ramdas Pophale) SiO2 
 PCOD9573403
Probable space group: I 41/A C D
;
_chemical_formula_sum "Si O2"
_cell_formula_units_Z 240
_cell_length_a 20.403380
_cell_length_b 20.403380
_cell_length_c 27.851356
_cell_angle_alpha 90.000000
_cell_angle_beta 90.000000
_cell_angle_gamma 90.000000
_cell_volume 11594.461445
_symmetry_space_group_name_H-M "I 41/A C D"
_symmetry_group_IT_number 142
_space_group.IT_coordinate_system_code '2'
_symmetry_cell_setting 'tetragonal'
loop_
_space_group_symop_operation_xyz
x,y,z
1/4-y,3/4+x,1/4+z
-x,1/2-y,z
1/4+y,1/4-x,3/4+z
x,-y,1/2-z
1/2-x,y,-z
3/4+y,1/4+x,1/4-z
1/4-y,1/4-x,1/4-z
-x,-y,-z
3/4+y,1/4-x,3/4-z
x,1/2+y,-z
3/4-y,3/4+x,1/4-z
-x,y,1/2+z
1/2+x,-y,z
1/4-y,3/4-x,3/4+z
3/4+y,3/4+x,3/4+z
1/2+x,1/2+y,1/2+z
3/4-y,1/4+x,3/4+z
1/2-x,-y,1/2+z
3/4+y,3/4-x,1/4+z
1/2+x,1/2-y,-z
-x,1/2+y,1/2-z
1/4+y,3/4+x,3/4-z
3/4-y,3/4-x,3/4-z
1/2-x,1/2-y,1/2-z
1/4+y,3/4-x,1/4-z
1/2+x,y,1/2-z
1/4-y,1/4+x,3/4-z
1/2-x,1/2+y,z
x,1/2-y,1/2+z
3/4-y,1/4-x,1/4+z
1/4+y,1/4+x,1/4+z
loop_
_atom_site_type_symbol
_atom_site_label
_atom_site_fract_x
_atom_site_fract_y
_atom_site_fract_z
Si Si1 0.231290 0.867895 0.198304
Si Si2 0.789589 0.539589 0.375000
Si Si3 0.611510 0.095728 0.641889
Si Si4 0.850566 0.216290 0.422835
Si Si5 0.904842 0.651347 0.493969
Si Si6 0.843262 0.534529 0.038952
Si Si7 0.933782 0.542618 0.331223
Si Si8 0.202189 0.227066 0.186590
O O1 0.214546 0.881848 0.142956
O O2 0.160557 0.870900 0.224631
O O3 0.274533 0.913986 0.232364
O O4 0.261995 0.794641 0.199847
O O5 0.746263 0.541952 0.326802
O O6 0.861288 0.531595 0.352137
O O7 0.638709 0.160305 0.616473
O O8 0.534387 0.101764 0.645499
O O9 0.640907 0.094078 0.694804
O O10 0.904551 0.206871 0.464798
O O11 0.775844 0.207323 0.441474
O O12 0.852744 0.676102 0.454924
O O13 0.964311 0.616234 0.465196
O O14 0.913442 0.498101 0.051043
O O15 0.975576 0.558230 0.379131
#
# Coordination Sequence:
#
# PCOD9573403 Si02
#       8
#    32  16  32  32  32  32  32  32
#     4  10  19  32  55  85 115 161 198 241 313 371
#     4  10  16  30  54  88 110 136 189 263 296 334
#     4  11  21  37  54  84 125 160 200 251 310 369
#     4  11  23  34  52  83 124 163 196 247 312 367
#     4  10  19  30  53  84 112 148 199 249 308 351
#     4  10  18  32  55  81 121 151 193 249 297 369
#     4  11  16  33  54  84 114 146 191 262 303 355
#     4  10  17  32  55  84 117 150 200 253 306 362
#
# _framework density 20.699538
#
# number of rings (size 3 to 8) (size 9 to 14) (size 15 to 20)
#    0.000    1.600    8.000    2.000    0.000    1.333 
#    0.000    0.667    0.000    3.200    0.000    0.000 
#    0.000    6.400    0.000    0.000    0.000    0.000 
#
# Total GULP energy -668221.269759 kJ/mol
# GULP energy per Si atom -5568.510581 kJ/mol
# Density = 2.065242 g / cm^3
# Si number density = 20.699538 Si / 1000 Ang^3
#
#
#
# Elastic Constant Matrix: (Units=GPa)
#
#
# Indices 1 2 3 4 5 6 
#
# 1 25.9219 33.8974 29.7522 0.0000 0.0000 0.0000
# 2 33.8974 25.9219 29.7522 0.0000 0.0000 0.0000
# 3 29.7522 29.7522 109.5614 0.0000 0.0000 0.0000
# 4 0.0000 0.0000 0.0000 20.6024 0.0000 0.0000
# 5 0.0000 0.0000 0.0000 0.0000 20.6024 0.0000
# 6 0.0000 0.0000 0.0000 0.0000 0.0000 6.5393
#
#
#
# Elastic Compliance Matrix: (Units=1/GPa)
#
#
# Indices 1 2 3 4 5 6 
#
# 1 -0.051240 0.074144 -0.006220 0.000000 0.000000 0.000000
# 2 0.074144 -0.051240 -0.006220 0.000000 0.000000 0.000000
# 3 -0.006220 -0.006220 0.012505 0.000000 0.000000 0.000000
# 4 0.000000 0.000000 0.000000 0.048538 0.000000 0.000000
# 5 0.000000 0.000000 0.000000 0.000000 0.048538 0.000000
# 6 0.000000 0.000000 0.000000 0.000000 0.000000 0.152921
#
#
# Mechanical properties :
#
#
# Convention : Reuss Voigt Hill
#
# Bulk Modulus (GPa) = 29.90938 38.68988 34.29963
# Shear Modulus (GPa) = 104.69561 14.08241 59.38901
#
# Velocity S-wave (km/s) = 7.11959 2.61113 5.36221
# Velocity P-wave (km/s) = 9.05899 5.27470 7.41242
#
# Compressibility (1/GPa) = 0.03343433
#
# Stress axis : x y z
#
# Youngs Moduli (GPa) = -19.51596 -19.51596 79.96590
#
# Poissons Ratio (x) = 1.44699 0.49737
# Poissons Ratio (y) = 1.44699 0.49737
# Poissons Ratio (z) = -0.12138 -0.12138
#
# Static dielectric constant tensor:
#      x y z
#    x 1.753990 0.000000 0.000000 
#    y 0.000000 1.753990 0.000000 
#    z 0.000000 0.000000 1.800140 
# 
# From -- ./inp_files/12723.got.cif
#   From: 2010.05.17/outbox.cif.g08.bks.cpg/sg142_7_cif.got.tgz:12723.got - 2010.05.20 13:39:18.
