data_PCOD9573231
_publ_section_title
;
Structure prediction by ZEFSAII (Michael W. Deem and Ramdas Pophale) SiO2 
 PCOD9573231
Probable space group: I 41/A M D
;
_chemical_formula_sum "Si O2"
_cell_formula_units_Z 96
_cell_length_a 18.291327
_cell_length_b 18.291327
_cell_length_c 14.807621
_cell_angle_alpha 90.000000
_cell_angle_beta 90.000000
_cell_angle_gamma 90.000000
_cell_volume 4954.224901
_symmetry_space_group_name_H-M "I 41/A M D"
_symmetry_group_IT_number 141
_space_group.IT_coordinate_system_code '2'
_symmetry_cell_setting 'tetragonal'
loop_
_space_group_symop_operation_xyz
x,y,z
1/4-y,3/4+x,1/4+z
-x,1/2-y,z
1/4+y,1/4-x,3/4+z
x,-y,-z
-x,1/2+y,-z
1/4+y,3/4+x,1/4-z
1/4-y,1/4-x,3/4-z
-x,-y,-z
3/4+y,1/4-x,3/4-z
x,1/2+y,-z
3/4-y,3/4+x,1/4-z
-x,y,z
x,1/2-y,z
3/4-y,1/4-x,3/4+z
3/4+y,3/4+x,1/4+z
1/2+x,1/2+y,1/2+z
3/4-y,1/4+x,3/4+z
1/2-x,-y,1/2+z
3/4+y,3/4-x,1/4+z
1/2+x,1/2-y,1/2-z
1/2-x,y,1/2-z
3/4+y,1/4+x,3/4-z
3/4-y,3/4-x,1/4-z
1/2-x,1/2-y,1/2-z
1/4+y,3/4-x,1/4-z
1/2+x,y,1/2-z
1/4-y,1/4+x,3/4-z
1/2-x,1/2+y,1/2+z
1/2+x,-y,1/2+z
1/4-y,3/4-x,1/4+z
1/4+y,1/4+x,3/4+z
loop_
_atom_site_type_symbol
_atom_site_label
_atom_site_fract_x
_atom_site_fract_y
_atom_site_fract_z
Si Si1 0.156888 0.336414 0.962446
Si Si2 0.913943 0.166687 0.600309
Si Si3 0.697302 0.916936 0.977412
O O1 0.161908 0.250000 0.941375
O O2 0.131308 0.381308 0.875000
O O3 0.099069 0.346092 0.043612
O O4 0.233187 0.366008 0.002311
O O5 0.892815 0.250000 0.578857
O O6 0.866418 0.110658 0.543083
O O7 0.000000 0.157537 0.580993
O O8 0.668592 0.918592 0.875000
O O9 0.718855 0.000000 0.000000
#
# Coordination Sequence:
#
# PCOD9573231 Si02
#       3
#    32  32  32
#     4  11  24  42  69 100 133 176 219 274 343 407
#     4  10  23  42  64  95 132 171 222 279 333 402
#     4  12  24  43  66  93 133 173 223 276 333 397
#
# _framework density 19.377400999999999
#
# number of rings (size 3 to 8) (size 9 to 14) (size 15 to 20)
#    0.000    1.000    3.333    3.000    0.000    5.000 
#    0.000    5.000    0.000    0.000    0.000    0.000 
#    0.000    0.000    0.000    0.000    0.000    0.000 
#
# Total GULP energy -268298.368733 kJ/mol
# GULP energy per Si atom -5589.549349 kJ/mol
# Density = 1.933330 g / cm^3
# Si number density = 19.377401 Si / 1000 Ang^3
#
#
#
# Elastic Constant Matrix: (Units=GPa)
#
#
# Indices 1 2 3 4 5 6 
#
# 1 59.1969 37.9138 38.8005 0.0000 0.0000 0.0000
# 2 37.9138 59.1969 38.8005 0.0000 0.0000 0.0000
# 3 38.8005 38.8005 109.6200 0.0000 0.0000 0.0000
# 4 0.0000 0.0000 0.0000 -298.8654 0.0000 0.0000
# 5 0.0000 0.0000 0.0000 0.0000 -298.8654 0.0000
# 6 0.0000 0.0000 0.0000 0.0000 0.0000 27.9334
#
#
#
# Elastic Compliance Matrix: (Units=1/GPa)
#
#
# Indices 1 2 3 4 5 6 
#
# 1 0.030672 -0.016313 -0.005082 0.000000 0.000000 0.000000
# 2 -0.016313 0.030672 -0.005082 0.000000 0.000000 0.000000
# 3 -0.005082 -0.005082 0.012720 0.000000 0.000000 0.000000
# 4 0.000000 0.000000 0.000000 -0.003346 0.000000 0.000000
# 5 0.000000 0.000000 0.000000 0.000000 -0.003346 0.000000
# 6 0.000000 0.000000 0.000000 0.000000 0.000000 0.035799
#
#
# Mechanical properties :
#
#
# Convention : Reuss Voigt Hill
#
# Bulk Modulus (GPa) = 47.37440 51.00485 49.18962
# Shear Modulus (GPa) = 30.64389 -106.45954 -37.90783
#
# Velocity S-wave (km/s) = 3.98103 -7.42020 -4.42780
# Velocity P-wave (km/s) = 6.75520 6.85810 0.83686
#
# Compressibility (1/GPa) = 0.02110845
#
# Stress axis : x y z
#
# Youngs Moduli (GPa) = 32.60278 32.60278 78.61465
#
# Poissons Ratio (x) = 0.53186 0.39955
# Poissons Ratio (y) = 0.53186 0.39955
# Poissons Ratio (z) = 0.16570 0.16570
#
# Static dielectric constant tensor:
#      x y z
#    x 1.659930 0.000000 0.000000 
#    y 0.000000 1.659930 0.000000 
#    z 0.000000 0.000000 1.665680 
# 
# From -- ./inp_files/4173.got.cif
#   From: 2010.05.17/outbox.cif.g08.bks.cpg/sg141_3_cif.got.tgz:4173.got - 2010.05.20 13:30:51.
