data_PCOD9573864
_publ_section_title
;
Structure prediction by ZEFSAII (Michael W. Deem and Ramdas Pophale) SiO2 
 PCOD9573864
Probable space group: I 41/A C D
;
_chemical_formula_sum "Si O2"
_cell_formula_units_Z 112
_cell_length_a 12.623322
_cell_length_b 12.623322
_cell_length_c 27.968320
_cell_angle_alpha 90.000000
_cell_angle_beta 90.000000
_cell_angle_gamma 90.000000
_cell_volume 4456.703080
_symmetry_space_group_name_H-M "I 41/A C D"
_symmetry_group_IT_number 142
_space_group.IT_coordinate_system_code '2'
_symmetry_cell_setting 'tetragonal'
loop_
_space_group_symop_operation_xyz
x,y,z
1/4-y,3/4+x,1/4+z
-x,1/2-y,z
1/4+y,1/4-x,3/4+z
x,-y,1/2-z
1/2-x,y,-z
3/4+y,1/4+x,1/4-z
1/4-y,1/4-x,1/4-z
-x,-y,-z
3/4+y,1/4-x,3/4-z
x,1/2+y,-z
3/4-y,3/4+x,1/4-z
-x,y,1/2+z
1/2+x,-y,z
1/4-y,3/4-x,3/4+z
3/4+y,3/4+x,3/4+z
1/2+x,1/2+y,1/2+z
3/4-y,1/4+x,3/4+z
1/2-x,-y,1/2+z
3/4+y,3/4-x,1/4+z
1/2+x,1/2-y,-z
-x,1/2+y,1/2-z
1/4+y,3/4+x,3/4-z
3/4-y,3/4-x,3/4-z
1/2-x,1/2-y,1/2-z
1/4+y,3/4-x,1/4-z
1/2+x,y,1/2-z
1/4-y,1/4+x,3/4-z
1/2-x,1/2+y,z
x,1/2-y,1/2+z
3/4-y,1/4-x,1/4+z
1/4+y,1/4+x,1/4+z
loop_
_atom_site_type_symbol
_atom_site_label
_atom_site_fract_x
_atom_site_fract_y
_atom_site_fract_z
Si Si1 0.000000 0.750000 0.795885
Si Si2 0.588401 0.601978 0.833261
Si Si3 0.367974 0.117974 0.875000
Si Si4 0.123984 0.835662 0.705102
Si Si5 0.750000 0.031804 0.500000
O O1 0.929500 0.826686 0.830038
O O2 0.921785 0.693751 0.758079
O O3 0.615971 0.509289 0.871246
O O4 0.652875 0.713832 0.927071
O O5 0.621584 0.726925 0.826998
O O6 0.646362 0.560133 0.786719
O O7 0.217520 0.912899 0.720052
#
# Coordination Sequence:
#
# PCOD9573864 Si02
#       5
#    16  32  16  32  16
#     4   9  20  38  68  96 131 186 246 300 359 430
#     4  10  22  39  65  96 134 178 229 295 372 434
#     4  11  20  38  64 102 142 179 230 308 390 441
#     4  10  22  44  69  97 131 187 251 296 341 446
#     4  12  20  38  70  96 122 176 240 288 344 442
#
# _framework density 25.130683000000001
#
# number of rings (size 3 to 8) (size 9 to 14) (size 15 to 20)
#    0.000    2.000    0.000    6.857    0.000    0.000 
#    0.000   11.429    0.000   17.143    0.000    0.000 
#    0.000    0.000    0.000    0.000    0.000    0.000 
#
# Total GULP energy -312669.160944 kJ/mol
# GULP energy per Si atom -5583.377874 kJ/mol
# Density = 2.507348 g / cm^3
# Si number density = 25.130683 Si / 1000 Ang^3
#
#
#
# Elastic Constant Matrix: (Units=GPa)
#
#
# Indices 1 2 3 4 5 6 
#
# 1 115.7827 107.7289 35.6997 0.0000 0.0000 0.0000
# 2 107.7289 115.7827 35.6997 0.0000 0.0000 0.0000
# 3 35.6997 35.6997 160.4318 0.0000 0.0000 0.0000
# 4 0.0000 0.0000 0.0000 39.0487 0.0000 0.0000
# 5 0.0000 0.0000 0.0000 0.0000 39.0488 0.0000
# 6 0.0000 0.0000 0.0000 0.0000 0.0000 68.8407
#
#
#
# Elastic Compliance Matrix: (Units=1/GPa)
#
#
# Indices 1 2 3 4 5 6 
#
# 1 0.064491 -0.059675 -0.001072 0.000000 0.000000 0.000000
# 2 -0.059675 0.064491 -0.001072 0.000000 0.000000 0.000000
# 3 -0.001072 -0.001072 0.006710 0.000000 0.000000 0.000000
# 4 0.000000 0.000000 0.000000 0.025609 0.000000 0.000000
# 5 0.000000 0.000000 0.000000 0.000000 0.025609 0.000000
# 6 0.000000 0.000000 0.000000 0.000000 0.000000 0.014526
#
#
# Mechanical properties :
#
#
# Convention : Reuss Voigt Hill
#
# Bulk Modulus (GPa) = 82.94667 83.36152 83.15410
# Shear Modulus (GPa) = 15.19331 43.57889 29.38610
#
# Velocity S-wave (km/s) = 2.46147 4.16876 3.42326
# Velocity P-wave (km/s) = 6.41531 7.51097 6.98466
#
# Compressibility (1/GPa) = 0.01205594
#
# Stress axis : x y z
#
# Youngs Moduli (GPa) = 15.50599 15.50599 149.02775
#
# Poissons Ratio (x) = 0.92532 0.15972
# Poissons Ratio (y) = 0.92532 0.15972
# Poissons Ratio (z) = 0.01662 0.01662
#
# Static dielectric constant tensor:
#      x y z
#    x 1.944330 0.000000 0.000000 
#    y 0.000000 1.944330 0.000000 
#    z 0.000000 0.000000 2.090620 
# 
# From -- ./inp_files/9790.got.cif
#   From: 2010.05.17/outbox.cif.g08.bks.cpg/sg142_5_cif.got.tgz:9790.got - 2010.05.20 13:39:18.
