data_PCOD9573241
_publ_section_title
;
Structure prediction by ZEFSAII (Michael W. Deem and Ramdas Pophale) SiO2 
 PCOD9573241
Probable space group: I 41/A M D
;
_chemical_formula_sum "Si O2"
_cell_formula_units_Z 108
_cell_length_a 14.709948
_cell_length_b 14.709948
_cell_length_c 22.228814
_cell_angle_alpha 90.000000
_cell_angle_beta 90.000000
_cell_angle_gamma 90.000000
_cell_volume 4809.927905
_symmetry_space_group_name_H-M "I 41/A M D"
_symmetry_group_IT_number 141
_space_group.IT_coordinate_system_code '2'
_symmetry_cell_setting 'tetragonal'
loop_
_space_group_symop_operation_xyz
x,y,z
1/4-y,3/4+x,1/4+z
-x,1/2-y,z
1/4+y,1/4-x,3/4+z
x,-y,-z
-x,1/2+y,-z
1/4+y,3/4+x,1/4-z
1/4-y,1/4-x,3/4-z
-x,-y,-z
3/4+y,1/4-x,3/4-z
x,1/2+y,-z
3/4-y,3/4+x,1/4-z
-x,y,z
x,1/2-y,z
3/4-y,1/4-x,3/4+z
3/4+y,3/4+x,1/4+z
1/2+x,1/2+y,1/2+z
3/4-y,1/4+x,3/4+z
1/2-x,-y,1/2+z
3/4+y,3/4-x,1/4+z
1/2+x,1/2-y,1/2-z
1/2-x,y,1/2-z
3/4+y,1/4+x,3/4-z
3/4-y,3/4-x,1/4-z
1/2-x,1/2-y,1/2-z
1/4+y,3/4-x,1/4-z
1/2+x,y,1/2-z
1/4-y,1/4+x,3/4-z
1/2-x,1/2+y,1/2+z
1/2+x,-y,1/2+z
1/4-y,3/4-x,1/4+z
1/4+y,1/4+x,3/4+z
loop_
_atom_site_type_symbol
_atom_site_label
_atom_site_fract_x
_atom_site_fract_y
_atom_site_fract_z
Si Si1 0.353761 0.750000 0.020389
Si Si2 0.815459 0.538123 0.060949
Si Si3 0.500000 0.250000 0.125000
Si Si4 0.304114 0.750000 0.153436
Si Si5 0.000000 0.750000 0.947778
Si Si6 0.000000 0.608837 0.514775
Si Si7 0.178331 0.250000 0.971573
O O1 0.293102 0.750000 0.081231
O O2 0.263961 0.750000 0.979992
O O3 0.413192 0.839757 0.014729
O O4 0.767819 0.517819 0.125000
O O5 0.911839 0.488209 0.067002
O O6 0.831536 0.646262 0.056436
O O7 0.770360 0.500000 0.000000
O O8 0.590290 0.250000 0.168463
O O9 0.411151 0.750000 0.158038
O O10 0.087704 0.750000 0.988348
O O11 0.000000 0.500000 0.500000
#
# Coordination Sequence:
#
# PCOD9573241 Si02
#       7
#    16  32   4  16   8  16  16
#     4  10  23  46  67 106 152 183 255 327 366 456
#     4  12  24  44  72 103 150 197 253 309 372 450
#     4   8  20  50  84 116 156 186 264 340 382 480
#     4  12  23  45  68 101 149 204 248 310 373 456
#     4  12  24  41  69 100 152 206 238 286 386 422
#     4  10  23  51  81 106 146 204 261 332 399 456
#     4  12  24  41  70 106 147 204 244 301 368 461
#
# _framework density 22.45356
#
# number of rings (size 3 to 8) (size 9 to 14) (size 15 to 20)
#    0.000    0.889    5.926    2.222    0.000    1.185 
#   10.667    0.000    3.259    0.000    0.000    3.111 
#    0.000    0.000    0.000    0.000    0.000    0.000 
#
# Total GULP energy -300633.055297 kJ/mol
# GULP energy per Si atom -5567.278802 kJ/mol
# Density = 2.240246 g / cm^3
# Si number density = 22.453560 Si / 1000 Ang^3
#
#
#
# Elastic Constant Matrix: (Units=GPa)
#
#
# Indices 1 2 3 4 5 6 
#
# 1 141.1596 68.4374 13.6994 0.0000 0.0000 0.0000
# 2 68.4374 141.1596 13.6994 0.0000 0.0000 0.0000
# 3 13.6994 13.6994 123.9890 0.0000 0.0000 0.0000
# 4 0.0000 0.0000 0.0000 17.8708 0.0000 0.0000
# 5 0.0000 0.0000 0.0000 0.0000 17.8708 0.0000
# 6 0.0000 0.0000 0.0000 0.0000 0.0000-1691.5084
#
#
#
# Elastic Compliance Matrix: (Units=1/GPa)
#
#
# Indices 1 2 3 4 5 6 
#
# 1 0.009296 -0.004455 -0.000535 0.000000 0.000000 0.000000
# 2 -0.004455 0.009296 -0.000535 0.000000 0.000000 0.000000
# 3 -0.000535 -0.000535 0.008183 0.000000 0.000000 0.000000
# 4 0.000000 0.000000 0.000000 0.055957 0.000000 0.000000
# 5 0.000000 0.000000 0.000000 0.000000 0.055957 0.000000
# 6 0.000000 0.000000 0.000000 0.000000 0.000000 -0.000591
#
#
# Mechanical properties :
#
#
# Convention : Reuss Voigt Hill
#
# Bulk Modulus (GPa) = 63.58942 66.44230 65.01586
# Shear Modulus (GPa) = 32.38546 -310.45523 -139.03489
#
# Velocity S-wave (km/s) = 3.80192 -11.77139 -7.87753
# Velocity P-wave (km/s) = 6.90324 12.45387 7.32954
#
# Compressibility (1/GPa) = 0.01572589
#
# Stress axis : x y z
#
# Youngs Moduli (GPa) = 107.57350 107.57350 122.19824
#
# Poissons Ratio (x) = 0.47924 0.06536
# Poissons Ratio (y) = 0.47924 0.06536
# Poissons Ratio (z) = 0.05754 0.05754
#
# Static dielectric constant tensor:
#      x y z
#    x 7.970390 0.000000 0.000000 
#    y 0.000000 7.970390 0.000000 
#    z 0.000000 0.000000 2.076320 
# 
# From -- ./inp_files/11209.got.cif
#   From: 2010.05.17/outbox.cif.g08.bks.cpg/sg141_6_cif.got.tgz:11209.got - 2010.05.20 13:30:51.
