data_PCOD9573640
_publ_section_title
;
Structure prediction by ZEFSAII (Michael W. Deem and Ramdas Pophale) SiO2 
 PCOD9573640
Probable space group: I 41/A C D
;
_chemical_formula_sum "Si O2"
_cell_formula_units_Z 216
_cell_length_a 29.492389
_cell_length_b 29.492389
_cell_length_c 11.785962
_cell_angle_alpha 90.000000
_cell_angle_beta 90.000000
_cell_angle_gamma 90.000000
_cell_volume 10251.441639
_symmetry_space_group_name_H-M "I 41/A C D"
_symmetry_group_IT_number 142
_space_group.IT_coordinate_system_code '2'
_symmetry_cell_setting 'tetragonal'
loop_
_space_group_symop_operation_xyz
x,y,z
1/4-y,3/4+x,1/4+z
-x,1/2-y,z
1/4+y,1/4-x,3/4+z
x,-y,1/2-z
1/2-x,y,-z
3/4+y,1/4+x,1/4-z
1/4-y,1/4-x,1/4-z
-x,-y,-z
3/4+y,1/4-x,3/4-z
x,1/2+y,-z
3/4-y,3/4+x,1/4-z
-x,y,1/2+z
1/2+x,-y,z
1/4-y,3/4-x,3/4+z
3/4+y,3/4+x,3/4+z
1/2+x,1/2+y,1/2+z
3/4-y,1/4+x,3/4+z
1/2-x,-y,1/2+z
3/4+y,3/4-x,1/4+z
1/2+x,1/2-y,-z
-x,1/2+y,1/2-z
1/4+y,3/4+x,3/4-z
3/4-y,3/4-x,3/4-z
1/2-x,1/2-y,1/2-z
1/4+y,3/4-x,1/4-z
1/2+x,y,1/2-z
1/4-y,1/4+x,3/4-z
1/2-x,1/2+y,z
x,1/2-y,1/2+z
3/4-y,1/4-x,1/4+z
1/4+y,1/4+x,1/4+z
loop_
_atom_site_type_symbol
_atom_site_label
_atom_site_fract_x
_atom_site_fract_y
_atom_site_fract_z
Si Si1 0.619555 0.469593 0.355383
Si Si2 0.726041 0.523960 0.125000
Si Si3 0.449085 0.998413 0.947924
Si Si4 0.000000 0.250000 0.625000
Si Si5 0.869237 0.158810 0.977601
Si Si6 0.493297 0.347105 0.301044
Si Si7 0.155081 0.801569 0.643806
Si Si8 0.153197 0.793680 0.260383
O O1 0.604807 0.500000 0.250000
O O2 0.671477 0.481704 0.386499
O O3 0.585883 0.480994 0.456795
O O4 0.613344 0.420083 0.302045
O O5 0.738295 0.500000 0.250000
O O6 0.443143 0.957894 0.856696
O O7 0.500000 0.000000 0.000000
O O8 0.439763 0.051483 0.925018
O O9 0.001021 0.293791 0.703635
O O10 0.906747 0.120565 0.952112
O O11 0.853217 0.176950 0.853233
O O12 0.885004 0.204704 0.042015
O O13 0.466123 0.371616 0.202267
O O14 0.463044 0.359851 0.410535
O O15 0.159420 0.758749 0.726264
#
# Coordination Sequence:
#
# PCOD9573640 Si02
#       8
#    32  16  32   8  32  32  32  32
#     4  11  21  39  71 102 130 177 230 284 349 424
#     4  10  24  45  78 107 142 183 242 304 364 439
#     4  10  20  37  60  92 131 165 212 274 334 410
#     4  12  24  42  62  82 124 174 232 256 322 404
#     4  11  21  38  63  91 130 168 223 277 333 409
#     4  11  24  40  61  89 126 178 221 281 337 397
#     4  10  22  36  57  90 124 170 220 274 342 403
#     4  10  21  38  58  88 127 166 220 274 333 405
#
# _framework density 21.070208000000001
#
# number of rings (size 3 to 8) (size 9 to 14) (size 15 to 20)
#    0.000    1.481    1.481    4.444    0.000    3.556 
#    0.000    2.963    9.778    0.000    0.000    0.000 
#    0.000    0.000    0.000    0.000    0.000    0.000 
#
# Total GULP energy -601867.154076 kJ/mol
# GULP energy per Si atom -5572.844019 kJ/mol
# Density = 2.102225 g / cm^3
# Si number density = 21.070208 Si / 1000 Ang^3
#
#
#
# Elastic Constant Matrix: (Units=GPa)
#
#
# Indices 1 2 3 4 5 6 
#
# 1 132.2885 29.1370 48.8423 0.0000 0.0000 0.0000
# 2 29.1370 132.2893 48.8424 0.0000 0.0000 0.0000
# 3 48.8423 48.8424 69.0855 0.0000 0.0000 0.0000
# 4 0.0000 0.0000 0.0000 26.3475 0.0000 0.0000
# 5 0.0000 0.0000 0.0000 0.0000 26.3475 0.0000
# 6 0.0000 0.0000 0.0000 0.0000 0.0000 23.8330
#
#
#
# Elastic Compliance Matrix: (Units=1/GPa)
#
#
# Indices 1 2 3 4 5 6 
#
# 1 0.010261 0.000566 -0.007654 0.000000 0.000000 0.000000
# 2 0.000566 0.010261 -0.007654 0.000000 0.000000 0.000000
# 3 -0.007654 -0.007654 0.025298 0.000000 0.000000 0.000000
# 4 0.000000 0.000000 0.000000 0.037954 0.000000 0.000000
# 5 0.000000 0.000000 0.000000 0.000000 0.037954 0.000000
# 6 0.000000 0.000000 0.000000 0.000000 0.000000 0.041959
#
#
# Mechanical properties :
#
#
# Convention : Reuss Voigt Hill
#
# Bulk Modulus (GPa) = 61.22222 65.25631 63.23927
# Shear Modulus (GPa) = 25.17426 29.09505 27.13465
#
# Velocity S-wave (km/s) = 3.46031 3.72003 3.59252
# Velocity P-wave (km/s) = 6.71449 7.03488 6.87655
#
# Compressibility (1/GPa) = 0.01633394
#
# Stress axis : x y z
#
# Youngs Moduli (GPa) = 97.46019 97.46088 39.52921
#
# Poissons Ratio (x) = -0.05517 0.30257
# Poissons Ratio (y) = -0.05517 0.30257
# Poissons Ratio (z) = 0.74599 0.74599
#
# Static dielectric constant tensor:
#      x y z
#    x 1.815590 0.000000 0.000000 
#    y 0.000000 1.815580 0.000000 
#    z 0.000000 0.000000 1.995520 
# 
# From -- ./inp_files/4252.got.cif
#   From: 2010.05.17/outbox.cif.g08.bks.cpg/sg142_3_cif.got.tgz:4252.got - 2010.05.20 13:39:18.
