data_PCOD9573685
_publ_section_title
;
Structure prediction by ZEFSAII (Michael W. Deem and Ramdas Pophale) SiO2 
 PCOD9573685
Probable space group: I 41/A C D
;
_chemical_formula_sum "Si O2"
_cell_formula_units_Z 216
_cell_length_a 28.517320
_cell_length_b 28.517320
_cell_length_c 11.468803
_cell_angle_alpha 90.000000
_cell_angle_beta 90.000000
_cell_angle_gamma 90.000000
_cell_volume 9326.861138
_symmetry_space_group_name_H-M "I 41/A C D"
_symmetry_group_IT_number 142
_space_group.IT_coordinate_system_code '2'
_symmetry_cell_setting 'tetragonal'
loop_
_space_group_symop_operation_xyz
x,y,z
1/4-y,3/4+x,1/4+z
-x,1/2-y,z
1/4+y,1/4-x,3/4+z
x,-y,1/2-z
1/2-x,y,-z
3/4+y,1/4+x,1/4-z
1/4-y,1/4-x,1/4-z
-x,-y,-z
3/4+y,1/4-x,3/4-z
x,1/2+y,-z
3/4-y,3/4+x,1/4-z
-x,y,1/2+z
1/2+x,-y,z
1/4-y,3/4-x,3/4+z
3/4+y,3/4+x,3/4+z
1/2+x,1/2+y,1/2+z
3/4-y,1/4+x,3/4+z
1/2-x,-y,1/2+z
3/4+y,3/4-x,1/4+z
1/2+x,1/2-y,-z
-x,1/2+y,1/2-z
1/4+y,3/4+x,3/4-z
3/4-y,3/4-x,3/4-z
1/2-x,1/2-y,1/2-z
1/4+y,3/4-x,1/4-z
1/2+x,y,1/2-z
1/4-y,1/4+x,3/4-z
1/2-x,1/2+y,z
x,1/2-y,1/2+z
3/4-y,1/4-x,1/4+z
1/4+y,1/4+x,1/4+z
loop_
_atom_site_type_symbol
_atom_site_label
_atom_site_fract_x
_atom_site_fract_y
_atom_site_fract_z
Si Si1 0.252624 0.605914 0.272492
Si Si2 0.849905 0.946227 0.705956
Si Si3 0.641638 0.317794 0.918994
Si Si4 0.489983 0.882831 0.346598
Si Si5 0.577484 0.308771 0.241942
Si Si6 0.000000 0.750000 0.125000
Si Si7 0.268602 0.981399 0.125000
Si Si8 0.541744 0.966023 0.967169
O O1 0.305959 0.585304 0.247415
O O2 0.210562 0.596528 0.179986
O O3 0.239974 0.573147 0.378292
O O4 0.256432 0.660139 0.296469
O O5 0.897391 0.920190 0.744024
O O6 0.852098 0.000000 0.750000
O O7 0.597884 0.347884 0.875000
O O8 0.677156 0.303170 0.816598
O O9 0.624011 0.271042 0.982371
O O10 0.442732 0.851377 0.338630
O O11 0.529025 0.872306 0.447838
O O12 0.473702 0.935959 0.356154
O O13 0.575956 0.325956 0.375000
O O14 0.538609 0.270070 0.211222
O O15 0.248641 0.000000 0.250000
O O16 0.500000 0.000000 0.000000
#
# Coordination Sequence:
#
# PCOD9573685 Si02
#       8
#    32  32  32  32  32   8  16  32
#     4  12  25  43  74 110 156 195 247 320 386 471
#     4  12  22  41  73 113 140 190 255 317 383 457
#     4  12  24  46  75 105 139 201 265 318 375 472
#     4  11  25  42  70 101 138 186 245 308 377 454
#     4  10  20  39  64  96 134 170 226 299 366 419
#     4   8  18  32  60  98 124 168 214 280 356 430
#     4  12  26  46  78 120 162 204 255 328 403 472
#     4  12  27  49  70 106 148 199 253 310 383 461
#
# _framework density 23.158918
#
# number of rings (size 3 to 8) (size 9 to 14) (size 15 to 20)
#    0.000    0.593    4.444    3.778    0.000    2.370 
#    2.667    0.000    8.148    0.000    0.000    0.000 
#    0.000    0.000    0.000    0.000    0.000    0.000 
#
# Total GULP energy -602582.383437 kJ/mol
# GULP energy per Si atom -5579.466513 kJ/mol
# Density = 2.310621 g / cm^3
# Si number density = 23.158918 Si / 1000 Ang^3
#
#
#
# Elastic Constant Matrix: (Units=GPa)
#
#
# Indices 1 2 3 4 5 6 
#
# 1 98.9928 43.1309 12.3665 0.0000 0.0000 0.0000
# 2 43.1309 98.9889 12.3667 0.0000 0.0000 0.0000
# 3 12.3665 12.3667 91.6728 0.0000 0.0000 0.0000
# 4 0.0000 0.0000 0.0000 24.7934 0.0000 0.0000
# 5 0.0000 0.0000 0.0000 0.0000 24.7941 0.0000
# 6 0.0000 0.0000 0.0000 0.0000 0.0000 105.5944
#
#
#
# Elastic Compliance Matrix: (Units=1/GPa)
#
#
# Indices 1 2 3 4 5 6 
#
# 1 0.012553 -0.005348 -0.000972 0.000000 0.000000 0.000000
# 2 -0.005348 0.012554 -0.000972 0.000000 0.000000 0.000000
# 3 -0.000972 -0.000972 0.011171 0.000000 0.000000 0.000000
# 4 0.000000 0.000000 0.000000 0.040333 0.000000 0.000000
# 5 0.000000 0.000000 0.000000 0.000000 0.040332 0.000000
# 6 0.000000 0.000000 0.000000 0.000000 0.000000 0.009470
#
#
# Mechanical properties :
#
#
# Convention : Reuss Voigt Hill
#
# Bulk Modulus (GPa) = 46.09705 47.26474 46.68089
# Shear Modulus (GPa) = 33.73152 45.82240 39.77696
#
# Velocity S-wave (km/s) = 3.82058 4.45298 4.14885
# Velocity P-wave (km/s) = 6.27777 6.84776 6.56895
#
# Compressibility (1/GPa) = 0.02169336
#
# Stress axis : x y z
#
# Youngs Moduli (GPa) = 79.65982 79.65654 89.52064
#
# Poissons Ratio (x) = 0.42602 0.08701
# Poissons Ratio (y) = 0.42604 0.08702
# Poissons Ratio (z) = 0.07742 0.07743
#
# Static dielectric constant tensor:
#      x y z
#    x 1.886770 0.000000 0.000000 
#    y 0.000000 1.886770 0.000000 
#    z 0.000000 0.000000 2.070340 
# 
# From -- ./inp_files/4228.got.cif
#   From: 2010.05.17/outbox.cif.g08.bks.cpg/sg142_3_cif.got.tgz:4228.got - 2010.05.20 13:39:18.
