data_PCOD9573767
_publ_section_title
;
Structure prediction by ZEFSAII (Michael W. Deem and Ramdas Pophale) SiO2 
 PCOD9573767
Probable space group: I 41/A C D
;
_chemical_formula_sum "Si O2"
_cell_formula_units_Z 160
_cell_length_a 19.693247
_cell_length_b 19.693247
_cell_length_c 15.958824
_cell_angle_alpha 90.000000
_cell_angle_beta 90.000000
_cell_angle_gamma 90.000000
_cell_volume 6189.214598
_symmetry_space_group_name_H-M "I 41/A C D"
_symmetry_group_IT_number 142
_space_group.IT_coordinate_system_code '2'
_symmetry_cell_setting 'tetragonal'
loop_
_space_group_symop_operation_xyz
x,y,z
1/4-y,3/4+x,1/4+z
-x,1/2-y,z
1/4+y,1/4-x,3/4+z
x,-y,1/2-z
1/2-x,y,-z
3/4+y,1/4+x,1/4-z
1/4-y,1/4-x,1/4-z
-x,-y,-z
3/4+y,1/4-x,3/4-z
x,1/2+y,-z
3/4-y,3/4+x,1/4-z
-x,y,1/2+z
1/2+x,-y,z
1/4-y,3/4-x,3/4+z
3/4+y,3/4+x,3/4+z
1/2+x,1/2+y,1/2+z
3/4-y,1/4+x,3/4+z
1/2-x,-y,1/2+z
3/4+y,3/4-x,1/4+z
1/2+x,1/2-y,-z
-x,1/2+y,1/2-z
1/4+y,3/4+x,3/4-z
3/4-y,3/4-x,3/4-z
1/2-x,1/2-y,1/2-z
1/4+y,3/4-x,1/4-z
1/2+x,y,1/2-z
1/4-y,1/4+x,3/4-z
1/2-x,1/2+y,z
x,1/2-y,1/2+z
3/4-y,1/4-x,1/4+z
1/4+y,1/4+x,1/4+z
loop_
_atom_site_type_symbol
_atom_site_label
_atom_site_fract_x
_atom_site_fract_y
_atom_site_fract_z
Si Si1 0.946500 0.395453 0.436127
Si Si2 0.383586 0.505489 0.845970
Si Si3 0.346164 0.488071 0.154226
Si Si4 0.132721 0.278070 0.144721
Si Si5 0.517245 0.390767 0.218395
O O1 0.906324 0.462654 0.407592
O O2 0.000134 0.397540 0.512606
O O3 0.896134 0.339661 0.475908
O O4 0.968473 0.359899 0.349811
O O5 0.355877 0.500000 0.750000
O O6 0.327344 0.544874 0.898700
O O7 0.409808 0.436903 0.887640
O O8 0.455622 0.543182 0.830422
O O9 0.368302 0.500000 0.250000
O O10 0.302895 0.552895 0.125000
O O11 0.057235 0.307235 0.125000
O O12 0.147555 0.235970 0.060107
#
# Coordination Sequence:
#
# PCOD9573767 Si02
#       5
#    32  32  32  32  32
#     4  10  21  38  57  80 112 148 193 239 280 335
#     4   9  17  32  55  80 108 145 189 229 271 334
#     4  11  21  33  53  83 118 149 183 231 289 341
#     4   9  17  33  57  79 104 144 193 230 270 336
#     4   9  20  36  56  84 109 143 190 237 286 333
#
# _framework density 25.851420999999998
#
# number of rings (size 3 to 8) (size 9 to 14) (size 15 to 20)
#    0.000    2.400    0.000    3.600    0.000    3.600 
#    0.000    5.000    0.000    3.600    0.000    0.000 
#    0.000    0.000    0.000    0.000    0.000    4.200 
#
# Total GULP energy -445687.055157 kJ/mol
# GULP energy per Si atom -5571.088189 kJ/mol
# Density = 2.579258 g / cm^3
# Si number density = 25.851421 Si / 1000 Ang^3
#
#
#
# Elastic Constant Matrix: (Units=GPa)
#
#
# Indices 1 2 3 4 5 6 
#
# 1 31.7417 8.2339 15.7303 0.0000 0.0000 0.0000
# 2 8.2339 31.7417 15.7303 0.0000 0.0000 0.0000
# 3 15.7303 15.7303 234.6620 0.0000 0.0000 0.0000
# 4 0.0000 0.0000 0.0000 29.9272 0.0000 0.0000
# 5 0.0000 0.0000 0.0000 0.0000 29.9272 0.0000
# 6 0.0000 0.0000 0.0000 0.0000 0.0000 15.4539
#
#
#
# Elastic Compliance Matrix: (Units=1/GPa)
#
#
# Indices 1 2 3 4 5 6 
#
# 1 0.034474 -0.008065 -0.001770 0.000000 0.000000 0.000000
# 2 -0.008065 0.034474 -0.001770 0.000000 0.000000 0.000000
# 3 -0.001770 -0.001770 0.004499 0.000000 0.000000 0.000000
# 4 0.000000 0.000000 0.000000 0.033414 0.000000 0.000000
# 5 0.000000 0.000000 0.000000 0.000000 0.033414 0.000000
# 6 0.000000 0.000000 0.000000 0.000000 0.000000 0.064709
#
#
# Mechanical properties :
#
#
# Convention : Reuss Voigt Hill
#
# Bulk Modulus (GPa) = 19.90661 41.94827 30.92744
# Shear Modulus (GPa) = 20.41315 32.29173 26.35244
#
# Velocity S-wave (km/s) = 2.81309 3.53813 3.19624
# Velocity P-wave (km/s) = 4.27416 5.74048 5.06071
#
# Compressibility (1/GPa) = 0.05023457
#
# Stress axis : x y z
#
# Youngs Moduli (GPa) = 29.00761 29.00761 222.28241
#
# Poissons Ratio (x) = 0.23396 0.39350
# Poissons Ratio (y) = 0.23396 0.39350
# Poissons Ratio (z) = 0.05135 0.05135
#
# Static dielectric constant tensor:
#      x y z
#    x 2.136840 0.000000 0.000000 
#    y 0.000000 2.136840 0.000000 
#    z 0.000000 0.000000 2.013070 
# 
# From -- ./inp_files/5401.got.cif
#   From: 2010.05.17/outbox.cif.g08.bks.cpg/sg142_3_cif.got.tgz:5401.got - 2010.05.20 13:39:18.
