data_PCOD9573111
_publ_section_title
;
Structure prediction by ZEFSAII (Michael W. Deem and Ramdas Pophale) SiO2 
 PCOD9573111
Probable space group: I 41/A M D
;
_chemical_formula_sum "Si O2"
_cell_formula_units_Z 84
_cell_length_a 12.609892
_cell_length_b 12.609892
_cell_length_c 26.548488
_cell_angle_alpha 90.000000
_cell_angle_beta 90.000000
_cell_angle_gamma 90.000000
_cell_volume 4221.458517
_symmetry_space_group_name_H-M "I 41/A M D"
_symmetry_group_IT_number 141
_space_group.IT_coordinate_system_code '2'
_symmetry_cell_setting 'tetragonal'
loop_
_space_group_symop_operation_xyz
x,y,z
1/4-y,3/4+x,1/4+z
-x,1/2-y,z
1/4+y,1/4-x,3/4+z
x,-y,-z
-x,1/2+y,-z
1/4+y,3/4+x,1/4-z
1/4-y,1/4-x,3/4-z
-x,-y,-z
3/4+y,1/4-x,3/4-z
x,1/2+y,-z
3/4-y,3/4+x,1/4-z
-x,y,z
x,1/2-y,z
3/4-y,1/4-x,3/4+z
3/4+y,3/4+x,1/4+z
1/2+x,1/2+y,1/2+z
3/4-y,1/4+x,3/4+z
1/2-x,-y,1/2+z
3/4+y,3/4-x,1/4+z
1/2+x,1/2-y,1/2-z
1/2-x,y,1/2-z
3/4+y,1/4+x,3/4-z
3/4-y,3/4-x,1/4-z
1/2-x,1/2-y,1/2-z
1/4+y,3/4-x,1/4-z
1/2+x,y,1/2-z
1/4-y,1/4+x,3/4-z
1/2-x,1/2+y,1/2+z
1/2+x,-y,1/2+z
1/4-y,3/4-x,1/4+z
1/4+y,1/4+x,3/4+z
loop_
_atom_site_type_symbol
_atom_site_label
_atom_site_fract_x
_atom_site_fract_y
_atom_site_fract_z
Si Si1 0.000000 0.250000 0.875000
Si Si2 0.000000 0.027448 0.939330
Si Si3 0.615750 0.924180 0.154227
Si Si4 0.616933 0.051173 0.054367
O O1 0.104403 0.250000 0.836936
O O2 0.101622 0.963491 0.918972
O O3 0.000000 0.000000 0.000000
O O4 0.500000 0.875748 0.163906
O O5 0.622840 0.958390 0.096077
O O6 0.624037 0.034906 0.184078
O O7 0.500000 0.101068 0.059724
O O8 0.625869 0.000000 0.000000
#
# Coordination Sequence:
#
# PCOD9573111 Si02
#       4
#     4  16  32  32
#     4  12  28  48  76 100 132 192 228 292 348 406
#     4  12  27  46  67  96 134 169 234 277 334 414
#     4  10  21  38  62  92 131 172 210 269 327 393
#     4   9  18  36  59  90 128 165 213 264 317 386
#
# _framework density 19.898334999999999
#
# number of rings (size 3 to 8) (size 9 to 14) (size 15 to 20)
#    0.000    1.905    0.000    4.000    2.667    0.762 
#    3.429    3.810    0.000    0.000    0.000    0.000 
#    0.000    0.000    0.000    0.000    0.000    0.000 
#
# Total GULP energy -234032.483870 kJ/mol
# GULP energy per Si atom -5572.201997 kJ/mol
# Density = 1.985305 g / cm^3
# Si number density = 19.898335 Si / 1000 Ang^3
#
#
#
# Elastic Constant Matrix: (Units=GPa)
#
#
# Indices 1 2 3 4 5 6 
#
# 1 137.5448 68.4137 50.2479 0.0000 0.0000 0.0000
# 2 68.4137 137.5448 50.2479 0.0000 0.0000 0.0000
# 3 50.2479 50.2479 112.4351 0.0000 0.0000 0.0000
# 4 0.0000 0.0000 0.0000 -42.0783 0.0000 0.0000
# 5 0.0000 0.0000 0.0000 0.0000 -42.0783 0.0000
# 6 0.0000 0.0000 0.0000 0.0000 0.0000 56.6553
#
#
#
# Elastic Compliance Matrix: (Units=1/GPa)
#
#
# Indices 1 2 3 4 5 6 
#
# 1 0.010337 -0.004128 -0.002775 0.000000 0.000000 0.000000
# 2 -0.004128 0.010337 -0.002775 0.000000 0.000000 0.000000
# 3 -0.002775 -0.002775 0.011374 0.000000 0.000000 0.000000
# 4 0.000000 0.000000 0.000000 -0.023765 0.000000 0.000000
# 5 0.000000 0.000000 0.000000 0.000000 -0.023765 0.000000
# 6 0.000000 0.000000 0.000000 0.000000 0.000000 0.017651
#
#
# Mechanical properties :
#
#
# Convention : Reuss Voigt Hill
#
# Bulk Modulus (GPa) = 78.78304 80.59376 79.68840
# Shear Modulus (GPa) = 194.12848 9.07409 101.60128
#
# Velocity S-wave (km/s) = 9.88797 2.13778 7.15339
# Velocity P-wave (km/s) = 13.03999 6.83258 10.40974
#
# Compressibility (1/GPa) = 0.01269309
#
# Stress axis : x y z
#
# Youngs Moduli (GPa) = 96.73676 96.73676 87.91702
#
# Poissons Ratio (x) = 0.39932 0.24397
# Poissons Ratio (y) = 0.39932 0.24397
# Poissons Ratio (z) = 0.26845 0.26845
#
# Static dielectric constant tensor:
#      x y z
#    x 1.716970 0.000000 0.000000 
#    y 0.000000 1.716970 0.000000 
#    z 0.000000 0.000000 1.701340 
# 
# From -- ./inp_files/13734.got.cif
#   From: 2010.05.17/outbox.cif.g08.bks.cpg/sg141_7_cif.got.tgz:13734.got - 2010.05.20 13:30:51.
