data_PCOD9573209
_publ_section_title
;
Structure prediction by ZEFSAII (Michael W. Deem and Ramdas Pophale) SiO2 
 PCOD9573209
Probable space group: I 41/A M D
;
_chemical_formula_sum "Si O2"
_cell_formula_units_Z 176
_cell_length_a 17.923327
_cell_length_b 17.923327
_cell_length_c 28.708316
_cell_angle_alpha 90.000000
_cell_angle_beta 90.000000
_cell_angle_gamma 90.000000
_cell_volume 9222.421655
_symmetry_space_group_name_H-M "I 41/A M D"
_symmetry_group_IT_number 141
_space_group.IT_coordinate_system_code '2'
_symmetry_cell_setting 'tetragonal'
loop_
_space_group_symop_operation_xyz
x,y,z
1/4-y,3/4+x,1/4+z
-x,1/2-y,z
1/4+y,1/4-x,3/4+z
x,-y,-z
-x,1/2+y,-z
1/4+y,3/4+x,1/4-z
1/4-y,1/4-x,3/4-z
-x,-y,-z
3/4+y,1/4-x,3/4-z
x,1/2+y,-z
3/4-y,3/4+x,1/4-z
-x,y,z
x,1/2-y,z
3/4-y,1/4-x,3/4+z
3/4+y,3/4+x,1/4+z
1/2+x,1/2+y,1/2+z
3/4-y,1/4+x,3/4+z
1/2-x,-y,1/2+z
3/4+y,3/4-x,1/4+z
1/2+x,1/2-y,1/2-z
1/2-x,y,1/2-z
3/4+y,1/4+x,3/4-z
3/4-y,3/4-x,1/4-z
1/2-x,1/2-y,1/2-z
1/4+y,3/4-x,1/4-z
1/2+x,y,1/2-z
1/4-y,1/4+x,3/4-z
1/2-x,1/2+y,1/2+z
1/2+x,-y,1/2+z
1/4-y,3/4-x,1/4+z
1/4+y,1/4+x,3/4+z
loop_
_atom_site_type_symbol
_atom_site_label
_atom_site_fract_x
_atom_site_fract_y
_atom_site_fract_z
Si Si1 0.088767 0.837397 0.487846
Si Si2 0.828547 0.160915 0.334322
Si Si3 0.085592 0.160280 0.061981
Si Si4 0.410078 0.336529 0.542472
Si Si5 0.669108 0.419108 0.625000
Si Si6 0.841899 0.083471 0.600509
O O1 0.103696 0.750000 0.495893
O O2 0.105369 0.884380 0.534271
O O3 0.133214 0.867533 0.443610
O O4 0.000000 0.845572 0.478179
O O5 0.816076 0.250000 0.337297
O O6 0.883635 0.133635 0.375000
O O7 0.750849 0.117718 0.340279
O O8 0.083548 0.250000 0.062726
O O9 0.136972 0.132210 0.103152
O O10 0.000000 0.133751 0.068679
O O11 0.111799 0.139921 0.009932
O O12 0.500000 0.336224 0.543516
O O13 0.386158 0.250000 0.550803
O O14 0.379080 0.391338 0.581223
O O15 0.659429 0.504685 0.639444
#
# Coordination Sequence:
#
# PCOD9573209 Si02
#       6
#    32  32  32  32  16  32
#     4  10  22  41  67  94 118 155 210 261 303 362
#     4  11  23  42  65  91 123 163 206 255 313 369
#     4   9  19  38  65  92 117 154 206 255 302 363
#     4   9  20  41  66  90 119 160 210 258 303 359
#     4  12  26  39  56  88 129 164 204 246 300 370
#     4  12  24  40  57  90 132 168 195 251 313 375
#
# _framework density 19.083922999999999
#
# number of rings (size 3 to 8) (size 9 to 14) (size 15 to 20)
#    0.000    1.636    0.909    4.909    0.000    9.636 
#    3.273    3.636    0.000    0.000    0.000    0.000 
#    0.000    0.000    0.000    0.000    0.000    0.000 
#
# Total GULP energy -491785.010228 kJ/mol
# GULP energy per Si atom -5588.466025 kJ/mol
# Density = 1.904049 g / cm^3
# Si number density = 19.083923 Si / 1000 Ang^3
#
#
#
# Elastic Constant Matrix: (Units=GPa)
#
#
# Indices 1 2 3 4 5 6 
#
# 1 72.0096 49.6278 79.6311 0.0000 0.0000 0.0000
# 2 49.6278 72.0096 79.6311 0.0000 0.0000 0.0000
# 3 79.6311 79.6311 182.1096 0.0000 0.0000 0.0000
# 4 0.0000 0.0000 0.0000 481.7744 0.0000 0.0000
# 5 0.0000 0.0000 0.0000 0.0000 481.7744 0.0000
# 6 0.0000 0.0000 0.0000 0.0000 0.0000 29.0633
#
#
#
# Elastic Compliance Matrix: (Units=1/GPa)
#
#
# Indices 1 2 3 4 5 6 
#
# 1 0.031955 -0.012724 -0.008410 0.000000 0.000000 0.000000
# 2 -0.012724 0.031955 -0.008410 0.000000 0.000000 0.000000
# 3 -0.008410 -0.008410 0.012846 0.000000 0.000000 0.000000
# 4 0.000000 0.000000 0.000000 0.002076 0.000000 0.000000
# 5 0.000000 0.000000 0.000000 0.000000 0.002076 0.000000
# 6 0.000000 0.000000 0.000000 0.000000 0.000000 0.034408
#
#
# Mechanical properties :
#
#
# Convention : Reuss Voigt Hill
#
# Bulk Modulus (GPa) = 56.58875 82.65651 69.62263
# Shear Modulus (GPa) = 27.73290 206.33835 117.03563
#
# Velocity S-wave (km/s) = 3.81623 10.40943 7.83964
# Velocity P-wave (km/s) = 7.00964 13.70698 10.88614
#
# Compressibility (1/GPa) = 0.01767136
#
# Stress axis : x y z
#
# Youngs Moduli (GPa) = 31.29356 31.29356 77.84715
#
# Poissons Ratio (x) = 0.39816 0.65466
# Poissons Ratio (y) = 0.39816 0.65466
# Poissons Ratio (z) = 0.26316 0.26316
#
# Static dielectric constant tensor:
#      x y z
#    x 1.651040 0.000000 0.000000 
#    y 0.000000 1.651040 0.000000 
#    z 0.000000 0.000000 1.644260 
# 
# From -- ./inp_files/12864.got.cif
#   From: 2010.05.17/outbox.cif.g08.bks.cpg/sg141_7_cif.got.tgz:12864.got - 2010.05.20 13:30:51.
