data_PCOD9573001
_publ_section_title
;
Structure prediction by ZEFSAII (Michael W. Deem and Ramdas Pophale) SiO2 
 PCOD9573001
Probable space group: I 41/A M D
;
_chemical_formula_sum "Si O2"
_cell_formula_units_Z 176
_cell_length_a 18.123162
_cell_length_b 18.123162
_cell_length_c 29.088685
_cell_angle_alpha 90.000000
_cell_angle_beta 90.000000
_cell_angle_gamma 90.000000
_cell_volume 9554.149525
_symmetry_space_group_name_H-M "I 41/A M D"
_symmetry_group_IT_number 141
_space_group.IT_coordinate_system_code '2'
_symmetry_cell_setting 'tetragonal'
loop_
_space_group_symop_operation_xyz
x,y,z
1/4-y,3/4+x,1/4+z
-x,1/2-y,z
1/4+y,1/4-x,3/4+z
x,-y,-z
-x,1/2+y,-z
1/4+y,3/4+x,1/4-z
1/4-y,1/4-x,3/4-z
-x,-y,-z
3/4+y,1/4-x,3/4-z
x,1/2+y,-z
3/4-y,3/4+x,1/4-z
-x,y,z
x,1/2-y,z
3/4-y,1/4-x,3/4+z
3/4+y,3/4+x,1/4+z
1/2+x,1/2+y,1/2+z
3/4-y,1/4+x,3/4+z
1/2-x,-y,1/2+z
3/4+y,3/4-x,1/4+z
1/2+x,1/2-y,1/2-z
1/2-x,y,1/2-z
3/4+y,1/4+x,3/4-z
3/4-y,3/4-x,1/4-z
1/2-x,1/2-y,1/2-z
1/4+y,3/4-x,1/4-z
1/2+x,y,1/2-z
1/4-y,1/4+x,3/4-z
1/2-x,1/2+y,1/2+z
1/2+x,-y,1/2+z
1/4-y,3/4-x,1/4+z
1/4+y,1/4+x,3/4+z
loop_
_atom_site_type_symbol
_atom_site_label
_atom_site_fract_x
_atom_site_fract_y
_atom_site_fract_z
Si Si1 0.803297 0.337538 0.900943
Si Si2 0.638082 0.922573 0.972555
Si Si3 0.858160 0.592748 0.902345
Si Si4 0.190778 0.559223 0.625000
Si Si5 0.799401 0.589006 0.998243
Si Si6 0.000000 0.334987 0.617324
Si Si7 0.000000 0.833448 0.492532
O O1 0.867180 0.382821 0.875000
O O2 0.816328 0.250000 0.903670
O O3 0.724787 0.349214 0.873405
O O4 0.806078 0.374111 0.951874
O O5 0.636429 0.932222 0.917834
O O6 0.717518 0.886857 0.982781
O O7 0.572039 0.873927 0.989876
O O8 0.634903 0.000000 0.000000
O O9 0.773785 0.569989 0.892387
O O10 0.878154 0.673054 0.882724
O O11 0.859518 0.602120 0.958007
O O12 0.797211 0.500000 0.000000
O O13 0.000000 0.250000 0.633660
O O14 0.000000 0.335125 0.562377
O O15 0.000000 0.750000 0.508782
#
# Coordination Sequence:
#
# PCOD9573001 Si02
#       7
#    32  32  32  16  32  16  16
#     4  12  24  42  69  97 134 178 222 274 337 403
#     4  10  20  36  61  87 116 158 207 265 315 383
#     4  11  21  41  66  96 128 168 220 274 332 399
#     4  10  20  38  63  92 119 160 224 264 314 388
#     4  10  20  40  68  94 122 161 224 274 321 393
#     4  11  24  39  61  93 129 164 210 275 337 392
#     4  11  23  39  53  81 127 165 205 253 328 400
#
# _framework density 18.421316000000001
#
# number of rings (size 3 to 8) (size 9 to 14) (size 15 to 20)
#    0.000    1.273    2.727    5.182    1.273    3.091 
#    6.545    2.727    0.000    0.000    0.000    0.000 
#    0.000    0.000    0.000    0.000    0.000    0.000 
#
# Total GULP energy -490524.160372 kJ/mol
# GULP energy per Si atom -5574.138186 kJ/mol
# Density = 1.837939 g / cm^3
# Si number density = 18.421316 Si / 1000 Ang^3
#
#
#
# Elastic Constant Matrix: (Units=GPa)
#
#
# Indices 1 2 3 4 5 6 
#
# 1 105.8951 47.5059 48.7140 0.0000 0.0000 0.0000
# 2 47.5059 105.8936 48.7136 0.0000 0.0000 0.0000
# 3 48.7140 48.7136 147.0521 0.0000 0.0000 0.0000
# 4 0.0000 0.0000 0.0000 24.9660 0.0000 0.0000
# 5 0.0000 0.0000 0.0000 0.0000 24.9661 0.0000
# 6 0.0000 0.0000 0.0000 0.0000 0.0000 -12.1058
#
#
#
# Elastic Compliance Matrix: (Units=1/GPa)
#
#
# Indices 1 2 3 4 5 6 
#
# 1 0.012691 -0.004435 -0.002735 0.000000 0.000000 0.000000
# 2 -0.004435 0.012691 -0.002735 0.000000 0.000000 0.000000
# 3 -0.002735 -0.002735 0.008612 0.000000 0.000000 0.000000
# 4 0.000000 0.000000 0.000000 0.040055 0.000000 0.000000
# 5 0.000000 0.000000 0.000000 0.000000 0.040054 0.000000
# 6 0.000000 0.000000 0.000000 0.000000 0.000000 -0.082605
#
#
# Mechanical properties :
#
#
# Convention : Reuss Voigt Hill
#
# Bulk Modulus (GPa) = 70.49995 72.07864 71.28929
# Shear Modulus (GPa) = 89.22639 21.82575 55.52607
#
# Velocity S-wave (km/s) = 6.96718 3.44584 5.49616
# Velocity P-wave (km/s) = 10.15264 7.41920 8.89159
#
# Compressibility (1/GPa) = 0.01418441
#
# Stress axis : x y z
#
# Youngs Moduli (GPa) = 78.79476 78.79371 116.11305
#
# Poissons Ratio (x) = 0.34948 0.31756
# Poissons Ratio (y) = 0.34949 0.31756
# Poissons Ratio (z) = 0.21550 0.21549
#
# Static dielectric constant tensor:
#      x y z
#    x 1.776620 0.000000 0.000000 
#    y 0.000000 1.777140 0.000000 
#    z 0.000000 0.000000 1.668080 
# 
# From -- ./inp_files/12940.got.cif
#   From: 2010.05.17/outbox.cif.g08.bks.cpg/sg141_7_cif.got.tgz:12940.got - 2010.05.20 13:30:51.
