data_PCOD9573933
_publ_section_title
;
Structure prediction by ZEFSAII (Michael W. Deem and Ramdas Pophale) SiO2 
 PCOD9573933
Probable space group: I 41/A C D
;
_chemical_formula_sum "Si O2"
_cell_formula_units_Z 104
_cell_length_a 16.499492
_cell_length_b 16.499492
_cell_length_c 14.741923
_cell_angle_alpha 90.000000
_cell_angle_beta 90.000000
_cell_angle_gamma 90.000000
_cell_volume 4013.241407
_symmetry_space_group_name_H-M "I 41/A C D"
_symmetry_group_IT_number 142
_space_group.IT_coordinate_system_code '2'
_symmetry_cell_setting 'tetragonal'
loop_
_space_group_symop_operation_xyz
x,y,z
1/4-y,3/4+x,1/4+z
-x,1/2-y,z
1/4+y,1/4-x,3/4+z
x,-y,1/2-z
1/2-x,y,-z
3/4+y,1/4+x,1/4-z
1/4-y,1/4-x,1/4-z
-x,-y,-z
3/4+y,1/4-x,3/4-z
x,1/2+y,-z
3/4-y,3/4+x,1/4-z
-x,y,1/2+z
1/2+x,-y,z
1/4-y,3/4-x,3/4+z
3/4+y,3/4+x,3/4+z
1/2+x,1/2+y,1/2+z
3/4-y,1/4+x,3/4+z
1/2-x,-y,1/2+z
3/4+y,3/4-x,1/4+z
1/2+x,1/2-y,-z
-x,1/2+y,1/2-z
1/4+y,3/4+x,3/4-z
3/4-y,3/4-x,3/4-z
1/2-x,1/2-y,1/2-z
1/4+y,3/4-x,1/4-z
1/2+x,y,1/2-z
1/4-y,1/4+x,3/4-z
1/2-x,1/2+y,z
x,1/2-y,1/2+z
3/4-y,1/4-x,1/4+z
1/4+y,1/4+x,1/4+z
loop_
_atom_site_type_symbol
_atom_site_label
_atom_site_fract_x
_atom_site_fract_y
_atom_site_fract_z
Si Si1 0.376888 0.373113 0.875000
Si Si2 0.684185 0.565816 0.625000
Si Si3 0.500000 0.250000 0.625000
Si Si4 0.497610 0.911787 0.277596
Si Si5 0.702268 0.618511 0.815402
O O1 0.454688 0.380433 0.813218
O O2 0.369591 0.449981 0.941842
O O3 0.668897 0.621655 0.712598
O O4 0.779613 0.572506 0.600829
O O5 0.421395 0.282607 0.570105
O O6 0.433625 0.936901 0.356398
O O7 0.534081 0.000000 0.250000
#
# Coordination Sequence:
#
# PCOD9573933 Si02
#       5
#    16  16   8  32  32
#     4   9  16  35  64  95 132 193 242 301 391 444
#     4   9  14  24  54 102 142 180 244 304 371 446
#     4  12  28  50  68 108 156 206 264 330 380 472
#     4  10  22  44  71  99 150 202 255 322 390 457
#     4   9  15  29  56  99 140 184 242 312 366 452
#
# _framework density 25.914213
#
# number of rings (size 3 to 8) (size 9 to 14) (size 15 to 20)
#    0.000    2.462    3.077    0.000    0.000    0.615 
#    5.538    9.231    0.000    0.000    0.000    0.000 
#    0.000    0.000    0.000    0.000    0.000    0.000 
#
# Total GULP energy -290290.239707 kJ/mol
# GULP energy per Si atom -5582.504610 kJ/mol
# Density = 2.585523 g / cm^3
# Si number density = 25.914213 Si / 1000 Ang^3
#
#
#
# Elastic Constant Matrix: (Units=GPa)
#
#
# Indices 1 2 3 4 5 6 
#
# 1 89.5505 29.8431 26.4819 0.0000 0.0000 0.0000
# 2 29.8431 89.5491 26.4809 0.0000 0.0000 0.0000
# 3 26.4819 26.4809 145.5308 0.0000 0.0000 0.0000
# 4 0.0000 0.0000 0.0000 30.5279 0.0000 0.0000
# 5 0.0000 0.0000 0.0000 0.0000 30.5289 0.0000
# 6 0.0000 0.0000 0.0000 0.0000 0.0000 26.7324
#
#
#
# Elastic Compliance Matrix: (Units=1/GPa)
#
#
# Indices 1 2 3 4 5 6 
#
# 1 0.012930 -0.003819 -0.001658 0.000000 0.000000 0.000000
# 2 -0.003819 0.012930 -0.001658 0.000000 0.000000 0.000000
# 3 -0.001658 -0.001658 0.007475 0.000000 0.000000 0.000000
# 4 0.000000 0.000000 0.000000 0.032757 0.000000 0.000000
# 5 0.000000 0.000000 0.000000 0.000000 0.032756 0.000000
# 6 0.000000 0.000000 0.000000 0.000000 0.000000 0.037408
#
#
# Mechanical properties :
#
#
# Convention : Reuss Voigt Hill
#
# Bulk Modulus (GPa) = 52.45090 54.47135 53.46113
# Shear Modulus (GPa) = 31.87170 33.67950 32.77560
#
# Velocity S-wave (km/s) = 3.51079 3.60898 3.56022
# Velocity P-wave (km/s) = 6.05956 6.19934 6.12985
#
# Compressibility (1/GPa) = 0.01906545
#
# Stress axis : x y z
#
# Youngs Moduli (GPa) = 77.34097 77.33999 133.78363
#
# Poissons Ratio (x) = 0.29534 0.22181
# Poissons Ratio (y) = 0.29534 0.22180
# Poissons Ratio (z) = 0.12823 0.12822
#
# Static dielectric constant tensor:
#      x y z
#    x 2.321780 0.000000 0.000000 
#    y 0.000000 2.321740 0.000000 
#    z 0.000000 0.000000 1.966060 
# 
# From -- ./inp_files/6753.got.cif
#   From: 2010.05.17/outbox.cif.g08.bks.cpg/sg142_4_cif.got.tgz:6753.got - 2010.05.20 13:39:18.
