data_PCOD9573488
_publ_section_title
;
Structure prediction by ZEFSAII (Michael W. Deem and Ramdas Pophale) SiO2 
 PCOD9573488
Probable space group: I 41/A C D
;
_chemical_formula_sum "Si O2"
_cell_formula_units_Z 192
_cell_length_a 19.647254
_cell_length_b 19.647254
_cell_length_c 25.806343
_cell_angle_alpha 90.000000
_cell_angle_beta 90.000000
_cell_angle_gamma 90.000000
_cell_volume 9961.624906
_symmetry_space_group_name_H-M "I 41/A C D"
_symmetry_group_IT_number 142
_space_group.IT_coordinate_system_code '2'
_symmetry_cell_setting 'tetragonal'
loop_
_space_group_symop_operation_xyz
x,y,z
1/4-y,3/4+x,1/4+z
-x,1/2-y,z
1/4+y,1/4-x,3/4+z
x,-y,1/2-z
1/2-x,y,-z
3/4+y,1/4+x,1/4-z
1/4-y,1/4-x,1/4-z
-x,-y,-z
3/4+y,1/4-x,3/4-z
x,1/2+y,-z
3/4-y,3/4+x,1/4-z
-x,y,1/2+z
1/2+x,-y,z
1/4-y,3/4-x,3/4+z
3/4+y,3/4+x,3/4+z
1/2+x,1/2+y,1/2+z
3/4-y,1/4+x,3/4+z
1/2-x,-y,1/2+z
3/4+y,3/4-x,1/4+z
1/2+x,1/2-y,-z
-x,1/2+y,1/2-z
1/4+y,3/4+x,3/4-z
3/4-y,3/4-x,3/4-z
1/2-x,1/2-y,1/2-z
1/4+y,3/4-x,1/4-z
1/2+x,y,1/2-z
1/4-y,1/4+x,3/4-z
1/2-x,1/2+y,z
x,1/2-y,1/2+z
3/4-y,1/4-x,1/4+z
1/4+y,1/4+x,1/4+z
loop_
_atom_site_type_symbol
_atom_site_label
_atom_site_fract_x
_atom_site_fract_y
_atom_site_fract_z
Si Si1 0.453146 0.983763 0.357497
Si Si2 0.597346 0.891655 0.777269
Si Si3 0.520161 0.347904 0.606622
Si Si4 0.040490 0.932579 0.277942
Si Si5 0.039471 0.818112 0.435606
Si Si6 0.909820 0.906770 0.426371
O O1 0.396318 0.953108 0.318398
O O2 0.501139 0.921945 0.374087
O O3 0.500700 0.039037 0.328678
O O4 0.418155 0.016904 0.407051
O O5 0.600652 0.821136 0.808644
O O6 0.521273 0.905893 0.757405
O O7 0.643354 0.886698 0.726308
O O8 0.448297 0.308920 0.600270
O O9 0.081349 0.863802 0.290063
O O10 0.071033 0.000000 0.250000
O O11 0.053902 0.803902 0.375000
O O12 0.000000 0.750000 0.455614
O O13 0.984054 0.877068 0.440261
O O14 0.883144 0.866857 0.375000
#
# Coordination Sequence:
#
# PCOD9573488 Si02
#       6
#    32  32  32  32  32  32
#     4  10  20  34  51  83 115 150 196 242 296 355
#     4  10  20  34  55  82 119 155 195 242 299 353
#     4   9  20  37  57  82 118 149 187 243 309 354
#     4  10  19  30  50  81 117 152 195 237 292 358
#     4  11  16  28  47  79 115 147 181 238 303 350
#     4  12  20  31  55  87 121 155 197 249 301 350
#
# _framework density 19.273963999999999
#
# number of rings (size 3 to 8) (size 9 to 14) (size 15 to 20)
#    0.000    1.667    6.667    0.000    0.000    7.333 
#    0.000    0.000    0.000    0.000   17.333    5.833 
#   30.000    0.000    0.000    0.000    0.000    0.000 
#
# Total GULP energy -534904.171997 kJ/mol
# GULP energy per Si atom -5571.918458 kJ/mol
# Density = 1.923010 g / cm^3
# Si number density = 19.273964 Si / 1000 Ang^3
#
#
#
# Elastic Constant Matrix: (Units=GPa)
#
#
# Indices 1 2 3 4 5 6 
#
# 1 87.0890 23.3465 34.0088 0.0000 0.0000 0.0000
# 2 23.3465 87.0885 34.0083 0.0000 0.0000 0.0000
# 3 34.0088 34.0083 72.8740 0.0000 0.0000 0.0000
# 4 0.0000 0.0000 0.0000 14.8669 0.0000 0.0000
# 5 0.0000 0.0000 0.0000 0.0000 14.8671 0.0000
# 6 0.0000 0.0000 0.0000 0.0000 0.0000 8.1052
#
#
#
# Elastic Compliance Matrix: (Units=1/GPa)
#
#
# Indices 1 2 3 4 5 6 
#
# 1 0.014198 -0.001490 -0.005930 0.000000 0.000000 0.000000
# 2 -0.001490 0.014198 -0.005930 0.000000 0.000000 0.000000
# 3 -0.005930 -0.005930 0.019257 0.000000 0.000000 0.000000
# 4 0.000000 0.000000 0.000000 0.067264 0.000000 0.000000
# 5 0.000000 0.000000 0.000000 0.000000 0.067263 0.000000
# 6 0.000000 0.000000 0.000000 0.000000 0.000000 0.123378
#
#
# Mechanical properties :
#
#
# Convention : Reuss Voigt Hill
#
# Bulk Modulus (GPa) = 47.72983 47.75318 47.74151
# Shear Modulus (GPa) = 14.73871 17.94703 16.34287
#
# Velocity S-wave (km/s) = 2.76831 3.05479 2.91507
# Velocity P-wave (km/s) = 5.91910 6.10509 6.01281
#
# Compressibility (1/GPa) = 0.02095126
#
# Stress axis : x y z
#
# Youngs Moduli (GPa) = 70.43313 70.43312 51.92812
#
# Poissons Ratio (x) = 0.10497 0.30795
# Poissons Ratio (y) = 0.10497 0.30795
# Poissons Ratio (z) = 0.41769 0.41769
#
# Static dielectric constant tensor:
#      x y z
#    x 1.698320 0.000000 0.000000 
#    y 0.000000 1.698320 0.000000 
#    z 0.000000 0.000000 1.755360 
# 
# From -- ./inp_files/11564.got.cif
#   From: 2010.05.17/outbox.cif.g08.bks.cpg/sg142_6_cif.got.tgz:11564.got - 2010.05.20 13:39:18.
