data_PCOD9573286
_publ_section_title
;
Structure prediction by ZEFSAII (Michael W. Deem and Ramdas Pophale) SiO2 
 PCOD9573286
Probable space group: I 41/A M D
;
_chemical_formula_sum "Si O2"
_cell_formula_units_Z 84
_cell_length_a 22.950400
_cell_length_b 22.950400
_cell_length_c 8.545783
_cell_angle_alpha 90.000000
_cell_angle_beta 90.000000
_cell_angle_gamma 90.000000
_cell_volume 4501.242173
_symmetry_space_group_name_H-M "I 41/A M D"
_symmetry_group_IT_number 141
_space_group.IT_coordinate_system_code '2'
_symmetry_cell_setting 'tetragonal'
loop_
_space_group_symop_operation_xyz
x,y,z
1/4-y,3/4+x,1/4+z
-x,1/2-y,z
1/4+y,1/4-x,3/4+z
x,-y,-z
-x,1/2+y,-z
1/4+y,3/4+x,1/4-z
1/4-y,1/4-x,3/4-z
-x,-y,-z
3/4+y,1/4-x,3/4-z
x,1/2+y,-z
3/4-y,3/4+x,1/4-z
-x,y,z
x,1/2-y,z
3/4-y,1/4-x,3/4+z
3/4+y,3/4+x,1/4+z
1/2+x,1/2+y,1/2+z
3/4-y,1/4+x,3/4+z
1/2-x,-y,1/2+z
3/4+y,3/4-x,1/4+z
1/2+x,1/2-y,1/2-z
1/2-x,y,1/2-z
3/4+y,1/4+x,3/4-z
3/4-y,3/4-x,1/4-z
1/2-x,1/2-y,1/2-z
1/4+y,3/4-x,1/4-z
1/2+x,y,1/2-z
1/4-y,1/4+x,3/4-z
1/2-x,1/2+y,1/2+z
1/2+x,-y,1/2+z
1/4-y,3/4-x,1/4+z
1/4+y,1/4+x,3/4+z
loop_
_atom_site_type_symbol
_atom_site_label
_atom_site_fract_x
_atom_site_fract_y
_atom_site_fract_z
Si Si1 0.000000 0.750000 0.125000
Si Si2 0.500000 0.152490 0.104854
Si Si3 0.379616 0.750000 0.195214
Si Si4 0.500000 0.950973 0.133488
Si Si5 0.098750 0.443202 0.893260
O O1 0.945662 0.750000 0.243762
O O2 0.444115 0.194115 0.125000
O O3 0.500000 0.115542 0.262644
O O4 0.500000 0.112449 0.951925
O O5 0.351490 0.807414 0.265367
O O6 0.558663 0.956051 0.239662
O O7 0.500000 0.000000 0.000000
O O8 0.160064 0.410064 0.875000
O O9 0.105026 0.500000 0.000000
#
# Coordination Sequence:
#
# PCOD9573286 Si02
#       5
#     4  16  16  16  32
#     4  12  20  32  66  96 132 168 202 252 296 388
#     4  11  22  32  53  88 126 156 190 240 293 359
#     4  11  21  37  59  92 127 163 202 241 311 379
#     4  11  23  40  60  89 123 155 197 252 318 361
#     4  11  23  41  64  86 118 164 213 255 309 374
#
# _framework density 18.661515000000001
#
# number of rings (size 3 to 8) (size 9 to 14) (size 15 to 20)
#    0.000    0.952    1.905    8.000    5.333    0.000 
#    0.000    1.905    0.000    0.000    0.000    0.000 
#    0.000    0.000    0.000    0.000    0.000    0.000 
#
# Total GULP energy -234456.417630 kJ/mol
# GULP energy per Si atom -5582.295658 kJ/mol
# Density = 1.861904 g / cm^3
# Si number density = 18.661515 Si / 1000 Ang^3
#
#
#
# Elastic Constant Matrix: (Units=GPa)
#
#
# Indices 1 2 3 4 5 6 
#
# 1 133.6182 70.1899 56.6066 0.0000 0.0000 0.0000
# 2 70.1899 133.6182 56.6066 0.0000 0.0000 0.0000
# 3 56.6066 56.6066 131.2453 0.0000 0.0000 0.0000
# 4 0.0000 0.0000 0.0000 24.4700 0.0000 0.0000
# 5 0.0000 0.0000 0.0000 0.0000 24.4700 0.0000
# 6 0.0000 0.0000 0.0000 0.0000 0.0000 17.4868
#
#
#
# Elastic Compliance Matrix: (Units=1/GPa)
#
#
# Indices 1 2 3 4 5 6 
#
# 1 0.011109 -0.004657 -0.002783 0.000000 0.000000 0.000000
# 2 -0.004657 0.011109 -0.002783 0.000000 0.000000 0.000000
# 3 -0.002783 -0.002783 0.010020 0.000000 0.000000 0.000000
# 4 0.000000 0.000000 0.000000 0.040866 0.000000 0.000000
# 5 0.000000 0.000000 0.000000 0.000000 0.040866 0.000000
# 6 0.000000 0.000000 0.000000 0.000000 0.000000 0.057186
#
#
# Mechanical properties :
#
#
# Convention : Reuss Voigt Hill
#
# Bulk Modulus (GPa) = 84.79612 85.03198 84.91405
# Shear Modulus (GPa) = 25.57109 27.62392 26.59750
#
# Velocity S-wave (km/s) = 3.70572 3.85159 3.77936
# Velocity P-wave (km/s) = 7.99046 8.08975 8.04026
#
# Compressibility (1/GPa) = 0.01179299
#
# Stress axis : x y z
#
# Youngs Moduli (GPa) = 90.01579 90.01579 99.80093
#
# Poissons Ratio (x) = 0.41917 0.27774
# Poissons Ratio (y) = 0.41917 0.27774
# Poissons Ratio (z) = 0.25051 0.25051
#
# Static dielectric constant tensor:
#      x y z
#    x 1.608490 0.000000 0.000000 
#    y 0.000000 1.608490 0.000000 
#    z 0.000000 0.000000 1.682830 
# 
# From -- ./inp_files/2417.got.cif
#   From: 2010.05.17/outbox.cif.g08.bks.cpg/sg141_2_cif.got.tgz:2417.got - 2010.05.20 13:30:51.
