data_PCOD9573723
_publ_section_title
;
Structure prediction by ZEFSAII (Michael W. Deem and Ramdas Pophale) SiO2 
 PCOD9573723
Probable space group: I 41/A C D
;
_chemical_formula_sum "Si O2"
_cell_formula_units_Z 160
_cell_length_a 18.155756
_cell_length_b 18.155756
_cell_length_c 19.885087
_cell_angle_alpha 90.000000
_cell_angle_beta 90.000000
_cell_angle_gamma 90.000000
_cell_volume 6554.750577
_symmetry_space_group_name_H-M "I 41/A C D"
_symmetry_group_IT_number 142
_space_group.IT_coordinate_system_code '2'
_symmetry_cell_setting 'tetragonal'
loop_
_space_group_symop_operation_xyz
x,y,z
1/4-y,3/4+x,1/4+z
-x,1/2-y,z
1/4+y,1/4-x,3/4+z
x,-y,1/2-z
1/2-x,y,-z
3/4+y,1/4+x,1/4-z
1/4-y,1/4-x,1/4-z
-x,-y,-z
3/4+y,1/4-x,3/4-z
x,1/2+y,-z
3/4-y,3/4+x,1/4-z
-x,y,1/2+z
1/2+x,-y,z
1/4-y,3/4-x,3/4+z
3/4+y,3/4+x,3/4+z
1/2+x,1/2+y,1/2+z
3/4-y,1/4+x,3/4+z
1/2-x,-y,1/2+z
3/4+y,3/4-x,1/4+z
1/2+x,1/2-y,-z
-x,1/2+y,1/2-z
1/4+y,3/4+x,3/4-z
3/4-y,3/4-x,3/4-z
1/2-x,1/2-y,1/2-z
1/4+y,3/4-x,1/4-z
1/2+x,y,1/2-z
1/4-y,1/4+x,3/4-z
1/2-x,1/2+y,z
x,1/2-y,1/2+z
3/4-y,1/4-x,1/4+z
1/4+y,1/4+x,1/4+z
loop_
_atom_site_type_symbol
_atom_site_label
_atom_site_fract_x
_atom_site_fract_y
_atom_site_fract_z
Si Si1 0.577730 0.172271 0.375000
Si Si2 0.677441 0.072560 0.875000
Si Si3 0.500000 0.750000 0.241935
Si Si4 0.860535 0.815477 0.178652
Si Si5 0.935468 0.953626 0.124007
Si Si6 0.250000 0.988727 0.500000
Si Si7 0.597300 0.451743 0.972132
O O1 0.562758 0.225299 0.438589
O O2 0.656442 0.184627 0.339808
O O3 0.712432 0.155428 0.880256
O O4 0.715609 0.039742 0.808449
O O5 0.567428 0.720842 0.287319
O O6 0.882136 0.899536 0.164158
O O7 0.828115 0.768128 0.115496
O O8 0.786507 0.823004 0.221692
O O9 0.923794 0.927682 0.046635
O O10 0.184922 0.943327 0.466089
#
# Coordination Sequence:
#
# PCOD9573723 Si02
#       7
#    16  16  16  32  32  16  32
#     4  11  25  48  71 106 146 202 239 311 377 440
#     4  10  21  42  65 104 136 188 239 308 371 428
#     4  11  26  49  72 106 157 197 240 314 372 461
#     4  12  24  48  73 108 144 198 250 302 381 450
#     4  11  24  42  75 103 143 193 238 311 365 446
#     4  10  20  42  68 100 142 180 240 316 360 430
#     4  11  24  44  73 104 145 192 251 298 370 444
#
# _framework density 24.409776999999998
#
# number of rings (size 3 to 8) (size 9 to 14) (size 15 to 20)
#    0.000    1.000    4.000    2.400    2.800    0.000 
#    7.200    0.000    0.000    0.000    0.000    0.000 
#    0.000    0.000    0.000    0.000    0.000    0.000 
#
# Total GULP energy -446000.936129 kJ/mol
# GULP energy per Si atom -5575.011702 kJ/mol
# Density = 2.435422 g / cm^3
# Si number density = 24.409777 Si / 1000 Ang^3
#
#
#
# Elastic Constant Matrix: (Units=GPa)
#
#
# Indices 1 2 3 4 5 6 
#
# 1 112.0258 45.3609 15.9197 0.0000 0.0000 0.0000
# 2 45.3609 112.0276 15.9197 0.0000 0.0000 0.0000
# 3 15.9197 15.9197 70.4550 0.0000 0.0000 0.0000
# 4 0.0000 0.0000 0.0000 24.5710 0.0000 0.0000
# 5 0.0000 0.0000 0.0000 0.0000 24.5712 0.0000
# 6 0.0000 0.0000 0.0000 0.0000 0.0000 29.1445
#
#
#
# Elastic Compliance Matrix: (Units=1/GPa)
#
#
# Indices 1 2 3 4 5 6 
#
# 1 0.010829 -0.004171 -0.001504 0.000000 0.000000 0.000000
# 2 -0.004171 0.010829 -0.001504 0.000000 0.000000 0.000000
# 3 -0.001504 -0.001504 0.014873 0.000000 0.000000 0.000000
# 4 0.000000 0.000000 0.000000 0.040698 0.000000 0.000000
# 5 0.000000 0.000000 0.000000 0.000000 0.040698 0.000000
# 6 0.000000 0.000000 0.000000 0.000000 0.000000 0.034312
#
#
# Mechanical properties :
#
#
# Convention : Reuss Voigt Hill
#
# Bulk Modulus (GPa) = 45.10238 49.87877 47.49057
# Shear Modulus (GPa) = 28.73725 30.14455 29.44090
#
# Velocity S-wave (km/s) = 3.43488 3.51798 3.47668
# Velocity P-wave (km/s) = 5.85222 6.08111 5.96776
#
# Compressibility (1/GPa) = 0.02217178
#
# Stress axis : x y z
#
# Youngs Moduli (GPa) = 92.34266 92.34417 67.23442
#
# Poissons Ratio (x) = 0.38517 0.10115
# Poissons Ratio (y) = 0.38517 0.10115
# Poissons Ratio (z) = 0.13893 0.13892
#
# Static dielectric constant tensor:
#      x y z
#    x 2.094240 0.000000 0.000000 
#    y 0.000000 2.094240 0.000000 
#    z 0.000000 0.000000 1.910710 
# 
# From -- ./inp_files/7489.got.cif
#   From: 2010.05.17/outbox.cif.g08.bks.cpg/sg142_4_cif.got.tgz:7489.got - 2010.05.20 13:39:18.
