data_PCOD9573815
_publ_section_title
;
Structure prediction by ZEFSAII (Michael W. Deem and Ramdas Pophale) SiO2 
 PCOD9573815
Probable space group: I 41/A C D
;
_chemical_formula_sum "Si O2"
_cell_formula_units_Z 112
_cell_length_a 19.256370
_cell_length_b 19.256370
_cell_length_c 15.296438
_cell_angle_alpha 90.000000
_cell_angle_beta 90.000000
_cell_angle_gamma 90.000000
_cell_volume 5672.038302
_symmetry_space_group_name_H-M "I 41/A C D"
_symmetry_group_IT_number 142
_space_group.IT_coordinate_system_code '2'
_symmetry_cell_setting 'tetragonal'
loop_
_space_group_symop_operation_xyz
x,y,z
1/4-y,3/4+x,1/4+z
-x,1/2-y,z
1/4+y,1/4-x,3/4+z
x,-y,1/2-z
1/2-x,y,-z
3/4+y,1/4+x,1/4-z
1/4-y,1/4-x,1/4-z
-x,-y,-z
3/4+y,1/4-x,3/4-z
x,1/2+y,-z
3/4-y,3/4+x,1/4-z
-x,y,1/2+z
1/2+x,-y,z
1/4-y,3/4-x,3/4+z
3/4+y,3/4+x,3/4+z
1/2+x,1/2+y,1/2+z
3/4-y,1/4+x,3/4+z
1/2-x,-y,1/2+z
3/4+y,3/4-x,1/4+z
1/2+x,1/2-y,-z
-x,1/2+y,1/2-z
1/4+y,3/4+x,3/4-z
3/4-y,3/4-x,3/4-z
1/2-x,1/2-y,1/2-z
1/4+y,3/4-x,1/4-z
1/2+x,y,1/2-z
1/4-y,1/4+x,3/4-z
1/2-x,1/2+y,z
x,1/2-y,1/2+z
3/4-y,1/4-x,1/4+z
1/4+y,1/4+x,1/4+z
loop_
_atom_site_type_symbol
_atom_site_label
_atom_site_fract_x
_atom_site_fract_y
_atom_site_fract_z
Si Si1 0.020009 0.327132 0.714522
Si Si2 0.667239 0.474144 0.513926
Si Si3 0.880842 0.130842 0.125000
Si Si4 0.678663 0.627482 0.455928
O O1 0.063600 0.313600 0.625000
O O2 0.065018 0.370305 0.781981
O O3 0.000000 0.250000 0.745962
O O4 0.950185 0.366044 0.683755
O O5 0.750000 0.461746 0.500000
O O6 0.624951 0.434560 0.439075
O O7 0.657557 0.556626 0.505819
O O8 0.644259 0.445560 0.607309
O O9 0.750000 0.653007 0.500000
#
# Coordination Sequence:
#
# PCOD9573815 Si02
#       4
#    32  32  16  32
#     4   9  21  44  61  84 131 173 216 267 319 386
#     4  11  20  39  68  97 132 161 215 279 329 386
#     4  10  21  42  62  92 130 168 209 274 320 384
#     4  11  21  39  67  98 127 168 218 266 332 394
#
# _framework density 19.745987
#
# number of rings (size 3 to 8) (size 9 to 14) (size 15 to 20)
#    0.000    2.000    2.857    4.286    0.000    1.143 
#   10.286    8.571    0.000    0.000    0.000    0.000 
#    0.000    0.000    0.000    0.000    0.000    0.000 
#
# Total GULP energy -312889.174856 kJ/mol
# GULP energy per Si atom -5587.306694 kJ/mol
# Density = 1.970104 g / cm^3
# Si number density = 19.745987 Si / 1000 Ang^3
#
#
#
# Elastic Constant Matrix: (Units=GPa)
#
#
# Indices 1 2 3 4 5 6 
#
# 1 88.8270 89.2871 47.8912 0.0000 0.0000 0.0000
# 2 89.2871 88.8270 47.8912 0.0000 0.0000 0.0000
# 3 47.8912 47.8912 85.9259 0.0000 0.0000 0.0000
# 4 0.0000 0.0000 0.0000 9.7514 0.0000 0.0000
# 5 0.0000 0.0000 0.0000 0.0000 9.7514 0.0000
# 6 0.0000 0.0000 0.0000 0.0000 0.0000 46.2076
#
#
#
# Elastic Compliance Matrix: (Units=1/GPa)
#
#
# Indices 1 2 3 4 5 6 
#
# 1 -1.082878 1.090896 -0.004469 0.000000 0.000000 0.000000
# 2 1.090896 -1.082878 -0.004469 0.000000 0.000000 0.000000
# 3 -0.004469 -0.004469 0.016619 0.000000 0.000000 0.000000
# 4 0.000000 0.000000 0.000000 0.102550 0.000000 0.000000
# 5 0.000000 0.000000 0.000000 0.000000 0.102550 0.000000
# 6 0.000000 0.000000 0.000000 0.000000 0.000000 0.021641
#
#
# Mechanical properties :
#
#
# Convention : Reuss Voigt Hill
#
# Bulk Modulus (GPa) = 67.66039 70.41320 69.03680
# Shear Modulus (GPa) = -1.22507 18.37611 8.57552
#
# Velocity S-wave (km/s) = -0.78852 3.05392 2.08623
# Velocity P-wave (km/s) = 5.78885 6.94062 6.39073
#
# Compressibility (1/GPa) = 0.01477970
#
# Stress axis : x y z
#
# Youngs Moduli (GPa) = -0.92346 -0.92346 60.17205
#
# Poissons Ratio (x) = 1.00740 0.26888
# Poissons Ratio (y) = 1.00740 0.26888
# Poissons Ratio (z) = -0.00413 -0.00413
#
# Static dielectric constant tensor:
#      x y z
#    x 1.690040 0.000000 0.000000 
#    y 0.000000 1.690040 0.000000 
#    z 0.000000 0.000000 1.712430 
# 
# From -- ./inp_files/6833.got.cif
#   From: 2010.05.17/outbox.cif.g08.bks.cpg/sg142_4_cif.got.tgz:6833.got - 2010.05.20 13:39:18.
