data_PCOD9573808
_publ_section_title
;
Structure prediction by ZEFSAII (Michael W. Deem and Ramdas Pophale) SiO2 
 PCOD9573808
Probable space group: I 41/A C D
;
_chemical_formula_sum "Si O2"
_cell_formula_units_Z 112
_cell_length_a 12.956940
_cell_length_b 12.956940
_cell_length_c 31.298668
_cell_angle_alpha 90.000000
_cell_angle_beta 90.000000
_cell_angle_gamma 90.000000
_cell_volume 5254.492188
_symmetry_space_group_name_H-M "I 41/A C D"
_symmetry_group_IT_number 142
_space_group.IT_coordinate_system_code '2'
_symmetry_cell_setting 'tetragonal'
loop_
_space_group_symop_operation_xyz
x,y,z
1/4-y,3/4+x,1/4+z
-x,1/2-y,z
1/4+y,1/4-x,3/4+z
x,-y,1/2-z
1/2-x,y,-z
3/4+y,1/4+x,1/4-z
1/4-y,1/4-x,1/4-z
-x,-y,-z
3/4+y,1/4-x,3/4-z
x,1/2+y,-z
3/4-y,3/4+x,1/4-z
-x,y,1/2+z
1/2+x,-y,z
1/4-y,3/4-x,3/4+z
3/4+y,3/4+x,3/4+z
1/2+x,1/2+y,1/2+z
3/4-y,1/4+x,3/4+z
1/2-x,-y,1/2+z
3/4+y,3/4-x,1/4+z
1/2+x,1/2-y,-z
-x,1/2+y,1/2-z
1/4+y,3/4+x,3/4-z
3/4-y,3/4-x,3/4-z
1/2-x,1/2-y,1/2-z
1/4+y,3/4-x,1/4-z
1/2+x,y,1/2-z
1/4-y,1/4+x,3/4-z
1/2-x,1/2+y,z
x,1/2-y,1/2+z
3/4-y,1/4-x,1/4+z
1/4+y,1/4+x,1/4+z
loop_
_atom_site_type_symbol
_atom_site_label
_atom_site_fract_x
_atom_site_fract_y
_atom_site_fract_z
Si Si1 0.315418 0.267466 0.959261
Si Si2 0.321228 0.000000 0.750000
Si Si3 0.210879 0.814424 0.790404
Si Si4 0.486818 0.923895 0.374438
O O1 0.415084 0.338954 0.956345
O O2 0.245788 0.273101 0.917068
O O3 0.250000 0.308099 0.000000
O O4 0.324716 0.147777 0.972800
O O5 0.258911 0.071255 0.717602
O O6 0.250000 0.750000 0.750000
O O7 0.257051 0.767842 0.833349
O O8 0.591314 0.856578 0.373499
#
# Coordination Sequence:
#
# PCOD9573808 Si02
#       4
#    32  16  32  32
#     4  10  21  41  63  91 129 169 210 262 325 381
#     4  10  22  44  64  90 134 162 210 272 320 386
#     4  12  24  41  68  96 126 174 221 264 332 389
#     4  11  22  39  65  96 130 171 216 269 325 389
#
# _framework density 21.315093999999998
#
# number of rings (size 3 to 8) (size 9 to 14) (size 15 to 20)
#    0.857    0.286    4.286    2.571    0.000    1.143 
#    0.000    1.429    0.000    3.429    0.000    0.000 
#    0.000    0.000    0.000    0.000    0.000    0.000 
#
# Total GULP energy -312684.809347 kJ/mol
# GULP energy per Si atom -5583.657310 kJ/mol
# Density = 2.126658 g / cm^3
# Si number density = 21.315094 Si / 1000 Ang^3
#
#
#
# Elastic Constant Matrix: (Units=GPa)
#
#
# Indices 1 2 3 4 5 6 
#
# 1 69.4791 27.2813 27.3726 0.0000 0.0000 0.0000
# 2 27.2813 69.4791 27.3726 0.0000 0.0000 0.0000
# 3 27.3726 27.3726 178.2142 0.0000 0.0000 0.0000
# 4 0.0000 0.0000 0.0000 8.1767 0.0000 0.0000
# 5 0.0000 0.0000 0.0000 0.0000 8.1767 0.0000
# 6 0.0000 0.0000 0.0000 0.0000 0.0000 39.3134
#
#
#
# Elastic Compliance Matrix: (Units=1/GPa)
#
#
# Indices 1 2 3 4 5 6 
#
# 1 0.017508 -0.006190 -0.001738 0.000000 0.000000 0.000000
# 2 -0.006190 0.017508 -0.001738 0.000000 0.000000 0.000000
# 3 -0.001738 -0.001738 0.006145 0.000000 0.000000 0.000000
# 4 0.000000 0.000000 0.000000 0.122298 0.000000 0.000000
# 5 0.000000 0.000000 0.000000 0.000000 0.122298 0.000000
# 6 0.000000 0.000000 0.000000 0.000000 0.000000 0.025437
#
#
# Mechanical properties :
#
#
# Convention : Reuss Voigt Hill
#
# Bulk Modulus (GPa) = 45.81215 53.46948 49.64081
# Shear Modulus (GPa) = 14.80150 26.80977 20.80563
#
# Velocity S-wave (km/s) = 2.63803 3.55037 3.12765
# Velocity P-wave (km/s) = 5.55143 6.47662 6.03179
#
# Compressibility (1/GPa) = 0.02182827
#
# Stress axis : x y z
#
# Youngs Moduli (GPa) = 57.11626 57.11626 162.72736
#
# Poissons Ratio (x) = 0.35354 0.28289
# Poissons Ratio (y) = 0.35354 0.28289
# Poissons Ratio (z) = 0.09929 0.09929
#
# Static dielectric constant tensor:
#      x y z
#    x 1.721370 0.000000 0.000000 
#    y 0.000000 1.721370 0.000000 
#    z 0.000000 0.000000 1.688660 
# 
# From -- ./inp_files/11109.got.cif
#   From: 2010.05.17/outbox.cif.g08.bks.cpg/sg142_6_cif.got.tgz:11109.got - 2010.05.20 13:39:18.
