data_PCOD9573246
_publ_section_title
;
Structure prediction by ZEFSAII (Michael W. Deem and Ramdas Pophale) SiO2 
 PCOD9573246
Probable space group: I 41/A M D
;
_chemical_formula_sum "Si O2"
_cell_formula_units_Z 68
_cell_length_a 15.860171
_cell_length_b 15.860171
_cell_length_c 13.870068
_cell_angle_alpha 90.000000
_cell_angle_beta 90.000000
_cell_angle_gamma 90.000000
_cell_volume 3488.946590
_symmetry_space_group_name_H-M "I 41/A M D"
_symmetry_group_IT_number 141
_space_group.IT_coordinate_system_code '2'
_symmetry_cell_setting 'tetragonal'
loop_
_space_group_symop_operation_xyz
x,y,z
1/4-y,3/4+x,1/4+z
-x,1/2-y,z
1/4+y,1/4-x,3/4+z
x,-y,-z
-x,1/2+y,-z
1/4+y,3/4+x,1/4-z
1/4-y,1/4-x,3/4-z
-x,-y,-z
3/4+y,1/4-x,3/4-z
x,1/2+y,-z
3/4-y,3/4+x,1/4-z
-x,y,z
x,1/2-y,z
3/4-y,1/4-x,3/4+z
3/4+y,3/4+x,1/4+z
1/2+x,1/2+y,1/2+z
3/4-y,1/4+x,3/4+z
1/2-x,-y,1/2+z
3/4+y,3/4-x,1/4+z
1/2+x,1/2-y,1/2-z
1/2-x,y,1/2-z
3/4+y,1/4+x,3/4-z
3/4-y,3/4-x,1/4-z
1/2-x,1/2-y,1/2-z
1/4+y,3/4-x,1/4-z
1/2+x,y,1/2-z
1/4-y,1/4+x,3/4-z
1/2-x,1/2+y,1/2+z
1/2+x,-y,1/2+z
1/4-y,3/4-x,1/4+z
1/4+y,1/4+x,3/4+z
loop_
_atom_site_type_symbol
_atom_site_label
_atom_site_fract_x
_atom_site_fract_y
_atom_site_fract_z
Si Si1 0.336595 0.586595 0.875000
Si Si2 0.000000 0.901392 0.973400
Si Si3 0.850508 0.649129 0.832710
Si Si4 0.500000 0.250000 0.625000
O O1 0.356649 0.487982 0.888067
O O2 0.375313 0.621142 0.775556
O O3 0.919438 0.879864 0.908474
O O4 0.000000 0.835143 0.061361
O O5 0.000000 0.000000 0.000000
O O6 0.840339 0.750000 0.834150
#
# Coordination Sequence:
#
# PCOD9573246 Si02
#       4
#    16  16  32   4
#     4  10  24  41  77  96 142 172 236 294 354 424
#     4  12  30  44  77  98 148 190 237 296 355 431
#     4  11  25  47  68 108 134 185 234 292 356 432
#     4  12  28  56  64 110 144 188 256 296 348 446
#
# _framework density 19.490123000000001
#
# number of rings (size 3 to 8) (size 9 to 14) (size 15 to 20)
#    0.000    0.941    2.353    2.824   19.765    0.000 
#    0.000    0.000    0.000    0.000    0.000    0.000 
#    0.000    0.000    0.000    0.000    0.000    0.000 
#
# Total GULP energy -190103.722742 kJ/mol
# GULP energy per Si atom -5591.285963 kJ/mol
# Density = 1.944576 g / cm^3
# Si number density = 19.490123 Si / 1000 Ang^3
#
#
#
# Elastic Constant Matrix: (Units=GPa)
#
#
# Indices 1 2 3 4 5 6 
#
# 1 132.7099 74.2914 100.0910 0.0000 0.0000 0.0000
# 2 74.2914 132.7099 100.0910 0.0000 0.0000 0.0000
# 3 100.0910 100.0910 184.6063 0.0000 0.0000 0.0000
# 4 0.0000 0.0000 0.0000 41.8006 0.0000 0.0000
# 5 0.0000 0.0000 0.0000 0.0000 41.8006 0.0000
# 6 0.0000 0.0000 0.0000 0.0000 0.0000 31.5984
#
#
#
# Elastic Compliance Matrix: (Units=1/GPa)
#
#
# Indices 1 2 3 4 5 6 
#
# 1 0.013637 -0.003481 -0.005506 0.000000 0.000000 0.000000
# 2 -0.003481 0.013637 -0.005506 0.000000 0.000000 0.000000
# 3 -0.005506 -0.005506 0.011388 0.000000 0.000000 0.000000
# 4 0.000000 0.000000 0.000000 0.023923 0.000000 0.000000
# 5 0.000000 0.000000 0.000000 0.000000 0.023923 0.000000
# 6 0.000000 0.000000 0.000000 0.000000 0.000000 0.031647
#
#
# Mechanical properties :
#
#
# Convention : Reuss Voigt Hill
#
# Bulk Modulus (GPa) = 103.36840 110.99696 107.18268
# Shear Modulus (GPa) = 33.25194 34.74343 33.99768
#
# Velocity S-wave (km/s) = 4.13497 4.22669 4.18108
# Velocity P-wave (km/s) = 8.71486 8.99410 8.85558
#
# Compressibility (1/GPa) = 0.00967414
#
# Stress axis : x y z
#
# Youngs Moduli (GPa) = 73.33065 73.33065 87.81261
#
# Poissons Ratio (x) = 0.25526 0.48353
# Poissons Ratio (y) = 0.25526 0.48353
# Poissons Ratio (z) = 0.40379 0.40379
#
# Static dielectric constant tensor:
#      x y z
#    x 1.695070 0.000000 0.000000 
#    y 0.000000 1.695070 0.000000 
#    z 0.000000 0.000000 1.671920 
# 
# From -- ./inp_files/3856.got.cif
#   From: 2010.05.17/outbox.cif.g08.bks.cpg/sg141_2_cif.got.tgz:3856.got - 2010.05.20 13:30:51.
