data_PCOD9573291
_publ_section_title
;
Structure prediction by ZEFSAII (Michael W. Deem and Ramdas Pophale) SiO2 
 PCOD9573291
Probable space group: I 41/A M D
;
_chemical_formula_sum "Si O2"
_cell_formula_units_Z 160
_cell_length_a 18.351889
_cell_length_b 18.351889
_cell_length_c 24.513033
_cell_angle_alpha 90.000000
_cell_angle_beta 90.000000
_cell_angle_gamma 90.000000
_cell_volume 8255.789240
_symmetry_space_group_name_H-M "I 41/A M D"
_symmetry_group_IT_number 141
_space_group.IT_coordinate_system_code '2'
_symmetry_cell_setting 'tetragonal'
loop_
_space_group_symop_operation_xyz
x,y,z
1/4-y,3/4+x,1/4+z
-x,1/2-y,z
1/4+y,1/4-x,3/4+z
x,-y,-z
-x,1/2+y,-z
1/4+y,3/4+x,1/4-z
1/4-y,1/4-x,3/4-z
-x,-y,-z
3/4+y,1/4-x,3/4-z
x,1/2+y,-z
3/4-y,3/4+x,1/4-z
-x,y,z
x,1/2-y,z
3/4-y,1/4-x,3/4+z
3/4+y,3/4+x,1/4+z
1/2+x,1/2+y,1/2+z
3/4-y,1/4+x,3/4+z
1/2-x,-y,1/2+z
3/4+y,3/4-x,1/4+z
1/2+x,1/2-y,1/2-z
1/2-x,y,1/2-z
3/4+y,1/4+x,3/4-z
3/4-y,3/4-x,1/4-z
1/2-x,1/2-y,1/2-z
1/4+y,3/4-x,1/4-z
1/2+x,y,1/2-z
1/4-y,1/4+x,3/4-z
1/2-x,1/2+y,1/2+z
1/2+x,-y,1/2+z
1/4-y,3/4-x,1/4+z
1/4+y,1/4+x,3/4+z
loop_
_atom_site_type_symbol
_atom_site_label
_atom_site_fract_x
_atom_site_fract_y
_atom_site_fract_z
Si Si1 0.337920 0.336691 0.467284
Si Si2 0.132737 0.827395 0.679977
Si Si3 0.500000 0.334536 0.468377
Si Si4 0.732798 0.601268 0.641733
Si Si5 0.500000 0.836763 0.663190
Si Si6 0.384728 0.062142 0.275363
O O1 0.344098 0.250000 0.456221
O O2 0.419232 0.363351 0.485030
O O3 0.314084 0.375368 0.410772
O O4 0.271467 0.346044 0.510612
O O5 0.086971 0.836971 0.625000
O O6 0.116833 0.750000 0.706755
O O7 0.217291 0.832612 0.662907
O O8 0.116335 0.894910 0.718556
O O9 0.500000 0.250000 0.486038
O O10 0.500000 0.337959 0.402393
O O11 0.790782 0.540782 0.625000
O O12 0.690032 0.567543 0.692322
O O13 0.500000 0.750000 0.678410
O O14 0.434563 0.885478 0.687081
#
# Coordination Sequence:
#
# PCOD9573291 Si02
#       6
#    32  32  16  32  16  32
#     4  11  21  38  62  88 120 155 206 257 312 369
#     4  11  24  37  52  81 121 169 212 246 292 352
#     4   9  20  38  62  90 119 153 198 262 307 362
#     4  11  23  38  58  81 116 160 203 255 310 368
#     4  11  22  36  58  90 122 165 209 249 305 364
#     4  12  23  38  59  85 120 162 204 256 308 370
#
# _framework density 19.380341000000001
#
# number of rings (size 3 to 8) (size 9 to 14) (size 15 to 20)
#    0.000    1.000    7.000    1.800    1.400    3.400 
#    0.000    0.000    0.000    3.600    0.000    0.000 
#    0.000    0.000    0.000    0.000    0.000    0.000 
#
# Total GULP energy -445767.636066 kJ/mol
# GULP energy per Si atom -5572.095451 kJ/mol
# Density = 1.933623 g / cm^3
# Si number density = 19.380341 Si / 1000 Ang^3
#
#
#
# Elastic Constant Matrix: (Units=GPa)
#
#
# Indices 1 2 3 4 5 6 
#
# 1 129.0023 14.5339 18.3290 0.0000 0.0000 0.0000
# 2 14.5339 129.0023 18.3290 0.0000 0.0000 0.0000
# 3 18.3290 18.3290 37.3731 0.0000 0.0000 0.0000
# 4 0.0000 0.0000 0.0000 7.3329 0.0000 0.0000
# 5 0.0000 0.0000 0.0000 0.0000 7.3329 0.0000
# 6 0.0000 0.0000 0.0000 0.0000 0.0000 14.0583
#
#
#
# Elastic Compliance Matrix: (Units=1/GPa)
#
#
# Indices 1 2 3 4 5 6 
#
# 1 0.008350 -0.000386 -0.003906 0.000000 0.000000 0.000000
# 2 -0.000386 0.008350 -0.003906 0.000000 0.000000 0.000000
# 3 -0.003906 -0.003906 0.030589 0.000000 0.000000 0.000000
# 4 0.000000 0.000000 0.000000 0.136372 0.000000 0.000000
# 5 0.000000 0.000000 0.000000 0.000000 0.136372 0.000000
# 6 0.000000 0.000000 0.000000 0.000000 0.000000 0.071132
#
#
# Mechanical properties :
#
#
# Convention : Reuss Voigt Hill
#
# Bulk Modulus (GPa) = 32.36947 44.19571 38.28259
# Shear Modulus (GPa) = 11.96579 22.02387 16.99483
#
# Velocity S-wave (km/s) = 2.48749 3.37471 2.96448
# Velocity P-wave (km/s) = 4.99886 6.16756 5.61371
#
# Compressibility (1/GPa) = 0.03089330
#
# Stress axis : x y z
#
# Youngs Moduli (GPa) = 119.75695 119.75695 32.69201
#
# Poissons Ratio (x) = 0.04620 0.12770
# Poissons Ratio (y) = 0.04620 0.12770
# Poissons Ratio (z) = 0.46777 0.46777
#
# Static dielectric constant tensor:
#      x y z
#    x 1.814030 0.000000 0.000000 
#    y 0.000000 1.814030 0.000000 
#    z 0.000000 0.000000 1.664590 
# 
# From -- ./inp_files/12796.got.cif
#   From: 2010.05.17/outbox.cif.g08.bks.cpg/sg141_7_cif.got.tgz:12796.got - 2010.05.20 13:30:51.
