data_PCOD9573101
_publ_section_title
;
Structure prediction by ZEFSAII (Michael W. Deem and Ramdas Pophale) SiO2 
 PCOD9573101
Probable space group: I 41/A M D
;
_chemical_formula_sum "Si O2"
_cell_formula_units_Z 160
_cell_length_a 20.859066
_cell_length_b 20.859066
_cell_length_c 18.189791
_cell_angle_alpha 90.000000
_cell_angle_beta 90.000000
_cell_angle_gamma 90.000000
_cell_volume 7914.389604
_symmetry_space_group_name_H-M "I 41/A M D"
_symmetry_group_IT_number 141
_space_group.IT_coordinate_system_code '2'
_symmetry_cell_setting 'tetragonal'
loop_
_space_group_symop_operation_xyz
x,y,z
1/4-y,3/4+x,1/4+z
-x,1/2-y,z
1/4+y,1/4-x,3/4+z
x,-y,-z
-x,1/2+y,-z
1/4+y,3/4+x,1/4-z
1/4-y,1/4-x,3/4-z
-x,-y,-z
3/4+y,1/4-x,3/4-z
x,1/2+y,-z
3/4-y,3/4+x,1/4-z
-x,y,z
x,1/2-y,z
3/4-y,1/4-x,3/4+z
3/4+y,3/4+x,1/4+z
1/2+x,1/2+y,1/2+z
3/4-y,1/4+x,3/4+z
1/2-x,-y,1/2+z
3/4+y,3/4-x,1/4+z
1/2+x,1/2-y,1/2-z
1/2-x,y,1/2-z
3/4+y,1/4+x,3/4-z
3/4-y,3/4-x,1/4-z
1/2-x,1/2-y,1/2-z
1/4+y,3/4-x,1/4-z
1/2+x,y,1/2-z
1/4-y,1/4+x,3/4-z
1/2-x,1/2+y,1/2+z
1/2+x,-y,1/2+z
1/4-y,3/4-x,1/4+z
1/4+y,1/4+x,3/4+z
loop_
_atom_site_type_symbol
_atom_site_label
_atom_site_fract_x
_atom_site_fract_y
_atom_site_fract_z
Si Si1 0.713390 0.462149 0.933593
Si Si2 0.361787 0.149093 0.386384
Si Si3 0.100275 0.250000 0.576506
Si Si4 0.500000 0.499872 0.134816
Si Si5 0.379772 0.921855 0.302054
Si Si6 0.500000 0.853221 0.851562
Si Si7 0.000000 0.006903 0.189535
O O1 0.734948 0.515053 0.875000
O O2 0.668795 0.407349 0.899581
O O3 0.779549 0.429560 0.960827
O O4 0.680891 0.500000 0.000000
O O5 0.430586 0.173652 0.356113
O O6 0.297959 0.191147 0.368202
O O7 0.363352 0.143996 0.475242
O O8 0.099869 0.250000 0.487726
O O9 0.175062 0.250000 0.598588
O O10 0.500000 0.424764 0.111393
O O11 0.500000 0.487595 0.222160
O O12 0.368337 0.881664 0.375000
O O13 0.437991 0.966395 0.325585
O O14 0.437273 0.812728 0.875000
#
# Coordination Sequence:
#
# PCOD9573101 Si02
#       7
#    32  32  16  16  32  16  16
#     4  11  21  35  59  89 126 162 213 274 339 405
#     4  11  23  41  62  94 130 176 223 278 340 402
#     4  11  23  41  67  92 131 173 218 271 337 393
#     4   9  23  41  63  89 130 169 220 266 325 402
#     4  10  21  37  61  90 126 167 217 273 332 402
#     4  10  24  47  73 100 134 178 221 274 338 405
#     4   9  18  40  59  82 126 173 202 263 334 393
#
# _framework density 20.216342000000001
#
# number of rings (size 3 to 8) (size 9 to 14) (size 15 to 20)
#    0.000    1.700    4.000    0.000    0.000    5.200 
#    0.000    2.500    0.000    1.500    0.000    0.000 
#    0.000    0.000    0.000    0.000    0.000    0.000 
#
# Total GULP energy -445623.058326 kJ/mol
# GULP energy per Si atom -5570.288229 kJ/mol
# Density = 2.017033 g / cm^3
# Si number density = 20.216342 Si / 1000 Ang^3
#
#
#
# Elastic Constant Matrix: (Units=GPa)
#
#
# Indices 1 2 3 4 5 6 
#
# 1 113.7802 40.2915 42.6800 0.0000 0.0000 0.0000
# 2 40.2915 113.7793 42.6808 0.0000 0.0000 0.0000
# 3 42.6800 42.6808 82.4570 0.0000 0.0000 0.0000
# 4 0.0000 0.0000 0.0000 27.4288 0.0000 0.0000
# 5 0.0000 0.0000 0.0000 0.0000 27.4290 0.0000
# 6 0.0000 0.0000 0.0000 0.0000 0.0000 553.6471
#
#
#
# Elastic Compliance Matrix: (Units=1/GPa)
#
#
# Indices 1 2 3 4 5 6 
#
# 1 0.011354 -0.002254 -0.004710 0.000000 0.000000 0.000000
# 2 -0.002254 0.011354 -0.004710 0.000000 0.000000 0.000000
# 3 -0.004710 -0.004710 0.017004 0.000000 0.000000 0.000000
# 4 0.000000 0.000000 0.000000 0.036458 0.000000 0.000000
# 5 0.000000 0.000000 0.000000 0.000000 0.036458 0.000000
# 6 0.000000 0.000000 0.000000 0.000000 0.000000 0.001806
#
#
# Mechanical properties :
#
#
# Convention : Reuss Voigt Hill
#
# Bulk Modulus (GPa) = 61.11422 62.36900 61.74161
# Shear Modulus (GPa) = 34.90729 133.99193 84.44961
#
# Velocity S-wave (km/s) = 4.15985 8.15002 6.47021
# Velocity P-wave (km/s) = 7.30535 10.93077 9.29650
#
# Compressibility (1/GPa) = 0.01636280
#
# Stress axis : x y z
#
# Youngs Moduli (GPa) = 88.07633 88.07464 58.81064
#
# Poissons Ratio (x) = 0.19850 0.27701
# Poissons Ratio (y) = 0.19850 0.27702
# Poissons Ratio (z) = 0.41486 0.41487
#
# Static dielectric constant tensor:
#      x y z
#    x 1.788830 0.000000 0.000000 
#    y 0.000000 1.788830 0.000000 
#    z 0.000000 0.000000 1.708640 
# 
# From -- ./inp_files/8708.got.cif
#   From: 2010.05.17/outbox.cif.g08.bks.cpg/sg141_5_cif.got.tgz:8708.got - 2010.05.20 13:30:51.
