data_PCOD9573531
_publ_section_title
;
Structure prediction by ZEFSAII (Michael W. Deem and Ramdas Pophale) SiO2 
 PCOD9573531
Probable space group: I 41/A C D
;
_chemical_formula_sum "Si O2"
_cell_formula_units_Z 136
_cell_length_a 23.050906
_cell_length_b 23.050906
_cell_length_c 11.611394
_cell_angle_alpha 90.000000
_cell_angle_beta 90.000000
_cell_angle_gamma 90.000000
_cell_volume 6169.647639
_symmetry_space_group_name_H-M "I 41/A C D"
_symmetry_group_IT_number 142
_space_group.IT_coordinate_system_code '2'
_symmetry_cell_setting 'tetragonal'
loop_
_space_group_symop_operation_xyz
x,y,z
1/4-y,3/4+x,1/4+z
-x,1/2-y,z
1/4+y,1/4-x,3/4+z
x,-y,1/2-z
1/2-x,y,-z
3/4+y,1/4+x,1/4-z
1/4-y,1/4-x,1/4-z
-x,-y,-z
3/4+y,1/4-x,3/4-z
x,1/2+y,-z
3/4-y,3/4+x,1/4-z
-x,y,1/2+z
1/2+x,-y,z
1/4-y,3/4-x,3/4+z
3/4+y,3/4+x,3/4+z
1/2+x,1/2+y,1/2+z
3/4-y,1/4+x,3/4+z
1/2-x,-y,1/2+z
3/4+y,3/4-x,1/4+z
1/2+x,1/2-y,-z
-x,1/2+y,1/2-z
1/4+y,3/4+x,3/4-z
3/4-y,3/4-x,3/4-z
1/2-x,1/2-y,1/2-z
1/4+y,3/4-x,1/4-z
1/2+x,y,1/2-z
1/4-y,1/4+x,3/4-z
1/2-x,1/2+y,z
x,1/2-y,1/2+z
3/4-y,1/4-x,1/4+z
1/4+y,1/4+x,1/4+z
loop_
_atom_site_type_symbol
_atom_site_label
_atom_site_fract_x
_atom_site_fract_y
_atom_site_fract_z
Si Si1 0.500000 0.750000 0.375000
Si Si2 0.941330 0.964919 0.133596
Si Si3 0.397321 0.696842 0.511431
Si Si4 0.778957 0.180360 0.327516
Si Si5 0.655520 0.675257 0.547131
O O1 0.458780 0.708077 0.449334
O O2 0.921120 0.902499 0.178677
O O3 0.002346 0.951669 0.069883
O O4 0.953298 0.000000 0.250000
O O5 0.908258 0.009734 0.048697
O O6 0.409320 0.659320 0.625000
O O7 0.374306 0.761592 0.542329
O O8 0.717124 0.179316 0.390492
O O9 0.825546 0.155564 0.417993
O O10 0.616183 0.633818 0.625000
#
# Coordination Sequence:
#
# PCOD9573531 Si02
#       5
#     8  32  32  32  32
#     4  12  26  36  48  86 136 172 194 252 332 418
#     4  10  19  38  57  73 111 162 212 260 300 372
#     4  11  24  36  52  83 123 170 213 251 328 406
#     4   9  19  35  55  81 108 152 206 256 311 368
#     4  10  19  36  57  82 117 156 205 263 319 394
#
# _framework density 22.043398
#
# number of rings (size 3 to 8) (size 9 to 14) (size 15 to 20)
#    0.000    1.882    4.706    1.765    6.588    1.882 
#    0.000    0.000    0.000    0.000    0.000    0.000 
#   28.235    0.000    0.000    0.000    0.000    0.000 
#
# Total GULP energy -379063.447700 kJ/mol
# GULP energy per Si atom -5574.462466 kJ/mol
# Density = 2.199323 g / cm^3
# Si number density = 22.043398 Si / 1000 Ang^3
#
#
#
# Elastic Constant Matrix: (Units=GPa)
#
#
# Indices 1 2 3 4 5 6 
#
# 1 91.6931 42.5340 55.7005 0.0000 0.0000 0.0000
# 2 42.5340 91.6921 55.7001 0.0000 0.0000 0.0000
# 3 55.7005 55.7001 171.1085 0.0000 0.0000 0.0000
# 4 0.0000 0.0000 0.0000 33.2940 0.0000 0.0000
# 5 0.0000 0.0000 0.0000 0.0000 33.2931 0.0000
# 6 0.0000 0.0000 0.0000 0.0000 0.0000 16.7779
#
#
#
# Elastic Compliance Matrix: (Units=1/GPa)
#
#
# Indices 1 2 3 4 5 6 
#
# 1 0.015275 -0.005067 -0.003323 0.000000 0.000000 0.000000
# 2 -0.005067 0.015275 -0.003323 0.000000 0.000000 0.000000
# 3 -0.003323 -0.003323 0.008008 0.000000 0.000000 0.000000
# 4 0.000000 0.000000 0.000000 0.030035 0.000000 0.000000
# 5 0.000000 0.000000 0.000000 0.000000 0.030036 0.000000
# 6 0.000000 0.000000 0.000000 0.000000 0.000000 0.059602
#
#
# Mechanical properties :
#
#
# Convention : Reuss Voigt Hill
#
# Bulk Modulus (GPa) = 66.08620 73.59587 69.84104
# Shear Modulus (GPa) = 26.78066 30.04362 28.41214
#
# Velocity S-wave (km/s) = 3.48933 3.69579 3.59405
# Velocity P-wave (km/s) = 6.80287 7.18826 6.99822
#
# Compressibility (1/GPa) = 0.01513175
#
# Stress axis : x y z
#
# Youngs Moduli (GPa) = 65.46616 65.46560 124.88032
#
# Poissons Ratio (x) = 0.33173 0.41497
# Poissons Ratio (y) = 0.33173 0.41497
# Poissons Ratio (z) = 0.21754 0.21754
#
# Static dielectric constant tensor:
#      x y z
#    x 1.828230 0.000000 0.000000 
#    y 0.000000 1.828230 0.000000 
#    z 0.000000 0.000000 1.984840 
# 
# From -- ./inp_files/3569.got.cif
#   From: 2010.05.17/outbox.cif.g08.bks.cpg/sg142_2_cif.got.tgz:3569.got - 2010.05.20 13:39:18.
