data_PCOD9573573
_publ_section_title
;
Structure prediction by ZEFSAII (Michael W. Deem and Ramdas Pophale) SiO2 
 PCOD9573573
Probable space group: I 41/A C D
;
_chemical_formula_sum "Si O2"
_cell_formula_units_Z 160
_cell_length_a 27.296756
_cell_length_b 27.296756
_cell_length_c 13.458485
_cell_angle_alpha 90.000000
_cell_angle_beta 90.000000
_cell_angle_gamma 90.000000
_cell_volume 10028.090628
_symmetry_space_group_name_H-M "I 41/A C D"
_symmetry_group_IT_number 142
_space_group.IT_coordinate_system_code '2'
_symmetry_cell_setting 'tetragonal'
loop_
_space_group_symop_operation_xyz
x,y,z
1/4-y,3/4+x,1/4+z
-x,1/2-y,z
1/4+y,1/4-x,3/4+z
x,-y,1/2-z
1/2-x,y,-z
3/4+y,1/4+x,1/4-z
1/4-y,1/4-x,1/4-z
-x,-y,-z
3/4+y,1/4-x,3/4-z
x,1/2+y,-z
3/4-y,3/4+x,1/4-z
-x,y,1/2+z
1/2+x,-y,z
1/4-y,3/4-x,3/4+z
3/4+y,3/4+x,3/4+z
1/2+x,1/2+y,1/2+z
3/4-y,1/4+x,3/4+z
1/2-x,-y,1/2+z
3/4+y,3/4-x,1/4+z
1/2+x,1/2-y,-z
-x,1/2+y,1/2-z
1/4+y,3/4+x,3/4-z
3/4-y,3/4-x,3/4-z
1/2-x,1/2-y,1/2-z
1/4+y,3/4-x,1/4-z
1/2+x,y,1/2-z
1/4-y,1/4+x,3/4-z
1/2-x,1/2+y,z
x,1/2-y,1/2+z
3/4-y,1/4-x,1/4+z
1/4+y,1/4+x,1/4+z
loop_
_atom_site_type_symbol
_atom_site_label
_atom_site_fract_x
_atom_site_fract_y
_atom_site_fract_z
Si Si1 0.689877 0.198413 0.698760
Si Si2 0.190953 0.657801 0.991198
Si Si3 0.693513 0.900874 0.313929
Si Si4 0.194818 0.410198 0.232173
Si Si5 0.807468 0.199497 0.718760
O O1 0.673289 0.189608 0.585507
O O2 0.680427 0.146944 0.753628
O O3 0.748978 0.204141 0.700431
O O4 0.671410 0.248245 0.748612
O O5 0.173752 0.679034 0.886384
O O6 0.250000 0.658215 0.000000
O O7 0.174848 0.601941 0.006593
O O8 0.745986 0.913180 0.265555
O O9 0.689613 0.920529 0.426597
O O10 0.686843 0.842389 0.302151
O O11 0.178351 0.428351 0.125000
#
# Coordination Sequence:
#
# PCOD9573573 Si02
#       5
#    32  32  32  32  32
#     4   8  17  30  44  64  87 115 154 194 235 272
#     4   9  17  29  44  64  92 122 152 189 226 272
#     4  10  20  31  45  67  94 124 161 191 223 275
#     4  10  20  33  46  66  97 129 159 193 229 276
#     4   9  16  29  47  64  85 118 154 194 236 269
#
# _framework density 15.955181
#
# number of rings (size 3 to 8) (size 9 to 14) (size 15 to 20)
#    0.000    2.800    0.000    2.400    0.000    3.200 
#    0.000    8.000    0.000    0.000    0.000    0.000 
#    0.000   41.600    0.000    0.000    0.000    0.000 
#
# Total GULP energy -445400.926003 kJ/mol
# GULP energy per Si atom -5567.511575 kJ/mol
# Density = 1.591887 g / cm^3
# Si number density = 15.955181 Si / 1000 Ang^3
#
#
#
# Elastic Constant Matrix: (Units=GPa)
#
#
# Indices 1 2 3 4 5 6 
#
# 1 72.3861 14.4888 48.4476 0.0000 0.0000 0.0000
# 2 14.4888 72.3861 48.4476 0.0000 0.0000 0.0000
# 3 48.4476 48.4476 111.9896 0.0000 0.0000 0.0000
# 4 0.0000 0.0000 0.0000 16.9830 0.0000 0.0000
# 5 0.0000 0.0000 0.0000 0.0000 16.9830 0.0000
# 6 0.0000 0.0000 0.0000 0.0000 0.0000 -1.8020
#
#
#
# Elastic Compliance Matrix: (Units=1/GPa)
#
#
# Indices 1 2 3 4 5 6 
#
# 1 0.019758 0.002486 -0.009623 0.000000 0.000000 0.000000
# 2 0.002486 0.019758 -0.009623 0.000000 0.000000 0.000000
# 3 -0.009623 -0.009623 0.017255 0.000000 0.000000 0.000000
# 4 0.000000 0.000000 0.000000 0.058882 0.000000 0.000000
# 5 0.000000 0.000000 0.000000 0.000000 0.058882 0.000000
# 6 0.000000 0.000000 0.000000 0.000000 0.000000 -0.554934
#
#
# Mechanical properties :
#
#
# Convention : Reuss Voigt Hill
#
# Bulk Modulus (GPa) = 43.00863 53.28113 48.14488
# Shear Modulus (GPa) = -14.74363 16.12464 0.69051
#
# Velocity S-wave (km/s) = -3.04314 3.18248 0.65857
# Velocity P-wave (km/s) = 3.82973 6.85354 5.55147
#
# Compressibility (1/GPa) = 0.02325115
#
# Stress axis : x y z
#
# Youngs Moduli (GPa) = 50.61330 50.61330 57.95393
#
# Poissons Ratio (x) = -0.12581 0.55767
# Poissons Ratio (y) = -0.12581 0.55767
# Poissons Ratio (z) = 0.48703 0.48703
#
# Static dielectric constant tensor:
#      x y z
#    x 1.536300 0.000000 0.000000 
#    y 0.000000 1.536300 0.000000 
#    z 0.000000 0.000000 1.560430 
# 
# From -- ./inp_files/5396.got.cif
#   From: 2010.05.17/outbox.cif.g08.bks.cpg/sg142_3_cif.got.tgz:5396.got - 2010.05.20 13:39:18.
