data_PCOD9573591
_publ_section_title
;
Structure prediction by ZEFSAII (Michael W. Deem and Ramdas Pophale) SiO2 
 PCOD9573591
Probable space group: I 41/A C D
;
_chemical_formula_sum "Si O2"
_cell_formula_units_Z 144
_cell_length_a 21.858419
_cell_length_b 21.858419
_cell_length_c 16.070856
_cell_angle_alpha 90.000000
_cell_angle_beta 90.000000
_cell_angle_gamma 90.000000
_cell_volume 7678.502021
_symmetry_space_group_name_H-M "I 41/A C D"
_symmetry_group_IT_number 142
_space_group.IT_coordinate_system_code '2'
_symmetry_cell_setting 'tetragonal'
loop_
_space_group_symop_operation_xyz
x,y,z
1/4-y,3/4+x,1/4+z
-x,1/2-y,z
1/4+y,1/4-x,3/4+z
x,-y,1/2-z
1/2-x,y,-z
3/4+y,1/4+x,1/4-z
1/4-y,1/4-x,1/4-z
-x,-y,-z
3/4+y,1/4-x,3/4-z
x,1/2+y,-z
3/4-y,3/4+x,1/4-z
-x,y,1/2+z
1/2+x,-y,z
1/4-y,3/4-x,3/4+z
3/4+y,3/4+x,3/4+z
1/2+x,1/2+y,1/2+z
3/4-y,1/4+x,3/4+z
1/2-x,-y,1/2+z
3/4+y,3/4-x,1/4+z
1/2+x,1/2-y,-z
-x,1/2+y,1/2-z
1/4+y,3/4+x,3/4-z
3/4-y,3/4-x,3/4-z
1/2-x,1/2-y,1/2-z
1/4+y,3/4-x,1/4-z
1/2+x,y,1/2-z
1/4-y,1/4+x,3/4-z
1/2-x,1/2+y,z
x,1/2-y,1/2+z
3/4-y,1/4-x,1/4+z
1/4+y,1/4+x,1/4+z
loop_
_atom_site_type_symbol
_atom_site_label
_atom_site_fract_x
_atom_site_fract_y
_atom_site_fract_z
Si Si1 0.375995 0.366740 0.758022
Si Si2 0.750000 0.671459 0.000000
Si Si3 0.474314 0.033820 0.418469
Si Si4 0.400208 0.762310 0.577041
Si Si5 0.415357 0.802441 0.396140
O O1 0.382187 0.439043 0.759022
O O2 0.319016 0.338084 0.805562
O O3 0.441484 0.342521 0.795699
O O4 0.374287 0.342324 0.664262
O O5 0.755579 0.711125 0.085175
O O6 0.515102 0.090483 0.385155
O O7 0.500000 0.000000 0.500000
O O8 0.455491 0.794510 0.625000
O O9 0.392708 0.797198 0.489744
O O10 0.484274 0.829076 0.392664
#
# Coordination Sequence:
#
# PCOD9573591 Si02
#       5
#    32  16  32  32  32
#     4  10  22  38  59  87 119 160 206 241 301 359
#     4  10  22  40  60  82 118 166 206 236 284 366
#     4  11  25  38  60  91 123 155 199 253 307 359
#     4  10  20  34  59  87 123 156 195 241 311 368
#     4   9  18  30  53  88 120 152 186 245 308 363
#
# _framework density 18.753658000000001
#
# number of rings (size 3 to 8) (size 9 to 14) (size 15 to 20)
#    0.000    2.000    0.000    4.000   12.444    8.889 
#    0.000    0.000    0.000    2.667    0.000    0.000 
#    0.000    0.000    0.000    0.000    0.000    0.000 
#
# Total GULP energy -401704.751156 kJ/mol
# GULP energy per Si atom -5579.232655 kJ/mol
# Density = 1.871097 g / cm^3
# Si number density = 18.753658 Si / 1000 Ang^3
#
#
#
# Elastic Constant Matrix: (Units=GPa)
#
#
# Indices 1 2 3 4 5 6 
#
# 1 64.4622 43.4636 54.5687 0.0000 0.0000 0.0000
# 2 43.4636 64.4631 54.5688 0.0000 0.0000 0.0000
# 3 54.5687 54.5688 186.6258 0.0000 0.0000 0.0000
# 4 0.0000 0.0000 0.0000 34.0544 0.0000 0.0000
# 5 0.0000 0.0000 0.0000 0.0000 34.0543 0.0000
# 6 0.0000 0.0000 0.0000 0.0000 0.0000 22.1129
#
#
#
# Elastic Compliance Matrix: (Units=1/GPa)
#
#
# Indices 1 2 3 4 5 6 
#
# 1 0.030389 -0.017233 -0.003847 0.000000 0.000000 0.000000
# 2 -0.017233 0.030388 -0.003847 0.000000 0.000000 0.000000
# 3 -0.003847 -0.003847 0.007608 0.000000 0.000000 0.000000
# 4 0.000000 0.000000 0.000000 0.029365 0.000000 0.000000
# 5 0.000000 0.000000 0.000000 0.000000 0.029365 0.000000
# 6 0.000000 0.000000 0.000000 0.000000 0.000000 0.045222
#
#
# Mechanical properties :
#
#
# Convention : Reuss Voigt Hill
#
# Bulk Modulus (GPa) = 53.96030 68.97258 61.46644
# Shear Modulus (GPa) = 21.89469 28.90767 25.40118
#
# Velocity S-wave (km/s) = 3.42056 3.93038 3.68430
# Velocity P-wave (km/s) = 6.66603 7.57992 7.13762
#
# Compressibility (1/GPa) = 0.01853214
#
# Stress axis : x y z
#
# Youngs Moduli (GPa) = 32.90716 32.90773 131.44466
#
# Poissons Ratio (x) = 0.56710 0.50562
# Poissons Ratio (y) = 0.56709 0.50560
# Poissons Ratio (z) = 0.12658 0.12658
#
# Static dielectric constant tensor:
#      x y z
#    x 1.665870 0.000000 0.000000 
#    y 0.000000 1.665860 0.000000 
#    z 0.000000 0.000000 1.724880 
# 
# From -- ./inp_files/7292.got.cif
#   From: 2010.05.17/outbox.cif.g08.bks.cpg/sg142_4_cif.got.tgz:7292.got - 2010.05.20 13:39:18.
