data_PCOD9573137
_publ_section_title
;
Structure prediction by ZEFSAII (Michael W. Deem and Ramdas Pophale) SiO2 
 PCOD9573137
Probable space group: I 41/A M D
;
_chemical_formula_sum "Si O2"
_cell_formula_units_Z 176
_cell_length_a 17.764778
_cell_length_b 17.764778
_cell_length_c 27.993730
_cell_angle_alpha 90.000000
_cell_angle_beta 90.000000
_cell_angle_gamma 90.000000
_cell_volume 8834.466714
_symmetry_space_group_name_H-M "I 41/A M D"
_symmetry_group_IT_number 141
_space_group.IT_coordinate_system_code '2'
_symmetry_cell_setting 'tetragonal'
loop_
_space_group_symop_operation_xyz
x,y,z
1/4-y,3/4+x,1/4+z
-x,1/2-y,z
1/4+y,1/4-x,3/4+z
x,-y,-z
-x,1/2+y,-z
1/4+y,3/4+x,1/4-z
1/4-y,1/4-x,3/4-z
-x,-y,-z
3/4+y,1/4-x,3/4-z
x,1/2+y,-z
3/4-y,3/4+x,1/4-z
-x,y,z
x,1/2-y,z
3/4-y,1/4-x,3/4+z
3/4+y,3/4+x,1/4+z
1/2+x,1/2+y,1/2+z
3/4-y,1/4+x,3/4+z
1/2-x,-y,1/2+z
3/4+y,3/4-x,1/4+z
1/2+x,1/2-y,1/2-z
1/2-x,y,1/2-z
3/4+y,1/4+x,3/4-z
3/4-y,3/4-x,1/4-z
1/2-x,1/2-y,1/2-z
1/4+y,3/4-x,1/4-z
1/2+x,y,1/2-z
1/4-y,1/4+x,3/4-z
1/2-x,1/2+y,1/2+z
1/2+x,-y,1/2+z
1/4-y,3/4-x,1/4+z
1/4+y,1/4+x,3/4+z
loop_
_atom_site_type_symbol
_atom_site_label
_atom_site_fract_x
_atom_site_fract_y
_atom_site_fract_z
Si Si1 0.584166 0.574057 0.531881
Si Si2 0.654390 0.339510 0.026764
Si Si3 0.412586 0.834983 0.679410
Si Si4 0.590243 0.450340 0.718670
Si Si5 0.409732 0.159732 0.125000
Si Si6 0.835656 0.469298 0.130811
O O1 0.578473 0.500000 0.500000
O O2 0.500000 0.600847 0.544700
O O3 0.627664 0.632773 0.497852
O O4 0.627458 0.546931 0.579362
O O5 0.665406 0.250000 0.033550
O O6 0.630131 0.369941 0.077498
O O7 0.590800 0.347246 0.986402
O O8 0.730651 0.367700 0.002464
O O9 0.500000 0.860540 0.670121
O O10 0.405259 0.750000 0.662390
O O11 0.352065 0.890545 0.656917
O O12 0.500000 0.451957 0.714644
O O13 0.624026 0.469059 0.666190
O O14 0.500000 0.148887 0.120315
O O15 0.752267 0.502267 0.125000
#
# Coordination Sequence:
#
# PCOD9573137 Si02
#       6
#    32  32  32  32  16  32
#     4  11  23  40  62  89 120 157 206 260 314 378
#     4   8  15  28  48  78 117 159 201 247 302 363
#     4   9  17  31  55  88 124 164 212 262 311 369
#     4  10  21  40  63  89 123 162 209 263 322 385
#     4   9  14  22  42  76 118 162 204 246 295 352
#     4  11  21  39  64  93 127 171 212 259 324 396
#
# _framework density 19.921972
#
# number of rings (size 3 to 8) (size 9 to 14) (size 15 to 20)
#    0.000    2.273    1.818    3.273    0.000    3.273 
#    1.636    0.000    0.000    0.000    0.000    3.818 
#    0.000    0.364    0.000    0.000    0.000    0.000 
#
# Total GULP energy -490321.649954 kJ/mol
# GULP energy per Si atom -5571.836931 kJ/mol
# Density = 1.987663 g / cm^3
# Si number density = 19.921972 Si / 1000 Ang^3
#
#
#
# Elastic Constant Matrix: (Units=GPa)
#
#
# Indices 1 2 3 4 5 6 
#
# 1 66.0978 34.8854 16.6140 0.0000 0.0000 0.0000
# 2 34.8854 66.0978 16.6140 0.0000 0.0000 0.0000
# 3 16.6140 16.6140 107.3745 0.0000 0.0000 0.0000
# 4 0.0000 0.0000 0.0000 21.8531 0.0000 0.0000
# 5 0.0000 0.0000 0.0000 0.0000 21.8531 0.0000
# 6 0.0000 0.0000 0.0000 0.0000 0.0000 23.7469
#
#
#
# Elastic Compliance Matrix: (Units=1/GPa)
#
#
# Indices 1 2 3 4 5 6 
#
# 1 0.021236 -0.010802 -0.001614 0.000000 0.000000 0.000000
# 2 -0.010802 0.021236 -0.001614 0.000000 0.000000 0.000000
# 3 -0.001614 -0.001614 0.009813 0.000000 0.000000 0.000000
# 4 0.000000 0.000000 0.000000 0.045760 0.000000 0.000000
# 5 0.000000 0.000000 0.000000 0.000000 0.045760 0.000000
# 6 0.000000 0.000000 0.000000 0.000000 0.000000 0.042111
#
#
# Mechanical properties :
#
#
# Convention : Reuss Voigt Hill
#
# Bulk Modulus (GPa) = 41.28339 41.75519 41.51929
# Shear Modulus (GPa) = 22.51717 24.92108 23.71912
#
# Velocity S-wave (km/s) = 3.36559 3.54069 3.45425
# Velocity P-wave (km/s) = 5.98920 6.14168 6.06592
#
# Compressibility (1/GPa) = 0.02422282
#
# Stress axis : x y z
#
# Youngs Moduli (GPa) = 47.08939 47.08939 101.90773
#
# Poissons Ratio (x) = 0.50868 0.16452
# Poissons Ratio (y) = 0.50868 0.16452
# Poissons Ratio (z) = 0.07602 0.07602
#
# Static dielectric constant tensor:
#      x y z
#    x 1.726830 0.000000 0.000000 
#    y 0.000000 1.726830 0.000000 
#    z 0.000000 0.000000 1.753910 
# 
# From -- ./inp_files/12866.got.cif
#   From: 2010.05.17/outbox.cif.g08.bks.cpg/sg141_7_cif.got.tgz:12866.got - 2010.05.20 13:30:51.
