data_PCOD9573443
_publ_section_title
;
Structure prediction by ZEFSAII (Michael W. Deem and Ramdas Pophale) SiO2 
 PCOD9573443
Probable space group: I 41/A C D
;
_chemical_formula_sum "Si O2"
_cell_formula_units_Z 232
_cell_length_a 28.427702
_cell_length_b 28.427702
_cell_length_c 16.232450
_cell_angle_alpha 90.000000
_cell_angle_beta 90.000000
_cell_angle_gamma 90.000000
_cell_volume 13117.998660
_symmetry_space_group_name_H-M "I 41/A C D"
_symmetry_group_IT_number 142
_space_group.IT_coordinate_system_code '2'
_symmetry_cell_setting 'tetragonal'
loop_
_space_group_symop_operation_xyz
x,y,z
1/4-y,3/4+x,1/4+z
-x,1/2-y,z
1/4+y,1/4-x,3/4+z
x,-y,1/2-z
1/2-x,y,-z
3/4+y,1/4+x,1/4-z
1/4-y,1/4-x,1/4-z
-x,-y,-z
3/4+y,1/4-x,3/4-z
x,1/2+y,-z
3/4-y,3/4+x,1/4-z
-x,y,1/2+z
1/2+x,-y,z
1/4-y,3/4-x,3/4+z
3/4+y,3/4+x,3/4+z
1/2+x,1/2+y,1/2+z
3/4-y,1/4+x,3/4+z
1/2-x,-y,1/2+z
3/4+y,3/4-x,1/4+z
1/2+x,1/2-y,-z
-x,1/2+y,1/2-z
1/4+y,3/4+x,3/4-z
3/4-y,3/4-x,3/4-z
1/2-x,1/2-y,1/2-z
1/4+y,3/4-x,1/4-z
1/2+x,y,1/2-z
1/4-y,1/4+x,3/4-z
1/2-x,1/2+y,z
x,1/2-y,1/2+z
3/4-y,1/4-x,1/4+z
1/4+y,1/4+x,1/4+z
loop_
_atom_site_type_symbol
_atom_site_label
_atom_site_fract_x
_atom_site_fract_y
_atom_site_fract_z
Si Si1 0.724124 0.815377 0.827361
Si Si2 0.000000 0.250000 0.375000
Si Si3 0.585815 0.560842 0.481219
Si Si4 0.570003 0.806577 0.783308
Si Si5 0.721376 0.780247 0.417728
Si Si6 0.633848 0.747744 0.515157
Si Si7 0.401963 0.884566 0.822981
Si Si8 0.658164 0.763896 0.699783
O O1 0.769926 0.843886 0.798634
O O2 0.739893 0.767523 0.874226
O O3 0.685977 0.841431 0.884895
O O4 0.696936 0.795891 0.746146
O O5 0.989135 0.296045 0.427111
O O6 0.572177 0.534062 0.396697
O O7 0.623995 0.600790 0.463755
O O8 0.537477 0.586696 0.509293
O O9 0.528200 0.836819 0.743919
O O10 0.597124 0.835619 0.854654
O O11 0.609118 0.788835 0.720982
O O12 0.750000 0.791413 0.500000
O O13 0.668786 0.766214 0.444671
O O14 0.627892 0.692653 0.495718
O O15 0.658088 0.757820 0.602198
#
# Coordination Sequence:
#
# PCOD9573443 Si02
#       8
#    32   8  32  32  32  32  32  32
#     4   9  20  35  55  76 110 139 175 230 277 326
#     4  12  20  32  50  60 100 160 202 212 260 308
#     4  11  19  36  53  75 109 143 175 230 278 318
#     4  11  20  34  48  69 106 151 192 222 261 314
#     4  10  18  31  55  79 101 140 179 213 272 324
#     4  11  20  33  50  74 109 146 182 225 258 324
#     4  10  21  35  52  77 105 147 187 221 282 335
#     4  10  21  33  51  79 105 145 186 229 269 311
#
# _framework density 17.685625000000002
#
# number of rings (size 3 to 8) (size 9 to 14) (size 15 to 20)
#    0.000    1.655    2.759    5.379    0.000    0.552 
#    0.000    0.690    0.000    0.000    0.000    0.000 
#    0.000   24.276    0.552    0.000    0.000    0.000 
#
# Total GULP energy -647241.380530 kJ/mol
# GULP energy per Si atom -5579.667074 kJ/mol
# Density = 1.764537 g / cm^3
# Si number density = 17.685625 Si / 1000 Ang^3
#
#
#
# Elastic Constant Matrix: (Units=GPa)
#
#
# Indices 1 2 3 4 5 6 
#
# 1 87.4271 40.8672 23.3898 0.0000 0.0000 0.0000
# 2 40.8672 87.4271 23.3898 0.0000 0.0000 0.0000
# 3 23.3898 23.3898 70.3783 0.0000 0.0000 0.0000
# 4 0.0000 0.0000 0.0000 20.3372 0.0000 0.0000
# 5 0.0000 0.0000 0.0000 0.0000 20.3372 0.0000
# 6 0.0000 0.0000 0.0000 0.0000 0.0000 15.8724
#
#
#
# Elastic Compliance Matrix: (Units=1/GPa)
#
#
# Indices 1 2 3 4 5 6 
#
# 1 0.015174 -0.006304 -0.002948 0.000000 0.000000 0.000000
# 2 -0.006304 0.015174 -0.002948 0.000000 0.000000 0.000000
# 3 -0.002948 -0.002948 0.016168 0.000000 0.000000 0.000000
# 4 0.000000 0.000000 0.000000 0.049171 0.000000 0.000000
# 5 0.000000 0.000000 0.000000 0.000000 0.049171 0.000000
# 6 0.000000 0.000000 0.000000 0.000000 0.000000 0.063002
#
#
# Mechanical properties :
#
#
# Convention : Reuss Voigt Hill
#
# Bulk Modulus (GPa) = 45.21564 46.72513 45.97038
# Shear Modulus (GPa) = 20.86543 21.81507 21.34025
#
# Velocity S-wave (km/s) = 3.43854 3.51592 3.47745
# Velocity P-wave (km/s) = 6.43324 6.55435 6.49408
#
# Compressibility (1/GPa) = 0.02211624
#
# Stress axis : x y z
#
# Youngs Moduli (GPa) = 65.90411 65.90411 61.84968
#
# Poissons Ratio (x) = 0.41547 0.18231
# Poissons Ratio (y) = 0.41547 0.18231
# Poissons Ratio (z) = 0.19427 0.19427
#
# Static dielectric constant tensor:
#      x y z
#    x 1.609190 0.000000 0.000000 
#    y 0.000000 1.609190 0.000000 
#    z 0.000000 0.000000 1.642110 
# 
# From -- ./inp_files/7830.got.cif
#   From: 2010.05.17/outbox.cif.g08.bks.cpg/sg142_4_cif.got.tgz:7830.got - 2010.05.20 13:39:18.
