data_PCOD9573569
_publ_section_title
;
Structure prediction by ZEFSAII (Michael W. Deem and Ramdas Pophale) SiO2 
 PCOD9573569
Probable space group: I 41/A C D
;
_chemical_formula_sum "Si O2"
_cell_formula_units_Z 216
_cell_length_a 27.514110
_cell_length_b 27.514110
_cell_length_c 11.592379
_cell_angle_alpha 90.000000
_cell_angle_beta 90.000000
_cell_angle_gamma 90.000000
_cell_volume 8775.735192
_symmetry_space_group_name_H-M "I 41/A C D"
_symmetry_group_IT_number 142
_space_group.IT_coordinate_system_code '2'
_symmetry_cell_setting 'tetragonal'
loop_
_space_group_symop_operation_xyz
x,y,z
1/4-y,3/4+x,1/4+z
-x,1/2-y,z
1/4+y,1/4-x,3/4+z
x,-y,1/2-z
1/2-x,y,-z
3/4+y,1/4+x,1/4-z
1/4-y,1/4-x,1/4-z
-x,-y,-z
3/4+y,1/4-x,3/4-z
x,1/2+y,-z
3/4-y,3/4+x,1/4-z
-x,y,1/2+z
1/2+x,-y,z
1/4-y,3/4-x,3/4+z
3/4+y,3/4+x,3/4+z
1/2+x,1/2+y,1/2+z
3/4-y,1/4+x,3/4+z
1/2-x,-y,1/2+z
3/4+y,3/4-x,1/4+z
1/2+x,1/2-y,-z
-x,1/2+y,1/2-z
1/4+y,3/4+x,3/4-z
3/4-y,3/4-x,3/4-z
1/2-x,1/2-y,1/2-z
1/4+y,3/4-x,1/4-z
1/2+x,y,1/2-z
1/4-y,1/4+x,3/4-z
1/2-x,1/2+y,z
x,1/2-y,1/2+z
3/4-y,1/4-x,1/4+z
1/4+y,1/4+x,1/4+z
loop_
_atom_site_type_symbol
_atom_site_label
_atom_site_fract_x
_atom_site_fract_y
_atom_site_fract_z
Si Si1 0.500000 0.250000 0.375000
Si Si2 0.736094 0.986094 0.125000
Si Si3 0.602331 0.768871 0.527174
Si Si4 0.391615 0.917107 0.206949
Si Si5 0.988386 0.605626 0.528819
Si Si6 0.136043 0.960209 0.177469
Si Si7 0.064959 0.031615 0.502085
Si Si8 0.819493 0.636114 0.214482
O O1 0.453471 0.245037 0.457696
O O2 0.681079 0.007072 0.133064
O O3 0.757178 0.000000 0.250000
O O4 0.619179 0.825329 0.520451
O O5 0.623002 0.754309 0.654946
O O6 0.621514 0.747917 0.403973
O O7 0.347138 0.902863 0.125000
O O8 0.377709 0.939693 0.328150
O O9 0.425496 0.953085 0.133435
O O10 0.011733 0.550949 0.531698
O O11 0.930162 0.606700 0.522621
O O12 0.101187 0.937802 0.081321
O O13 0.158700 0.915609 0.249057
O O14 0.106049 0.000000 0.250000
O O15 0.089522 0.979141 0.486517
#
# Coordination Sequence:
#
# PCOD9573569 Si02
#       8
#     8  16  32  32  32  32  32  32
#     4  12  24  42  72 106 144 182 252 290 380 458
#     4  10  22  40  58  84 126 164 216 266 330 416
#     4  10  24  42  69 103 142 185 232 302 362 437
#     4  10  19  41  65  96 133 175 233 291 351 422
#     4  10  25  46  70 101 142 187 239 297 358 429
#     4  11  24  41  62  93 137 179 222 283 361 422
#     4  11  22  40  68 100 133 177 235 296 346 426
#     4  11  23  41  68  97 133 184 238 290 363 430
#
# _framework density 24.613323999999999
#
# number of rings (size 3 to 8) (size 9 to 14) (size 15 to 20)
#    0.000    1.481    2.222    2.667    0.000    6.519 
#    1.333    2.963    0.000    0.000    0.000    0.000 
#    0.000    0.000    0.000    0.000    0.000    0.000 
#
# Total GULP energy -601598.489279 kJ/mol
# GULP energy per Si atom -5570.356382 kJ/mol
# Density = 2.455730 g / cm^3
# Si number density = 24.613324 Si / 1000 Ang^3
#
#
#
# Elastic Constant Matrix: (Units=GPa)
#
#
# Indices 1 2 3 4 5 6 
#
# 1 99.4869 11.0556 24.9471 0.0000 0.0000 0.0000
# 2 11.0556 99.4855 24.9468 0.0000 0.0000 0.0000
# 3 24.9471 24.9468 171.3111 0.0000 0.0000 0.0000
# 4 0.0000 0.0000 0.0000 27.0229 0.0000 0.0000
# 5 0.0000 0.0000 0.0000 0.0000 27.0231 0.0000
# 6 0.0000 0.0000 0.0000 0.0000 0.0000 19.4319
#
#
#
# Elastic Compliance Matrix: (Units=1/GPa)
#
#
# Indices 1 2 3 4 5 6 
#
# 1 0.010495 -0.000813 -0.001410 0.000000 0.000000 0.000000
# 2 -0.000813 0.010496 -0.001410 0.000000 0.000000 0.000000
# 3 -0.001410 -0.001410 0.006248 0.000000 0.000000 0.000000
# 4 0.000000 0.000000 0.000000 0.037006 0.000000 0.000000
# 5 0.000000 0.000000 0.000000 0.000000 0.037005 0.000000
# 6 0.000000 0.000000 0.000000 0.000000 0.000000 0.051462
#
#
# Mechanical properties :
#
#
# Convention : Reuss Voigt Hill
#
# Bulk Modulus (GPa) = 50.06657 54.68694 52.37675
# Shear Modulus (GPa) = 30.00562 35.31784 32.66173
#
# Velocity S-wave (km/s) = 3.49532 3.79213 3.64674
# Velocity P-wave (km/s) = 6.05600 6.43741 6.24962
#
# Compressibility (1/GPa) = 0.01997341
#
# Stress axis : x y z
#
# Youngs Moduli (GPa) = 95.27921 95.27788 160.05104
#
# Poissons Ratio (x) = 0.07744 0.22568
# Poissons Ratio (y) = 0.07744 0.22568
# Poissons Ratio (z) = 0.13435 0.13435
#
# Static dielectric constant tensor:
#      x y z
#    x 2.003260 0.000000 0.000000 
#    y 0.000000 2.003260 0.000000 
#    z 0.000000 0.000000 2.027080 
# 
# From -- ./inp_files/4264.got.cif
#   From: 2010.05.17/outbox.cif.g08.bks.cpg/sg142_3_cif.got.tgz:4264.got - 2010.05.20 13:39:18.
