data_PCOD9573264
_publ_section_title
;
Structure prediction by ZEFSAII (Michael W. Deem and Ramdas Pophale) SiO2 
 PCOD9573264
Probable space group: I 41/A M D
;
_chemical_formula_sum "Si O2"
_cell_formula_units_Z 160
_cell_length_a 24.028655
_cell_length_b 24.028655
_cell_length_c 14.518209
_cell_angle_alpha 90.000000
_cell_angle_beta 90.000000
_cell_angle_gamma 90.000000
_cell_volume 8382.469230
_symmetry_space_group_name_H-M "I 41/A M D"
_symmetry_group_IT_number 141
_space_group.IT_coordinate_system_code '2'
_symmetry_cell_setting 'tetragonal'
loop_
_space_group_symop_operation_xyz
x,y,z
1/4-y,3/4+x,1/4+z
-x,1/2-y,z
1/4+y,1/4-x,3/4+z
x,-y,-z
-x,1/2+y,-z
1/4+y,3/4+x,1/4-z
1/4-y,1/4-x,3/4-z
-x,-y,-z
3/4+y,1/4-x,3/4-z
x,1/2+y,-z
3/4-y,3/4+x,1/4-z
-x,y,z
x,1/2-y,z
3/4-y,1/4-x,3/4+z
3/4+y,3/4+x,1/4+z
1/2+x,1/2+y,1/2+z
3/4-y,1/4+x,3/4+z
1/2-x,-y,1/2+z
3/4+y,3/4-x,1/4+z
1/2+x,1/2-y,1/2-z
1/2-x,y,1/2-z
3/4+y,1/4+x,3/4-z
3/4-y,3/4-x,1/4-z
1/2-x,1/2-y,1/2-z
1/4+y,3/4-x,1/4-z
1/2+x,y,1/2-z
1/4-y,1/4+x,3/4-z
1/2-x,1/2+y,1/2+z
1/2+x,-y,1/2+z
1/4-y,3/4-x,1/4+z
1/4+y,1/4+x,3/4+z
loop_
_atom_site_type_symbol
_atom_site_label
_atom_site_fract_x
_atom_site_fract_y
_atom_site_fract_z
Si Si1 0.432608 0.997352 0.211649
Si Si2 0.876927 0.816504 0.539409
Si Si3 0.436381 0.110199 0.887581
Si Si4 0.567159 0.963587 0.415711
Si Si5 0.912491 0.688663 0.223419
O O1 0.500000 0.992311 0.212882
O O2 0.420428 0.061804 0.192332
O O3 0.414840 0.951659 0.136269
O O4 0.412300 0.980206 0.314190
O O5 0.881597 0.750000 0.522670
O O6 0.914445 0.835556 0.625000
O O7 0.898347 0.852930 0.453754
O O8 0.500000 0.107444 0.923824
O O9 0.437104 0.142836 0.790407
O O10 0.500000 0.971583 0.411891
O O11 0.576108 0.900453 0.445759
O O12 0.589380 0.000000 0.500000
O O13 0.941220 0.691220 0.125000
O O14 0.913991 0.750000 0.267728
#
# Coordination Sequence:
#
# PCOD9573264 Si02
#       5
#    32  32  32  32  32
#     4   9  19  37  57  83 115 150 203 247 280 345
#     4  11  24  41  62  89 118 155 200 251 312 368
#     4  11  22  37  58  87 122 158 198 246 298 356
#     4   9  16  29  50  75 108 150 194 235 272 328
#     4  11  20  30  48  81 120 154 183 221 287 357
#
# _framework density 19.087454000000001
#
# number of rings (size 3 to 8) (size 9 to 14) (size 15 to 20)
#    0.000    1.800    2.000    3.000    0.000    7.600 
#    0.000    3.000    0.000    0.000   20.800    0.000 
#    0.000    0.000    0.000    0.000    0.000    0.000 
#
# Total GULP energy -446299.232360 kJ/mol
# GULP energy per Si atom -5578.740405 kJ/mol
# Density = 1.904401 g / cm^3
# Si number density = 19.087454 Si / 1000 Ang^3
#
#
#
# Elastic Constant Matrix: (Units=GPa)
#
#
# Indices 1 2 3 4 5 6 
#
# 1 49.0322 91.2915 33.4346 0.0000 0.0000 0.0000
# 2 91.2915 49.0344 33.4341 0.0000 0.0000 0.0000
# 3 33.4346 33.4341 69.5536 0.0000 0.0000 0.0000
# 4 0.0000 0.0000 0.0000 21.2491 0.0000 0.0000
# 5 0.0000 0.0000 0.0000 0.0000 21.2600 0.0000
# 6 0.0000 0.0000 0.0000 0.0000 0.0000 17.5394
#
#
#
# Elastic Compliance Matrix: (Units=1/GPa)
#
#
# Indices 1 2 3 4 5 6 
#
# 1 -0.007210 0.016454 -0.004443 0.000000 0.000000 0.000000
# 2 0.016454 -0.007210 -0.004444 0.000000 0.000000 0.000000
# 3 -0.004443 -0.004444 0.018649 0.000000 0.000000 0.000000
# 4 0.000000 0.000000 0.000000 0.047061 0.000000 0.000000
# 5 0.000000 0.000000 0.000000 0.000000 0.047037 0.000000
# 6 0.000000 0.000000 0.000000 0.000000 0.000000 0.057015
#
#
# Mechanical properties :
#
#
# Convention : Reuss Voigt Hill
#
# Bulk Modulus (GPa) = 51.64491 53.77119 52.70805
# Shear Modulus (GPa) = 34.09211 12.64036 23.36623
#
# Velocity S-wave (km/s) = 4.23081 2.57618 3.50261
# Velocity P-wave (km/s) = 7.14018 6.08942 6.63563
#
# Compressibility (1/GPa) = 0.01936299
#
# Stress axis : x y z
#
# Youngs Moduli (GPa) = -138.68792 -138.69889 53.62120
#
# Poissons Ratio (x) = 2.28214 0.23825
# Poissons Ratio (y) = 2.28196 0.23828
# Poissons Ratio (z) = -0.61623 -0.61633
#
# Static dielectric constant tensor:
#      x y z
#    x 1.718920 0.000000 0.000000 
#    y 0.000000 1.718920 0.000000 
#    z 0.000000 0.000000 1.691770 
# 
# From -- ./inp_files/6572.got.cif
#   From: 2010.05.17/outbox.cif.g08.bks.cpg/sg141_4_cif.got.tgz:6572.got - 2010.05.20 13:30:51.
