data_PCOD9573609
_publ_section_title
;
Structure prediction by ZEFSAII (Michael W. Deem and Ramdas Pophale) SiO2 
 PCOD9573609
Probable space group: I 41/A C D
;
_chemical_formula_sum "Si O2"
_cell_formula_units_Z 160
_cell_length_a 21.085532
_cell_length_b 21.085532
_cell_length_c 17.366591
_cell_angle_alpha 90.000000
_cell_angle_beta 90.000000
_cell_angle_gamma 90.000000
_cell_volume 7721.180449
_symmetry_space_group_name_H-M "I 41/A C D"
_symmetry_group_IT_number 142
_space_group.IT_coordinate_system_code '2'
_symmetry_cell_setting 'tetragonal'
loop_
_space_group_symop_operation_xyz
x,y,z
1/4-y,3/4+x,1/4+z
-x,1/2-y,z
1/4+y,1/4-x,3/4+z
x,-y,1/2-z
1/2-x,y,-z
3/4+y,1/4+x,1/4-z
1/4-y,1/4-x,1/4-z
-x,-y,-z
3/4+y,1/4-x,3/4-z
x,1/2+y,-z
3/4-y,3/4+x,1/4-z
-x,y,1/2+z
1/2+x,-y,z
1/4-y,3/4-x,3/4+z
3/4+y,3/4+x,3/4+z
1/2+x,1/2+y,1/2+z
3/4-y,1/4+x,3/4+z
1/2-x,-y,1/2+z
3/4+y,3/4-x,1/4+z
1/2+x,1/2-y,-z
-x,1/2+y,1/2-z
1/4+y,3/4+x,3/4-z
3/4-y,3/4-x,3/4-z
1/2-x,1/2-y,1/2-z
1/4+y,3/4-x,1/4-z
1/2+x,y,1/2-z
1/4-y,1/4+x,3/4-z
1/2-x,1/2+y,z
x,1/2-y,1/2+z
3/4-y,1/4-x,1/4+z
1/4+y,1/4+x,1/4+z
loop_
_atom_site_type_symbol
_atom_site_label
_atom_site_fract_x
_atom_site_fract_y
_atom_site_fract_z
Si Si1 0.961716 0.573999 0.728332
Si Si2 0.323249 0.931283 0.976466
Si Si3 0.514657 0.847658 0.905876
Si Si4 0.311297 0.932578 0.793408
Si Si5 0.598965 0.330904 0.964009
O O1 0.969008 0.500000 0.750000
O O2 0.889641 0.596331 0.744525
O O3 0.976002 0.585689 0.637002
O O4 0.013256 0.618238 0.770028
O O5 0.323722 0.941425 0.884197
O O6 0.250000 0.928235 0.000000
O O7 0.348138 0.992411 0.023234
O O8 0.567052 0.801965 0.865752
O O9 0.530965 0.839534 0.994735
O O10 0.366725 0.891284 0.757040
O O11 0.312276 0.000000 0.750000
O O12 0.594724 0.344724 0.875000
#
# Coordination Sequence:
#
# PCOD9573609 Si02
#       5
#    32  32  32  32  32
#     4  10  21  40  64  88 127 167 206 262 320 370
#     4  10  20  36  58  88 128 172 210 261 319 388
#     4   9  19  40  64  84 116 168 207 244 311 384
#     4  11  20  35  60  92 128 168 214 259 327 385
#     4  11  22  39  62  92 123 160 211 264 316 385
#
# _framework density 20.72222
#
# number of rings (size 3 to 8) (size 9 to 14) (size 15 to 20)
#    0.000    1.800    2.000    4.200    0.000    0.000 
#    0.000   17.000    0.000    0.000    0.000    0.000 
#    0.000    0.000    0.000    0.000    0.000    0.000 
#
# Total GULP energy -446304.872194 kJ/mol
# GULP energy per Si atom -5578.810902 kJ/mol
# Density = 2.067506 g / cm^3
# Si number density = 20.722220 Si / 1000 Ang^3
#
#
#
# Elastic Constant Matrix: (Units=GPa)
#
#
# Indices 1 2 3 4 5 6 
#
# 1 82.6988 16.7391 8.2981 0.0000 0.0000 0.0000
# 2 16.7391 82.6988 8.2981 0.0000 0.0000 0.0000
# 3 8.2981 8.2981 48.2919 0.0000 0.0000 0.0000
# 4 0.0000 0.0000 0.0000 20.2764 0.0000 0.0000
# 5 0.0000 0.0000 0.0000 0.0000 20.2764 0.0000
# 6 0.0000 0.0000 0.0000 0.0000 0.0000 11.6810
#
#
#
# Elastic Compliance Matrix: (Units=1/GPa)
#
#
# Indices 1 2 3 4 5 6 
#
# 1 0.012757 -0.002404 -0.001779 0.000000 0.000000 0.000000
# 2 -0.002404 0.012757 -0.001779 0.000000 0.000000 0.000000
# 3 -0.001779 -0.001779 0.021319 0.000000 0.000000 0.000000
# 4 0.000000 0.000000 0.000000 0.049318 0.000000 0.000000
# 5 0.000000 0.000000 0.000000 0.000000 0.049318 0.000000
# 6 0.000000 0.000000 0.000000 0.000000 0.000000 0.085609
#
#
# Mechanical properties :
#
#
# Convention : Reuss Voigt Hill
#
# Bulk Modulus (GPa) = 28.64551 31.15113 29.89832
# Shear Modulus (GPa) = 19.63563 22.47036 21.05299
#
# Velocity S-wave (km/s) = 3.08159 3.29654 3.19087
# Velocity P-wave (km/s) = 5.14929 5.43644 5.29481
#
# Compressibility (1/GPa) = 0.03490948
#
# Stress axis : x y z
#
# Youngs Moduli (GPa) = 78.38769 78.38769 46.90692
#
# Poissons Ratio (x) = 0.18842 0.08345
# Poissons Ratio (y) = 0.18842 0.08345
# Poissons Ratio (z) = 0.13946 0.13946
#
# Static dielectric constant tensor:
#      x y z
#    x 1.797780 0.000000 0.000000 
#    y 0.000000 1.797780 0.000000 
#    z 0.000000 0.000000 2.250480 
# 
# From -- ./inp_files/5420.got.cif
#   From: 2010.05.17/outbox.cif.g08.bks.cpg/sg142_3_cif.got.tgz:5420.got - 2010.05.20 13:39:18.
