data_PCOD9573727
_publ_section_title
;
Structure prediction by ZEFSAII (Michael W. Deem and Ramdas Pophale) SiO2 
 PCOD9573727
Probable space group: I 41/A C D
;
_chemical_formula_sum "Si O2"
_cell_formula_units_Z 120
_cell_length_a 14.510845
_cell_length_b 14.510845
_cell_length_c 25.333245
_cell_angle_alpha 90.000000
_cell_angle_beta 90.000000
_cell_angle_gamma 90.000000
_cell_volume 5334.285173
_symmetry_space_group_name_H-M "I 41/A C D"
_symmetry_group_IT_number 142
_space_group.IT_coordinate_system_code '2'
_symmetry_cell_setting 'tetragonal'
loop_
_space_group_symop_operation_xyz
x,y,z
1/4-y,3/4+x,1/4+z
-x,1/2-y,z
1/4+y,1/4-x,3/4+z
x,-y,1/2-z
1/2-x,y,-z
3/4+y,1/4+x,1/4-z
1/4-y,1/4-x,1/4-z
-x,-y,-z
3/4+y,1/4-x,3/4-z
x,1/2+y,-z
3/4-y,3/4+x,1/4-z
-x,y,1/2+z
1/2+x,-y,z
1/4-y,3/4-x,3/4+z
3/4+y,3/4+x,3/4+z
1/2+x,1/2+y,1/2+z
3/4-y,1/4+x,3/4+z
1/2-x,-y,1/2+z
3/4+y,3/4-x,1/4+z
1/2+x,1/2-y,-z
-x,1/2+y,1/2-z
1/4+y,3/4+x,3/4-z
3/4-y,3/4-x,3/4-z
1/2-x,1/2-y,1/2-z
1/4+y,3/4-x,1/4-z
1/2+x,y,1/2-z
1/4-y,1/4+x,3/4-z
1/2-x,1/2+y,z
x,1/2-y,1/2+z
3/4-y,1/4-x,1/4+z
1/4+y,1/4+x,1/4+z
loop_
_atom_site_type_symbol
_atom_site_label
_atom_site_fract_x
_atom_site_fract_y
_atom_site_fract_z
Si Si1 0.500000 0.250000 0.875000
Si Si2 0.953449 0.436302 0.938358
Si Si3 0.343775 0.453695 0.103016
Si Si4 0.884319 0.000000 0.250000
Si Si5 0.557089 0.862959 0.528782
O O1 0.417747 0.262227 0.833379
O O2 0.877395 0.409448 0.896324
O O3 0.918680 0.528595 0.967115
O O4 0.049796 0.463540 0.911325
O O5 0.983689 0.359848 0.981285
O O6 0.294406 0.544406 0.125000
O O7 0.285958 0.420388 0.051704
O O8 0.935458 0.094467 0.231934
#
# Coordination Sequence:
#
# PCOD9573727 Si02
#       5
#     8  32  32  16  32
#     4  12  24  40  68 102 148 168 240 304 350 408
#     4  10  23  41  64  96 134 179 233 280 360 427
#     4  11  22  41  67  96 136 180 231 293 350 426
#     4  10  20  42  72  88 134 188 228 280 358 416
#     4  10  22  41  64  97 132 181 226 295 346 429
#
# _framework density 22.495985000000001
#
# number of rings (size 3 to 8) (size 9 to 14) (size 15 to 20)
#    0.000    1.600    2.667    1.600    1.867    4.800 
#    0.000    1.333    0.000    0.000    0.000    0.000 
#    0.000    0.000    0.000    0.000    0.000    0.000 
#
# Total GULP energy -334864.679595 kJ/mol
# GULP energy per Si atom -5581.077993 kJ/mol
# Density = 2.244478 g / cm^3
# Si number density = 22.495985 Si / 1000 Ang^3
#
#
#
# Elastic Constant Matrix: (Units=GPa)
#
#
# Indices 1 2 3 4 5 6 
#
# 1 93.2861 40.3282 48.0775 0.0000 0.0000 0.0000
# 2 40.3282 93.2861 48.0775 0.0000 0.0000 0.0000
# 3 48.0775 48.0775 146.1053 0.0000 0.0000 0.0000
# 4 0.0000 0.0000 0.0000 10.4459 0.0000 0.0000
# 5 0.0000 0.0000 0.0000 0.0000 10.4459 0.0000
# 6 0.0000 0.0000 0.0000 0.0000 0.0000 19.9623
#
#
#
# Elastic Compliance Matrix: (Units=1/GPa)
#
#
# Indices 1 2 3 4 5 6 
#
# 1 0.014345 -0.004538 -0.003227 0.000000 0.000000 0.000000
# 2 -0.004538 0.014345 -0.003227 0.000000 0.000000 0.000000
# 3 -0.003227 -0.003227 0.008968 0.000000 0.000000 0.000000
# 4 0.000000 0.000000 0.000000 0.095731 0.000000 0.000000
# 5 0.000000 0.000000 0.000000 0.000000 0.095731 0.000000
# 6 0.000000 0.000000 0.000000 0.000000 0.000000 0.050094
#
#
# Mechanical properties :
#
#
# Convention : Reuss Voigt Hill
#
# Bulk Modulus (GPa) = 63.80264 67.29378 65.54821
# Shear Modulus (GPa) = 16.31735 21.25046 18.78391
#
# Velocity S-wave (km/s) = 2.69614 3.07682 2.89275
# Velocity P-wave (km/s) = 6.17378 6.52695 6.35282
#
# Compressibility (1/GPa) = 0.01567333
#
# Stress axis : x y z
#
# Youngs Moduli (GPa) = 69.71218 69.71218 111.50652
#
# Poissons Ratio (x) = 0.31637 0.35982
# Poissons Ratio (y) = 0.31637 0.35982
# Poissons Ratio (z) = 0.22496 0.22496
#
# Static dielectric constant tensor:
#      x y z
#    x 1.858090 0.000000 0.000000 
#    y 0.000000 1.858090 0.000000 
#    z 0.000000 0.000000 1.849280 
# 
# From -- ./inp_files/12306.got.cif
#   From: 2010.05.17/outbox.cif.g08.bks.cpg/sg142_7_cif.got.tgz:12306.got - 2010.05.20 13:39:18.
