data_PCOD9573347
_publ_section_title
;
Structure prediction by ZEFSAII (Michael W. Deem and Ramdas Pophale) SiO2 
 PCOD9573347
Probable space group: I 41/A M D
;
_chemical_formula_sum "Si O2"
_cell_formula_units_Z 84
_cell_length_a 22.315775
_cell_length_b 22.315775
_cell_length_c 7.407987
_cell_angle_alpha 90.000000
_cell_angle_beta 90.000000
_cell_angle_gamma 90.000000
_cell_volume 3689.131699
_symmetry_space_group_name_H-M "I 41/A M D"
_symmetry_group_IT_number 141
_space_group.IT_coordinate_system_code '2'
_symmetry_cell_setting 'tetragonal'
loop_
_space_group_symop_operation_xyz
x,y,z
1/4-y,3/4+x,1/4+z
-x,1/2-y,z
1/4+y,1/4-x,3/4+z
x,-y,-z
-x,1/2+y,-z
1/4+y,3/4+x,1/4-z
1/4-y,1/4-x,3/4-z
-x,-y,-z
3/4+y,1/4-x,3/4-z
x,1/2+y,-z
3/4-y,3/4+x,1/4-z
-x,y,z
x,1/2-y,z
3/4-y,1/4-x,3/4+z
3/4+y,3/4+x,1/4+z
1/2+x,1/2+y,1/2+z
3/4-y,1/4+x,3/4+z
1/2-x,-y,1/2+z
3/4+y,3/4-x,1/4+z
1/2+x,1/2-y,1/2-z
1/2-x,y,1/2-z
3/4+y,1/4+x,3/4-z
3/4-y,3/4-x,1/4-z
1/2-x,1/2-y,1/2-z
1/4+y,3/4-x,1/4-z
1/2+x,y,1/2-z
1/4-y,1/4+x,3/4-z
1/2-x,1/2+y,1/2+z
1/2+x,-y,1/2+z
1/4-y,3/4-x,1/4+z
1/4+y,1/4+x,3/4+z
loop_
_atom_site_type_symbol
_atom_site_label
_atom_site_fract_x
_atom_site_fract_y
_atom_site_fract_z
Si Si1 0.382534 0.750000 0.606718
Si Si2 0.868605 0.378246 0.565058
Si Si3 0.309105 0.940896 0.375000
Si Si4 0.000000 0.429451 0.026573
Si Si5 0.000000 0.250000 0.875000
O O1 0.376472 0.689553 0.716174
O O2 0.341968 0.750000 0.429716
O O3 0.445703 0.750000 0.509518
O O4 0.845642 0.404359 0.375000
O O5 0.858953 0.426337 0.724329
O O6 0.843069 0.312889 0.629785
O O7 0.250000 0.937541 0.250000
O O8 0.000000 0.500000 0.000000
#
# Coordination Sequence:
#
# PCOD9573347 Si02
#       5
#    16  32  16  16   4
#     4  12  21  42  72 105 147 194 246 311 391 451
#     4  12  26  46  77 112 149 197 254 320 391 466
#     4  12  29  52  74 105 146 196 256 311 370 456
#     4  12  23  46  72 105 157 201 249 314 384 455
#     4  12  16  36  74  92 148 202 236 316 370 436
#
# _framework density 22.769586
#
# number of rings (size 3 to 8) (size 9 to 14) (size 15 to 20)
#    0.000    0.000    7.619    2.286    2.667    0.000 
#    0.000    3.810    0.000    0.000    0.000    0.000 
#    0.000    0.000    0.000    0.000    0.000    0.000 
#
# Total GULP energy -234379.082625 kJ/mol
# GULP energy per Si atom -5580.454348 kJ/mol
# Density = 2.271776 g / cm^3
# Si number density = 22.769586 Si / 1000 Ang^3
#
#
#
# Elastic Constant Matrix: (Units=GPa)
#
#
# Indices 1 2 3 4 5 6 
#
# 1 155.2371 -9.8078 24.9969 0.0000 0.0000 0.0000
# 2 -9.8078 155.2191 24.9990 0.0000 0.0000 0.0000
# 3 24.9969 24.9990 163.5597 0.0000 0.0000 0.0000
# 4 0.0000 0.0000 0.0000 23.3535 0.0000 0.0000
# 5 0.0000 0.0000 0.0000 0.0000 23.3534 0.0000
# 6 0.0000 0.0000 0.0000 0.0000 0.0000 16.3401
#
#
#
# Elastic Compliance Matrix: (Units=1/GPa)
#
#
# Indices 1 2 3 4 5 6 
#
# 1 0.006658 0.000599 -0.001109 0.000000 0.000000 0.000000
# 2 0.000599 0.006659 -0.001109 0.000000 0.000000 0.000000
# 3 -0.001109 -0.001109 0.006453 0.000000 0.000000 0.000000
# 4 0.000000 0.000000 0.000000 0.042820 0.000000 0.000000
# 5 0.000000 0.000000 0.000000 0.000000 0.042820 0.000000
# 6 0.000000 0.000000 0.000000 0.000000 0.000000 0.061199
#
#
# Mechanical properties :
#
#
# Convention : Reuss Voigt Hill
#
# Bulk Modulus (GPa) = 60.48915 61.59913 61.04414
# Shear Modulus (GPa) = 28.51291 41.53124 35.02208
#
# Velocity S-wave (km/s) = 3.54253 4.27544 3.92613
# Velocity P-wave (km/s) = 6.58454 7.17527 6.88624
#
# Compressibility (1/GPa) = 0.01653189
#
# Stress axis : x y z
#
# Youngs Moduli (GPa) = 150.19005 150.17148 154.96530
#
# Poissons Ratio (x) = -0.09001 0.17189
# Poissons Ratio (y) = -0.09002 0.17192
# Poissons Ratio (z) = 0.16659 0.16660
#
# Static dielectric constant tensor:
#      x y z
#    x 1.786500 0.000000 0.000000 
#    y 0.000000 1.786500 0.000000 
#    z 0.000000 0.000000 1.478740 
# 
# From -- ./inp_files/2431.got.cif
#   From: 2010.05.17/outbox.cif.g08.bks.cpg/sg141_2_cif.got.tgz:2431.got - 2010.05.20 13:30:51.
