data_PCOD9573706
_publ_section_title
;
Structure prediction by ZEFSAII (Michael W. Deem and Ramdas Pophale) SiO2 
 PCOD9573706
Probable space group: I 41/A C D
;
_chemical_formula_sum "Si O2"
_cell_formula_units_Z 96
_cell_length_a 13.641154
_cell_length_b 13.641154
_cell_length_c 21.519826
_cell_angle_alpha 90.000000
_cell_angle_beta 90.000000
_cell_angle_gamma 90.000000
_cell_volume 4004.432516
_symmetry_space_group_name_H-M "I 41/A C D"
_symmetry_group_IT_number 142
_space_group.IT_coordinate_system_code '2'
_symmetry_cell_setting 'tetragonal'
loop_
_space_group_symop_operation_xyz
x,y,z
1/4-y,3/4+x,1/4+z
-x,1/2-y,z
1/4+y,1/4-x,3/4+z
x,-y,1/2-z
1/2-x,y,-z
3/4+y,1/4+x,1/4-z
1/4-y,1/4-x,1/4-z
-x,-y,-z
3/4+y,1/4-x,3/4-z
x,1/2+y,-z
3/4-y,3/4+x,1/4-z
-x,y,1/2+z
1/2+x,-y,z
1/4-y,3/4-x,3/4+z
3/4+y,3/4+x,3/4+z
1/2+x,1/2+y,1/2+z
3/4-y,1/4+x,3/4+z
1/2-x,-y,1/2+z
3/4+y,3/4-x,1/4+z
1/2+x,1/2-y,-z
-x,1/2+y,1/2-z
1/4+y,3/4+x,3/4-z
3/4-y,3/4-x,3/4-z
1/2-x,1/2-y,1/2-z
1/4+y,3/4-x,1/4-z
1/2+x,y,1/2-z
1/4-y,1/4+x,3/4-z
1/2-x,1/2+y,z
x,1/2-y,1/2+z
3/4-y,1/4-x,1/4+z
1/4+y,1/4+x,1/4+z
loop_
_atom_site_type_symbol
_atom_site_label
_atom_site_fract_x
_atom_site_fract_y
_atom_site_fract_z
Si Si1 0.045302 0.940937 0.409915
Si Si2 0.324195 0.074195 0.375000
Si Si3 0.750000 0.398021 0.500000
Si Si4 0.543814 0.851414 0.465141
O O1 0.127166 0.877166 0.375000
O O2 0.940670 0.938812 0.375938
O O3 0.022644 0.891702 0.477538
O O4 0.060360 0.056900 0.419468
O O5 0.277362 0.037736 0.439274
O O6 0.653774 0.334439 0.511002
O O7 0.500000 0.750000 0.442507
#
# Coordination Sequence:
#
# PCOD9573706 Si02
#       4
#    32  16  16  32
#     4  10  20  40  73 100 140 200 254 319 396 473
#     4  10  21  42  66 102 140 197 250 316 389 468
#     4  10  22  42  70 100 150 194 244 314 396 470
#     4  10  22  42  67 108 145 194 257 318 397 477
#
# _framework density 23.973434000000001
#
# number of rings (size 3 to 8) (size 9 to 14) (size 15 to 20)
#    0.000    2.000    0.000    4.500    2.333    0.000 
#    6.000   20.000    0.000    0.000    0.000    0.000 
#    0.000    0.000    0.000    0.000    0.000    0.000 
#
# Total GULP energy -268193.718533 kJ/mol
# GULP energy per Si atom -5587.369136 kJ/mol
# Density = 2.391887 g / cm^3
# Si number density = 23.973434 Si / 1000 Ang^3
#
#
#
# Elastic Constant Matrix: (Units=GPa)
#
#
# Indices 1 2 3 4 5 6 
#
# 1 150.1684 84.7520 54.4471 0.0000 0.0000 0.0000
# 2 84.7520 150.1684 54.4471 0.0000 0.0000 0.0000
# 3 54.4471 54.4471 153.5992 0.0000 0.0000 0.0000
# 4 0.0000 0.0000 0.0000 29.3481 0.0000 0.0000
# 5 0.0000 0.0000 0.0000 0.0000 29.3481 0.0000
# 6 0.0000 0.0000 0.0000 0.0000 0.0000 25.5905
#
#
#
# Elastic Compliance Matrix: (Units=1/GPa)
#
#
# Indices 1 2 3 4 5 6 
#
# 1 0.010190 -0.005096 -0.001806 0.000000 0.000000 0.000000
# 2 -0.005096 0.010190 -0.001806 0.000000 0.000000 0.000000
# 3 -0.001806 -0.001806 0.007791 0.000000 0.000000 0.000000
# 4 0.000000 0.000000 0.000000 0.034074 0.000000 0.000000
# 5 0.000000 0.000000 0.000000 0.000000 0.034074 0.000000
# 6 0.000000 0.000000 0.000000 0.000000 0.000000 0.039077
#
#
# Mechanical properties :
#
#
# Convention : Reuss Voigt Hill
#
# Bulk Modulus (GPa) = 92.97496 93.46980 93.22238
# Shear Modulus (GPa) = 31.97011 34.20998 33.09005
#
# Velocity S-wave (km/s) = 3.65576 3.78166 3.71924
# Velocity P-wave (km/s) = 7.52902 7.62505 7.57719
#
# Compressibility (1/GPa) = 0.01075558
#
# Stress axis : x y z
#
# Youngs Moduli (GPa) = 98.13347 98.13347 128.36099
#
# Poissons Ratio (x) = 0.50014 0.23177
# Poissons Ratio (y) = 0.50014 0.23177
# Poissons Ratio (z) = 0.17719 0.17719
#
# Static dielectric constant tensor:
#      x y z
#    x 1.921350 0.000000 0.000000 
#    y 0.000000 1.921350 0.000000 
#    z 0.000000 0.000000 2.108620 
# 
# From -- ./inp_files/10939.got.cif
#   From: 2010.05.17/outbox.cif.g08.bks.cpg/sg142_6_cif.got.tgz:10939.got - 2010.05.20 13:39:18.
