data_PCOD9573051
_publ_section_title
;
Structure prediction by ZEFSAII (Michael W. Deem and Ramdas Pophale) SiO2 
 PCOD9573051
Probable space group: I 41/A M D
;
_chemical_formula_sum "Si O2"
_cell_formula_units_Z 160
_cell_length_a 19.899761
_cell_length_b 19.899761
_cell_length_c 19.446939
_cell_angle_alpha 90.000000
_cell_angle_beta 90.000000
_cell_angle_gamma 90.000000
_cell_volume 7700.997331
_symmetry_space_group_name_H-M "I 41/A M D"
_symmetry_group_IT_number 141
_space_group.IT_coordinate_system_code '2'
_symmetry_cell_setting 'tetragonal'
loop_
_space_group_symop_operation_xyz
x,y,z
1/4-y,3/4+x,1/4+z
-x,1/2-y,z
1/4+y,1/4-x,3/4+z
x,-y,-z
-x,1/2+y,-z
1/4+y,3/4+x,1/4-z
1/4-y,1/4-x,3/4-z
-x,-y,-z
3/4+y,1/4-x,3/4-z
x,1/2+y,-z
3/4-y,3/4+x,1/4-z
-x,y,z
x,1/2-y,z
3/4-y,1/4-x,3/4+z
3/4+y,3/4+x,1/4+z
1/2+x,1/2+y,1/2+z
3/4-y,1/4+x,3/4+z
1/2-x,-y,1/2+z
3/4+y,3/4-x,1/4+z
1/2+x,1/2-y,1/2-z
1/2-x,y,1/2-z
3/4+y,1/4+x,3/4-z
3/4-y,3/4-x,1/4-z
1/2-x,1/2-y,1/2-z
1/4+y,3/4-x,1/4-z
1/2+x,y,1/2-z
1/4-y,1/4+x,3/4-z
1/2-x,1/2+y,1/2+z
1/2+x,-y,1/2+z
1/4-y,3/4-x,1/4+z
1/4+y,1/4+x,3/4+z
loop_
_atom_site_type_symbol
_atom_site_label
_atom_site_fract_x
_atom_site_fract_y
_atom_site_fract_z
Si Si1 0.081440 0.112906 0.689568
Si Si2 0.080305 0.494226 0.576631
Si Si3 0.149720 0.435480 0.947542
Si Si4 0.000000 0.892129 0.882298
Si Si5 0.500000 0.036619 0.573575
Si Si6 0.074911 0.750000 0.512007
Si Si7 0.391694 0.141694 0.125000
O O1 0.101575 0.067047 0.624287
O O2 0.119958 0.084664 0.756405
O O3 0.112292 0.185640 0.672001
O O4 0.000000 0.114456 0.696566
O O5 0.109564 0.500000 0.500000
O O6 0.094521 0.564010 0.613679
O O7 0.000000 0.486520 0.570106
O O8 0.189702 0.439702 0.875000
O O9 0.071499 0.427326 0.923867
O O10 0.155619 0.500000 0.000000
O O11 0.000000 0.870104 0.803911
O O12 0.000000 0.972306 0.877931
O O13 0.500000 0.000000 0.500000
O O14 0.084713 0.814657 0.560059
O O15 0.000000 0.750000 0.484198
#
# Coordination Sequence:
#
# PCOD9573051 Si02
#       7
#    32  32  32  16  16  16  16
#     4  11  23  42  67 105 133 173 234 283 347 411
#     4  10  22  42  63  93 140 181 221 283 338 392
#     4  11  24  47  73  99 140 178 223 284 346 418
#     4  12  22  41  75  98 132 178 225 292 347 403
#     4  10  20  45  72  98 132 173 218 275 354 410
#     4  12  22  36  65 104 137 180 237 280 324 403
#     4  12  21  42  62  94 140 184 230 270 333 400
#
# _framework density 20.776530000000001
#
# number of rings (size 3 to 8) (size 9 to 14) (size 15 to 20)
#    0.000    1.000    6.000    2.100    1.400    3.200 
#    5.400    0.000    0.000    0.000    0.000    0.000 
#    0.000    0.000    0.000    0.000    0.000    0.000 
#
# Total GULP energy -446702.007116 kJ/mol
# GULP energy per Si atom -5583.775089 kJ/mol
# Density = 2.072924 g / cm^3
# Si number density = 20.776530 Si / 1000 Ang^3
#
#
#
# Elastic Constant Matrix: (Units=GPa)
#
#
# Indices 1 2 3 4 5 6 
#
# 1 69.7306 8.1721 29.5745 0.0000 0.0000 0.0000
# 2 8.1721 69.7306 29.5745 0.0000 0.0000 0.0000
# 3 29.5745 29.5745 132.4845 0.0000 0.0000 0.0000
# 4 0.0000 0.0000 0.0000 36.4623 0.0000 0.0000
# 5 0.0000 0.0000 0.0000 0.0000 36.4623 0.0000
# 6 0.0000 0.0000 0.0000 0.0000 0.0000 20.5340
#
#
#
# Elastic Compliance Matrix: (Units=1/GPa)
#
#
# Indices 1 2 3 4 5 6 
#
# 1 0.015850 -0.000394 -0.003450 0.000000 0.000000 0.000000
# 2 -0.000394 0.015850 -0.003450 0.000000 0.000000 0.000000
# 3 -0.003450 -0.003450 0.009088 0.000000 0.000000 0.000000
# 4 0.000000 0.000000 0.000000 0.027426 0.000000 0.000000
# 5 0.000000 0.000000 0.000000 0.000000 0.027426 0.000000
# 6 0.000000 0.000000 0.000000 0.000000 0.000000 0.048700
#
#
# Mechanical properties :
#
#
# Convention : Reuss Voigt Hill
#
# Bulk Modulus (GPa) = 38.16832 45.17643 41.67237
# Shear Modulus (GPa) = 29.82169 32.33336 31.07752
#
# Velocity S-wave (km/s) = 3.79272 3.94921 3.87175
# Velocity P-wave (km/s) = 6.13110 6.52581 6.33153
#
# Compressibility (1/GPa) = 0.02619974
#
# Stress axis : x y z
#
# Youngs Moduli (GPa) = 63.08965 63.08965 110.02959
#
# Poissons Ratio (x) = 0.02487 0.37963
# Poissons Ratio (y) = 0.02487 0.37963
# Poissons Ratio (z) = 0.21768 0.21768
#
# Static dielectric constant tensor:
#      x y z
#    x 1.729300 0.000000 0.000000 
#    y 0.000000 1.729300 0.000000 
#    z 0.000000 0.000000 1.669930 
# 
# From -- ./inp_files/8700.got.cif
#   From: 2010.05.17/outbox.cif.g08.bks.cpg/sg141_5_cif.got.tgz:8700.got - 2010.05.20 13:30:51.
