data_PCOD9573179
_publ_section_title
;
Structure prediction by ZEFSAII (Michael W. Deem and Ramdas Pophale) SiO2 
 PCOD9573179
Probable space group: I 41/A M D
;
_chemical_formula_sum "Si O2"
_cell_formula_units_Z 112
_cell_length_a 32.259922
_cell_length_b 32.259922
_cell_length_c 4.858535
_cell_angle_alpha 90.000000
_cell_angle_beta 90.000000
_cell_angle_gamma 90.000000
_cell_volume 5056.289849
_symmetry_space_group_name_H-M "I 41/A M D"
_symmetry_group_IT_number 141
_space_group.IT_coordinate_system_code '2'
_symmetry_cell_setting 'tetragonal'
loop_
_space_group_symop_operation_xyz
x,y,z
1/4-y,3/4+x,1/4+z
-x,1/2-y,z
1/4+y,1/4-x,3/4+z
x,-y,-z
-x,1/2+y,-z
1/4+y,3/4+x,1/4-z
1/4-y,1/4-x,3/4-z
-x,-y,-z
3/4+y,1/4-x,3/4-z
x,1/2+y,-z
3/4-y,3/4+x,1/4-z
-x,y,z
x,1/2-y,z
3/4-y,1/4-x,3/4+z
3/4+y,3/4+x,1/4+z
1/2+x,1/2+y,1/2+z
3/4-y,1/4+x,3/4+z
1/2-x,-y,1/2+z
3/4+y,3/4-x,1/4+z
1/2+x,1/2-y,1/2-z
1/2-x,y,1/2-z
3/4+y,1/4+x,3/4-z
3/4-y,3/4-x,1/4-z
1/2-x,1/2-y,1/2-z
1/4+y,3/4-x,1/4-z
1/2+x,y,1/2-z
1/4-y,1/4+x,3/4-z
1/2-x,1/2+y,1/2+z
1/2+x,-y,1/2+z
1/4-y,3/4-x,1/4+z
1/4+y,1/4+x,3/4+z
loop_
_atom_site_type_symbol
_atom_site_label
_atom_site_fract_x
_atom_site_fract_y
_atom_site_fract_z
Si Si1 0.933565 0.250000 0.294299
Si Si2 0.386591 0.459178 0.197270
Si Si3 0.911897 0.091838 0.814876
Si Si4 0.704781 0.545220 0.875000
Si Si5 0.118769 0.250000 0.799894
O O1 0.959986 0.209986 0.375000
O O2 0.892064 0.250000 0.477832
O O3 0.923702 0.250000 0.973659
O O4 0.408687 0.448394 0.483009
O O5 0.338309 0.454070 0.287807
O O6 0.390275 0.500000 0.000000
O O7 0.401652 0.423277 0.991361
O O8 0.877971 0.127971 0.875000
O O9 0.957928 0.108783 0.860514
O O10 0.750000 0.546744 0.750000
#
# Coordination Sequence:
#
# PCOD9573179 Si02
#       5
#    16  32  32  16  16
#     4  11  22  40  64  98 133 164 204 278 359 414
#     4  11  24  44  66  97 133 176 220 272 328 389
#     4  12  23  44  66  94 130 176 222 274 332 390
#     4  10  22  38  64 102 138 172 213 262 332 404
#     4  12  26  41  67  98 130 176 228 272 322 399
#
# _framework density 22.150627
#
# number of rings (size 3 to 8) (size 9 to 14) (size 15 to 20)
#    0.000    0.714    2.857    5.143    0.000    5.714 
#    0.000    4.286    0.000    0.000    0.000    0.000 
#    0.000    0.000    0.000    0.000    0.000    0.000 
#
# Total GULP energy -312443.302982 kJ/mol
# GULP energy per Si atom -5579.344696 kJ/mol
# Density = 2.210021 g / cm^3
# Si number density = 22.150627 Si / 1000 Ang^3
#
#
#
# Elastic Constant Matrix: (Units=GPa)
#
#
# Indices 1 2 3 4 5 6 
#
# 1 96.5060 29.3886 9.0200 0.0000 0.0000 0.0000
# 2 29.3886 96.5061 9.0195 0.0000 0.0000 0.0000
# 3 9.0200 9.0195 94.2161 0.0000 0.0000 0.0000
# 4 0.0000 0.0000 0.0000 26.6569 0.0000 0.0000
# 5 0.0000 0.0000 0.0000 0.0000 26.6646 0.0000
# 6 0.0000 0.0000 0.0000 0.0000 0.0000 156.8922
#
#
#
# Elastic Compliance Matrix: (Units=1/GPa)
#
#
# Indices 1 2 3 4 5 6 
#
# 1 0.011476 -0.003423 -0.000771 0.000000 0.000000 0.000000
# 2 -0.003423 0.011476 -0.000771 0.000000 0.000000 0.000000
# 3 -0.000771 -0.000771 0.010762 0.000000 0.000000 0.000000
# 4 0.000000 0.000000 0.000000 0.037514 0.000000 0.000000
# 5 0.000000 0.000000 0.000000 0.000000 0.037503 0.000000
# 6 0.000000 0.000000 0.000000 0.000000 0.000000 0.006374
#
#
# Mechanical properties :
#
#
# Convention : Reuss Voigt Hill
#
# Bulk Modulus (GPa) = 42.04376 42.45381 42.24879
# Shear Modulus (GPa) = 37.60453 58.02943 47.81698
#
# Velocity S-wave (km/s) = 4.12475 5.12392 4.65124
# Velocity P-wave (km/s) = 6.45808 7.36299 6.92533
#
# Compressibility (1/GPa) = 0.02378474
#
# Stress axis : x y z
#
# Youngs Moduli (GPa) = 87.13499 87.13510 92.92361
#
# Poissons Ratio (x) = 0.29825 0.07165
# Poissons Ratio (y) = 0.29825 0.07164
# Poissons Ratio (z) = 0.06719 0.06718
#
# Static dielectric constant tensor:
#      x y z
#    x 2.091960 0.000000 0.000000 
#    y 0.000000 2.091560 0.000000 
#    z 0.000000 0.000000 1.759660 
# 
# From -- ./inp_files/1332.got.cif
#   From: 2010.05.17/outbox.cif.g08.bks.cpg/sg141_1_cif.got.tgz:1332.got - 2010.05.20 13:30:51.
