data_PCOD9573895
_publ_section_title
;
Structure prediction by ZEFSAII (Michael W. Deem and Ramdas Pophale) SiO2 
 PCOD9573895
Probable space group: I 41/A C D
;
_chemical_formula_sum "Si O2"
_cell_formula_units_Z 160
_cell_length_a 23.254904
_cell_length_b 23.254904
_cell_length_c 13.394119
_cell_angle_alpha 90.000000
_cell_angle_beta 90.000000
_cell_angle_gamma 90.000000
_cell_volume 7243.413115
_symmetry_space_group_name_H-M "I 41/A C D"
_symmetry_group_IT_number 142
_space_group.IT_coordinate_system_code '2'
_symmetry_cell_setting 'tetragonal'
loop_
_space_group_symop_operation_xyz
x,y,z
1/4-y,3/4+x,1/4+z
-x,1/2-y,z
1/4+y,1/4-x,3/4+z
x,-y,1/2-z
1/2-x,y,-z
3/4+y,1/4+x,1/4-z
1/4-y,1/4-x,1/4-z
-x,-y,-z
3/4+y,1/4-x,3/4-z
x,1/2+y,-z
3/4-y,3/4+x,1/4-z
-x,y,1/2+z
1/2+x,-y,z
1/4-y,3/4-x,3/4+z
3/4+y,3/4+x,3/4+z
1/2+x,1/2+y,1/2+z
3/4-y,1/4+x,3/4+z
1/2-x,-y,1/2+z
3/4+y,3/4-x,1/4+z
1/2+x,1/2-y,-z
-x,1/2+y,1/2-z
1/4+y,3/4+x,3/4-z
3/4-y,3/4-x,3/4-z
1/2-x,1/2-y,1/2-z
1/4+y,3/4-x,1/4-z
1/2+x,y,1/2-z
1/4-y,1/4+x,3/4-z
1/2-x,1/2+y,z
x,1/2-y,1/2+z
3/4-y,1/4-x,1/4+z
1/4+y,1/4+x,1/4+z
loop_
_atom_site_type_symbol
_atom_site_label
_atom_site_fract_x
_atom_site_fract_y
_atom_site_fract_z
Si Si1 0.029020 0.433400 0.234475
Si Si2 0.358053 0.108053 0.375000
Si Si3 0.250000 0.923086 0.500000
Si Si4 0.252869 0.610466 0.780608
Si Si5 0.654484 0.316760 0.827497
Si Si6 0.907837 0.736703 0.150146
O O1 0.044096 0.500000 0.250000
O O2 0.082357 0.401117 0.182352
O O3 0.013467 0.399499 0.334744
O O4 0.974301 0.427848 0.162879
O O5 0.307244 0.106512 0.291742
O O6 0.196596 0.965348 0.484364
O O7 0.235564 0.887432 0.600045
O O8 0.208345 0.662077 0.761275
O O9 0.621710 0.371710 0.875000
O O10 0.608966 0.282541 0.760690
O O11 0.939993 0.797416 0.143557
#
# Coordination Sequence:
#
# PCOD9573895 Si02
#       6
#    32  16  16  32  32  32
#     4  12  29  47  73 112 148 190 248 309 374 445
#     4  12  28  46  69 108 150 192 242 314 374 441
#     4  10  22  42  66 106 134 190 248 288 372 466
#     4  11  25  42  75 101 144 193 240 306 374 452
#     4  12  25  49  73 107 148 197 245 309 380 450
#     4  11  25  47  77 104 142 198 251 304 362 442
#
# _framework density 22.089034000000002
#
# number of rings (size 3 to 8) (size 9 to 14) (size 15 to 20)
#    0.000    0.600    4.000    3.600    8.400    4.800 
#    0.000    0.000    0.000    0.000    0.000    0.000 
#    0.000    0.000    0.000    0.000    0.000    0.000 
#
# Total GULP energy -447758.299856 kJ/mol
# GULP energy per Si atom -5596.978748 kJ/mol
# Density = 2.203876 g / cm^3
# Si number density = 22.089034 Si / 1000 Ang^3
#
#
#
# Elastic Constant Matrix: (Units=GPa)
#
#
# Indices 1 2 3 4 5 6 
#
# 1 113.9635 -3.9208 20.2961 0.0000 0.0000 0.0000
# 2 -3.9208 113.9635 20.2961 0.0000 0.0000 0.0000
# 3 20.2961 20.2961 78.0137 0.0000 0.0000 0.0000
# 4 0.0000 0.0000 0.0000 39.0667 0.0000 0.0000
# 5 0.0000 0.0000 0.0000 0.0000 39.0667 0.0000
# 6 0.0000 0.0000 0.0000 0.0000 0.0000 29.9935
#
#
#
# Elastic Compliance Matrix: (Units=1/GPa)
#
#
# Indices 1 2 3 4 5 6 
#
# 1 0.009267 0.000785 -0.002615 0.000000 0.000000 0.000000
# 2 0.000785 0.009267 -0.002615 0.000000 0.000000 0.000000
# 3 -0.002615 -0.002615 0.014179 0.000000 0.000000 0.000000
# 4 0.000000 0.000000 0.000000 0.025597 0.000000 0.000000
# 5 0.000000 0.000000 0.000000 0.000000 0.025597 0.000000
# 6 0.000000 0.000000 0.000000 0.000000 0.000000 0.033341
#
#
# Mechanical properties :
#
#
# Convention : Reuss Voigt Hill
#
# Bulk Modulus (GPa) = 41.97713 42.14259 42.05986
# Shear Modulus (GPa) = 37.29081 39.57665 38.43373
#
# Velocity S-wave (km/s) = 4.11323 4.23743 4.17579
# Velocity P-wave (km/s) = 6.45005 6.56208 6.50631
#
# Compressibility (1/GPa) = 0.02382250
#
# Stress axis : x y z
#
# Youngs Moduli (GPa) = 107.90430 107.90430 70.52695
#
# Poissons Ratio (x) = -0.08466 0.18444
# Poissons Ratio (y) = -0.08466 0.18444
# Poissons Ratio (z) = 0.28219 0.28219
#
# Static dielectric constant tensor:
#      x y z
#    x 1.789260 0.000000 0.000000 
#    y 0.000000 1.789260 0.000000 
#    z 0.000000 0.000000 1.894790 
# 
# From -- ./inp_files/3895.got.cif
#   From: 2010.05.17/outbox.cif.g08.bks.cpg/sg142_2_cif.got.tgz:3895.got - 2010.05.20 13:39:18.
