data_PCOD9573358
_publ_section_title
;
Structure prediction by ZEFSAII (Michael W. Deem and Ramdas Pophale) SiO2 
 PCOD9573358
Probable space group: I 41/A M D
;
_chemical_formula_sum "Si O2"
_cell_formula_units_Z 104
_cell_length_a 14.696866
_cell_length_b 14.696866
_cell_length_c 21.615433
_cell_angle_alpha 90.000000
_cell_angle_beta 90.000000
_cell_angle_gamma 90.000000
_cell_volume 4668.887492
_symmetry_space_group_name_H-M "I 41/A M D"
_symmetry_group_IT_number 141
_space_group.IT_coordinate_system_code '2'
_symmetry_cell_setting 'tetragonal'
loop_
_space_group_symop_operation_xyz
x,y,z
1/4-y,3/4+x,1/4+z
-x,1/2-y,z
1/4+y,1/4-x,3/4+z
x,-y,-z
-x,1/2+y,-z
1/4+y,3/4+x,1/4-z
1/4-y,1/4-x,3/4-z
-x,-y,-z
3/4+y,1/4-x,3/4-z
x,1/2+y,-z
3/4-y,3/4+x,1/4-z
-x,y,z
x,1/2-y,z
3/4-y,1/4-x,3/4+z
3/4+y,3/4+x,1/4+z
1/2+x,1/2+y,1/2+z
3/4-y,1/4+x,3/4+z
1/2-x,-y,1/2+z
3/4+y,3/4-x,1/4+z
1/2+x,1/2-y,1/2-z
1/2-x,y,1/2-z
3/4+y,1/4+x,3/4-z
3/4-y,3/4-x,1/4-z
1/2-x,1/2-y,1/2-z
1/4+y,3/4-x,1/4-z
1/2+x,y,1/2-z
1/4-y,1/4+x,3/4-z
1/2-x,1/2+y,1/2+z
1/2+x,-y,1/2+z
1/4-y,3/4-x,1/4+z
1/4+y,1/4+x,3/4+z
loop_
_atom_site_type_symbol
_atom_site_label
_atom_site_fract_x
_atom_site_fract_y
_atom_site_fract_z
Si Si1 0.603816 0.750000 0.496500
Si Si2 0.000000 0.250000 0.515036
Si Si3 0.704546 0.250000 0.919079
Si Si4 0.311182 0.561182 0.875000
Si Si5 0.314165 0.250000 0.191127
Si Si6 0.689813 0.883703 0.191953
O O1 0.500000 0.750000 0.466648
O O2 0.700566 0.750000 0.458454
O O3 0.609441 0.661825 0.539173
O O4 0.898910 0.250000 0.550253
O O5 0.000000 0.163820 0.470256
O O6 0.711144 0.164427 0.872792
O O7 0.298270 0.661862 0.849871
O O8 0.240010 0.546747 0.929853
O O9 0.250000 0.250000 0.250000
O O10 0.750000 0.854331 0.250000
#
# Coordination Sequence:
#
# PCOD9573358 Si02
#       6
#    16   8  16  16  16  32
#     4  12  26  47  73 101 151 185 242 301 362 436
#     4  12  24  45  72 102 142 175 238 292 346 434
#     4  12  25  45  72 104 135 194 233 292 366 416
#     4  12  24  43  72  98 143 178 230 290 356 422
#     4  12  24  42  67 104 131 180 223 279 352 419
#     4  12  25  48  67 104 138 187 237 296 352 428
#
# _framework density 22.275112
#
# number of rings (size 3 to 8) (size 9 to 14) (size 15 to 20)
#    0.000    0.000    1.538    9.692    0.000    0.000 
#    2.769    0.000    0.000    0.000    0.000    0.000 
#    0.000    0.000    0.000    0.000    0.000    0.000 
#
# Total GULP energy -290721.827048 kJ/mol
# GULP energy per Si atom -5590.804366 kJ/mol
# Density = 2.222441 g / cm^3
# Si number density = 22.275112 Si / 1000 Ang^3
#
#
#
# Elastic Constant Matrix: (Units=GPa)
#
#
# Indices 1 2 3 4 5 6 
#
# 1 158.6580 0.5421 33.4372 0.0000 0.0000 0.0000
# 2 0.5421 158.6580 33.4372 0.0000 0.0000 0.0000
# 3 33.4372 33.4372 80.1286 0.0000 0.0000 0.0000
# 4 0.0000 0.0000 0.0000 23.7734 0.0000 0.0000
# 5 0.0000 0.0000 0.0000 0.0000 23.7734 0.0000
# 6 0.0000 0.0000 0.0000 0.0000 0.0000 20.3722
#
#
#
# Elastic Compliance Matrix: (Units=1/GPa)
#
#
# Indices 1 2 3 4 5 6 
#
# 1 0.006970 0.000646 -0.003178 0.000000 0.000000 0.000000
# 2 0.000646 0.006970 -0.003178 0.000000 0.000000 0.000000
# 3 -0.003178 -0.003178 0.015133 0.000000 0.000000 0.000000
# 4 0.000000 0.000000 0.000000 0.042064 0.000000 0.000000
# 5 0.000000 0.000000 0.000000 0.000000 0.042064 0.000000
# 6 0.000000 0.000000 0.000000 0.000000 0.000000 0.049086
#
#
# Mechanical properties :
#
#
# Convention : Reuss Voigt Hill
#
# Bulk Modulus (GPa) = 56.64999 59.14194 57.89597
# Shear Modulus (GPa) = 27.84072 35.58566 31.71319
#
# Velocity S-wave (km/s) = 3.53917 4.00128 3.77730
# Velocity P-wave (km/s) = 6.49524 6.92497 6.71355
#
# Compressibility (1/GPa) = 0.01765225
#
# Stress axis : x y z
#
# Youngs Moduli (GPa) = 143.46189 143.46189 66.08275
#
# Poissons Ratio (x) = -0.09268 0.21003
# Poissons Ratio (y) = -0.09268 0.21003
# Poissons Ratio (z) = 0.45597 0.45597
#
# Static dielectric constant tensor:
#      x y z
#    x 1.836220 0.000000 0.000000 
#    y 0.000000 1.836220 0.000000 
#    z 0.000000 0.000000 1.753900 
# 
# From -- ./inp_files/11196.got.cif
#   From: 2010.05.17/outbox.cif.g08.bks.cpg/sg141_6_cif.got.tgz:11196.got - 2010.05.20 13:30:51.
