data_PCOD9573072
_publ_section_title
;
Structure prediction by ZEFSAII (Michael W. Deem and Ramdas Pophale) SiO2 
 PCOD9573072
Probable space group: I 41/A M D
;
_chemical_formula_sum "Si O2"
_cell_formula_units_Z 144
_cell_length_a 19.320887
_cell_length_b 19.320887
_cell_length_c 18.575603
_cell_angle_alpha 90.000000
_cell_angle_beta 90.000000
_cell_angle_gamma 90.000000
_cell_volume 6934.210826
_symmetry_space_group_name_H-M "I 41/A M D"
_symmetry_group_IT_number 141
_space_group.IT_coordinate_system_code '2'
_symmetry_cell_setting 'tetragonal'
loop_
_space_group_symop_operation_xyz
x,y,z
1/4-y,3/4+x,1/4+z
-x,1/2-y,z
1/4+y,1/4-x,3/4+z
x,-y,-z
-x,1/2+y,-z
1/4+y,3/4+x,1/4-z
1/4-y,1/4-x,3/4-z
-x,-y,-z
3/4+y,1/4-x,3/4-z
x,1/2+y,-z
3/4-y,3/4+x,1/4-z
-x,y,z
x,1/2-y,z
3/4-y,1/4-x,3/4+z
3/4+y,3/4+x,1/4+z
1/2+x,1/2+y,1/2+z
3/4-y,1/4+x,3/4+z
1/2-x,-y,1/2+z
3/4+y,3/4-x,1/4+z
1/2+x,1/2-y,1/2-z
1/2-x,y,1/2-z
3/4+y,1/4+x,3/4-z
3/4-y,3/4-x,1/4-z
1/2-x,1/2-y,1/2-z
1/4+y,3/4-x,1/4-z
1/2+x,y,1/2-z
1/4-y,1/4+x,3/4-z
1/2-x,1/2+y,1/2+z
1/2+x,-y,1/2+z
1/4-y,3/4-x,1/4+z
1/4+y,1/4+x,3/4+z
loop_
_atom_site_type_symbol
_atom_site_label
_atom_site_fract_x
_atom_site_fract_y
_atom_site_fract_z
Si Si1 0.075013 0.674988 0.125000
Si Si2 0.422677 0.130258 0.343454
Si Si3 0.078441 0.481715 0.575401
Si Si4 0.753112 0.668581 0.517414
Si Si5 0.167975 0.132395 0.750997
O O1 0.078101 0.750000 0.086645
O O2 0.137214 0.672475 0.181083
O O3 0.500000 0.161063 0.333459
O O4 0.351591 0.172249 0.332967
O O5 0.416651 0.103803 0.425481
O O6 0.416191 0.067565 0.286183
O O7 0.114588 0.500000 0.500000
O O8 0.105508 0.514097 0.649777
O O9 0.000000 0.508850 0.570658
O O10 0.731383 0.750000 0.520871
O O11 0.691300 0.620249 0.491383
O O12 0.250000 0.125848 0.750000
#
# Coordination Sequence:
#
# PCOD9573072 Si02
#       5
#    16  32  32  32  32
#     4  11  24  40  58  82 116 156 190 228 288 353
#     4  10  21  36  56  81 108 143 186 232 279 329
#     4   9  19  36  57  80 108 144 183 226 281 341
#     4   9  19  37  57  79 112 148 182 226 280 335
#     4  11  22  36  57  83 111 145 187 232 276 328
#
# _framework density 20.766603
#
# number of rings (size 3 to 8) (size 9 to 14) (size 15 to 20)
#    0.000    2.111    0.000    2.667    0.000    6.667 
#    0.000    4.444    0.000    0.000    0.000    6.222 
#    0.000    0.000    0.000    0.000    0.000    0.000 
#
# Total GULP energy -401312.244313 kJ/mol
# GULP energy per Si atom -5573.781171 kJ/mol
# Density = 2.071934 g / cm^3
# Si number density = 20.766603 Si / 1000 Ang^3
#
#
#
# Elastic Constant Matrix: (Units=GPa)
#
#
# Indices 1 2 3 4 5 6 
#
# 1 72.5735 19.0997 31.0734 0.0000 0.0000 0.0000
# 2 19.0997 72.5738 31.0725 0.0000 0.0000 0.0000
# 3 31.0734 31.0725 118.7101 0.0000 0.0000 0.0000
# 4 0.0000 0.0000 0.0000 26.0063 0.0000 0.0000
# 5 0.0000 0.0000 0.0000 0.0000 26.0075 0.0000
# 6 0.0000 0.0000 0.0000 0.0000 0.0000 16.3211
#
#
#
# Elastic Compliance Matrix: (Units=1/GPa)
#
#
# Indices 1 2 3 4 5 6 
#
# 1 0.015981 -0.002720 -0.003471 0.000000 0.000000 0.000000
# 2 -0.002720 0.015981 -0.003471 0.000000 0.000000 0.000000
# 3 -0.003471 -0.003471 0.010241 0.000000 0.000000 0.000000
# 4 0.000000 0.000000 0.000000 0.038452 0.000000 0.000000
# 5 0.000000 0.000000 0.000000 0.000000 0.038451 0.000000
# 6 0.000000 0.000000 0.000000 0.000000 0.000000 0.061270
#
#
# Mechanical properties :
#
#
# Convention : Reuss Voigt Hill
#
# Bulk Modulus (GPa) = 43.70811 47.37207 45.54009
# Shear Modulus (GPa) = 24.11648 25.84109 24.97879
#
# Velocity S-wave (km/s) = 3.41150 3.53137 3.47195
# Velocity P-wave (km/s) = 6.05068 6.28400 6.16844
#
# Compressibility (1/GPa) = 0.02287905
#
# Stress axis : x y z
#
# Youngs Moduli (GPa) = 62.57355 62.57439 97.64556
#
# Poissons Ratio (x) = 0.17018 0.33896
# Poissons Ratio (y) = 0.17018 0.33894
# Poissons Ratio (z) = 0.21722 0.21721
#
# Static dielectric constant tensor:
#      x y z
#    x 1.741570 0.000000 0.000000 
#    y 0.000000 1.741570 0.000000 
#    z 0.000000 0.000000 1.797990 
# 
# From -- ./inp_files/8453.got.cif
#   From: 2010.05.17/outbox.cif.g08.bks.cpg/sg141_5_cif.got.tgz:8453.got - 2010.05.20 13:30:51.
