data_PCOD9573416
_publ_section_title
;
Structure prediction by ZEFSAII (Michael W. Deem and Ramdas Pophale) SiO2 
 PCOD9573416
Probable space group: I 41/A C D
;
_chemical_formula_sum "Si O2"
_cell_formula_units_Z 192
_cell_length_a 21.589432
_cell_length_b 21.589432
_cell_length_c 21.763967
_cell_angle_alpha 90.000000
_cell_angle_beta 90.000000
_cell_angle_gamma 90.000000
_cell_volume 10144.262805
_symmetry_space_group_name_H-M "I 41/A C D"
_symmetry_group_IT_number 142
_space_group.IT_coordinate_system_code '2'
_symmetry_cell_setting 'tetragonal'
loop_
_space_group_symop_operation_xyz
x,y,z
1/4-y,3/4+x,1/4+z
-x,1/2-y,z
1/4+y,1/4-x,3/4+z
x,-y,1/2-z
1/2-x,y,-z
3/4+y,1/4+x,1/4-z
1/4-y,1/4-x,1/4-z
-x,-y,-z
3/4+y,1/4-x,3/4-z
x,1/2+y,-z
3/4-y,3/4+x,1/4-z
-x,y,1/2+z
1/2+x,-y,z
1/4-y,3/4-x,3/4+z
3/4+y,3/4+x,3/4+z
1/2+x,1/2+y,1/2+z
3/4-y,1/4+x,3/4+z
1/2-x,-y,1/2+z
3/4+y,3/4-x,1/4+z
1/2+x,1/2-y,-z
-x,1/2+y,1/2-z
1/4+y,3/4+x,3/4-z
3/4-y,3/4-x,3/4-z
1/2-x,1/2-y,1/2-z
1/4+y,3/4-x,1/4-z
1/2+x,y,1/2-z
1/4-y,1/4+x,3/4-z
1/2-x,1/2+y,z
x,1/2-y,1/2+z
3/4-y,1/4-x,1/4+z
1/4+y,1/4+x,1/4+z
loop_
_atom_site_type_symbol
_atom_site_label
_atom_site_fract_x
_atom_site_fract_y
_atom_site_fract_z
Si Si1 0.789858 0.801199 0.903761
Si Si2 0.590590 0.204712 0.468942
Si Si3 0.750000 0.303357 0.500000
Si Si4 0.849576 0.759433 0.286567
Si Si5 0.935201 0.185201 0.125000
Si Si6 0.944916 0.383719 0.818757
Si Si7 0.450981 0.921255 0.907270
O O1 0.847679 0.829636 0.941822
O O2 0.775155 0.742059 0.946651
O O3 0.812605 0.778543 0.837471
O O4 0.723695 0.830936 0.885821
O O5 0.535848 0.156722 0.482745
O O6 0.571931 0.251983 0.414227
O O7 0.605389 0.250245 0.525765
O O8 0.690435 0.335108 0.529981
O O9 0.881246 0.814914 0.324970
O O10 0.813753 0.785517 0.228408
O O11 0.892679 0.336477 0.839407
O O12 0.982286 0.409780 0.876612
#
# Coordination Sequence:
#
# PCOD9573416 Si02
#       7
#    32  32  16  32  16  32  32
#     4   9  19  33  48  70 101 138 172 209 256 314
#     4  10  18  31  49  73 105 137 173 210 260 319
#     4   8  18  36  50  66 100 142 176 200 256 326
#     4  11  19  29  49  77 104 132 172 220 257 313
#     4  10  17  26  44  70 100 130 160 202 254 306
#     4  10  20  33  50  75 108 144 171 213 272 324
#     4  11  21  32  49  76 108 139 175 219 267 318
#
# _framework density 18.926953999999999
#
# number of rings (size 3 to 8) (size 9 to 14) (size 15 to 20)
#    0.000    2.000    1.667    4.500    0.000    1.667 
#    0.000    0.000    0.000    0.000    0.000   29.167 
#    0.000    0.000    0.000    0.000    0.000    0.000 
#
# Total GULP energy -534478.990162 kJ/mol
# GULP energy per Si atom -5567.489481 kJ/mol
# Density = 1.888388 g / cm^3
# Si number density = 18.926954 Si / 1000 Ang^3
#
#
#
# Elastic Constant Matrix: (Units=GPa)
#
#
# Indices 1 2 3 4 5 6 
#
# 1 49.0955 17.6044 11.7736 0.0000 0.0000 0.0000
# 2 17.6044 49.0955 11.7736 0.0000 0.0000 0.0000
# 3 11.7736 11.7736 67.6921 0.0000 0.0000 0.0000
# 4 0.0000 0.0000 0.0000 28.3217 0.0000 0.0000
# 5 0.0000 0.0000 0.0000 0.0000 28.3217 0.0000
# 6 0.0000 0.0000 0.0000 0.0000 0.0000 3.0164
#
#
#
# Elastic Compliance Matrix: (Units=1/GPa)
#
#
# Indices 1 2 3 4 5 6 
#
# 1 0.023864 -0.007891 -0.002778 0.000000 0.000000 0.000000
# 2 -0.007891 0.023864 -0.002778 0.000000 0.000000 0.000000
# 3 -0.002778 -0.002778 0.015739 0.000000 0.000000 0.000000
# 4 0.000000 0.000000 0.000000 0.035309 0.000000 0.000000
# 5 0.000000 0.000000 0.000000 0.000000 0.035309 0.000000
# 6 0.000000 0.000000 0.000000 0.000000 0.000000 0.331517
#
#
# Mechanical properties :
#
#
# Convention : Reuss Voigt Hill
#
# Bulk Modulus (GPa) = 27.34260 27.57626 27.45943
# Shear Modulus (GPa) = 9.90712 20.24739 15.07725
#
# Velocity S-wave (km/s) = 2.29036 3.27427 2.82548
# Velocity P-wave (km/s) = 4.63380 5.37550 5.01837
#
# Compressibility (1/GPa) = 0.03657297
#
# Stress axis : x y z
#
# Youngs Moduli (GPa) = 41.90377 41.90377 63.53567
#
# Poissons Ratio (x) = 0.33066 0.17652
# Poissons Ratio (y) = 0.33066 0.17652
# Poissons Ratio (z) = 0.11642 0.11642
#
# Static dielectric constant tensor:
#      x y z
#    x 1.711200 0.000000 0.000000 
#    y 0.000000 1.711200 0.000000 
#    z 0.000000 0.000000 1.706070 
# 
# From -- ./inp_files/10519.got.cif
#   From: 2010.05.17/outbox.cif.g08.bks.cpg/sg142_6_cif.got.tgz:10519.got - 2010.05.20 13:39:18.
