data_PCOD9573055
_publ_section_title
;
Structure prediction by ZEFSAII (Michael W. Deem and Ramdas Pophale) SiO2 
 PCOD9573055
Probable space group: I 41/A M D
;
_chemical_formula_sum "Si O2"
_cell_formula_units_Z 112
_cell_length_a 15.742603
_cell_length_b 15.742603
_cell_length_c 26.913836
_cell_angle_alpha 90.000000
_cell_angle_beta 90.000000
_cell_angle_gamma 90.000000
_cell_volume 6670.043844
_symmetry_space_group_name_H-M "I 41/A M D"
_symmetry_group_IT_number 141
_space_group.IT_coordinate_system_code '2'
_symmetry_cell_setting 'tetragonal'
loop_
_space_group_symop_operation_xyz
x,y,z
1/4-y,3/4+x,1/4+z
-x,1/2-y,z
1/4+y,1/4-x,3/4+z
x,-y,-z
-x,1/2+y,-z
1/4+y,3/4+x,1/4-z
1/4-y,1/4-x,3/4-z
-x,-y,-z
3/4+y,1/4-x,3/4-z
x,1/2+y,-z
3/4-y,3/4+x,1/4-z
-x,y,z
x,1/2-y,z
3/4-y,1/4-x,3/4+z
3/4+y,3/4+x,1/4+z
1/2+x,1/2+y,1/2+z
3/4-y,1/4+x,3/4+z
1/2-x,-y,1/2+z
3/4+y,3/4-x,1/4+z
1/2+x,1/2-y,1/2-z
1/2-x,y,1/2-z
3/4+y,1/4+x,3/4-z
3/4-y,3/4-x,1/4-z
1/2-x,1/2-y,1/2-z
1/4+y,3/4-x,1/4-z
1/2+x,y,1/2-z
1/4-y,1/4+x,3/4-z
1/2-x,1/2+y,1/2+z
1/2+x,-y,1/2+z
1/4-y,3/4-x,1/4+z
1/4+y,1/4+x,3/4+z
loop_
_atom_site_type_symbol
_atom_site_label
_atom_site_fract_x
_atom_site_fract_y
_atom_site_fract_z
Si Si1 0.746637 0.003364 0.125000
Si Si2 0.686426 0.652210 0.063694
Si Si3 0.147244 0.750000 0.693445
Si Si4 0.843812 0.750000 0.813151
Si Si5 0.688742 0.653268 0.944998
O O1 0.833123 0.011585 0.155670
O O2 0.736584 0.082189 0.086680
O O3 0.709599 0.750000 0.072557
O O4 0.587566 0.637434 0.078383
O O5 0.693971 0.635574 0.004289
O O6 0.151826 0.750000 0.753252
O O7 0.243983 0.750000 0.674289
O O8 0.103703 0.661223 0.680862
O O9 0.717356 0.750000 0.937035
#
# Coordination Sequence:
#
# PCOD9573055 Si02
#       5
#    16  32  16  16  32
#     4  12  22  32  57  81 104 138 184 224 254 316
#     4  10  21  37  53  73 105 144 180 220 268 313
#     4   9  15  29  47  68 107 147 176 195 247 306
#     4   9  15  29  51  70  99 145 176 207 245 314
#     4  10  21  33  49  76 113 147 173 210 259 313
#
# _framework density 16.791494
#
# number of rings (size 3 to 8) (size 9 to 14) (size 15 to 20)
#    0.000    2.000    2.857    1.714    4.000    3.429 
#    0.000    0.000    0.000    3.857    0.000    4.000 
#    0.000    0.000    0.000    0.000    0.000    0.000 
#
# Total GULP energy -312592.254181 kJ/mol
# GULP energy per Si atom -5582.004539 kJ/mol
# Density = 1.675328 g / cm^3
# Si number density = 16.791494 Si / 1000 Ang^3
#
#
#
# Elastic Constant Matrix: (Units=GPa)
#
#
# Indices 1 2 3 4 5 6 
#
# 1 90.3003 43.2394 57.2851 0.0000 0.0000 0.0000
# 2 43.2394 90.3015 57.2843 0.0000 0.0000 0.0000
# 3 57.2851 57.2843 97.2354 0.0000 0.0000 0.0000
# 4 0.0000 0.0000 0.0000 20.6821 0.0000 0.0000
# 5 0.0000 0.0000 0.0000 0.0000 20.6823 0.0000
# 6 0.0000 0.0000 0.0000 0.0000 0.0000 11.0126
#
#
#
# Elastic Compliance Matrix: (Units=1/GPa)
#
#
# Indices 1 2 3 4 5 6 
#
# 1 0.018195 -0.003054 -0.008921 0.000000 0.000000 0.000000
# 2 -0.003054 0.018195 -0.008920 0.000000 0.000000 0.000000
# 3 -0.008921 -0.008920 0.020795 0.000000 0.000000 0.000000
# 4 0.000000 0.000000 0.000000 0.048351 0.000000 0.000000
# 5 0.000000 0.000000 0.000000 0.000000 0.048351 0.000000
# 6 0.000000 0.000000 0.000000 0.000000 0.000000 0.090805
#
#
# Mechanical properties :
#
#
# Convention : Reuss Voigt Hill
#
# Bulk Modulus (GPa) = 64.95013 65.93940 65.44476
# Shear Modulus (GPa) = 17.14605 18.47731 17.81168
#
# Velocity S-wave (km/s) = 3.19896 3.32082 3.26046
# Velocity P-wave (km/s) = 7.23939 7.35245 7.29614
#
# Compressibility (1/GPa) = 0.01539643
#
# Stress axis : x y z
#
# Youngs Moduli (GPa) = 54.95866 54.96070 48.08860
#
# Poissons Ratio (x) = 0.16783 0.42898
# Poissons Ratio (y) = 0.16782 0.42896
# Poissons Ratio (z) = 0.49027 0.49026
#
# Static dielectric constant tensor:
#      x y z
#    x 1.566650 0.000000 0.000000 
#    y 0.000000 1.566650 0.000000 
#    z 0.000000 0.000000 1.598800 
# 
# From -- ./inp_files/12540.got.cif
#   From: 2010.05.17/outbox.cif.g08.bks.cpg/sg141_7_cif.got.tgz:12540.got - 2010.05.20 13:30:51.
