data_PCOD9573709
_publ_section_title
;
Structure prediction by ZEFSAII (Michael W. Deem and Ramdas Pophale) SiO2 
 PCOD9573709
Probable space group: I 41/A C D
;
_chemical_formula_sum "Si O2"
_cell_formula_units_Z 160
_cell_length_a 23.450582
_cell_length_b 23.450582
_cell_length_c 14.340847
_cell_angle_alpha 90.000000
_cell_angle_beta 90.000000
_cell_angle_gamma 90.000000
_cell_volume 7886.459067
_symmetry_space_group_name_H-M "I 41/A C D"
_symmetry_group_IT_number 142
_space_group.IT_coordinate_system_code '2'
_symmetry_cell_setting 'tetragonal'
loop_
_space_group_symop_operation_xyz
x,y,z
1/4-y,3/4+x,1/4+z
-x,1/2-y,z
1/4+y,1/4-x,3/4+z
x,-y,1/2-z
1/2-x,y,-z
3/4+y,1/4+x,1/4-z
1/4-y,1/4-x,1/4-z
-x,-y,-z
3/4+y,1/4-x,3/4-z
x,1/2+y,-z
3/4-y,3/4+x,1/4-z
-x,y,1/2+z
1/2+x,-y,z
1/4-y,3/4-x,3/4+z
3/4+y,3/4+x,3/4+z
1/2+x,1/2+y,1/2+z
3/4-y,1/4+x,3/4+z
1/2-x,-y,1/2+z
3/4+y,3/4-x,1/4+z
1/2+x,1/2-y,-z
-x,1/2+y,1/2-z
1/4+y,3/4+x,3/4-z
3/4-y,3/4-x,3/4-z
1/2-x,1/2-y,1/2-z
1/4+y,3/4-x,1/4-z
1/2+x,y,1/2-z
1/4-y,1/4+x,3/4-z
1/2-x,1/2+y,z
x,1/2-y,1/2+z
3/4-y,1/4-x,1/4+z
1/4+y,1/4+x,1/4+z
loop_
_atom_site_type_symbol
_atom_site_label
_atom_site_fract_x
_atom_site_fract_y
_atom_site_fract_z
Si Si1 0.961990 0.875389 0.573652
Si Si2 0.211938 0.375748 0.075982
Si Si3 0.450796 0.387003 0.417050
Si Si4 0.965196 0.377584 0.748887
Si Si5 0.068024 0.004208 0.487345
O O1 0.925651 0.822582 0.534283
O O2 0.022753 0.875815 0.518998
O O3 0.981739 0.879218 0.680278
O O4 0.925309 0.932348 0.553106
O O5 0.164324 0.414324 0.125000
O O6 0.181331 0.327012 0.013080
O O7 0.246582 0.348542 0.162600
O O8 0.250000 0.408488 0.000000
O O9 0.406344 0.343657 0.375000
O O10 0.506621 0.378196 0.353004
O O11 0.421926 0.449558 0.422339
O O12 0.000000 0.000000 0.500000
#
# Coordination Sequence:
#
# PCOD9573709 Si02
#       5
#    32  32  32  32  32
#     4  11  23  39  61  97 129 170 227 262 327 414
#     4  12  23  43  72  95 128 176 225 280 335 392
#     4  11  23  39  60  93 136 173 212 276 336 395
#     4  12  23  39  66  96 134 176 213 276 337 391
#     4  10  20  41  64  92 125 163 230 269 308 404
#
# _framework density 20.287938
#
# number of rings (size 3 to 8) (size 9 to 14) (size 15 to 20)
#    0.000    0.800    6.000    4.200    0.000    3.600 
#    0.000    1.000    0.000    0.000    0.000    0.000 
#    0.000    0.000    0.000    0.000    0.000    0.000 
#
# Total GULP energy -445826.013832 kJ/mol
# GULP energy per Si atom -5572.825173 kJ/mol
# Density = 2.024176 g / cm^3
# Si number density = 20.287938 Si / 1000 Ang^3
#
#
#
# Elastic Constant Matrix: (Units=GPa)
#
#
# Indices 1 2 3 4 5 6 
#
# 1 38.5754 17.5812 4.5547 0.0000 0.0000 0.0000
# 2 17.5812 38.5826 4.5575 0.0000 0.0000 0.0000
# 3 4.5547 4.5575 64.8040 0.0000 0.0000 0.0000
# 4 0.0000 0.0000 0.0000 31.8403 0.0000 0.0000
# 5 0.0000 0.0000 0.0000 0.0000 31.8404 0.0000
# 6 0.0000 0.0000 0.0000 0.0000 0.0000 8.2957
#
#
#
# Elastic Compliance Matrix: (Units=1/GPa)
#
#
# Indices 1 2 3 4 5 6 
#
# 1 0.032821 -0.014806 -0.001265 0.000000 0.000000 0.000000
# 2 -0.014806 0.032815 -0.001267 0.000000 0.000000 0.000000
# 3 -0.001265 -0.001267 0.015609 0.000000 0.000000 0.000000
# 4 0.000000 0.000000 0.000000 0.031407 0.000000 0.000000
# 5 0.000000 0.000000 0.000000 0.000000 0.031407 0.000000
# 6 0.000000 0.000000 0.000000 0.000000 0.000000 0.120545
#
#
# Mechanical properties :
#
#
# Convention : Reuss Voigt Hill
#
# Bulk Modulus (GPa) = 21.47432 21.70543 21.58988
# Shear Modulus (GPa) = 15.88292 22.07983 18.98138
#
# Velocity S-wave (km/s) = 2.80103 3.30255 3.06207
# Velocity P-wave (km/s) = 4.59007 5.02637 4.81317
#
# Compressibility (1/GPa) = 0.04656724
#
# Stress axis : x y z
#
# Youngs Moduli (GPa) = 30.46851 30.47390 64.06480
#
# Poissons Ratio (x) = 0.45120 0.08107
# Poissons Ratio (y) = 0.45112 0.08118
# Poissons Ratio (z) = 0.03856 0.03862
#
# Static dielectric constant tensor:
#      x y z
#    x 1.793240 0.000000 0.000000 
#    y 0.000000 1.793240 0.000000 
#    z 0.000000 0.000000 1.775100 
# 
# From -- ./inp_files/5415.got.cif
#   From: 2010.05.17/outbox.cif.g08.bks.cpg/sg142_3_cif.got.tgz:5415.got - 2010.05.20 13:39:18.
