data_PCOD9573397
_publ_section_title
;
Structure prediction by ZEFSAII (Michael W. Deem and Ramdas Pophale) SiO2 
 PCOD9573397
Probable space group: I 41/A C D
;
_chemical_formula_sum "Si O2"
_cell_formula_units_Z 144
_cell_length_a 15.712024
_cell_length_b 15.712024
_cell_length_c 27.230006
_cell_angle_alpha 90.000000
_cell_angle_beta 90.000000
_cell_angle_gamma 90.000000
_cell_volume 6722.208903
_symmetry_space_group_name_H-M "I 41/A C D"
_symmetry_group_IT_number 142
_space_group.IT_coordinate_system_code '2'
_symmetry_cell_setting 'tetragonal'
loop_
_space_group_symop_operation_xyz
x,y,z
1/4-y,3/4+x,1/4+z
-x,1/2-y,z
1/4+y,1/4-x,3/4+z
x,-y,1/2-z
1/2-x,y,-z
3/4+y,1/4+x,1/4-z
1/4-y,1/4-x,1/4-z
-x,-y,-z
3/4+y,1/4-x,3/4-z
x,1/2+y,-z
3/4-y,3/4+x,1/4-z
-x,y,1/2+z
1/2+x,-y,z
1/4-y,3/4-x,3/4+z
3/4+y,3/4+x,3/4+z
1/2+x,1/2+y,1/2+z
3/4-y,1/4+x,3/4+z
1/2-x,-y,1/2+z
3/4+y,3/4-x,1/4+z
1/2+x,1/2-y,-z
-x,1/2+y,1/2-z
1/4+y,3/4+x,3/4-z
3/4-y,3/4-x,3/4-z
1/2-x,1/2-y,1/2-z
1/4+y,3/4-x,1/4-z
1/2+x,y,1/2-z
1/4-y,1/4+x,3/4-z
1/2-x,1/2+y,z
x,1/2-y,1/2+z
3/4-y,1/4-x,1/4+z
1/4+y,1/4+x,1/4+z
loop_
_atom_site_type_symbol
_atom_site_label
_atom_site_fract_x
_atom_site_fract_y
_atom_site_fract_z
Si Si1 0.076745 0.673256 0.375000
Si Si2 0.217633 0.372217 0.780695
Si Si3 0.543238 0.433306 0.931309
Si Si4 0.303515 0.411642 0.625384
Si Si5 0.612894 0.520828 0.199447
O O1 0.096585 0.753017 0.339439
O O2 0.077765 0.590418 0.339013
O O3 0.177388 0.357707 0.727298
O O4 0.258653 0.284348 0.799625
O O5 0.153513 0.404429 0.822444
O O6 0.299059 0.434590 0.781598
O O7 0.589268 0.488057 0.889705
O O8 0.247938 0.497938 0.625000
O O9 0.369602 0.434439 0.668707
O O10 0.564219 0.500000 0.250000
#
# Coordination Sequence:
#
# PCOD9573397 Si02
#       5
#    16  32  32  32  32
#     4  10  20  34  51  88 118 147 190 230 304 342
#     4   9  18  30  52  86 109 143 188 235 296 330
#     4  10  18  32  54  82 115 150 182 241 291 347
#     4  10  18  30  53  84 108 143 195 243 279 336
#     4  10  15  28  51  80 114 136 186 248 277 325
#
# _framework density 21.421529
#
# number of rings (size 3 to 8) (size 9 to 14) (size 15 to 20)
#    0.000    2.222    7.778    0.000    0.000    0.000 
#    0.000    0.556    4.889    0.667   11.556    0.000 
#    0.000    0.000    0.000    0.000    0.000    0.000 
#
# Total GULP energy -401374.751355 kJ/mol
# GULP energy per Si atom -5574.649324 kJ/mol
# Density = 2.137277 g / cm^3
# Si number density = 21.421529 Si / 1000 Ang^3
#
#
#
# Elastic Constant Matrix: (Units=GPa)
#
#
# Indices 1 2 3 4 5 6 
#
# 1 44.2695 13.2499 41.3876 0.0000 0.0000 0.0000
# 2 13.2499 44.2684 41.3876 0.0000 0.0000 0.0000
# 3 41.3876 41.3876 152.3527 0.0000 0.0000 0.0000
# 4 0.0000 0.0000 0.0000 24.0663 0.0000 0.0000
# 5 0.0000 0.0000 0.0000 0.0000 24.0672 0.0000
# 6 0.0000 0.0000 0.0000 0.0000 0.0000 23.7479
#
#
#
# Elastic Compliance Matrix: (Units=1/GPa)
#
#
# Indices 1 2 3 4 5 6 
#
# 1 0.030391 -0.001847 -0.007754 0.000000 0.000000 0.000000
# 2 -0.001847 0.030392 -0.007755 0.000000 0.000000 0.000000
# 3 -0.007754 -0.007755 0.010777 0.000000 0.000000 0.000000
# 4 0.000000 0.000000 0.000000 0.041552 0.000000 0.000000
# 5 0.000000 0.000000 0.000000 0.000000 0.041550 0.000000
# 6 0.000000 0.000000 0.000000 0.000000 0.000000 0.042109
#
#
# Mechanical properties :
#
#
# Convention : Reuss Voigt Hill
#
# Bulk Modulus (GPa) = 27.13775 48.10454 37.62115
# Shear Modulus (GPa) = 20.51154 24.03398 22.27276
#
# Velocity S-wave (km/s) = 3.09774 3.35319 3.22799
# Velocity P-wave (km/s) = 5.04882 6.12346 5.61192
#
# Compressibility (1/GPa) = 0.03684904
#
# Stress axis : x y z
#
# Youngs Moduli (GPa) = 32.90438 32.90326 92.79196
#
# Poissons Ratio (x) = 0.06076 0.71954
# Poissons Ratio (y) = 0.06076 0.71956
# Poissons Ratio (z) = 0.25515 0.25515
#
# Static dielectric constant tensor:
#      x y z
#    x 1.805980 0.000000 0.000000 
#    y 0.000000 1.805980 0.000000 
#    z 0.000000 0.000000 1.882010 
# 
# From -- ./inp_files/10121.got.cif
#   From: 2010.05.17/outbox.cif.g08.bks.cpg/sg142_6_cif.got.tgz:10121.got - 2010.05.20 13:39:18.
