data_PCOD9573571
_publ_section_title
;
Structure prediction by ZEFSAII (Michael W. Deem and Ramdas Pophale) SiO2 
 PCOD9573571
Probable space group: I 41/A C D
;
_chemical_formula_sum "Si O2"
_cell_formula_units_Z 224
_cell_length_a 21.413796
_cell_length_b 21.413796
_cell_length_c 21.807266
_cell_angle_alpha 90.000000
_cell_angle_beta 90.000000
_cell_angle_gamma 90.000000
_cell_volume 9999.736198
_symmetry_space_group_name_H-M "I 41/A C D"
_symmetry_group_IT_number 142
_space_group.IT_coordinate_system_code '2'
_symmetry_cell_setting 'tetragonal'
loop_
_space_group_symop_operation_xyz
x,y,z
1/4-y,3/4+x,1/4+z
-x,1/2-y,z
1/4+y,1/4-x,3/4+z
x,-y,1/2-z
1/2-x,y,-z
3/4+y,1/4+x,1/4-z
1/4-y,1/4-x,1/4-z
-x,-y,-z
3/4+y,1/4-x,3/4-z
x,1/2+y,-z
3/4-y,3/4+x,1/4-z
-x,y,1/2+z
1/2+x,-y,z
1/4-y,3/4-x,3/4+z
3/4+y,3/4+x,3/4+z
1/2+x,1/2+y,1/2+z
3/4-y,1/4+x,3/4+z
1/2-x,-y,1/2+z
3/4+y,3/4-x,1/4+z
1/2+x,1/2-y,-z
-x,1/2+y,1/2-z
1/4+y,3/4+x,3/4-z
3/4-y,3/4-x,3/4-z
1/2-x,1/2-y,1/2-z
1/4+y,3/4-x,1/4-z
1/2+x,y,1/2-z
1/4-y,1/4+x,3/4-z
1/2-x,1/2+y,z
x,1/2-y,1/2+z
3/4-y,1/4-x,1/4+z
1/4+y,1/4+x,1/4+z
loop_
_atom_site_type_symbol
_atom_site_label
_atom_site_fract_x
_atom_site_fract_y
_atom_site_fract_z
Si Si1 0.738726 0.907986 0.880719
Si Si2 0.818721 0.855832 0.245945
Si Si3 0.400985 0.457681 0.810323
Si Si4 0.015773 0.114408 0.863508
Si Si5 0.733395 0.784498 0.071040
Si Si6 0.560147 0.291646 0.216202
Si Si7 0.794738 0.370547 0.325198
O O1 0.698020 0.887203 0.820252
O O2 0.573822 0.900506 0.907103
O O3 0.783143 0.850371 0.899424
O O4 0.687969 0.924619 0.933358
O O5 0.852417 0.905228 0.291026
O O6 0.870974 0.800584 0.246225
O O7 0.750505 0.843127 0.273564
O O8 0.408061 0.500000 0.750000
O O9 0.472595 0.440948 0.828691
O O10 0.375317 0.500697 0.864664
O O11 0.035057 0.138607 0.796500
O O12 0.982297 0.048694 0.854746
O O13 0.977100 0.166687 0.898209
O O14 0.750000 0.793563 0.000000
O O15 0.500000 0.250000 0.236274
O O16 0.781178 0.531178 0.375000
#
# Coordination Sequence:
#
# PCOD9573571 Si02
#       7
#    32  32  32  32  32  32  32
#     4  12  25  40  59  96 141 175 216 269 337 416
#     4  12  24  42  65  99 130 172 229 282 339 405
#     4  10  19  42  67  88 121 171 229 268 322 401
#     4  11  19  41  64  95 127 168 224 287 329 398
#     4  10  22  38  63  88 125 173 219 267 329 393
#     4  12  22  39  69  96 128 171 235 291 341 393
#     4  11  24  38  69  97 133 172 221 281 341 403
#
# _framework density 22.400590999999999
#
# number of rings (size 3 to 8) (size 9 to 14) (size 15 to 20)
#    0.000    0.857    5.714    3.000    2.000    0.571 
#    0.000    0.000    0.000    0.857    0.000    0.000 
#    0.000    0.000    0.000    0.000    0.000    0.000 
#
# Total GULP energy -624225.338548 kJ/mol
# GULP energy per Si atom -5573.440523 kJ/mol
# Density = 2.234961 g / cm^3
# Si number density = 22.400591 Si / 1000 Ang^3
#
#
#
# Elastic Constant Matrix: (Units=GPa)
#
#
# Indices 1 2 3 4 5 6 
#
# 1 89.1221 33.5088 5.6915 0.0000 0.0000 0.0000
# 2 33.5088 89.1221 5.6915 0.0000 0.0000 0.0000
# 3 5.6915 5.6915 31.9933 0.0000 0.0000 0.0000
# 4 0.0000 0.0000 0.0000 18.8376 0.0000 0.0000
# 5 0.0000 0.0000 0.0000 0.0000 18.8376 0.0000
# 6 0.0000 0.0000 0.0000 0.0000 0.0000 39.9809
#
#
#
# Elastic Compliance Matrix: (Units=1/GPa)
#
#
# Indices 1 2 3 4 5 6 
#
# 1 0.013136 -0.004845 -0.001475 0.000000 0.000000 0.000000
# 2 -0.004845 0.013136 -0.001475 0.000000 0.000000 0.000000
# 3 -0.001475 -0.001475 0.031781 0.000000 0.000000 0.000000
# 4 0.000000 0.000000 0.000000 0.053085 0.000000 0.000000
# 5 0.000000 0.000000 0.000000 0.000000 0.053085 0.000000
# 6 0.000000 0.000000 0.000000 0.000000 0.000000 0.025012
#
#
# Mechanical properties :
#
#
# Convention : Reuss Voigt Hill
#
# Bulk Modulus (GPa) = 23.54928 33.33570 28.44249
# Shear Modulus (GPa) = 22.83298 26.55426 24.69362
#
# Velocity S-wave (km/s) = 3.19612 3.44674 3.32379
# Velocity P-wave (km/s) = 4.91486 5.54562 5.23974
#
# Compressibility (1/GPa) = 0.04246414
#
# Stress axis : x y z
#
# Youngs Moduli (GPa) = 76.12442 76.12443 31.46503
#
# Poissons Ratio (x) = 0.36882 0.04641
# Poissons Ratio (y) = 0.36882 0.04641
# Poissons Ratio (z) = 0.11229 0.11229
#
# Static dielectric constant tensor:
#      x y z
#    x 1.905090 0.000000 0.000000 
#    y 0.000000 1.905090 0.000000 
#    z 0.000000 0.000000 1.868150 
# 
# From -- ./inp_files/10571.got.cif
#   From: 2010.05.17/outbox.cif.g08.bks.cpg/sg142_6_cif.got.tgz:10571.got - 2010.05.20 13:39:18.
