data_PCOD9573335
_publ_section_title
;
Structure prediction by ZEFSAII (Michael W. Deem and Ramdas Pophale) SiO2 
 PCOD9573335
Probable space group: I 41/A M D
;
_chemical_formula_sum "Si O2"
_cell_formula_units_Z 112
_cell_length_a 14.012019
_cell_length_b 14.012019
_cell_length_c 30.749426
_cell_angle_alpha 90.000000
_cell_angle_beta 90.000000
_cell_angle_gamma 90.000000
_cell_volume 6037.240104
_symmetry_space_group_name_H-M "I 41/A M D"
_symmetry_group_IT_number 141
_space_group.IT_coordinate_system_code '2'
_symmetry_cell_setting 'tetragonal'
loop_
_space_group_symop_operation_xyz
x,y,z
1/4-y,3/4+x,1/4+z
-x,1/2-y,z
1/4+y,1/4-x,3/4+z
x,-y,-z
-x,1/2+y,-z
1/4+y,3/4+x,1/4-z
1/4-y,1/4-x,3/4-z
-x,-y,-z
3/4+y,1/4-x,3/4-z
x,1/2+y,-z
3/4-y,3/4+x,1/4-z
-x,y,z
x,1/2-y,z
3/4-y,1/4-x,3/4+z
3/4+y,3/4+x,1/4+z
1/2+x,1/2+y,1/2+z
3/4-y,1/4+x,3/4+z
1/2-x,-y,1/2+z
3/4+y,3/4-x,1/4+z
1/2+x,1/2-y,1/2-z
1/2-x,y,1/2-z
3/4+y,1/4+x,3/4-z
3/4-y,3/4-x,1/4-z
1/2-x,1/2-y,1/2-z
1/4+y,3/4-x,1/4-z
1/2+x,y,1/2-z
1/4-y,1/4+x,3/4-z
1/2-x,1/2+y,1/2+z
1/2+x,-y,1/2+z
1/4-y,3/4-x,1/4+z
1/4+y,1/4+x,3/4+z
loop_
_atom_site_type_symbol
_atom_site_label
_atom_site_fract_x
_atom_site_fract_y
_atom_site_fract_z
Si Si1 0.890372 0.857226 0.841423
Si Si2 0.612239 0.862239 0.875000
Si Si3 0.794463 0.478945 0.452859
Si Si4 0.389960 0.140638 0.803591
O O1 0.854901 0.750000 0.829078
O O2 0.828726 0.942570 0.822106
O O3 0.887493 0.861121 0.893703
O O4 0.000000 0.863858 0.827608
O O5 0.630657 0.750000 0.876137
O O6 0.657885 0.904392 0.831089
O O7 0.839171 0.500000 0.500000
O O8 0.690545 0.433352 0.460739
O O9 0.500000 0.120344 0.790223
O O10 0.367318 0.250000 0.790681
#
# Coordination Sequence:
#
# PCOD9573335 Si02
#       4
#    32  16  32  32
#     4   9  18  34  56  80 110 153 203 247 291 354
#     4  11  24  42  62  88 128 169 202 250 316 377
#     4  12  23  35  59  90 122 158 205 253 306 364
#     4   9  18  36  61  83 110 154 202 245 296 360
#
# _framework density 18.551524000000001
#
# number of rings (size 3 to 8) (size 9 to 14) (size 15 to 20)
#    0.000    1.857    2.857    3.429    0.000    5.143 
#    0.000    2.857    0.000    0.857    0.000    4.000 
#    0.000    0.000    0.000    0.000    0.000    0.000 
#
# Total GULP energy -312049.425517 kJ/mol
# GULP energy per Si atom -5572.311170 kJ/mol
# Density = 1.850930 g / cm^3
# Si number density = 18.551524 Si / 1000 Ang^3
#
#
#
# Elastic Constant Matrix: (Units=GPa)
#
#
# Indices 1 2 3 4 5 6 
#
# 1 -54.8844 216.9746 31.7971 0.0000 0.0000 0.0000
# 2 216.9746 -54.8844 31.7971 0.0000 0.0000 0.0000
# 3 31.7971 31.7971 76.7516 0.0000 0.0000 0.0000
# 4 0.0000 0.0000 0.0000 -1.9461 0.0000 0.0000
# 5 0.0000 0.0000 0.0000 0.0000 -1.9461 0.0000
# 6 0.0000 0.0000 0.0000 0.0000 0.0000 36.6799
#
#
#
# Elastic Compliance Matrix: (Units=1/GPa)
#
#
# Indices 1 2 3 4 5 6 
#
# 1 0.001844 0.005523 -0.003052 0.000000 0.000000 0.000000
# 2 0.005523 0.001844 -0.003052 0.000000 0.000000 0.000000
# 3 -0.003052 -0.003052 0.015558 0.000000 0.000000 0.000000
# 4 0.000000 0.000000 0.000000 -0.513856 0.000000 0.000000
# 5 0.000000 0.000000 0.000000 0.000000 -0.513856 0.000000
# 6 0.000000 0.000000 0.000000 0.000000 0.000000 0.027263
#
#
# Mechanical properties :
#
#
# Convention : Reuss Voigt Hill
#
# Bulk Modulus (GPa) = 55.29881 58.68006 56.98943
# Shear Modulus (GPa) = -5.13340 -14.34818 -9.74079
#
# Velocity S-wave (km/s) = -1.66527 -2.78407 -2.29392
# Velocity P-wave (km/s) = 5.11620 4.62221 4.87546
#
# Compressibility (1/GPa) = 0.01808357
#
# Stress axis : x y z
#
# Youngs Moduli (GPa) = 542.23678 542.23681 64.27642
#
# Poissons Ratio (x) = -2.99455 0.19617
# Poissons Ratio (y) = -2.99455 0.19617
# Poissons Ratio (z) = 1.65488 1.65488
#
# Static dielectric constant tensor:
#      x y z
#    x 1.669590 0.000000 0.000000 
#    y 0.000000 1.669590 0.000000 
#    z 0.000000 0.000000 1.501460 
# 
# From -- ./inp_files/14049.got.cif
#   From: 2010.05.17/outbox.cif.g08.bks.cpg/sg141_8_cif.got.tgz:14049.got - 2010.05.20 13:30:51.
