data_PCOD9573634
_publ_section_title
;
Structure prediction by ZEFSAII (Michael W. Deem and Ramdas Pophale) SiO2 
 PCOD9573634
Probable space group: I 41/A C D
;
_chemical_formula_sum "Si O2"
_cell_formula_units_Z 240
_cell_length_a 20.895841
_cell_length_b 20.895841
_cell_length_c 29.839175
_cell_angle_alpha 90.000000
_cell_angle_beta 90.000000
_cell_angle_gamma 90.000000
_cell_volume 13028.863121
_symmetry_space_group_name_H-M "I 41/A C D"
_symmetry_group_IT_number 142
_space_group.IT_coordinate_system_code '2'
_symmetry_cell_setting 'tetragonal'
loop_
_space_group_symop_operation_xyz
x,y,z
1/4-y,3/4+x,1/4+z
-x,1/2-y,z
1/4+y,1/4-x,3/4+z
x,-y,1/2-z
1/2-x,y,-z
3/4+y,1/4+x,1/4-z
1/4-y,1/4-x,1/4-z
-x,-y,-z
3/4+y,1/4-x,3/4-z
x,1/2+y,-z
3/4-y,3/4+x,1/4-z
-x,y,1/2+z
1/2+x,-y,z
1/4-y,3/4-x,3/4+z
3/4+y,3/4+x,3/4+z
1/2+x,1/2+y,1/2+z
3/4-y,1/4+x,3/4+z
1/2-x,-y,1/2+z
3/4+y,3/4-x,1/4+z
1/2+x,1/2-y,-z
-x,1/2+y,1/2-z
1/4+y,3/4+x,3/4-z
3/4-y,3/4-x,3/4-z
1/2-x,1/2-y,1/2-z
1/4+y,3/4-x,1/4-z
1/2+x,y,1/2-z
1/4-y,1/4+x,3/4-z
1/2-x,1/2+y,z
x,1/2-y,1/2+z
3/4-y,1/4-x,1/4+z
1/4+y,1/4+x,1/4+z
loop_
_atom_site_type_symbol
_atom_site_label
_atom_site_fract_x
_atom_site_fract_y
_atom_site_fract_z
Si Si1 0.961785 0.350386 0.165891
Si Si2 0.042249 0.144128 0.441580
Si Si3 0.121975 0.452432 0.812833
Si Si4 0.664625 0.903382 0.034783
Si Si5 0.497024 0.984829 0.635677
Si Si6 0.148205 0.172889 0.370046
Si Si7 0.443232 0.005247 0.536094
Si Si8 0.500000 0.250000 0.761181
O O1 0.946654 0.303347 0.125000
O O2 0.893566 0.378815 0.181318
O O3 0.003400 0.411958 0.151831
O O4 0.988478 0.310509 0.207101
O O5 0.095394 0.174494 0.409232
O O6 0.073076 0.079801 0.460956
O O7 0.016605 0.190718 0.479485
O O8 0.980232 0.122012 0.413305
O O9 0.166501 0.515448 0.806166
O O10 0.116799 0.425497 0.762366
O O11 0.055995 0.479727 0.833246
O O12 0.144827 0.395309 0.844977
O O13 0.618640 0.962907 0.025494
O O14 0.558783 0.030530 0.635845
O O15 0.469293 0.984106 0.585005
O O16 0.500000 0.000000 0.500000
#
# Coordination Sequence:
#
# PCOD9573634 Si02
#       8
#    32  32  32  32  32  32  32  16
#     4  11  22  40  62  85 117 164 210 262 304 378
#     4  11  24  36  64  93 128 163 203 267 322 385
#     4  10  20  37  58  96 120 163 204 264 312 381
#     4  10  21  36  65  88 120 155 216 257 308 375
#     4  10  22  37  64  91 122 160 211 258 317 377
#     4  11  19  39  59  95 131 158 204 263 335 380
#     4  11  20  38  62  95 121 158 205 260 319 373
#     4  12  25  39  58  88 122 166 210 253 315 374
#
# _framework density 18.420641
#
# number of rings (size 3 to 8) (size 9 to 14) (size 15 to 20)
#    0.000    1.333    4.000    4.200    1.867    0.000 
#    0.000    0.000    5.867    0.000    0.000    0.000 
#    0.000    0.000    0.000    0.000    0.000    0.000 
#
# Total GULP energy -669757.890013 kJ/mol
# GULP energy per Si atom -5581.315750 kJ/mol
# Density = 1.837871 g / cm^3
# Si number density = 18.420641 Si / 1000 Ang^3
#
#
#
# Elastic Constant Matrix: (Units=GPa)
#
#
# Indices 1 2 3 4 5 6 
#
# 1 69.0960 50.4849 37.0296 0.0000 0.0000 0.0000
# 2 50.4849 69.0956 37.0289 0.0000 0.0000 0.0000
# 3 37.0296 37.0289 100.9088 0.0000 0.0000 0.0000
# 4 0.0000 0.0000 0.0000 14.3675 0.0000 0.0000
# 5 0.0000 0.0000 0.0000 0.0000 14.3684 0.0000
# 6 0.0000 0.0000 0.0000 0.0000 0.0000 28.9762
#
#
#
# Elastic Compliance Matrix: (Units=1/GPa)
#
#
# Indices 1 2 3 4 5 6 
#
# 1 0.032277 -0.021455 -0.003971 0.000000 0.000000 0.000000
# 2 -0.021455 0.032277 -0.003971 0.000000 0.000000 0.000000
# 3 -0.003971 -0.003971 0.012824 0.000000 0.000000 0.000000
# 4 0.000000 0.000000 0.000000 0.069602 0.000000 0.000000
# 5 0.000000 0.000000 0.000000 0.000000 0.069597 0.000000
# 6 0.000000 0.000000 0.000000 0.000000 0.000000 0.034511
#
#
# Mechanical properties :
#
#
# Convention : Reuss Voigt Hill
#
# Bulk Modulus (GPa) = 53.81084 54.24302 54.02693
# Shear Modulus (GPa) = 15.81890 19.17954 17.49922
#
# Velocity S-wave (km/s) = 2.93364 3.23026 3.08552
# Velocity P-wave (km/s) = 6.38362 6.58966 6.48746
#
# Compressibility (1/GPa) = 0.01858361
#
# Stress axis : x y z
#
# Youngs Moduli (GPa) = 30.98183 30.98187 77.97591
#
# Poissons Ratio (x) = 0.66471 0.30967
# Poissons Ratio (y) = 0.66471 0.30965
# Poissons Ratio (z) = 0.12304 0.12303
#
# Static dielectric constant tensor:
#      x y z
#    x 1.654780 0.000000 0.000000 
#    y 0.000000 1.654780 0.000000 
#    z 0.000000 0.000000 1.651170 
# 
# From -- ./inp_files/11687.got.cif
#   From: 2010.05.17/outbox.cif.g08.bks.cpg/sg142_6_cif.got.tgz:11687.got - 2010.05.20 13:39:18.
