data_PCOD9573336
_publ_section_title
;
Structure prediction by ZEFSAII (Michael W. Deem and Ramdas Pophale) SiO2 
 PCOD9573336
Probable space group: I 41/A M D
;
_chemical_formula_sum "Si O2"
_cell_formula_units_Z 128
_cell_length_a 20.137333
_cell_length_b 20.137333
_cell_length_c 11.865305
_cell_angle_alpha 90.000000
_cell_angle_beta 90.000000
_cell_angle_gamma 90.000000
_cell_volume 4811.525701
_symmetry_space_group_name_H-M "I 41/A M D"
_symmetry_group_IT_number 141
_space_group.IT_coordinate_system_code '2'
_symmetry_cell_setting 'tetragonal'
loop_
_space_group_symop_operation_xyz
x,y,z
1/4-y,3/4+x,1/4+z
-x,1/2-y,z
1/4+y,1/4-x,3/4+z
x,-y,-z
-x,1/2+y,-z
1/4+y,3/4+x,1/4-z
1/4-y,1/4-x,3/4-z
-x,-y,-z
3/4+y,1/4-x,3/4-z
x,1/2+y,-z
3/4-y,3/4+x,1/4-z
-x,y,z
x,1/2-y,z
3/4-y,1/4-x,3/4+z
3/4+y,3/4+x,1/4+z
1/2+x,1/2+y,1/2+z
3/4-y,1/4+x,3/4+z
1/2-x,-y,1/2+z
3/4+y,3/4-x,1/4+z
1/2+x,1/2-y,1/2-z
1/2-x,y,1/2-z
3/4+y,1/4+x,3/4-z
3/4-y,3/4-x,1/4-z
1/2-x,1/2-y,1/2-z
1/4+y,3/4-x,1/4-z
1/2+x,y,1/2-z
1/4-y,1/4+x,3/4-z
1/2-x,1/2+y,1/2+z
1/2+x,-y,1/2+z
1/4-y,3/4-x,1/4+z
1/4+y,1/4+x,3/4+z
loop_
_atom_site_type_symbol
_atom_site_label
_atom_site_fract_x
_atom_site_fract_y
_atom_site_fract_z
Si Si1 0.305144 0.678773 0.154562
Si Si2 0.831388 0.324578 0.319782
Si Si3 0.425303 0.887348 0.195469
Si Si4 0.247611 0.918937 0.518077
O O1 0.292756 0.750000 0.097230
O O2 0.250000 0.672921 0.250000
O O3 0.380604 0.678072 0.197149
O O4 0.299322 0.613270 0.076985
O O5 0.900546 0.349455 0.375000
O O6 0.812027 0.250000 0.355805
O O7 0.658666 0.319210 0.313638
O O8 0.780438 0.381124 0.367959
O O9 0.500000 0.884720 0.240488
O O10 0.374591 0.937288 0.256885
O O11 0.253801 0.000000 0.500000
#
# Coordination Sequence:
#
# PCOD9573336 Si02
#       4
#    32  32  32  32
#     4  11  26  47  71 105 151 200 251 313 383 457
#     4  11  24  43  69 106 151 194 243 309 388 460
#     4  11  25  44  72 105 144 196 252 318 390 457
#     4  12  27  44  70 105 149 198 254 315 379 453
#
# _framework density 26.602789000000001
#
# number of rings (size 3 to 8) (size 9 to 14) (size 15 to 20)
#    0.000    0.750    2.500    3.750    3.500    7.750 
#    0.000    2.500    0.000    0.000    0.000    3.500 
#    0.000    0.000    0.000    0.000    0.000    0.000 
#
# Total GULP energy -356848.482829 kJ/mol
# GULP energy per Si atom -5575.757544 kJ/mol
# Density = 2.654224 g / cm^3
# Si number density = 26.602789 Si / 1000 Ang^3
#
#
#
# Elastic Constant Matrix: (Units=GPa)
#
#
# Indices 1 2 3 4 5 6 
#
# 1 250.4460 59.9526 33.5865 0.0000 0.0000 0.0000
# 2 59.9526 250.4471 33.5865 0.0000 0.0000 0.0000
# 3 33.5865 33.5865 53.1314 0.0000 0.0000 0.0000
# 4 0.0000 0.0000 0.0000 13.2874 0.0000 0.0000
# 5 0.0000 0.0000 0.0000 0.0000 13.2881 0.0000
# 6 0.0000 0.0000 0.0000 0.0000 0.0000 13.2098
#
#
#
# Elastic Compliance Matrix: (Units=1/GPa)
#
#
# Indices 1 2 3 4 5 6 
#
# 1 0.004491 -0.000759 -0.002359 0.000000 0.000000 0.000000
# 2 -0.000759 0.004491 -0.002359 0.000000 0.000000 0.000000
# 3 -0.002359 -0.002359 0.021804 0.000000 0.000000 0.000000
# 4 0.000000 0.000000 0.000000 0.075259 0.000000 0.000000
# 5 0.000000 0.000000 0.000000 0.000000 0.075255 0.000000
# 6 0.000000 0.000000 0.000000 0.000000 0.000000 0.075701
#
#
# Mechanical properties :
#
#
# Convention : Reuss Voigt Hill
#
# Bulk Modulus (GPa) = 50.42516 89.80841 70.11679
# Shear Modulus (GPa) = 18.21055 36.41700 27.31378
#
# Velocity S-wave (km/s) = 2.61920 3.70390 3.20773
# Velocity P-wave (km/s) = 5.30499 7.21971 6.33510
#
# Compressibility (1/GPa) = 0.01983137
#
# Stress axis : x y z
#
# Youngs Moduli (GPa) = 222.67343 222.67461 45.86296
#
# Poissons Ratio (x) = 0.16893 0.10820
# Poissons Ratio (y) = 0.16893 0.10820
# Poissons Ratio (z) = 0.52535 0.52535
#
# Static dielectric constant tensor:
#      x y z
#    x 2.184810 0.000000 0.000000 
#    y 0.000000 2.184810 0.000000 
#    z 0.000000 0.000000 2.318680 
# 
# From -- ./inp_files/11482.got.cif
#   From: 2010.05.17/outbox.cif.g08.bks.cpg/sg141_6_cif.got.tgz:11482.got - 2010.05.20 13:30:51.
