data_PCOD9573555
_publ_section_title
;
Structure prediction by ZEFSAII (Michael W. Deem and Ramdas Pophale) SiO2 
 PCOD9573555
Probable space group: I 41/A C D
;
_chemical_formula_sum "Si O2"
_cell_formula_units_Z 160
_cell_length_a 18.872819
_cell_length_b 18.872819
_cell_length_c 23.469336
_cell_angle_alpha 90.000000
_cell_angle_beta 90.000000
_cell_angle_gamma 90.000000
_cell_volume 8359.385475
_symmetry_space_group_name_H-M "I 41/A C D"
_symmetry_group_IT_number 142
_space_group.IT_coordinate_system_code '2'
_symmetry_cell_setting 'tetragonal'
loop_
_space_group_symop_operation_xyz
x,y,z
1/4-y,3/4+x,1/4+z
-x,1/2-y,z
1/4+y,1/4-x,3/4+z
x,-y,1/2-z
1/2-x,y,-z
3/4+y,1/4+x,1/4-z
1/4-y,1/4-x,1/4-z
-x,-y,-z
3/4+y,1/4-x,3/4-z
x,1/2+y,-z
3/4-y,3/4+x,1/4-z
-x,y,1/2+z
1/2+x,-y,z
1/4-y,3/4-x,3/4+z
3/4+y,3/4+x,3/4+z
1/2+x,1/2+y,1/2+z
3/4-y,1/4+x,3/4+z
1/2-x,-y,1/2+z
3/4+y,3/4-x,1/4+z
1/2+x,1/2-y,-z
-x,1/2+y,1/2-z
1/4+y,3/4+x,3/4-z
3/4-y,3/4-x,3/4-z
1/2-x,1/2-y,1/2-z
1/4+y,3/4-x,1/4-z
1/2+x,y,1/2-z
1/4-y,1/4+x,3/4-z
1/2-x,1/2+y,z
x,1/2-y,1/2+z
3/4-y,1/4-x,1/4+z
1/4+y,1/4+x,1/4+z
loop_
_atom_site_type_symbol
_atom_site_label
_atom_site_fract_x
_atom_site_fract_y
_atom_site_fract_z
Si Si1 0.832982 0.220373 0.994800
Si Si2 0.669486 0.833276 0.896531
Si Si3 0.840501 0.813239 0.238961
Si Si4 0.669497 0.144707 0.429147
Si Si5 0.815744 0.155258 0.773646
O O1 0.845154 0.279540 0.042912
O O2 0.750000 0.199099 0.000000
O O3 0.844925 0.263339 0.935275
O O4 0.886176 0.155777 0.002896
O O5 0.668376 0.819841 0.829517
O O6 0.748796 0.856767 0.912002
O O7 0.617161 0.895472 0.918126
O O8 0.849222 0.729300 0.248340
O O9 0.768621 0.834902 0.272096
O O10 0.622320 0.127681 0.375000
O O11 0.653566 0.087380 0.477759
#
# Coordination Sequence:
#
# PCOD9573555 Si02
#       5
#    32  32  32  32  32
#     4   9  21  37  59  88 120 151 201 249 293 357
#     4  10  20  38  63  85 115 161 202 241 297 360
#     4  11  21  38  59  86 124 156 190 261 303 342
#     4  10  19  39  61  81 116 164 196 238 302 365
#     4  10  22  36  60  88 120 154 205 242 300 364
#
# _framework density 19.140162
#
# number of rings (size 3 to 8) (size 9 to 14) (size 15 to 20)
#    0.000    2.000    2.000    3.000    0.000    4.800 
#    0.000    6.000    0.000    0.000    0.000    0.000 
#    0.000    0.000    0.000    0.000    0.000    0.000 
#
# Total GULP energy -446458.426155 kJ/mol
# GULP energy per Si atom -5580.730327 kJ/mol
# Density = 1.909660 g / cm^3
# Si number density = 19.140162 Si / 1000 Ang^3
#
#
#
# Elastic Constant Matrix: (Units=GPa)
#
#
# Indices 1 2 3 4 5 6 
#
# 1 77.0264 67.2162 0.9216 0.0000 0.0000 0.0000
# 2 67.2162 77.0251 0.9224 0.0000 0.0000 0.0000
# 3 0.9216 0.9224 35.4771 0.0000 0.0000 0.0000
# 4 0.0000 0.0000 0.0000 16.7631 0.0000 0.0000
# 5 0.0000 0.0000 0.0000 0.0000 16.7655 0.0000
# 6 0.0000 0.0000 0.0000 0.0000 0.0000 25.7904
#
#
#
# Elastic Compliance Matrix: (Units=1/GPa)
#
#
# Indices 1 2 3 4 5 6 
#
# 1 0.054438 -0.047503 -0.000179 0.000000 0.000000 0.000000
# 2 -0.047503 0.054439 -0.000181 0.000000 0.000000 0.000000
# 3 -0.000179 -0.000181 0.028197 0.000000 0.000000 0.000000
# 4 0.000000 0.000000 0.000000 0.059655 0.000000 0.000000
# 5 0.000000 0.000000 0.000000 0.000000 0.059646 0.000000
# 6 0.000000 0.000000 0.000000 0.000000 0.000000 0.038774
#
#
# Mechanical properties :
#
#
# Convention : Reuss Voigt Hill
#
# Bulk Modulus (GPa) = 24.18625 36.40545 30.29585
# Shear Modulus (GPa) = 12.35610 19.89503 16.12557
#
# Velocity S-wave (km/s) = 2.54354 3.22753 2.90573
# Velocity P-wave (km/s) = 4.61410 5.74030 5.20773
#
# Compressibility (1/GPa) = 0.04134581
#
# Stress axis : x y z
#
# Youngs Moduli (GPa) = 18.36953 18.36919 35.46534
#
# Poissons Ratio (x) = 0.87260 0.00635
# Poissons Ratio (y) = 0.87261 0.00643
# Poissons Ratio (z) = 0.00329 0.00333
#
# Static dielectric constant tensor:
#      x y z
#    x 1.662040 0.000000 0.000000 
#    y 0.000000 1.662040 0.000000 
#    z 0.000000 0.000000 1.683090 
# 
# From -- ./inp_files/11273.got.cif
#   From: 2010.05.17/outbox.cif.g08.bks.cpg/sg142_6_cif.got.tgz:11273.got - 2010.05.20 13:39:18.
