data_PCOD9573013
_publ_section_title
;
Structure prediction by ZEFSAII (Michael W. Deem and Ramdas Pophale) SiO2 
 PCOD9573013
Probable space group: I 41/A M D
;
_chemical_formula_sum "Si O2"
_cell_formula_units_Z 136
_cell_length_a 22.678264
_cell_length_b 22.678264
_cell_length_c 13.214366
_cell_angle_alpha 90.000000
_cell_angle_beta 90.000000
_cell_angle_gamma 90.000000
_cell_volume 6796.196773
_symmetry_space_group_name_H-M "I 41/A M D"
_symmetry_group_IT_number 141
_space_group.IT_coordinate_system_code '2'
_symmetry_cell_setting 'tetragonal'
loop_
_space_group_symop_operation_xyz
x,y,z
1/4-y,3/4+x,1/4+z
-x,1/2-y,z
1/4+y,1/4-x,3/4+z
x,-y,-z
-x,1/2+y,-z
1/4+y,3/4+x,1/4-z
1/4-y,1/4-x,3/4-z
-x,-y,-z
3/4+y,1/4-x,3/4-z
x,1/2+y,-z
3/4-y,3/4+x,1/4-z
-x,y,z
x,1/2-y,z
3/4-y,1/4-x,3/4+z
3/4+y,3/4+x,1/4+z
1/2+x,1/2+y,1/2+z
3/4-y,1/4+x,3/4+z
1/2-x,-y,1/2+z
3/4+y,3/4-x,1/4+z
1/2+x,1/2-y,1/2-z
1/2-x,y,1/2-z
3/4+y,1/4+x,3/4-z
3/4-y,3/4-x,1/4-z
1/2-x,1/2-y,1/2-z
1/4+y,3/4-x,1/4-z
1/2+x,y,1/2-z
1/4-y,1/4+x,3/4-z
1/2-x,1/2+y,1/2+z
1/2+x,-y,1/2+z
1/4-y,3/4-x,1/4+z
1/4+y,1/4+x,3/4+z
loop_
_atom_site_type_symbol
_atom_site_label
_atom_site_fract_x
_atom_site_fract_y
_atom_site_fract_z
Si Si1 0.500000 0.250000 0.625000
Si Si2 0.500000 0.873613 0.256866
Si Si3 0.313650 0.750000 0.802325
Si Si4 0.000000 0.750000 0.625000
Si Si5 0.317387 0.250000 0.715624
Si Si6 0.397756 0.873485 0.595145
Si Si7 0.000000 0.370202 0.255321
Si Si8 0.366496 0.930038 0.983954
O O1 0.441520 0.250000 0.557387
O O2 0.500000 0.921254 0.346211
O O3 0.438862 0.876596 0.195657
O O4 0.250000 0.750000 0.750000
O O5 0.322075 0.750000 0.923848
O O6 0.338719 0.814001 0.772543
O O7 0.938452 0.750000 0.568929
O O8 0.250000 0.250000 0.750000
O O9 0.346530 0.189218 0.759262
O O10 0.444804 0.866398 0.683567
O O11 0.347817 0.907404 0.660317
O O12 0.338859 0.911142 0.875000
O O13 0.363696 0.000000 0.000000
#
# Coordination Sequence:
#
# PCOD9573013 Si02
#       8
#     4  16  16   4  16  32  16  32
#     4  12  16  38  68  88 118 148 200 266 308 396
#     4  12  21  41  66  94 123 166 210 260 327 390
#     4  10  20  37  60  84 129 167 207 255 305 371
#     4  12  20  26  52  84 134 156 168 246 296 380
#     4  11  25  42  63  91 125 161 211 269 320 378
#     4  11  22  39  63  90 124 163 205 258 317 378
#     4  11  19  33  55  90 124 157 201 244 319 376
#     4  11  23  41  63  93 128 171 214 260 312 377
#
# _framework density 20.011191
#
# number of rings (size 3 to 8) (size 9 to 14) (size 15 to 20)
#    0.000    0.941    4.706    3.529    0.000    1.882 
#    4.235    1.176    0.000    0.000    0.000    0.000 
#    0.000    0.000    0.000    0.000    0.000    0.000 
#
# Total GULP energy -378762.980332 kJ/mol
# GULP energy per Si atom -5570.043828 kJ/mol
# Density = 1.996564 g / cm^3
# Si number density = 20.011191 Si / 1000 Ang^3
#
#
#
# Elastic Constant Matrix: (Units=GPa)
#
#
# Indices 1 2 3 4 5 6 
#
# 1 92.7825 15.2968 45.4271 0.0000 0.0000 0.0000
# 2 15.2968 92.7811 45.4273 0.0000 0.0000 0.0000
# 3 45.4271 45.4273 140.0180 0.0000 0.0000 0.0000
# 4 0.0000 0.0000 0.0000 15.0530 0.0000 0.0000
# 5 0.0000 0.0000 0.0000 0.0000 15.0537 0.0000
# 6 0.0000 0.0000 0.0000 0.0000 0.0000 14.7539
#
#
#
# Elastic Compliance Matrix: (Units=1/GPa)
#
#
# Indices 1 2 3 4 5 6 
#
# 1 0.012814 -0.000092 -0.004128 0.000000 0.000000 0.000000
# 2 -0.000092 0.012814 -0.004128 0.000000 0.000000 0.000000
# 3 -0.004128 -0.004128 0.009820 0.000000 0.000000 0.000000
# 4 0.000000 0.000000 0.000000 0.066432 0.000000 0.000000
# 5 0.000000 0.000000 0.000000 0.000000 0.066429 0.000000
# 6 0.000000 0.000000 0.000000 0.000000 0.000000 0.067779
#
#
# Mechanical properties :
#
#
# Convention : Reuss Voigt Hill
#
# Bulk Modulus (GPa) = 53.32063 59.76488 56.54276
# Shear Modulus (GPa) = 19.30253 23.60080 21.45167
#
# Velocity S-wave (km/s) = 3.10915 3.43794 3.27767
# Velocity P-wave (km/s) = 6.29224 6.75942 6.53001
#
# Compressibility (1/GPa) = 0.01875447
#
# Stress axis : x y z
#
# Youngs Moduli (GPa) = 78.04021 78.03877 101.83037
#
# Poissons Ratio (x) = 0.00716 0.42031
# Poissons Ratio (y) = 0.00716 0.42032
# Poissons Ratio (z) = 0.32212 0.32212
#
# Static dielectric constant tensor:
#      x y z
#    x 1.634550 0.000000 0.000000 
#    y 0.000000 1.634560 0.000000 
#    z 0.000000 0.000000 1.787210 
# 
# From -- ./inp_files/4726.got.cif
#   From: 2010.05.17/outbox.cif.g08.bks.cpg/sg141_3_cif.got.tgz:4726.got - 2010.05.20 13:30:51.
