data_PCOD9573899
_publ_section_title
;
Structure prediction by ZEFSAII (Michael W. Deem and Ramdas Pophale) SiO2 
 PCOD9573899
Probable space group: I 41/A C D
;
_chemical_formula_sum "Si O2"
_cell_formula_units_Z 216
_cell_length_a 26.949949
_cell_length_b 26.949949
_cell_length_c 13.179572
_cell_angle_alpha 90.000000
_cell_angle_beta 90.000000
_cell_angle_gamma 90.000000
_cell_volume 9572.319863
_symmetry_space_group_name_H-M "I 41/A C D"
_symmetry_group_IT_number 142
_space_group.IT_coordinate_system_code '2'
_symmetry_cell_setting 'tetragonal'
loop_
_space_group_symop_operation_xyz
x,y,z
1/4-y,3/4+x,1/4+z
-x,1/2-y,z
1/4+y,1/4-x,3/4+z
x,-y,1/2-z
1/2-x,y,-z
3/4+y,1/4+x,1/4-z
1/4-y,1/4-x,1/4-z
-x,-y,-z
3/4+y,1/4-x,3/4-z
x,1/2+y,-z
3/4-y,3/4+x,1/4-z
-x,y,1/2+z
1/2+x,-y,z
1/4-y,3/4-x,3/4+z
3/4+y,3/4+x,3/4+z
1/2+x,1/2+y,1/2+z
3/4-y,1/4+x,3/4+z
1/2-x,-y,1/2+z
3/4+y,3/4-x,1/4+z
1/2+x,1/2-y,-z
-x,1/2+y,1/2-z
1/4+y,3/4+x,3/4-z
3/4-y,3/4-x,3/4-z
1/2-x,1/2-y,1/2-z
1/4+y,3/4-x,1/4-z
1/2+x,y,1/2-z
1/4-y,1/4+x,3/4-z
1/2-x,1/2+y,z
x,1/2-y,1/2+z
3/4-y,1/4-x,1/4+z
1/4+y,1/4+x,1/4+z
loop_
_atom_site_type_symbol
_atom_site_label
_atom_site_fract_x
_atom_site_fract_y
_atom_site_fract_z
Si Si1 0.591703 0.084322 0.760469
Si Si2 0.164693 0.822757 0.756979
Si Si3 0.246818 0.112748 0.186646
Si Si4 0.500000 0.750000 0.625000
Si Si5 0.371563 0.742165 0.396325
Si Si6 0.366377 0.383624 0.375000
Si Si7 0.720245 0.567810 0.906180
Si Si8 0.563176 0.817267 0.995361
O O1 0.572396 0.074070 0.873391
O O2 0.619234 0.137780 0.754103
O O3 0.544806 0.080769 0.687809
O O4 0.635906 0.051068 0.719703
O O5 0.213820 0.842668 0.699561
O O6 0.147211 0.773941 0.698453
O O7 0.193491 0.122812 0.135018
O O8 0.240769 0.091254 0.302252
O O9 0.277972 0.071292 0.126433
O O10 0.546723 0.736188 0.697331
O O11 0.416898 0.708012 0.361176
O O12 0.395208 0.775303 0.484458
O O13 0.387118 0.345897 0.288052
O O14 0.750000 0.542340 0.000000
#
# Coordination Sequence:
#
# PCOD9573899 Si02
#       8
#    32  32  32   8  32  16  32  32
#     4  10  22  42  67  99 141 184 234 304 353 418
#     4  10  23  43  69 100 138 190 240 290 360 438
#     4  11  25  45  72 103 144 184 231 294 364 438
#     4  10  24  38  68 100 132 180 232 278 358 424
#     4  12  23  43  70 100 139 187 240 290 366 417
#     4  11  28  47  68 104 157 184 220 308 381 411
#     4  11  22  44  71 105 134 178 246 297 346 422
#     4  11  25  44  69 107 142 184 237 306 347 431
#
# _framework density 22.565064
#
# number of rings (size 3 to 8) (size 9 to 14) (size 15 to 20)
#    0.000    1.185    2.963    2.222    8.296    0.000 
#    0.000    4.444    0.000    0.000    0.000    0.000 
#    0.000    0.000    0.000    0.000    0.000    0.000 
#
# Total GULP energy -601386.974134 kJ/mol
# GULP energy per Si atom -5568.397909 kJ/mol
# Density = 2.251370 g / cm^3
# Si number density = 22.565064 Si / 1000 Ang^3
#
#
#
# Elastic Constant Matrix: (Units=GPa)
#
#
# Indices 1 2 3 4 5 6 
#
# 1 102.3711 45.8234 24.2206 0.0000 0.0000 0.0000
# 2 45.8234 102.3736 24.2212 0.0000 0.0000 0.0000
# 3 24.2206 24.2212 47.3473 0.0000 0.0000 0.0000
# 4 0.0000 0.0000 0.0000 -10.2504 0.0000 0.0000
# 5 0.0000 0.0000 0.0000 0.0000 -10.2243 0.0000
# 6 0.0000 0.0000 0.0000 0.0000 0.0000 80.7456
#
#
#
# Elastic Compliance Matrix: (Units=1/GPa)
#
#
# Indices 1 2 3 4 5 6 
#
# 1 0.012893 -0.004791 -0.004145 0.000000 0.000000 0.000000
# 2 -0.004791 0.012893 -0.004145 0.000000 0.000000 0.000000
# 3 -0.004145 -0.004145 0.025361 0.000000 0.000000 0.000000
# 4 0.000000 0.000000 0.000000 -0.097557 0.000000 0.000000
# 5 0.000000 0.000000 0.000000 0.000000 -0.097807 0.000000
# 6 0.000000 0.000000 0.000000 0.000000 0.000000 0.012385
#
#
# Mechanical properties :
#
#
# Convention : Reuss Voigt Hill
#
# Bulk Modulus (GPa) = 40.02117 48.95803 44.48960
# Shear Modulus (GPa) = -51.36598 22.57595 -14.39502
#
# Velocity S-wave (km/s) = -4.77629 3.16647 -2.52848
# Velocity P-wave (km/s) = 3.55567 5.92556 3.35182
#
# Compressibility (1/GPa) = 0.02498677
#
# Stress axis : x y z
#
# Youngs Moduli (GPa) = 77.55906 77.56059 39.43002
#
# Poissons Ratio (x) = 0.37156 0.16344
# Poissons Ratio (y) = 0.37155 0.16344
# Poissons Ratio (z) = 0.32148 0.32150
#
# Static dielectric constant tensor:
#      x y z
#    x 1.850300 0.000000 0.000000 
#    y 0.000000 1.850300 0.000000 
#    z 0.000000 0.000000 1.924810 
# 
# From -- ./inp_files/5792.got.cif
#   From: 2010.05.17/outbox.cif.g08.bks.cpg/sg142_3_cif.got.tgz:5792.got - 2010.05.20 13:39:18.
