data_PCOD9573631
_publ_section_title
;
Structure prediction by ZEFSAII (Michael W. Deem and Ramdas Pophale) SiO2 
 PCOD9573631
Probable space group: I 41/A C D
;
_chemical_formula_sum "Si O2"
_cell_formula_units_Z 136
_cell_length_a 17.571272
_cell_length_b 17.571272
_cell_length_c 19.308442
_cell_angle_alpha 90.000000
_cell_angle_beta 90.000000
_cell_angle_gamma 90.000000
_cell_volume 5961.473738
_symmetry_space_group_name_H-M "I 41/A C D"
_symmetry_group_IT_number 142
_space_group.IT_coordinate_system_code '2'
_symmetry_cell_setting 'tetragonal'
loop_
_space_group_symop_operation_xyz
x,y,z
1/4-y,3/4+x,1/4+z
-x,1/2-y,z
1/4+y,1/4-x,3/4+z
x,-y,1/2-z
1/2-x,y,-z
3/4+y,1/4+x,1/4-z
1/4-y,1/4-x,1/4-z
-x,-y,-z
3/4+y,1/4-x,3/4-z
x,1/2+y,-z
3/4-y,3/4+x,1/4-z
-x,y,1/2+z
1/2+x,-y,z
1/4-y,3/4-x,3/4+z
3/4+y,3/4+x,3/4+z
1/2+x,1/2+y,1/2+z
3/4-y,1/4+x,3/4+z
1/2-x,-y,1/2+z
3/4+y,3/4-x,1/4+z
1/2+x,1/2-y,-z
-x,1/2+y,1/2-z
1/4+y,3/4+x,3/4-z
3/4-y,3/4-x,3/4-z
1/2-x,1/2-y,1/2-z
1/4+y,3/4-x,1/4-z
1/2+x,y,1/2-z
1/4-y,1/4+x,3/4-z
1/2-x,1/2+y,z
x,1/2-y,1/2+z
3/4-y,1/4-x,1/4+z
1/4+y,1/4+x,1/4+z
loop_
_atom_site_type_symbol
_atom_site_label
_atom_site_fract_x
_atom_site_fract_y
_atom_site_fract_z
Si Si1 0.619107 0.786713 0.858034
Si Si2 0.500000 0.750000 0.125000
Si Si3 0.500591 0.093853 0.456726
Si Si4 0.734437 0.748187 0.572093
Si Si5 0.323116 0.411589 0.452845
O O1 0.590331 0.700897 0.873177
O O2 0.647495 0.791924 0.779353
O O3 0.689642 0.797634 0.907992
O O4 0.427169 0.749965 0.173924
O O5 0.465728 0.042385 0.394473
O O6 0.588787 0.068660 0.470883
O O7 0.750000 0.791893 0.500000
O O8 0.675650 0.680806 0.554959
O O9 0.250000 0.432198 0.500000
O O10 0.308968 0.441033 0.375000
#
# Coordination Sequence:
#
# PCOD9573631 Si02
#       5
#    32   8  32  32  32
#     4  11  23  36  57  90 121 155 198 252 304 359
#     4  12  20  36  62  96 116 144 214 236 308 352
#     4  11  22  36  60  89 120 159 197 258 300 368
#     4  10  20  37  57  83 116 156 196 247 303 368
#     4   9  17  33  55  83 108 154 201 243 292 359
#
# _framework density 22.813151000000001
#
# number of rings (size 3 to 8) (size 9 to 14) (size 15 to 20)
#    0.000    1.647    3.529    4.941    3.294    0.000 
#    0.000    0.000    0.000   12.706   12.235    0.000 
#    0.000    0.000    0.000    0.000    0.000    0.000 
#
# Total GULP energy -379285.790120 kJ/mol
# GULP energy per Si atom -5577.732208 kJ/mol
# Density = 2.276123 g / cm^3
# Si number density = 22.813151 Si / 1000 Ang^3
#
#
#
# Elastic Constant Matrix: (Units=GPa)
#
#
# Indices 1 2 3 4 5 6 
#
# 1 52.9055 2.2269 20.2356 0.0000 0.0000 0.0000
# 2 2.2269 52.9055 20.2355 0.0000 0.0000 0.0000
# 3 20.2356 20.2355 204.0476 0.0000 0.0000 0.0000
# 4 0.0000 0.0000 0.0000 36.5969 0.0000 0.0000
# 5 0.0000 0.0000 0.0000 0.0000 36.5969 0.0000
# 6 0.0000 0.0000 0.0000 0.0000 0.0000 3.0716
#
#
#
# Elastic Compliance Matrix: (Units=1/GPa)
#
#
# Indices 1 2 3 4 5 6 
#
# 1 0.019647 -0.000085 -0.001940 0.000000 0.000000 0.000000
# 2 -0.000085 0.019647 -0.001940 0.000000 0.000000 0.000000
# 3 -0.001940 -0.001940 0.005286 0.000000 0.000000 0.000000
# 4 0.000000 0.000000 0.000000 0.027325 0.000000 0.000000
# 5 0.000000 0.000000 0.000000 0.000000 0.027325 0.000000
# 6 0.000000 0.000000 0.000000 0.000000 0.000000 0.325561
#
#
# Mechanical properties :
#
#
# Convention : Reuss Voigt Hill
#
# Bulk Modulus (GPa) = 27.28506 43.91719 35.60112
# Shear Modulus (GPa) = 11.23755 33.06380 22.15067
#
# Velocity S-wave (km/s) = 2.22185 3.81114 3.11940
# Velocity P-wave (km/s) = 4.30910 6.21763 5.34917
#
# Compressibility (1/GPa) = 0.03665010
#
# Stress axis : x y z
#
# Youngs Moduli (GPa) = 50.89776 50.89781 189.19327
#
# Poissons Ratio (x) = 0.00432 0.36704
# Poissons Ratio (y) = 0.00432 0.36704
# Poissons Ratio (z) = 0.09874 0.09874
#
# Static dielectric constant tensor:
#      x y z
#    x 1.868400 0.000000 0.000000 
#    y 0.000000 1.868400 0.000000 
#    z 0.000000 0.000000 1.909830 
# 
# From -- ./inp_files/8765.got.cif
#   From: 2010.05.17/outbox.cif.g08.bks.cpg/sg142_5_cif.got.tgz:8765.got - 2010.05.20 13:39:18.
