data_PCOD9573745
_publ_section_title
;
Structure prediction by ZEFSAII (Michael W. Deem and Ramdas Pophale) SiO2 
 PCOD9573745
Probable space group: I 41/A C D
;
_chemical_formula_sum "Si O2"
_cell_formula_units_Z 96
_cell_length_a 30.404098
_cell_length_b 30.404098
_cell_length_c 4.936721
_cell_angle_alpha 90.000000
_cell_angle_beta 90.000000
_cell_angle_gamma 90.000000
_cell_volume 4563.550188
_symmetry_space_group_name_H-M "I 41/A C D"
_symmetry_group_IT_number 142
_space_group.IT_coordinate_system_code '2'
_symmetry_cell_setting 'tetragonal'
loop_
_space_group_symop_operation_xyz
x,y,z
1/4-y,3/4+x,1/4+z
-x,1/2-y,z
1/4+y,1/4-x,3/4+z
x,-y,1/2-z
1/2-x,y,-z
3/4+y,1/4+x,1/4-z
1/4-y,1/4-x,1/4-z
-x,-y,-z
3/4+y,1/4-x,3/4-z
x,1/2+y,-z
3/4-y,3/4+x,1/4-z
-x,y,1/2+z
1/2+x,-y,z
1/4-y,3/4-x,3/4+z
3/4+y,3/4+x,3/4+z
1/2+x,1/2+y,1/2+z
3/4-y,1/4+x,3/4+z
1/2-x,-y,1/2+z
3/4+y,3/4-x,1/4+z
1/2+x,1/2-y,-z
-x,1/2+y,1/2-z
1/4+y,3/4+x,3/4-z
3/4-y,3/4-x,3/4-z
1/2-x,1/2-y,1/2-z
1/4+y,3/4-x,1/4-z
1/2+x,y,1/2-z
1/4-y,1/4+x,3/4-z
1/2-x,1/2+y,z
x,1/2-y,1/2+z
3/4-y,1/4-x,1/4+z
1/4+y,1/4+x,1/4+z
loop_
_atom_site_type_symbol
_atom_site_label
_atom_site_fract_x
_atom_site_fract_y
_atom_site_fract_z
Si Si1 0.615239 0.500000 0.750000
Si Si2 0.588932 0.721962 0.460303
Si Si3 0.030792 0.557372 0.650711
Si Si4 0.750000 0.070196 0.000000
O O1 0.579471 0.462856 0.667614
O O2 0.647210 0.512653 0.499178
O O3 0.567574 0.682427 0.625000
O O4 0.577497 0.737184 0.158289
O O5 0.640640 0.714065 0.439425
O O6 0.004675 0.545559 0.380584
O O7 0.788180 0.038180 0.125000
#
# Coordination Sequence:
#
# PCOD9573745 Si02
#       4
#    16  32  32  16
#     4  12  23  41  72  96 116 168 216 245 321 416
#     4  10  21  35  53  79 115 157 199 248 300 352
#     4  10  21  39  61  93 131 159 197 262 320 368
#     4  12  27  47  66  92 130 166 210 275 331 378
#
# _framework density 21.036254
#
# number of rings (size 3 to 8) (size 9 to 14) (size 15 to 20)
#    0.000    1.333    0.000    6.000    0.000    4.667 
#    0.000    0.000    0.000    0.000    0.000    0.000 
#    0.000    0.000    0.000    0.000    0.000    0.000 
#
# Total GULP energy -267523.375680 kJ/mol
# GULP energy per Si atom -5573.403660 kJ/mol
# Density = 2.098837 g / cm^3
# Si number density = 21.036254 Si / 1000 Ang^3
#
#
#
# Elastic Constant Matrix: (Units=GPa)
#
#
# Indices 1 2 3 4 5 6 
#
# 1 92.9214 65.7278 25.9037 0.0000 0.0000 0.0000
# 2 65.7278 92.9377 25.8997 0.0000 0.0000 0.0000
# 3 25.9037 25.8997 121.7440 0.0000 0.0000 0.0000
# 4 0.0000 0.0000 0.0000 33.6636 0.0000 0.0000
# 5 0.0000 0.0000 0.0000 0.0000 33.6568 0.0000
# 6 0.0000 0.0000 0.0000 0.0000 0.0000 60.2569
#
#
#
# Elastic Compliance Matrix: (Units=1/GPa)
#
#
# Indices 1 2 3 4 5 6 
#
# 1 0.021770 -0.014994 -0.001442 0.000000 0.000000 0.000000
# 2 -0.014994 0.021766 -0.001440 0.000000 0.000000 0.000000
# 3 -0.001442 -0.001440 0.008827 0.000000 0.000000 0.000000
# 4 0.000000 0.000000 0.000000 0.029706 0.000000 0.000000
# 5 0.000000 0.000000 0.000000 0.000000 0.029712 0.000000
# 6 0.000000 0.000000 0.000000 0.000000 0.000000 0.016596
#
#
# Mechanical properties :
#
#
# Convention : Reuss Voigt Hill
#
# Bulk Modulus (GPa) = 60.20590 60.29616 60.25103
# Shear Modulus (GPa) = 29.46971 38.18693 33.82832
#
# Velocity S-wave (km/s) = 3.74692 4.26525 4.01446
# Velocity P-wave (km/s) = 6.88487 7.27885 7.08460
#
# Compressibility (1/GPa) = 0.01660967
#
# Stress axis : x y z
#
# Youngs Moduli (GPa) = 45.93449 45.94391 113.28676
#
# Poissons Ratio (x) = 0.68891 0.16338
# Poissons Ratio (y) = 0.68876 0.16313
# Poissons Ratio (z) = 0.06624 0.06616
#
# Static dielectric constant tensor:
#      x y z
#    x 1.745730 0.000000 0.000000 
#    y 0.000000 1.745720 0.000000 
#    z 0.000000 0.000000 1.631120 
# 
# From -- ./inp_files/690.got.cif
#   From: 2010.05.17/outbox.cif.g08.bks.cpg/sg142_1_cif.got.tgz:690.got - 2010.05.20 13:39:18.
