data_PCOD9573690
_publ_section_title
;
Structure prediction by ZEFSAII (Michael W. Deem and Ramdas Pophale) SiO2 
 PCOD9573690
Probable space group: I 41/A C D
;
_chemical_formula_sum "Si O2"
_cell_formula_units_Z 192
_cell_length_a 18.835783
_cell_length_b 18.835783
_cell_length_c 25.284103
_cell_angle_alpha 90.000000
_cell_angle_beta 90.000000
_cell_angle_gamma 90.000000
_cell_volume 8970.464002
_symmetry_space_group_name_H-M "I 41/A C D"
_symmetry_group_IT_number 142
_space_group.IT_coordinate_system_code '2'
_symmetry_cell_setting 'tetragonal'
loop_
_space_group_symop_operation_xyz
x,y,z
1/4-y,3/4+x,1/4+z
-x,1/2-y,z
1/4+y,1/4-x,3/4+z
x,-y,1/2-z
1/2-x,y,-z
3/4+y,1/4+x,1/4-z
1/4-y,1/4-x,1/4-z
-x,-y,-z
3/4+y,1/4-x,3/4-z
x,1/2+y,-z
3/4-y,3/4+x,1/4-z
-x,y,1/2+z
1/2+x,-y,z
1/4-y,3/4-x,3/4+z
3/4+y,3/4+x,3/4+z
1/2+x,1/2+y,1/2+z
3/4-y,1/4+x,3/4+z
1/2-x,-y,1/2+z
3/4+y,3/4-x,1/4+z
1/2+x,1/2-y,-z
-x,1/2+y,1/2-z
1/4+y,3/4+x,3/4-z
3/4-y,3/4-x,3/4-z
1/2-x,1/2-y,1/2-z
1/4+y,3/4-x,1/4-z
1/2+x,y,1/2-z
1/4-y,1/4+x,3/4-z
1/2-x,1/2+y,z
x,1/2-y,1/2+z
3/4-y,1/4-x,1/4+z
1/4+y,1/4+x,1/4+z
loop_
_atom_site_type_symbol
_atom_site_label
_atom_site_fract_x
_atom_site_fract_y
_atom_site_fract_z
Si Si1 0.880683 0.920925 0.932414
Si Si2 0.873728 0.203566 0.780718
Si Si3 0.105256 0.355256 0.125000
Si Si4 0.347168 0.500000 0.250000
Si Si5 0.026844 0.502211 0.403763
Si Si6 0.050146 0.318945 0.238558
Si Si7 0.534859 0.588865 0.810727
O O1 0.858607 0.891394 0.875000
O O2 0.809317 0.943811 0.964776
O O3 0.914017 0.864900 0.974259
O O4 0.949845 0.968625 0.921720
O O5 0.794125 0.189742 0.799517
O O6 0.883038 0.287119 0.770915
O O7 0.926202 0.164380 0.821667
O O8 0.080343 0.436119 0.114642
O O9 0.065458 0.330395 0.177644
O O10 0.401309 0.461310 0.209275
O O11 0.007506 0.447904 0.357118
O O12 0.000000 0.250000 0.245421
O O13 0.020004 0.389549 0.264739
#
# Coordination Sequence:
#
# PCOD9573690 Si02
#       7
#    32  32  16  16  32  32  32
#     4  11  22  41  70  97 134 182 229 282 341 427
#     4  10  24  42  67  99 135 178 226 289 354 418
#     4  12  25  38  68 102 140 182 230 285 368 410
#     4  10  20  40  62 100 128 176 230 272 342 418
#     4  12  25  43  67 100 143 183 231 293 361 420
#     4  10  22  39  67 105 129 172 230 295 349 411
#     4  10  22  40  68  95 138 172 232 282 347 419
#
# _framework density 21.403573999999999
#
# number of rings (size 3 to 8) (size 9 to 14) (size 15 to 20)
#    0.000    1.333    3.333    1.750    7.000    0.000 
#    0.000    3.333    0.000    0.000    0.000    0.000 
#    0.000    0.000    0.000    0.000    0.000    0.000 
#
# Total GULP energy -534781.424464 kJ/mol
# GULP energy per Si atom -5570.639838 kJ/mol
# Density = 2.135486 g / cm^3
# Si number density = 21.403574 Si / 1000 Ang^3
#
#
#
# Elastic Constant Matrix: (Units=GPa)
#
#
# Indices 1 2 3 4 5 6 
#
# 1 84.2013 33.1111 45.3307 0.0000 0.0000 0.0000
# 2 33.1111 84.2009 45.3306 0.0000 0.0000 0.0000
# 3 45.3307 45.3306 94.8697 0.0000 0.0000 0.0000
# 4 0.0000 0.0000 0.0000 35.3880 0.0000 0.0000
# 5 0.0000 0.0000 0.0000 0.0000 35.3886 0.0000
# 6 0.0000 0.0000 0.0000 0.0000 0.0000 30.1944
#
#
#
# Elastic Compliance Matrix: (Units=1/GPa)
#
#
# Indices 1 2 3 4 5 6 
#
# 1 0.016544 -0.003029 -0.006458 0.000000 0.000000 0.000000
# 2 -0.003029 0.016544 -0.006458 0.000000 0.000000 0.000000
# 3 -0.006458 -0.006458 0.016712 0.000000 0.000000 0.000000
# 4 0.000000 0.000000 0.000000 0.028258 0.000000 0.000000
# 5 0.000000 0.000000 0.000000 0.000000 0.028258 0.000000
# 6 0.000000 0.000000 0.000000 0.000000 0.000000 0.033119
#
#
# Mechanical properties :
#
#
# Convention : Reuss Voigt Hill
#
# Bulk Modulus (GPa) = 55.83149 56.75742 56.29445
# Shear Modulus (GPa) = 28.20168 29.49415 28.84791
#
# Velocity S-wave (km/s) = 3.63384 3.71617 3.67523
# Velocity P-wave (km/s) = 6.61423 6.70735 6.66095
#
# Compressibility (1/GPa) = 0.01791104
#
# Stress axis : x y z
#
# Youngs Moduli (GPa) = 60.44461 60.44438 59.83717
#
# Poissons Ratio (x) = 0.18310 0.38641
# Poissons Ratio (y) = 0.18310 0.38641
# Poissons Ratio (z) = 0.39033 0.39033
#
# Static dielectric constant tensor:
#      x y z
#    x 1.880540 0.000000 0.000000 
#    y 0.000000 1.880540 0.000000 
#    z 0.000000 0.000000 1.805680 
# 
# From -- ./inp_files/10471.got.cif
#   From: 2010.05.17/outbox.cif.g08.bks.cpg/sg142_6_cif.got.tgz:10471.got - 2010.05.20 13:39:18.
