data_PCOD9573213
_publ_section_title
;
Structure prediction by ZEFSAII (Michael W. Deem and Ramdas Pophale) SiO2 
 PCOD9573213
Probable space group: I 41/A M D
;
_chemical_formula_sum "Si O2"
_cell_formula_units_Z 160
_cell_length_a 19.650664
_cell_length_b 19.650664
_cell_length_c 18.105943
_cell_angle_alpha 90.000000
_cell_angle_beta 90.000000
_cell_angle_gamma 90.000000
_cell_volume 6991.584462
_symmetry_space_group_name_H-M "I 41/A M D"
_symmetry_group_IT_number 141
_space_group.IT_coordinate_system_code '2'
_symmetry_cell_setting 'tetragonal'
loop_
_space_group_symop_operation_xyz
x,y,z
1/4-y,3/4+x,1/4+z
-x,1/2-y,z
1/4+y,1/4-x,3/4+z
x,-y,-z
-x,1/2+y,-z
1/4+y,3/4+x,1/4-z
1/4-y,1/4-x,3/4-z
-x,-y,-z
3/4+y,1/4-x,3/4-z
x,1/2+y,-z
3/4-y,3/4+x,1/4-z
-x,y,z
x,1/2-y,z
3/4-y,1/4-x,3/4+z
3/4+y,3/4+x,1/4+z
1/2+x,1/2+y,1/2+z
3/4-y,1/4+x,3/4+z
1/2-x,-y,1/2+z
3/4+y,3/4-x,1/4+z
1/2+x,1/2-y,1/2-z
1/2-x,y,1/2-z
3/4+y,1/4+x,3/4-z
3/4-y,3/4-x,1/4-z
1/2-x,1/2-y,1/2-z
1/4+y,3/4-x,1/4-z
1/2+x,y,1/2-z
1/4-y,1/4+x,3/4-z
1/2-x,1/2+y,1/2+z
1/2+x,-y,1/2+z
1/4-y,3/4-x,1/4+z
1/4+y,1/4+x,3/4+z
loop_
_atom_site_type_symbol
_atom_site_label
_atom_site_fract_x
_atom_site_fract_y
_atom_site_fract_z
Si Si1 0.000000 0.353858 0.408431
Si Si2 0.810466 0.250000 0.470629
Si Si3 0.500000 0.432129 0.947849
Si Si4 0.876436 0.626436 0.125000
Si Si5 0.000000 0.171368 0.973356
Si Si6 0.242039 0.109613 0.988330
Si Si7 0.631091 0.250000 0.881052
Si Si8 0.350935 0.091193 0.880892
O O1 0.936088 0.313913 0.375000
O O2 0.000000 0.423468 0.364743
O O3 0.000000 0.368572 0.494120
O O4 0.770240 0.317978 0.485854
O O5 0.874195 0.250000 0.529071
O O6 0.569637 0.422610 0.900955
O O7 0.500000 0.500000 0.000000
O O8 0.935494 0.635856 0.064450
O O9 0.808223 0.626303 0.078529
O O10 0.000000 0.250000 0.952592
O O11 0.000000 0.169961 0.062114
O O12 0.305308 0.070722 0.951466
O O13 0.200710 0.080184 0.057883
O O14 0.661174 0.327037 0.869536
#
# Coordination Sequence:
#
# PCOD9573213 Si02
#       8
#    16  16  16  16  16  32  16  32
#     4  11  22  41  70 105 140 169 224 296 364 439
#     4  10  22  44  67  98 138 184 233 293 375 436
#     4  12  27  46  74 104 142 200 246 315 381 444
#     4  12  23  42  66 100 152 188 244 302 373 432
#     4  12  23  38  66 111 146 193 252 306 370 446
#     4  11  24  44  70 101 146 193 241 305 368 456
#     4  10  22  41  69 108 136 183 238 314 367 433
#     4  11  25  47  74 110 145 193 253 309 382 454
#
# _framework density 22.884654000000001
#
# number of rings (size 3 to 8) (size 9 to 14) (size 15 to 20)
#    0.000    0.900    3.000    4.800    1.400    1.600 
#    5.400    2.000    0.000    0.000    0.000    0.000 
#    0.000    0.000    0.000    0.000    0.000    0.000 
#
# Total GULP energy -446249.766388 kJ/mol
# GULP energy per Si atom -5578.122080 kJ/mol
# Density = 2.283257 g / cm^3
# Si number density = 22.884654 Si / 1000 Ang^3
#
#
#
# Elastic Constant Matrix: (Units=GPa)
#
#
# Indices 1 2 3 4 5 6 
#
# 1 88.5883 36.1692 42.0521 0.0000 0.0000 0.0000
# 2 36.1692 88.5875 42.0526 0.0000 0.0000 0.0000
# 3 42.0521 42.0526 151.1958 0.0000 0.0000 0.0000
# 4 0.0000 0.0000 0.0000 45.5510 0.0000 0.0000
# 5 0.0000 0.0000 0.0000 0.0000 45.5498 0.0000
# 6 0.0000 0.0000 0.0000 0.0000 0.0000 21.3894
#
#
#
# Elastic Compliance Matrix: (Units=1/GPa)
#
#
# Indices 1 2 3 4 5 6 
#
# 1 0.014471 -0.004606 -0.002744 0.000000 0.000000 0.000000
# 2 -0.004606 0.014471 -0.002744 0.000000 0.000000 0.000000
# 3 -0.002744 -0.002744 0.008140 0.000000 0.000000 0.000000
# 4 0.000000 0.000000 0.000000 0.021953 0.000000 0.000000
# 5 0.000000 0.000000 0.000000 0.000000 0.021954 0.000000
# 6 0.000000 0.000000 0.000000 0.000000 0.000000 0.046752
#
#
# Mechanical properties :
#
#
# Convention : Reuss Voigt Hill
#
# Bulk Modulus (GPa) = 59.18741 63.21326 61.20033
# Shear Modulus (GPa) = 32.56026 36.37121 34.46573
#
# Velocity S-wave (km/s) = 3.77609 3.99096 3.88501
# Velocity P-wave (km/s) = 6.70308 6.99425 6.85022
#
# Compressibility (1/GPa) = 0.01689549
#
# Stress axis : x y z
#
# Youngs Moduli (GPa) = 69.10301 69.10203 122.84633
#
# Poissons Ratio (x) = 0.31828 0.33707
# Poissons Ratio (y) = 0.31828 0.33708
# Poissons Ratio (z) = 0.18961 0.18961
#
# Static dielectric constant tensor:
#      x y z
#    x 1.891810 0.000000 0.000000 
#    y 0.000000 1.891820 0.000000 
#    z 0.000000 0.000000 1.838510 
# 
# From -- ./inp_files/8752.got.cif
#   From: 2010.05.17/outbox.cif.g08.bks.cpg/sg141_5_cif.got.tgz:8752.got - 2010.05.20 13:30:51.
