data_PCOD9573180
_publ_section_title
;
Structure prediction by ZEFSAII (Michael W. Deem and Ramdas Pophale) SiO2 
 PCOD9573180
Probable space group: I 41/A M D
;
_chemical_formula_sum "Si O2"
_cell_formula_units_Z 176
_cell_length_a 17.448363
_cell_length_b 17.448363
_cell_length_c 28.226396
_cell_angle_alpha 90.000000
_cell_angle_beta 90.000000
_cell_angle_gamma 90.000000
_cell_volume 8593.395613
_symmetry_space_group_name_H-M "I 41/A M D"
_symmetry_group_IT_number 141
_space_group.IT_coordinate_system_code '2'
_symmetry_cell_setting 'tetragonal'
loop_
_space_group_symop_operation_xyz
x,y,z
1/4-y,3/4+x,1/4+z
-x,1/2-y,z
1/4+y,1/4-x,3/4+z
x,-y,-z
-x,1/2+y,-z
1/4+y,3/4+x,1/4-z
1/4-y,1/4-x,3/4-z
-x,-y,-z
3/4+y,1/4-x,3/4-z
x,1/2+y,-z
3/4-y,3/4+x,1/4-z
-x,y,z
x,1/2-y,z
3/4-y,1/4-x,3/4+z
3/4+y,3/4+x,1/4+z
1/2+x,1/2+y,1/2+z
3/4-y,1/4+x,3/4+z
1/2-x,-y,1/2+z
3/4+y,3/4-x,1/4+z
1/2+x,1/2-y,1/2-z
1/2-x,y,1/2-z
3/4+y,1/4+x,3/4-z
3/4-y,3/4-x,1/4-z
1/2-x,1/2-y,1/2-z
1/4+y,3/4-x,1/4-z
1/2+x,y,1/2-z
1/4-y,1/4+x,3/4-z
1/2-x,1/2+y,1/2+z
1/2+x,-y,1/2+z
1/4-y,3/4-x,1/4+z
1/4+y,1/4+x,3/4+z
loop_
_atom_site_type_symbol
_atom_site_label
_atom_site_fract_x
_atom_site_fract_y
_atom_site_fract_z
Si Si1 0.196715 0.343393 0.466290
Si Si2 0.084572 0.161276 0.548815
Si Si3 0.287014 0.376436 0.880956
Si Si4 0.694485 0.555516 0.875000
Si Si5 0.829631 0.842189 0.037184
Si Si6 0.500000 0.966068 0.554002
Si Si7 0.500000 0.340853 0.510212
O O1 0.194437 0.250000 0.459635
O O2 0.135683 0.370056 0.505978
O O3 0.176340 0.390889 0.419682
O O4 0.280135 0.361934 0.489978
O O5 0.075246 0.250000 0.536331
O O6 0.138936 0.160468 0.594202
O O7 0.000000 0.126922 0.555081
O O8 0.312615 0.463786 0.877240
O O9 0.215912 0.373915 0.917688
O O10 0.267461 0.325658 0.835030
O O11 0.825074 0.750000 0.041460
O O12 0.918980 0.863342 0.034085
O O13 0.500000 0.124005 0.458092
O O14 0.500000 0.000000 0.500000
O O15 0.500000 0.250000 0.508729
#
# Coordination Sequence:
#
# PCOD9573180 Si02
#       7
#    32  32  32  16  32  16  16
#     4   9  20  40  60  87 133 170 203 263 333 381
#     4   9  18  38  70  98 120 167 220 269 321 391
#     4  11  23  42  61  91 130 169 214 269 326 389
#     4  12  26  36  60  97 129 178 216 264 324 398
#     4   9  18  40  66  86 124 165 211 267 324 376
#     4  12  26  42  64  92 126 172 212 270 338 391
#     4  10  22  38  66  96 114 158 218 272 310 374
#
# _framework density 20.480844000000001
#
# number of rings (size 3 to 8) (size 9 to 14) (size 15 to 20)
#    0.000    2.000    1.818    2.182    2.545    5.091 
#    0.000    0.909    2.000    0.000    0.000    0.000 
#    0.000    0.000    0.000    0.000    0.000    0.000 
#
# Total GULP energy -490363.683421 kJ/mol
# GULP energy per Si atom -5572.314584 kJ/mol
# Density = 2.043423 g / cm^3
# Si number density = 20.480844 Si / 1000 Ang^3
#
#
#
# Elastic Constant Matrix: (Units=GPa)
#
#
# Indices 1 2 3 4 5 6 
#
# 1 104.6206 11.7978 49.4364 0.0000 0.0000 0.0000
# 2 11.7978 104.6187 49.4362 0.0000 0.0000 0.0000
# 3 49.4364 49.4362 139.0904 0.0000 0.0000 0.0000
# 4 0.0000 0.0000 0.0000 24.6874 0.0000 0.0000
# 5 0.0000 0.0000 0.0000 0.0000 24.6880 0.0000
# 6 0.0000 0.0000 0.0000 0.0000 0.0000 16.8055
#
#
#
# Elastic Compliance Matrix: (Units=1/GPa)
#
#
# Indices 1 2 3 4 5 6 
#
# 1 0.011538 0.000765 -0.004373 0.000000 0.000000 0.000000
# 2 0.000765 0.011539 -0.004373 0.000000 0.000000 0.000000
# 3 -0.004373 -0.004373 0.010298 0.000000 0.000000 0.000000
# 4 0.000000 0.000000 0.000000 0.040507 0.000000 0.000000
# 5 0.000000 0.000000 0.000000 0.000000 0.040506 0.000000
# 6 0.000000 0.000000 0.000000 0.000000 0.000000 0.059504
#
#
# Mechanical properties :
#
#
# Convention : Reuss Voigt Hill
#
# Bulk Modulus (GPa) = 57.42687 63.29674 60.36180
# Shear Modulus (GPa) = 25.55477 29.08011 27.31744
#
# Velocity S-wave (km/s) = 3.53617 3.77220 3.65609
# Velocity P-wave (km/s) = 6.69125 7.06719 6.88179
#
# Compressibility (1/GPa) = 0.01741345
#
# Stress axis : x y z
#
# Youngs Moduli (GPa) = 86.66666 86.66498 97.10444
#
# Poissons Ratio (x) = -0.06632 0.42464
# Poissons Ratio (y) = -0.06632 0.42465
# Poissons Ratio (z) = 0.37900 0.37900
#
# Static dielectric constant tensor:
#      x y z
#    x 1.710420 0.000000 0.000000 
#    y 0.000000 1.710420 0.000000 
#    z 0.000000 0.000000 1.730740 
# 
# From -- ./inp_files/12968.got.cif
#   From: 2010.05.17/outbox.cif.g08.bks.cpg/sg141_7_cif.got.tgz:12968.got - 2010.05.20 13:30:51.
