data_PCOD9573774
_publ_section_title
;
Structure prediction by ZEFSAII (Michael W. Deem and Ramdas Pophale) SiO2 
 PCOD9573774
Probable space group: I 41/A C D
;
_chemical_formula_sum "Si O2"
_cell_formula_units_Z 144
_cell_length_a 16.614430
_cell_length_b 16.614430
_cell_length_c 27.585874
_cell_angle_alpha 90.000000
_cell_angle_beta 90.000000
_cell_angle_gamma 90.000000
_cell_volume 7614.784914
_symmetry_space_group_name_H-M "I 41/A C D"
_symmetry_group_IT_number 142
_space_group.IT_coordinate_system_code '2'
_symmetry_cell_setting 'tetragonal'
loop_
_space_group_symop_operation_xyz
x,y,z
1/4-y,3/4+x,1/4+z
-x,1/2-y,z
1/4+y,1/4-x,3/4+z
x,-y,1/2-z
1/2-x,y,-z
3/4+y,1/4+x,1/4-z
1/4-y,1/4-x,1/4-z
-x,-y,-z
3/4+y,1/4-x,3/4-z
x,1/2+y,-z
3/4-y,3/4+x,1/4-z
-x,y,1/2+z
1/2+x,-y,z
1/4-y,3/4-x,3/4+z
3/4+y,3/4+x,3/4+z
1/2+x,1/2+y,1/2+z
3/4-y,1/4+x,3/4+z
1/2-x,-y,1/2+z
3/4+y,3/4-x,1/4+z
1/2+x,1/2-y,-z
-x,1/2+y,1/2-z
1/4+y,3/4+x,3/4-z
3/4-y,3/4-x,3/4-z
1/2-x,1/2-y,1/2-z
1/4+y,3/4-x,1/4-z
1/2+x,y,1/2-z
1/4-y,1/4+x,3/4-z
1/2-x,1/2+y,z
x,1/2-y,1/2+z
3/4-y,1/4-x,1/4+z
1/4+y,1/4+x,1/4+z
loop_
_atom_site_type_symbol
_atom_site_label
_atom_site_fract_x
_atom_site_fract_y
_atom_site_fract_z
Si Si1 0.657980 0.934512 0.519147
Si Si2 0.796418 0.664330 0.666658
Si Si3 0.406675 0.538950 0.891387
Si Si4 0.957978 0.382545 0.667059
Si Si5 0.879747 0.629747 0.375000
O O1 0.750000 0.933916 0.500000
O O2 0.606427 0.958126 0.472955
O O3 0.627206 0.846137 0.535539
O O4 0.642606 0.993421 0.565433
O O5 0.819327 0.757708 0.660979
O O6 0.855761 0.606169 0.636438
O O7 0.707788 0.645506 0.646180
O O8 0.433758 0.470842 0.852843
O O9 0.925363 0.324638 0.625000
O O10 0.052409 0.364749 0.667099
#
# Coordination Sequence:
#
# PCOD9573774 Si02
#       5
#    32  32  32  32  16
#     4  11  20  37  66  92 125 167 213 257 323 384
#     4  11  22  40  62  91 130 169 210 261 318 377
#     4  10  22  39  61  90 125 172 210 258 314 379
#     4   9  19  37  62  86 121 156 202 257 313 365
#     4  10  21  38  62  90 118 157 212 256 308 372
#
# _framework density 18.91058
#
# number of rings (size 3 to 8) (size 9 to 14) (size 15 to 20)
#    0.000    1.778    2.222    2.333    1.556    0.444 
#    4.000    1.111    9.778    0.000    0.000    0.000 
#    0.000    0.000    0.000    0.000    0.000    0.000 
#
# Total GULP energy -401420.585874 kJ/mol
# GULP energy per Si atom -5575.285915 kJ/mol
# Density = 1.886754 g / cm^3
# Si number density = 18.910580 Si / 1000 Ang^3
#
#
#
# Elastic Constant Matrix: (Units=GPa)
#
#
# Indices 1 2 3 4 5 6 
#
# 1 81.0594 38.1212 5.6905 0.0000 0.0000 0.0000
# 2 38.1212 81.0535 5.6877 0.0000 0.0000 0.0000
# 3 5.6905 5.6877 49.3573 0.0000 0.0000 0.0000
# 4 0.0000 0.0000 0.0000 -3.3664 0.0000 0.0000
# 5 0.0000 0.0000 0.0000 0.0000 -3.3828 0.0000
# 6 0.0000 0.0000 0.0000 0.0000 0.0000 11.7241
#
#
#
# Elastic Compliance Matrix: (Units=1/GPa)
#
#
# Indices 1 2 3 4 5 6 
#
# 1 0.015887 -0.007403 -0.000979 0.000000 0.000000 0.000000
# 2 -0.007403 0.015888 -0.000977 0.000000 0.000000 0.000000
# 3 -0.000979 -0.000977 0.020486 0.000000 0.000000 0.000000
# 4 0.000000 0.000000 0.000000 -0.297051 0.000000 0.000000
# 5 0.000000 0.000000 0.000000 0.000000 -0.295616 0.000000
# 6 0.000000 0.000000 0.000000 0.000000 0.000000 0.085295
#
#
# Mechanical properties :
#
#
# Convention : Reuss Voigt Hill
#
# Bulk Modulus (GPa) = 29.81285 34.49656 32.15471
# Shear Modulus (GPa) = -11.75884 11.79303 0.01710
#
# Velocity S-wave (km/s) = -2.49632 2.49995 0.09519
# Velocity P-wave (km/s) = 2.73689 5.15893 4.12947
#
# Compressibility (1/GPa) = 0.03354258
#
# Stress axis : x y z
#
# Youngs Moduli (GPa) = 62.94446 62.94038 48.81417
#
# Poissons Ratio (x) = 0.46597 0.04777
# Poissons Ratio (y) = 0.46600 0.04771
# Poissons Ratio (z) = 0.06159 0.06151
#
# Static dielectric constant tensor:
#      x y z
#    x 1.699000 0.000000 0.000000 
#    y 0.000000 1.699000 0.000000 
#    z 0.000000 0.000000 1.642830 
# 
# From -- ./inp_files/10132.got.cif
#   From: 2010.05.17/outbox.cif.g08.bks.cpg/sg142_6_cif.got.tgz:10132.got - 2010.05.20 13:39:18.
