data_PCOD9573316
_publ_section_title
;
Structure prediction by ZEFSAII (Michael W. Deem and Ramdas Pophale) SiO2 
 PCOD9573316
Probable space group: I 41/A M D
;
_chemical_formula_sum "Si O2"
_cell_formula_units_Z 84
_cell_length_a 15.955799
_cell_length_b 15.955799
_cell_length_c 16.621688
_cell_angle_alpha 90.000000
_cell_angle_beta 90.000000
_cell_angle_gamma 90.000000
_cell_volume 4231.674355
_symmetry_space_group_name_H-M "I 41/A M D"
_symmetry_group_IT_number 141
_space_group.IT_coordinate_system_code '2'
_symmetry_cell_setting 'tetragonal'
loop_
_space_group_symop_operation_xyz
x,y,z
1/4-y,3/4+x,1/4+z
-x,1/2-y,z
1/4+y,1/4-x,3/4+z
x,-y,-z
-x,1/2+y,-z
1/4+y,3/4+x,1/4-z
1/4-y,1/4-x,3/4-z
-x,-y,-z
3/4+y,1/4-x,3/4-z
x,1/2+y,-z
3/4-y,3/4+x,1/4-z
-x,y,z
x,1/2-y,z
3/4-y,1/4-x,3/4+z
3/4+y,3/4+x,1/4+z
1/2+x,1/2+y,1/2+z
3/4-y,1/4+x,3/4+z
1/2-x,-y,1/2+z
3/4+y,3/4-x,1/4+z
1/2+x,1/2-y,1/2-z
1/2-x,y,1/2-z
3/4+y,1/4+x,3/4-z
3/4-y,3/4-x,1/4-z
1/2-x,1/2-y,1/2-z
1/4+y,3/4-x,1/4-z
1/2+x,y,1/2-z
1/4-y,1/4+x,3/4-z
1/2-x,1/2+y,1/2+z
1/2+x,-y,1/2+z
1/4-y,3/4-x,1/4+z
1/4+y,1/4+x,3/4+z
loop_
_atom_site_type_symbol
_atom_site_label
_atom_site_fract_x
_atom_site_fract_y
_atom_site_fract_z
Si Si1 0.905941 0.920444 0.341878
Si Si2 0.000000 0.750000 0.125000
Si Si3 0.742687 0.580406 0.447205
Si Si4 0.500000 0.897276 0.504953
O O1 0.833708 0.934047 0.408229
O O2 0.881151 0.831204 0.304424
O O3 0.000000 0.920996 0.374514
O O4 0.901459 0.982387 0.264022
O O5 0.913996 0.750000 0.177320
O O6 0.721524 0.500000 0.500000
O O7 0.674817 0.575184 0.375000
O O8 0.500000 0.000000 0.500000
#
# Coordination Sequence:
#
# PCOD9573316 Si02
#       4
#    32   4  32  16
#     4  11  23  37  59  91 118 158 204 250 307 369
#     4  12  28  44  60 100 128 168 218 244 324 404
#     4   9  20  39  59  83 118 158 201 244 303 367
#     4  12  26  38  60  86 128 159 196 256 308 372
#
# _framework density 19.850297999999999
#
# number of rings (size 3 to 8) (size 9 to 14) (size 15 to 20)
#    0.000    1.524    1.905    3.429   10.667    0.762 
#    0.000    0.000    0.000    0.000    0.000    0.000 
#    0.000    0.000    0.000    0.000    0.000    0.000 
#
# Total GULP energy -233990.718109 kJ/mol
# GULP energy per Si atom -5571.207574 kJ/mol
# Density = 1.980512 g / cm^3
# Si number density = 19.850298 Si / 1000 Ang^3
#
#
#
# Elastic Constant Matrix: (Units=GPa)
#
#
# Indices 1 2 3 4 5 6 
#
# 1 91.7828 -12.3494 18.7142 0.0000 0.0000 0.0000
# 2 -12.3494 91.7798 18.7140 0.0000 0.0000 0.0000
# 3 18.7142 18.7140 72.8981 0.0000 0.0000 0.0000
# 4 0.0000 0.0000 0.0000 19.0656 0.0000 0.0000
# 5 0.0000 0.0000 0.0000 0.0000 19.0666 0.0000
# 6 0.0000 0.0000 0.0000 0.0000 0.0000 24.2706
#
#
#
# Elastic Compliance Matrix: (Units=1/GPa)
#
#
# Indices 1 2 3 4 5 6 
#
# 1 0.011962 0.002359 -0.003677 0.000000 0.000000 0.000000
# 2 0.002359 0.011963 -0.003677 0.000000 0.000000 0.000000
# 3 -0.003677 -0.003677 0.015605 0.000000 0.000000 0.000000
# 4 0.000000 0.000000 0.000000 0.052451 0.000000 0.000000
# 5 0.000000 0.000000 0.000000 0.000000 0.052448 0.000000
# 6 0.000000 0.000000 0.000000 0.000000 0.000000 0.041202
#
#
# Mechanical properties :
#
#
# Convention : Reuss Voigt Hill
#
# Bulk Modulus (GPa) = 33.84945 34.06870 33.95908
# Shear Modulus (GPa) = 24.33483 27.90599 26.12041
#
# Velocity S-wave (km/s) = 3.50511 3.75350 3.63143
# Velocity P-wave (km/s) = 5.78536 5.99876 5.89303
#
# Compressibility (1/GPa) = 0.02954258
#
# Stress axis : x y z
#
# Youngs Moduli (GPa) = 83.59541 83.59267 64.08007
#
# Poissons Ratio (x) = -0.19722 0.23560
# Poissons Ratio (y) = -0.19722 0.23560
# Poissons Ratio (z) = 0.30735 0.30734
#
# Static dielectric constant tensor:
#      x y z
#    x 1.748140 0.000000 0.000000 
#    y 0.000000 1.748140 0.000000 
#    z 0.000000 0.000000 1.774910 
# 
# From -- ./inp_files/5871.got.cif
#   From: 2010.05.17/outbox.cif.g08.bks.cpg/sg141_3_cif.got.tgz:5871.got - 2010.05.20 13:30:51.
