data_PCOD9573896
_publ_section_title
;
Structure prediction by ZEFSAII (Michael W. Deem and Ramdas Pophale) SiO2 
 PCOD9573896
Probable space group: I 41/A C D
;
_chemical_formula_sum "Si O2"
_cell_formula_units_Z 112
_cell_length_a 14.447221
_cell_length_b 14.447221
_cell_length_c 27.171845
_cell_angle_alpha 90.000000
_cell_angle_beta 90.000000
_cell_angle_gamma 90.000000
_cell_volume 5671.367120
_symmetry_space_group_name_H-M "I 41/A C D"
_symmetry_group_IT_number 142
_space_group.IT_coordinate_system_code '2'
_symmetry_cell_setting 'tetragonal'
loop_
_space_group_symop_operation_xyz
x,y,z
1/4-y,3/4+x,1/4+z
-x,1/2-y,z
1/4+y,1/4-x,3/4+z
x,-y,1/2-z
1/2-x,y,-z
3/4+y,1/4+x,1/4-z
1/4-y,1/4-x,1/4-z
-x,-y,-z
3/4+y,1/4-x,3/4-z
x,1/2+y,-z
3/4-y,3/4+x,1/4-z
-x,y,1/2+z
1/2+x,-y,z
1/4-y,3/4-x,3/4+z
3/4+y,3/4+x,3/4+z
1/2+x,1/2+y,1/2+z
3/4-y,1/4+x,3/4+z
1/2-x,-y,1/2+z
3/4+y,3/4-x,1/4+z
1/2+x,1/2-y,-z
-x,1/2+y,1/2-z
1/4+y,3/4+x,3/4-z
3/4-y,3/4-x,3/4-z
1/2-x,1/2-y,1/2-z
1/4+y,3/4-x,1/4-z
1/2+x,y,1/2-z
1/4-y,1/4+x,3/4-z
1/2-x,1/2+y,z
x,1/2-y,1/2+z
3/4-y,1/4-x,1/4+z
1/4+y,1/4+x,1/4+z
loop_
_atom_site_type_symbol
_atom_site_label
_atom_site_fract_x
_atom_site_fract_y
_atom_site_fract_z
Si Si1 0.533426 0.957347 0.430485
Si Si2 0.456005 0.343239 0.481363
Si Si3 0.382373 0.500000 0.250000
Si Si4 0.175031 0.942357 0.600984
O O1 0.521077 0.878391 0.472944
O O2 0.431581 0.957886 0.408496
O O3 0.607673 0.936355 0.388713
O O4 0.551645 0.060457 0.451428
O O5 0.500000 0.250000 0.459392
O O6 0.349167 0.317525 0.494058
O O7 0.325508 0.521038 0.299782
O O8 0.218193 0.031808 0.625000
#
# Coordination Sequence:
#
# PCOD9573896 Si02
#       4
#    32  32  16  32
#     4  10  24  41  65 100 128 170 226 268 329 404
#     4  10  22  44  66  97 133 171 220 273 333 406
#     4  10  22  42  66  90 134 174 206 276 334 386
#     4  11  23  43  65  94 132 173 217 275 329 396
#
# _framework density 19.748324
#
# number of rings (size 3 to 8) (size 9 to 14) (size 15 to 20)
#    0.000    1.714    2.857    0.000    8.000    2.286 
#    0.000    2.857    0.000    0.000    0.000    0.000 
#    0.000    0.000    0.000    0.000    0.000    0.000 
#
# Total GULP energy -311975.493802 kJ/mol
# GULP energy per Si atom -5570.990961 kJ/mol
# Density = 1.970338 g / cm^3
# Si number density = 19.748324 Si / 1000 Ang^3
#
#
#
# Elastic Constant Matrix: (Units=GPa)
#
#
# Indices 1 2 3 4 5 6 
#
# 1 22.5845 87.1388 10.7851 0.0000 0.0000 0.0000
# 2 87.1388 22.5700 10.7881 0.0000 0.0000 0.0000
# 3 10.7851 10.7881 60.0583 0.0000 0.0000 0.0000
# 4 0.0000 0.0000 0.0000 33.2812 0.0000 0.0000
# 5 0.0000 0.0000 0.0000 0.0000 33.2940 0.0000
# 6 0.0000 0.0000 0.0000 0.0000 0.0000 17.0669
#
#
#
# Elastic Compliance Matrix: (Units=1/GPa)
#
#
# Indices 1 2 3 4 5 6 
#
# 1 -0.003019 0.012469 -0.001697 0.000000 0.000000 0.000000
# 2 0.012469 -0.003022 -0.001696 0.000000 0.000000 0.000000
# 3 -0.001697 -0.001696 0.017260 0.000000 0.000000 0.000000
# 4 0.000000 0.000000 0.000000 0.030047 0.000000 0.000000
# 5 0.000000 0.000000 0.000000 0.000000 0.030035 0.000000
# 6 0.000000 0.000000 0.000000 0.000000 0.000000 0.058593
#
#
# Mechanical properties :
#
#
# Convention : Reuss Voigt Hill
#
# Bulk Modulus (GPa) = 34.04995 35.84852 34.94924
# Shear Modulus (GPa) = 41.14066 16.49513 28.81790
#
# Velocity S-wave (km/s) = 4.56921 2.89323 3.82417
# Velocity P-wave (km/s) = 6.71687 5.41786 6.10203
#
# Compressibility (1/GPa) = 0.02936862
#
# Stress axis : x y z
#
# Youngs Moduli (GPa) = -331.19671 -330.94623 57.93741
#
# Poissons Ratio (x) = 4.12643 0.09835
# Poissons Ratio (y) = 4.12956 0.09828
# Poissons Ratio (z) = -0.56220 -0.56138
#
# Static dielectric constant tensor:
#      x y z
#    x 1.681940 0.000000 0.000000 
#    y 0.000000 1.681930 0.000000 
#    z 0.000000 0.000000 1.805460 
# 
# From -- ./inp_files/9767.got.cif
#   From: 2010.05.17/outbox.cif.g08.bks.cpg/sg142_5_cif.got.tgz:9767.got - 2010.05.20 13:39:18.
