data_PCOD9573803
_publ_section_title
;
Structure prediction by ZEFSAII (Michael W. Deem and Ramdas Pophale) SiO2 
 PCOD9573803
Probable space group: I 41/A C D
;
_chemical_formula_sum "Si O2"
_cell_formula_units_Z 176
_cell_length_a 23.473997
_cell_length_b 23.473997
_cell_length_c 13.941856
_cell_angle_alpha 90.000000
_cell_angle_beta 90.000000
_cell_angle_gamma 90.000000
_cell_volume 7682.360489
_symmetry_space_group_name_H-M "I 41/A C D"
_symmetry_group_IT_number 142
_space_group.IT_coordinate_system_code '2'
_symmetry_cell_setting 'tetragonal'
loop_
_space_group_symop_operation_xyz
x,y,z
1/4-y,3/4+x,1/4+z
-x,1/2-y,z
1/4+y,1/4-x,3/4+z
x,-y,1/2-z
1/2-x,y,-z
3/4+y,1/4+x,1/4-z
1/4-y,1/4-x,1/4-z
-x,-y,-z
3/4+y,1/4-x,3/4-z
x,1/2+y,-z
3/4-y,3/4+x,1/4-z
-x,y,1/2+z
1/2+x,-y,z
1/4-y,3/4-x,3/4+z
3/4+y,3/4+x,3/4+z
1/2+x,1/2+y,1/2+z
3/4-y,1/4+x,3/4+z
1/2-x,-y,1/2+z
3/4+y,3/4-x,1/4+z
1/2+x,1/2-y,-z
-x,1/2+y,1/2-z
1/4+y,3/4+x,3/4-z
3/4-y,3/4-x,3/4-z
1/2-x,1/2-y,1/2-z
1/4+y,3/4-x,1/4-z
1/2+x,y,1/2-z
1/4-y,1/4+x,3/4-z
1/2-x,1/2+y,z
x,1/2-y,1/2+z
3/4-y,1/4-x,1/4+z
1/4+y,1/4+x,1/4+z
loop_
_atom_site_type_symbol
_atom_site_label
_atom_site_fract_x
_atom_site_fract_y
_atom_site_fract_z
Si Si1 0.579782 0.790449 0.838578
Si Si2 0.647289 0.513707 0.644120
Si Si3 0.175175 0.480929 0.350355
Si Si4 0.723885 0.817483 0.650035
Si Si5 0.594577 0.655424 0.125000
Si Si6 0.535241 0.957032 0.386068
O O1 0.569419 0.722432 0.853188
O O2 0.578728 0.811790 0.725992
O O3 0.641838 0.801438 0.887117
O O4 0.669834 0.500000 0.750000
O O5 0.675765 0.574236 0.625000
O O6 0.672747 0.458778 0.588797
O O7 0.580666 0.505157 0.642700
O O8 0.148769 0.500000 0.250000
O O9 0.224028 0.525973 0.375000
O O10 0.123533 0.488099 0.422401
O O11 0.662422 0.834495 0.606947
O O12 0.705602 0.787123 0.748479
O O13 0.768870 0.774849 0.601977
#
# Coordination Sequence:
#
# PCOD9573803 Si02
#       6
#    32  32  32  32  16  32
#     4  10  24  44  68 100 137 178 234 281 337 413
#     4  11  23  39  58  87 131 168 213 265 337 411
#     4  11  21  35  62  91 119 163 215 269 324 397
#     4  10  21  40  67  97 130 166 225 278 337 404
#     4  10  22  43  72 100 136 178 226 294 340 407
#     4  10  23  41  65  97 133 172 218 284 340 402
#
# _framework density 22.909625999999999
#
# number of rings (size 3 to 8) (size 9 to 14) (size 15 to 20)
#    0.000    1.636    0.909    4.364    5.091    3.636 
#    3.273    0.000    0.000    0.000    0.000    0.000 
#    0.000    0.000    0.000    0.000    0.000    0.000 
#
# Total GULP energy -490275.190751 kJ/mol
# GULP energy per Si atom -5571.308986 kJ/mol
# Density = 2.285748 g / cm^3
# Si number density = 22.909626 Si / 1000 Ang^3
#
#
#
# Elastic Constant Matrix: (Units=GPa)
#
#
# Indices 1 2 3 4 5 6 
#
# 1 132.2768 42.5988 7.5034 0.0000 0.0000 0.0000
# 2 42.5988 132.2774 7.5031 0.0000 0.0000 0.0000
# 3 7.5034 7.5031 70.5400 0.0000 0.0000 0.0000
# 4 0.0000 0.0000 0.0000 25.5775 0.0000 0.0000
# 5 0.0000 0.0000 0.0000 0.0000 25.5776 0.0000
# 6 0.0000 0.0000 0.0000 0.0000 0.0000 22.3774
#
#
#
# Elastic Compliance Matrix: (Units=1/GPa)
#
#
# Indices 1 2 3 4 5 6 
#
# 1 0.008461 -0.002690 -0.000614 0.000000 0.000000 0.000000
# 2 -0.002690 0.008461 -0.000614 0.000000 0.000000 0.000000
# 3 -0.000614 -0.000614 0.014307 0.000000 0.000000 0.000000
# 4 0.000000 0.000000 0.000000 0.039097 0.000000 0.000000
# 5 0.000000 0.000000 0.000000 0.000000 0.039097 0.000000
# 6 0.000000 0.000000 0.000000 0.000000 0.000000 0.044688
#
#
# Mechanical properties :
#
#
# Convention : Reuss Voigt Hill
#
# Bulk Modulus (GPa) = 42.74681 50.03387 46.39034
# Shear Modulus (GPa) = 29.45618 33.20577 31.33097
#
# Velocity S-wave (km/s) = 3.58963 3.81126 3.70211
# Velocity P-wave (km/s) = 5.98999 6.42298 6.21026
#
# Compressibility (1/GPa) = 0.02339356
#
# Stress axis : x y z
#
# Youngs Moduli (GPa) = 118.18918 118.18974 69.89609
#
# Poissons Ratio (x) = 0.31793 0.04291
# Poissons Ratio (y) = 0.31793 0.04290
# Poissons Ratio (z) = 0.07255 0.07255
#
# Static dielectric constant tensor:
#      x y z
#    x 1.875880 0.000000 0.000000 
#    y 0.000000 1.875880 0.000000 
#    z 0.000000 0.000000 1.859160 
# 
# From -- ./inp_files/5556.got.cif
#   From: 2010.05.17/outbox.cif.g08.bks.cpg/sg142_3_cif.got.tgz:5556.got - 2010.05.20 13:39:18.
