data_PCOD9573078
_publ_section_title
;
Structure prediction by ZEFSAII (Michael W. Deem and Ramdas Pophale) SiO2 
 PCOD9573078
Probable space group: I 41/A M D
;
_chemical_formula_sum "Si O2"
_cell_formula_units_Z 176
_cell_length_a 17.489544
_cell_length_b 17.489544
_cell_length_c 29.504967
_cell_angle_alpha 90.000000
_cell_angle_beta 90.000000
_cell_angle_gamma 90.000000
_cell_volume 9025.101732
_symmetry_space_group_name_H-M "I 41/A M D"
_symmetry_group_IT_number 141
_space_group.IT_coordinate_system_code '2'
_symmetry_cell_setting 'tetragonal'
loop_
_space_group_symop_operation_xyz
x,y,z
1/4-y,3/4+x,1/4+z
-x,1/2-y,z
1/4+y,1/4-x,3/4+z
x,-y,-z
-x,1/2+y,-z
1/4+y,3/4+x,1/4-z
1/4-y,1/4-x,3/4-z
-x,-y,-z
3/4+y,1/4-x,3/4-z
x,1/2+y,-z
3/4-y,3/4+x,1/4-z
-x,y,z
x,1/2-y,z
3/4-y,1/4-x,3/4+z
3/4+y,3/4+x,1/4+z
1/2+x,1/2+y,1/2+z
3/4-y,1/4+x,3/4+z
1/2-x,-y,1/2+z
3/4+y,3/4-x,1/4+z
1/2+x,1/2-y,1/2-z
1/2-x,y,1/2-z
3/4+y,1/4+x,3/4-z
3/4-y,3/4-x,1/4-z
1/2-x,1/2-y,1/2-z
1/4+y,3/4-x,1/4-z
1/2+x,y,1/2-z
1/4-y,1/4+x,3/4-z
1/2-x,1/2+y,1/2+z
1/2+x,-y,1/2+z
1/4-y,3/4-x,1/4+z
1/4+y,1/4+x,3/4+z
loop_
_atom_site_type_symbol
_atom_site_label
_atom_site_fract_x
_atom_site_fract_y
_atom_site_fract_z
Si Si1 0.586967 0.376318 0.711463
Si Si2 0.590802 0.548664 0.852038
Si Si3 0.347557 0.595829 0.655683
Si Si4 0.164480 0.750000 0.269251
Si Si5 0.200203 0.660939 0.496866
Si Si6 0.670018 0.579982 0.375000
Si Si7 0.910298 0.750000 0.363175
O O1 0.500000 0.355139 0.699641
O O2 0.620386 0.323009 0.749940
O O3 0.586410 0.462550 0.729712
O O4 0.641765 0.372597 0.668203
O O5 0.627892 0.622109 0.875000
O O6 0.500000 0.550350 0.851873
O O7 0.617312 0.476053 0.881825
O O8 0.615387 0.547640 0.799060
O O9 0.355902 0.591171 0.710429
O O10 0.345869 0.508454 0.636889
O O11 0.423110 0.641059 0.640333
O O12 0.250000 0.750000 0.250000
O O13 0.150632 0.750000 0.322363
O O14 0.171771 0.750000 0.494652
O O15 0.000000 0.750000 0.348957
#
# Coordination Sequence:
#
# PCOD9573078 Si02
#       7
#    32  32  32  16  32  16  16
#     4  10  21  36  57  85 123 172 217 265 323 379
#     4  11  24  44  68  96 129 170 218 275 336 402
#     4  11  21  42  65  97 130 172 220 267 337 401
#     4  12  24  38  54  86 130 176 230 278 331 387
#     4   9  20  41  66  90 129 171 210 265 335 402
#     4  10  22  36  59  90 125 172 220 264 316 406
#     4  12  24  38  66  96 132 166 220 293 337 397
#
# _framework density 19.501166000000001
#
# number of rings (size 3 to 8) (size 9 to 14) (size 15 to 20)
#    0.000    1.455    1.818    3.545    2.545    2.364 
#    0.000    2.727    0.000    0.000    0.000    0.000 
#    0.000    0.000    0.000    0.000    0.000    0.000 
#
# Total GULP energy -491204.794377 kJ/mol
# GULP energy per Si atom -5581.872663 kJ/mol
# Density = 1.945678 g / cm^3
# Si number density = 19.501166 Si / 1000 Ang^3
#
#
#
# Elastic Constant Matrix: (Units=GPa)
#
#
# Indices 1 2 3 4 5 6 
#
# 1 62.1148 23.5565 37.1395 0.0000 0.0000 0.0000
# 2 23.5565 62.1079 37.1407 0.0000 0.0000 0.0000
# 3 37.1395 37.1407 142.7768 0.0000 0.0000 0.0000
# 4 0.0000 0.0000 0.0000 24.6561 0.0000 0.0000
# 5 0.0000 0.0000 0.0000 0.0000 24.6567 0.0000
# 6 0.0000 0.0000 0.0000 0.0000 0.0000 26.6803
#
#
#
# Elastic Compliance Matrix: (Units=1/GPa)
#
#
# Indices 1 2 3 4 5 6 
#
# 1 0.020503 -0.005432 -0.003920 0.000000 0.000000 0.000000
# 2 -0.005432 0.020506 -0.003921 0.000000 0.000000 0.000000
# 3 -0.003920 -0.003921 0.009044 0.000000 0.000000 0.000000
# 4 0.000000 0.000000 0.000000 0.040558 0.000000 0.000000
# 5 0.000000 0.000000 0.000000 0.000000 0.040557 0.000000
# 6 0.000000 0.000000 0.000000 0.000000 0.000000 0.037481
#
#
# Mechanical properties :
#
#
# Convention : Reuss Voigt Hill
#
# Bulk Modulus (GPa) = 42.54272 51.40811 46.97542
# Shear Modulus (GPa) = 24.62664 26.47612 25.55138
#
# Velocity S-wave (km/s) = 3.55749 3.68865 3.62366
# Velocity P-wave (km/s) = 6.22391 6.67535 6.45358
#
# Compressibility (1/GPa) = 0.02350578
#
# Stress axis : x y z
#
# Youngs Moduli (GPa) = 48.77246 48.76544 110.57358
#
# Poissons Ratio (x) = 0.26491 0.43348
# Poissons Ratio (y) = 0.26494 0.43359
# Poissons Ratio (z) = 0.19120 0.19122
#
# Static dielectric constant tensor:
#      x y z
#    x 1.690180 0.000000 0.000000 
#    y 0.000000 1.690200 0.000000 
#    z 0.000000 0.000000 1.775600 
# 
# From -- ./inp_files/12939.got.cif
#   From: 2010.05.17/outbox.cif.g08.bks.cpg/sg141_7_cif.got.tgz:12939.got - 2010.05.20 13:30:51.
