data_PCOD9573009
_publ_section_title
;
Structure prediction by ZEFSAII (Michael W. Deem and Ramdas Pophale) SiO2 
 PCOD9573009
Probable space group: I 41/A M D
;
_chemical_formula_sum "Si O2"
_cell_formula_units_Z 128
_cell_length_a 23.871979
_cell_length_b 23.871979
_cell_length_c 11.490733
_cell_angle_alpha 90.000000
_cell_angle_beta 90.000000
_cell_angle_gamma 90.000000
_cell_volume 6548.239888
_symmetry_space_group_name_H-M "I 41/A M D"
_symmetry_group_IT_number 141
_space_group.IT_coordinate_system_code '2'
_symmetry_cell_setting 'tetragonal'
loop_
_space_group_symop_operation_xyz
x,y,z
1/4-y,3/4+x,1/4+z
-x,1/2-y,z
1/4+y,1/4-x,3/4+z
x,-y,-z
-x,1/2+y,-z
1/4+y,3/4+x,1/4-z
1/4-y,1/4-x,3/4-z
-x,-y,-z
3/4+y,1/4-x,3/4-z
x,1/2+y,-z
3/4-y,3/4+x,1/4-z
-x,y,z
x,1/2-y,z
3/4-y,1/4-x,3/4+z
3/4+y,3/4+x,1/4+z
1/2+x,1/2+y,1/2+z
3/4-y,1/4+x,3/4+z
1/2-x,-y,1/2+z
3/4+y,3/4-x,1/4+z
1/2+x,1/2-y,1/2-z
1/2-x,y,1/2-z
3/4+y,1/4+x,3/4-z
3/4-y,3/4-x,1/4-z
1/2-x,1/2-y,1/2-z
1/4+y,3/4-x,1/4-z
1/2+x,y,1/2-z
1/4-y,1/4+x,3/4-z
1/2-x,1/2+y,1/2+z
1/2+x,-y,1/2+z
1/4-y,3/4-x,1/4+z
1/4+y,1/4+x,3/4+z
loop_
_atom_site_type_symbol
_atom_site_label
_atom_site_fract_x
_atom_site_fract_y
_atom_site_fract_z
Si Si1 0.191939 0.811519 0.677395
Si Si2 0.391207 0.993111 0.281207
Si Si3 0.352457 0.316074 0.696342
Si Si4 0.849588 0.099984 0.602148
O O1 0.165321 0.750000 0.687343
O O2 0.250000 0.810212 0.750000
O O3 0.213356 0.822406 0.546364
O O4 0.156266 0.860098 0.740382
O O5 0.420427 0.956957 0.382212
O O6 0.368734 0.947442 0.191680
O O7 0.342896 0.034124 0.325551
O O8 0.361509 0.250000 0.695094
O O9 0.400192 0.349809 0.625000
O O10 0.353405 0.342390 0.825087
#
# Coordination Sequence:
#
# PCOD9573009 Si02
#       4
#    32  32  32  32
#     4   9  18  34  56  79 106 143 187 235 284 339
#     4  10  20  37  56  80 114 153 197 238 288 350
#     4  10  22  39  59  84 114 148 189 238 292 352
#     4  10  21  36  55  83 114 148 190 239 294 347
#
# _framework density 19.547238
#
# number of rings (size 3 to 8) (size 9 to 14) (size 15 to 20)
#    0.000    2.250    0.000    2.250    0.000    9.250 
#    0.000   35.000    0.000    0.000    0.000    0.000 
#    0.000    0.000    0.000    0.000    0.000    0.000 
#
# Total GULP energy -356604.247473 kJ/mol
# GULP energy per Si atom -5571.941367 kJ/mol
# Density = 1.950275 g / cm^3
# Si number density = 19.547238 Si / 1000 Ang^3
#
#
#
# Elastic Constant Matrix: (Units=GPa)
#
#
# Indices 1 2 3 4 5 6 
#
# 1 98.9905 64.8923 52.7479 0.0000 0.0000 0.0000
# 2 64.8923 98.9858 52.7476 0.0000 0.0000 0.0000
# 3 52.7479 52.7476 106.0312 0.0000 0.0000 0.0000
# 4 0.0000 0.0000 0.0000 13.1465 0.0000 0.0000
# 5 0.0000 0.0000 0.0000 0.0000 13.1459 0.0000
# 6 0.0000 0.0000 0.0000 0.0000 0.0000 16.6419
#
#
#
# Elastic Compliance Matrix: (Units=1/GPa)
#
#
# Indices 1 2 3 4 5 6 
#
# 1 0.019152 -0.010176 -0.004465 0.000000 0.000000 0.000000
# 2 -0.010176 0.019153 -0.004466 0.000000 0.000000 0.000000
# 3 -0.004465 -0.004466 0.013874 0.000000 0.000000 0.000000
# 4 0.000000 0.000000 0.000000 0.076066 0.000000 0.000000
# 5 0.000000 0.000000 0.000000 0.000000 0.076069 0.000000
# 6 0.000000 0.000000 0.000000 0.000000 0.000000 0.060089
#
#
# Mechanical properties :
#
#
# Convention : Reuss Voigt Hill
#
# Bulk Modulus (GPa) = 71.60752 71.64258 71.62505
# Shear Modulus (GPa) = 16.27208 17.49484 16.88346
#
# Velocity S-wave (km/s) = 2.88835 2.99491 2.94211
# Velocity P-wave (km/s) = 6.91636 6.97781 6.94715
#
# Compressibility (1/GPa) = 0.01396501
#
# Stress axis : x y z
#
# Youngs Moduli (GPa) = 52.21300 52.20980 72.07563
#
# Poissons Ratio (x) = 0.53130 0.32185
# Poissons Ratio (y) = 0.53133 0.32189
# Poissons Ratio (z) = 0.23315 0.23317
#
# Static dielectric constant tensor:
#      x y z
#    x 1.697510 0.000000 0.000000 
#    y 0.000000 1.697510 0.000000 
#    z 0.000000 0.000000 1.772110 
# 
# From -- ./inp_files/4561.got.cif
#   From: 2010.05.17/outbox.cif.g08.bks.cpg/sg141_3_cif.got.tgz:4561.got - 2010.05.20 13:30:51.
