data_PCOD9573680
_publ_section_title
;
Structure prediction by ZEFSAII (Michael W. Deem and Ramdas Pophale) SiO2 
 PCOD9573680
Probable space group: I 41/A C D
;
_chemical_formula_sum "Si O2"
_cell_formula_units_Z 192
_cell_length_a 26.071235
_cell_length_b 26.071235
_cell_length_c 14.101737
_cell_angle_alpha 90.000000
_cell_angle_beta 90.000000
_cell_angle_gamma 90.000000
_cell_volume 9585.081706
_symmetry_space_group_name_H-M "I 41/A C D"
_symmetry_group_IT_number 142
_space_group.IT_coordinate_system_code '2'
_symmetry_cell_setting 'tetragonal'
loop_
_space_group_symop_operation_xyz
x,y,z
1/4-y,3/4+x,1/4+z
-x,1/2-y,z
1/4+y,1/4-x,3/4+z
x,-y,1/2-z
1/2-x,y,-z
3/4+y,1/4+x,1/4-z
1/4-y,1/4-x,1/4-z
-x,-y,-z
3/4+y,1/4-x,3/4-z
x,1/2+y,-z
3/4-y,3/4+x,1/4-z
-x,y,1/2+z
1/2+x,-y,z
1/4-y,3/4-x,3/4+z
3/4+y,3/4+x,3/4+z
1/2+x,1/2+y,1/2+z
3/4-y,1/4+x,3/4+z
1/2-x,-y,1/2+z
3/4+y,3/4-x,1/4+z
1/2+x,1/2-y,-z
-x,1/2+y,1/2-z
1/4+y,3/4+x,3/4-z
3/4-y,3/4-x,3/4-z
1/2-x,1/2-y,1/2-z
1/4+y,3/4-x,1/4-z
1/2+x,y,1/2-z
1/4-y,1/4+x,3/4-z
1/2-x,1/2+y,z
x,1/2-y,1/2+z
3/4-y,1/4-x,1/4+z
1/4+y,1/4+x,1/4+z
loop_
_atom_site_type_symbol
_atom_site_label
_atom_site_fract_x
_atom_site_fract_y
_atom_site_fract_z
Si Si1 0.907670 0.157670 0.625000
Si Si2 0.250000 0.539000 0.500000
Si Si3 0.368900 0.079841 0.724492
Si Si4 0.216797 0.320220 0.303106
Si Si5 0.262542 0.620683 0.356768
Si Si6 0.679044 0.761205 0.153135
Si Si7 0.250000 0.791062 0.000000
Si Si8 0.703976 0.046025 0.375000
O O1 0.878336 0.141001 0.529825
O O2 0.877645 0.213310 0.641157
O O3 0.234394 0.579453 0.421081
O O4 0.211745 0.500398 0.552647
O O5 0.409295 0.057263 0.650445
O O6 0.317129 0.097539 0.672291
O O7 0.347365 0.045223 0.812247
O O8 0.225937 0.365235 0.229022
O O9 0.183972 0.278703 0.241866
O O10 0.274919 0.300659 0.321344
O O11 0.271704 0.672296 0.417372
O O12 0.703548 0.738235 0.054592
#
# Coordination Sequence:
#
# PCOD9573680 Si02
#       8
#    16  16  32  32  32  32  16  16
#     4  11  22  38  62 100 119 147 214 284 320 405
#     4  11  24  34  45  74 120 184 215 264 297 344
#     4  11  24  38  56  88 125 166 221 263 307 382
#     4  10  22  40  61  85 126 175 211 271 325 385
#     4  10  22  38  53  81 124 171 235 250 303 382
#     4  10  20  39  63  90 123 159 216 269 343 386
#     4   9  20  40  61  84 122 180 205 264 317 390
#     4  11  26  36  50  78 128 185 223 251 306 355
#
# _framework density 20.031127000000001
#
# number of rings (size 3 to 8) (size 9 to 14) (size 15 to 20)
#    0.000    1.667    1.667    2.000    7.000    1.333 
#    0.000    0.000    0.000    0.000    0.000    2.333 
#    0.000    0.000    0.000    0.000    0.000    0.000 
#
# Total GULP energy -534582.566996 kJ/mol
# GULP energy per Si atom -5568.568406 kJ/mol
# Density = 1.998554 g / cm^3
# Si number density = 20.031127 Si / 1000 Ang^3
#
#
#
# Elastic Constant Matrix: (Units=GPa)
#
#
# Indices 1 2 3 4 5 6 
#
# 1 83.2751 38.9147 49.3077 0.0000 0.0000 0.0000
# 2 38.9147 83.2755 49.3074 0.0000 0.0000 0.0000
# 3 49.3077 49.3074 134.7503 0.0000 0.0000 0.0000
# 4 0.0000 0.0000 0.0000 40.9782 0.0000 0.0000
# 5 0.0000 0.0000 0.0000 0.0000 40.9781 0.0000
# 6 0.0000 0.0000 0.0000 0.0000 0.0000 24.2011
#
#
#
# Elastic Compliance Matrix: (Units=1/GPa)
#
#
# Indices 1 2 3 4 5 6 
#
# 1 0.017078 -0.005464 -0.004250 0.000000 0.000000 0.000000
# 2 -0.005464 0.017078 -0.004250 0.000000 0.000000 0.000000
# 3 -0.004250 -0.004250 0.010531 0.000000 0.000000 0.000000
# 4 0.000000 0.000000 0.000000 0.024403 0.000000 0.000000
# 5 0.000000 0.000000 0.000000 0.000000 0.024403 0.000000
# 6 0.000000 0.000000 0.000000 0.000000 0.000000 0.041320
#
#
# Mechanical properties :
#
#
# Convention : Reuss Voigt Hill
#
# Bulk Modulus (GPa) = 59.66597 64.04005 61.85301
# Shear Modulus (GPa) = 29.70384 32.14957 30.92671
#
# Velocity S-wave (km/s) = 3.85500 4.01057 3.93355
# Velocity P-wave (km/s) = 7.04741 7.31340 7.18164
#
# Compressibility (1/GPa) = 0.01675997
#
# Stress axis : x y z
#
# Youngs Moduli (GPa) = 58.55422 58.55470 94.95597
#
# Poissons Ratio (x) = 0.31997 0.40354
# Poissons Ratio (y) = 0.31996 0.40353
# Poissons Ratio (z) = 0.24884 0.24884
#
# Static dielectric constant tensor:
#      x y z
#    x 1.763460 0.000000 0.000000 
#    y 0.000000 1.763460 0.000000 
#    z 0.000000 0.000000 1.923920 
# 
# From -- ./inp_files/5788.got.cif
#   From: 2010.05.17/outbox.cif.g08.bks.cpg/sg142_3_cif.got.tgz:5788.got - 2010.05.20 13:39:18.
