data_PCOD9573890
_publ_section_title
;
Structure prediction by ZEFSAII (Michael W. Deem and Ramdas Pophale) SiO2 
 PCOD9573890
Probable space group: I 41/A C D
;
_chemical_formula_sum "Si O2"
_cell_formula_units_Z 176
_cell_length_a 18.265430
_cell_length_b 18.265430
_cell_length_c 25.946176
_cell_angle_alpha 90.000000
_cell_angle_beta 90.000000
_cell_angle_gamma 90.000000
_cell_volume 8656.317178
_symmetry_space_group_name_H-M "I 41/A C D"
_symmetry_group_IT_number 142
_space_group.IT_coordinate_system_code '2'
_symmetry_cell_setting 'tetragonal'
loop_
_space_group_symop_operation_xyz
x,y,z
1/4-y,3/4+x,1/4+z
-x,1/2-y,z
1/4+y,1/4-x,3/4+z
x,-y,1/2-z
1/2-x,y,-z
3/4+y,1/4+x,1/4-z
1/4-y,1/4-x,1/4-z
-x,-y,-z
3/4+y,1/4-x,3/4-z
x,1/2+y,-z
3/4-y,3/4+x,1/4-z
-x,y,1/2+z
1/2+x,-y,z
1/4-y,3/4-x,3/4+z
3/4+y,3/4+x,3/4+z
1/2+x,1/2+y,1/2+z
3/4-y,1/4+x,3/4+z
1/2-x,-y,1/2+z
3/4+y,3/4-x,1/4+z
1/2+x,1/2-y,-z
-x,1/2+y,1/2-z
1/4+y,3/4+x,3/4-z
3/4-y,3/4-x,3/4-z
1/2-x,1/2-y,1/2-z
1/4+y,3/4-x,1/4-z
1/2+x,y,1/2-z
1/4-y,1/4+x,3/4-z
1/2-x,1/2+y,z
x,1/2-y,1/2+z
3/4-y,1/4-x,1/4+z
1/4+y,1/4+x,1/4+z
loop_
_atom_site_type_symbol
_atom_site_label
_atom_site_fract_x
_atom_site_fract_y
_atom_site_fract_z
Si Si1 0.804028 0.294875 0.048143
Si Si2 0.708642 0.681445 0.226300
Si Si3 0.173193 0.130369 0.830964
Si Si4 0.039869 0.046262 0.880051
Si Si5 0.933935 0.694827 0.933873
Si Si6 0.826470 0.076470 0.625000
O O1 0.758387 0.249516 0.090499
O O2 0.869358 0.238026 0.037037
O O3 0.837839 0.366302 0.077340
O O4 0.750000 0.311727 0.000000
O O5 0.750000 0.750000 0.250000
O O6 0.695103 0.622472 0.270854
O O7 0.753514 0.664828 0.174522
O O8 0.628072 0.706756 0.212001
O O9 0.097539 0.095257 0.849301
O O10 0.167578 0.217629 0.843839
O O11 0.242949 0.093935 0.859512
O O12 0.919223 0.669223 0.875000
O O13 0.000000 0.750000 0.931188
#
# Coordination Sequence:
#
# PCOD9573890 Si02
#       6
#    32  32  32  32  32  16
#     4  11  23  41  69  98 139 174 239 295 344 419
#     4  10  22  42  63  95 136 175 218 285 345 403
#     4  10  23  42  68  92 133 182 220 279 357 412
#     4  10  22  43  62  96 137 172 228 288 327 428
#     4  11  22  39  71 101 131 180 228 284 346 412
#     4  10  24  44  65  96 134 181 230 288 354 420
#
# _framework density 20.331972
#
# number of rings (size 3 to 8) (size 9 to 14) (size 15 to 20)
#    0.000    1.636    1.818    2.182    5.091    4.727 
#   13.091    2.727    0.000    0.000    0.000    0.000 
#    0.000    0.000    0.000    0.000    0.000    0.000 
#
# Total GULP energy -490347.563603 kJ/mol
# GULP energy per Si atom -5572.131405 kJ/mol
# Density = 2.028570 g / cm^3
# Si number density = 20.331972 Si / 1000 Ang^3
#
#
#
# Elastic Constant Matrix: (Units=GPa)
#
#
# Indices 1 2 3 4 5 6 
#
# 1 82.4821 56.5923 26.7087 0.0000 0.0000 0.0000
# 2 56.5923 82.4821 26.7087 0.0000 0.0000 0.0000
# 3 26.7087 26.7087 90.3683 0.0000 0.0000 0.0000
# 4 0.0000 0.0000 0.0000 1.4355 0.0000 0.0000
# 5 0.0000 0.0000 0.0000 0.0000 1.4355 0.0000
# 6 0.0000 0.0000 0.0000 0.0000 0.0000 25.6659
#
#
#
# Elastic Compliance Matrix: (Units=1/GPa)
#
#
# Indices 1 2 3 4 5 6 
#
# 1 0.023368 -0.015257 -0.002397 0.000000 0.000000 0.000000
# 2 -0.015257 0.023368 -0.002397 0.000000 0.000000 0.000000
# 3 -0.002397 -0.002397 0.012483 0.000000 0.000000 0.000000
# 4 0.000000 0.000000 0.000000 0.696598 0.000000 0.000000
# 5 0.000000 0.000000 0.000000 0.000000 0.696599 0.000000
# 6 0.000000 0.000000 0.000000 0.000000 0.000000 0.038962
#
#
# Mechanical properties :
#
#
# Convention : Reuss Voigt Hill
#
# Bulk Modulus (GPa) = 52.31198 52.81687 52.56442
# Shear Modulus (GPa) = 3.25128 15.39558 9.32343
#
# Velocity S-wave (km/s) = 1.26593 2.75473 2.14372
# Velocity P-wave (km/s) = 5.28408 6.01263 5.66009
#
# Compressibility (1/GPa) = 0.01911608
#
# Stress axis : x y z
#
# Youngs Moduli (GPa) = 42.79323 42.79323 80.10964
#
# Poissons Ratio (x) = 0.65290 0.19205
# Poissons Ratio (y) = 0.65290 0.19205
# Poissons Ratio (z) = 0.10259 0.10259
#
# Static dielectric constant tensor:
#      x y z
#    x 1.714090 0.000000 0.000000 
#    y 0.000000 1.714090 0.000000 
#    z 0.000000 0.000000 1.948160 
# 
# From -- ./inp_files/11482.got.cif
#   From: 2010.05.17/outbox.cif.g08.bks.cpg/sg142_6_cif.got.tgz:11482.got - 2010.05.20 13:39:18.
