data_PCOD9573551
_publ_section_title
;
Structure prediction by ZEFSAII (Michael W. Deem and Ramdas Pophale) SiO2 
 PCOD9573551
Probable space group: I 41/A C D
;
_chemical_formula_sum "Si O2"
_cell_formula_units_Z 136
_cell_length_a 18.928142
_cell_length_b 18.928142
_cell_length_c 17.187046
_cell_angle_alpha 90.000000
_cell_angle_beta 90.000000
_cell_angle_gamma 90.000000
_cell_volume 6157.681336
_symmetry_space_group_name_H-M "I 41/A C D"
_symmetry_group_IT_number 142
_space_group.IT_coordinate_system_code '2'
_symmetry_cell_setting 'tetragonal'
loop_
_space_group_symop_operation_xyz
x,y,z
1/4-y,3/4+x,1/4+z
-x,1/2-y,z
1/4+y,1/4-x,3/4+z
x,-y,1/2-z
1/2-x,y,-z
3/4+y,1/4+x,1/4-z
1/4-y,1/4-x,1/4-z
-x,-y,-z
3/4+y,1/4-x,3/4-z
x,1/2+y,-z
3/4-y,3/4+x,1/4-z
-x,y,1/2+z
1/2+x,-y,z
1/4-y,3/4-x,3/4+z
3/4+y,3/4+x,3/4+z
1/2+x,1/2+y,1/2+z
3/4-y,1/4+x,3/4+z
1/2-x,-y,1/2+z
3/4+y,3/4-x,1/4+z
1/2+x,1/2-y,-z
-x,1/2+y,1/2-z
1/4+y,3/4+x,3/4-z
3/4-y,3/4-x,3/4-z
1/2-x,1/2-y,1/2-z
1/4+y,3/4-x,1/4-z
1/2+x,y,1/2-z
1/4-y,1/4+x,3/4-z
1/2-x,1/2+y,z
x,1/2-y,1/2+z
3/4-y,1/4-x,1/4+z
1/4+y,1/4+x,1/4+z
loop_
_atom_site_type_symbol
_atom_site_label
_atom_site_fract_x
_atom_site_fract_y
_atom_site_fract_z
Si Si1 0.131805 0.551006 0.079477
Si Si2 0.858926 0.727261 0.287078
Si Si3 0.500000 0.750000 0.625000
Si Si4 0.791491 0.778312 0.431719
Si Si5 0.634518 0.583817 0.987914
O O1 0.070636 0.514362 0.130427
O O2 0.171357 0.593037 0.147761
O O3 0.165407 0.483249 0.035617
O O4 0.090930 0.597991 0.015733
O O5 0.824433 0.723534 0.372469
O O6 0.830813 0.799300 0.245988
O O7 0.936755 0.745310 0.314304
O O8 0.750000 0.741009 0.500000
O O9 0.839479 0.842494 0.469579
#
# Coordination Sequence:
#
# PCOD9573551 Si02
#       5
#    32  32   8  32  32
#     4  10  21  35  65  93 121 161 216 259 313 382
#     4  11  21  39  58  88 126 166 210 262 313 384
#     4  12  24  40  62  80 140 168 198 264 328 372
#     4   9  17  35  64  90 115 165 210 252 311 375
#     4  10  19  38  63  95 120 166 215 258 321 378
#
# _framework density 22.086234999999999
#
# number of rings (size 3 to 8) (size 9 to 14) (size 15 to 20)
#    0.000    1.882    2.353    4.941    0.000    1.882 
#    4.235    0.000   20.706    0.000    0.000    0.000 
#    0.000    0.000    0.000    0.000    0.000    0.000 
#
# Total GULP energy -378780.186886 kJ/mol
# GULP energy per Si atom -5570.296866 kJ/mol
# Density = 2.203597 g / cm^3
# Si number density = 22.086235 Si / 1000 Ang^3
#
#
#
# Elastic Constant Matrix: (Units=GPa)
#
#
# Indices 1 2 3 4 5 6 
#
# 1 72.0349 -22.4143 56.8330 0.0000 0.0000 0.0000
# 2 -22.4143 72.0349 56.8330 0.0000 0.0000 0.0000
# 3 56.8330 56.8330 193.8090 0.0000 0.0000 0.0000
# 4 0.0000 0.0000 0.0000 33.0723 0.0000 0.0000
# 5 0.0000 0.0000 0.0000 0.0000 33.0723 0.0000
# 6 0.0000 0.0000 0.0000 0.0000 0.0000 13.0887
#
#
#
# Elastic Compliance Matrix: (Units=1/GPa)
#
#
# Indices 1 2 3 4 5 6 
#
# 1 0.035990 0.025402 -0.018003 0.000000 0.000000 0.000000
# 2 0.025402 0.035990 -0.018003 0.000000 0.000000 0.000000
# 3 -0.018003 -0.018003 0.015718 0.000000 0.000000 0.000000
# 4 0.000000 0.000000 0.000000 0.030237 0.000000 0.000000
# 5 0.000000 0.000000 0.000000 0.000000 0.030237 0.000000
# 6 0.000000 0.000000 0.000000 0.000000 0.000000 0.076402
#
#
# Mechanical properties :
#
#
# Convention : Reuss Voigt Hill
#
# Bulk Modulus (GPa) = 15.03973 57.82023 36.42998
# Shear Modulus (GPa) = 18.66070 32.28844 25.47457
#
# Velocity S-wave (km/s) = 2.90987 3.82766 3.39988
# Velocity P-wave (km/s) = 4.25607 6.76541 5.65177
#
# Compressibility (1/GPa) = 0.06649057
#
# Stress axis : x y z
#
# Youngs Moduli (GPa) = 27.78582 27.78582 63.62152
#
# Poissons Ratio (x) = -0.70581 1.14535
# Poissons Ratio (y) = -0.70581 1.14535
# Poissons Ratio (z) = 0.50022 0.50022
#
# Static dielectric constant tensor:
#      x y z
#    x 2.400670 0.000000 0.000000 
#    y 0.000000 2.400670 0.000000 
#    z 0.000000 0.000000 1.853780 
# 
# From -- ./inp_files/5333.got.cif
#   From: 2010.05.17/outbox.cif.g08.bks.cpg/sg142_3_cif.got.tgz:5333.got - 2010.05.20 13:39:18.
