data_PCOD9573579
_publ_section_title
;
Structure prediction by ZEFSAII (Michael W. Deem and Ramdas Pophale) SiO2 
 PCOD9573579
Probable space group: I 41/A C D
;
_chemical_formula_sum "Si O2"
_cell_formula_units_Z 144
_cell_length_a 18.822786
_cell_length_b 18.822786
_cell_length_c 17.081504
_cell_angle_alpha 90.000000
_cell_angle_beta 90.000000
_cell_angle_gamma 90.000000
_cell_volume 6051.930283
_symmetry_space_group_name_H-M "I 41/A C D"
_symmetry_group_IT_number 142
_space_group.IT_coordinate_system_code '2'
_symmetry_cell_setting 'tetragonal'
loop_
_space_group_symop_operation_xyz
x,y,z
1/4-y,3/4+x,1/4+z
-x,1/2-y,z
1/4+y,1/4-x,3/4+z
x,-y,1/2-z
1/2-x,y,-z
3/4+y,1/4+x,1/4-z
1/4-y,1/4-x,1/4-z
-x,-y,-z
3/4+y,1/4-x,3/4-z
x,1/2+y,-z
3/4-y,3/4+x,1/4-z
-x,y,1/2+z
1/2+x,-y,z
1/4-y,3/4-x,3/4+z
3/4+y,3/4+x,3/4+z
1/2+x,1/2+y,1/2+z
3/4-y,1/4+x,3/4+z
1/2-x,-y,1/2+z
3/4+y,3/4-x,1/4+z
1/2+x,1/2-y,-z
-x,1/2+y,1/2-z
1/4+y,3/4+x,3/4-z
3/4-y,3/4-x,3/4-z
1/2-x,1/2-y,1/2-z
1/4+y,3/4-x,1/4-z
1/2+x,y,1/2-z
1/4-y,1/4+x,3/4-z
1/2-x,1/2+y,z
x,1/2-y,1/2+z
3/4-y,1/4-x,1/4+z
1/4+y,1/4+x,1/4+z
loop_
_atom_site_type_symbol
_atom_site_label
_atom_site_fract_x
_atom_site_fract_y
_atom_site_fract_z
Si Si1 0.782632 0.110528 0.365532
Si Si2 0.995070 0.532800 0.912995
Si Si3 0.059701 0.113094 0.867744
Si Si4 0.927301 0.783757 0.261725
Si Si5 0.750000 0.000077 0.500000
O O1 0.725369 0.173536 0.366553
O O2 0.860161 0.137183 0.386917
O O3 0.768262 0.051842 0.429630
O O4 0.788789 0.070406 0.281547
O O5 0.949050 0.472472 0.869291
O O6 0.000000 0.500000 0.000000
O O7 0.967299 0.612564 0.926179
O O8 0.050196 0.142857 0.780235
O O9 0.012940 0.148637 0.936705
O O10 0.000000 0.750000 0.290557
#
# Coordination Sequence:
#
# PCOD9573579 Si02
#       5
#    32  32  32  32  16
#     4  11  21  40  60  92 129 171 235 292 353 431
#     4  10  20  33  58  95 128 176 221 283 351 424
#     4  11  18  32  57  91 130 170 227 280 346 426
#     4  11  18  32  56  97 134 181 230 277 348 433
#     4  10  24  38  62  88 120 174 226 298 354 416
#
# _framework density 23.794060999999999
#
# number of rings (size 3 to 8) (size 9 to 14) (size 15 to 20)
#    0.000    1.333    6.667    2.667    0.000    0.000 
#    0.000    1.111    0.000    0.000   17.333    0.000 
#    0.000    0.000    0.000    0.000    0.000    0.000 
#
# Total GULP energy -401682.377025 kJ/mol
# GULP energy per Si atom -5578.921903 kJ/mol
# Density = 2.373991 g / cm^3
# Si number density = 23.794061 Si / 1000 Ang^3
#
#
#
# Elastic Constant Matrix: (Units=GPa)
#
#
# Indices 1 2 3 4 5 6 
#
# 1 129.4633 47.7664 40.8827 0.0000 0.0000 0.0000
# 2 47.7664 129.4633 40.8827 0.0000 0.0000 0.0000
# 3 40.8827 40.8827 77.2430 0.0000 0.0000 0.0000
# 4 0.0000 0.0000 0.0000 -44.4331 0.0000 0.0000
# 5 0.0000 0.0000 0.0000 0.0000 -44.4331 0.0000
# 6 0.0000 0.0000 0.0000 0.0000 0.0000 33.6782
#
#
#
# Elastic Compliance Matrix: (Units=1/GPa)
#
#
# Indices 1 2 3 4 5 6 
#
# 1 0.009853 -0.002388 -0.003951 0.000000 0.000000 0.000000
# 2 -0.002388 0.009853 -0.003951 0.000000 0.000000 0.000000
# 3 -0.003951 -0.003951 0.017129 0.000000 0.000000 0.000000
# 4 0.000000 0.000000 0.000000 -0.022506 0.000000 0.000000
# 5 0.000000 0.000000 0.000000 0.000000 -0.022506 0.000000
# 6 0.000000 0.000000 0.000000 0.000000 0.000000 0.029693
#
#
# Mechanical properties :
#
#
# Convention : Reuss Voigt Hill
#
# Bulk Modulus (GPa) = 61.52139 66.13705 63.82922
# Shear Modulus (GPa) = 105.23308 2.73826 53.98567
#
# Velocity S-wave (km/s) = 6.65752 1.07393 4.76844
# Velocity P-wave (km/s) = 9.22002 5.42160 7.56315
#
# Compressibility (1/GPa) = 0.01625451
#
# Stress axis : x y z
#
# Youngs Moduli (GPa) = 101.49372 101.49372 58.38164
#
# Poissons Ratio (x) = 0.24232 0.23068
# Poissons Ratio (y) = 0.24232 0.23068
# Poissons Ratio (z) = 0.40102 0.40102
#
# Static dielectric constant tensor:
#      x y z
#    x 2.044670 0.000000 0.000000 
#    y 0.000000 2.044670 0.000000 
#    z 0.000000 0.000000 1.943470 
# 
# From -- ./inp_files/7245.got.cif
#   From: 2010.05.17/outbox.cif.g08.bks.cpg/sg142_4_cif.got.tgz:7245.got - 2010.05.20 13:39:18.
