data_PCOD9573138
_publ_section_title
;
Structure prediction by ZEFSAII (Michael W. Deem and Ramdas Pophale) SiO2 
 PCOD9573138
Probable space group: I 41/A M D
;
_chemical_formula_sum "Si O2"
_cell_formula_units_Z 176
_cell_length_a 27.723823
_cell_length_b 27.723823
_cell_length_c 11.272078
_cell_angle_alpha 90.000000
_cell_angle_beta 90.000000
_cell_angle_gamma 90.000000
_cell_volume 8663.835949
_symmetry_space_group_name_H-M "I 41/A M D"
_symmetry_group_IT_number 141
_space_group.IT_coordinate_system_code '2'
_symmetry_cell_setting 'tetragonal'
loop_
_space_group_symop_operation_xyz
x,y,z
1/4-y,3/4+x,1/4+z
-x,1/2-y,z
1/4+y,1/4-x,3/4+z
x,-y,-z
-x,1/2+y,-z
1/4+y,3/4+x,1/4-z
1/4-y,1/4-x,3/4-z
-x,-y,-z
3/4+y,1/4-x,3/4-z
x,1/2+y,-z
3/4-y,3/4+x,1/4-z
-x,y,z
x,1/2-y,z
3/4-y,1/4-x,3/4+z
3/4+y,3/4+x,1/4+z
1/2+x,1/2+y,1/2+z
3/4-y,1/4+x,3/4+z
1/2-x,-y,1/2+z
3/4+y,3/4-x,1/4+z
1/2+x,1/2-y,1/2-z
1/2-x,y,1/2-z
3/4+y,1/4+x,3/4-z
3/4-y,3/4-x,1/4-z
1/2-x,1/2-y,1/2-z
1/4+y,3/4-x,1/4-z
1/2+x,y,1/2-z
1/4-y,1/4+x,3/4-z
1/2-x,1/2+y,1/2+z
1/2+x,-y,1/2+z
1/4-y,3/4-x,1/4+z
1/4+y,1/4+x,3/4+z
loop_
_atom_site_type_symbol
_atom_site_label
_atom_site_fract_x
_atom_site_fract_y
_atom_site_fract_z
Si Si1 0.894599 0.155804 0.518457
Si Si2 0.083465 0.518686 0.121258
Si Si3 0.772796 0.250000 0.057631
Si Si4 0.316096 0.912749 0.114098
Si Si5 0.500000 0.373844 0.945887
Si Si6 0.722285 0.500000 0.000000
Si Si7 0.341316 0.750000 0.959270
Si Si8 0.165111 0.915111 0.125000
O O1 0.896620 0.146620 0.375000
O O2 0.865237 0.114494 0.585883
O O3 0.949042 0.154430 0.572249
O O4 0.860664 0.203230 0.529490
O O5 0.125924 0.479109 0.141160
O O6 0.110227 0.569579 0.106513
O O7 0.047446 0.524682 0.227512
O O8 0.059505 0.500000 0.000000
O O9 0.821480 0.250000 0.139090
O O10 0.714618 0.250000 0.085131
O O11 0.309661 0.952750 0.014536
O O12 0.318665 0.935586 0.246647
O O13 0.500000 0.380203 0.086881
O O14 0.749424 0.499424 0.125000
#
# Coordination Sequence:
#
# PCOD9573138 Si02
#       8
#    32  32  16  32  16  16  16  16
#     4  10  21  41  62  89 124 159 212 267 329 398
#     4  10  22  36  61  86 120 163 212 262 317 386
#     4  12  20  40  62  92 123 162 211 261 331 380
#     4  11  22  40  58  87 122 167 210 265 322 386
#     4  10  23  36  61  91 124 162 202 265 331 397
#     4  12  28  38  58  85 122 175 222 264 322 390
#     4  10  21  40  63  91 121 162 211 268 325 391
#     4  10  22  38  60  84 124 161 210 260 318 384
#
# _framework density 20.314326000000001
#
# number of rings (size 3 to 8) (size 9 to 14) (size 15 to 20)
#    0.000    1.455    1.818    3.273    6.364    0.364 
#    6.545    1.818    0.000    0.000    0.000    0.000 
#    0.000    1.455    0.000    0.000    0.000    0.000 
#
# Total GULP energy -489906.260664 kJ/mol
# GULP energy per Si atom -5567.116598 kJ/mol
# Density = 2.026809 g / cm^3
# Si number density = 20.314326 Si / 1000 Ang^3
#
#
#
# Elastic Constant Matrix: (Units=GPa)
#
#
# Indices 1 2 3 4 5 6 
#
# 1 55.5667 7.4263 27.3592 0.0000 0.0000 0.0000
# 2 7.4263 55.5667 27.3592 0.0000 0.0000 0.0000
# 3 27.3592 27.3592 96.0786 0.0000 0.0000 0.0000
# 4 0.0000 0.0000 0.0000 30.3212 0.0000 0.0000
# 5 0.0000 0.0000 0.0000 0.0000 30.3212 0.0000
# 6 0.0000 0.0000 0.0000 0.0000 0.0000 31.0411
#
#
#
# Elastic Compliance Matrix: (Units=1/GPa)
#
#
# Indices 1 2 3 4 5 6 
#
# 1 0.020932 0.000160 -0.006006 0.000000 0.000000 0.000000
# 2 0.000160 0.020932 -0.006006 0.000000 0.000000 0.000000
# 3 -0.006006 -0.006006 0.013829 0.000000 0.000000 0.000000
# 4 0.000000 0.000000 0.000000 0.032980 0.000000 0.000000
# 5 0.000000 0.000000 0.000000 0.000000 0.032980 0.000000
# 6 0.000000 0.000000 0.000000 0.000000 0.000000 0.032215
#
#
# Mechanical properties :
#
#
# Convention : Reuss Voigt Hill
#
# Bulk Modulus (GPa) = 31.26158 36.83349 34.04753
# Shear Modulus (GPa) = 26.56229 28.00786 27.28508
#
# Velocity S-wave (km/s) = 3.61995 3.71715 3.66887
# Velocity P-wave (km/s) = 5.73536 6.04930 5.89442
#
# Compressibility (1/GPa) = 0.03198815
#
# Stress axis : x y z
#
# Youngs Moduli (GPa) = 47.77320 47.77320 72.31326
#
# Poissons Ratio (x) = -0.00763 0.43432
# Poissons Ratio (y) = -0.00763 0.43432
# Poissons Ratio (z) = 0.28693 0.28693
#
# Static dielectric constant tensor:
#      x y z
#    x 1.786570 0.000000 0.000000 
#    y 0.000000 1.786570 0.000000 
#    z 0.000000 0.000000 1.741900 
# 
# From -- ./inp_files/5118.got.cif
#   From: 2010.05.17/outbox.cif.g08.bks.cpg/sg141_3_cif.got.tgz:5118.got - 2010.05.20 13:30:51.
