data_PCOD9573015
_publ_section_title
;
Structure prediction by ZEFSAII (Michael W. Deem and Ramdas Pophale) SiO2 
 PCOD9573015
Probable space group: I 41/A M D
;
_chemical_formula_sum "Si O2"
_cell_formula_units_Z 96
_cell_length_a 16.628038
_cell_length_b 16.628038
_cell_length_c 14.080519
_cell_angle_alpha 90.000000
_cell_angle_beta 90.000000
_cell_angle_gamma 90.000000
_cell_volume 3893.145899
_symmetry_space_group_name_H-M "I 41/A M D"
_symmetry_group_IT_number 141
_space_group.IT_coordinate_system_code '2'
_symmetry_cell_setting 'tetragonal'
loop_
_space_group_symop_operation_xyz
x,y,z
1/4-y,3/4+x,1/4+z
-x,1/2-y,z
1/4+y,1/4-x,3/4+z
x,-y,-z
-x,1/2+y,-z
1/4+y,3/4+x,1/4-z
1/4-y,1/4-x,3/4-z
-x,-y,-z
3/4+y,1/4-x,3/4-z
x,1/2+y,-z
3/4-y,3/4+x,1/4-z
-x,y,z
x,1/2-y,z
3/4-y,1/4-x,3/4+z
3/4+y,3/4+x,1/4+z
1/2+x,1/2+y,1/2+z
3/4-y,1/4+x,3/4+z
1/2-x,-y,1/2+z
3/4+y,3/4-x,1/4+z
1/2+x,1/2-y,1/2-z
1/2-x,y,1/2-z
3/4+y,1/4+x,3/4-z
3/4-y,3/4-x,1/4-z
1/2-x,1/2-y,1/2-z
1/4+y,3/4-x,1/4-z
1/2+x,y,1/2-z
1/4-y,1/4+x,3/4-z
1/2-x,1/2+y,1/2+z
1/2+x,-y,1/2+z
1/4-y,3/4-x,1/4+z
1/4+y,1/4+x,3/4+z
loop_
_atom_site_type_symbol
_atom_site_label
_atom_site_fract_x
_atom_site_fract_y
_atom_site_fract_z
Si Si1 0.596406 0.250000 0.751901
Si Si2 0.093760 0.250000 0.520557
Si Si3 0.165486 0.589826 0.802177
Si Si4 0.826998 0.153161 0.983953
O O1 0.500000 0.250000 0.736269
O O2 0.607631 0.250000 0.864896
O O3 0.628473 0.332879 0.711449
O O4 0.128022 0.162689 0.493861
O O5 0.000000 0.250000 0.500078
O O6 0.250000 0.597085 0.750000
O O7 0.176098 0.634993 0.902320
O O8 0.142310 0.496594 0.813512
O O9 0.821330 0.250000 0.972172
#
# Coordination Sequence:
#
# PCOD9573015 Si02
#       4
#    16  16  32  32
#     4   7  14  30  55  83 114 157 203 258 318 388
#     4   9  18  34  56  84 119 171 212 257 333 401
#     4  11  21  36  59  90 131 171 224 277 334 409
#     4  10  20  37  61  92 131 174 222 273 340 409
#
# _framework density 24.658722000000001
#
# number of rings (size 3 to 8) (size 9 to 14) (size 15 to 20)
#    0.000    2.333    1.667    4.000    0.000    2.667 
#    0.000    0.833    0.000    2.000    0.000    0.000 
#    0.000    0.000    0.000    0.000    0.000    0.000 
#
# Total GULP energy -268487.791608 kJ/mol
# GULP energy per Si atom -5593.495658 kJ/mol
# Density = 2.460260 g / cm^3
# Si number density = 24.658722 Si / 1000 Ang^3
#
#
#
# Elastic Constant Matrix: (Units=GPa)
#
#
# Indices 1 2 3 4 5 6 
#
# 1 191.0745 58.7044 28.7756 0.0000 0.0000 0.0000
# 2 58.7044 191.0745 28.7756 0.0000 0.0000 0.0000
# 3 28.7756 28.7756 63.3956 0.0000 0.0000 0.0000
# 4 0.0000 0.0000 0.0000 27.1621 0.0000 0.0000
# 5 0.0000 0.0000 0.0000 0.0000 27.1621 0.0000
# 6 0.0000 0.0000 0.0000 0.0000 0.0000 44.4711
#
#
#
# Elastic Compliance Matrix: (Units=1/GPa)
#
#
# Indices 1 2 3 4 5 6 
#
# 1 0.006013 -0.001542 -0.002029 0.000000 0.000000 0.000000
# 2 -0.001542 0.006013 -0.002029 0.000000 0.000000 0.000000
# 3 -0.002029 -0.002029 0.017616 0.000000 0.000000 0.000000
# 4 0.000000 0.000000 0.000000 0.036816 0.000000 0.000000
# 5 0.000000 0.000000 0.000000 0.000000 0.036816 0.000000
# 6 0.000000 0.000000 0.000000 0.000000 0.000000 0.022487
#
#
# Mechanical properties :
#
#
# Convention : Reuss Voigt Hill
#
# Bulk Modulus (GPa) = 54.22780 75.33954 64.78367
# Shear Modulus (GPa) = 34.93843 41.71166 38.32504
#
# Velocity S-wave (km/s) = 3.76823 4.11732 3.94663
# Velocity P-wave (km/s) = 6.40092 7.29536 6.86273
#
# Compressibility (1/GPa) = 0.01844073
#
# Stress axis : x y z
#
# Youngs Moduli (GPa) = 166.31018 166.31018 56.76549
#
# Poissons Ratio (x) = 0.25640 0.11520
# Poissons Ratio (y) = 0.25640 0.11520
# Poissons Ratio (z) = 0.33752 0.33752
#
# Static dielectric constant tensor:
#      x y z
#    x 1.965400 0.000000 0.000000 
#    y 0.000000 1.965400 0.000000 
#    z 0.000000 0.000000 1.988720 
# 
# From -- ./inp_files/7732.got.cif
#   From: 2010.05.17/outbox.cif.g08.bks.cpg/sg141_4_cif.got.tgz:7732.got - 2010.05.20 13:30:51.
