data_PCOD9573888
_publ_section_title
;
Structure prediction by ZEFSAII (Michael W. Deem and Ramdas Pophale) SiO2 
 PCOD9573888
Probable space group: I 41/A C D
;
_chemical_formula_sum "Si O2"
_cell_formula_units_Z 176
_cell_length_a 26.158818
_cell_length_b 26.158818
_cell_length_c 11.719425
_cell_angle_alpha 90.000000
_cell_angle_beta 90.000000
_cell_angle_gamma 90.000000
_cell_volume 8019.412194
_symmetry_space_group_name_H-M "I 41/A C D"
_symmetry_group_IT_number 142
_space_group.IT_coordinate_system_code '2'
_symmetry_cell_setting 'tetragonal'
loop_
_space_group_symop_operation_xyz
x,y,z
1/4-y,3/4+x,1/4+z
-x,1/2-y,z
1/4+y,1/4-x,3/4+z
x,-y,1/2-z
1/2-x,y,-z
3/4+y,1/4+x,1/4-z
1/4-y,1/4-x,1/4-z
-x,-y,-z
3/4+y,1/4-x,3/4-z
x,1/2+y,-z
3/4-y,3/4+x,1/4-z
-x,y,1/2+z
1/2+x,-y,z
1/4-y,3/4-x,3/4+z
3/4+y,3/4+x,3/4+z
1/2+x,1/2+y,1/2+z
3/4-y,1/4+x,3/4+z
1/2-x,-y,1/2+z
3/4+y,3/4-x,1/4+z
1/2+x,1/2-y,-z
-x,1/2+y,1/2-z
1/4+y,3/4+x,3/4-z
3/4-y,3/4-x,3/4-z
1/2-x,1/2-y,1/2-z
1/4+y,3/4-x,1/4-z
1/2+x,y,1/2-z
1/4-y,1/4+x,3/4-z
1/2-x,1/2+y,z
x,1/2-y,1/2+z
3/4-y,1/4-x,1/4+z
1/4+y,1/4+x,1/4+z
loop_
_atom_site_type_symbol
_atom_site_label
_atom_site_fract_x
_atom_site_fract_y
_atom_site_fract_z
Si Si1 0.229161 0.479161 0.125000
Si Si2 0.103620 0.720203 0.816141
Si Si3 0.077120 0.104410 0.490261
Si Si4 0.391083 0.995142 0.117905
Si Si5 0.072310 0.902241 0.645669
Si Si6 0.964328 0.937918 0.743173
O O1 0.246806 0.500000 0.250000
O O2 0.238130 0.419059 0.135701
O O3 0.052695 0.697306 0.875000
O O4 0.111379 0.780413 0.788188
O O5 0.108631 0.693692 0.692988
O O6 0.152808 0.705410 0.895152
O O7 0.081326 0.051982 0.559893
O O8 0.128891 0.137377 0.484493
O O9 0.068730 0.084306 0.361215
O O10 0.405210 0.000000 0.250000
O O11 0.405290 0.050892 0.072693
O O12 0.021453 0.922828 0.704524
O O13 0.959011 0.000000 0.750000
#
# Coordination Sequence:
#
# PCOD9573888 Si02
#       6
#    16  32  32  32  32  32
#     4  10  22  42  62  94 141 180 226 278 347 422
#     4  11  23  43  65  93 132 170 215 283 338 401
#     4  11  23  41  68  97 130 177 222 272 349 403
#     4  11  22  39  66  99 130 171 225 280 328 403
#     4  11  23  42  66  96 130 170 223 276 332 407
#     4  11  23  41  68  97 129 172 222 275 334 405
#
# _framework density 21.946743999999999
#
# number of rings (size 3 to 8) (size 9 to 14) (size 15 to 20)
#    0.000    1.091    1.818    6.000    0.000    5.091 
#    1.636    3.636    0.000    0.000    0.000    0.000 
#    0.000    0.000    0.000    0.000    0.000    0.000 
#
# Total GULP energy -491422.457420 kJ/mol
# GULP energy per Si atom -5584.346107 kJ/mol
# Density = 2.189679 g / cm^3
# Si number density = 21.946744 Si / 1000 Ang^3
#
#
#
# Elastic Constant Matrix: (Units=GPa)
#
#
# Indices 1 2 3 4 5 6 
#
# 1 78.9632 44.3685 12.4861 0.0000 0.0000 0.0000
# 2 44.3685 78.9584 12.4864 0.0000 0.0000 0.0000
# 3 12.4861 12.4864 81.0984 0.0000 0.0000 0.0000
# 4 0.0000 0.0000 0.0000 29.9160 0.0000 0.0000
# 5 0.0000 0.0000 0.0000 0.0000 29.9160 0.0000
# 6 0.0000 0.0000 0.0000 0.0000 0.0000 35.4965
#
#
#
# Elastic Compliance Matrix: (Units=1/GPa)
#
#
# Indices 1 2 3 4 5 6 
#
# 1 0.018638 -0.010269 -0.001288 0.000000 0.000000 0.000000
# 2 -0.010269 0.018639 -0.001289 0.000000 0.000000 0.000000
# 3 -0.001288 -0.001289 0.012727 0.000000 0.000000 0.000000
# 4 0.000000 0.000000 0.000000 0.033427 0.000000 0.000000
# 5 0.000000 0.000000 0.000000 0.000000 0.033427 0.000000
# 6 0.000000 0.000000 0.000000 0.000000 0.000000 0.028172
#
#
# Mechanical properties :
#
#
# Convention : Reuss Voigt Hill
#
# Bulk Modulus (GPa) = 41.13231 41.96688 41.54960
# Shear Modulus (GPa) = 27.95989 30.37764 29.16876
#
# Velocity S-wave (km/s) = 3.57317 3.72446 3.64960
# Velocity P-wave (km/s) = 5.98381 6.13670 6.06074
#
# Compressibility (1/GPa) = 0.02431179
#
# Stress axis : x y z
#
# Youngs Moduli (GPa) = 53.65350 53.65008 78.57015
#
# Poissons Ratio (x) = 0.55096 0.10123
# Poissons Ratio (y) = 0.55099 0.10125
# Poissons Ratio (z) = 0.06913 0.06914
#
# Static dielectric constant tensor:
#      x y z
#    x 1.855330 0.000000 0.000000 
#    y 0.000000 1.855330 0.000000 
#    z 0.000000 0.000000 1.898730 
# 
# From -- ./inp_files/3977.got.cif
#   From: 2010.05.17/outbox.cif.g08.bks.cpg/sg142_2_cif.got.tgz:3977.got - 2010.05.20 13:39:18.
