data_PCOD9573769
_publ_section_title
;
Structure prediction by ZEFSAII (Michael W. Deem and Ramdas Pophale) SiO2 
 PCOD9573769
Probable space group: I 41/A C D
;
_chemical_formula_sum "Si O2"
_cell_formula_units_Z 112
_cell_length_a 29.871000
_cell_length_b 29.871000
_cell_length_c 5.442795
_cell_angle_alpha 90.000000
_cell_angle_beta 90.000000
_cell_angle_gamma 90.000000
_cell_volume 4856.478840
_symmetry_space_group_name_H-M "I 41/A C D"
_symmetry_group_IT_number 142
_space_group.IT_coordinate_system_code '2'
_symmetry_cell_setting 'tetragonal'
loop_
_space_group_symop_operation_xyz
x,y,z
1/4-y,3/4+x,1/4+z
-x,1/2-y,z
1/4+y,1/4-x,3/4+z
x,-y,1/2-z
1/2-x,y,-z
3/4+y,1/4+x,1/4-z
1/4-y,1/4-x,1/4-z
-x,-y,-z
3/4+y,1/4-x,3/4-z
x,1/2+y,-z
3/4-y,3/4+x,1/4-z
-x,y,1/2+z
1/2+x,-y,z
1/4-y,3/4-x,3/4+z
3/4+y,3/4+x,3/4+z
1/2+x,1/2+y,1/2+z
3/4-y,1/4+x,3/4+z
1/2-x,-y,1/2+z
3/4+y,3/4-x,1/4+z
1/2+x,1/2-y,-z
-x,1/2+y,1/2-z
1/4+y,3/4+x,3/4-z
3/4-y,3/4-x,3/4-z
1/2-x,1/2-y,1/2-z
1/4+y,3/4-x,1/4-z
1/2+x,y,1/2-z
1/4-y,1/4+x,3/4-z
1/2-x,1/2+y,z
x,1/2-y,1/2+z
3/4-y,1/4-x,1/4+z
1/4+y,1/4+x,1/4+z
loop_
_atom_site_type_symbol
_atom_site_label
_atom_site_fract_x
_atom_site_fract_y
_atom_site_fract_z
Si Si1 0.106653 0.471327 0.995451
Si Si2 0.701513 0.048488 0.875000
Si Si3 0.521799 0.838508 0.172516
Si Si4 0.188499 0.264421 0.131077
O O1 0.107713 0.500000 0.250000
O O2 0.156258 0.450555 0.963804
O O3 0.066286 0.436728 0.040888
O O4 0.097030 0.500000 0.750000
O O5 0.700570 0.000000 0.750000
O O6 0.572318 0.822318 0.125000
O O7 0.505871 0.821311 0.436942
O O8 0.510540 0.891123 0.165767
O O9 0.209684 0.238589 0.360962
#
# Coordination Sequence:
#
# PCOD9573769 Si02
#       4
#    32  16  32  32
#     4  11  24  42  69 101 134 178 227 278 350 424
#     4  10  22  44  74 106 141 180 228 294 357 424
#     4  10  21  38  60  87 124 163 220 271 335 395
#     4  10  22  42  62  97 130 180 223 282 337 405
#
# _framework density 23.061973999999999
#
# number of rings (size 3 to 8) (size 9 to 14) (size 15 to 20)
#    0.000    1.714    0.000    3.429    0.000    8.571 
#   20.571    0.000    0.000    0.000    0.000    0.000 
#    0.000    0.000    0.000    0.000    0.000    0.000 
#
# Total GULP energy -312123.989017 kJ/mol
# GULP energy per Si atom -5573.642661 kJ/mol
# Density = 2.300948 g / cm^3
# Si number density = 23.061974 Si / 1000 Ang^3
#
#
#
# Elastic Constant Matrix: (Units=GPa)
#
#
# Indices 1 2 3 4 5 6 
#
# 1 124.9012 54.2404 20.5014 0.0000 0.0000 0.0000
# 2 54.2404 124.8996 20.5013 0.0000 0.0000 0.0000
# 3 20.5014 20.5013 177.2069 0.0000 0.0000 0.0000
# 4 0.0000 0.0000 0.0000 27.7349 0.0000 0.0000
# 5 0.0000 0.0000 0.0000 0.0000 27.7355 0.0000
# 6 0.0000 0.0000 0.0000 0.0000 0.0000 35.7405
#
#
#
# Elastic Compliance Matrix: (Units=1/GPa)
#
#
# Indices 1 2 3 4 5 6 
#
# 1 0.009943 -0.004209 -0.000663 0.000000 0.000000 0.000000
# 2 -0.004209 0.009943 -0.000663 0.000000 0.000000 0.000000
# 3 -0.000663 -0.000663 0.005797 0.000000 0.000000 0.000000
# 4 0.000000 0.000000 0.000000 0.036056 0.000000 0.000000
# 5 0.000000 0.000000 0.000000 0.000000 0.036055 0.000000
# 6 0.000000 0.000000 0.000000 0.000000 0.000000 0.027979
#
#
# Mechanical properties :
#
#
# Convention : Reuss Voigt Hill
#
# Bulk Modulus (GPa) = 68.44079 68.61045 68.52562
# Shear Modulus (GPa) = 35.28205 40.35981 37.82093
#
# Velocity S-wave (km/s) = 3.91561 4.18791 4.05405
# Velocity P-wave (km/s) = 7.08407 7.29382 7.18971
#
# Compressibility (1/GPa) = 0.01461117
#
# Stress axis : x y z
#
# Youngs Moduli (GPa) = 100.57234 100.57106 172.51447
#
# Poissons Ratio (x) = 0.42332 0.11444
# Poissons Ratio (y) = 0.42332 0.11444
# Poissons Ratio (z) = 0.06672 0.06672
#
# Static dielectric constant tensor:
#      x y z
#    x 1.921430 0.000000 0.000000 
#    y 0.000000 1.921430 0.000000 
#    z 0.000000 0.000000 1.964190 
# 
# From -- ./inp_files/718.got.cif
#   From: 2010.05.17/outbox.cif.g08.bks.cpg/sg142_1_cif.got.tgz:718.got - 2010.05.20 13:39:18.
