data_PCOD9573746
_publ_section_title
;
Structure prediction by ZEFSAII (Michael W. Deem and Ramdas Pophale) SiO2 
 PCOD9573746
Probable space group: I 41/A C D
;
_chemical_formula_sum "Si O2"
_cell_formula_units_Z 80
_cell_length_a 30.087782
_cell_length_b 30.087782
_cell_length_c 5.276515
_cell_angle_alpha 90.000000
_cell_angle_beta 90.000000
_cell_angle_gamma 90.000000
_cell_volume 4776.695142
_symmetry_space_group_name_H-M "I 41/A C D"
_symmetry_group_IT_number 142
_space_group.IT_coordinate_system_code '2'
_symmetry_cell_setting 'tetragonal'
loop_
_space_group_symop_operation_xyz
x,y,z
1/4-y,3/4+x,1/4+z
-x,1/2-y,z
1/4+y,1/4-x,3/4+z
x,-y,1/2-z
1/2-x,y,-z
3/4+y,1/4+x,1/4-z
1/4-y,1/4-x,1/4-z
-x,-y,-z
3/4+y,1/4-x,3/4-z
x,1/2+y,-z
3/4-y,3/4+x,1/4-z
-x,y,1/2+z
1/2+x,-y,z
1/4-y,3/4-x,3/4+z
3/4+y,3/4+x,3/4+z
1/2+x,1/2+y,1/2+z
3/4-y,1/4+x,3/4+z
1/2-x,-y,1/2+z
3/4+y,3/4-x,1/4+z
1/2+x,1/2-y,-z
-x,1/2+y,1/2-z
1/4+y,3/4+x,3/4-z
3/4-y,3/4-x,3/4-z
1/2-x,1/2-y,1/2-z
1/4+y,3/4-x,1/4-z
1/2+x,y,1/2-z
1/4-y,1/4+x,3/4-z
1/2-x,1/2+y,z
x,1/2-y,1/2+z
3/4-y,1/4-x,1/4+z
1/4+y,1/4+x,1/4+z
loop_
_atom_site_type_symbol
_atom_site_label
_atom_site_fract_x
_atom_site_fract_y
_atom_site_fract_z
Si Si1 0.798121 0.048121 0.125000
Si Si2 0.158534 0.371396 0.369946
Si Si3 0.974934 0.946430 0.734446
O O1 0.805511 0.089269 0.318305
O O2 0.802002 0.000000 0.250000
O O3 0.133031 0.383031 0.625000
O O4 0.180123 0.323505 0.401924
O O5 0.126778 0.376778 0.125000
O O6 0.009120 0.931949 0.513467
O O7 0.974207 0.000000 0.750000
#
# Coordination Sequence:
#
# PCOD9573746 Si02
#       3
#    16  32  32
#     4  10  26  34  54  78 114 164 199 228 262 324
#     4  10  23  36  56  79 114 150 192 234 284 329
#     4  10  21  35  57  81 110 147 193 242 291 340
#
# _framework density 16.747980999999999
#
# number of rings (size 3 to 8) (size 9 to 14) (size 15 to 20)
#    1.200    0.800    0.000    2.400    8.400    1.600 
#    0.000    0.000    0.000    0.000    0.000    0.000 
#    0.000   56.000    0.000    0.000    0.000    0.000 
#
# Total GULP energy -222820.863968 kJ/mol
# GULP energy per Si atom -5570.521599 kJ/mol
# Density = 1.670986 g / cm^3
# Si number density = 16.747981 Si / 1000 Ang^3
#
#
#
# Elastic Constant Matrix: (Units=GPa)
#
#
# Indices 1 2 3 4 5 6 
#
# 1 86.2079 27.8071 38.3513 0.0000 0.0000 0.0000
# 2 27.8071 86.2079 38.3513 0.0000 0.0000 0.0000
# 3 38.3513 38.3513 135.3067 0.0000 0.0000 0.0000
# 4 0.0000 0.0000 0.0000 16.4491 0.0000 0.0000
# 5 0.0000 0.0000 0.0000 0.0000 16.4491 0.0000
# 6 0.0000 0.0000 0.0000 0.0000 0.0000 23.7347
#
#
#
# Elastic Compliance Matrix: (Units=1/GPa)
#
#
# Indices 1 2 3 4 5 6 
#
# 1 0.013980 -0.003143 -0.003072 0.000000 0.000000 0.000000
# 2 -0.003143 0.013980 -0.003072 0.000000 0.000000 0.000000
# 3 -0.003072 -0.003072 0.009132 0.000000 0.000000 0.000000
# 4 0.000000 0.000000 0.000000 0.060794 0.000000 0.000000
# 5 0.000000 0.000000 0.000000 0.000000 0.060794 0.000000
# 6 0.000000 0.000000 0.000000 0.000000 0.000000 0.042132
#
#
# Mechanical properties :
#
#
# Convention : Reuss Voigt Hill
#
# Bulk Modulus (GPa) = 53.99694 57.41575 55.70635
# Shear Modulus (GPa) = 22.16727 24.87409 23.52068
#
# Velocity S-wave (km/s) = 3.64205 3.85801 3.75158
# Velocity P-wave (km/s) = 7.07085 7.36222 7.21800
#
# Compressibility (1/GPa) = 0.01851957
#
# Stress axis : x y z
#
# Youngs Moduli (GPa) = 71.53002 71.53002 109.50627
#
# Poissons Ratio (x) = 0.22481 0.33637
# Poissons Ratio (y) = 0.22481 0.33637
# Poissons Ratio (z) = 0.21972 0.21972
#
# Static dielectric constant tensor:
#      x y z
#    x 1.549000 0.000000 0.000000 
#    y 0.000000 1.549000 0.000000 
#    z 0.000000 0.000000 1.599970 
# 
# From -- ./inp_files/596.got.cif
#   From: 2010.05.17/outbox.cif.g08.bks.cpg/sg142_1_cif.got.tgz:596.got - 2010.05.20 13:39:18.
