data_PCOD9573906
_publ_section_title
;
Structure prediction by ZEFSAII (Michael W. Deem and Ramdas Pophale) SiO2 
 PCOD9573906
Probable space group: I 41/A C D
;
_chemical_formula_sum "Si O2"
_cell_formula_units_Z 160
_cell_length_a 31.356123
_cell_length_b 31.356123
_cell_length_c 8.256741
_cell_angle_alpha 90.000000
_cell_angle_beta 90.000000
_cell_angle_gamma 90.000000
_cell_volume 8118.081004
_symmetry_space_group_name_H-M "I 41/A C D"
_symmetry_group_IT_number 142
_space_group.IT_coordinate_system_code '2'
_symmetry_cell_setting 'tetragonal'
loop_
_space_group_symop_operation_xyz
x,y,z
1/4-y,3/4+x,1/4+z
-x,1/2-y,z
1/4+y,1/4-x,3/4+z
x,-y,1/2-z
1/2-x,y,-z
3/4+y,1/4+x,1/4-z
1/4-y,1/4-x,1/4-z
-x,-y,-z
3/4+y,1/4-x,3/4-z
x,1/2+y,-z
3/4-y,3/4+x,1/4-z
-x,y,1/2+z
1/2+x,-y,z
1/4-y,3/4-x,3/4+z
3/4+y,3/4+x,3/4+z
1/2+x,1/2+y,1/2+z
3/4-y,1/4+x,3/4+z
1/2-x,-y,1/2+z
3/4+y,3/4-x,1/4+z
1/2+x,1/2-y,-z
-x,1/2+y,1/2-z
1/4+y,3/4+x,3/4-z
3/4-y,3/4-x,3/4-z
1/2-x,1/2-y,1/2-z
1/4+y,3/4-x,1/4-z
1/2+x,y,1/2-z
1/4-y,1/4+x,3/4-z
1/2-x,1/2+y,z
x,1/2-y,1/2+z
3/4-y,1/4-x,1/4+z
1/4+y,1/4+x,1/4+z
loop_
_atom_site_type_symbol
_atom_site_label
_atom_site_fract_x
_atom_site_fract_y
_atom_site_fract_z
Si Si1 0.803922 0.000000 0.750000
Si Si2 0.122444 0.372444 0.125000
Si Si3 0.201209 0.289445 0.459203
Si Si4 0.556141 0.738577 0.279369
Si Si5 0.027662 0.101445 0.592382
Si Si6 0.865098 0.424277 0.289600
O O1 0.774202 0.024202 0.625000
O O2 0.834391 0.035866 0.825668
O O3 0.132508 0.322839 0.088024
O O4 0.146915 0.382852 0.293797
O O5 0.250000 0.278649 0.500000
O O6 0.166990 0.257903 0.540025
O O7 0.189091 0.287024 0.271258
O O8 0.191328 0.338035 0.505064
O O9 0.536106 0.710393 0.426618
O O10 0.606394 0.737997 0.253494
O O11 0.533925 0.716076 0.125000
O O12 0.848422 0.401579 0.125000
#
# Coordination Sequence:
#
# PCOD9573906 Si02
#       6
#    16  16  32  32  32  32
#     4  10  22  42  70 108 132 172 218 280 352 426
#     4  10  24  44  62 101 132 178 228 276 328 406
#     4  11  24  43  65  94 130 170 219 282 334 404
#     4  11  22  38  60  91 131 169 215 270 327 387
#     4  11  24  40  66  91 131 173 231 268 333 407
#     4  10  23  44  71  96 139 172 222 277 343 409
#
# _framework density 19.709091999999998
#
# number of rings (size 3 to 8) (size 9 to 14) (size 15 to 20)
#    0.000    1.400    2.000    3.000    4.200    1.600 
#    0.000    0.000    0.000    0.000    0.000    0.000 
#    0.000    0.000    0.000    0.000    0.000    0.000 
#
# Total GULP energy -446009.580706 kJ/mol
# GULP energy per Si atom -5575.119759 kJ/mol
# Density = 1.966423 g / cm^3
# Si number density = 19.709092 Si / 1000 Ang^3
#
#
#
# Elastic Constant Matrix: (Units=GPa)
#
#
# Indices 1 2 3 4 5 6 
#
# 1 152.5020 71.0697 49.9706 0.0000 0.0000 0.0000
# 2 71.0697 152.5025 49.9713 0.0000 0.0000 0.0000
# 3 49.9706 49.9713 72.7361 0.0000 0.0000 0.0000
# 4 0.0000 0.0000 0.0000 -66.0632 0.0000 0.0000
# 5 0.0000 0.0000 0.0000 0.0000 -65.8027 0.0000
# 6 0.0000 0.0000 0.0000 0.0000 0.0000 21.7540
#
#
#
# Elastic Compliance Matrix: (Units=1/GPa)
#
#
# Indices 1 2 3 4 5 6 
#
# 1 0.009368 -0.002912 -0.004435 0.000000 0.000000 0.000000
# 2 -0.002912 0.009368 -0.004435 0.000000 0.000000 0.000000
# 3 -0.004435 -0.004435 0.019842 0.000000 0.000000 0.000000
# 4 0.000000 0.000000 0.000000 -0.015137 0.000000 0.000000
# 5 0.000000 0.000000 0.000000 0.000000 -0.015197 0.000000
# 6 0.000000 0.000000 0.000000 0.000000 0.000000 0.045969
#
#
# Mechanical properties :
#
#
# Convention : Reuss Voigt Hill
#
# Bulk Modulus (GPa) = 66.60875 79.97375 73.29125
# Shear Modulus (GPa) = 60.40033 -8.24044 26.07995
#
# Velocity S-wave (km/s) = 5.54188 -2.04698 3.64159
# Velocity P-wave (km/s) = 8.64981 5.92270 7.41275
#
# Compressibility (1/GPa) = 0.01501304
#
# Stress axis : x y z
#
# Youngs Moduli (GPa) = 106.74978 106.74932 50.39792
#
# Poissons Ratio (x) = 0.31089 0.22351
# Poissons Ratio (y) = 0.31089 0.22352
# Poissons Ratio (z) = 0.47342 0.47343
#
# Static dielectric constant tensor:
#      x y z
#    x 1.702000 0.000000 0.000000 
#    y 0.000000 1.702000 0.000000 
#    z 0.000000 0.000000 1.754320 
# 
# From -- ./inp_files/2243.got.cif
#   From: 2010.05.17/outbox.cif.g08.bks.cpg/sg142_2_cif.got.tgz:2243.got - 2010.05.20 13:39:18.
