data_PCOD9573471
_publ_section_title
;
Structure prediction by ZEFSAII (Michael W. Deem and Ramdas Pophale) SiO2 
 PCOD9573471
Probable space group: I 41/A C D
;
_chemical_formula_sum "Si O2"
_cell_formula_units_Z 176
_cell_length_a 18.617372
_cell_length_b 18.617372
_cell_length_c 29.823333
_cell_angle_alpha 90.000000
_cell_angle_beta 90.000000
_cell_angle_gamma 90.000000
_cell_volume 10336.962268
_symmetry_space_group_name_H-M "I 41/A C D"
_symmetry_group_IT_number 142
_space_group.IT_coordinate_system_code '2'
_symmetry_cell_setting 'tetragonal'
loop_
_space_group_symop_operation_xyz
x,y,z
1/4-y,3/4+x,1/4+z
-x,1/2-y,z
1/4+y,1/4-x,3/4+z
x,-y,1/2-z
1/2-x,y,-z
3/4+y,1/4+x,1/4-z
1/4-y,1/4-x,1/4-z
-x,-y,-z
3/4+y,1/4-x,3/4-z
x,1/2+y,-z
3/4-y,3/4+x,1/4-z
-x,y,1/2+z
1/2+x,-y,z
1/4-y,3/4-x,3/4+z
3/4+y,3/4+x,3/4+z
1/2+x,1/2+y,1/2+z
3/4-y,1/4+x,3/4+z
1/2-x,-y,1/2+z
3/4+y,3/4-x,1/4+z
1/2+x,1/2-y,-z
-x,1/2+y,1/2-z
1/4+y,3/4+x,3/4-z
3/4-y,3/4-x,3/4-z
1/2-x,1/2-y,1/2-z
1/4+y,3/4-x,1/4-z
1/2+x,y,1/2-z
1/4-y,1/4+x,3/4-z
1/2-x,1/2+y,z
x,1/2-y,1/2+z
3/4-y,1/4-x,1/4+z
1/4+y,1/4+x,1/4+z
loop_
_atom_site_type_symbol
_atom_site_label
_atom_site_fract_x
_atom_site_fract_y
_atom_site_fract_z
Si Si1 0.529419 0.546093 0.140042
Si Si2 0.209169 0.451767 0.293108
Si Si3 0.956732 0.065434 0.285081
Si Si4 0.895411 0.579327 0.419297
Si Si5 0.516106 0.664839 0.711842
Si Si6 0.807722 0.942279 0.375000
O O1 0.517396 0.472749 0.168878
O O2 0.470763 0.556512 0.101988
O O3 0.524711 0.614348 0.174746
O O4 0.607798 0.545393 0.118508
O O5 0.224030 0.500000 0.250000
O O6 0.128389 0.420610 0.289849
O O7 0.267093 0.391127 0.302363
O O8 0.211704 0.508043 0.333607
O O9 0.995842 0.131791 0.260601
O O10 0.963807 0.000000 0.250000
O O11 0.848460 0.598460 0.375000
O O12 0.903207 0.650925 0.448792
O O13 0.500000 0.750000 0.708234
#
# Coordination Sequence:
#
# PCOD9573471 Si02
#       6
#    32  32  32  32  32  16
#     4   9  18  32  55  78 106 143 179 225 280 325
#     4  10  20  35  55  79 109 142 183 227 275 332
#     4   8  17  34  54  72 102 146 178 216 280 337
#     4  10  20  32  52  83 110 135 179 237 274 319
#     4  10  19  33  53  80 111 142 184 230 276 329
#     4  10  18  36  57  78 103 144 182 218 274 336
#
# _framework density 17.026278000000001
#
# number of rings (size 3 to 8) (size 9 to 14) (size 15 to 20)
#    0.000    2.545    0.909    2.182    0.000    6.182 
#    0.000    3.636    4.000    0.000    0.000    0.000 
#    0.000    0.000    0.000    0.000    0.000    0.000 
#
# Total GULP energy -490212.554808 kJ/mol
# GULP energy per Si atom -5570.597214 kJ/mol
# Density = 1.698753 g / cm^3
# Si number density = 17.026278 Si / 1000 Ang^3
#
#
#
# Elastic Constant Matrix: (Units=GPa)
#
#
# Indices 1 2 3 4 5 6 
#
# 1 62.4924 63.1327 41.5493 0.0000 0.0000 0.0000
# 2 63.1327 62.4909 41.5494 0.0000 0.0000 0.0000
# 3 41.5493 41.5494 70.6155 0.0000 0.0000 0.0000
# 4 0.0000 0.0000 0.0000 21.4706 0.0000 0.0000
# 5 0.0000 0.0000 0.0000 0.0000 21.4699 0.0000
# 6 0.0000 0.0000 0.0000 0.0000 0.0000 23.4339
#
#
#
# Elastic Compliance Matrix: (Units=1/GPa)
#
#
# Indices 1 2 3 4 5 6 
#
# 1 -0.773499 0.786549 -0.007680 0.000000 0.000000 0.000000
# 2 0.786549 -0.773533 -0.007657 0.000000 0.000000 0.000000
# 3 -0.007680 -0.007657 0.023185 0.000000 0.000000 0.000000
# 4 0.000000 0.000000 0.000000 0.046575 0.000000 0.000000
# 5 0.000000 0.000000 0.000000 0.000000 0.046577 0.000000
# 6 0.000000 0.000000 0.000000 0.000000 0.000000 0.042673
#
#
# Mechanical properties :
#
#
# Convention : Reuss Voigt Hill
#
# Bulk Modulus (GPa) = 53.82913 54.22907 54.02910
# Shear Modulus (GPa) = -1.70984 16.56606 7.42811
#
# Velocity S-wave (km/s) = -1.00320 3.12263 2.09098
# Velocity P-wave (km/s) = 5.50836 6.70227 6.13443
#
# Compressibility (1/GPa) = 0.01857730
#
# Stress axis : x y z
#
# Youngs Moduli (GPa) = -1.29283 -1.29277 43.13126
#
# Poissons Ratio (x) = 1.01683 0.33123
# Poissons Ratio (y) = 1.01687 0.33025
# Poissons Ratio (z) = -0.00993 -0.00990
#
# Static dielectric constant tensor:
#      x y z
#    x 1.597990 0.000000 0.000000 
#    y 0.000000 1.597990 0.000000 
#    z 0.000000 0.000000 1.579480 
# 
# From -- ./inp_files/12538.got.cif
#   From: 2010.05.17/outbox.cif.g08.bks.cpg/sg142_7_cif.got.tgz:12538.got - 2010.05.20 13:39:18.
