data_PCOD9573790
_publ_section_title
;
Structure prediction by ZEFSAII (Michael W. Deem and Ramdas Pophale) SiO2 
 PCOD9573790
Probable space group: I 41/A C D
;
_chemical_formula_sum "Si O2"
_cell_formula_units_Z 176
_cell_length_a 17.960076
_cell_length_b 17.960076
_cell_length_c 28.063853
_cell_angle_alpha 90.000000
_cell_angle_beta 90.000000
_cell_angle_gamma 90.000000
_cell_volume 9052.397938
_symmetry_space_group_name_H-M "I 41/A C D"
_symmetry_group_IT_number 142
_space_group.IT_coordinate_system_code '2'
_symmetry_cell_setting 'tetragonal'
loop_
_space_group_symop_operation_xyz
x,y,z
1/4-y,3/4+x,1/4+z
-x,1/2-y,z
1/4+y,1/4-x,3/4+z
x,-y,1/2-z
1/2-x,y,-z
3/4+y,1/4+x,1/4-z
1/4-y,1/4-x,1/4-z
-x,-y,-z
3/4+y,1/4-x,3/4-z
x,1/2+y,-z
3/4-y,3/4+x,1/4-z
-x,y,1/2+z
1/2+x,-y,z
1/4-y,3/4-x,3/4+z
3/4+y,3/4+x,3/4+z
1/2+x,1/2+y,1/2+z
3/4-y,1/4+x,3/4+z
1/2-x,-y,1/2+z
3/4+y,3/4-x,1/4+z
1/2+x,1/2-y,-z
-x,1/2+y,1/2-z
1/4+y,3/4+x,3/4-z
3/4-y,3/4-x,3/4-z
1/2-x,1/2-y,1/2-z
1/4+y,3/4-x,1/4-z
1/2+x,y,1/2-z
1/4-y,1/4+x,3/4-z
1/2-x,1/2+y,z
x,1/2-y,1/2+z
3/4-y,1/4-x,1/4+z
1/4+y,1/4+x,1/4+z
loop_
_atom_site_type_symbol
_atom_site_label
_atom_site_fract_x
_atom_site_fract_y
_atom_site_fract_z
Si Si1 0.660827 0.790497 0.619846
Si Si2 0.813085 0.961909 0.971594
Si Si3 0.773252 0.304070 0.291671
Si Si4 0.132176 0.882176 0.375000
Si Si5 0.102993 0.188631 0.363911
Si Si6 0.263031 0.407548 0.090846
O O1 0.583291 0.833291 0.625000
O O2 0.711967 0.800578 0.666917
O O3 0.648145 0.703818 0.613634
O O4 0.709267 0.837122 0.581644
O O5 0.844388 0.925450 0.923199
O O6 0.784383 0.041300 0.952933
O O7 0.750000 0.916473 0.000000
O O8 0.869395 0.974422 0.014214
O O9 0.750000 0.250000 0.250000
O O10 0.853866 0.290399 0.315252
O O11 0.093766 0.269093 0.390342
O O12 0.160505 0.128038 0.386989
O O13 0.213689 0.463689 0.125000
#
# Coordination Sequence:
#
# PCOD9573790 Si02
#       6
#    32  32  32  16  32  32
#     4  10  22  43  66  91 128 177 211 263 336 401
#     4  12  24  40  64  99 126 168 224 276 329 399
#     4  11  22  40  66  96 132 175 226 270 331 409
#     4  12  25  42  68  96 132 171 218 280 332 402
#     4  10  22  40  66  98 135 177 221 281 346 403
#     4  10  21  39  65  92 128 170 217 272 330 402
#
# _framework density 19.442360999999998
#
# number of rings (size 3 to 8) (size 9 to 14) (size 15 to 20)
#    0.000    1.273    2.727    4.636    2.545    0.000 
#    0.000   10.000    0.000    0.000    0.000    0.000 
#    0.000    0.000    0.000    0.000    0.000    0.000 
#
# Total GULP energy -490158.262951 kJ/mol
# GULP energy per Si atom -5569.980261 kJ/mol
# Density = 1.939811 g / cm^3
# Si number density = 19.442361 Si / 1000 Ang^3
#
#
#
# Elastic Constant Matrix: (Units=GPa)
#
#
# Indices 1 2 3 4 5 6 
#
# 1 127.8656 43.5777 36.2557 0.0000 0.0000 0.0000
# 2 43.5777 127.8656 36.2557 0.0000 0.0000 0.0000
# 3 36.2557 36.2557 60.7381 0.0000 0.0000 0.0000
# 4 0.0000 0.0000 0.0000 20.2915 0.0000 0.0000
# 5 0.0000 0.0000 0.0000 0.0000 20.2915 0.0000
# 6 0.0000 0.0000 0.0000 0.0000 0.0000 28.9470
#
#
#
# Elastic Compliance Matrix: (Units=1/GPa)
#
#
# Indices 1 2 3 4 5 6 
#
# 1 0.009833 -0.002031 -0.004658 0.000000 0.000000 0.000000
# 2 -0.002031 0.009833 -0.004658 0.000000 0.000000 0.000000
# 3 -0.004658 -0.004658 0.022025 0.000000 0.000000 0.000000
# 4 0.000000 0.000000 0.000000 0.049282 0.000000 0.000000
# 5 0.000000 0.000000 0.000000 0.000000 0.049282 0.000000
# 6 0.000000 0.000000 0.000000 0.000000 0.000000 0.034546
#
#
# Mechanical properties :
#
#
# Convention : Reuss Voigt Hill
#
# Bulk Modulus (GPa) = 52.63260 60.96082 56.79671
# Shear Modulus (GPa) = 24.53078 27.26469 25.89774
#
# Velocity S-wave (km/s) = 3.55592 3.74884 3.65365
# Velocity P-wave (km/s) = 6.63244 7.08245 6.86114
#
# Compressibility (1/GPa) = 0.01899963
#
# Stress axis : x y z
#
# Youngs Moduli (GPa) = 101.69401 101.69401 45.40389
#
# Poissons Ratio (x) = 0.20651 0.21147
# Poissons Ratio (y) = 0.20651 0.21147
# Poissons Ratio (z) = 0.47365 0.47365
#
# Static dielectric constant tensor:
#      x y z
#    x 1.682890 0.000000 0.000000 
#    y 0.000000 1.682890 0.000000 
#    z 0.000000 0.000000 1.650150 
# 
# From -- ./inp_files/11435.got.cif
#   From: 2010.05.17/outbox.cif.g08.bks.cpg/sg142_6_cif.got.tgz:11435.got - 2010.05.20 13:39:18.
