data_PCOD9573662
_publ_section_title
;
Structure prediction by ZEFSAII (Michael W. Deem and Ramdas Pophale) SiO2 
 PCOD9573662
Probable space group: I 41/A C D
;
_chemical_formula_sum "Si O2"
_cell_formula_units_Z 144
_cell_length_a 25.111334
_cell_length_b 25.111334
_cell_length_c 11.875249
_cell_angle_alpha 90.000000
_cell_angle_beta 90.000000
_cell_angle_gamma 90.000000
_cell_volume 7488.283770
_symmetry_space_group_name_H-M "I 41/A C D"
_symmetry_group_IT_number 142
_space_group.IT_coordinate_system_code '2'
_symmetry_cell_setting 'tetragonal'
loop_
_space_group_symop_operation_xyz
x,y,z
1/4-y,3/4+x,1/4+z
-x,1/2-y,z
1/4+y,1/4-x,3/4+z
x,-y,1/2-z
1/2-x,y,-z
3/4+y,1/4+x,1/4-z
1/4-y,1/4-x,1/4-z
-x,-y,-z
3/4+y,1/4-x,3/4-z
x,1/2+y,-z
3/4-y,3/4+x,1/4-z
-x,y,1/2+z
1/2+x,-y,z
1/4-y,3/4-x,3/4+z
3/4+y,3/4+x,3/4+z
1/2+x,1/2+y,1/2+z
3/4-y,1/4+x,3/4+z
1/2-x,-y,1/2+z
3/4+y,3/4-x,1/4+z
1/2+x,1/2-y,-z
-x,1/2+y,1/2-z
1/4+y,3/4+x,3/4-z
3/4-y,3/4-x,3/4-z
1/2-x,1/2-y,1/2-z
1/4+y,3/4-x,1/4-z
1/2+x,y,1/2-z
1/4-y,1/4+x,3/4-z
1/2-x,1/2+y,z
x,1/2-y,1/2+z
3/4-y,1/4-x,1/4+z
1/4+y,1/4+x,1/4+z
loop_
_atom_site_type_symbol
_atom_site_label
_atom_site_fract_x
_atom_site_fract_y
_atom_site_fract_z
Si Si1 0.309072 0.816428 0.305587
Si Si2 0.250000 0.964541 0.500000
Si Si3 0.701525 0.693427 0.790853
Si Si4 0.750000 0.358052 0.500000
Si Si5 0.651336 0.098665 0.875000
Si Si6 0.349033 0.883521 0.496045
O O1 0.314111 0.754274 0.276627
O O2 0.244796 0.826473 0.301592
O O3 0.340285 0.852593 0.213465
O O4 0.329364 0.832112 0.429149
O O5 0.242367 0.992367 0.375000
O O6 0.302547 0.927745 0.485115
O O7 0.653255 0.653695 0.808576
O O8 0.734796 0.682580 0.902343
O O9 0.702970 0.395399 0.454022
O O10 0.366730 0.883271 0.625000
#
# Coordination Sequence:
#
# PCOD9573662 Si02
#       6
#    32  16  32  16  16  32
#     4  10  21  39  62  90 127 160 213 259 316 380
#     4  10  22  38  58  88 132 171 200 255 322 408
#     4  10  22  38  61  96 122 169 208 265 313 381
#     4  10  20  38  62  90 126 161 208 253 320 376
#     4  10  20  38  64  88 125 164 204 262 310 385
#     4  11  22  40  59  90 125 165 208 257 323 382
#
# _framework density 19.230039999999999
#
# number of rings (size 3 to 8) (size 9 to 14) (size 15 to 20)
#    0.000    1.778    2.222    2.667    0.000    7.111 
#   10.000    0.000    0.000    0.667    0.000    0.000 
#    0.000    0.000    0.000    0.000    0.000    0.000 
#
# Total GULP energy -401063.886591 kJ/mol
# GULP energy per Si atom -5570.331758 kJ/mol
# Density = 1.918627 g / cm^3
# Si number density = 19.230040 Si / 1000 Ang^3
#
#
#
# Elastic Constant Matrix: (Units=GPa)
#
#
# Indices 1 2 3 4 5 6 
#
# 1 87.2170 52.5147 30.8460 0.0000 0.0000 0.0000
# 2 52.5147 87.2175 30.8453 0.0000 0.0000 0.0000
# 3 30.8460 30.8453 96.8528 0.0000 0.0000 0.0000
# 4 0.0000 0.0000 0.0000 18.1695 0.0000 0.0000
# 5 0.0000 0.0000 0.0000 0.0000 18.1704 0.0000
# 6 0.0000 0.0000 0.0000 0.0000 0.0000 21.9593
#
#
#
# Elastic Compliance Matrix: (Units=1/GPa)
#
#
# Indices 1 2 3 4 5 6 
#
# 1 0.018572 -0.010244 -0.002652 0.000000 0.000000 0.000000
# 2 -0.010244 0.018572 -0.002652 0.000000 0.000000 0.000000
# 3 -0.002652 -0.002652 0.012014 0.000000 0.000000 0.000000
# 4 0.000000 0.000000 0.000000 0.055037 0.000000 0.000000
# 5 0.000000 0.000000 0.000000 0.000000 0.055035 0.000000
# 6 0.000000 0.000000 0.000000 0.000000 0.000000 0.045539
#
#
# Mechanical properties :
#
#
# Convention : Reuss Voigt Hill
#
# Bulk Modulus (GPa) = 55.36897 55.52216 55.44556
# Shear Modulus (GPa) = 20.67086 22.13192 21.40139
#
# Velocity S-wave (km/s) = 3.28216 3.39618 3.33966
# Velocity P-wave (km/s) = 6.57411 6.65688 6.61562
#
# Compressibility (1/GPa) = 0.01806066
#
# Stress axis : x y z
#
# Youngs Moduli (GPa) = 53.84448 53.84515 83.23455
#
# Poissons Ratio (x) = 0.55161 0.22076
# Poissons Ratio (y) = 0.55161 0.22074
# Poissons Ratio (z) = 0.14281 0.14280
#
# Static dielectric constant tensor:
#      x y z
#    x 1.706690 0.000000 0.000000 
#    y 0.000000 1.706700 0.000000 
#    z 0.000000 0.000000 5.152370 
# 
# From -- ./inp_files/3811.got.cif
#   From: 2010.05.17/outbox.cif.g08.bks.cpg/sg142_2_cif.got.tgz:3811.got - 2010.05.20 13:39:18.
