data_PCOD9573408
_publ_section_title
;
Structure prediction by ZEFSAII (Michael W. Deem and Ramdas Pophale) SiO2 
 PCOD9573408
Probable space group: I 41/A C D
;
_chemical_formula_sum "Si O2"
_cell_formula_units_Z 184
_cell_length_a 25.453594
_cell_length_b 25.453594
_cell_length_c 15.840736
_cell_angle_alpha 90.000000
_cell_angle_beta 90.000000
_cell_angle_gamma 90.000000
_cell_volume 10262.982332
_symmetry_space_group_name_H-M "I 41/A C D"
_symmetry_group_IT_number 142
_space_group.IT_coordinate_system_code '2'
_symmetry_cell_setting 'tetragonal'
loop_
_space_group_symop_operation_xyz
x,y,z
1/4-y,3/4+x,1/4+z
-x,1/2-y,z
1/4+y,1/4-x,3/4+z
x,-y,1/2-z
1/2-x,y,-z
3/4+y,1/4+x,1/4-z
1/4-y,1/4-x,1/4-z
-x,-y,-z
3/4+y,1/4-x,3/4-z
x,1/2+y,-z
3/4-y,3/4+x,1/4-z
-x,y,1/2+z
1/2+x,-y,z
1/4-y,3/4-x,3/4+z
3/4+y,3/4+x,3/4+z
1/2+x,1/2+y,1/2+z
3/4-y,1/4+x,3/4+z
1/2-x,-y,1/2+z
3/4+y,3/4-x,1/4+z
1/2+x,1/2-y,-z
-x,1/2+y,1/2-z
1/4+y,3/4+x,3/4-z
3/4-y,3/4-x,3/4-z
1/2-x,1/2-y,1/2-z
1/4+y,3/4-x,1/4-z
1/2+x,y,1/2-z
1/4-y,1/4+x,3/4-z
1/2-x,1/2+y,z
x,1/2-y,1/2+z
3/4-y,1/4-x,1/4+z
1/4+y,1/4+x,1/4+z
loop_
_atom_site_type_symbol
_atom_site_label
_atom_site_fract_x
_atom_site_fract_y
_atom_site_fract_z
Si Si1 0.301903 0.563238 0.263719
Si Si2 0.523034 0.363534 0.795271
Si Si3 0.378155 0.658955 0.531729
Si Si4 0.308459 0.434192 0.036477
Si Si5 0.453740 0.823712 0.878175
Si Si6 0.128926 0.878926 0.375000
Si Si7 0.000000 0.750000 0.875000
O O1 0.308004 0.500000 0.250000
O O2 0.309050 0.572835 0.362873
O O3 0.242608 0.578450 0.236369
O O4 0.341369 0.596008 0.204995
O O5 0.468488 0.394061 0.783681
O O6 0.551318 0.358996 0.704845
O O7 0.565868 0.384420 0.861217
O O8 0.504368 0.303747 0.820525
O O9 0.398889 0.648889 0.625000
O O10 0.339058 0.612891 0.507215
O O11 0.423363 0.657535 0.460425
O O12 0.250000 0.433280 0.000000
O O13 0.515746 0.817641 0.894270
#
# Coordination Sequence:
#
# PCOD9573408 Si02
#       7
#    32  32  32  32  32  16   8
#     4  11  20  41  66  95 116 152 207 266 311 366
#     4  10  20  33  56  89 121 167 197 250 308 375
#     4  11  21  36  56  85 121 157 202 247 298 360
#     4  11  22  39  66  89 114 152 204 258 307 363
#     4   9  18  32  53  81 116 154 203 245 287 354
#     4  11  22  35  62  95 126 156 206 251 318 369
#     4  10  16  32  58  82 114 156 212 250 290 344
#
# _framework density 17.928512000000001
#
# number of rings (size 3 to 8) (size 9 to 14) (size 15 to 20)
#    0.000    1.565    2.609    5.739    2.435    0.000 
#    0.000    0.870    3.826    2.087    0.000    0.000 
#    0.000    0.000    0.000    0.000    0.000    0.000 
#
# Total GULP energy -513197.386165 kJ/mol
# GULP energy per Si atom -5578.232458 kJ/mol
# Density = 1.788771 g / cm^3
# Si number density = 17.928512 Si / 1000 Ang^3
#
#
#
# Elastic Constant Matrix: (Units=GPa)
#
#
# Indices 1 2 3 4 5 6 
#
# 1 80.2698 51.9246 29.5757 0.0000 0.0000 0.0000
# 2 51.9246 80.2698 29.5757 0.0000 0.0000 0.0000
# 3 29.5757 29.5757 103.9188 0.0000 0.0000 0.0000
# 4 0.0000 0.0000 0.0000 20.4870 0.0000 0.0000
# 5 0.0000 0.0000 0.0000 0.0000 20.4870 0.0000
# 6 0.0000 0.0000 0.0000 0.0000 0.0000 29.7616
#
#
#
# Elastic Compliance Matrix: (Units=1/GPa)
#
#
# Indices 1 2 3 4 5 6 
#
# 1 0.021974 -0.013305 -0.002467 0.000000 0.000000 0.000000
# 2 -0.013305 0.021974 -0.002467 0.000000 0.000000 0.000000
# 3 -0.002467 -0.002467 0.011027 0.000000 0.000000 0.000000
# 4 0.000000 0.000000 0.000000 0.048811 0.000000 0.000000
# 5 0.000000 0.000000 0.000000 0.000000 0.048811 0.000000
# 6 0.000000 0.000000 0.000000 0.000000 0.000000 0.033600
#
#
# Mechanical properties :
#
#
# Convention : Reuss Voigt Hill
#
# Bulk Modulus (GPa) = 54.06612 54.06781 54.06696
# Shear Modulus (GPa) = 21.84906 24.37261 23.11084
#
# Velocity S-wave (km/s) = 3.49474 3.69105 3.59424
# Velocity P-wave (km/s) = 6.81955 6.95615 6.88819
#
# Compressibility (1/GPa) = 0.01849587
#
# Stress axis : x y z
#
# Youngs Moduli (GPa) = 45.50845 45.50845 90.68497
#
# Poissons Ratio (x) = 0.60551 0.22373
# Poissons Ratio (y) = 0.60551 0.22373
# Poissons Ratio (z) = 0.11227 0.11227
#
# Static dielectric constant tensor:
#      x y z
#    x 1.624770 0.000000 0.000000 
#    y 0.000000 1.624770 0.000000 
#    z 0.000000 0.000000 1.634880 
# 
# From -- ./inp_files/7662.got.cif
#   From: 2010.05.17/outbox.cif.g08.bks.cpg/sg142_4_cif.got.tgz:7662.got - 2010.05.20 13:39:18.
