data_PCOD9573750
_publ_section_title
;
Structure prediction by ZEFSAII (Michael W. Deem and Ramdas Pophale) SiO2 
 PCOD9573750
Probable space group: I 41/A C D
;
_chemical_formula_sum "Si O2"
_cell_formula_units_Z 112
_cell_length_a 32.018888
_cell_length_b 32.018888
_cell_length_c 5.328976
_cell_angle_alpha 90.000000
_cell_angle_beta 90.000000
_cell_angle_gamma 90.000000
_cell_volume 5463.315162
_symmetry_space_group_name_H-M "I 41/A C D"
_symmetry_group_IT_number 142
_space_group.IT_coordinate_system_code '2'
_symmetry_cell_setting 'tetragonal'
loop_
_space_group_symop_operation_xyz
x,y,z
1/4-y,3/4+x,1/4+z
-x,1/2-y,z
1/4+y,1/4-x,3/4+z
x,-y,1/2-z
1/2-x,y,-z
3/4+y,1/4+x,1/4-z
1/4-y,1/4-x,1/4-z
-x,-y,-z
3/4+y,1/4-x,3/4-z
x,1/2+y,-z
3/4-y,3/4+x,1/4-z
-x,y,1/2+z
1/2+x,-y,z
1/4-y,3/4-x,3/4+z
3/4+y,3/4+x,3/4+z
1/2+x,1/2+y,1/2+z
3/4-y,1/4+x,3/4+z
1/2-x,-y,1/2+z
3/4+y,3/4-x,1/4+z
1/2+x,1/2-y,-z
-x,1/2+y,1/2-z
1/4+y,3/4+x,3/4-z
3/4-y,3/4-x,3/4-z
1/2-x,1/2-y,1/2-z
1/4+y,3/4-x,1/4-z
1/2+x,y,1/2-z
1/4-y,1/4+x,3/4-z
1/2-x,1/2+y,z
x,1/2-y,1/2+z
3/4-y,1/4-x,1/4+z
1/4+y,1/4+x,1/4+z
loop_
_atom_site_type_symbol
_atom_site_label
_atom_site_fract_x
_atom_site_fract_y
_atom_site_fract_z
Si Si1 0.722688 0.364300 0.246302
Si Si2 0.476144 0.565061 0.551138
Si Si3 0.522269 0.334931 0.448405
Si Si4 0.204002 0.045999 0.625000
O O1 0.750000 0.365750 0.500000
O O2 0.695414 0.322632 0.274885
O O3 0.702373 0.410593 0.218961
O O4 0.750000 0.358002 0.000000
O O5 0.503040 0.549938 0.311333
O O6 0.478725 0.615221 0.551707
O O7 0.507680 0.320476 0.721859
O O8 0.567163 0.317163 0.375000
O O9 0.250000 0.046709 0.500000
#
# Coordination Sequence:
#
# PCOD9573750 Si02
#       4
#    32  32  32  16
#     4  11  24  40  64  95 119 163 212 246 317 380
#     4  10  22  40  60  88 125 162 202 257 310 366
#     4  10  21  36  56  82 115 154 199 244 307 362
#     4  10  22  42  68  94 134 166 207 272 318 378
#
# _framework density 20.500374000000001
#
# number of rings (size 3 to 8) (size 9 to 14) (size 15 to 20)
#    0.000    1.714    0.000    3.429    2.000    8.571 
#    0.000    0.000    0.000    0.000    0.000    0.000 
#    0.000    0.000    0.000    0.000    0.000    0.000 
#
# Total GULP energy -312274.519558 kJ/mol
# GULP energy per Si atom -5576.330706 kJ/mol
# Density = 2.045371 g / cm^3
# Si number density = 20.500374 Si / 1000 Ang^3
#
#
#
# Elastic Constant Matrix: (Units=GPa)
#
#
# Indices 1 2 3 4 5 6 
#
# 1 108.5874 26.3400 44.9278 0.0000 0.0000 0.0000
# 2 26.3400 108.5860 44.9277 0.0000 0.0000 0.0000
# 3 44.9278 44.9277 154.6704 0.0000 0.0000 0.0000
# 4 0.0000 0.0000 0.0000 21.8978 0.0000 0.0000
# 5 0.0000 0.0000 0.0000 0.0000 21.8989 0.0000
# 6 0.0000 0.0000 0.0000 0.0000 0.0000 -257.0981
#
#
#
# Elastic Compliance Matrix: (Units=1/GPa)
#
#
# Indices 1 2 3 4 5 6 
#
# 1 0.010674 -0.001485 -0.002669 0.000000 0.000000 0.000000
# 2 -0.001485 0.010674 -0.002669 0.000000 0.000000 0.000000
# 3 -0.002669 -0.002669 0.008016 0.000000 0.000000 0.000000
# 4 0.000000 0.000000 0.000000 0.045667 0.000000 0.000000
# 5 0.000000 0.000000 0.000000 0.000000 0.045664 0.000000
# 6 0.000000 0.000000 0.000000 0.000000 0.000000 -0.003890
#
#
# Mechanical properties :
#
#
# Convention : Reuss Voigt Hill
#
# Bulk Modulus (GPa) = 63.62408 67.13720 65.38064
# Shear Modulus (GPa) = 36.84862 -25.61705 5.61579
#
# Velocity S-wave (km/s) = 4.24425 -3.53879 1.65690
# Velocity P-wave (km/s) = 7.42436 4.01534 5.96842
#
# Compressibility (1/GPa) = 0.01571732
#
# Stress axis : x y z
#
# Youngs Moduli (GPa) = 93.68838 93.68706 124.75045
#
# Poissons Ratio (x) = 0.13911 0.33298
# Poissons Ratio (y) = 0.13911 0.33298
# Poissons Ratio (z) = 0.25007 0.25007
#
# Static dielectric constant tensor:
#      x y z
#    x 1.741760 0.000000 0.000000 
#    y 0.000000 1.741770 0.000000 
#    z 0.000000 0.000000 1.728790 
# 
# From -- ./inp_files/719.got.cif
#   From: 2010.05.17/outbox.cif.g08.bks.cpg/sg142_1_cif.got.tgz:719.got - 2010.05.20 13:39:18.
