data_PCOD9573302
_publ_section_title
;
Structure prediction by ZEFSAII (Michael W. Deem and Ramdas Pophale) SiO2 
 PCOD9573302
Probable space group: I 41/A M D
;
_chemical_formula_sum "Si O2"
_cell_formula_units_Z 136
_cell_length_a 23.399857
_cell_length_b 23.399857
_cell_length_c 14.808901
_cell_angle_alpha 90.000000
_cell_angle_beta 90.000000
_cell_angle_gamma 90.000000
_cell_volume 8108.662725
_symmetry_space_group_name_H-M "I 41/A M D"
_symmetry_group_IT_number 141
_space_group.IT_coordinate_system_code '2'
_symmetry_cell_setting 'tetragonal'
loop_
_space_group_symop_operation_xyz
x,y,z
1/4-y,3/4+x,1/4+z
-x,1/2-y,z
1/4+y,1/4-x,3/4+z
x,-y,-z
-x,1/2+y,-z
1/4+y,3/4+x,1/4-z
1/4-y,1/4-x,3/4-z
-x,-y,-z
3/4+y,1/4-x,3/4-z
x,1/2+y,-z
3/4-y,3/4+x,1/4-z
-x,y,z
x,1/2-y,z
3/4-y,1/4-x,3/4+z
3/4+y,3/4+x,1/4+z
1/2+x,1/2+y,1/2+z
3/4-y,1/4+x,3/4+z
1/2-x,-y,1/2+z
3/4+y,3/4-x,1/4+z
1/2+x,1/2-y,1/2-z
1/2-x,y,1/2-z
3/4+y,1/4+x,3/4-z
3/4-y,3/4-x,1/4-z
1/2-x,1/2-y,1/2-z
1/4+y,3/4-x,1/4-z
1/2+x,y,1/2-z
1/4-y,1/4+x,3/4-z
1/2-x,1/2+y,1/2+z
1/2+x,-y,1/2+z
1/4-y,3/4-x,1/4+z
1/4+y,1/4+x,3/4+z
loop_
_atom_site_type_symbol
_atom_site_label
_atom_site_fract_x
_atom_site_fract_y
_atom_site_fract_z
Si Si1 0.625330 0.043279 0.919936
Si Si2 0.591106 0.650242 0.766639
Si Si3 0.340947 0.503963 0.604158
Si Si4 0.766070 0.684587 0.501451
Si Si5 0.500000 0.250000 0.975992
O O1 0.595317 0.097549 0.967306
O O2 0.683361 0.065400 0.873939
O O3 0.588235 0.010175 0.845444
O O4 0.641119 0.000000 0.000000
O O5 0.570385 0.585074 0.751303
O O6 0.549395 0.699378 0.731621
O O7 0.594120 0.655881 0.875000
O O8 0.358109 0.500000 0.500000
O O9 0.292121 0.457880 0.625000
O O10 0.393434 0.494774 0.671855
O O11 0.749637 0.750000 0.487856
#
# Coordination Sequence:
#
# PCOD9573302 Si02
#       5
#    32  32  32  32   8
#     4  11  23  36  62  90 125 159 193 247 303 362
#     4  11  22  37  56  81 119 165 199 237 285 351
#     4  11  22  39  64  91 119 158 198 247 311 369
#     4  11  24  40  57  91 123 151 205 251 295 350
#     4  12  25  40  54  78 118 173 210 229 286 360
#
# _framework density 16.772186999999999
#
# number of rings (size 3 to 8) (size 9 to 14) (size 15 to 20)
#    0.000    0.941    5.882    1.765    4.941    0.941 
#    0.000    0.000    0.000    0.000    0.000    0.000 
#    0.000    0.000    0.000    0.000    0.000    0.000 
#
# Total GULP energy -378674.555191 kJ/mol
# GULP energy per Si atom -5568.743459 kJ/mol
# Density = 1.673401 g / cm^3
# Si number density = 16.772187 Si / 1000 Ang^3
#
#
#
# Elastic Constant Matrix: (Units=GPa)
#
#
# Indices 1 2 3 4 5 6 
#
# 1 98.2900 38.0113 23.6966 0.0000 0.0000 0.0000
# 2 38.0113 98.2841 23.6908 0.0000 0.0000 0.0000
# 3 23.6966 23.6908 64.7076 0.0000 0.0000 0.0000
# 4 0.0000 0.0000 0.0000 -10.4745 0.0000 0.0000
# 5 0.0000 0.0000 0.0000 0.0000 -10.4764 0.0000
# 6 0.0000 0.0000 0.0000 0.0000 0.0000 33.1422
#
#
#
# Elastic Compliance Matrix: (Units=1/GPa)
#
#
# Indices 1 2 3 4 5 6 
#
# 1 0.012499 -0.004092 -0.003079 0.000000 0.000000 0.000000
# 2 -0.004092 0.012499 -0.003078 0.000000 0.000000 0.000000
# 3 -0.003079 -0.003078 0.017709 0.000000 0.000000 0.000000
# 4 0.000000 0.000000 0.000000 -0.095470 0.000000 0.000000
# 5 0.000000 0.000000 0.000000 0.000000 -0.095453 0.000000
# 6 0.000000 0.000000 0.000000 0.000000 0.000000 0.030173
#
#
# Mechanical properties :
#
#
# Convention : Reuss Voigt Hill
#
# Bulk Modulus (GPa) = 45.02640 48.00879 46.51760
# Shear Modulus (GPa) = -55.46698 14.16379 -20.65159
#
# Velocity S-wave (km/s) = -5.75696 2.90915 -3.51280
# Velocity P-wave (km/s) = 4.15764 6.32221 3.36782
#
# Compressibility (1/GPa) = 0.02220919
#
# Stress axis : x y z
#
# Youngs Moduli (GPa) = 80.00851 80.00708 56.46993
#
# Poissons Ratio (x) = 0.32736 0.17388
# Poissons Ratio (y) = 0.32737 0.17380
# Poissons Ratio (z) = 0.24636 0.24624
#
# Static dielectric constant tensor:
#      x y z
#    x 1.559500 0.000000 0.000000 
#    y 0.000000 1.559500 0.000000 
#    z 0.000000 0.000000 1.551770 
# 
# From -- ./inp_files/4644.got.cif
#   From: 2010.05.17/outbox.cif.g08.bks.cpg/sg141_3_cif.got.tgz:4644.got - 2010.05.20 13:30:51.
