data_PCOD9573710
_publ_section_title
;
Structure prediction by ZEFSAII (Michael W. Deem and Ramdas Pophale) SiO2 
 PCOD9573710
Probable space group: I 41/A C D
;
_chemical_formula_sum "Si O2"
_cell_formula_units_Z 176
_cell_length_a 27.667004
_cell_length_b 27.667004
_cell_length_c 11.036594
_cell_angle_alpha 90.000000
_cell_angle_beta 90.000000
_cell_angle_gamma 90.000000
_cell_volume 8448.105571
_symmetry_space_group_name_H-M "I 41/A C D"
_symmetry_group_IT_number 142
_space_group.IT_coordinate_system_code '2'
_symmetry_cell_setting 'tetragonal'
loop_
_space_group_symop_operation_xyz
x,y,z
1/4-y,3/4+x,1/4+z
-x,1/2-y,z
1/4+y,1/4-x,3/4+z
x,-y,1/2-z
1/2-x,y,-z
3/4+y,1/4+x,1/4-z
1/4-y,1/4-x,1/4-z
-x,-y,-z
3/4+y,1/4-x,3/4-z
x,1/2+y,-z
3/4-y,3/4+x,1/4-z
-x,y,1/2+z
1/2+x,-y,z
1/4-y,3/4-x,3/4+z
3/4+y,3/4+x,3/4+z
1/2+x,1/2+y,1/2+z
3/4-y,1/4+x,3/4+z
1/2-x,-y,1/2+z
3/4+y,3/4-x,1/4+z
1/2+x,1/2-y,-z
-x,1/2+y,1/2-z
1/4+y,3/4+x,3/4-z
3/4-y,3/4-x,3/4-z
1/2-x,1/2-y,1/2-z
1/4+y,3/4-x,1/4-z
1/2+x,y,1/2-z
1/4-y,1/4+x,3/4-z
1/2-x,1/2+y,z
x,1/2-y,1/2+z
3/4-y,1/4-x,1/4+z
1/4+y,1/4+x,1/4+z
loop_
_atom_site_type_symbol
_atom_site_label
_atom_site_fract_x
_atom_site_fract_y
_atom_site_fract_z
Si Si1 0.993189 0.000000 0.750000
Si Si2 0.025813 0.324674 0.900922
Si Si3 0.421485 0.828515 0.125000
Si Si4 0.806725 0.431367 0.980842
Si Si5 0.922542 0.068565 0.156868
Si Si6 0.839776 0.500000 0.750000
Si Si7 0.672575 0.825309 0.879764
O O1 0.957665 0.967769 0.668987
O O2 0.030049 0.962201 0.811924
O O3 0.059324 0.278332 0.875974
O O4 0.046969 0.372858 0.839791
O O5 0.031120 0.331427 0.045014
O O6 0.421570 0.876908 0.206329
O O7 0.817446 0.473206 0.874163
O O8 0.823618 0.379493 0.930117
O O9 0.750000 0.434366 0.000000
O O10 0.821201 0.428800 0.125000
O O11 0.874916 0.041184 0.198921
O O12 0.920595 0.074740 0.013971
#
# Coordination Sequence:
#
# PCOD9573710 Si02
#       7
#    16  32  16  32  32  16  32
#     4  11  22  40  67 104 132 182 229 282 355 410
#     4  10  22  40  63  95 131 173 221 274 341 415
#     4  10  20  41  64  92 128 168 220 274 330 408
#     4  12  28  47  68 103 138 183 234 296 357 424
#     4  10  22  41  71  96 132 181 231 282 347 423
#     4  11  24  44  73  98 134 182 237 280 355 426
#     4  11  23  45  66  97 144 173 232 295 344 417
#
# _framework density 20.833072000000001
#
# number of rings (size 3 to 8) (size 9 to 14) (size 15 to 20)
#    0.000    1.273    0.909    4.909    1.273    4.364 
#    9.818    0.000    0.000    0.000    0.000    0.000 
#    0.000    0.000    0.000    0.000    0.000    0.000 
#
# Total GULP energy -489947.950462 kJ/mol
# GULP energy per Si atom -5567.590346 kJ/mol
# Density = 2.078566 g / cm^3
# Si number density = 20.833072 Si / 1000 Ang^3
#
#
#
# Elastic Constant Matrix: (Units=GPa)
#
#
# Indices 1 2 3 4 5 6 
#
# 1 110.2635 28.2456 34.5182 0.0000 0.0000 0.0000
# 2 28.2456 110.2613 34.5164 0.0000 0.0000 0.0000
# 3 34.5182 34.5164 95.1831 0.0000 0.0000 0.0000
# 4 0.0000 0.0000 0.0000 20.8589 0.0000 0.0000
# 5 0.0000 0.0000 0.0000 0.0000 20.8606 0.0000
# 6 0.0000 0.0000 0.0000 0.0000 0.0000 20.8141
#
#
#
# Elastic Compliance Matrix: (Units=1/GPa)
#
#
# Indices 1 2 3 4 5 6 
#
# 1 0.010503 -0.001690 -0.003196 0.000000 0.000000 0.000000
# 2 -0.001690 0.010503 -0.003196 0.000000 0.000000 0.000000
# 3 -0.003196 -0.003196 0.012824 0.000000 0.000000 0.000000
# 4 0.000000 0.000000 0.000000 0.047941 0.000000 0.000000
# 5 0.000000 0.000000 0.000000 0.000000 0.047937 0.000000
# 6 0.000000 0.000000 0.000000 0.000000 0.000000 0.048044
#
#
# Mechanical properties :
#
#
# Convention : Reuss Voigt Hill
#
# Bulk Modulus (GPa) = 56.60616 56.69651 56.65133
# Shear Modulus (GPa) = 25.02453 27.06856 26.04655
#
# Velocity S-wave (km/s) = 3.46958 3.60850 3.53972
# Velocity P-wave (km/s) = 6.57883 6.68098 6.63010
#
# Compressibility (1/GPa) = 0.01766592
#
# Stress axis : x y z
#
# Youngs Moduli (GPa) = 95.21462 95.21370 77.97910
#
# Poissons Ratio (x) = 0.16091 0.24922
# Poissons Ratio (y) = 0.16091 0.24920
# Poissons Ratio (z) = 0.30430 0.30428
#
# Static dielectric constant tensor:
#      x y z
#    x 1.764580 0.000000 0.000000 
#    y 0.000000 1.764590 0.000000 
#    z 0.000000 0.000000 2.268470 
# 
# From -- ./inp_files/4030.got.cif
#   From: 2010.05.17/outbox.cif.g08.bks.cpg/sg142_3_cif.got.tgz:4030.got - 2010.05.20 13:39:18.
