data_PCOD9573505
_publ_section_title
;
Structure prediction by ZEFSAII (Michael W. Deem and Ramdas Pophale) SiO2 
 PCOD9573505
Probable space group: I 41/A C D
;
_chemical_formula_sum "Si O2"
_cell_formula_units_Z 240
_cell_length_a 30.030261
_cell_length_b 30.030261
_cell_length_c 14.716894
_cell_angle_alpha 90.000000
_cell_angle_beta 90.000000
_cell_angle_gamma 90.000000
_cell_volume 13271.938952
_symmetry_space_group_name_H-M "I 41/A C D"
_symmetry_group_IT_number 142
_space_group.IT_coordinate_system_code '2'
_symmetry_cell_setting 'tetragonal'
loop_
_space_group_symop_operation_xyz
x,y,z
1/4-y,3/4+x,1/4+z
-x,1/2-y,z
1/4+y,1/4-x,3/4+z
x,-y,1/2-z
1/2-x,y,-z
3/4+y,1/4+x,1/4-z
1/4-y,1/4-x,1/4-z
-x,-y,-z
3/4+y,1/4-x,3/4-z
x,1/2+y,-z
3/4-y,3/4+x,1/4-z
-x,y,1/2+z
1/2+x,-y,z
1/4-y,3/4-x,3/4+z
3/4+y,3/4+x,3/4+z
1/2+x,1/2+y,1/2+z
3/4-y,1/4+x,3/4+z
1/2-x,-y,1/2+z
3/4+y,3/4-x,1/4+z
1/2+x,1/2-y,-z
-x,1/2+y,1/2-z
1/4+y,3/4+x,3/4-z
3/4-y,3/4-x,3/4-z
1/2-x,1/2-y,1/2-z
1/4+y,3/4-x,1/4-z
1/2+x,y,1/2-z
1/4-y,1/4+x,3/4-z
1/2-x,1/2+y,z
x,1/2-y,1/2+z
3/4-y,1/4-x,1/4+z
1/4+y,1/4+x,1/4+z
loop_
_atom_site_type_symbol
_atom_site_label
_atom_site_fract_x
_atom_site_fract_y
_atom_site_fract_z
Si Si1 0.931674 0.681674 0.375000
Si Si2 0.755985 0.210030 0.389910
Si Si3 0.826155 0.428302 0.276626
Si Si4 0.740919 0.394407 0.864313
Si Si5 0.406400 0.279200 0.832332
Si Si6 0.124958 0.337291 0.800331
Si Si7 0.544260 0.202102 0.654312
Si Si8 0.182222 0.252685 0.746628
O O1 0.920098 0.733874 0.382895
O O2 0.906222 0.662287 0.288181
O O3 0.750000 0.215910 0.500000
O O4 0.753763 0.157430 0.367384
O O5 0.799541 0.229059 0.337940
O O6 0.717925 0.235170 0.331331
O O7 0.850643 0.452840 0.191969
O O8 0.780452 0.410982 0.230227
O O9 0.826147 0.466986 0.352556
O O10 0.852890 0.385302 0.311547
O O11 0.425784 0.324217 0.875000
O O12 0.433368 0.275466 0.739694
O O13 0.355297 0.276572 0.803618
O O14 0.093274 0.318856 0.879763
O O15 0.161095 0.299395 0.778591
O O16 0.552157 0.241585 0.581799
#
# Coordination Sequence:
#
# PCOD9573505 Si02
#       8
#    16  32  32  32  32  32  32  32
#     4  10  19  34  52  76 118 162 204 250 288 324
#     4  11  22  41  66  88 117 160 200 258 316 364
#     4  10  20  34  58  95 120 141 186 250 314 370
#     4  10  20  34  59  96 117 143 189 246 315 372
#     4  11  23  36  53  81 119 169 203 248 297 348
#     4  11  21  36  59  84 122 157 201 256 297 349
#     4  11  22  35  48  78 118 165 213 247 285 339
#     4  10  24  41  56  93 124 154 213 258 297 369
#
# _framework density 18.083266999999999
#
# number of rings (size 3 to 8) (size 9 to 14) (size 15 to 20)
#    0.000    1.467    5.333    1.800    5.600    1.067 
#    0.000    0.000    0.000    0.000   20.800    0.000 
#    0.000    0.000    0.000    0.000    0.000    0.000 
#
# Total GULP energy -668513.678094 kJ/mol
# GULP energy per Si atom -5570.947317 kJ/mol
# Density = 1.804211 g / cm^3
# Si number density = 18.083267 Si / 1000 Ang^3
#
#
#
# Elastic Constant Matrix: (Units=GPa)
#
#
# Indices 1 2 3 4 5 6 
#
# 1 87.2988 56.7302 34.4541 0.0000 0.0000 0.0000
# 2 56.7302 87.2973 34.4573 0.0000 0.0000 0.0000
# 3 34.4541 34.4573 75.3597 0.0000 0.0000 0.0000
# 4 0.0000 0.0000 0.0000 17.0585 0.0000 0.0000
# 5 0.0000 0.0000 0.0000 0.0000 17.1323 0.0000
# 6 0.0000 0.0000 0.0000 0.0000 0.0000 23.5747
#
#
#
# Elastic Compliance Matrix: (Units=1/GPa)
#
#
# Indices 1 2 3 4 5 6 
#
# 1 0.020800 -0.011913 -0.004062 0.000000 0.000000 0.000000
# 2 -0.011913 0.020801 -0.004064 0.000000 0.000000 0.000000
# 3 -0.004062 -0.004064 0.016985 0.000000 0.000000 0.000000
# 4 0.000000 0.000000 0.000000 0.058622 0.000000 0.000000
# 5 0.000000 0.000000 0.000000 0.000000 0.058369 0.000000
# 6 0.000000 0.000000 0.000000 0.000000 0.000000 0.042418
#
#
# Mechanical properties :
#
#
# Convention : Reuss Voigt Hill
#
# Bulk Modulus (GPa) = 54.03564 55.69323 54.86444
# Shear Modulus (GPa) = 18.92179 19.84070 19.38125
#
# Velocity S-wave (km/s) = 3.23827 3.31597 3.27735
# Velocity P-wave (km/s) = 6.62785 6.74729 6.68784
#
# Compressibility (1/GPa) = 0.01850630
#
# Stress axis : x y z
#
# Youngs Moduli (GPa) = 48.07677 48.07382 58.87410
#
# Poissons Ratio (x) = 0.57273 0.23917
# Poissons Ratio (y) = 0.57276 0.23929
# Poissons Ratio (z) = 0.19531 0.19539
#
# Static dielectric constant tensor:
#      x y z
#    x 1.674480 0.000000 0.000000 
#    y 0.000000 1.674520 0.000000 
#    z 0.000000 0.000000 1.686660 
# 
# From -- ./inp_files/5922.got.cif
#   From: 2010.05.17/outbox.cif.g08.bks.cpg/sg142_3_cif.got.tgz:5922.got - 2010.05.20 13:39:18.
