data_PCOD9573046
_publ_section_title
;
Structure prediction by ZEFSAII (Michael W. Deem and Ramdas Pophale) SiO2 
 PCOD9573046
Probable space group: I 41/A M D
;
_chemical_formula_sum "Si O2"
_cell_formula_units_Z 144
_cell_length_a 20.882895
_cell_length_b 20.882895
_cell_length_c 19.236115
_cell_angle_alpha 90.000000
_cell_angle_beta 90.000000
_cell_angle_gamma 90.000000
_cell_volume 8388.779411
_symmetry_space_group_name_H-M "I 41/A M D"
_symmetry_group_IT_number 141
_space_group.IT_coordinate_system_code '2'
_symmetry_cell_setting 'tetragonal'
loop_
_space_group_symop_operation_xyz
x,y,z
1/4-y,3/4+x,1/4+z
-x,1/2-y,z
1/4+y,1/4-x,3/4+z
x,-y,-z
-x,1/2+y,-z
1/4+y,3/4+x,1/4-z
1/4-y,1/4-x,3/4-z
-x,-y,-z
3/4+y,1/4-x,3/4-z
x,1/2+y,-z
3/4-y,3/4+x,1/4-z
-x,y,z
x,1/2-y,z
3/4-y,1/4-x,3/4+z
3/4+y,3/4+x,1/4+z
1/2+x,1/2+y,1/2+z
3/4-y,1/4+x,3/4+z
1/2-x,-y,1/2+z
3/4+y,3/4-x,1/4+z
1/2+x,1/2-y,1/2-z
1/2-x,y,1/2-z
3/4+y,1/4+x,3/4-z
3/4-y,3/4-x,1/4-z
1/2-x,1/2-y,1/2-z
1/4+y,3/4-x,1/4-z
1/2+x,y,1/2-z
1/4-y,1/4+x,3/4-z
1/2-x,1/2+y,1/2+z
1/2+x,-y,1/2+z
1/4-y,3/4-x,1/4+z
1/4+y,1/4+x,3/4+z
loop_
_atom_site_type_symbol
_atom_site_label
_atom_site_fract_x
_atom_site_fract_y
_atom_site_fract_z
Si Si1 0.861339 0.140113 0.163122
Si Si2 0.250686 0.441785 0.554960
Si Si3 0.216779 0.320203 0.027843
Si Si4 0.500000 0.924426 0.983588
Si Si5 0.500000 0.587469 0.820798
Si Si6 0.077394 0.250000 0.560045
O O1 0.824770 0.168748 0.096684
O O2 0.850968 0.187083 0.228254
O O3 0.937454 0.142734 0.153874
O O4 0.832387 0.070779 0.177853
O O5 0.248480 0.500000 0.500000
O O6 0.283557 0.466444 0.625000
O O7 0.286846 0.380966 0.521573
O O8 0.199856 0.250000 0.997253
O O9 0.291036 0.309926 0.051341
O O10 0.500000 0.904911 0.903205
O O11 0.500000 0.000000 0.000000
O O12 0.500000 0.647943 0.770182
O O13 0.000000 0.250000 0.563778
#
# Coordination Sequence:
#
# PCOD9573046 Si02
#       6
#    32  32  32  16  16  16
#     4  12  22  39  61  87 123 166 210 260 303 370
#     4  12  25  38  63  96 126 157 215 263 314 377
#     4  10  20  41  64  85 117 167 205 254 320 369
#     4  12  20  35  58  85 122 168 218 238 302 371
#     4  10  22  38  57  81 126 171 201 251 308 364
#     4  12  24  42  58  89 126 171 217 255 305 385
#
# _framework density 17.165787000000002
#
# number of rings (size 3 to 8) (size 9 to 14) (size 15 to 20)
#    0.667    0.000    8.889    0.667    0.000    0.889 
#    2.000    0.000    2.444    2.000    0.000    0.000 
#    0.000    0.000    0.000    0.000    0.000    0.000 
#
# Total GULP energy -401712.245718 kJ/mol
# GULP energy per Si atom -5579.336746 kJ/mol
# Density = 1.712672 g / cm^3
# Si number density = 17.165787 Si / 1000 Ang^3
#
#
#
# Elastic Constant Matrix: (Units=GPa)
#
#
# Indices 1 2 3 4 5 6 
#
# 1 116.3594 33.9366 54.6479 0.0000 0.0000 0.0000
# 2 33.9366 116.3602 54.6476 0.0000 0.0000 0.0000
# 3 54.6479 54.6476 92.2825 0.0000 0.0000 0.0000
# 4 0.0000 0.0000 0.0000 -1.4690 0.0000 0.0000
# 5 0.0000 0.0000 0.0000 0.0000 -1.4695 0.0000
# 6 0.0000 0.0000 0.0000 0.0000 0.0000 5.9124
#
#
#
# Elastic Compliance Matrix: (Units=1/GPa)
#
#
# Indices 1 2 3 4 5 6 
#
# 1 0.011909 -0.000223 -0.006920 0.000000 0.000000 0.000000
# 2 -0.000223 0.011909 -0.006920 0.000000 0.000000 0.000000
# 3 -0.006920 -0.006920 0.019032 0.000000 0.000000 0.000000
# 4 0.000000 0.000000 0.000000 -0.680731 0.000000 0.000000
# 5 0.000000 0.000000 0.000000 0.000000 -0.680520 0.000000
# 6 0.000000 0.000000 0.000000 0.000000 0.000000 0.169137
#
#
# Mechanical properties :
#
#
# Convention : Reuss Voigt Hill
#
# Bulk Modulus (GPa) = 67.91902 67.94068 67.92985
# Shear Modulus (GPa) = -4.47937 12.71278 4.11671
#
# Velocity S-wave (km/s) = -1.61714 2.72433 1.55029
# Velocity P-wave (km/s) = 6.01378 7.03996 6.54700
#
# Compressibility (1/GPa) = 0.01472342
#
# Stress axis : x y z
#
# Youngs Moduli (GPa) = 83.96844 83.96953 52.54268
#
# Poissons Ratio (x) = 0.01875 0.36360
# Poissons Ratio (y) = 0.01875 0.36360
# Poissons Ratio (z) = 0.58107 0.58107
#
# Static dielectric constant tensor:
#      x y z
#    x 1.623790 0.000000 0.000000 
#    y 0.000000 1.623790 0.000000 
#    z 0.000000 0.000000 1.552310 
# 
# From -- ./inp_files/8493.got.cif
#   From: 2010.05.17/outbox.cif.g08.bks.cpg/sg141_5_cif.got.tgz:8493.got - 2010.05.20 13:30:51.
