data_PCOD9573041
_publ_section_title
;
Structure prediction by ZEFSAII (Michael W. Deem and Ramdas Pophale) SiO2 
 PCOD9573041
Probable space group: I 41/A M D
;
_chemical_formula_sum "Si O2"
_cell_formula_units_Z 84
_cell_length_a 11.714162
_cell_length_b 11.714162
_cell_length_c 29.106290
_cell_angle_alpha 90.000000
_cell_angle_beta 90.000000
_cell_angle_gamma 90.000000
_cell_volume 3994.011432
_symmetry_space_group_name_H-M "I 41/A M D"
_symmetry_group_IT_number 141
_space_group.IT_coordinate_system_code '2'
_symmetry_cell_setting 'tetragonal'
loop_
_space_group_symop_operation_xyz
x,y,z
1/4-y,3/4+x,1/4+z
-x,1/2-y,z
1/4+y,1/4-x,3/4+z
x,-y,-z
-x,1/2+y,-z
1/4+y,3/4+x,1/4-z
1/4-y,1/4-x,3/4-z
-x,-y,-z
3/4+y,1/4-x,3/4-z
x,1/2+y,-z
3/4-y,3/4+x,1/4-z
-x,y,z
x,1/2-y,z
3/4-y,1/4-x,3/4+z
3/4+y,3/4+x,1/4+z
1/2+x,1/2+y,1/2+z
3/4-y,1/4+x,3/4+z
1/2-x,-y,1/2+z
3/4+y,3/4-x,1/4+z
1/2+x,1/2-y,1/2-z
1/2-x,y,1/2-z
3/4+y,1/4+x,3/4-z
3/4-y,3/4-x,1/4-z
1/2-x,1/2-y,1/2-z
1/4+y,3/4-x,1/4-z
1/2+x,y,1/2-z
1/4-y,1/4+x,3/4-z
1/2-x,1/2+y,1/2+z
1/2+x,-y,1/2+z
1/4-y,3/4-x,1/4+z
1/4+y,1/4+x,3/4+z
loop_
_atom_site_type_symbol
_atom_site_label
_atom_site_fract_x
_atom_site_fract_y
_atom_site_fract_z
Si Si1 0.635661 0.250000 0.513608
Si Si2 0.500000 0.990153 0.366800
Si Si3 0.500000 0.750000 0.375000
Si Si4 0.236639 0.500000 0.000000
Si Si5 0.133066 0.526903 0.404363
O O1 0.500000 0.250000 0.512984
O O2 0.690166 0.250000 0.564892
O O3 0.673165 0.124036 0.494013
O O4 0.614537 0.061237 0.371608
O O5 0.500000 0.876344 0.397607
O O6 0.312304 0.483580 0.954518
O O7 0.166941 0.416941 0.375000
O O8 0.000000 0.544529 0.408069
#
# Coordination Sequence:
#
# PCOD9573041 Si02
#       5
#    16  16   4  16  32
#     4  10  20  39  63  96 128 165 212 272 337 402
#     4  10  21  38  67  92 128 161 208 263 333 394
#     4  12  16  36  64  88 124 156 192 260 320 404
#     4  10  24  42  64  94 132 175 221 272 342 402
#     4  11  24  43  65  94 128 175 223 272 327 396
#
# _framework density 21.031486999999998
#
# number of rings (size 3 to 8) (size 9 to 14) (size 15 to 20)
#    0.000    1.524    2.857    1.714    2.667    0.381 
#    3.429    1.905    0.000    0.000    0.000    0.000 
#    0.000    0.000    0.000    0.000    0.000    0.000 
#
# Total GULP energy -234276.725288 kJ/mol
# GULP energy per Si atom -5578.017269 kJ/mol
# Density = 2.098362 g / cm^3
# Si number density = 21.031487 Si / 1000 Ang^3
#
#
#
# Elastic Constant Matrix: (Units=GPa)
#
#
# Indices 1 2 3 4 5 6 
#
# 1 169.2032 86.2125 24.9227 0.0000 0.0000 0.0000
# 2 86.2125 169.2032 24.9227 0.0000 0.0000 0.0000
# 3 24.9227 24.9227 51.6746 0.0000 0.0000 0.0000
# 4 0.0000 0.0000 0.0000 26.8761 0.0000 0.0000
# 5 0.0000 0.0000 0.0000 0.0000 26.8761 0.0000
# 6 0.0000 0.0000 0.0000 0.0000 0.0000 10.2983
#
#
#
# Elastic Compliance Matrix: (Units=1/GPa)
#
#
# Indices 1 2 3 4 5 6 
#
# 1 0.008186 -0.003864 -0.002084 0.000000 0.000000 0.000000
# 2 -0.003864 0.008186 -0.002084 0.000000 0.000000 0.000000
# 3 -0.002084 -0.002084 0.021363 0.000000 0.000000 0.000000
# 4 0.000000 0.000000 0.000000 0.037208 0.000000 0.000000
# 5 0.000000 0.000000 0.000000 0.000000 0.037208 0.000000
# 6 0.000000 0.000000 0.000000 0.000000 0.000000 0.097103
#
#
# Mechanical properties :
#
#
# Convention : Reuss Voigt Hill
#
# Bulk Modulus (GPa) = 46.14981 73.57740 59.86361
# Shear Modulus (GPa) = 21.50156 29.74499 25.62327
#
# Velocity S-wave (km/s) = 3.20089 3.76481 3.49424
# Velocity P-wave (km/s) = 5.97091 7.34566 6.69367
#
# Compressibility (1/GPa) = 0.02166856
#
# Stress axis : x y z
#
# Youngs Moduli (GPa) = 122.16332 122.16332 46.81084
#
# Poissons Ratio (x) = 0.47201 0.09758
# Poissons Ratio (y) = 0.47201 0.09758
# Poissons Ratio (z) = 0.25465 0.25465
#
# Static dielectric constant tensor:
#      x y z
#    x 1.767050 0.000000 0.000000 
#    y 0.000000 1.767050 0.000000 
#    z 0.000000 0.000000 1.837060 
# 
# From -- ./inp_files/13803.got.cif
#   From: 2010.05.17/outbox.cif.g08.bks.cpg/sg141_7_cif.got.tgz:13803.got - 2010.05.20 13:30:51.
