data_PCOD9573763
_publ_section_title
;
Structure prediction by ZEFSAII (Michael W. Deem and Ramdas Pophale) SiO2 
 PCOD9573763
Probable space group: I 41/A C D
;
_chemical_formula_sum "Si O2"
_cell_formula_units_Z 216
_cell_length_a 28.990843
_cell_length_b 28.990843
_cell_length_c 12.890625
_cell_angle_alpha 90.000000
_cell_angle_beta 90.000000
_cell_angle_gamma 90.000000
_cell_volume 10834.170418
_symmetry_space_group_name_H-M "I 41/A C D"
_symmetry_group_IT_number 142
_space_group.IT_coordinate_system_code '2'
_symmetry_cell_setting 'tetragonal'
loop_
_space_group_symop_operation_xyz
x,y,z
1/4-y,3/4+x,1/4+z
-x,1/2-y,z
1/4+y,1/4-x,3/4+z
x,-y,1/2-z
1/2-x,y,-z
3/4+y,1/4+x,1/4-z
1/4-y,1/4-x,1/4-z
-x,-y,-z
3/4+y,1/4-x,3/4-z
x,1/2+y,-z
3/4-y,3/4+x,1/4-z
-x,y,1/2+z
1/2+x,-y,z
1/4-y,3/4-x,3/4+z
3/4+y,3/4+x,3/4+z
1/2+x,1/2+y,1/2+z
3/4-y,1/4+x,3/4+z
1/2-x,-y,1/2+z
3/4+y,3/4-x,1/4+z
1/2+x,1/2-y,-z
-x,1/2+y,1/2-z
1/4+y,3/4+x,3/4-z
3/4-y,3/4-x,3/4-z
1/2-x,1/2-y,1/2-z
1/4+y,3/4-x,1/4-z
1/2+x,y,1/2-z
1/4-y,1/4+x,3/4-z
1/2-x,1/2+y,z
x,1/2-y,1/2+z
3/4-y,1/4-x,1/4+z
1/4+y,1/4+x,1/4+z
loop_
_atom_site_type_symbol
_atom_site_label
_atom_site_fract_x
_atom_site_fract_y
_atom_site_fract_z
Si Si1 0.850338 0.458288 0.541973
Si Si2 0.962078 0.908742 0.954223
Si Si3 0.936271 0.755452 0.316217
Si Si4 0.314873 0.416890 0.157651
Si Si5 0.500000 0.750000 0.375000
Si Si6 0.317187 0.315820 0.081257
Si Si7 0.710620 0.702303 0.141577
Si Si8 0.143234 0.893234 0.375000
O O1 0.826042 0.423959 0.625000
O O2 0.830409 0.454171 0.425938
O O3 0.837585 0.509963 0.578617
O O4 0.905947 0.450561 0.541599
O O5 0.911055 0.905003 0.901681
O O6 0.991119 0.865246 0.920489
O O7 0.995880 0.951759 0.931914
O O8 0.958021 0.904131 0.078495
O O9 0.947590 0.802411 0.375000
O O10 0.966574 0.716574 0.375000
O O11 0.956401 0.757103 0.200392
O O12 0.327761 0.369320 0.099140
O O13 0.339440 0.418448 0.269903
O O14 0.264037 0.305318 0.112085
O O15 0.319789 0.302185 0.962780
#
# Coordination Sequence:
#
# PCOD9573763 Si02
#       8
#    32  32  32  32   8  32  32  16
#     4  11  21  41  66  98 130 169 212 274 324 388
#     4  11  21  38  62  87 121 169 210 261 331 374
#     4   9  19  36  53  78 114 148 192 250 301 365
#     4  10  22  42  66  92 136 168 211 266 327 391
#     4   8  18  36  52  70 112 152 178 232 308 350
#     4   9  20  39  59  87 121 161 205 266 313 374
#     4  10  21  37  62  90 122 157 217 263 313 381
#     4  10  24  44  59  88 138 178 212 276 326 390
#
# _framework density 19.936920000000001
#
# number of rings (size 3 to 8) (size 9 to 14) (size 15 to 20)
#    0.000    2.222    2.222    0.889    0.000    4.741 
#    9.333    2.963    0.000    0.000    0.000    0.000 
#    0.000    0.000    0.000    0.000    0.000    0.000 
#
# Total GULP energy -601415.604781 kJ/mol
# GULP energy per Si atom -5568.663007 kJ/mol
# Density = 1.989154 g / cm^3
# Si number density = 19.936920 Si / 1000 Ang^3
#
#
#
# Elastic Constant Matrix: (Units=GPa)
#
#
# Indices 1 2 3 4 5 6 
#
# 1 45.2623 27.2367 19.3688 0.0000 0.0000 0.0000
# 2 27.2367 45.2615 19.3717 0.0000 0.0000 0.0000
# 3 19.3688 19.3717 113.2589 0.0000 0.0000 0.0000
# 4 0.0000 0.0000 0.0000 22.9354 0.0000 0.0000
# 5 0.0000 0.0000 0.0000 0.0000 22.9451 0.0000
# 6 0.0000 0.0000 0.0000 0.0000 0.0000 21.3140
#
#
#
# Elastic Compliance Matrix: (Units=1/GPa)
#
#
# Indices 1 2 3 4 5 6 
#
# 1 0.035329 -0.020148 -0.002595 0.000000 0.000000 0.000000
# 2 -0.020148 0.035330 -0.002597 0.000000 0.000000 0.000000
# 3 -0.002595 -0.002597 0.009717 0.000000 0.000000 0.000000
# 4 0.000000 0.000000 0.000000 0.043601 0.000000 0.000000
# 5 0.000000 0.000000 0.000000 0.000000 0.043582 0.000000
# 6 0.000000 0.000000 0.000000 0.000000 0.000000 0.046918
#
#
# Mechanical properties :
#
#
# Convention : Reuss Voigt Hill
#
# Bulk Modulus (GPa) = 33.67723 37.30413 35.49068
# Shear Modulus (GPa) = 18.17808 22.62594 20.40201
#
# Velocity S-wave (km/s) = 3.02285 3.37245 3.20242
# Velocity P-wave (km/s) = 5.39556 5.82376 5.61374
#
# Compressibility (1/GPa) = 0.02969365
#
# Stress axis : x y z
#
# Youngs Moduli (GPa) = 28.30575 28.30458 102.90818
#
# Poissons Ratio (x) = 0.57029 0.26710
# Poissons Ratio (y) = 0.57032 0.26727
# Poissons Ratio (z) = 0.07347 0.07351
#
# Static dielectric constant tensor:
#      x y z
#    x 1.728810 0.000000 0.000000 
#    y 0.000000 1.728840 0.000000 
#    z 0.000000 0.000000 1.745000 
# 
# From -- ./inp_files/4268.got.cif
#   From: 2010.05.17/outbox.cif.g08.bks.cpg/sg142_3_cif.got.tgz:4268.got - 2010.05.20 13:39:18.
