data_PCOD9573503
_publ_section_title
;
Structure prediction by ZEFSAII (Michael W. Deem and Ramdas Pophale) SiO2 
 PCOD9573503
Probable space group: I 41/A C D
;
_chemical_formula_sum "Si O2"
_cell_formula_units_Z 144
_cell_length_a 18.097393
_cell_length_b 18.097393
_cell_length_c 24.157327
_cell_angle_alpha 90.000000
_cell_angle_beta 90.000000
_cell_angle_gamma 90.000000
_cell_volume 7911.902254
_symmetry_space_group_name_H-M "I 41/A C D"
_symmetry_group_IT_number 142
_space_group.IT_coordinate_system_code '2'
_symmetry_cell_setting 'tetragonal'
loop_
_space_group_symop_operation_xyz
x,y,z
1/4-y,3/4+x,1/4+z
-x,1/2-y,z
1/4+y,1/4-x,3/4+z
x,-y,1/2-z
1/2-x,y,-z
3/4+y,1/4+x,1/4-z
1/4-y,1/4-x,1/4-z
-x,-y,-z
3/4+y,1/4-x,3/4-z
x,1/2+y,-z
3/4-y,3/4+x,1/4-z
-x,y,1/2+z
1/2+x,-y,z
1/4-y,3/4-x,3/4+z
3/4+y,3/4+x,3/4+z
1/2+x,1/2+y,1/2+z
3/4-y,1/4+x,3/4+z
1/2-x,-y,1/2+z
3/4+y,3/4-x,1/4+z
1/2+x,1/2-y,-z
-x,1/2+y,1/2-z
1/4+y,3/4+x,3/4-z
3/4-y,3/4-x,3/4-z
1/2-x,1/2-y,1/2-z
1/4+y,3/4-x,1/4-z
1/2+x,y,1/2-z
1/4-y,1/4+x,3/4-z
1/2-x,1/2+y,z
x,1/2-y,1/2+z
3/4-y,1/4-x,1/4+z
1/4+y,1/4+x,1/4+z
loop_
_atom_site_type_symbol
_atom_site_label
_atom_site_fract_x
_atom_site_fract_y
_atom_site_fract_z
Si Si1 0.912841 0.113150 0.436330
Si Si2 0.923478 0.221604 0.227183
Si Si3 0.867016 0.556878 0.931357
Si Si4 0.483174 0.397892 0.682567
Si Si5 0.750000 0.861978 0.500000
O O1 0.851557 0.178094 0.435751
O O2 0.958320 0.122240 0.379171
O O3 0.965052 0.132246 0.488003
O O4 0.886232 0.028850 0.437597
O O5 0.863343 0.185869 0.186572
O O6 0.953222 0.162891 0.273501
O O7 0.000000 0.250000 0.200536
O O8 0.823606 0.573606 0.875000
O O9 0.814976 0.585023 0.980641
O O10 0.442026 0.472637 0.701118
#
# Coordination Sequence:
#
# PCOD9573503 Si02
#       5
#    32  32  32  32  16
#     4  11  19  34  58  85 108 146 193 238 283 333
#     4   9  20  35  56  84 109 141 191 239 273 334
#     4  11  22  36  57  82 117 155 182 233 297 344
#     4  10  19  33  59  80 109 143 190 238 279 334
#     4  10  22  40  52  80 116 150 192 232 292 352
#
# _framework density 18.200426
#
# number of rings (size 3 to 8) (size 9 to 14) (size 15 to 20)
#    0.000    1.778    4.444    0.667    0.000    1.333 
#    0.000    0.000    0.000    0.000    0.000    0.000 
#    0.000    0.000    0.000    0.000    0.000    0.000 
#
# Total GULP energy -401250.000501 kJ/mol
# GULP energy per Si atom -5572.916674 kJ/mol
# Density = 1.815900 g / cm^3
# Si number density = 18.200426 Si / 1000 Ang^3
#
#
#
# Elastic Constant Matrix: (Units=GPa)
#
#
# Indices 1 2 3 4 5 6 
#
# 1 112.4669 62.4085 11.5301 0.0000 0.0000 0.0000
# 2 62.4085 112.4669 11.5301 0.0000 0.0000 0.0000
# 3 11.5301 11.5301 23.4763 0.0000 0.0000 0.0000
# 4 0.0000 0.0000 0.0000 20.6219 0.0000 0.0000
# 5 0.0000 0.0000 0.0000 0.0000 20.6219 0.0000
# 6 0.0000 0.0000 0.0000 0.0000 0.0000 22.3206
#
#
#
# Elastic Compliance Matrix: (Units=1/GPa)
#
#
# Indices 1 2 3 4 5 6 
#
# 1 0.013046 -0.006931 -0.003003 0.000000 0.000000 0.000000
# 2 -0.006931 0.013046 -0.003003 0.000000 0.000000 0.000000
# 3 -0.003003 -0.003003 0.045546 0.000000 0.000000 0.000000
# 4 0.000000 0.000000 0.000000 0.048492 0.000000 0.000000
# 5 0.000000 0.000000 0.000000 0.000000 0.048492 0.000000
# 6 0.000000 0.000000 0.000000 0.000000 0.000000 0.044802
#
#
# Mechanical properties :
#
#
# Convention : Reuss Voigt Hill
#
# Bulk Modulus (GPa) = 21.85190 46.59419 34.22305
# Shear Modulus (GPa) = 19.64240 23.57564 21.60902
#
# Velocity S-wave (km/s) = 3.28872 3.60298 3.44943
# Velocity P-wave (km/s) = 5.14327 6.55475 5.89144
#
# Compressibility (1/GPa) = 0.04576261
#
# Stress axis : x y z
#
# Youngs Moduli (GPa) = 76.65470 76.65470 21.95587
#
# Poissons Ratio (x) = 0.53131 0.06593
# Poissons Ratio (y) = 0.53131 0.06593
# Poissons Ratio (z) = 0.23019 0.23019
#
# Static dielectric constant tensor:
#      x y z
#    x 1.642450 0.000000 0.000000 
#    y 0.000000 1.642450 0.000000 
#    z 0.000000 0.000000 1.614660 
# 
# From -- ./inp_files/10131.got.cif
#   From: 2010.05.17/outbox.cif.g08.bks.cpg/sg142_6_cif.got.tgz:10131.got - 2010.05.20 13:39:18.
