data_PCOD9573216
_publ_section_title
;
Structure prediction by ZEFSAII (Michael W. Deem and Ramdas Pophale) SiO2 
 PCOD9573216
Probable space group: I 41/A M D
;
_chemical_formula_sum "Si O2"
_cell_formula_units_Z 96
_cell_length_a 14.102551
_cell_length_b 14.102551
_cell_length_c 20.985062
_cell_angle_alpha 90.000000
_cell_angle_beta 90.000000
_cell_angle_gamma 90.000000
_cell_volume 4173.549940
_symmetry_space_group_name_H-M "I 41/A M D"
_symmetry_group_IT_number 141
_space_group.IT_coordinate_system_code '2'
_symmetry_cell_setting 'tetragonal'
loop_
_space_group_symop_operation_xyz
x,y,z
1/4-y,3/4+x,1/4+z
-x,1/2-y,z
1/4+y,1/4-x,3/4+z
x,-y,-z
-x,1/2+y,-z
1/4+y,3/4+x,1/4-z
1/4-y,1/4-x,3/4-z
-x,-y,-z
3/4+y,1/4-x,3/4-z
x,1/2+y,-z
3/4-y,3/4+x,1/4-z
-x,y,z
x,1/2-y,z
3/4-y,1/4-x,3/4+z
3/4+y,3/4+x,1/4+z
1/2+x,1/2+y,1/2+z
3/4-y,1/4+x,3/4+z
1/2-x,-y,1/2+z
3/4+y,3/4-x,1/4+z
1/2+x,1/2-y,1/2-z
1/2-x,y,1/2-z
3/4+y,1/4+x,3/4-z
3/4-y,3/4-x,1/4-z
1/2-x,1/2-y,1/2-z
1/4+y,3/4-x,1/4-z
1/2+x,y,1/2-z
1/4-y,1/4+x,3/4-z
1/2-x,1/2+y,1/2+z
1/2+x,-y,1/2+z
1/4-y,3/4-x,1/4+z
1/4+y,1/4+x,3/4+z
loop_
_atom_site_type_symbol
_atom_site_label
_atom_site_fract_x
_atom_site_fract_y
_atom_site_fract_z
Si Si1 0.000000 0.026603 0.159202
Si Si2 0.500000 0.581794 0.945384
Si Si3 0.701534 0.048467 0.625000
Si Si4 0.000000 0.639950 0.964979
Si Si5 0.000000 0.596313 0.698543
Si Si6 0.336015 0.000000 0.500000
O O1 0.000000 0.117832 0.111404
O O2 0.000000 0.040436 0.234758
O O3 0.907367 0.971363 0.137666
O O4 0.588026 0.655531 0.951203
O O5 0.500000 0.545827 0.871173
O O6 0.500000 0.500000 0.000000
O O7 0.728657 0.995585 0.561493
O O8 0.092084 0.588549 0.995037
O O9 0.000000 0.750000 0.977548
#
# Coordination Sequence:
#
# PCOD9573216 Si02
#       6
#    16  16  16  16  16  16
#     4  10  22  42  63  93 134 175 215 280 337 398
#     4   9  19  42  72  97 129 173 226 286 349 413
#     4  10  22  43  62  88 132 168 219 272 326 396
#     4   9  19  36  62  93 124 163 222 265 317 401
#     4   9  20  42  66 100 135 168 229 286 339 418
#     4   9  20  40  58  94 123 164 220 266 319 394
#
# _framework density 23.002002000000001
#
# number of rings (size 3 to 8) (size 9 to 14) (size 15 to 20)
#    0.000    2.667    0.000    2.000    4.667    0.333 
#   15.000    0.000    0.000    0.000    0.000    1.167 
#    0.000    0.000    0.000    0.000    0.000    0.000 
#
# Total GULP energy -268022.032418 kJ/mol
# GULP energy per Si atom -5583.792342 kJ/mol
# Density = 2.294965 g / cm^3
# Si number density = 23.002002 Si / 1000 Ang^3
#
#
#
# Elastic Constant Matrix: (Units=GPa)
#
#
# Indices 1 2 3 4 5 6 
#
# 1 75.1148 34.1578 41.7738 0.0000 0.0000 0.0000
# 2 34.1578 75.1170 41.7741 0.0000 0.0000 0.0000
# 3 41.7738 41.7741 249.7157 0.0000 0.0000 0.0000
# 4 0.0000 0.0000 0.0000 23.7462 0.0000 0.0000
# 5 0.0000 0.0000 0.0000 0.0000 23.7463 0.0000
# 6 0.0000 0.0000 0.0000 0.0000 0.0000 14.9821
#
#
#
# Elastic Compliance Matrix: (Units=1/GPa)
#
#
# Indices 1 2 3 4 5 6 
#
# 1 0.017455 -0.006961 -0.001755 0.000000 0.000000 0.000000
# 2 -0.006961 0.017454 -0.001755 0.000000 0.000000 0.000000
# 3 -0.001755 -0.001755 0.004592 0.000000 0.000000 0.000000
# 4 0.000000 0.000000 0.000000 0.042112 0.000000 0.000000
# 5 0.000000 0.000000 0.000000 0.000000 0.042112 0.000000
# 6 0.000000 0.000000 0.000000 0.000000 0.000000 0.066746
#
#
# Mechanical properties :
#
#
# Convention : Reuss Voigt Hill
#
# Bulk Modulus (GPa) = 53.88753 70.59544 62.24148
# Shear Modulus (GPa) = 22.97797 31.31104 27.14450
#
# Velocity S-wave (km/s) = 3.16405 3.69349 3.43898
# Velocity P-wave (km/s) = 6.06848 6.99620 6.54879
#
# Compressibility (1/GPa) = 0.01855717
#
# Stress axis : x y z
#
# Youngs Moduli (GPa) = 57.29151 57.29328 217.77635
#
# Poissons Ratio (x) = 0.39881 0.38229
# Poissons Ratio (y) = 0.39880 0.38228
# Poissons Ratio (z) = 0.10057 0.10057
#
# Static dielectric constant tensor:
#      x y z
#    x 1.844060 0.000000 0.000000 
#    y 0.000000 1.844060 0.000000 
#    z 0.000000 0.000000 2.006520 
# 
# From -- ./inp_files/9840.got.cif
#   From: 2010.05.17/outbox.cif.g08.bks.cpg/sg141_5_cif.got.tgz:9840.got - 2010.05.20 13:30:51.
