data_PCOD9573234
_publ_section_title
;
Structure prediction by ZEFSAII (Michael W. Deem and Ramdas Pophale) SiO2 
 PCOD9573234
Probable space group: I 41/A M D
;
_chemical_formula_sum "Si O2"
_cell_formula_units_Z 144
_cell_length_a 28.160089
_cell_length_b 28.160089
_cell_length_c 9.000687
_cell_angle_alpha 90.000000
_cell_angle_beta 90.000000
_cell_angle_gamma 90.000000
_cell_volume 7137.460297
_symmetry_space_group_name_H-M "I 41/A M D"
_symmetry_group_IT_number 141
_space_group.IT_coordinate_system_code '2'
_symmetry_cell_setting 'tetragonal'
loop_
_space_group_symop_operation_xyz
x,y,z
1/4-y,3/4+x,1/4+z
-x,1/2-y,z
1/4+y,1/4-x,3/4+z
x,-y,-z
-x,1/2+y,-z
1/4+y,3/4+x,1/4-z
1/4-y,1/4-x,3/4-z
-x,-y,-z
3/4+y,1/4-x,3/4-z
x,1/2+y,-z
3/4-y,3/4+x,1/4-z
-x,y,z
x,1/2-y,z
3/4-y,1/4-x,3/4+z
3/4+y,3/4+x,1/4+z
1/2+x,1/2+y,1/2+z
3/4-y,1/4+x,3/4+z
1/2-x,-y,1/2+z
3/4+y,3/4-x,1/4+z
1/2+x,1/2-y,1/2-z
1/2-x,y,1/2-z
3/4+y,1/4+x,3/4-z
3/4-y,3/4-x,1/4-z
1/2-x,1/2-y,1/2-z
1/4+y,3/4-x,1/4-z
1/2+x,y,1/2-z
1/4-y,1/4+x,3/4-z
1/2-x,1/2+y,1/2+z
1/2+x,-y,1/2+z
1/4-y,3/4-x,1/4+z
1/4+y,1/4+x,3/4+z
loop_
_atom_site_type_symbol
_atom_site_label
_atom_site_fract_x
_atom_site_fract_y
_atom_site_fract_z
Si Si1 0.197785 0.192931 0.991876
Si Si2 0.390687 0.696087 0.265375
Si Si3 0.713358 0.536643 0.875000
Si Si4 0.365905 0.631933 0.699807
Si Si5 0.133128 0.523754 0.848415
O O1 0.203756 0.250000 0.013063
O O2 0.176077 0.165843 0.137596
O O3 0.157131 0.185813 0.864103
O O4 0.245800 0.166069 0.937827
O O5 0.387499 0.750000 0.222040
O O6 0.433514 0.683514 0.375000
O O7 0.399853 0.664421 0.121750
O O8 0.750000 0.527891 0.750000
O O9 0.663147 0.522674 0.803374
O O10 0.363022 0.580021 0.624454
O O11 0.372622 0.622622 0.875000
O O12 0.152014 0.500000 0.000000
#
# Coordination Sequence:
#
# PCOD9573234 Si02
#       5
#    32  32  16  32  32
#     4  10  23  43  67  95 129 173 221 270 330 398
#     4   9  19  38  64  93 126 168 220 273 330 392
#     4  12  26  42  62  92 128 176 226 269 325 392
#     4  11  23  40  63  97 137 172 215 278 335 396
#     4  12  24  41  68  93 133 174 223 273 328 391
#
# _framework density 20.175242999999998
#
# number of rings (size 3 to 8) (size 9 to 14) (size 15 to 20)
#    0.000    1.333    3.333    2.000    0.000    4.222 
#    0.000    1.111    0.000    0.000    0.000    3.111 
#    0.000    0.000    0.000    0.000    0.000    0.000 
#
# Total GULP energy -400823.157595 kJ/mol
# GULP energy per Si atom -5566.988300 kJ/mol
# Density = 2.012932 g / cm^3
# Si number density = 20.175243 Si / 1000 Ang^3
#
#
#
# Elastic Constant Matrix: (Units=GPa)
#
#
# Indices 1 2 3 4 5 6 
#
# 1 105.0655 15.5948 31.5191 0.0000 0.0000 0.0000
# 2 15.5948 105.0664 31.5194 0.0000 0.0000 0.0000
# 3 31.5191 31.5194 115.1431 0.0000 0.0000 0.0000
# 4 0.0000 0.0000 0.0000 20.9299 0.0000 0.0000
# 5 0.0000 0.0000 0.0000 0.0000 20.9301 0.0000
# 6 0.0000 0.0000 0.0000 0.0000 0.0000 31.8711
#
#
#
# Elastic Compliance Matrix: (Units=1/GPa)
#
#
# Indices 1 2 3 4 5 6 
#
# 1 0.010424 -0.000753 -0.002647 0.000000 0.000000 0.000000
# 2 -0.000753 0.010424 -0.002647 0.000000 0.000000 0.000000
# 3 -0.002647 -0.002647 0.010134 0.000000 0.000000 0.000000
# 4 0.000000 0.000000 0.000000 0.047779 0.000000 0.000000
# 5 0.000000 0.000000 0.000000 0.000000 0.047778 0.000000
# 6 0.000000 0.000000 0.000000 0.000000 0.000000 0.031376
#
#
# Mechanical properties :
#
#
# Convention : Reuss Voigt Hill
#
# Bulk Modulus (GPa) = 52.94759 53.61572 53.28165
# Shear Modulus (GPa) = 28.35986 31.18898 29.77442
#
# Velocity S-wave (km/s) = 3.75330 3.93606 3.84577
# Velocity P-wave (km/s) = 6.71445 6.87674 6.79608
#
# Compressibility (1/GPa) = 0.01888660
#
# Stress axis : x y z
#
# Youngs Moduli (GPa) = 95.93422 95.93493 98.67603
#
# Poissons Ratio (x) = 0.07224 0.26122
# Poissons Ratio (y) = 0.07224 0.26122
# Poissons Ratio (z) = 0.25396 0.25397
#
# Static dielectric constant tensor:
#      x y z
#    x 1.767210 0.000000 0.000000 
#    y 0.000000 1.767200 0.000000 
#    z 0.000000 0.000000 1.751830 
# 
# From -- ./inp_files/3142.got.cif
#   From: 2010.05.17/outbox.cif.g08.bks.cpg/sg141_2_cif.got.tgz:3142.got - 2010.05.20 13:30:51.
