data_PCOD9573109
_publ_section_title
;
Structure prediction by ZEFSAII (Michael W. Deem and Ramdas Pophale) SiO2 
 PCOD9573109
Probable space group: I 41/A M D
;
_chemical_formula_sum "Si O2"
_cell_formula_units_Z 96
_cell_length_a 26.538955
_cell_length_b 26.538955
_cell_length_c 7.261739
_cell_angle_alpha 90.000000
_cell_angle_beta 90.000000
_cell_angle_gamma 90.000000
_cell_volume 5114.559928
_symmetry_space_group_name_H-M "I 41/A M D"
_symmetry_group_IT_number 141
_space_group.IT_coordinate_system_code '2'
_symmetry_cell_setting 'tetragonal'
loop_
_space_group_symop_operation_xyz
x,y,z
1/4-y,3/4+x,1/4+z
-x,1/2-y,z
1/4+y,1/4-x,3/4+z
x,-y,-z
-x,1/2+y,-z
1/4+y,3/4+x,1/4-z
1/4-y,1/4-x,3/4-z
-x,-y,-z
3/4+y,1/4-x,3/4-z
x,1/2+y,-z
3/4-y,3/4+x,1/4-z
-x,y,z
x,1/2-y,z
3/4-y,1/4-x,3/4+z
3/4+y,3/4+x,1/4+z
1/2+x,1/2+y,1/2+z
3/4-y,1/4+x,3/4+z
1/2-x,-y,1/2+z
3/4+y,3/4-x,1/4+z
1/2+x,1/2-y,1/2-z
1/2-x,y,1/2-z
3/4+y,1/4+x,3/4-z
3/4-y,3/4-x,1/4-z
1/2-x,1/2-y,1/2-z
1/4+y,3/4-x,1/4-z
1/2+x,y,1/2-z
1/4-y,1/4+x,3/4-z
1/2-x,1/2+y,1/2+z
1/2+x,-y,1/2+z
1/4-y,3/4-x,1/4+z
1/4+y,1/4+x,3/4+z
loop_
_atom_site_type_symbol
_atom_site_label
_atom_site_fract_x
_atom_site_fract_y
_atom_site_fract_z
Si Si1 0.101866 0.428590 0.349874
Si Si2 0.283178 0.308254 0.474787
Si Si3 0.627497 0.191861 0.753092
O O1 0.158626 0.408626 0.375000
O O2 0.073653 0.433948 0.545891
O O3 0.094103 0.484710 0.270769
O O4 0.077876 0.388470 0.208323
O O5 0.265918 0.250000 0.458000
O O6 0.318684 0.311520 0.650087
O O7 0.611842 0.250000 0.758160
O O8 0.590023 0.159978 0.625000
#
# Coordination Sequence:
#
# PCOD9573109 Si02
#       3
#    32  32  32
#     4  11  20  35  59  88 117 145 188 245 293 339
#     4  10  21  38  61  86 113 151 201 245 285 342
#     4  11  22  38  59  85 117 155 196 241 290 344
#
# _framework density 18.769945
#
# number of rings (size 3 to 8) (size 9 to 14) (size 15 to 20)
#    0.000    1.333    3.333    5.000    0.000    3.000 
#    0.000    0.000    0.000    8.000    0.000    0.000 
#    0.000    0.000    0.000    0.000    0.000    0.000 
#
# Total GULP energy -267725.657997 kJ/mol
# GULP energy per Si atom -5577.617875 kJ/mol
# Density = 1.872722 g / cm^3
# Si number density = 18.769945 Si / 1000 Ang^3
#
#
#
# Elastic Constant Matrix: (Units=GPa)
#
#
# Indices 1 2 3 4 5 6 
#
# 1 99.3383 63.2019 22.4394 0.0000 0.0000 0.0000
# 2 63.2019 99.3403 22.4411 0.0000 0.0000 0.0000
# 3 22.4394 22.4411 92.1843 0.0000 0.0000 0.0000
# 4 0.0000 0.0000 0.0000 20.3029 0.0000 0.0000
# 5 0.0000 0.0000 0.0000 0.0000 20.3038 0.0000
# 6 0.0000 0.0000 0.0000 0.0000 0.0000 24.8232
#
#
#
# Elastic Compliance Matrix: (Units=1/GPa)
#
#
# Indices 1 2 3 4 5 6 
#
# 1 0.017134 -0.010538 -0.001605 0.000000 0.000000 0.000000
# 2 -0.010538 0.017134 -0.001606 0.000000 0.000000 0.000000
# 3 -0.001605 -0.001606 0.011630 0.000000 0.000000 0.000000
# 4 0.000000 0.000000 0.000000 0.049254 0.000000 0.000000
# 5 0.000000 0.000000 0.000000 0.000000 0.049252 0.000000
# 6 0.000000 0.000000 0.000000 0.000000 0.000000 0.040285
#
#
# Mechanical properties :
#
#
# Convention : Reuss Voigt Hill
#
# Bulk Modulus (GPa) = 54.35223 56.33639 55.34431
# Shear Modulus (GPa) = 22.90220 25.27135 24.08677
#
# Velocity S-wave (km/s) = 3.49686 3.67328 3.58615
# Velocity P-wave (km/s) = 6.73231 6.93325 6.83351
#
# Compressibility (1/GPa) = 0.01839851
#
# Stress axis : x y z
#
# Youngs Moduli (GPa) = 58.36356 58.36428 85.98812
#
# Poissons Ratio (x) = 0.61506 0.13804
# Poissons Ratio (y) = 0.61505 0.13808
# Poissons Ratio (z) = 0.09369 0.09372
#
# Static dielectric constant tensor:
#      x y z
#    x 1.650740 0.000000 0.000000 
#    y 0.000000 1.650740 0.000000 
#    z 0.000000 0.000000 1.691670 
# 
# From -- ./inp_files/2507.got.cif
#   From: 2010.05.17/outbox.cif.g08.bks.cpg/sg141_2_cif.got.tgz:2507.got - 2010.05.20 13:30:51.
