data_PCOD9573197
_publ_section_title
;
Structure prediction by ZEFSAII (Michael W. Deem and Ramdas Pophale) SiO2 
 PCOD9573197
Probable space group: I 41/A M D
;
_chemical_formula_sum "Si O2"
_cell_formula_units_Z 80
_cell_length_a 15.629895
_cell_length_b 15.629895
_cell_length_c 16.595268
_cell_angle_alpha 90.000000
_cell_angle_beta 90.000000
_cell_angle_gamma 90.000000
_cell_volume 4054.118057
_symmetry_space_group_name_H-M "I 41/A M D"
_symmetry_group_IT_number 141
_space_group.IT_coordinate_system_code '2'
_symmetry_cell_setting 'tetragonal'
loop_
_space_group_symop_operation_xyz
x,y,z
1/4-y,3/4+x,1/4+z
-x,1/2-y,z
1/4+y,1/4-x,3/4+z
x,-y,-z
-x,1/2+y,-z
1/4+y,3/4+x,1/4-z
1/4-y,1/4-x,3/4-z
-x,-y,-z
3/4+y,1/4-x,3/4-z
x,1/2+y,-z
3/4-y,3/4+x,1/4-z
-x,y,z
x,1/2-y,z
3/4-y,1/4-x,3/4+z
3/4+y,3/4+x,1/4+z
1/2+x,1/2+y,1/2+z
3/4-y,1/4+x,3/4+z
1/2-x,-y,1/2+z
3/4+y,3/4-x,1/4+z
1/2+x,1/2-y,1/2-z
1/2-x,y,1/2-z
3/4+y,1/4+x,3/4-z
3/4-y,3/4-x,1/4-z
1/2-x,1/2-y,1/2-z
1/4+y,3/4-x,1/4-z
1/2+x,y,1/2-z
1/4-y,1/4+x,3/4-z
1/2-x,1/2+y,1/2+z
1/2+x,-y,1/2+z
1/4-y,3/4-x,1/4+z
1/4+y,1/4+x,3/4+z
loop_
_atom_site_type_symbol
_atom_site_label
_atom_site_fract_x
_atom_site_fract_y
_atom_site_fract_z
Si Si1 0.898779 0.250000 0.480050
Si Si2 0.259264 0.750000 0.846212
Si Si3 0.149978 0.081918 0.155315
Si Si4 0.750000 0.566786 0.250000
O O1 0.847811 0.250000 0.395463
O O2 0.870607 0.169709 0.534754
O O3 0.000000 0.250000 0.471185
O O4 0.250000 0.750000 0.750000
O O5 0.214502 0.840403 0.866152
O O6 0.126295 0.046368 0.067326
O O7 0.190096 0.001184 0.202527
#
# Coordination Sequence:
#
# PCOD9573197 Si02
#       4
#    16  16  32  16
#     4  12  26  43  68 105 133 170 221 277 333 393
#     4  12  24  41  59  94 142 172 209 273 335 399
#     4  11  22  41  64  93 130 173 222 265 330 394
#     4  10  22  40  66  90 124 182 218 260 325 409
#
# _framework density 19.733022999999999
#
# number of rings (size 3 to 8) (size 9 to 14) (size 15 to 20)
#    0.000    0.800    8.000    0.000    0.000    2.400 
#    3.600    0.000    0.000    0.000    0.000    0.000 
#    0.000    0.000    0.000    0.000    0.000    0.000 
#
# Total GULP energy -223092.704937 kJ/mol
# GULP energy per Si atom -5577.317623 kJ/mol
# Density = 1.968811 g / cm^3
# Si number density = 19.733023 Si / 1000 Ang^3
#
#
#
# Elastic Constant Matrix: (Units=GPa)
#
#
# Indices 1 2 3 4 5 6 
#
# 1 84.6003 30.6132 57.3723 0.0000 0.0000 0.0000
# 2 30.6132 84.6003 57.3723 0.0000 0.0000 0.0000
# 3 57.3723 57.3723 187.3447 0.0000 0.0000 0.0000
# 4 0.0000 0.0000 0.0000 40.5596 0.0000 0.0000
# 5 0.0000 0.0000 0.0000 0.0000 40.5596 0.0000
# 6 0.0000 0.0000 0.0000 0.0000 0.0000 26.4669
#
#
#
# Elastic Compliance Matrix: (Units=1/GPa)
#
#
# Indices 1 2 3 4 5 6 
#
# 1 0.015506 -0.003017 -0.003824 0.000000 0.000000 0.000000
# 2 -0.003017 0.015506 -0.003824 0.000000 0.000000 0.000000
# 3 -0.003824 -0.003824 0.007680 0.000000 0.000000 0.000000
# 4 0.000000 0.000000 0.000000 0.024655 0.000000 0.000000
# 5 0.000000 0.000000 0.000000 0.000000 0.024655 0.000000
# 6 0.000000 0.000000 0.000000 0.000000 0.000000 0.037783
#
#
# Mechanical properties :
#
#
# Convention : Reuss Voigt Hill
#
# Bulk Modulus (GPa) = 57.60630 71.91785 64.76207
# Shear Modulus (GPa) = 32.70038 35.59638 34.14838
#
# Velocity S-wave (km/s) = 4.07521 4.25184 4.16446
# Velocity P-wave (km/s) = 7.16934 7.78645 7.48425
#
# Compressibility (1/GPa) = 0.01735921
#
# Stress axis : x y z
#
# Youngs Moduli (GPa) = 64.49247 64.49247 130.20598
#
# Poissons Ratio (x) = 0.19459 0.49796
# Poissons Ratio (y) = 0.19459 0.49796
# Poissons Ratio (z) = 0.24665 0.24665
#
# Static dielectric constant tensor:
#      x y z
#    x 1.603650 0.000000 0.000000 
#    y 0.000000 1.603650 0.000000 
#    z 0.000000 0.000000 1.716070 
# 
# From -- ./inp_files/5817.got.cif
#   From: 2010.05.17/outbox.cif.g08.bks.cpg/sg141_3_cif.got.tgz:5817.got - 2010.05.20 13:30:51.
