data_PCOD9573943
_publ_section_title
;
Structure prediction by ZEFSAII (Michael W. Deem and Ramdas Pophale) SiO2 
 PCOD9573943
Probable space group: I 41/A C D
;
_chemical_formula_sum "Si O2"
_cell_formula_units_Z 144
_cell_length_a 17.280388
_cell_length_b 17.280388
_cell_length_c 21.145008
_cell_angle_alpha 90.000000
_cell_angle_beta 90.000000
_cell_angle_gamma 90.000000
_cell_volume 6314.149099
_symmetry_space_group_name_H-M "I 41/A C D"
_symmetry_group_IT_number 142
_space_group.IT_coordinate_system_code '2'
_symmetry_cell_setting 'tetragonal'
loop_
_space_group_symop_operation_xyz
x,y,z
1/4-y,3/4+x,1/4+z
-x,1/2-y,z
1/4+y,1/4-x,3/4+z
x,-y,1/2-z
1/2-x,y,-z
3/4+y,1/4+x,1/4-z
1/4-y,1/4-x,1/4-z
-x,-y,-z
3/4+y,1/4-x,3/4-z
x,1/2+y,-z
3/4-y,3/4+x,1/4-z
-x,y,1/2+z
1/2+x,-y,z
1/4-y,3/4-x,3/4+z
3/4+y,3/4+x,3/4+z
1/2+x,1/2+y,1/2+z
3/4-y,1/4+x,3/4+z
1/2-x,-y,1/2+z
3/4+y,3/4-x,1/4+z
1/2+x,1/2-y,-z
-x,1/2+y,1/2-z
1/4+y,3/4+x,3/4-z
3/4-y,3/4-x,3/4-z
1/2-x,1/2-y,1/2-z
1/4+y,3/4-x,1/4-z
1/2+x,y,1/2-z
1/4-y,1/4+x,3/4-z
1/2-x,1/2+y,z
x,1/2-y,1/2+z
3/4-y,1/4-x,1/4+z
1/4+y,1/4+x,1/4+z
loop_
_atom_site_type_symbol
_atom_site_label
_atom_site_fract_x
_atom_site_fract_y
_atom_site_fract_z
Si Si1 0.803587 0.758434 0.598512
Si Si2 0.167628 0.385143 0.489839
Si Si3 0.388248 0.466323 0.919729
Si Si4 0.668699 0.918699 0.125000
Si Si5 0.834758 0.632809 0.687603
O O1 0.813889 0.694832 0.544289
O O2 0.721372 0.782185 0.629815
O O3 0.848538 0.715884 0.655450
O O4 0.831929 0.839781 0.572134
O O5 0.250000 0.427902 0.500000
O O6 0.123331 0.444782 0.445100
O O7 0.142588 0.373714 0.561949
O O8 0.323262 0.426739 0.875000
O O9 0.391340 0.426274 0.987731
O O10 0.757645 0.901257 0.150340
#
# Coordination Sequence:
#
# PCOD9573943 Si02
#       5
#    32  32  32  16  32
#     4  12  24  45  67 106 137 193 224 285 359 419
#     4  11  23  41  68 100 140 175 224 292 357 411
#     4  11  27  43  70 108 141 175 241 300 342 414
#     4  10  22  46  70 104 133 177 238 302 346 398
#     4  11  26  44  71 103 144 183 235 287 349 428
#
# _framework density 22.805921999999999
#
# number of rings (size 3 to 8) (size 9 to 14) (size 15 to 20)
#    0.000    0.889    4.444    0.667   12.444    0.444 
#    0.000    0.000    0.000    0.000    0.000    0.000 
#    0.000    0.000    0.000    0.000    0.000    0.000 
#
# Total GULP energy -400959.456966 kJ/mol
# GULP energy per Si atom -5568.881347 kJ/mol
# Density = 2.275401 g / cm^3
# Si number density = 22.805922 Si / 1000 Ang^3
#
#
#
# Elastic Constant Matrix: (Units=GPa)
#
#
# Indices 1 2 3 4 5 6 
#
# 1 86.1594 13.2640 63.6985 0.0000 0.0000 0.0000
# 2 13.2640 86.1597 63.6982 0.0000 0.0000 0.0000
# 3 63.6985 63.6982 253.4419 0.0000 0.0000 0.0000
# 4 0.0000 0.0000 0.0000 34.2617 0.0000 0.0000
# 5 0.0000 0.0000 0.0000 0.0000 34.2621 0.0000
# 6 0.0000 0.0000 0.0000 0.0000 0.0000 6.9762
#
#
#
# Elastic Compliance Matrix: (Units=1/GPa)
#
#
# Indices 1 2 3 4 5 6 
#
# 1 0.014277 0.000559 -0.003729 0.000000 0.000000 0.000000
# 2 0.000559 0.014277 -0.003729 0.000000 0.000000 0.000000
# 3 -0.003729 -0.003729 0.005820 0.000000 0.000000 0.000000
# 4 0.000000 0.000000 0.000000 0.029187 0.000000 0.000000
# 5 0.000000 0.000000 0.000000 0.000000 0.029187 0.000000
# 6 0.000000 0.000000 0.000000 0.000000 0.000000 0.143345
#
#
# Mechanical properties :
#
#
# Convention : Reuss Voigt Hill
#
# Bulk Modulus (GPa) = 48.59874 78.56471 63.58173
# Shear Modulus (GPa) = 19.47424 34.10668 26.79046
#
# Velocity S-wave (km/s) = 2.92535 3.87139 3.43113
# Velocity P-wave (km/s) = 5.72417 7.38293 6.60582
#
# Compressibility (1/GPa) = 0.02057666
#
# Stress axis : x y z
#
# Youngs Moduli (GPa) = 70.04239 70.04277 171.82178
#
# Poissons Ratio (x) = -0.03914 0.64068
# Poissons Ratio (y) = -0.03914 0.64067
# Poissons Ratio (z) = 0.26117 0.26117
#
# Static dielectric constant tensor:
#      x y z
#    x 1.939640 0.000000 0.000000 
#    y 0.000000 1.939640 0.000000 
#    z 0.000000 0.000000 2.032150 
# 
# From -- ./inp_files/10117.got.cif
#   From: 2010.05.17/outbox.cif.g08.bks.cpg/sg142_6_cif.got.tgz:10117.got - 2010.05.20 13:39:18.
