data_PCOD9573554
_publ_section_title
;
Structure prediction by ZEFSAII (Michael W. Deem and Ramdas Pophale) SiO2 
 PCOD9573554
Probable space group: I 41/A C D
;
_chemical_formula_sum "Si O2"
_cell_formula_units_Z 168
_cell_length_a 22.168977
_cell_length_b 22.168977
_cell_length_c 17.515363
_cell_angle_alpha 90.000000
_cell_angle_beta 90.000000
_cell_angle_gamma 90.000000
_cell_volume 8608.162326
_symmetry_space_group_name_H-M "I 41/A C D"
_symmetry_group_IT_number 142
_space_group.IT_coordinate_system_code '2'
_symmetry_cell_setting 'tetragonal'
loop_
_space_group_symop_operation_xyz
x,y,z
1/4-y,3/4+x,1/4+z
-x,1/2-y,z
1/4+y,1/4-x,3/4+z
x,-y,1/2-z
1/2-x,y,-z
3/4+y,1/4+x,1/4-z
1/4-y,1/4-x,1/4-z
-x,-y,-z
3/4+y,1/4-x,3/4-z
x,1/2+y,-z
3/4-y,3/4+x,1/4-z
-x,y,1/2+z
1/2+x,-y,z
1/4-y,3/4-x,3/4+z
3/4+y,3/4+x,3/4+z
1/2+x,1/2+y,1/2+z
3/4-y,1/4+x,3/4+z
1/2-x,-y,1/2+z
3/4+y,3/4-x,1/4+z
1/2+x,1/2-y,-z
-x,1/2+y,1/2-z
1/4+y,3/4+x,3/4-z
3/4-y,3/4-x,3/4-z
1/2-x,1/2-y,1/2-z
1/4+y,3/4-x,1/4-z
1/2+x,y,1/2-z
1/4-y,1/4+x,3/4-z
1/2-x,1/2+y,z
x,1/2-y,1/2+z
3/4-y,1/4-x,1/4+z
1/4+y,1/4+x,1/4+z
loop_
_atom_site_type_symbol
_atom_site_label
_atom_site_fract_x
_atom_site_fract_y
_atom_site_fract_z
Si Si1 0.324578 0.668267 0.336811
Si Si2 0.284558 0.270501 0.926803
Si Si3 0.254221 0.944818 0.204891
Si Si4 0.374497 0.114310 0.243151
Si Si5 0.000000 0.750000 0.375000
Si Si6 0.128349 0.749699 0.799326
O O1 0.269009 0.705413 0.373355
O O2 0.293364 0.607911 0.306250
O O3 0.367394 0.650048 0.407437
O O4 0.355593 0.706944 0.271072
O O5 0.329658 0.234050 0.872359
O O6 0.250000 0.242511 0.000000
O O7 0.325027 0.326416 0.959213
O O8 0.281989 0.968012 0.125000
O O9 0.311820 0.921455 0.252924
O O10 0.225853 0.000000 0.250000
O O11 0.361870 0.180031 0.277401
O O12 0.997473 0.690799 0.426511
#
# Coordination Sequence:
#
# PCOD9573554 Si02
#       6
#    32  32  32  32   8  32
#     4  11  24  38  68 106 130 170 230 289 344 406
#     4  10  19  38  69  99 121 163 224 285 339 405
#     4  12  20  38  68  99 137 175 217 281 357 422
#     4  11  20  39  68  96 130 174 228 279 336 421
#     4  12  28  48  66  84 140 212 226 284 340 424
#     4  12  24  45  66  94 139 183 242 280 341 414
#
# _framework density 19.516362000000001
#
# number of rings (size 3 to 8) (size 9 to 14) (size 15 to 20)
#    0.000    0.762    7.619    1.143    0.000    1.524 
#    1.714    0.000    0.000    0.000    0.000    0.000 
#    0.000    0.000    0.000    0.000    0.000    0.000 
#
# Total GULP energy -469281.848551 kJ/mol
# GULP energy per Si atom -5586.688673 kJ/mol
# Density = 1.947194 g / cm^3
# Si number density = 19.516362 Si / 1000 Ang^3
#
#
#
# Elastic Constant Matrix: (Units=GPa)
#
#
# Indices 1 2 3 4 5 6 
#
# 1 38.5429 53.3290 58.0988 0.0000 0.0000 0.0000
# 2 53.3290 38.5418 58.0993 0.0000 0.0000 0.0000
# 3 58.0988 58.0993 142.4487 0.0000 0.0000 0.0000
# 4 0.0000 0.0000 0.0000 22.4647 0.0000 0.0000
# 5 0.0000 0.0000 0.0000 0.0000 22.4646 0.0000
# 6 0.0000 0.0000 0.0000 0.0000 0.0000 24.6853
#
#
#
# Elastic Compliance Matrix: (Units=1/GPa)
#
#
# Indices 1 2 3 4 5 6 
#
# 1 -0.022572 0.045056 -0.009170 0.000000 0.000000 0.000000
# 2 0.045056 -0.022574 -0.009169 0.000000 0.000000 0.000000
# 3 -0.009170 -0.009169 0.014500 0.000000 0.000000 0.000000
# 4 0.000000 0.000000 0.000000 0.044514 0.000000 0.000000
# 5 0.000000 0.000000 0.000000 0.000000 0.044514 0.000000
# 6 0.000000 0.000000 0.000000 0.000000 0.000000 0.040510
#
#
# Mechanical properties :
#
#
# Convention : Reuss Voigt Hill
#
# Bulk Modulus (GPa) = 43.88613 62.06527 52.97570
# Shear Modulus (GPa) = 94.24068 17.25668 55.74868
#
# Velocity S-wave (km/s) = 6.95650 2.97680 5.35043
# Velocity P-wave (km/s) = 9.33057 6.60953 8.08534
#
# Compressibility (1/GPa) = 0.02278624
#
# Stress axis : x y z
#
# Youngs Moduli (GPa) = -44.30283 -44.29841 68.96550
#
# Poissons Ratio (x) = 1.99589 0.63244
# Poissons Ratio (y) = 1.99609 0.63236
# Poissons Ratio (z) = -0.40627 -0.40618
#
# Static dielectric constant tensor:
#      x y z
#    x 1.675210 0.000000 0.000000 
#    y 0.000000 1.675210 0.000000 
#    z 0.000000 0.000000 1.703250 
# 
# From -- ./inp_files/7579.got.cif
#   From: 2010.05.17/outbox.cif.g08.bks.cpg/sg142_4_cif.got.tgz:7579.got - 2010.05.20 13:39:18.
