data_PCOD9573350
_publ_section_title
;
Structure prediction by ZEFSAII (Michael W. Deem and Ramdas Pophale) SiO2 
 PCOD9573350
Probable space group: I 41/A M D
;
_chemical_formula_sum "Si O2"
_cell_formula_units_Z 76
_cell_length_a 10.745846
_cell_length_b 10.745846
_cell_length_c 35.174417
_cell_angle_alpha 90.000000
_cell_angle_beta 90.000000
_cell_angle_gamma 90.000000
_cell_volume 4061.702709
_symmetry_space_group_name_H-M "I 41/A M D"
_symmetry_group_IT_number 141
_space_group.IT_coordinate_system_code '2'
_symmetry_cell_setting 'tetragonal'
loop_
_space_group_symop_operation_xyz
x,y,z
1/4-y,3/4+x,1/4+z
-x,1/2-y,z
1/4+y,1/4-x,3/4+z
x,-y,-z
-x,1/2+y,-z
1/4+y,3/4+x,1/4-z
1/4-y,1/4-x,3/4-z
-x,-y,-z
3/4+y,1/4-x,3/4-z
x,1/2+y,-z
3/4-y,3/4+x,1/4-z
-x,y,z
x,1/2-y,z
3/4-y,1/4-x,3/4+z
3/4+y,3/4+x,1/4+z
1/2+x,1/2+y,1/2+z
3/4-y,1/4+x,3/4+z
1/2-x,-y,1/2+z
3/4+y,3/4-x,1/4+z
1/2+x,1/2-y,1/2-z
1/2-x,y,1/2-z
3/4+y,1/4+x,3/4-z
3/4-y,3/4-x,1/4-z
1/2-x,1/2-y,1/2-z
1/4+y,3/4-x,1/4-z
1/2+x,y,1/2-z
1/4-y,1/4+x,3/4-z
1/2-x,1/2+y,1/2+z
1/2+x,-y,1/2+z
1/4-y,3/4-x,1/4+z
1/4+y,1/4+x,3/4+z
loop_
_atom_site_type_symbol
_atom_site_label
_atom_site_fract_x
_atom_site_fract_y
_atom_site_fract_z
Si Si1 0.722002 0.250000 0.842126
Si Si2 0.000000 0.250000 0.875000
Si Si3 0.000000 0.250000 0.155471
Si Si4 0.260464 0.603714 0.914773
Si Si5 0.500000 0.002925 0.045188
O O1 0.623507 0.250000 0.878212
O O2 0.690084 0.376979 0.820401
O O3 0.867171 0.250000 0.853207
O O4 0.120619 0.250000 0.182691
O O5 0.257048 0.750000 0.906661
O O6 0.283611 0.533611 0.875000
O O7 0.376253 0.573182 0.941150
O O8 0.500000 0.000000 0.000000
#
# Coordination Sequence:
#
# PCOD9573350 Si02
#       5
#    16   4   8  32  16
#     4  12  20  38  63  96 121 159 214 279 315 374
#     4  12  20  28  60  96 126 152 184 264 344 364
#     4  12  20  42  58  90 134 160 216 282 323 376
#     4  12  21  38  64  93 124 164 222 269 316 383
#     4  12  27  40  60  96 137 174 211 273 344 405
#
# _framework density 18.711365000000001
#
# number of rings (size 3 to 8) (size 9 to 14) (size 15 to 20)
#    0.000    0.000   10.526    0.632    2.947    0.000 
#    0.000    1.053    0.000    0.000    0.000    0.000 
#    0.000    0.000    0.000    0.000    0.000    0.000 
#
# Total GULP energy -212247.312592 kJ/mol
# GULP energy per Si atom -5585.455595 kJ/mol
# Density = 1.866878 g / cm^3
# Si number density = 18.711365 Si / 1000 Ang^3
#
#
#
# Elastic Constant Matrix: (Units=GPa)
#
#
# Indices 1 2 3 4 5 6 
#
# 1 161.8006 35.2381 11.3029 0.0000 0.0000 0.0000
# 2 35.2381 161.8006 11.3029 0.0000 0.0000 0.0000
# 3 11.3029 11.3029 55.0333 0.0000 0.0000 0.0000
# 4 0.0000 0.0000 0.0000 3.0264 0.0000 0.0000
# 5 0.0000 0.0000 0.0000 0.0000 3.0264 0.0000
# 6 0.0000 0.0000 0.0000 0.0000 0.0000 39.8233
#
#
#
# Elastic Compliance Matrix: (Units=1/GPa)
#
#
# Indices 1 2 3 4 5 6 
#
# 1 0.006549 -0.001352 -0.001067 0.000000 0.000000 0.000000
# 2 -0.001352 0.006549 -0.001067 0.000000 0.000000 0.000000
# 3 -0.001067 -0.001067 0.018609 0.000000 0.000000 0.000000
# 4 0.000000 0.000000 0.000000 0.330422 0.000000 0.000000
# 5 0.000000 0.000000 0.000000 0.000000 0.330423 0.000000
# 6 0.000000 0.000000 0.000000 0.000000 0.000000 0.025111
#
#
# Mechanical properties :
#
#
# Convention : Reuss Voigt Hill
#
# Bulk Modulus (GPa) = 40.42930 54.92470 47.67700
# Shear Modulus (GPa) = 6.82237 30.56128 18.69183
#
# Velocity S-wave (km/s) = 1.91155 4.04580 3.16406
# Velocity P-wave (km/s) = 5.15032 7.15835 6.23569
#
# Compressibility (1/GPa) = 0.02473453
#
# Stress axis : x y z
#
# Youngs Moduli (GPa) = 152.68519 152.68519 53.73657
#
# Poissons Ratio (x) = 0.20640 0.05736
# Poissons Ratio (y) = 0.20640 0.05736
# Poissons Ratio (z) = 0.16299 0.16299
#
# Static dielectric constant tensor:
#      x y z
#    x 1.712010 0.000000 0.000000 
#    y 0.000000 1.712010 0.000000 
#    z 0.000000 0.000000 1.598800 
# 
# From -- ./inp_files/13696.got.cif
#   From: 2010.05.17/outbox.cif.g08.bks.cpg/sg141_7_cif.got.tgz:13696.got - 2010.05.20 13:30:51.
