data_PCOD9573604
_publ_section_title
;
Structure prediction by ZEFSAII (Michael W. Deem and Ramdas Pophale) SiO2 
 PCOD9573604
Probable space group: I 41/A C D
;
_chemical_formula_sum "Si O2"
_cell_formula_units_Z 112
_cell_length_a 12.709496
_cell_length_b 12.709496
_cell_length_c 33.325698
_cell_angle_alpha 90.000000
_cell_angle_beta 90.000000
_cell_angle_gamma 90.000000
_cell_volume 5383.142941
_symmetry_space_group_name_H-M "I 41/A C D"
_symmetry_group_IT_number 142
_space_group.IT_coordinate_system_code '2'
_symmetry_cell_setting 'tetragonal'
loop_
_space_group_symop_operation_xyz
x,y,z
1/4-y,3/4+x,1/4+z
-x,1/2-y,z
1/4+y,1/4-x,3/4+z
x,-y,1/2-z
1/2-x,y,-z
3/4+y,1/4+x,1/4-z
1/4-y,1/4-x,1/4-z
-x,-y,-z
3/4+y,1/4-x,3/4-z
x,1/2+y,-z
3/4-y,3/4+x,1/4-z
-x,y,1/2+z
1/2+x,-y,z
1/4-y,3/4-x,3/4+z
3/4+y,3/4+x,3/4+z
1/2+x,1/2+y,1/2+z
3/4-y,1/4+x,3/4+z
1/2-x,-y,1/2+z
3/4+y,3/4-x,1/4+z
1/2+x,1/2-y,-z
-x,1/2+y,1/2-z
1/4+y,3/4+x,3/4-z
3/4-y,3/4-x,3/4-z
1/2-x,1/2-y,1/2-z
1/4+y,3/4-x,1/4-z
1/2+x,y,1/2-z
1/4-y,1/4+x,3/4-z
1/2-x,1/2+y,z
x,1/2-y,1/2+z
3/4-y,1/4-x,1/4+z
1/4+y,1/4+x,1/4+z
loop_
_atom_site_type_symbol
_atom_site_label
_atom_site_fract_x
_atom_site_fract_y
_atom_site_fract_z
Si Si1 0.368037 0.099042 0.777255
Si Si2 0.981029 0.544972 0.668971
Si Si3 0.725145 0.384814 0.151373
Si Si4 0.500000 0.250000 0.722966
O O1 0.277401 0.141553 0.806304
O O2 0.413373 0.194617 0.751218
O O3 0.330261 0.000000 0.750000
O O4 0.460248 0.042729 0.804170
O O5 0.860837 0.524284 0.657958
O O6 0.969972 0.652351 0.694585
O O7 0.042919 0.566158 0.627534
O O8 0.818260 0.431740 0.125000
#
# Coordination Sequence:
#
# PCOD9573604 Si02
#       4
#    32  32  32  16
#     4   9  21  37  55  84 115 145 188 240 288 343
#     4  10  20  36  57  80 110 149 189 232 283 342
#     4  10  21  37  56  82 114 148 191 237 286 343
#     4  10  20  37  57  80 114 148 188 236 285 338
#
# _framework density 20.805689000000001
#
# number of rings (size 3 to 8) (size 9 to 14) (size 15 to 20)
#    0.000    2.286    0.000    1.714    0.000    6.857 
#    0.000    5.000    0.000    0.000    0.000    0.000 
#    0.000    0.000    0.000    0.000    0.000    0.000 
#
# Total GULP energy -311915.171323 kJ/mol
# GULP energy per Si atom -5569.913774 kJ/mol
# Density = 2.075833 g / cm^3
# Si number density = 20.805689 Si / 1000 Ang^3
#
#
#
# Elastic Constant Matrix: (Units=GPa)
#
#
# Indices 1 2 3 4 5 6 
#
# 1 71.2565 24.7608 50.0010 0.0000 0.0000 0.0000
# 2 24.7608 71.2594 50.0015 0.0000 0.0000 0.0000
# 3 50.0010 50.0015 142.6559 0.0000 0.0000 0.0000
# 4 0.0000 0.0000 0.0000 18.4518 0.0000 0.0000
# 5 0.0000 0.0000 0.0000 0.0000 18.4512 0.0000
# 6 0.0000 0.0000 0.0000 0.0000 0.0000 9.2012
#
#
#
# Elastic Compliance Matrix: (Units=1/GPa)
#
#
# Indices 1 2 3 4 5 6 
#
# 1 0.018955 -0.002552 -0.005749 0.000000 0.000000 0.000000
# 2 -0.002552 0.018954 -0.005749 0.000000 0.000000 0.000000
# 3 -0.005749 -0.005749 0.011040 0.000000 0.000000 0.000000
# 4 0.000000 0.000000 0.000000 0.054195 0.000000 0.000000
# 5 0.000000 0.000000 0.000000 0.000000 0.054197 0.000000
# 6 0.000000 0.000000 0.000000 0.000000 0.000000 0.108681
#
#
# Mechanical properties :
#
#
# Convention : Reuss Voigt Hill
#
# Bulk Modulus (GPa) = 47.96559 59.41094 53.68827
# Shear Modulus (GPa) = 16.60731 19.91474 18.26103
#
# Velocity S-wave (km/s) = 2.82833 3.09719 2.96580
# Velocity P-wave (km/s) = 5.81120 6.43484 6.13096
#
# Compressibility (1/GPa) = 0.02084828
#
# Stress axis : x y z
#
# Youngs Moduli (GPa) = 52.75687 52.75936 90.58007
#
# Poissons Ratio (x) = 0.13466 0.52076
# Poissons Ratio (y) = 0.13465 0.52073
# Poissons Ratio (z) = 0.30331 0.30331
#
# Static dielectric constant tensor:
#      x y z
#    x 1.771740 0.000000 0.000000 
#    y 0.000000 1.771740 0.000000 
#    z 0.000000 0.000000 1.823810 
# 
# From -- ./inp_files/12194.got.cif
#   From: 2010.05.17/outbox.cif.g08.bks.cpg/sg142_7_cif.got.tgz:12194.got - 2010.05.20 13:39:18.
