data_PCOD9573190
_publ_section_title
;
Structure prediction by ZEFSAII (Michael W. Deem and Ramdas Pophale) SiO2 
 PCOD9573190
Probable space group: I 41/A M D
;
_chemical_formula_sum "Si O2"
_cell_formula_units_Z 80
_cell_length_a 14.141976
_cell_length_b 14.141976
_cell_length_c 17.810950
_cell_angle_alpha 90.000000
_cell_angle_beta 90.000000
_cell_angle_gamma 90.000000
_cell_volume 3562.109587
_symmetry_space_group_name_H-M "I 41/A M D"
_symmetry_group_IT_number 141
_space_group.IT_coordinate_system_code '2'
_symmetry_cell_setting 'tetragonal'
loop_
_space_group_symop_operation_xyz
x,y,z
1/4-y,3/4+x,1/4+z
-x,1/2-y,z
1/4+y,1/4-x,3/4+z
x,-y,-z
-x,1/2+y,-z
1/4+y,3/4+x,1/4-z
1/4-y,1/4-x,3/4-z
-x,-y,-z
3/4+y,1/4-x,3/4-z
x,1/2+y,-z
3/4-y,3/4+x,1/4-z
-x,y,z
x,1/2-y,z
3/4-y,1/4-x,3/4+z
3/4+y,3/4+x,1/4+z
1/2+x,1/2+y,1/2+z
3/4-y,1/4+x,3/4+z
1/2-x,-y,1/2+z
3/4+y,3/4-x,1/4+z
1/2+x,1/2-y,1/2-z
1/2-x,y,1/2-z
3/4+y,1/4+x,3/4-z
3/4-y,3/4-x,1/4-z
1/2-x,1/2-y,1/2-z
1/4+y,3/4-x,1/4-z
1/2+x,y,1/2-z
1/4-y,1/4+x,3/4-z
1/2-x,1/2+y,1/2+z
1/2+x,-y,1/2+z
1/4-y,3/4-x,1/4+z
1/4+y,1/4+x,3/4+z
loop_
_atom_site_type_symbol
_atom_site_label
_atom_site_fract_x
_atom_site_fract_y
_atom_site_fract_z
Si Si1 0.386368 0.863632 0.375000
Si Si2 0.755059 0.363266 0.335821
Si Si3 0.390862 0.865754 0.539273
O O1 0.500000 0.878040 0.377232
O O2 0.353241 0.896702 0.457184
O O3 0.848853 0.401148 0.375000
O O4 0.753276 0.250000 0.335656
O O5 0.750000 0.395123 0.250000
O O6 0.669901 0.396729 0.389497
O O7 0.500000 0.894691 0.547723
O O8 0.389861 0.750000 0.538219
#
# Coordination Sequence:
#
# PCOD9573190 Si02
#       3
#    16  32  32
#     4   7  10  20  44  80 114 138 166 215 286 362
#     4  10  22  40  60  85 120 162 208 257 304 358
#     4   8  14  28  54  86 116 146 185 238 301 365
#
# _framework density 22.458601999999999
#
# number of rings (size 3 to 8) (size 9 to 14) (size 15 to 20)
#    0.000    3.400    0.000    2.400    0.000    2.000 
#    3.600    4.000    0.000    1.200    0.000    0.000 
#    0.000    0.800    0.000    0.000    0.000    0.000 
#
# Total GULP energy -223433.860446 kJ/mol
# GULP energy per Si atom -5585.846511 kJ/mol
# Density = 2.240749 g / cm^3
# Si number density = 22.458602 Si / 1000 Ang^3
#
#
#
# Elastic Constant Matrix: (Units=GPa)
#
#
# Indices 1 2 3 4 5 6 
#
# 1 49.8507 31.3762 64.0433 0.0000 0.0000 0.0000
# 2 31.3762 49.8630 64.0473 0.0000 0.0000 0.0000
# 3 64.0433 64.0473 280.7194 0.0000 0.0000 0.0000
# 4 0.0000 0.0000 0.0000 31.0645 0.0000 0.0000
# 5 0.0000 0.0000 0.0000 0.0000 31.0632 0.0000
# 6 0.0000 0.0000 0.0000 0.0000 0.0000 16.7301
#
#
#
# Elastic Compliance Matrix: (Units=1/GPa)
#
#
# Indices 1 2 3 4 5 6 
#
# 1 0.036674 -0.017442 -0.004388 0.000000 0.000000 0.000000
# 2 -0.017442 0.036663 -0.004386 0.000000 0.000000 0.000000
# 3 -0.004388 -0.004386 0.005564 0.000000 0.000000 0.000000
# 4 0.000000 0.000000 0.000000 0.032191 0.000000 0.000000
# 5 0.000000 0.000000 0.000000 0.000000 0.032192 0.000000
# 6 0.000000 0.000000 0.000000 0.000000 0.000000 0.059773
#
#
# Mechanical properties :
#
#
# Convention : Reuss Voigt Hill
#
# Bulk Modulus (GPa) = 37.77606 77.70742 57.74174
# Shear Modulus (GPa) = 18.91705 30.50264 24.70985
#
# Velocity S-wave (km/s) = 2.90540 3.68934 3.32058
# Velocity P-wave (km/s) = 5.30207 7.26799 6.36143
#
# Compressibility (1/GPa) = 0.02647179
#
# Stress axis : x y z
#
# Youngs Moduli (GPa) = 27.26696 27.27512 179.73086
#
# Poissons Ratio (x) = 0.47572 0.78857
# Poissons Ratio (y) = 0.47558 0.78826
# Poissons Ratio (z) = 0.11963 0.11962
#
# Static dielectric constant tensor:
#      x y z
#    x 1.835050 0.000000 0.000000 
#    y 0.000000 1.835060 0.000000 
#    z 0.000000 0.000000 1.821000 
# 
# From -- ./inp_files/5780.got.cif
#   From: 2010.05.17/outbox.cif.g08.bks.cpg/sg141_3_cif.got.tgz:5780.got - 2010.05.20 13:30:51.
