data_PCOD9573289
_publ_section_title
;
Structure prediction by ZEFSAII (Michael W. Deem and Ramdas Pophale) SiO2 
 PCOD9573289
Probable space group: I 41/A M D
;
_chemical_formula_sum "Si O2"
_cell_formula_units_Z 160
_cell_length_a 20.533128
_cell_length_b 20.533128
_cell_length_c 17.184777
_cell_angle_alpha 90.000000
_cell_angle_beta 90.000000
_cell_angle_gamma 90.000000
_cell_volume 7245.262583
_symmetry_space_group_name_H-M "I 41/A M D"
_symmetry_group_IT_number 141
_space_group.IT_coordinate_system_code '2'
_symmetry_cell_setting 'tetragonal'
loop_
_space_group_symop_operation_xyz
x,y,z
1/4-y,3/4+x,1/4+z
-x,1/2-y,z
1/4+y,1/4-x,3/4+z
x,-y,-z
-x,1/2+y,-z
1/4+y,3/4+x,1/4-z
1/4-y,1/4-x,3/4-z
-x,-y,-z
3/4+y,1/4-x,3/4-z
x,1/2+y,-z
3/4-y,3/4+x,1/4-z
-x,y,z
x,1/2-y,z
3/4-y,1/4-x,3/4+z
3/4+y,3/4+x,1/4+z
1/2+x,1/2+y,1/2+z
3/4-y,1/4+x,3/4+z
1/2-x,-y,1/2+z
3/4+y,3/4-x,1/4+z
1/2+x,1/2-y,1/2-z
1/2-x,y,1/2-z
3/4+y,1/4+x,3/4-z
3/4-y,3/4-x,1/4-z
1/2-x,1/2-y,1/2-z
1/4+y,3/4-x,1/4-z
1/2+x,y,1/2-z
1/4-y,1/4+x,3/4-z
1/2-x,1/2+y,1/2+z
1/2+x,-y,1/2+z
1/4-y,3/4-x,1/4+z
1/4+y,1/4+x,3/4+z
loop_
_atom_site_type_symbol
_atom_site_label
_atom_site_fract_x
_atom_site_fract_y
_atom_site_fract_z
Si Si1 0.228058 0.888193 0.089188
Si Si2 0.228819 0.926491 0.919234
Si Si3 0.575538 0.829310 0.789846
Si Si4 0.140592 0.750000 0.284942
Si Si5 0.500000 0.969474 0.381665
Si Si6 0.421792 0.875813 0.129181
O O1 0.160038 0.910038 0.125000
O O2 0.278694 0.915345 0.152057
O O3 0.223160 0.812807 0.079029
O O4 0.244624 0.923226 0.009531
O O5 0.197415 0.857024 0.897248
O O6 0.288110 0.961891 0.875000
O O7 0.500000 0.849219 0.782544
O O8 0.576479 0.750000 0.792647
O O9 0.600946 0.850946 0.875000
O O10 0.610486 0.849105 0.710437
O O11 0.159399 0.750000 0.192993
O O12 0.212319 0.750000 0.322434
O O13 0.104592 0.815841 0.316471
O O14 0.500000 0.874944 0.133235
#
# Coordination Sequence:
#
# PCOD9573289 Si02
#       6
#    32  32  32  16  16  32
#     4  11  23  43  70 101 136 184 242 298 352 427
#     4  11  24  43  70  98 135 183 243 297 355 422
#     4   8  14  27  51  88 136 187 228 265 327 414
#     4  11  21  38  66 108 150 188 233 280 351 433
#     4  11  24  40  70 104 140 188 238 283 348 433
#     4  11  21  37  66 105 146 189 232 292 367 426
#
# _framework density 22.083396
#
# number of rings (size 3 to 8) (size 9 to 14) (size 15 to 20)
#    0.000    1.600    3.000    4.500    4.200    0.000 
#    0.000    4.000    0.000    2.400    0.000    0.000 
#    0.000    0.400    0.000    0.000    0.000    0.000 
#
# Total GULP energy -446325.389448 kJ/mol
# GULP energy per Si atom -5579.067368 kJ/mol
# Density = 2.203313 g / cm^3
# Si number density = 22.083396 Si / 1000 Ang^3
#
#
#
# Elastic Constant Matrix: (Units=GPa)
#
#
# Indices 1 2 3 4 5 6 
#
# 1 51.1874 86.1021 34.0512 0.0000 0.0000 0.0000
# 2 86.1021 51.1723 34.0378 0.0000 0.0000 0.0000
# 3 34.0512 34.0378 110.9937 0.0000 0.0000 0.0000
# 4 0.0000 0.0000 0.0000 9.4609 0.0000 0.0000
# 5 0.0000 0.0000 0.0000 0.0000 9.4610 0.0000
# 6 0.0000 0.0000 0.0000 0.0000 0.0000 34.2610
#
#
#
# Elastic Compliance Matrix: (Units=1/GPa)
#
#
# Indices 1 2 3 4 5 6 
#
# 1 -0.010021 0.018613 -0.002634 0.000000 0.000000 0.000000
# 2 0.018613 -0.010023 -0.002637 0.000000 0.000000 0.000000
# 3 -0.002634 -0.002637 0.010626 0.000000 0.000000 0.000000
# 4 0.000000 0.000000 0.000000 0.105698 0.000000 0.000000
# 5 0.000000 0.000000 0.000000 0.000000 0.105697 0.000000
# 6 0.000000 0.000000 0.000000 0.000000 0.000000 0.029188
#
#
# Mechanical properties :
#
#
# Convention : Reuss Voigt Hill
#
# Bulk Modulus (GPa) = 57.91067 57.97060 57.94063
# Shear Modulus (GPa) = 23.78293 14.58075 19.18184
#
# Velocity S-wave (km/s) = 3.28527 2.57234 2.95041
# Velocity P-wave (km/s) = 6.37740 5.92708 6.15636
#
# Compressibility (1/GPa) = 0.01726797
#
# Stress axis : x y z
#
# Youngs Moduli (GPa) = -99.79003 -99.77309 94.10831
#
# Poissons Ratio (x) = 1.85709 0.24785
# Poissons Ratio (y) = 1.85741 0.24813
# Poissons Ratio (z) = -0.26282 -0.26306
#
# Static dielectric constant tensor:
#      x y z
#    x 1.863580 0.000000 0.000000 
#    y 0.000000 1.863580 0.000000 
#    z 0.000000 0.000000 1.858050 
# 
# From -- ./inp_files/8672.got.cif
#   From: 2010.05.17/outbox.cif.g08.bks.cpg/sg141_5_cif.got.tgz:8672.got - 2010.05.20 13:30:51.
