data_PCOD9573565
_publ_section_title
;
Structure prediction by ZEFSAII (Michael W. Deem and Ramdas Pophale) SiO2 
 PCOD9573565
Probable space group: I 41/A C D
;
_chemical_formula_sum "Si O2"
_cell_formula_units_Z 112
_cell_length_a 13.639559
_cell_length_b 13.639559
_cell_length_c 25.478212
_cell_angle_alpha 90.000000
_cell_angle_beta 90.000000
_cell_angle_gamma 90.000000
_cell_volume 4739.904641
_symmetry_space_group_name_H-M "I 41/A C D"
_symmetry_group_IT_number 142
_space_group.IT_coordinate_system_code '2'
_symmetry_cell_setting 'tetragonal'
loop_
_space_group_symop_operation_xyz
x,y,z
1/4-y,3/4+x,1/4+z
-x,1/2-y,z
1/4+y,1/4-x,3/4+z
x,-y,1/2-z
1/2-x,y,-z
3/4+y,1/4+x,1/4-z
1/4-y,1/4-x,1/4-z
-x,-y,-z
3/4+y,1/4-x,3/4-z
x,1/2+y,-z
3/4-y,3/4+x,1/4-z
-x,y,1/2+z
1/2+x,-y,z
1/4-y,3/4-x,3/4+z
3/4+y,3/4+x,3/4+z
1/2+x,1/2+y,1/2+z
3/4-y,1/4+x,3/4+z
1/2-x,-y,1/2+z
3/4+y,3/4-x,1/4+z
1/2+x,1/2-y,-z
-x,1/2+y,1/2-z
1/4+y,3/4+x,3/4-z
3/4-y,3/4-x,3/4-z
1/2-x,1/2-y,1/2-z
1/4+y,3/4-x,1/4-z
1/2+x,y,1/2-z
1/4-y,1/4+x,3/4-z
1/2-x,1/2+y,z
x,1/2-y,1/2+z
3/4-y,1/4-x,1/4+z
1/4+y,1/4+x,1/4+z
loop_
_atom_site_type_symbol
_atom_site_label
_atom_site_fract_x
_atom_site_fract_y
_atom_site_fract_z
Si Si1 0.691395 0.574038 0.350971
Si Si2 0.250000 0.038144 0.000000
Si Si3 0.583039 0.822786 0.033898
Si Si4 0.995477 0.534914 0.879323
O O1 0.797788 0.547788 0.375000
O O2 0.711464 0.540173 0.292701
O O3 0.612151 0.508005 0.378346
O O4 0.688254 0.687170 0.363481
O O5 0.343700 0.113778 0.003394
O O6 0.500000 0.750000 0.010500
O O7 0.654138 0.765465 0.075598
O O8 0.520724 0.896974 0.071032
#
# Coordination Sequence:
#
# PCOD9573565 Si02
#       4
#    32  16  32  32
#     4  11  21  42  64  95 139 175 227 283 342 407
#     4  10  22  40  66 100 138 172 226 294 336 404
#     4  10  19  40  67  99 131 180 235 266 346 417
#     4  10  20  38  68  92 136 188 219 277 340 414
#
# _framework density 23.629168
#
# number of rings (size 3 to 8) (size 9 to 14) (size 15 to 20)
#    0.000    1.714    5.714    3.429    0.000    1.714 
#    0.000   15.714    0.000    0.000    0.000    0.000 
#    0.000    0.000    0.000    0.000    0.000    0.000 
#
# Total GULP energy -311859.576393 kJ/mol
# GULP energy per Si atom -5568.921007 kJ/mol
# Density = 2.357539 g / cm^3
# Si number density = 23.629168 Si / 1000 Ang^3
#
#
#
# Elastic Constant Matrix: (Units=GPa)
#
#
# Indices 1 2 3 4 5 6 
#
# 1 111.9187 64.5091 2.9241 0.0000 0.0000 0.0000
# 2 64.5091 111.9187 2.9241 0.0000 0.0000 0.0000
# 3 2.9241 2.9241 20.9870 0.0000 0.0000 0.0000
# 4 0.0000 0.0000 0.0000 14.3380 0.0000 0.0000
# 5 0.0000 0.0000 0.0000 0.0000 14.3380 0.0000
# 6 0.0000 0.0000 0.0000 0.0000 0.0000 53.2064
#
#
#
# Elastic Compliance Matrix: (Units=1/GPa)
#
#
# Indices 1 2 3 4 5 6 
#
# 1 0.013394 -0.007699 -0.000793 0.000000 0.000000 0.000000
# 2 -0.007699 0.013394 -0.000793 0.000000 0.000000 0.000000
# 3 -0.000793 -0.000793 0.047870 0.000000 0.000000 0.000000
# 4 0.000000 0.000000 0.000000 0.069745 0.000000 0.000000
# 5 0.000000 0.000000 0.000000 0.000000 0.069745 0.000000
# 6 0.000000 0.000000 0.000000 0.000000 0.000000 0.018795
#
#
# Mechanical properties :
#
#
# Convention : Reuss Voigt Hill
#
# Bulk Modulus (GPa) = 17.83014 42.83768 30.33391
# Shear Modulus (GPa) = 18.50430 28.00763 23.25596
#
# Velocity S-wave (km/s) = 2.80145 3.44655 3.14061
# Velocity P-wave (km/s) = 4.24575 5.83154 5.10065
#
# Compressibility (1/GPa) = 0.05608480
#
# Stress axis : x y z
#
# Youngs Moduli (GPa) = 74.66273 74.66273 20.89005
#
# Poissons Ratio (x) = 0.57485 0.01657
# Poissons Ratio (y) = 0.57485 0.01657
# Poissons Ratio (z) = 0.05924 0.05924
#
# Static dielectric constant tensor:
#      x y z
#    x 1.900890 0.000000 0.000000 
#    y 0.000000 1.900890 0.000000 
#    z 0.000000 0.000000 1.754290 
# 
# From -- ./inp_files/9785.got.cif
#   From: 2010.05.17/outbox.cif.g08.bks.cpg/sg142_5_cif.got.tgz:9785.got - 2010.05.20 13:39:18.
