data_PCOD9573333
_publ_section_title
;
Structure prediction by ZEFSAII (Michael W. Deem and Ramdas Pophale) SiO2 
 PCOD9573333
Probable space group: I 41/A M D
;
_chemical_formula_sum "Si O2"
_cell_formula_units_Z 96
_cell_length_a 18.582823
_cell_length_b 18.582823
_cell_length_c 14.689469
_cell_angle_alpha 90.000000
_cell_angle_beta 90.000000
_cell_angle_gamma 90.000000
_cell_volume 5072.586688
_symmetry_space_group_name_H-M "I 41/A M D"
_symmetry_group_IT_number 141
_space_group.IT_coordinate_system_code '2'
_symmetry_cell_setting 'tetragonal'
loop_
_space_group_symop_operation_xyz
x,y,z
1/4-y,3/4+x,1/4+z
-x,1/2-y,z
1/4+y,1/4-x,3/4+z
x,-y,-z
-x,1/2+y,-z
1/4+y,3/4+x,1/4-z
1/4-y,1/4-x,3/4-z
-x,-y,-z
3/4+y,1/4-x,3/4-z
x,1/2+y,-z
3/4-y,3/4+x,1/4-z
-x,y,z
x,1/2-y,z
3/4-y,1/4-x,3/4+z
3/4+y,3/4+x,1/4+z
1/2+x,1/2+y,1/2+z
3/4-y,1/4+x,3/4+z
1/2-x,-y,1/2+z
3/4+y,3/4-x,1/4+z
1/2+x,1/2-y,1/2-z
1/2-x,y,1/2-z
3/4+y,1/4+x,3/4-z
3/4-y,3/4-x,1/4-z
1/2-x,1/2-y,1/2-z
1/4+y,3/4-x,1/4-z
1/2+x,y,1/2-z
1/4-y,1/4+x,3/4-z
1/2-x,1/2+y,1/2+z
1/2+x,-y,1/2+z
1/4-y,3/4-x,1/4+z
1/4+y,1/4+x,3/4+z
loop_
_atom_site_type_symbol
_atom_site_label
_atom_site_fract_x
_atom_site_fract_y
_atom_site_fract_z
Si Si1 0.840753 0.918680 0.972900
Si Si2 0.917240 0.167240 0.875000
Si Si3 0.418083 0.331918 0.125000
Si Si4 0.084981 0.448817 0.218410
O O1 0.872932 0.924292 0.872052
O O2 0.899365 0.886935 0.043120
O O3 0.771401 0.868927 0.989910
O O4 0.821248 0.000000 0.000000
O O5 0.908009 0.250000 0.904667
O O6 0.409914 0.250000 0.158838
O O7 0.407267 0.387303 0.206093
O O8 0.000000 0.459139 0.198357
#
# Coordination Sequence:
#
# PCOD9573333 Si02
#       4
#    32  16  16  32
#     4  12  24  41  66  94 132 171 214 274 328 395
#     4  11  24  41  64  96 132 171 220 273 332 406
#     4   9  22  43  64  92 130 171 220 273 322 390
#     4  11  25  43  68  96 130 175 221 272 336 398
#
# _framework density 18.925255
#
# number of rings (size 3 to 8) (size 9 to 14) (size 15 to 20)
#    0.000    1.000    3.333    2.000    4.667    4.000 
#    0.000    6.667    0.000    0.000    0.000    0.000 
#    0.000    0.000    0.000    0.000    0.000    0.000 
#
# Total GULP energy -268264.664697 kJ/mol
# GULP energy per Si atom -5588.847181 kJ/mol
# Density = 1.888218 g / cm^3
# Si number density = 18.925255 Si / 1000 Ang^3
#
#
#
# Elastic Constant Matrix: (Units=GPa)
#
#
# Indices 1 2 3 4 5 6 
#
# 1 97.7613 57.3175 69.1949 0.0000 0.0000 0.0000
# 2 57.3175 97.7577 69.1955 0.0000 0.0000 0.0000
# 3 69.1949 69.1955 113.2959 0.0000 0.0000 0.0000
# 4 0.0000 0.0000 0.0000 21.9895 0.0000 0.0000
# 5 0.0000 0.0000 0.0000 0.0000 21.9903 0.0000
# 6 0.0000 0.0000 0.0000 0.0000 0.0000 38.4966
#
#
#
# Elastic Compliance Matrix: (Units=1/GPa)
#
#
# Indices 1 2 3 4 5 6 
#
# 1 0.019449 -0.005277 -0.008656 0.000000 0.000000 0.000000
# 2 -0.005277 0.019451 -0.008657 0.000000 0.000000 0.000000
# 3 -0.008656 -0.008657 0.019400 0.000000 0.000000 0.000000
# 4 0.000000 0.000000 0.000000 0.045476 0.000000 0.000000
# 5 0.000000 0.000000 0.000000 0.000000 0.045475 0.000000
# 6 0.000000 0.000000 0.000000 0.000000 0.000000 0.025976
#
#
# Mechanical properties :
#
#
# Convention : Reuss Voigt Hill
#
# Bulk Modulus (GPa) = 76.21118 77.80342 77.00730
# Shear Modulus (GPa) = 22.24401 24.03575 23.13988
#
# Velocity S-wave (km/s) = 3.43207 3.56762 3.50050
# Velocity P-wave (km/s) = 7.48749 7.62697 7.55755
#
# Compressibility (1/GPa) = 0.01312143
#
# Stress axis : x y z
#
# Youngs Moduli (GPa) = 51.41583 51.41191 51.54630
#
# Poissons Ratio (x) = 0.27129 0.44617
# Poissons Ratio (y) = 0.27131 0.44623
# Poissons Ratio (z) = 0.44504 0.44506
#
# Static dielectric constant tensor:
#      x y z
#    x 1.666970 0.000000 0.000000 
#    y 0.000000 1.666970 0.000000 
#    z 0.000000 0.000000 1.635850 
# 
# From -- ./inp_files/7741.got.cif
#   From: 2010.05.17/outbox.cif.g08.bks.cpg/sg141_4_cif.got.tgz:7741.got - 2010.05.20 13:30:51.
