data_PCOD9573766
_publ_section_title
;
Structure prediction by ZEFSAII (Michael W. Deem and Ramdas Pophale) SiO2 
 PCOD9573766
Probable space group: I 41/A C D
;
_chemical_formula_sum "Si O2"
_cell_formula_units_Z 160
_cell_length_a 27.270549
_cell_length_b 27.270549
_cell_length_c 9.314542
_cell_angle_alpha 90.000000
_cell_angle_beta 90.000000
_cell_angle_gamma 90.000000
_cell_volume 6927.065074
_symmetry_space_group_name_H-M "I 41/A C D"
_symmetry_group_IT_number 142
_space_group.IT_coordinate_system_code '2'
_symmetry_cell_setting 'tetragonal'
loop_
_space_group_symop_operation_xyz
x,y,z
1/4-y,3/4+x,1/4+z
-x,1/2-y,z
1/4+y,1/4-x,3/4+z
x,-y,1/2-z
1/2-x,y,-z
3/4+y,1/4+x,1/4-z
1/4-y,1/4-x,1/4-z
-x,-y,-z
3/4+y,1/4-x,3/4-z
x,1/2+y,-z
3/4-y,3/4+x,1/4-z
-x,y,1/2+z
1/2+x,-y,z
1/4-y,3/4-x,3/4+z
3/4+y,3/4+x,3/4+z
1/2+x,1/2+y,1/2+z
3/4-y,1/4+x,3/4+z
1/2-x,-y,1/2+z
3/4+y,3/4-x,1/4+z
1/2+x,1/2-y,-z
-x,1/2+y,1/2-z
1/4+y,3/4+x,3/4-z
3/4-y,3/4-x,3/4-z
1/2-x,1/2-y,1/2-z
1/4+y,3/4-x,1/4-z
1/2+x,y,1/2-z
1/4-y,1/4+x,3/4-z
1/2-x,1/2+y,z
x,1/2-y,1/2+z
3/4-y,1/4-x,1/4+z
1/4+y,1/4+x,1/4+z
loop_
_atom_site_type_symbol
_atom_site_label
_atom_site_fract_x
_atom_site_fract_y
_atom_site_fract_z
Si Si1 0.904998 0.274522 0.695008
Si Si2 0.172721 0.349362 0.064141
Si Si3 0.360337 0.203379 0.004803
Si Si4 0.152710 0.097291 0.125000
Si Si5 0.901118 0.525299 0.528939
Si Si6 0.250000 0.213639 0.000000
O O1 0.955488 0.294513 0.625000
O O2 0.863785 0.308795 0.622287
O O3 0.896612 0.283891 0.863347
O O4 0.887490 0.221968 0.638933
O O5 0.149069 0.399069 0.125000
O O6 0.225397 0.347890 0.136106
O O7 0.181980 0.341055 0.895970
O O8 0.350288 0.145234 0.980391
O O9 0.306959 0.229974 0.034447
O O10 0.204521 0.102456 0.203155
O O11 0.938162 0.514804 0.399770
#
# Coordination Sequence:
#
# PCOD9573766 Si02
#       6
#    32  32  32  16  32  16
#     4  11  25  43  68  96 131 169 217 274 338 406
#     4  10  21  40  64  92 128 173 220 271 335 393
#     4  11  25  42  68  97 134 171 221 271 337 399
#     4  10  22  42  67  86 130 180 216 268 330 390
#     4  10  21  37  66  91 130 173 219 274 329 394
#     4  10  22  40  62 104 132 164 220 274 344 392
#
# _framework density 23.097805000000001
#
# number of rings (size 3 to 8) (size 9 to 14) (size 15 to 20)
#    0.000    1.600    2.000    2.400   11.200    2.400 
#    0.000    0.500    8.800    0.000    0.000    0.000 
#    0.000    0.000    0.000    0.000    0.000    0.000 
#
# Total GULP energy -445468.052795 kJ/mol
# GULP energy per Si atom -5568.350660 kJ/mol
# Density = 2.304523 g / cm^3
# Si number density = 23.097805 Si / 1000 Ang^3
#
#
#
# Elastic Constant Matrix: (Units=GPa)
#
#
# Indices 1 2 3 4 5 6 
#
# 1 40.2956 19.6552 7.0753 0.0000 0.0000 0.0000
# 2 19.6552 40.3007 7.0777 0.0000 0.0000 0.0000
# 3 7.0753 7.0777 127.9120 0.0000 0.0000 0.0000
# 4 0.0000 0.0000 0.0000 -3.3666 0.0000 0.0000
# 5 0.0000 0.0000 0.0000 0.0000 -3.3719 0.0000
# 6 0.0000 0.0000 0.0000 0.0000 0.0000 20.9550
#
#
#
# Elastic Compliance Matrix: (Units=1/GPa)
#
#
# Indices 1 2 3 4 5 6 
#
# 1 0.032673 -0.015771 -0.000935 0.000000 0.000000 0.000000
# 2 -0.015771 0.032669 -0.000935 0.000000 0.000000 0.000000
# 3 -0.000935 -0.000935 0.007921 0.000000 0.000000 0.000000
# 4 0.000000 0.000000 0.000000 -0.297036 0.000000 0.000000
# 5 0.000000 0.000000 0.000000 0.000000 -0.296567 0.000000
# 6 0.000000 0.000000 0.000000 0.000000 0.000000 0.047721
#
#
# Mechanical properties :
#
#
# Convention : Reuss Voigt Hill
#
# Bulk Modulus (GPa) = 26.32818 30.68051 28.50435
# Shear Modulus (GPa) = -11.77371 14.48997 1.35813
#
# Velocity S-wave (km/s) = -2.26018 2.50738 0.76764
# Velocity P-wave (km/s) = 2.14758 4.65771 3.62673
#
# Compressibility (1/GPa) = 0.03798211
#
# Stress axis : x y z
#
# Youngs Moduli (GPa) = 30.60587 30.60961 126.24144
#
# Poissons Ratio (x) = 0.48275 0.11799
# Poissons Ratio (y) = 0.48269 0.11808
# Poissons Ratio (z) = 0.02860 0.02863
#
# Static dielectric constant tensor:
#      x y z
#    x 1.960690 0.000000 0.000000 
#    y 0.000000 1.960680 0.000000 
#    z 0.000000 0.000000 2.080730 
# 
# From -- ./inp_files/2224.got.cif
#   From: 2010.05.17/outbox.cif.g08.bks.cpg/sg142_2_cif.got.tgz:2224.got - 2010.05.20 13:39:18.
