data_PCOD9573919
_publ_section_title
;
Structure prediction by ZEFSAII (Michael W. Deem and Ramdas Pophale) SiO2 
 PCOD9573919
Probable space group: I 41/A C D
;
_chemical_formula_sum "Si O2"
_cell_formula_units_Z 96
_cell_length_a 17.973156
_cell_length_b 17.973156
_cell_length_c 12.676303
_cell_angle_alpha 90.000000
_cell_angle_beta 90.000000
_cell_angle_gamma 90.000000
_cell_volume 4094.881130
_symmetry_space_group_name_H-M "I 41/A C D"
_symmetry_group_IT_number 142
_space_group.IT_coordinate_system_code '2'
_symmetry_cell_setting 'tetragonal'
loop_
_space_group_symop_operation_xyz
x,y,z
1/4-y,3/4+x,1/4+z
-x,1/2-y,z
1/4+y,1/4-x,3/4+z
x,-y,1/2-z
1/2-x,y,-z
3/4+y,1/4+x,1/4-z
1/4-y,1/4-x,1/4-z
-x,-y,-z
3/4+y,1/4-x,3/4-z
x,1/2+y,-z
3/4-y,3/4+x,1/4-z
-x,y,1/2+z
1/2+x,-y,z
1/4-y,3/4-x,3/4+z
3/4+y,3/4+x,3/4+z
1/2+x,1/2+y,1/2+z
3/4-y,1/4+x,3/4+z
1/2-x,-y,1/2+z
3/4+y,3/4-x,1/4+z
1/2+x,1/2-y,-z
-x,1/2+y,1/2-z
1/4+y,3/4+x,3/4-z
3/4-y,3/4-x,3/4-z
1/2-x,1/2-y,1/2-z
1/4+y,3/4-x,1/4-z
1/2+x,y,1/2-z
1/4-y,1/4+x,3/4-z
1/2-x,1/2+y,z
x,1/2-y,1/2+z
3/4-y,1/4-x,1/4+z
1/4+y,1/4+x,1/4+z
loop_
_atom_site_type_symbol
_atom_site_label
_atom_site_fract_x
_atom_site_fract_y
_atom_site_fract_z
Si Si1 0.526808 0.089620 0.760477
Si Si2 0.065399 0.048926 0.051217
Si Si3 0.351582 0.359114 0.626613
O O1 0.478463 0.100884 0.865920
O O2 0.606587 0.124864 0.736640
O O3 0.534883 0.000000 0.750000
O O4 0.385552 0.012732 0.612381
O O5 0.114213 0.087413 0.962145
O O6 0.000000 0.000000 0.000000
O O7 0.366949 0.276234 0.584291
#
# Coordination Sequence:
#
# PCOD9573919 Si02
#       3
#    32  32  32
#     4  10  22  43  68 100 141 180 235 298 346 424
#     4  11  23  46  73 100 152 183 241 304 354 426
#     4  11  22  45  73 100 144 192 233 295 365 417
#
# _framework density 23.443902999999999
#
# number of rings (size 3 to 8) (size 9 to 14) (size 15 to 20)
#    0.000    1.333    6.667    1.000    0.000    2.000 
#    0.000   15.000    7.333    0.000    0.000    0.000 
#    0.000    0.000    0.000    0.000    0.000    0.000 
#
# Total GULP energy -268175.482007 kJ/mol
# GULP energy per Si atom -5586.989208 kJ/mol
# Density = 2.339054 g / cm^3
# Si number density = 23.443903 Si / 1000 Ang^3
#
#
#
# Elastic Constant Matrix: (Units=GPa)
#
#
# Indices 1 2 3 4 5 6 
#
# 1 63.5354 46.3688 36.4732 0.0000 0.0000 0.0000
# 2 46.3688 63.5354 36.4732 0.0000 0.0000 0.0000
# 3 36.4732 36.4732 123.3027 0.0000 0.0000 0.0000
# 4 0.0000 0.0000 0.0000 52.1942 0.0000 0.0000
# 5 0.0000 0.0000 0.0000 0.0000 52.1942 0.0000
# 6 0.0000 0.0000 0.0000 0.0000 0.0000 49.4792
#
#
#
# Elastic Compliance Matrix: (Units=1/GPa)
#
#
# Indices 1 2 3 4 5 6 
#
# 1 0.034787 -0.023466 -0.003349 0.000000 0.000000 0.000000
# 2 -0.023466 0.034787 -0.003349 0.000000 0.000000 0.000000
# 3 -0.003349 -0.003349 0.010091 0.000000 0.000000 0.000000
# 4 0.000000 0.000000 0.000000 0.019159 0.000000 0.000000
# 5 0.000000 0.000000 0.000000 0.000000 0.019159 0.000000
# 6 0.000000 0.000000 0.000000 0.000000 0.000000 0.020211
#
#
# Mechanical properties :
#
#
# Convention : Reuss Voigt Hill
#
# Bulk Modulus (GPa) = 51.70955 54.33378 53.02166
# Shear Modulus (GPa) = 24.39408 39.51073 31.95240
#
# Velocity S-wave (km/s) = 3.22922 4.10973 3.69579
# Velocity P-wave (km/s) = 6.00070 6.76360 6.39354
#
# Compressibility (1/GPa) = 0.01933879
#
# Stress axis : x y z
#
# Youngs Moduli (GPa) = 28.74626 28.74626 99.09445
#
# Poissons Ratio (x) = 0.67455 0.33186
# Poissons Ratio (y) = 0.67455 0.33186
# Poissons Ratio (z) = 0.09627 0.09627
#
# Static dielectric constant tensor:
#      x y z
#    x 1.899560 0.000000 0.000000 
#    y 0.000000 1.899560 0.000000 
#    z 0.000000 0.000000 2.014240 
# 
# From -- ./inp_files/3274.got.cif
#   From: 2010.05.17/outbox.cif.g08.bks.cpg/sg142_2_cif.got.tgz:3274.got - 2010.05.20 13:39:18.
