data_PCOD9573866
_publ_section_title
;
Structure prediction by ZEFSAII (Michael W. Deem and Ramdas Pophale) SiO2 
 PCOD9573866
Probable space group: I 41/A C D
;
_chemical_formula_sum "Si O2"
_cell_formula_units_Z 160
_cell_length_a 28.903932
_cell_length_b 28.903932
_cell_length_c 8.612962
_cell_angle_alpha 90.000000
_cell_angle_beta 90.000000
_cell_angle_gamma 90.000000
_cell_volume 7195.589590
_symmetry_space_group_name_H-M "I 41/A C D"
_symmetry_group_IT_number 142
_space_group.IT_coordinate_system_code '2'
_symmetry_cell_setting 'tetragonal'
loop_
_space_group_symop_operation_xyz
x,y,z
1/4-y,3/4+x,1/4+z
-x,1/2-y,z
1/4+y,1/4-x,3/4+z
x,-y,1/2-z
1/2-x,y,-z
3/4+y,1/4+x,1/4-z
1/4-y,1/4-x,1/4-z
-x,-y,-z
3/4+y,1/4-x,3/4-z
x,1/2+y,-z
3/4-y,3/4+x,1/4-z
-x,y,1/2+z
1/2+x,-y,z
1/4-y,3/4-x,3/4+z
3/4+y,3/4+x,3/4+z
1/2+x,1/2+y,1/2+z
3/4-y,1/4+x,3/4+z
1/2-x,-y,1/2+z
3/4+y,3/4-x,1/4+z
1/2+x,1/2-y,-z
-x,1/2+y,1/2-z
1/4+y,3/4+x,3/4-z
3/4-y,3/4-x,3/4-z
1/2-x,1/2-y,1/2-z
1/4+y,3/4-x,1/4-z
1/2+x,y,1/2-z
1/4-y,1/4+x,3/4-z
1/2-x,1/2+y,z
x,1/2-y,1/2+z
3/4-y,1/4-x,1/4+z
1/4+y,1/4+x,1/4+z
loop_
_atom_site_type_symbol
_atom_site_label
_atom_site_fract_x
_atom_site_fract_y
_atom_site_fract_z
Si Si1 0.543674 0.000000 0.750000
Si Si2 0.800955 0.201840 0.501155
Si Si3 0.030561 0.125317 0.490443
Si Si4 0.110209 0.815023 0.089038
Si Si5 0.807985 0.640929 0.223560
Si Si6 0.292041 0.042041 0.875000
O O1 0.505405 0.960787 0.702328
O O2 0.576551 0.979820 0.884754
O O3 0.750000 0.180110 0.500000
O O4 0.827678 0.203968 0.341096
O O5 0.824627 0.169046 0.624681
O O6 0.044493 0.131338 0.667798
O O7 0.059321 0.164614 0.400314
O O8 0.977019 0.131732 0.455417
O O9 0.147218 0.856282 0.113217
O O10 0.792023 0.590403 0.277020
O O11 0.290257 0.000000 0.750000
#
# Coordination Sequence:
#
# PCOD9573866 Si02
#       6
#    16  32  32  32  32  16
#     4  10  24  36  74 116 148 182 232 310 388 450
#     4  10  22  39  69 107 151 182 231 307 380 443
#     4  11  24  43  63 102 145 192 243 299 363 454
#     4  11  25  42  68  99 144 192 243 298 370 446
#     4  12  24  46  74 111 143 193 244 309 388 440
#     4  12  32  60  80 108 148 211 264 320 370 457
#
# _framework density 22.235842999999999
#
# number of rings (size 3 to 8) (size 9 to 14) (size 15 to 20)
#    0.600    0.400    2.000    3.600    4.200    2.800 
#    3.600    2.000    0.000    0.000    0.000    0.000 
#    0.000    0.000    0.000    0.000    0.000    0.000 
#
# Total GULP energy -446539.160727 kJ/mol
# GULP energy per Si atom -5581.739509 kJ/mol
# Density = 2.218523 g / cm^3
# Si number density = 22.235843 Si / 1000 Ang^3
#
#
#
# Elastic Constant Matrix: (Units=GPa)
#
#
# Indices 1 2 3 4 5 6 
#
# 1 121.7270 31.9583 38.6315 0.0000 0.0000 0.0000
# 2 31.9583 121.7270 38.6315 0.0000 0.0000 0.0000
# 3 38.6315 38.6315 95.8223 0.0000 0.0000 0.0000
# 4 0.0000 0.0000 0.0000 21.7367 0.0000 0.0000
# 5 0.0000 0.0000 0.0000 0.0000 21.7367 0.0000
# 6 0.0000 0.0000 0.0000 0.0000 0.0000 17.7766
#
#
#
# Elastic Compliance Matrix: (Units=1/GPa)
#
#
# Indices 1 2 3 4 5 6 
#
# 1 0.009650 -0.001489 -0.003290 0.000000 0.000000 0.000000
# 2 -0.001489 0.009650 -0.003290 0.000000 0.000000 0.000000
# 3 -0.003290 -0.003290 0.013089 0.000000 0.000000 0.000000
# 4 0.000000 0.000000 0.000000 0.046005 0.000000 0.000000
# 5 0.000000 0.000000 0.000000 0.000000 0.046005 0.000000
# 6 0.000000 0.000000 0.000000 0.000000 0.000000 0.056254
#
#
# Mechanical properties :
#
#
# Convention : Reuss Voigt Hill
#
# Bulk Modulus (GPa) = 61.53802 61.96877 61.75339
# Shear Modulus (GPa) = 24.72682 27.58700 26.15691
#
# Velocity S-wave (km/s) = 3.33832 3.52611 3.43350
# Velocity P-wave (km/s) = 6.52644 6.67138 6.59931
#
# Compressibility (1/GPa) = 0.01625012
#
# Stress axis : x y z
#
# Youngs Moduli (GPa) = 103.62376 103.62376 76.40088
#
# Poissons Ratio (x) = 0.15434 0.25137
# Poissons Ratio (y) = 0.15434 0.25137
# Poissons Ratio (z) = 0.34093 0.34093
#
# Static dielectric constant tensor:
#      x y z
#    x 1.870600 0.000000 0.000000 
#    y 0.000000 1.870600 0.000000 
#    z 0.000000 0.000000 1.876000 
# 
# From -- ./inp_files/2211.got.cif
#   From: 2010.05.17/outbox.cif.g08.bks.cpg/sg142_2_cif.got.tgz:2211.got - 2010.05.20 13:39:18.
