data_PCOD9573541
_publ_section_title
;
Structure prediction by ZEFSAII (Michael W. Deem and Ramdas Pophale) SiO2 
 PCOD9573541
Probable space group: I 41/A C D
;
_chemical_formula_sum "Si O2"
_cell_formula_units_Z 96
_cell_length_a 13.682766
_cell_length_b 13.682766
_cell_length_c 23.332918
_cell_angle_alpha 90.000000
_cell_angle_beta 90.000000
_cell_angle_gamma 90.000000
_cell_volume 4368.344235
_symmetry_space_group_name_H-M "I 41/A C D"
_symmetry_group_IT_number 142
_space_group.IT_coordinate_system_code '2'
_symmetry_cell_setting 'tetragonal'
loop_
_space_group_symop_operation_xyz
x,y,z
1/4-y,3/4+x,1/4+z
-x,1/2-y,z
1/4+y,1/4-x,3/4+z
x,-y,1/2-z
1/2-x,y,-z
3/4+y,1/4+x,1/4-z
1/4-y,1/4-x,1/4-z
-x,-y,-z
3/4+y,1/4-x,3/4-z
x,1/2+y,-z
3/4-y,3/4+x,1/4-z
-x,y,1/2+z
1/2+x,-y,z
1/4-y,3/4-x,3/4+z
3/4+y,3/4+x,3/4+z
1/2+x,1/2+y,1/2+z
3/4-y,1/4+x,3/4+z
1/2-x,-y,1/2+z
3/4+y,3/4-x,1/4+z
1/2+x,1/2-y,-z
-x,1/2+y,1/2-z
1/4+y,3/4+x,3/4-z
3/4-y,3/4-x,3/4-z
1/2-x,1/2-y,1/2-z
1/4+y,3/4-x,1/4-z
1/2+x,y,1/2-z
1/4-y,1/4+x,3/4-z
1/2-x,1/2+y,z
x,1/2-y,1/2+z
3/4-y,1/4-x,1/4+z
1/4+y,1/4+x,1/4+z
loop_
_atom_site_type_symbol
_atom_site_label
_atom_site_fract_x
_atom_site_fract_y
_atom_site_fract_z
Si Si1 0.887055 0.226933 0.236053
Si Si2 0.344308 0.518133 0.960216
Si Si3 0.395272 0.631446 0.390371
O O1 0.825575 0.160794 0.192519
O O2 0.835438 0.328862 0.253311
O O3 0.872474 0.157811 0.292086
O O4 0.000000 0.250000 0.224492
O O5 0.321211 0.575704 0.901345
O O6 0.250000 0.502501 0.000000
O O7 0.367790 0.744551 0.381639
#
# Coordination Sequence:
#
# PCOD9573541 Si02
#       3
#    32  32  32
#     4  10  19  37  61  86 124 164 208 257 316 380
#     4  10  21  33  57  96 119 157 215 262 302 379
#     4   9  15  34  59  82 114 165 205 241 311 383
#
# _framework density 21.976289999999999
#
# number of rings (size 3 to 8) (size 9 to 14) (size 15 to 20)
#    0.000    2.333    6.667    0.000    0.000    2.667 
#    0.000    0.000    0.000    0.000    0.000    0.000 
#    0.000    0.000    0.000    0.000    0.000    0.000 
#
# Total GULP energy -267344.363138 kJ/mol
# GULP energy per Si atom -5569.674232 kJ/mol
# Density = 2.192627 g / cm^3
# Si number density = 21.976290 Si / 1000 Ang^3
#
#
#
# Elastic Constant Matrix: (Units=GPa)
#
#
# Indices 1 2 3 4 5 6 
#
# 1 104.7477 77.5391 10.3167 0.0000 0.0000 0.0000
# 2 77.5391 104.7477 10.3167 0.0000 0.0000 0.0000
# 3 10.3167 10.3167 21.1309 0.0000 0.0000 0.0000
# 4 0.0000 0.0000 0.0000 9.4583 0.0000 0.0000
# 5 0.0000 0.0000 0.0000 0.0000 9.4583 0.0000
# 6 0.0000 0.0000 0.0000 0.0000 0.0000 31.7685
#
#
#
# Elastic Compliance Matrix: (Units=1/GPa)
#
#
# Indices 1 2 3 4 5 6 
#
# 1 0.021280 -0.015473 -0.002835 0.000000 0.000000 0.000000
# 2 -0.015473 0.021280 -0.002835 0.000000 0.000000 0.000000
# 3 -0.002835 -0.002835 0.050092 0.000000 0.000000 0.000000
# 4 0.000000 0.000000 0.000000 0.105727 0.000000 0.000000
# 5 0.000000 0.000000 0.000000 0.000000 0.105727 0.000000
# 6 0.000000 0.000000 0.000000 0.000000 0.000000 0.031478
#
#
# Mechanical properties :
#
#
# Convention : Reuss Voigt Hill
#
# Bulk Modulus (GPa) = 19.85475 47.44125 33.64800
# Shear Modulus (GPa) = 12.66914 18.96728 15.81821
#
# Velocity S-wave (km/s) = 2.40363 2.94101 2.68579
# Velocity P-wave (km/s) = 4.09359 5.75908 4.99622
#
# Compressibility (1/GPa) = 0.05036577
#
# Stress axis : x y z
#
# Youngs Moduli (GPa) = 46.99261 46.99261 19.96315
#
# Poissons Ratio (x) = 0.72713 0.05660
# Poissons Ratio (y) = 0.72713 0.05660
# Poissons Ratio (z) = 0.13322 0.13322
#
# Static dielectric constant tensor:
#      x y z
#    x 1.828940 0.000000 0.000000 
#    y 0.000000 1.828940 0.000000 
#    z 0.000000 0.000000 2.045920 
# 
# From -- ./inp_files/8357.got.cif
#   From: 2010.05.17/outbox.cif.g08.bks.cpg/sg142_5_cif.got.tgz:8357.got - 2010.05.20 13:39:18.
