data_PCOD9573118
_publ_section_title
;
Structure prediction by ZEFSAII (Michael W. Deem and Ramdas Pophale) SiO2 
 PCOD9573118
Probable space group: I 41/A M D
;
_chemical_formula_sum "Si O2"
_cell_formula_units_Z 160
_cell_length_a 17.709086
_cell_length_b 17.709086
_cell_length_c 21.430694
_cell_angle_alpha 90.000000
_cell_angle_beta 90.000000
_cell_angle_gamma 90.000000
_cell_volume 6720.916955
_symmetry_space_group_name_H-M "I 41/A M D"
_symmetry_group_IT_number 141
_space_group.IT_coordinate_system_code '2'
_symmetry_cell_setting 'tetragonal'
loop_
_space_group_symop_operation_xyz
x,y,z
1/4-y,3/4+x,1/4+z
-x,1/2-y,z
1/4+y,1/4-x,3/4+z
x,-y,-z
-x,1/2+y,-z
1/4+y,3/4+x,1/4-z
1/4-y,1/4-x,3/4-z
-x,-y,-z
3/4+y,1/4-x,3/4-z
x,1/2+y,-z
3/4-y,3/4+x,1/4-z
-x,y,z
x,1/2-y,z
3/4-y,1/4-x,3/4+z
3/4+y,3/4+x,1/4+z
1/2+x,1/2+y,1/2+z
3/4-y,1/4+x,3/4+z
1/2-x,-y,1/2+z
3/4+y,3/4-x,1/4+z
1/2+x,1/2-y,1/2-z
1/2-x,y,1/2-z
3/4+y,1/4+x,3/4-z
3/4-y,3/4-x,1/4-z
1/2-x,1/2-y,1/2-z
1/4+y,3/4-x,1/4-z
1/2+x,y,1/2-z
1/4-y,1/4+x,3/4-z
1/2-x,1/2+y,1/2+z
1/2+x,-y,1/2+z
1/4-y,3/4-x,1/4+z
1/4+y,1/4+x,3/4+z
loop_
_atom_site_type_symbol
_atom_site_label
_atom_site_fract_x
_atom_site_fract_y
_atom_site_fract_z
Si Si1 0.333722 0.598111 0.278400
Si Si2 0.689388 0.068368 0.955942
Si Si3 0.587905 0.250000 0.707978
Si Si4 0.910007 0.585005 0.353413
Si Si5 0.000000 0.336473 0.109226
Si Si6 0.090618 0.836993 0.698112
O O1 0.250000 0.615430 0.250000
O O2 0.343166 0.521524 0.318469
O O3 0.367950 0.673714 0.308243
O O4 0.384525 0.578162 0.217194
O O5 0.635359 0.035685 0.902120
O O6 0.643187 0.122525 0.002511
O O7 0.712284 0.000000 0.000000
O O8 0.500000 0.250000 0.689796
O O9 0.585962 0.250000 0.784077
O O10 0.881928 0.668849 0.376156
O O11 0.000000 0.579418 0.358433
O O12 0.000000 0.250000 0.132022
O O13 0.104576 0.854576 0.625000
O O14 0.115522 0.750000 0.710059
O O15 0.000000 0.839263 0.705886
#
# Coordination Sequence:
#
# PCOD9573118 Si02
#       6
#    32  32  16  32  16  32
#     4  10  22  39  63  92 123 170 218 272 339 403
#     4  11  25  37  56  90 128 170 220 272 332 397
#     4   9  17  37  65  93 119 149 207 265 325 404
#     4  10  21  39  61  89 126 166 215 272 328 394
#     4   7  14  31  55  81 111 146 190 255 314 365
#     4   9  20  38  58  82 120 171 221 270 329 397
#
# _framework density 23.806276
#
# number of rings (size 3 to 8) (size 9 to 14) (size 15 to 20)
#    0.000    2.400    0.000    3.300    4.200    5.600 
#    0.000    0.000    0.000    0.000    5.200    0.000 
#    0.000    0.000    0.000    0.000    0.000    0.000 
#
# Total GULP energy -446685.510719 kJ/mol
# GULP energy per Si atom -5583.568884 kJ/mol
# Density = 2.375209 g / cm^3
# Si number density = 23.806276 Si / 1000 Ang^3
#
#
#
# Elastic Constant Matrix: (Units=GPa)
#
#
# Indices 1 2 3 4 5 6 
#
# 1 138.0264 39.7296 28.6511 0.0000 0.0000 0.0000
# 2 39.7296 138.0264 28.6511 0.0000 0.0000 0.0000
# 3 28.6511 28.6511 75.5913 0.0000 0.0000 0.0000
# 4 0.0000 0.0000 0.0000 22.0511 0.0000 0.0000
# 5 0.0000 0.0000 0.0000 0.0000 22.0511 0.0000
# 6 0.0000 0.0000 0.0000 0.0000 0.0000 20.2265
#
#
#
# Elastic Compliance Matrix: (Units=1/GPa)
#
#
# Indices 1 2 3 4 5 6 
#
# 1 0.008291 -0.001882 -0.002429 0.000000 0.000000 0.000000
# 2 -0.001882 0.008291 -0.002429 0.000000 0.000000 0.000000
# 3 -0.002429 -0.002429 0.015070 0.000000 0.000000 0.000000
# 4 0.000000 0.000000 0.000000 0.045349 0.000000 0.000000
# 5 0.000000 0.000000 0.000000 0.000000 0.045349 0.000000
# 6 0.000000 0.000000 0.000000 0.000000 0.000000 0.049440
#
#
# Mechanical properties :
#
#
# Convention : Reuss Voigt Hill
#
# Bulk Modulus (GPa) = 55.03104 60.63418 57.83261
# Shear Modulus (GPa) = 26.13298 29.83988 27.98643
#
# Velocity S-wave (km/s) = 3.31680 3.54424 3.43241
# Velocity P-wave (km/s) = 6.15098 6.50185 6.32885
#
# Compressibility (1/GPa) = 0.01817156
#
# Stress axis : x y z
#
# Youngs Moduli (GPa) = 120.61262 120.61262 66.35521
#
# Poissons Ratio (x) = 0.22703 0.16118
# Poissons Ratio (y) = 0.22703 0.16118
# Poissons Ratio (z) = 0.29298 0.29298
#
# Static dielectric constant tensor:
#      x y z
#    x 1.931480 0.000000 0.000000 
#    y 0.000000 1.931480 0.000000 
#    z 0.000000 0.000000 1.941770 
# 
# From -- ./inp_files/12797.got.cif
#   From: 2010.05.17/outbox.cif.g08.bks.cpg/sg141_7_cif.got.tgz:12797.got - 2010.05.20 13:30:51.
