data_PCOD9573363
_publ_section_title
;
Structure prediction by ZEFSAII (Michael W. Deem and Ramdas Pophale) SiO2 
 PCOD9573363
Probable space group: I 41/A M D
;
_chemical_formula_sum "Si O2"
_cell_formula_units_Z 72
_cell_length_a 17.882824
_cell_length_b 17.882824
_cell_length_c 9.383351
_cell_angle_alpha 90.000000
_cell_angle_beta 90.000000
_cell_angle_gamma 90.000000
_cell_volume 3000.752432
_symmetry_space_group_name_H-M "I 41/A M D"
_symmetry_group_IT_number 141
_space_group.IT_coordinate_system_code '2'
_symmetry_cell_setting 'tetragonal'
loop_
_space_group_symop_operation_xyz
x,y,z
1/4-y,3/4+x,1/4+z
-x,1/2-y,z
1/4+y,1/4-x,3/4+z
x,-y,-z
-x,1/2+y,-z
1/4+y,3/4+x,1/4-z
1/4-y,1/4-x,3/4-z
-x,-y,-z
3/4+y,1/4-x,3/4-z
x,1/2+y,-z
3/4-y,3/4+x,1/4-z
-x,y,z
x,1/2-y,z
3/4-y,1/4-x,3/4+z
3/4+y,3/4+x,1/4+z
1/2+x,1/2+y,1/2+z
3/4-y,1/4+x,3/4+z
1/2-x,-y,1/2+z
3/4+y,3/4-x,1/4+z
1/2+x,1/2-y,1/2-z
1/2-x,y,1/2-z
3/4+y,1/4+x,3/4-z
3/4-y,3/4-x,1/4-z
1/2-x,1/2-y,1/2-z
1/4+y,3/4-x,1/4-z
1/2+x,y,1/2-z
1/4-y,1/4+x,3/4-z
1/2-x,1/2+y,1/2+z
1/2+x,-y,1/2+z
1/4-y,3/4-x,1/4+z
1/4+y,1/4+x,3/4+z
loop_
_atom_site_type_symbol
_atom_site_label
_atom_site_fract_x
_atom_site_fract_y
_atom_site_fract_z
Si Si1 0.000000 0.750000 0.408981
Si Si2 0.913677 0.547247 0.194228
Si Si3 0.871565 0.625421 0.454856
O O1 0.065698 0.814020 0.416577
O O2 0.857197 0.607197 0.125000
O O3 0.896519 0.554323 0.362976
O O4 0.898401 0.461589 0.154874
O O5 0.000000 0.566310 0.164171
O O6 0.869630 0.619630 0.625000
#
# Coordination Sequence:
#
# PCOD9573363 Si02
#       3
#     8  32  32
#     4  12  25  44  79 118 147 186 253 314 367 442
#     4  12  29  47  74 110 153 199 250 308 375 445
#     4  12  26  48  79 110 147 196 249 312 374 446
#
# _framework density 23.993980000000001
#
# number of rings (size 3 to 8) (size 9 to 14) (size 15 to 20)
#    0.000    0.000    4.444    4.667    3.111    9.333 
#    0.000    0.000    0.000    0.000    0.000    0.000 
#    0.000    0.000    0.000    0.000    0.000    0.000 
#
# Total GULP energy -200523.200472 kJ/mol
# GULP energy per Si atom -5570.088902 kJ/mol
# Density = 2.393937 g / cm^3
# Si number density = 23.993980 Si / 1000 Ang^3
#
#
#
# Elastic Constant Matrix: (Units=GPa)
#
#
# Indices 1 2 3 4 5 6 
#
# 1 225.2919 104.1626 34.5811 0.0000 0.0000 0.0000
# 2 104.1626 225.2919 34.5811 0.0000 0.0000 0.0000
# 3 34.5811 34.5811 77.7628 0.0000 0.0000 0.0000
# 4 0.0000 0.0000 0.0000 -67.1854 0.0000 0.0000
# 5 0.0000 0.0000 0.0000 0.0000 -67.1854 0.0000
# 6 0.0000 0.0000 0.0000 0.0000 0.0000 15.8578
#
#
#
# Elastic Compliance Matrix: (Units=1/GPa)
#
#
# Indices 1 2 3 4 5 6 
#
# 1 0.005802 -0.002454 -0.001489 0.000000 0.000000 0.000000
# 2 -0.002454 0.005802 -0.001489 0.000000 0.000000 0.000000
# 3 -0.001489 -0.001489 0.014184 0.000000 0.000000 0.000000
# 4 0.000000 0.000000 0.000000 -0.014884 0.000000 0.000000
# 5 0.000000 0.000000 0.000000 0.000000 -0.014884 0.000000
# 6 0.000000 0.000000 0.000000 0.000000 0.000000 0.063060
#
#
# Mechanical properties :
#
#
# Convention : Reuss Voigt Hill
#
# Bulk Modulus (GPa) = 67.00483 97.22182 82.11333
# Shear Modulus (GPa) = 66.74064 -0.03447 33.35309
#
# Velocity S-wave (km/s) = 5.27977 -0.11999 3.73240
# Velocity P-wave (km/s) = 8.07182 6.37087 7.27125
#
# Compressibility (1/GPa) = 0.01492430
#
# Stress axis : x y z
#
# Youngs Moduli (GPa) = 172.36178 172.36178 70.50322
#
# Poissons Ratio (x) = 0.42296 0.10496
# Poissons Ratio (y) = 0.42296 0.10496
# Poissons Ratio (z) = 0.25661 0.25661
#
# Static dielectric constant tensor:
#      x y z
#    x 1.904560 0.000000 0.000000 
#    y 0.000000 1.904560 0.000000 
#    z 0.000000 0.000000 2.038590 
# 
# From -- ./inp_files/4004.got.cif
#   From: 2010.05.17/outbox.cif.g08.bks.cpg/sg141_3_cif.got.tgz:4004.got - 2010.05.20 13:30:51.
