data_PCOD9573245
_publ_section_title
;
Structure prediction by ZEFSAII (Michael W. Deem and Ramdas Pophale) SiO2 
 PCOD9573245
Probable space group: I 41/A M D
;
_chemical_formula_sum "Si O2"
_cell_formula_units_Z 176
_cell_length_a 27.376897
_cell_length_b 27.376897
_cell_length_c 12.322728
_cell_angle_alpha 90.000000
_cell_angle_beta 90.000000
_cell_angle_gamma 90.000000
_cell_volume 9235.816730
_symmetry_space_group_name_H-M "I 41/A M D"
_symmetry_group_IT_number 141
_space_group.IT_coordinate_system_code '2'
_symmetry_cell_setting 'tetragonal'
loop_
_space_group_symop_operation_xyz
x,y,z
1/4-y,3/4+x,1/4+z
-x,1/2-y,z
1/4+y,1/4-x,3/4+z
x,-y,-z
-x,1/2+y,-z
1/4+y,3/4+x,1/4-z
1/4-y,1/4-x,3/4-z
-x,-y,-z
3/4+y,1/4-x,3/4-z
x,1/2+y,-z
3/4-y,3/4+x,1/4-z
-x,y,z
x,1/2-y,z
3/4-y,1/4-x,3/4+z
3/4+y,3/4+x,1/4+z
1/2+x,1/2+y,1/2+z
3/4-y,1/4+x,3/4+z
1/2-x,-y,1/2+z
3/4+y,3/4-x,1/4+z
1/2+x,1/2-y,1/2-z
1/2-x,y,1/2-z
3/4+y,1/4+x,3/4-z
3/4-y,3/4-x,1/4-z
1/2-x,1/2-y,1/2-z
1/4+y,3/4-x,1/4-z
1/2+x,y,1/2-z
1/4-y,1/4+x,3/4-z
1/2-x,1/2+y,1/2+z
1/2+x,-y,1/2+z
1/4-y,3/4-x,1/4+z
1/4+y,1/4+x,3/4+z
loop_
_atom_site_type_symbol
_atom_site_label
_atom_site_fract_x
_atom_site_fract_y
_atom_site_fract_z
Si Si1 0.944445 0.569767 0.378543
Si Si2 0.383213 0.019384 0.179805
Si Si3 0.770872 0.520872 0.625000
Si Si4 0.364891 0.307928 0.603886
Si Si5 0.057340 0.886030 0.614173
Si Si6 0.133025 0.535985 0.098278
O O1 0.913553 0.521137 0.383935
O O2 0.931786 0.600639 0.271669
O O3 0.940563 0.600318 0.487253
O O4 0.000000 0.553711 0.363895
O O5 0.328815 0.015216 0.135183
O O6 0.409710 0.071775 0.171316
O O7 0.380409 0.999166 0.302048
O O8 0.750000 0.507242 0.750000
O O9 0.364269 0.250000 0.623150
O O10 0.416615 0.333386 0.625000
O O11 0.323360 0.337820 0.669686
O O12 0.084240 0.834240 0.625000
O O13 0.000000 0.886816 0.647519
O O14 0.179109 0.570892 0.125000
O O15 0.143141 0.500000 0.000000
#
# Coordination Sequence:
#
# PCOD9573245 Si02
#       6
#    32  32  16  32  32  32
#     4   9  19  39  63  84 113 155 197 242 298 354
#     4  11  23  39  63  87 119 157 208 250 293 351
#     4  12  28  40  58  92 131 166 204 248 303 366
#     4   9  19  38  62  89 120 155 199 250 303 365
#     4  11  23  40  62  89 118 152 198 249 303 364
#     4  10  24  41  60  86 123 166 205 247 307 365
#
# _framework density 19.056246999999999
#
# number of rings (size 3 to 8) (size 9 to 14) (size 15 to 20)
#    0.000    1.818    0.909    2.182    3.818    5.818 
#    0.000    2.727    0.000    3.273    0.000    0.000 
#    0.000    0.000    0.000    0.000    0.000    0.000 
#
# Total GULP energy -490756.256323 kJ/mol
# GULP energy per Si atom -5576.775640 kJ/mol
# Density = 1.901287 g / cm^3
# Si number density = 19.056247 Si / 1000 Ang^3
#
#
#
# Elastic Constant Matrix: (Units=GPa)
#
#
# Indices 1 2 3 4 5 6 
#
# 1 114.6882 59.9893 49.9966 0.0000 0.0000 0.0000
# 2 59.9893 114.6983 50.0016 0.0000 0.0000 0.0000
# 3 49.9966 50.0016 72.8205 0.0000 0.0000 0.0000
# 4 0.0000 0.0000 0.0000 31.1842 0.0000 0.0000
# 5 0.0000 0.0000 0.0000 0.0000 31.2026 0.0000
# 6 0.0000 0.0000 0.0000 0.0000 0.0000 26.5090
#
#
#
# Elastic Compliance Matrix: (Units=1/GPa)
#
#
# Indices 1 2 3 4 5 6 
#
# 1 0.013856 -0.004424 -0.006476 0.000000 0.000000 0.000000
# 2 -0.004424 0.013856 -0.006476 0.000000 0.000000 0.000000
# 3 -0.006476 -0.006476 0.022625 0.000000 0.000000 0.000000
# 4 0.000000 0.000000 0.000000 0.032067 0.000000 0.000000
# 5 0.000000 0.000000 0.000000 0.000000 0.032049 0.000000
# 6 0.000000 0.000000 0.000000 0.000000 0.000000 0.037723
#
#
# Mechanical properties :
#
#
# Convention : Reuss Voigt Hill
#
# Bulk Modulus (GPa) = 64.16383 69.13133 66.64758
# Shear Modulus (GPa) = 26.02485 27.26046 26.64265
#
# Velocity S-wave (km/s) = 3.69953 3.78633 3.74318
# Velocity P-wave (km/s) = 7.21058 7.44791 7.33021
#
# Compressibility (1/GPa) = 0.01558510
#
# Stress axis : x y z
#
# Youngs Moduli (GPa) = 72.16920 72.17199 44.19819
#
# Poissons Ratio (x) = 0.31930 0.28621
# Poissons Ratio (y) = 0.31929 0.28625
# Poissons Ratio (z) = 0.46734 0.46742
#
# Static dielectric constant tensor:
#      x y z
#    x 1.522410 0.000000 0.000000 
#    y 0.000000 1.522460 0.000000 
#    z 0.000000 0.000000 1.783100 
# 
# From -- ./inp_files/5036.got.cif
#   From: 2010.05.17/outbox.cif.g08.bks.cpg/sg141_3_cif.got.tgz:5036.got - 2010.05.20 13:30:51.
