data_PCOD9573775
_publ_section_title
;
Structure prediction by ZEFSAII (Michael W. Deem and Ramdas Pophale) SiO2 
 PCOD9573775
Probable space group: I 41/A C D
;
_chemical_formula_sum "Si O2"
_cell_formula_units_Z 136
_cell_length_a 22.858684
_cell_length_b 22.858684
_cell_length_c 13.347647
_cell_angle_alpha 90.000000
_cell_angle_beta 90.000000
_cell_angle_gamma 90.000000
_cell_volume 6974.404958
_symmetry_space_group_name_H-M "I 41/A C D"
_symmetry_group_IT_number 142
_space_group.IT_coordinate_system_code '2'
_symmetry_cell_setting 'tetragonal'
loop_
_space_group_symop_operation_xyz
x,y,z
1/4-y,3/4+x,1/4+z
-x,1/2-y,z
1/4+y,1/4-x,3/4+z
x,-y,1/2-z
1/2-x,y,-z
3/4+y,1/4+x,1/4-z
1/4-y,1/4-x,1/4-z
-x,-y,-z
3/4+y,1/4-x,3/4-z
x,1/2+y,-z
3/4-y,3/4+x,1/4-z
-x,y,1/2+z
1/2+x,-y,z
1/4-y,3/4-x,3/4+z
3/4+y,3/4+x,3/4+z
1/2+x,1/2+y,1/2+z
3/4-y,1/4+x,3/4+z
1/2-x,-y,1/2+z
3/4+y,3/4-x,1/4+z
1/2+x,1/2-y,-z
-x,1/2+y,1/2-z
1/4+y,3/4+x,3/4-z
3/4-y,3/4-x,3/4-z
1/2-x,1/2-y,1/2-z
1/4+y,3/4-x,1/4-z
1/2+x,y,1/2-z
1/4-y,1/4+x,3/4-z
1/2-x,1/2+y,z
x,1/2-y,1/2+z
3/4-y,1/4-x,1/4+z
1/4+y,1/4+x,1/4+z
loop_
_atom_site_type_symbol
_atom_site_label
_atom_site_fract_x
_atom_site_fract_y
_atom_site_fract_z
Si Si1 0.726151 0.627509 0.384798
Si Si2 0.306043 0.243539 0.570966
Si Si3 0.000000 0.750000 0.625000
Si Si4 0.586645 0.802943 0.020415
Si Si5 0.319727 0.870354 0.791516
O O1 0.750000 0.624867 0.500000
O O2 0.702284 0.694089 0.372784
O O3 0.674870 0.579287 0.383562
O O4 0.773260 0.619132 0.296921
O O5 0.250000 0.235528 0.500000
O O6 0.363462 0.254745 0.501589
O O7 0.309558 0.189333 0.646715
O O8 0.955007 0.786869 0.688956
O O9 0.553657 0.803657 0.125000
O O10 0.614710 0.866579 0.009082
#
# Coordination Sequence:
#
# PCOD9573775 Si02
#       5
#    32  32   8  32  32
#     4  10  21  38  63  89 119 167 214 264 324 390
#     4  10  21  39  61  92 123 163 211 259 326 386
#     4  12  22  40  56 102 132 160 202 264 336 374
#     4  11  22  39  64  91 130 165 206 259 322 392
#     4  11  21  40  63  90 125 164 217 269 316 386
#
# _framework density 19.499872
#
# number of rings (size 3 to 8) (size 9 to 14) (size 15 to 20)
#    0.000    1.412    2.353    6.000    0.000    0.000 
#    0.000    4.706    0.000    0.000    0.000    0.000 
#    0.000    0.000    0.000    0.000    0.000    0.000 
#
# Total GULP energy -379329.251838 kJ/mol
# GULP energy per Si atom -5578.371351 kJ/mol
# Density = 1.945549 g / cm^3
# Si number density = 19.499872 Si / 1000 Ang^3
#
#
#
# Elastic Constant Matrix: (Units=GPa)
#
#
# Indices 1 2 3 4 5 6 
#
# 1 87.9138 57.4730 63.7546 0.0000 0.0000 0.0000
# 2 57.4730 87.9138 63.7546 0.0000 0.0000 0.0000
# 3 63.7546 63.7546 118.8483 0.0000 0.0000 0.0000
# 4 0.0000 0.0000 0.0000 32.6551 0.0000 0.0000
# 5 0.0000 0.0000 0.0000 0.0000 32.6551 0.0000
# 6 0.0000 0.0000 0.0000 0.0000 0.0000 28.0775
#
#
#
# Elastic Compliance Matrix: (Units=1/GPa)
#
#
# Indices 1 2 3 4 5 6 
#
# 1 0.022920 -0.009931 -0.006968 0.000000 0.000000 0.000000
# 2 -0.009931 0.022920 -0.006968 0.000000 0.000000 0.000000
# 3 -0.006968 -0.006968 0.015890 0.000000 0.000000 0.000000
# 4 0.000000 0.000000 0.000000 0.030623 0.000000 0.000000
# 5 0.000000 0.000000 0.000000 0.000000 0.030623 0.000000
# 6 0.000000 0.000000 0.000000 0.000000 0.000000 0.035616
#
#
# Mechanical properties :
#
#
# Convention : Reuss Voigt Hill
#
# Bulk Modulus (GPa) = 71.44556 73.84891 72.64723
# Shear Modulus (GPa) = 23.69777 25.99047 24.84412
#
# Velocity S-wave (km/s) = 3.48987 3.65479 3.57328
# Velocity P-wave (km/s) = 7.27718 7.46751 7.37296
#
# Compressibility (1/GPa) = 0.01399667
#
# Stress axis : x y z
#
# Youngs Moduli (GPa) = 43.63003 43.63003 62.93336
#
# Poissons Ratio (x) = 0.43327 0.43852
# Poissons Ratio (y) = 0.43327 0.43852
# Poissons Ratio (z) = 0.30401 0.30401
#
# Static dielectric constant tensor:
#      x y z
#    x 1.720670 0.000000 0.000000 
#    y 0.000000 1.720670 0.000000 
#    z 0.000000 0.000000 1.697150 
# 
# From -- ./inp_files/3589.got.cif
#   From: 2010.05.17/outbox.cif.g08.bks.cpg/sg142_2_cif.got.tgz:3589.got - 2010.05.20 13:39:18.
