data_PCOD9573167
_publ_section_title
;
Structure prediction by ZEFSAII (Michael W. Deem and Ramdas Pophale) SiO2 
 PCOD9573167
Probable space group: I 41/A M D
;
_chemical_formula_sum "Si O2"
_cell_formula_units_Z 160
_cell_length_a 18.102587
_cell_length_b 18.102587
_cell_length_c 25.642242
_cell_angle_alpha 90.000000
_cell_angle_beta 90.000000
_cell_angle_gamma 90.000000
_cell_volume 8403.056454
_symmetry_space_group_name_H-M "I 41/A M D"
_symmetry_group_IT_number 141
_space_group.IT_coordinate_system_code '2'
_symmetry_cell_setting 'tetragonal'
loop_
_space_group_symop_operation_xyz
x,y,z
1/4-y,3/4+x,1/4+z
-x,1/2-y,z
1/4+y,1/4-x,3/4+z
x,-y,-z
-x,1/2+y,-z
1/4+y,3/4+x,1/4-z
1/4-y,1/4-x,3/4-z
-x,-y,-z
3/4+y,1/4-x,3/4-z
x,1/2+y,-z
3/4-y,3/4+x,1/4-z
-x,y,z
x,1/2-y,z
3/4-y,1/4-x,3/4+z
3/4+y,3/4+x,1/4+z
1/2+x,1/2+y,1/2+z
3/4-y,1/4+x,3/4+z
1/2-x,-y,1/2+z
3/4+y,3/4-x,1/4+z
1/2+x,1/2-y,1/2-z
1/2-x,y,1/2-z
3/4+y,1/4+x,3/4-z
3/4-y,3/4-x,1/4-z
1/2-x,1/2-y,1/2-z
1/4+y,3/4-x,1/4-z
1/2+x,y,1/2-z
1/4-y,1/4+x,3/4-z
1/2-x,1/2+y,1/2+z
1/2+x,-y,1/2+z
1/4-y,3/4-x,1/4+z
1/4+y,1/4+x,3/4+z
loop_
_atom_site_type_symbol
_atom_site_label
_atom_site_fract_x
_atom_site_fract_y
_atom_site_fract_z
Si Si1 0.588428 0.937498 0.835384
Si Si2 0.166544 0.544225 0.769149
Si Si3 0.000000 0.831152 0.909218
Si Si4 0.141535 0.071799 0.934247
Si Si5 0.914739 0.750000 0.216782
Si Si6 0.160035 0.403600 0.639818
O O1 0.500000 0.931005 0.841874
O O2 0.633935 0.883935 0.875000
O O3 0.612997 0.923489 0.775206
O O4 0.615820 0.021932 0.845744
O O5 0.250000 0.556576 0.750000
O O6 0.153860 0.456872 0.777378
O O7 0.161011 0.571743 0.828440
O O8 0.076043 0.869589 0.894575
O O9 0.000000 0.750000 0.885723
O O10 0.000000 0.827396 0.971441
O O11 0.153575 0.096426 0.875000
O O12 0.069062 0.114022 0.951687
O O13 0.145903 0.983107 0.926428
O O14 0.000000 0.750000 0.195404
#
# Coordination Sequence:
#
# PCOD9573167 Si02
#       6
#    32  32  16  32  16  32
#     4  12  25  44  71  98 132 173 217 277 339 407
#     4  11  21  42  70  96 123 162 223 270 330 403
#     4  11  25  41  59  93 135 173 221 276 332 387
#     4  10  22  37  62  94 128 174 223 275 320 389
#     4  11  25  39  57  89 139 191 225 271 331 391
#     4  11  22  42  67  97 131 172 222 276 332 400
#
# _framework density 19.040690999999999
#
# number of rings (size 3 to 8) (size 9 to 14) (size 15 to 20)
#    0.000    1.000    4.000    3.000    2.800    3.400 
#    0.000    3.000    0.000    0.000    0.000    0.000 
#    0.000    0.000    0.000    0.000    0.000    0.000 
#
# Total GULP energy -446347.759816 kJ/mol
# GULP energy per Si atom -5579.346998 kJ/mol
# Density = 1.899735 g / cm^3
# Si number density = 19.040691 Si / 1000 Ang^3
#
#
#
# Elastic Constant Matrix: (Units=GPa)
#
#
# Indices 1 2 3 4 5 6 
#
# 1 102.1713 56.9844 32.1662 0.0000 0.0000 0.0000
# 2 56.9844 102.1653 32.1672 0.0000 0.0000 0.0000
# 3 32.1662 32.1672 94.8649 0.0000 0.0000 0.0000
# 4 0.0000 0.0000 0.0000 -164.7866 0.0000 0.0000
# 5 0.0000 0.0000 0.0000 0.0000 -164.5473 0.0000
# 6 0.0000 0.0000 0.0000 0.0000 0.0000 15.7932
#
#
#
# Elastic Compliance Matrix: (Units=1/GPa)
#
#
# Indices 1 2 3 4 5 6 
#
# 1 0.014706 -0.007425 -0.002469 0.000000 0.000000 0.000000
# 2 -0.007425 0.014707 -0.002469 0.000000 0.000000 0.000000
# 3 -0.002469 -0.002469 0.012216 0.000000 0.000000 0.000000
# 4 0.000000 0.000000 0.000000 -0.006068 0.000000 0.000000
# 5 0.000000 0.000000 0.000000 0.000000 -0.006077 0.000000
# 6 0.000000 0.000000 0.000000 0.000000 0.000000 0.063318
#
#
# Mechanical properties :
#
#
# Convention : Reuss Voigt Hill
#
# Bulk Modulus (GPa) = 59.16295 60.20411 59.68353
# Shear Modulus (GPa) = 40.59709 -50.84920 -5.12606
#
# Velocity S-wave (km/s) = 4.62250 -5.17335 -1.64256
# Velocity P-wave (km/s) = 7.72200 1.99935 5.27408
#
# Compressibility (1/GPa) = 0.01690247
#
# Stress axis : x y z
#
# Youngs Moduli (GPa) = 67.99953 67.99461 81.86236
#
# Poissons Ratio (x) = 0.50488 0.20209
# Poissons Ratio (y) = 0.50491 0.20214
# Poissons Ratio (z) = 0.16787 0.16789
#
# Static dielectric constant tensor:
#      x y z
#    x 1.627820 0.000000 0.000000 
#    y 0.000000 1.627840 0.000000 
#    z 0.000000 0.000000 1.672500 
# 
# From -- ./inp_files/12786.got.cif
#   From: 2010.05.17/outbox.cif.g08.bks.cpg/sg141_7_cif.got.tgz:12786.got - 2010.05.20 13:30:51.
