data_PCOD9573227
_publ_section_title
;
Structure prediction by ZEFSAII (Michael W. Deem and Ramdas Pophale) SiO2 
 PCOD9573227
Probable space group: I 41/A M D
;
_chemical_formula_sum "Si O2"
_cell_formula_units_Z 52
_cell_length_a 10.851059
_cell_length_b 10.851059
_cell_length_c 18.165342
_cell_angle_alpha 90.000000
_cell_angle_beta 90.000000
_cell_angle_gamma 90.000000
_cell_volume 2138.886939
_symmetry_space_group_name_H-M "I 41/A M D"
_symmetry_group_IT_number 141
_space_group.IT_coordinate_system_code '2'
_symmetry_cell_setting 'tetragonal'
loop_
_space_group_symop_operation_xyz
x,y,z
1/4-y,3/4+x,1/4+z
-x,1/2-y,z
1/4+y,1/4-x,3/4+z
x,-y,-z
-x,1/2+y,-z
1/4+y,3/4+x,1/4-z
1/4-y,1/4-x,3/4-z
-x,-y,-z
3/4+y,1/4-x,3/4-z
x,1/2+y,-z
3/4-y,3/4+x,1/4-z
-x,y,z
x,1/2-y,z
3/4-y,1/4-x,3/4+z
3/4+y,3/4+x,1/4+z
1/2+x,1/2+y,1/2+z
3/4-y,1/4+x,3/4+z
1/2-x,-y,1/2+z
3/4+y,3/4-x,1/4+z
1/2+x,1/2-y,1/2-z
1/2-x,y,1/2-z
3/4+y,1/4+x,3/4-z
3/4-y,3/4-x,1/4-z
1/2-x,1/2-y,1/2-z
1/4+y,3/4-x,1/4-z
1/2+x,y,1/2-z
1/4-y,1/4+x,3/4-z
1/2-x,1/2+y,1/2+z
1/2+x,-y,1/2+z
1/4-y,3/4-x,1/4+z
1/4+y,1/4+x,3/4+z
loop_
_atom_site_type_symbol
_atom_site_label
_atom_site_fract_x
_atom_site_fract_y
_atom_site_fract_z
Si Si1 0.000000 0.250000 0.875000
Si Si2 0.218195 0.750000 0.336994
Si Si3 0.263441 0.615149 0.944093
O O1 0.151675 0.250000 0.878167
O O2 0.250000 0.750000 0.250000
O O3 0.146350 0.877538 0.343175
O O4 0.276466 0.750000 0.979318
O O5 0.352733 0.602733 0.875000
O O6 0.277193 0.500000 0.000000
#
# Coordination Sequence:
#
# PCOD9573227 Si02
#       3
#     4  16  32
#     4  12  20  40  68 104 144 184 228 304 334 440
#     4  10  23  36  66 102 144 184 236 286 356 414
#     4  11  26  45  73 107 147 193 243 301 362 435
#
# _framework density 24.311710999999999
#
# number of rings (size 3 to 8) (size 9 to 14) (size 15 to 20)
#    0.000    1.231    3.077    0.923   21.538    1.846 
#    0.000    0.000    0.000    0.000    0.000    0.000 
#    0.000    0.000    0.000    0.000    0.000    0.000 
#
# Total GULP energy -144769.160935 kJ/mol
# GULP energy per Si atom -5568.044651 kJ/mol
# Density = 2.425638 g / cm^3
# Si number density = 24.311711 Si / 1000 Ang^3
#
#
#
# Elastic Constant Matrix: (Units=GPa)
#
#
# Indices 1 2 3 4 5 6 
#
# 1 173.9754 15.8935 44.4139 0.0000 0.0000 0.0000
# 2 15.8935 173.9754 44.4139 0.0000 0.0000 0.0000
# 3 44.4139 44.4139 83.6009 0.0000 0.0000 0.0000
# 4 0.0000 0.0000 0.0000 30.0556 0.0000 0.0000
# 5 0.0000 0.0000 0.0000 0.0000 30.0556 0.0000
# 6 0.0000 0.0000 0.0000 0.0000 0.0000 21.4395
#
#
#
# Elastic Compliance Matrix: (Units=1/GPa)
#
#
# Indices 1 2 3 4 5 6 
#
# 1 0.006667 0.000341 -0.003723 0.000000 0.000000 0.000000
# 2 0.000341 0.006667 -0.003723 0.000000 0.000000 0.000000
# 3 -0.003723 -0.003723 0.015918 0.000000 0.000000 0.000000
# 4 0.000000 0.000000 0.000000 0.033272 0.000000 0.000000
# 5 0.000000 0.000000 0.000000 0.000000 0.033272 0.000000
# 6 0.000000 0.000000 0.000000 0.000000 0.000000 0.046643
#
#
# Mechanical properties :
#
#
# Convention : Reuss Voigt Hill
#
# Bulk Modulus (GPa) = 66.48282 71.22159 68.85220
# Shear Modulus (GPa) = 30.92841 38.09882 34.51362
#
# Velocity S-wave (km/s) = 3.57061 3.96295 3.77188
# Velocity P-wave (km/s) = 6.66366 7.09216 6.88125
#
# Compressibility (1/GPa) = 0.01504148
#
# Stress axis : x y z
#
# Youngs Moduli (GPa) = 149.98561 149.98561 62.82241
#
# Poissons Ratio (x) = -0.05122 0.23392
# Poissons Ratio (y) = -0.05122 0.23392
# Poissons Ratio (z) = 0.55847 0.55847
#
# Static dielectric constant tensor:
#      x y z
#    x 1.966330 0.000000 0.000000 
#    y 0.000000 1.966330 0.000000 
#    z 0.000000 0.000000 1.917190 
# 
# From -- ./inp_files/9256.got.cif
#   From: 2010.05.17/outbox.cif.g08.bks.cpg/sg141_5_cif.got.tgz:9256.got - 2010.05.20 13:30:51.
