data_PCOD9573912
_publ_section_title
;
Structure prediction by ZEFSAII (Michael W. Deem and Ramdas Pophale) SiO2 
 PCOD9573912
Probable space group: I 41/A C D
;
_chemical_formula_sum "Si O2"
_cell_formula_units_Z 176
_cell_length_a 16.329330
_cell_length_b 16.329330
_cell_length_c 27.184376
_cell_angle_alpha 90.000000
_cell_angle_beta 90.000000
_cell_angle_gamma 90.000000
_cell_volume 7248.632803
_symmetry_space_group_name_H-M "I 41/A C D"
_symmetry_group_IT_number 142
_space_group.IT_coordinate_system_code '2'
_symmetry_cell_setting 'tetragonal'
loop_
_space_group_symop_operation_xyz
x,y,z
1/4-y,3/4+x,1/4+z
-x,1/2-y,z
1/4+y,1/4-x,3/4+z
x,-y,1/2-z
1/2-x,y,-z
3/4+y,1/4+x,1/4-z
1/4-y,1/4-x,1/4-z
-x,-y,-z
3/4+y,1/4-x,3/4-z
x,1/2+y,-z
3/4-y,3/4+x,1/4-z
-x,y,1/2+z
1/2+x,-y,z
1/4-y,3/4-x,3/4+z
3/4+y,3/4+x,3/4+z
1/2+x,1/2+y,1/2+z
3/4-y,1/4+x,3/4+z
1/2-x,-y,1/2+z
3/4+y,3/4-x,1/4+z
1/2+x,1/2-y,-z
-x,1/2+y,1/2-z
1/4+y,3/4+x,3/4-z
3/4-y,3/4-x,3/4-z
1/2-x,1/2-y,1/2-z
1/4+y,3/4-x,1/4-z
1/2+x,y,1/2-z
1/4-y,1/4+x,3/4-z
1/2-x,1/2+y,z
x,1/2-y,1/2+z
3/4-y,1/4-x,1/4+z
1/4+y,1/4+x,1/4+z
loop_
_atom_site_type_symbol
_atom_site_label
_atom_site_fract_x
_atom_site_fract_y
_atom_site_fract_z
Si Si1 0.843588 0.093588 0.625000
Si Si2 0.952957 0.604078 0.059832
Si Si3 0.873560 0.775751 0.412894
Si Si4 0.740754 0.080380 0.275093
Si Si5 0.918646 0.000000 0.750000
Si Si6 0.462364 0.546990 0.839719
Si Si7 0.000000 0.750000 0.751213
O O1 0.842843 0.186543 0.605123
O O2 0.777182 0.076601 0.666721
O O3 0.914389 0.539927 0.020640
O O4 0.872920 0.654534 0.077736
O O5 0.996769 0.565532 0.107280
O O6 0.008638 0.670850 0.032989
O O7 0.937090 0.812911 0.375000
O O8 0.791968 0.830418 0.410734
O O9 0.921603 0.766117 0.463858
O O10 0.780825 0.000000 0.250000
O O11 0.647601 0.073460 0.256177
O O12 0.974649 0.968611 0.705494
#
# Coordination Sequence:
#
# PCOD9573912 Si02
#       7
#    16  32  32  32  16  32  16
#     4  12  19  50  74 104 152 191 250 320 388 454
#     4  12  27  48  75 111 157 201 259 318 388 476
#     4  12  24  46  74 107 145 205 257 321 386 465
#     4  10  23  42  74 112 144 195 257 312 384 450
#     4  10  22  42  80 104 146 198 244 310 388 450
#     4  12  26  49  75 110 156 206 249 321 392 458
#     4  12  27  45  76 110 154 204 262 316 396 480
#
# _framework density 24.280439000000001
#
# number of rings (size 3 to 8) (size 9 to 14) (size 15 to 20)
#    0.545    0.000    5.455    2.182    3.818    0.000 
#    8.182    1.818    2.000    0.000    0.000    0.000 
#    0.000    0.000    0.000    0.000    0.000    0.000 
#
# Total GULP energy -491394.444271 kJ/mol
# GULP energy per Si atom -5584.027776 kJ/mol
# Density = 2.422518 g / cm^3
# Si number density = 24.280439 Si / 1000 Ang^3
#
#
#
# Elastic Constant Matrix: (Units=GPa)
#
#
# Indices 1 2 3 4 5 6 
#
# 1 111.5805 30.2226 48.8788 0.0000 0.0000 0.0000
# 2 30.2226 111.5826 48.8790 0.0000 0.0000 0.0000
# 3 48.8788 48.8790 114.3793 0.0000 0.0000 0.0000
# 4 0.0000 0.0000 0.0000 28.0451 0.0000 0.0000
# 5 0.0000 0.0000 0.0000 0.0000 28.0431 0.0000
# 6 0.0000 0.0000 0.0000 0.0000 0.0000 41.0745
#
#
#
# Elastic Compliance Matrix: (Units=1/GPa)
#
#
# Indices 1 2 3 4 5 6 
#
# 1 0.011144 -0.001147 -0.004272 0.000000 0.000000 0.000000
# 2 -0.001147 0.011144 -0.004272 0.000000 0.000000 0.000000
# 3 -0.004272 -0.004272 0.012394 0.000000 0.000000 0.000000
# 4 0.000000 0.000000 0.000000 0.035657 0.000000 0.000000
# 5 0.000000 0.000000 0.000000 0.000000 0.035659 0.000000
# 6 0.000000 0.000000 0.000000 0.000000 0.000000 0.024346
#
#
# Mechanical properties :
#
#
# Convention : Reuss Voigt Hill
#
# Bulk Modulus (GPa) = 65.36049 65.94481 65.65265
# Shear Modulus (GPa) = 32.29398 33.40333 32.84866
#
# Velocity S-wave (km/s) = 3.65093 3.71311 3.68215
# Velocity P-wave (km/s) = 6.68953 6.75289 6.72128
#
# Compressibility (1/GPa) = 0.01529976
#
# Stress axis : x y z
#
# Youngs Moduli (GPa) = 89.73191 89.73379 80.68287
#
# Poissons Ratio (x) = 0.10293 0.34470
# Poissons Ratio (y) = 0.10292 0.34469
# Poissons Ratio (z) = 0.38336 0.38336
#
# Static dielectric constant tensor:
#      x y z
#    x 2.036910 0.000000 0.000000 
#    y 0.000000 2.036910 0.000000 
#    z 0.000000 0.000000 1.938200 
# 
# From -- ./inp_files/11492.got.cif
#   From: 2010.05.17/outbox.cif.g08.bks.cpg/sg142_6_cif.got.tgz:11492.got - 2010.05.20 13:39:18.
