data_PCOD9573676
_publ_section_title
;
Structure prediction by ZEFSAII (Michael W. Deem and Ramdas Pophale) SiO2 
 PCOD9573676
Probable space group: I 41/A C D
;
_chemical_formula_sum "Si O2"
_cell_formula_units_Z 112
_cell_length_a 15.079171
_cell_length_b 15.079171
_cell_length_c 20.310327
_cell_angle_alpha 90.000000
_cell_angle_beta 90.000000
_cell_angle_gamma 90.000000
_cell_volume 4618.190548
_symmetry_space_group_name_H-M "I 41/A C D"
_symmetry_group_IT_number 142
_space_group.IT_coordinate_system_code '2'
_symmetry_cell_setting 'tetragonal'
loop_
_space_group_symop_operation_xyz
x,y,z
1/4-y,3/4+x,1/4+z
-x,1/2-y,z
1/4+y,1/4-x,3/4+z
x,-y,1/2-z
1/2-x,y,-z
3/4+y,1/4+x,1/4-z
1/4-y,1/4-x,1/4-z
-x,-y,-z
3/4+y,1/4-x,3/4-z
x,1/2+y,-z
3/4-y,3/4+x,1/4-z
-x,y,1/2+z
1/2+x,-y,z
1/4-y,3/4-x,3/4+z
3/4+y,3/4+x,3/4+z
1/2+x,1/2+y,1/2+z
3/4-y,1/4+x,3/4+z
1/2-x,-y,1/2+z
3/4+y,3/4-x,1/4+z
1/2+x,1/2-y,-z
-x,1/2+y,1/2-z
1/4+y,3/4+x,3/4-z
3/4-y,3/4-x,3/4-z
1/2-x,1/2-y,1/2-z
1/4+y,3/4-x,1/4-z
1/2+x,y,1/2-z
1/4-y,1/4+x,3/4-z
1/2-x,1/2+y,z
x,1/2-y,1/2+z
3/4-y,1/4-x,1/4+z
1/4+y,1/4+x,1/4+z
loop_
_atom_site_type_symbol
_atom_site_label
_atom_site_fract_x
_atom_site_fract_y
_atom_site_fract_z
Si Si1 0.636821 0.694845 0.373290
Si Si2 0.044410 0.334188 0.700604
Si Si3 0.250000 0.240653 0.000000
Si Si4 0.326918 0.982611 0.552562
O O1 0.546914 0.640578 0.386865
O O2 0.701982 0.695702 0.436601
O O3 0.689695 0.647886 0.314443
O O4 0.059849 0.309849 0.625000
O O5 0.142366 0.371124 0.717216
O O6 0.000000 0.250000 0.735190
O O7 0.974159 0.413387 0.712909
O O8 0.250000 0.002116 0.500000
O O9 0.284215 0.965786 0.625000
#
# Coordination Sequence:
#
# PCOD9573676 Si02
#       4
#    32  32  16  32
#     4  11  27  48  76 113 156 214 272 329 414 496
#     4  10  20  38  75 107 145 201 253 314 397 475
#     4  12  22  48  76 102 166 200 262 344 392 484
#     4  11  21  46  79 114 162 206 264 340 403 487
#
# _framework density 24.251922
#
# number of rings (size 3 to 8) (size 9 to 14) (size 15 to 20)
#    0.000    1.143    7.143    0.000    6.000    0.000 
#    0.000    8.571    0.000    0.000    0.000    0.000 
#    0.000    0.000    0.000    0.000    0.000    0.000 
#
# Total GULP energy -312133.505347 kJ/mol
# GULP energy per Si atom -5573.812595 kJ/mol
# Density = 2.419672 g / cm^3
# Si number density = 24.251922 Si / 1000 Ang^3
#
#
#
# Elastic Constant Matrix: (Units=GPa)
#
#
# Indices 1 2 3 4 5 6 
#
# 1 169.7771 62.0401 43.1964 0.0000 0.0000 0.0000
# 2 62.0401 169.7765 43.1964 0.0000 0.0000 0.0000
# 3 43.1964 43.1964 110.4032 0.0000 0.0000 0.0000
# 4 0.0000 0.0000 0.0000 21.5508 0.0000 0.0000
# 5 0.0000 0.0000 0.0000 0.0000 21.5507 0.0000
# 6 0.0000 0.0000 0.0000 0.0000 0.0000 39.8992
#
#
#
# Elastic Compliance Matrix: (Units=1/GPa)
#
#
# Indices 1 2 3 4 5 6 
#
# 1 0.007166 -0.002116 -0.001976 0.000000 0.000000 0.000000
# 2 -0.002116 0.007166 -0.001976 0.000000 0.000000 0.000000
# 3 -0.001976 -0.001976 0.010604 0.000000 0.000000 0.000000
# 4 0.000000 0.000000 0.000000 0.046402 0.000000 0.000000
# 5 0.000000 0.000000 0.000000 0.000000 0.046402 0.000000
# 6 0.000000 0.000000 0.000000 0.000000 0.000000 0.025063
#
#
# Mechanical properties :
#
#
# Convention : Reuss Voigt Hill
#
# Bulk Modulus (GPa) = 78.12197 82.98030 80.55113
# Shear Modulus (GPa) = 31.40597 36.70175 34.05386
#
# Velocity S-wave (km/s) = 3.60250 3.89441 3.75129
# Velocity P-wave (km/s) = 7.04178 7.38323 7.21452
#
# Compressibility (1/GPa) = 0.01280050
#
# Stress axis : x y z
#
# Youngs Moduli (GPa) = 139.54801 139.54745 94.30496
#
# Poissons Ratio (x) = 0.29527 0.18634
# Poissons Ratio (y) = 0.29527 0.18634
# Poissons Ratio (z) = 0.27573 0.27573
#
# Static dielectric constant tensor:
#      x y z
#    x 2.033870 0.000000 0.000000 
#    y 0.000000 2.033870 0.000000 
#    z 0.000000 0.000000 1.973460 
# 
# From -- ./inp_files/9769.got.cif
#   From: 2010.05.17/outbox.cif.g08.bks.cpg/sg142_5_cif.got.tgz:9769.got - 2010.05.20 13:39:18.
