data_PCOD9573217
_publ_section_title
;
Structure prediction by ZEFSAII (Michael W. Deem and Ramdas Pophale) SiO2 
 PCOD9573217
Probable space group: I 41/A M D
;
_chemical_formula_sum "Si O2"
_cell_formula_units_Z 112
_cell_length_a 17.641867
_cell_length_b 17.641867
_cell_length_c 17.879261
_cell_angle_alpha 90.000000
_cell_angle_beta 90.000000
_cell_angle_gamma 90.000000
_cell_volume 5564.660223
_symmetry_space_group_name_H-M "I 41/A M D"
_symmetry_group_IT_number 141
_space_group.IT_coordinate_system_code '2'
_symmetry_cell_setting 'tetragonal'
loop_
_space_group_symop_operation_xyz
x,y,z
1/4-y,3/4+x,1/4+z
-x,1/2-y,z
1/4+y,1/4-x,3/4+z
x,-y,-z
-x,1/2+y,-z
1/4+y,3/4+x,1/4-z
1/4-y,1/4-x,3/4-z
-x,-y,-z
3/4+y,1/4-x,3/4-z
x,1/2+y,-z
3/4-y,3/4+x,1/4-z
-x,y,z
x,1/2-y,z
3/4-y,1/4-x,3/4+z
3/4+y,3/4+x,1/4+z
1/2+x,1/2+y,1/2+z
3/4-y,1/4+x,3/4+z
1/2-x,-y,1/2+z
3/4+y,3/4-x,1/4+z
1/2+x,1/2-y,1/2-z
1/2-x,y,1/2-z
3/4+y,1/4+x,3/4-z
3/4-y,3/4-x,1/4-z
1/2-x,1/2-y,1/2-z
1/4+y,3/4-x,1/4-z
1/2+x,y,1/2-z
1/4-y,1/4+x,3/4-z
1/2-x,1/2+y,1/2+z
1/2+x,-y,1/2+z
1/4-y,3/4-x,1/4+z
1/4+y,1/4+x,3/4+z
loop_
_atom_site_type_symbol
_atom_site_label
_atom_site_fract_x
_atom_site_fract_y
_atom_site_fract_z
Si Si1 0.409551 0.908046 0.799544
Si Si2 0.590281 0.340281 0.625000
Si Si3 0.160972 0.929243 0.264991
Si Si4 0.085721 0.659667 0.393108
O O1 0.370988 0.879013 0.875000
O O2 0.500000 0.912932 0.810221
O O3 0.394857 0.851862 0.730051
O O4 0.376540 0.988925 0.775551
O O5 0.500000 0.352865 0.617430
O O6 0.621587 0.383886 0.697381
O O7 0.250000 0.936268 0.250000
O O8 0.144617 0.883092 0.340808
O O9 0.092268 0.750000 0.381373
O O10 0.000000 0.636465 0.372927
#
# Coordination Sequence:
#
# PCOD9573217 Si02
#       4
#    32  16  32  32
#     4  11  25  43  68  98 131 174 221 274 331 392
#     4  11  24  44  70  98 132 178 229 274 326 398
#     4  12  26  41  64  98 137 176 218 274 334 392
#     4  10  22  42  67  94 128 172 222 273 328 394
#
# _framework density 20.127016000000001
#
# number of rings (size 3 to 8) (size 9 to 14) (size 15 to 20)
#    0.000    1.000    0.000    6.000    6.000    8.286 
#    0.000    2.857    0.000    0.000    0.000    0.000 
#    0.000    0.000    0.000    0.000    0.000    0.000 
#
# Total GULP energy -313483.202355 kJ/mol
# GULP energy per Si atom -5597.914328 kJ/mol
# Density = 2.008121 g / cm^3
# Si number density = 20.127016 Si / 1000 Ang^3
#
#
#
# Elastic Constant Matrix: (Units=GPa)
#
#
# Indices 1 2 3 4 5 6 
#
# 1 91.6371 61.9200 57.4108 0.0000 0.0000 0.0000
# 2 61.9200 91.6376 57.4098 0.0000 0.0000 0.0000
# 3 57.4108 57.4098 110.4708 0.0000 0.0000 0.0000
# 4 0.0000 0.0000 0.0000 49.3189 0.0000 0.0000
# 5 0.0000 0.0000 0.0000 0.0000 49.3218 0.0000
# 6 0.0000 0.0000 0.0000 0.0000 0.0000 30.0784
#
#
#
# Elastic Compliance Matrix: (Units=1/GPa)
#
#
# Indices 1 2 3 4 5 6 
#
# 1 0.022151 -0.011500 -0.005536 0.000000 0.000000 0.000000
# 2 -0.011500 0.022151 -0.005535 0.000000 0.000000 0.000000
# 3 -0.005536 -0.005535 0.014805 0.000000 0.000000 0.000000
# 4 0.000000 0.000000 0.000000 0.020276 0.000000 0.000000
# 5 0.000000 0.000000 0.000000 0.000000 0.020275 0.000000
# 6 0.000000 0.000000 0.000000 0.000000 0.000000 0.033246
#
#
# Mechanical properties :
#
#
# Convention : Reuss Voigt Hill
#
# Bulk Modulus (GPa) = 71.59933 71.91408 71.75670
# Shear Modulus (GPa) = 27.36720 33.54414 30.45567
#
# Velocity S-wave (km/s) = 3.69145 4.08686 3.89417
# Velocity P-wave (km/s) = 7.33621 7.62086 7.47989
#
# Compressibility (1/GPa) = 0.01396661
#
# Stress axis : x y z
#
# Youngs Moduli (GPa) = 45.14466 45.14568 67.54294
#
# Poissons Ratio (x) = 0.51916 0.37389
# Poissons Ratio (y) = 0.51915 0.37385
# Poissons Ratio (z) = 0.24990 0.24988
#
# Static dielectric constant tensor:
#      x y z
#    x 1.688470 0.000000 0.000000 
#    y 0.000000 1.688470 0.000000 
#    z 0.000000 0.000000 1.691320 
# 
# From -- ./inp_files/7927.got.cif
#   From: 2010.05.17/outbox.cif.g08.bks.cpg/sg141_4_cif.got.tgz:7927.got - 2010.05.20 13:30:51.
