data_PCOD9573821
_publ_section_title
;
Structure prediction by ZEFSAII (Michael W. Deem and Ramdas Pophale) SiO2 
 PCOD9573821
Probable space group: I 41/A C D
;
_chemical_formula_sum "Si O2"
_cell_formula_units_Z 160
_cell_length_a 20.168948
_cell_length_b 20.168948
_cell_length_c 17.047098
_cell_angle_alpha 90.000000
_cell_angle_beta 90.000000
_cell_angle_gamma 90.000000
_cell_volume 6934.528707
_symmetry_space_group_name_H-M "I 41/A C D"
_symmetry_group_IT_number 142
_space_group.IT_coordinate_system_code '2'
_symmetry_cell_setting 'tetragonal'
loop_
_space_group_symop_operation_xyz
x,y,z
1/4-y,3/4+x,1/4+z
-x,1/2-y,z
1/4+y,1/4-x,3/4+z
x,-y,1/2-z
1/2-x,y,-z
3/4+y,1/4+x,1/4-z
1/4-y,1/4-x,1/4-z
-x,-y,-z
3/4+y,1/4-x,3/4-z
x,1/2+y,-z
3/4-y,3/4+x,1/4-z
-x,y,1/2+z
1/2+x,-y,z
1/4-y,3/4-x,3/4+z
3/4+y,3/4+x,3/4+z
1/2+x,1/2+y,1/2+z
3/4-y,1/4+x,3/4+z
1/2-x,-y,1/2+z
3/4+y,3/4-x,1/4+z
1/2+x,1/2-y,-z
-x,1/2+y,1/2-z
1/4+y,3/4+x,3/4-z
3/4-y,3/4-x,3/4-z
1/2-x,1/2-y,1/2-z
1/4+y,3/4-x,1/4-z
1/2+x,y,1/2-z
1/4-y,1/4+x,3/4-z
1/2-x,1/2+y,z
x,1/2-y,1/2+z
3/4-y,1/4-x,1/4+z
1/4+y,1/4+x,1/4+z
loop_
_atom_site_type_symbol
_atom_site_label
_atom_site_fract_x
_atom_site_fract_y
_atom_site_fract_z
Si Si1 0.131593 0.344328 0.010435
Si Si2 0.553272 0.006053 0.337749
Si Si3 0.053483 0.846978 0.298824
Si Si4 0.130860 0.398153 0.416946
Si Si5 0.921370 0.968317 0.412083
O O1 0.101991 0.271215 0.018527
O O2 0.189598 0.348944 0.076109
O O3 0.081539 0.403305 0.034045
O O4 0.151497 0.353403 0.920995
O O5 0.575383 0.081901 0.336333
O O6 0.494832 0.001347 0.400886
O O7 0.522775 0.000000 0.250000
O O8 0.611038 0.951797 0.339697
O O9 0.052336 0.802336 0.375000
O O10 0.103112 0.837627 0.226256
O O11 0.127437 0.474612 0.443455
#
# Coordination Sequence:
#
# PCOD9573821 Si02
#       5
#    32  32  32  32  32
#     4  10  23  45  67 105 142 183 237 286 345 423
#     4   9  20  41  68  97 139 180 231 284 351 408
#     4  10  23  46  70 100 142 185 227 291 350 420
#     4  11  21  39  74 103 133 179 237 295 342 409
#     4  10  21  43  70  96 138 192 227 285 348 419
#
# _framework density 23.072944
#
# number of rings (size 3 to 8) (size 9 to 14) (size 15 to 20)
#    0.000    2.000    0.000    4.200    2.800    0.800 
#   21.600   12.000    8.800    0.600    0.000    0.000 
#    0.000    0.000    0.000    0.000    0.000    0.000 
#
# Total GULP energy -446746.245076 kJ/mol
# GULP energy per Si atom -5584.328063 kJ/mol
# Density = 2.302043 g / cm^3
# Si number density = 23.072944 Si / 1000 Ang^3
#
#
#
# Elastic Constant Matrix: (Units=GPa)
#
#
# Indices 1 2 3 4 5 6 
#
# 1 37.0955 53.9325 22.3832 0.0000 0.0000 0.0000
# 2 53.9325 37.0955 22.3832 0.0000 0.0000 0.0000
# 3 22.3832 22.3832 88.6084 0.0000 0.0000 0.0000
# 4 0.0000 0.0000 0.0000 22.4404 0.0000 0.0000
# 5 0.0000 0.0000 0.0000 0.0000 22.4404 0.0000
# 6 0.0000 0.0000 0.0000 0.0000 0.0000 8.8846
#
#
#
# Elastic Compliance Matrix: (Units=1/GPa)
#
#
# Indices 1 2 3 4 5 6 
#
# 1 -0.023424 0.035968 -0.003169 0.000000 0.000000 0.000000
# 2 0.035968 -0.023424 -0.003169 0.000000 0.000000 0.000000
# 3 -0.003169 -0.003169 0.012887 0.000000 0.000000 0.000000
# 4 0.000000 0.000000 0.000000 0.044562 0.000000 0.000000
# 5 0.000000 0.000000 0.000000 0.000000 0.044562 0.000000
# 6 0.000000 0.000000 0.000000 0.000000 0.000000 0.112555
#
#
# Mechanical properties :
#
#
# Convention : Reuss Voigt Hill
#
# Bulk Modulus (GPa) = 39.52633 40.02191 39.77412
# Shear Modulus (GPa) = 42.77579 15.02643 28.90111
#
# Velocity S-wave (km/s) = 4.31041 2.55474 3.54304
# Velocity P-wave (km/s) = 6.47619 5.10742 5.83210
#
# Compressibility (1/GPa) = 0.02529959
#
# Stress axis : x y z
#
# Youngs Moduli (GPa) = -42.69039 -42.69039 77.60055
#
# Poissons Ratio (x) = 1.53551 0.24589
# Poissons Ratio (y) = 1.53551 0.24589
# Poissons Ratio (z) = -0.13527 -0.13527
#
# Static dielectric constant tensor:
#      x y z
#    x 1.954520 0.000000 0.000000 
#    y 0.000000 1.954520 0.000000 
#    z 0.000000 0.000000 1.918440 
# 
# From -- ./inp_files/7385.got.cif
#   From: 2010.05.17/outbox.cif.g08.bks.cpg/sg142_4_cif.got.tgz:7385.got - 2010.05.20 13:39:18.
