data_PCOD9573097
_publ_section_title
;
Structure prediction by ZEFSAII (Michael W. Deem and Ramdas Pophale) SiO2 
 PCOD9573097
Probable space group: I 41/A M D
;
_chemical_formula_sum "Si O2"
_cell_formula_units_Z 160
_cell_length_a 18.698450
_cell_length_b 18.698450
_cell_length_c 24.722065
_cell_angle_alpha 90.000000
_cell_angle_beta 90.000000
_cell_angle_gamma 90.000000
_cell_volume 8643.625831
_symmetry_space_group_name_H-M "I 41/A M D"
_symmetry_group_IT_number 141
_space_group.IT_coordinate_system_code '2'
_symmetry_cell_setting 'tetragonal'
loop_
_space_group_symop_operation_xyz
x,y,z
1/4-y,3/4+x,1/4+z
-x,1/2-y,z
1/4+y,1/4-x,3/4+z
x,-y,-z
-x,1/2+y,-z
1/4+y,3/4+x,1/4-z
1/4-y,1/4-x,3/4-z
-x,-y,-z
3/4+y,1/4-x,3/4-z
x,1/2+y,-z
3/4-y,3/4+x,1/4-z
-x,y,z
x,1/2-y,z
3/4-y,1/4-x,3/4+z
3/4+y,3/4+x,1/4+z
1/2+x,1/2+y,1/2+z
3/4-y,1/4+x,3/4+z
1/2-x,-y,1/2+z
3/4+y,3/4-x,1/4+z
1/2+x,1/2-y,1/2-z
1/2-x,y,1/2-z
3/4+y,1/4+x,3/4-z
3/4-y,3/4-x,1/4-z
1/2-x,1/2-y,1/2-z
1/4+y,3/4-x,1/4-z
1/2+x,y,1/2-z
1/4-y,1/4+x,3/4-z
1/2-x,1/2+y,1/2+z
1/2+x,-y,1/2+z
1/4-y,3/4-x,1/4+z
1/4+y,1/4+x,3/4+z
loop_
_atom_site_type_symbol
_atom_site_label
_atom_site_fract_x
_atom_site_fract_y
_atom_site_fract_z
Si Si1 0.156398 0.835087 0.386717
Si Si2 0.197450 0.330979 0.205958
Si Si3 0.080095 0.056013 0.355596
Si Si4 0.674625 0.836742 0.539711
Si Si5 0.677972 0.834820 0.414632
O O1 0.143091 0.750000 0.386142
O O2 0.118399 0.875362 0.436821
O O3 0.126449 0.871988 0.331737
O O4 0.240547 0.847946 0.395761
O O5 0.180743 0.250000 0.224826
O O6 0.250000 0.365801 0.250000
O O7 0.246928 0.326740 0.152964
O O8 0.133424 0.116577 0.375000
O O9 0.000000 0.083970 0.346115
O O10 0.103504 0.007200 0.305175
O O11 0.666418 0.750000 0.546337
O O12 0.664577 0.855679 0.477117
O O13 0.666051 0.750000 0.411413
O O14 0.626282 0.876282 0.375000
#
# Coordination Sequence:
#
# PCOD9573097 Si02
#       5
#    32  32  32  32  32
#     4  10  21  37  60  89 117 149 197 251 290 340
#     4   9  19  35  53  79 115 152 189 232 286 344
#     4   9  18  32  52  77 108 149 191 231 278 340
#     4   9  20  39  59  80 114 157 193 233 295 359
#     4  10  23  42  60  85 118 150 190 244 303 359
#
# _framework density 18.510750000000002
#
# number of rings (size 3 to 8) (size 9 to 14) (size 15 to 20)
#    0.000    2.600    0.000    1.800    2.800    6.800 
#    0.000    4.000    0.000    3.600    0.000    0.000 
#    0.000    0.000    0.000    0.000    0.000    0.000 
#
# Total GULP energy -445911.796545 kJ/mol
# GULP energy per Si atom -5573.897457 kJ/mol
# Density = 1.846862 g / cm^3
# Si number density = 18.510750 Si / 1000 Ang^3
#
#
#
# Elastic Constant Matrix: (Units=GPa)
#
#
# Indices 1 2 3 4 5 6 
#
# 1 60.6159 50.7278 44.1173 0.0000 0.0000 0.0000
# 2 50.7278 60.6172 44.1178 0.0000 0.0000 0.0000
# 3 44.1173 44.1178 133.3002 0.0000 0.0000 0.0000
# 4 0.0000 0.0000 0.0000 25.1798 0.0000 0.0000
# 5 0.0000 0.0000 0.0000 0.0000 25.1814 0.0000
# 6 0.0000 0.0000 0.0000 0.0000 0.0000 31.7058
#
#
#
# Elastic Compliance Matrix: (Units=1/GPa)
#
#
# Indices 1 2 3 4 5 6 
#
# 1 0.056650 -0.044475 -0.004029 0.000000 0.000000 0.000000
# 2 -0.044475 0.056649 -0.004029 0.000000 0.000000 0.000000
# 3 -0.004029 -0.004029 0.010169 0.000000 0.000000 0.000000
# 4 0.000000 0.000000 0.000000 0.039714 0.000000 0.000000
# 5 0.000000 0.000000 0.000000 0.000000 0.039712 0.000000
# 6 0.000000 0.000000 0.000000 0.000000 0.000000 0.031540
#
#
# Mechanical properties :
#
#
# Convention : Reuss Voigt Hill
#
# Bulk Modulus (GPa) = 54.34683 59.16211 56.75447
# Shear Modulus (GPa) = 14.46614 24.11810 19.29212
#
# Velocity S-wave (km/s) = 2.79856 3.61352 3.23183
# Velocity P-wave (km/s) = 6.31395 7.03138 6.68230
#
# Compressibility (1/GPa) = 0.01840034
#
# Stress axis : x y z
#
# Youngs Moduli (GPa) = 17.65225 17.65262 98.33916
#
# Poissons Ratio (x) = 0.78511 0.39623
# Poissons Ratio (y) = 0.78509 0.39622
# Poissons Ratio (z) = 0.07112 0.07113
#
# Static dielectric constant tensor:
#      x y z
#    x 1.633140 0.000000 0.000000 
#    y 0.000000 1.633140 0.000000 
#    z 0.000000 0.000000 1.689360 
# 
# From -- ./inp_files/12676.got.cif
#   From: 2010.05.17/outbox.cif.g08.bks.cpg/sg141_7_cif.got.tgz:12676.got - 2010.05.20 13:30:51.
