data_PCOD9573236
_publ_section_title
;
Structure prediction by ZEFSAII (Michael W. Deem and Ramdas Pophale) SiO2 
 PCOD9573236
Probable space group: I 41/A M D
;
_chemical_formula_sum "Si O2"
_cell_formula_units_Z 132
_cell_length_a 18.640267
_cell_length_b 18.640267
_cell_length_c 17.388526
_cell_angle_alpha 90.000000
_cell_angle_beta 90.000000
_cell_angle_gamma 90.000000
_cell_volume 6041.809486
_symmetry_space_group_name_H-M "I 41/A M D"
_symmetry_group_IT_number 141
_space_group.IT_coordinate_system_code '2'
_symmetry_cell_setting 'tetragonal'
loop_
_space_group_symop_operation_xyz
x,y,z
1/4-y,3/4+x,1/4+z
-x,1/2-y,z
1/4+y,1/4-x,3/4+z
x,-y,-z
-x,1/2+y,-z
1/4+y,3/4+x,1/4-z
1/4-y,1/4-x,3/4-z
-x,-y,-z
3/4+y,1/4-x,3/4-z
x,1/2+y,-z
3/4-y,3/4+x,1/4-z
-x,y,z
x,1/2-y,z
3/4-y,1/4-x,3/4+z
3/4+y,3/4+x,1/4+z
1/2+x,1/2+y,1/2+z
3/4-y,1/4+x,3/4+z
1/2-x,-y,1/2+z
3/4+y,3/4-x,1/4+z
1/2+x,1/2-y,1/2-z
1/2-x,y,1/2-z
3/4+y,1/4+x,3/4-z
3/4-y,3/4-x,1/4-z
1/2-x,1/2-y,1/2-z
1/4+y,3/4-x,1/4-z
1/2+x,y,1/2-z
1/4-y,1/4+x,3/4-z
1/2-x,1/2+y,1/2+z
1/2+x,-y,1/2+z
1/4-y,3/4-x,1/4+z
1/4+y,1/4+x,3/4+z
loop_
_atom_site_type_symbol
_atom_site_label
_atom_site_fract_x
_atom_site_fract_y
_atom_site_fract_z
Si Si1 0.650392 0.250000 0.537223
Si Si2 0.000000 0.984058 0.911657
Si Si3 0.086210 0.250000 0.209623
Si Si4 0.500000 0.750000 0.375000
Si Si5 0.842385 0.614801 0.410660
Si Si6 0.884635 0.495386 0.695699
Si Si7 0.500000 0.051309 0.076931
O O1 0.691291 0.250000 0.617688
O O2 0.568037 0.250000 0.565150
O O3 0.683998 0.317813 0.490283
O O4 0.932303 0.940147 0.882598
O O5 0.000000 0.000000 0.000000
O O6 0.118655 0.322949 0.173078
O O7 0.118179 0.250000 0.295461
O O8 0.000000 0.250000 0.204924
O O9 0.829165 0.547503 0.356001
O O10 0.802165 0.608250 0.491918
O O11 0.933746 0.534724 0.632447
O O12 0.500000 0.000000 0.000000
#
# Coordination Sequence:
#
# PCOD9573236 Si02
#       7
#    16  16  16   4  32  32  16
#     4   9  23  41  64 105 146 178 233 305 381 403
#     4  10  23  43  70 103 150 192 226 307 365 414
#     4  12  24  44  76 113 129 181 250 303 356 432
#     4  12  24  40  76 116 128 172 258 308 332 448
#     4  11  23  46  76 104 149 191 246 295 367 439
#     4  10  23  46  70  98 148 199 230 296 370 431
#     4  11  21  44  69 101 151 181 218 315 381 403
#
# _framework density 21.847760000000001
#
# number of rings (size 3 to 8) (size 9 to 14) (size 15 to 20)
#    0.000    1.455    3.636    1.455    3.394    0.970 
#    4.364    0.000   16.000    0.000    0.000    0.000 
#    0.000    0.000    0.000    0.000    0.000    0.000 
#
# Total GULP energy -368778.857111 kJ/mol
# GULP energy per Si atom -5587.558441 kJ/mol
# Density = 2.179803 g / cm^3
# Si number density = 21.847760 Si / 1000 Ang^3
#
#
#
# Elastic Constant Matrix: (Units=GPa)
#
#
# Indices 1 2 3 4 5 6 
#
# 1 115.3426 32.6415 58.2884 0.0000 0.0000 0.0000
# 2 32.6415 115.3426 58.2884 0.0000 0.0000 0.0000
# 3 58.2884 58.2884 192.5285 0.0000 0.0000 0.0000
# 4 0.0000 0.0000 0.0000 -15.8332 0.0000 0.0000
# 5 0.0000 0.0000 0.0000 0.0000 -15.8332 0.0000
# 6 0.0000 0.0000 0.0000 0.0000 0.0000 15.8714
#
#
#
# Elastic Compliance Matrix: (Units=1/GPa)
#
#
# Indices 1 2 3 4 5 6 
#
# 1 0.010483 -0.001609 -0.002687 0.000000 0.000000 0.000000
# 2 -0.001609 0.010483 -0.002687 0.000000 0.000000 0.000000
# 3 -0.002687 -0.002687 0.006821 0.000000 0.000000 0.000000
# 4 0.000000 0.000000 0.000000 -0.063158 0.000000 0.000000
# 5 0.000000 0.000000 0.000000 0.000000 -0.063158 0.000000
# 6 0.000000 0.000000 0.000000 0.000000 0.000000 0.063007
#
#
# Mechanical properties :
#
#
# Convention : Reuss Voigt Hill
#
# Bulk Modulus (GPa) = 72.34739 80.18337 76.26538
# Shear Modulus (GPa) = -294.94260 15.10736 -139.91762
#
# Velocity S-wave (km/s) = -11.63151 2.63246 -8.01131
# Velocity P-wave (km/s) = 12.13273 6.78384 7.11276
#
# Compressibility (1/GPa) = 0.01382220
#
# Stress axis : x y z
#
# Youngs Moduli (GPa) = 95.39428 95.39428 146.61081
#
# Poissons Ratio (x) = 0.15348 0.39388
# Poissons Ratio (y) = 0.15348 0.39388
# Poissons Ratio (z) = 0.25629 0.25629
#
# Static dielectric constant tensor:
#      x y z
#    x 1.833070 0.000000 0.000000 
#    y 0.000000 1.833070 0.000000 
#    z 0.000000 0.000000 1.776570 
# 
# From -- ./inp_files/6336.got.cif
#   From: 2010.05.17/outbox.cif.g08.bks.cpg/sg141_4_cif.got.tgz:6336.got - 2010.05.20 13:30:51.
