data_PCOD9573243
_publ_section_title
;
Structure prediction by ZEFSAII (Michael W. Deem and Ramdas Pophale) SiO2 
 PCOD9573243
Probable space group: I 41/A M D
;
_chemical_formula_sum "Si O2"
_cell_formula_units_Z 80
_cell_length_a 21.770171
_cell_length_b 21.770171
_cell_length_c 7.710534
_cell_angle_alpha 90.000000
_cell_angle_beta 90.000000
_cell_angle_gamma 90.000000
_cell_volume 3654.333147
_symmetry_space_group_name_H-M "I 41/A M D"
_symmetry_group_IT_number 141
_space_group.IT_coordinate_system_code '2'
_symmetry_cell_setting 'tetragonal'
loop_
_space_group_symop_operation_xyz
x,y,z
1/4-y,3/4+x,1/4+z
-x,1/2-y,z
1/4+y,1/4-x,3/4+z
x,-y,-z
-x,1/2+y,-z
1/4+y,3/4+x,1/4-z
1/4-y,1/4-x,3/4-z
-x,-y,-z
3/4+y,1/4-x,3/4-z
x,1/2+y,-z
3/4-y,3/4+x,1/4-z
-x,y,z
x,1/2-y,z
3/4-y,1/4-x,3/4+z
3/4+y,3/4+x,1/4+z
1/2+x,1/2+y,1/2+z
3/4-y,1/4+x,3/4+z
1/2-x,-y,1/2+z
3/4+y,3/4-x,1/4+z
1/2+x,1/2-y,1/2-z
1/2-x,y,1/2-z
3/4+y,1/4+x,3/4-z
3/4-y,3/4-x,1/4-z
1/2-x,1/2-y,1/2-z
1/4+y,3/4-x,1/4-z
1/2+x,y,1/2-z
1/4-y,1/4+x,3/4-z
1/2-x,1/2+y,1/2+z
1/2+x,-y,1/2+z
1/4-y,3/4-x,1/4+z
1/4+y,1/4+x,3/4+z
loop_
_atom_site_type_symbol
_atom_site_label
_atom_site_fract_x
_atom_site_fract_y
_atom_site_fract_z
Si Si1 0.933252 0.819843 0.334174
Si Si2 0.700631 0.874224 0.098161
Si Si3 0.644958 0.500000 0.000000
O O1 0.932820 0.750000 0.400051
O O2 0.868225 0.849179 0.379930
O O3 0.000000 0.847790 0.385175
O O4 0.932807 0.817194 0.125000
O O5 0.750000 0.861158 0.250000
O O6 0.687951 0.946674 0.076749
O O7 0.726436 0.855083 0.911051
#
# Coordination Sequence:
#
# PCOD9573243 Si02
#       3
#    32  32  16
#     4   9  19  39  66  94 128 175 228 278 337 407
#     4  11  22  39  64  94 128 172 214 272 339 398
#     4  10  24  36  57  94 129 162 218 270 332 410
#
# _framework density 21.891819999999999
#
# number of rings (size 3 to 8) (size 9 to 14) (size 15 to 20)
#    0.000    2.000    0.000    4.800   11.200    0.800 
#    0.000   12.000    0.000   12.000    0.000    5.600 
#    0.000    0.000    0.000    0.000    0.000    0.000 
#
# Total GULP energy -223013.888679 kJ/mol
# GULP energy per Si atom -5575.347217 kJ/mol
# Density = 2.184199 g / cm^3
# Si number density = 21.891820 Si / 1000 Ang^3
#
#
#
# Elastic Constant Matrix: (Units=GPa)
#
#
# Indices 1 2 3 4 5 6 
#
# 1 128.6337 84.3224 57.5680 0.0000 0.0000 0.0000
# 2 84.3224 128.6336 57.5684 0.0000 0.0000 0.0000
# 3 57.5680 57.5684 136.9499 0.0000 0.0000 0.0000
# 4 0.0000 0.0000 0.0000 10.0016 0.0000 0.0000
# 5 0.0000 0.0000 0.0000 0.0000 10.0010 0.0000
# 6 0.0000 0.0000 0.0000 0.0000 0.0000 19.5408
#
#
#
# Elastic Compliance Matrix: (Units=1/GPa)
#
#
# Indices 1 2 3 4 5 6 
#
# 1 0.014322 -0.008245 -0.002554 0.000000 0.000000 0.000000
# 2 -0.008245 0.014322 -0.002555 0.000000 0.000000 0.000000
# 3 -0.002554 -0.002555 0.009450 0.000000 0.000000 0.000000
# 4 0.000000 0.000000 0.000000 0.099984 0.000000 0.000000
# 5 0.000000 0.000000 0.000000 0.000000 0.099990 0.000000
# 6 0.000000 0.000000 0.000000 0.000000 0.000000 0.051175
#
#
# Mechanical properties :
#
#
# Convention : Reuss Voigt Hill
#
# Bulk Modulus (GPa) = 87.83167 88.12610 87.97889
# Shear Modulus (GPa) = 15.63737 20.89258 18.26498
#
# Velocity S-wave (km/s) = 2.67554 3.09262 2.89161
# Velocity P-wave (km/s) = 7.05355 7.28663 7.17104
#
# Compressibility (1/GPa) = 0.01138541
#
# Stress axis : x y z
#
# Youngs Moduli (GPa) = 69.82146 69.82115 105.82524
#
# Poissons Ratio (x) = 0.57570 0.27032
# Poissons Ratio (y) = 0.57570 0.27033
# Poissons Ratio (z) = 0.17835 0.17836
#
# Static dielectric constant tensor:
#      x y z
#    x 1.986560 0.000000 0.000000 
#    y 0.000000 1.986440 0.000000 
#    z 0.000000 0.000000 1.866200 
# 
# From -- ./inp_files/2369.got.cif
#   From: 2010.05.17/outbox.cif.g08.bks.cpg/sg141_2_cif.got.tgz:2369.got - 2010.05.20 13:30:51.
