data_PCOD9573753
_publ_section_title
;
Structure prediction by ZEFSAII (Michael W. Deem and Ramdas Pophale) SiO2 
 PCOD9573753
Probable space group: I 41/A C D
;
_chemical_formula_sum "Si O2"
_cell_formula_units_Z 176
_cell_length_a 17.566523
_cell_length_b 17.566523
_cell_length_c 26.594804
_cell_angle_alpha 90.000000
_cell_angle_beta 90.000000
_cell_angle_gamma 90.000000
_cell_volume 8206.697230
_symmetry_space_group_name_H-M "I 41/A C D"
_symmetry_group_IT_number 142
_space_group.IT_coordinate_system_code '2'
_symmetry_cell_setting 'tetragonal'
loop_
_space_group_symop_operation_xyz
x,y,z
1/4-y,3/4+x,1/4+z
-x,1/2-y,z
1/4+y,1/4-x,3/4+z
x,-y,1/2-z
1/2-x,y,-z
3/4+y,1/4+x,1/4-z
1/4-y,1/4-x,1/4-z
-x,-y,-z
3/4+y,1/4-x,3/4-z
x,1/2+y,-z
3/4-y,3/4+x,1/4-z
-x,y,1/2+z
1/2+x,-y,z
1/4-y,3/4-x,3/4+z
3/4+y,3/4+x,3/4+z
1/2+x,1/2+y,1/2+z
3/4-y,1/4+x,3/4+z
1/2-x,-y,1/2+z
3/4+y,3/4-x,1/4+z
1/2+x,1/2-y,-z
-x,1/2+y,1/2-z
1/4+y,3/4+x,3/4-z
3/4-y,3/4-x,3/4-z
1/2-x,1/2-y,1/2-z
1/4+y,3/4-x,1/4-z
1/2+x,y,1/2-z
1/4-y,1/4+x,3/4-z
1/2-x,1/2+y,z
x,1/2-y,1/2+z
3/4-y,1/4-x,1/4+z
1/4+y,1/4+x,1/4+z
loop_
_atom_site_type_symbol
_atom_site_label
_atom_site_fract_x
_atom_site_fract_y
_atom_site_fract_z
Si Si1 0.747166 0.200939 0.799982
Si Si2 0.664509 0.456392 0.299618
Si Si3 0.423072 0.492333 0.309841
Si Si4 0.272219 0.022219 0.875000
Si Si5 0.363743 0.274616 0.889170
Si Si6 0.004904 0.375332 0.374111
O O1 0.750000 0.250000 0.750000
O O2 0.723065 0.113402 0.789840
O O3 0.683567 0.234717 0.837864
O O4 0.825583 0.210640 0.830134
O O5 0.640312 0.500000 0.250000
O O6 0.702525 0.516541 0.336661
O O7 0.595590 0.421061 0.330172
O O8 0.415053 0.500000 0.250000
O O9 0.345293 0.490088 0.340794
O O10 0.456821 0.409052 0.324413
O O11 0.474820 0.561848 0.333191
O O12 0.446621 0.303380 0.875000
O O13 0.933770 0.321891 0.391240
#
# Coordination Sequence:
#
# PCOD9573753 Si02
#       6
#    32  32  32  16  32  32
#     4  10  21  36  62 101 130 168 222 278 335 399
#     4  11  22  38  67  96 131 179 222 279 346 407
#     4  11  25  43  68  97 137 179 228 282 354 408
#     4  12  24  42  61  98 138 169 224 292 332 402
#     4   9  20  41  62  95 129 172 229 273 335 416
#     4  10  23  43  68  94 133 173 221 279 333 411
#
# _framework density 21.445899000000001
#
# number of rings (size 3 to 8) (size 9 to 14) (size 15 to 20)
#    0.000    1.636    2.727    2.182    7.636    2.909 
#    0.000    0.455    0.000    0.000    0.000    0.000 
#    0.000    0.000    0.000    0.000    0.000    0.000 
#
# Total GULP energy -491295.582508 kJ/mol
# GULP energy per Si atom -5582.904347 kJ/mol
# Density = 2.139709 g / cm^3
# Si number density = 21.445899 Si / 1000 Ang^3
#
#
#
# Elastic Constant Matrix: (Units=GPa)
#
#
# Indices 1 2 3 4 5 6 
#
# 1 92.4702 37.6303 48.4567 0.0000 0.0000 0.0000
# 2 37.6303 92.4705 48.4571 0.0000 0.0000 0.0000
# 3 48.4567 48.4571 161.4123 0.0000 0.0000 0.0000
# 4 0.0000 0.0000 0.0000 24.9952 0.0000 0.0000
# 5 0.0000 0.0000 0.0000 0.0000 24.9936 0.0000
# 6 0.0000 0.0000 0.0000 0.0000 0.0000 37.9266
#
#
#
# Elastic Compliance Matrix: (Units=1/GPa)
#
#
# Indices 1 2 3 4 5 6 
#
# 1 0.014068 -0.004167 -0.002972 0.000000 0.000000 0.000000
# 2 -0.004167 0.014068 -0.002972 0.000000 0.000000 0.000000
# 3 -0.002972 -0.002972 0.007980 0.000000 0.000000 0.000000
# 4 0.000000 0.000000 0.000000 0.040008 0.000000 0.000000
# 5 0.000000 0.000000 0.000000 0.000000 0.040010 0.000000
# 6 0.000000 0.000000 0.000000 0.000000 0.000000 0.026367
#
#
# Mechanical properties :
#
#
# Convention : Reuss Voigt Hill
#
# Bulk Modulus (GPa) = 62.92494 68.38236 65.65365
# Shear Modulus (GPa) = 29.75837 31.70368 30.73102
#
# Velocity S-wave (km/s) = 3.72909 3.84905 3.78955
# Velocity P-wave (km/s) = 6.92434 7.19088 7.05887
#
# Compressibility (1/GPa) = 0.01589195
#
# Stress axis : x y z
#
# Youngs Moduli (GPa) = 71.08534 71.08531 125.31614
#
# Poissons Ratio (x) = 0.29623 0.37245
# Poissons Ratio (y) = 0.29623 0.37246
# Poissons Ratio (z) = 0.21127 0.21128
#
# Static dielectric constant tensor:
#      x y z
#    x 1.851350 0.000000 0.000000 
#    y 0.000000 1.851360 0.000000 
#    z 0.000000 0.000000 1.704220 
# 
# From -- ./inp_files/11465.got.cif
#   From: 2010.05.17/outbox.cif.g08.bks.cpg/sg142_6_cif.got.tgz:11465.got - 2010.05.20 13:39:18.
