data_PCOD9573807
_publ_section_title
;
Structure prediction by ZEFSAII (Michael W. Deem and Ramdas Pophale) SiO2 
 PCOD9573807
Probable space group: I 41/A C D
;
_chemical_formula_sum "Si O2"
_cell_formula_units_Z 160
_cell_length_a 21.796919
_cell_length_b 21.796919
_cell_length_c 15.067774
_cell_angle_alpha 90.000000
_cell_angle_beta 90.000000
_cell_angle_gamma 90.000000
_cell_volume 7158.784981
_symmetry_space_group_name_H-M "I 41/A C D"
_symmetry_group_IT_number 142
_space_group.IT_coordinate_system_code '2'
_symmetry_cell_setting 'tetragonal'
loop_
_space_group_symop_operation_xyz
x,y,z
1/4-y,3/4+x,1/4+z
-x,1/2-y,z
1/4+y,1/4-x,3/4+z
x,-y,1/2-z
1/2-x,y,-z
3/4+y,1/4+x,1/4-z
1/4-y,1/4-x,1/4-z
-x,-y,-z
3/4+y,1/4-x,3/4-z
x,1/2+y,-z
3/4-y,3/4+x,1/4-z
-x,y,1/2+z
1/2+x,-y,z
1/4-y,3/4-x,3/4+z
3/4+y,3/4+x,3/4+z
1/2+x,1/2+y,1/2+z
3/4-y,1/4+x,3/4+z
1/2-x,-y,1/2+z
3/4+y,3/4-x,1/4+z
1/2+x,1/2-y,-z
-x,1/2+y,1/2-z
1/4+y,3/4+x,3/4-z
3/4-y,3/4-x,3/4-z
1/2-x,1/2-y,1/2-z
1/4+y,3/4-x,1/4-z
1/2+x,y,1/2-z
1/4-y,1/4+x,3/4-z
1/2-x,1/2+y,z
x,1/2-y,1/2+z
3/4-y,1/4-x,1/4+z
1/4+y,1/4+x,1/4+z
loop_
_atom_site_type_symbol
_atom_site_label
_atom_site_fract_x
_atom_site_fract_y
_atom_site_fract_z
Si Si1 0.604543 0.025617 0.651150
Si Si2 0.144320 0.384579 0.471782
Si Si3 0.476530 0.411796 0.113825
Si Si4 0.199892 0.819630 0.372189
Si Si5 0.054593 0.100237 0.586053
O O1 0.657341 0.067545 0.607474
O O2 0.545142 0.071776 0.647217
O O3 0.614740 0.000000 0.750000
O O4 0.590544 0.964767 0.593524
O O5 0.125372 0.319576 0.428180
O O6 0.192443 0.365795 0.546974
O O7 0.095304 0.420201 0.532721
O O8 0.447546 0.480079 0.110278
O O9 0.467346 0.387127 0.014329
O O10 0.163208 0.756912 0.391927
O O11 0.096790 0.153211 0.625000
#
# Coordination Sequence:
#
# PCOD9573807 Si02
#       5
#    32  32  32  32  32
#     4  11  21  39  63  95 121 161 218 266 318 389
#     4  11  21  36  66  89 124 163 207 268 324 391
#     4  11  20  38  63  91 119 166 221 258 319 396
#     4  10  21  41  62  90 124 169 220 258 326 407
#     4  11  21  39  65  92 127 165 214 274 326 389
#
# _framework density 22.350162000000001
#
# number of rings (size 3 to 8) (size 9 to 14) (size 15 to 20)
#    0.000    1.200    4.000    5.400    0.000    0.000 
#    0.000    2.000   13.200    0.000    0.000    0.000 
#    0.000    0.000    0.000    0.000    0.000    0.000 
#
# Total GULP energy -446248.106188 kJ/mol
# GULP energy per Si atom -5578.101327 kJ/mol
# Density = 2.229929 g / cm^3
# Si number density = 22.350162 Si / 1000 Ang^3
#
#
#
# Elastic Constant Matrix: (Units=GPa)
#
#
# Indices 1 2 3 4 5 6 
#
# 1 56.4513 46.3550 26.1026 0.0000 0.0000 0.0000
# 2 46.3550 56.4502 26.1033 0.0000 0.0000 0.0000
# 3 26.1026 26.1033 140.9064 0.0000 0.0000 0.0000
# 4 0.0000 0.0000 0.0000 34.7043 0.0000 0.0000
# 5 0.0000 0.0000 0.0000 0.0000 34.7046 0.0000
# 6 0.0000 0.0000 0.0000 0.0000 0.0000 42.2024
#
#
#
# Elastic Compliance Matrix: (Units=1/GPa)
#
#
# Indices 1 2 3 4 5 6 
#
# 1 0.054894 -0.044157 -0.001989 0.000000 0.000000 0.000000
# 2 -0.044157 0.054895 -0.001989 0.000000 0.000000 0.000000
# 3 -0.001989 -0.001989 0.007834 0.000000 0.000000 0.000000
# 4 0.000000 0.000000 0.000000 0.028815 0.000000 0.000000
# 5 0.000000 0.000000 0.000000 0.000000 0.028815 0.000000
# 6 0.000000 0.000000 0.000000 0.000000 0.000000 0.023695
#
#
# Mechanical properties :
#
#
# Convention : Reuss Voigt Hill
#
# Bulk Modulus (GPa) = 46.83418 50.10328 48.46873
# Shear Modulus (GPa) = 16.53794 32.67205 24.60500
#
# Velocity S-wave (km/s) = 2.72315 3.82753 3.32156
# Velocity P-wave (km/s) = 5.55766 6.48070 6.03685
#
# Compressibility (1/GPa) = 0.02135193
#
# Stress axis : x y z
#
# Youngs Moduli (GPa) = 18.21707 18.21658 127.65103
#
# Poissons Ratio (x) = 0.80439 0.25385
# Poissons Ratio (y) = 0.80441 0.25396
# Poissons Ratio (z) = 0.03623 0.03624
#
# Static dielectric constant tensor:
#      x y z
#    x 1.844090 0.000000 0.000000 
#    y 0.000000 1.844090 0.000000 
#    z 0.000000 0.000000 1.884470 
# 
# From -- ./inp_files/5386.got.cif
#   From: 2010.05.17/outbox.cif.g08.bks.cpg/sg142_3_cif.got.tgz:5386.got - 2010.05.20 13:39:18.
