data_PCOD9573005
_publ_section_title
;
Structure prediction by ZEFSAII (Michael W. Deem and Ramdas Pophale) SiO2 
 PCOD9573005
Probable space group: I 41/A M D
;
_chemical_formula_sum "Si O2"
_cell_formula_units_Z 160
_cell_length_a 17.395035
_cell_length_b 17.395035
_cell_length_c 26.235316
_cell_angle_alpha 90.000000
_cell_angle_beta 90.000000
_cell_angle_gamma 90.000000
_cell_volume 7938.471929
_symmetry_space_group_name_H-M "I 41/A M D"
_symmetry_group_IT_number 141
_space_group.IT_coordinate_system_code '2'
_symmetry_cell_setting 'tetragonal'
loop_
_space_group_symop_operation_xyz
x,y,z
1/4-y,3/4+x,1/4+z
-x,1/2-y,z
1/4+y,1/4-x,3/4+z
x,-y,-z
-x,1/2+y,-z
1/4+y,3/4+x,1/4-z
1/4-y,1/4-x,3/4-z
-x,-y,-z
3/4+y,1/4-x,3/4-z
x,1/2+y,-z
3/4-y,3/4+x,1/4-z
-x,y,z
x,1/2-y,z
3/4-y,1/4-x,3/4+z
3/4+y,3/4+x,1/4+z
1/2+x,1/2+y,1/2+z
3/4-y,1/4+x,3/4+z
1/2-x,-y,1/2+z
3/4+y,3/4-x,1/4+z
1/2+x,1/2-y,1/2-z
1/2-x,y,1/2-z
3/4+y,1/4+x,3/4-z
3/4-y,3/4-x,1/4-z
1/2-x,1/2-y,1/2-z
1/4+y,3/4-x,1/4-z
1/2+x,y,1/2-z
1/4-y,1/4+x,3/4-z
1/2-x,1/2+y,1/2+z
1/2+x,-y,1/2+z
1/4-y,3/4-x,1/4+z
1/4+y,1/4+x,3/4+z
loop_
_atom_site_type_symbol
_atom_site_label
_atom_site_fract_x
_atom_site_fract_y
_atom_site_fract_z
Si Si1 0.091610 0.572918 0.078825
Si Si2 0.336321 0.750000 0.729718
Si Si3 0.653661 0.402624 0.398477
Si Si4 0.665375 0.922175 0.031572
Si Si5 0.000000 0.333065 0.621138
Si Si6 0.090281 0.058599 0.749536
O O1 0.127252 0.622749 0.125000
O O2 0.119905 0.485384 0.086671
O O3 0.125041 0.610527 0.027136
O O4 0.000000 0.575493 0.079671
O O5 0.250000 0.750000 0.750000
O O6 0.363570 0.663652 0.741564
O O7 0.347894 0.750000 0.669012
O O8 0.689514 0.407449 0.342009
O O9 0.592359 0.331608 0.398904
O O10 0.708202 0.374200 0.443625
O O11 0.731809 0.859336 0.030295
O O12 0.683068 0.000000 0.000000
O O13 0.000000 0.250000 0.594839
O O14 0.000000 0.075804 0.748590
#
# Coordination Sequence:
#
# PCOD9573005 Si02
#       6
#    32  16  32  32  16  32
#     4  12  26  44  66  93 131 179 226 274 326 394
#     4   8  18  36  60  94 128 164 212 274 329 382
#     4  11  23  43  66  97 132 171 219 274 331 390
#     4  10  21  40  69  97 130 171 220 272 332 401
#     4  10  20  36  64  96 130 164 212 269 329 384
#     4  12  26  43  64  97 136 176 224 276 334 391
#
# _framework density 20.155013
#
# number of rings (size 3 to 8) (size 9 to 14) (size 15 to 20)
#    0.000    1.200    3.000    3.000    0.000    7.000 
#    0.000    0.000    0.000    0.000    0.000    0.000 
#    0.000    0.000    0.000    0.000    0.000    0.000 
#
# Total GULP energy -445579.976780 kJ/mol
# GULP energy per Si atom -5569.749710 kJ/mol
# Density = 2.010914 g / cm^3
# Si number density = 20.155013 Si / 1000 Ang^3
#
#
#
# Elastic Constant Matrix: (Units=GPa)
#
#
# Indices 1 2 3 4 5 6 
#
# 1 104.1037 39.8202 19.1675 0.0000 0.0000 0.0000
# 2 39.8202 104.0992 19.1669 0.0000 0.0000 0.0000
# 3 19.1675 19.1669 100.5521 0.0000 0.0000 0.0000
# 4 0.0000 0.0000 0.0000 14.5993 0.0000 0.0000
# 5 0.0000 0.0000 0.0000 0.0000 14.5994 0.0000
# 6 0.0000 0.0000 0.0000 0.0000 0.0000 3.8147
#
#
#
# Elastic Compliance Matrix: (Units=1/GPa)
#
#
# Indices 1 2 3 4 5 6 
#
# 1 0.011438 -0.004118 -0.001395 0.000000 0.000000 0.000000
# 2 -0.004118 0.011438 -0.001395 0.000000 0.000000 0.000000
# 3 -0.001395 -0.001395 0.010477 0.000000 0.000000 0.000000
# 4 0.000000 0.000000 0.000000 0.068497 0.000000 0.000000
# 5 0.000000 0.000000 0.000000 0.000000 0.068496 0.000000
# 6 0.000000 0.000000 0.000000 0.000000 0.000000 0.262146
#
#
# Mechanical properties :
#
#
# Convention : Reuss Voigt Hill
#
# Bulk Modulus (GPa) = 51.18874 51.67379 51.43127
# Shear Modulus (GPa) = 11.04186 21.97604 16.50895
#
# Velocity S-wave (km/s) = 2.34315 3.30563 2.86510
# Velocity P-wave (km/s) = 5.72478 6.34535 6.04304
#
# Compressibility (1/GPa) = 0.01953555
#
# Stress axis : x y z
#
# Youngs Moduli (GPa) = 87.42782 87.42407 95.44687
#
# Poissons Ratio (x) = 0.36005 0.13318
# Poissons Ratio (y) = 0.36006 0.13318
# Poissons Ratio (z) = 0.12199 0.12198
#
# Static dielectric constant tensor:
#      x y z
#    x 1.750140 0.000000 0.000000 
#    y 0.000000 1.750140 0.000000 
#    z 0.000000 0.000000 1.766560 
# 
# From -- ./inp_files/12780.got.cif
#   From: 2010.05.17/outbox.cif.g08.bks.cpg/sg141_7_cif.got.tgz:12780.got - 2010.05.20 13:30:51.
