data_PCOD9573881
_publ_section_title
;
Structure prediction by ZEFSAII (Michael W. Deem and Ramdas Pophale) SiO2 
 PCOD9573881
Probable space group: I 41/A C D
;
_chemical_formula_sum "Si O2"
_cell_formula_units_Z 176
_cell_length_a 16.857255
_cell_length_b 16.857255
_cell_length_c 31.224327
_cell_angle_alpha 90.000000
_cell_angle_beta 90.000000
_cell_angle_gamma 90.000000
_cell_volume 8872.924771
_symmetry_space_group_name_H-M "I 41/A C D"
_symmetry_group_IT_number 142
_space_group.IT_coordinate_system_code '2'
_symmetry_cell_setting 'tetragonal'
loop_
_space_group_symop_operation_xyz
x,y,z
1/4-y,3/4+x,1/4+z
-x,1/2-y,z
1/4+y,1/4-x,3/4+z
x,-y,1/2-z
1/2-x,y,-z
3/4+y,1/4+x,1/4-z
1/4-y,1/4-x,1/4-z
-x,-y,-z
3/4+y,1/4-x,3/4-z
x,1/2+y,-z
3/4-y,3/4+x,1/4-z
-x,y,1/2+z
1/2+x,-y,z
1/4-y,3/4-x,3/4+z
3/4+y,3/4+x,3/4+z
1/2+x,1/2+y,1/2+z
3/4-y,1/4+x,3/4+z
1/2-x,-y,1/2+z
3/4+y,3/4-x,1/4+z
1/2+x,1/2-y,-z
-x,1/2+y,1/2-z
1/4+y,3/4+x,3/4-z
3/4-y,3/4-x,3/4-z
1/2-x,1/2-y,1/2-z
1/4+y,3/4-x,1/4-z
1/2+x,y,1/2-z
1/4-y,1/4+x,3/4-z
1/2-x,1/2+y,z
x,1/2-y,1/2+z
3/4-y,1/4-x,1/4+z
1/4+y,1/4+x,1/4+z
loop_
_atom_site_type_symbol
_atom_site_label
_atom_site_fract_x
_atom_site_fract_y
_atom_site_fract_z
Si Si1 0.919470 0.474334 0.372232
Si Si2 0.572688 0.973314 0.677124
Si Si3 0.196231 0.774832 0.710698
Si Si4 0.870620 0.302024 0.491462
Si Si5 0.262066 0.512066 0.625000
Si Si6 0.935490 0.318958 0.321181
O O1 0.921283 0.484396 0.423601
O O2 0.828678 0.486172 0.356494
O O3 0.940383 0.384406 0.358081
O O4 0.993916 0.522450 0.352502
O O5 0.561612 0.899573 0.709063
O O6 0.569079 0.046952 0.709991
O O7 0.658447 0.979490 0.654377
O O8 0.250000 0.750000 0.750000
O O9 0.118815 0.816756 0.729537
O O10 0.156231 0.703171 0.684385
O O11 0.897378 0.216099 0.474682
O O12 0.000000 0.250000 0.329541
#
# Coordination Sequence:
#
# PCOD9573881 Si02
#       6
#    32  32  32  32  16  32
#     4  11  24  41  63 100 130 178 233 278 342 419
#     4  10  22  41  64  88 133 173 223 280 338 408
#     4  11  23  36  60  97 131 164 226 284 342 405
#     4   9  20  41  57  91 126 166 222 276 341 406
#     4  12  24  42  68 100 134 182 230 282 344 416
#     4   9  21  38  67  91 127 173 222 290 343 404
#
# _framework density 19.835623999999999
#
# number of rings (size 3 to 8) (size 9 to 14) (size 15 to 20)
#    0.000    1.818    1.818    1.091   10.182    1.455 
#    0.000    1.818    0.000    0.000    0.000    0.000 
#    0.000    0.000    0.000    0.000    0.000    0.000 
#
# Total GULP energy -489935.677792 kJ/mol
# GULP energy per Si atom -5567.450884 kJ/mol
# Density = 1.979048 g / cm^3
# Si number density = 19.835624 Si / 1000 Ang^3
#
#
#
# Elastic Constant Matrix: (Units=GPa)
#
#
# Indices 1 2 3 4 5 6 
#
# 1 79.4680 8.2731 35.7717 0.0000 0.0000 0.0000
# 2 8.2731 79.4680 35.7717 0.0000 0.0000 0.0000
# 3 35.7717 35.7717 90.3918 0.0000 0.0000 0.0000
# 4 0.0000 0.0000 0.0000 27.9949 0.0000 0.0000
# 5 0.0000 0.0000 0.0000 0.0000 27.9949 0.0000
# 6 0.0000 0.0000 0.0000 0.0000 0.0000 23.5472
#
#
#
# Elastic Compliance Matrix: (Units=1/GPa)
#
#
# Indices 1 2 3 4 5 6 
#
# 1 0.015436 0.001390 -0.006659 0.000000 0.000000 0.000000
# 2 0.001390 0.015436 -0.006659 0.000000 0.000000 0.000000
# 3 -0.006659 -0.006659 0.016334 0.000000 0.000000 0.000000
# 4 0.000000 0.000000 0.000000 0.035721 0.000000 0.000000
# 5 0.000000 0.000000 0.000000 0.000000 0.035721 0.000000
# 6 0.000000 0.000000 0.000000 0.000000 0.000000 0.042468
#
#
# Mechanical properties :
#
#
# Convention : Reuss Voigt Hill
#
# Bulk Modulus (GPa) = 42.82475 45.44009 44.13242
# Shear Modulus (GPa) = 25.93968 27.20816 26.57392
#
# Velocity S-wave (km/s) = 3.62018 3.70764 3.66417
# Velocity P-wave (km/s) = 6.25388 6.42548 6.34026
#
# Compressibility (1/GPa) = 0.02335098
#
# Stress axis : x y z
#
# Youngs Moduli (GPa) = 64.78171 64.78171 61.22385
#
# Poissons Ratio (x) = -0.09008 0.40770
# Poissons Ratio (y) = -0.09008 0.40770
# Poissons Ratio (z) = 0.43139 0.43139
#
# Static dielectric constant tensor:
#      x y z
#    x 1.767850 0.000000 0.000000 
#    y 0.000000 1.767850 0.000000 
#    z 0.000000 0.000000 1.737600 
# 
# From -- ./inp_files/12535.got.cif
#   From: 2010.05.17/outbox.cif.g08.bks.cpg/sg142_7_cif.got.tgz:12535.got - 2010.05.20 13:39:18.
