data_PCOD9573451
_publ_section_title
;
Structure prediction by ZEFSAII (Michael W. Deem and Ramdas Pophale) SiO2 
 PCOD9573451
Probable space group: I 41/A C D
;
_chemical_formula_sum "Si O2"
_cell_formula_units_Z 96
_cell_length_a 17.568035
_cell_length_b 17.568035
_cell_length_c 11.631738
_cell_angle_alpha 90.000000
_cell_angle_beta 90.000000
_cell_angle_gamma 90.000000
_cell_volume 3589.971388
_symmetry_space_group_name_H-M "I 41/A C D"
_symmetry_group_IT_number 142
_space_group.IT_coordinate_system_code '2'
_symmetry_cell_setting 'tetragonal'
loop_
_space_group_symop_operation_xyz
x,y,z
1/4-y,3/4+x,1/4+z
-x,1/2-y,z
1/4+y,1/4-x,3/4+z
x,-y,1/2-z
1/2-x,y,-z
3/4+y,1/4+x,1/4-z
1/4-y,1/4-x,1/4-z
-x,-y,-z
3/4+y,1/4-x,3/4-z
x,1/2+y,-z
3/4-y,3/4+x,1/4-z
-x,y,1/2+z
1/2+x,-y,z
1/4-y,3/4-x,3/4+z
3/4+y,3/4+x,3/4+z
1/2+x,1/2+y,1/2+z
3/4-y,1/4+x,3/4+z
1/2-x,-y,1/2+z
3/4+y,3/4-x,1/4+z
1/2+x,1/2-y,-z
-x,1/2+y,1/2-z
1/4+y,3/4+x,3/4-z
3/4-y,3/4-x,3/4-z
1/2-x,1/2-y,1/2-z
1/4+y,3/4-x,1/4-z
1/2+x,y,1/2-z
1/4-y,1/4+x,3/4-z
1/2-x,1/2+y,z
x,1/2-y,1/2+z
3/4-y,1/4-x,1/4+z
1/4+y,1/4+x,1/4+z
loop_
_atom_site_type_symbol
_atom_site_label
_atom_site_fract_x
_atom_site_fract_y
_atom_site_fract_z
Si Si1 0.297188 0.872144 0.718890
Si Si2 0.919574 0.341127 0.847191
Si Si3 0.689912 0.293982 0.394273
O O1 0.310959 0.939042 0.625000
O O2 0.359889 0.883841 0.819835
O O3 0.312689 0.792538 0.651669
O O4 0.222180 0.850476 0.794175
O O5 0.899278 0.253402 0.848581
O O6 0.933376 0.367343 0.718754
O O7 0.750000 0.296336 0.500000
#
# Coordination Sequence:
#
# PCOD9573451 Si02
#       3
#    32  32  32
#     4  10  18  33  54  76 115 165 209 263 337 401
#     4  10  19  31  49  81 123 161 205 265 341 419
#     4   9  19  33  50  77 117 155 210 262 325 408
#
# _framework density 26.741161000000002
#
# number of rings (size 3 to 8) (size 9 to 14) (size 15 to 20)
#    0.000    2.333    3.333    0.000    0.000    1.333 
#    0.000    0.000    0.000    0.000    0.000    0.000 
#   30.000    0.000    0.000    0.000    0.000    0.000 
#
# Total GULP energy -268425.681949 kJ/mol
# GULP energy per Si atom -5592.201707 kJ/mol
# Density = 2.668030 g / cm^3
# Si number density = 26.741161 Si / 1000 Ang^3
#
#
#
# Elastic Constant Matrix: (Units=GPa)
#
#
# Indices 1 2 3 4 5 6 
#
# 1 80.8812 13.8068 55.9539 0.0000 0.0000 0.0000
# 2 13.8068 80.8814 55.9535 0.0000 0.0000 0.0000
# 3 55.9539 55.9535 212.8984 0.0000 0.0000 0.0000
# 4 0.0000 0.0000 0.0000 52.8702 0.0000 0.0000
# 5 0.0000 0.0000 0.0000 0.0000 52.8711 0.0000
# 6 0.0000 0.0000 0.0000 0.0000 0.0000 28.4862
#
#
#
# Elastic Compliance Matrix: (Units=1/GPa)
#
#
# Indices 1 2 3 4 5 6 
#
# 1 0.015114 0.000205 -0.004026 0.000000 0.000000 0.000000
# 2 0.000205 0.015114 -0.004026 0.000000 0.000000 0.000000
# 3 -0.004026 -0.004026 0.006813 0.000000 0.000000 0.000000
# 4 0.000000 0.000000 0.000000 0.018914 0.000000 0.000000
# 5 0.000000 0.000000 0.000000 0.000000 0.018914 0.000000
# 6 0.000000 0.000000 0.000000 0.000000 0.000000 0.035105
#
#
# Mechanical properties :
#
#
# Convention : Reuss Voigt Hill
#
# Bulk Modulus (GPa) = 46.84432 69.56549 58.20490
# Shear Modulus (GPa) = 37.65497 43.44194 40.54846
#
# Velocity S-wave (km/s) = 3.75657 4.03492 3.89823
# Velocity P-wave (km/s) = 6.03088 6.91219 6.48652
#
# Compressibility (1/GPa) = 0.02134731
#
# Stress axis : x y z
#
# Youngs Moduli (GPa) = 66.16324 66.16357 146.76930
#
# Poissons Ratio (x) = -0.01358 0.59093
# Poissons Ratio (y) = -0.01358 0.59092
# Poissons Ratio (z) = 0.26639 0.26639
#
# Static dielectric constant tensor:
#      x y z
#    x 2.155830 0.000000 0.000000 
#    y 0.000000 2.155830 0.000000 
#    z 0.000000 0.000000 2.299770 
# 
# From -- ./inp_files/3170.got.cif
#   From: 2010.05.17/outbox.cif.g08.bks.cpg/sg142_2_cif.got.tgz:3170.got - 2010.05.20 13:39:18.
