data_PCOD9573950
_publ_section_title
;
Structure prediction by ZEFSAII (Michael W. Deem and Ramdas Pophale) SiO2 
 PCOD9573950
Probable space group: I 41/A C D
;
_chemical_formula_sum "Si O2"
_cell_formula_units_Z 64
_cell_length_a 9.923506
_cell_length_b 9.923506
_cell_length_c 23.465332
_cell_angle_alpha 90.000000
_cell_angle_beta 90.000000
_cell_angle_gamma 90.000000
_cell_volume 2310.771361
_symmetry_space_group_name_H-M "I 41/A C D"
_symmetry_group_IT_number 142
_space_group.IT_coordinate_system_code '2'
_symmetry_cell_setting 'tetragonal'
loop_
_space_group_symop_operation_xyz
x,y,z
1/4-y,3/4+x,1/4+z
-x,1/2-y,z
1/4+y,1/4-x,3/4+z
x,-y,1/2-z
1/2-x,y,-z
3/4+y,1/4+x,1/4-z
1/4-y,1/4-x,1/4-z
-x,-y,-z
3/4+y,1/4-x,3/4-z
x,1/2+y,-z
3/4-y,3/4+x,1/4-z
-x,y,1/2+z
1/2+x,-y,z
1/4-y,3/4-x,3/4+z
3/4+y,3/4+x,3/4+z
1/2+x,1/2+y,1/2+z
3/4-y,1/4+x,3/4+z
1/2-x,-y,1/2+z
3/4+y,3/4-x,1/4+z
1/2+x,1/2-y,-z
-x,1/2+y,1/2-z
1/4+y,3/4+x,3/4-z
3/4-y,3/4-x,3/4-z
1/2-x,1/2-y,1/2-z
1/4+y,3/4-x,1/4-z
1/2+x,y,1/2-z
1/4-y,1/4+x,3/4-z
1/2-x,1/2+y,z
x,1/2-y,1/2+z
3/4-y,1/4-x,1/4+z
1/4+y,1/4+x,1/4+z
loop_
_atom_site_type_symbol
_atom_site_label
_atom_site_fract_x
_atom_site_fract_y
_atom_site_fract_z
Si Si1 0.888396 0.337839 0.022950
Si Si2 0.163017 0.319738 0.338226
O O1 0.850127 0.459482 0.064831
O O2 0.000000 0.250000 0.055037
O O3 0.750000 0.274968 0.000000
O O4 0.977007 0.382521 0.967728
O O5 0.166523 0.204419 0.387287
#
# Coordination Sequence:
#
# PCOD9573950 Si02
#       2
#    32  32
#     4  11  25  48  82 114 163 214 275 350 415 494
#     4  10  22  51  75 109 159 209 272 332 413 495
#
# _framework density 27.696377999999999
#
# number of rings (size 3 to 8) (size 9 to 14) (size 15 to 20)
#    0.000    1.500    5.000    0.000    0.000   10.000 
#    9.000    2.500    0.000    0.000    0.000    0.000 
#    0.000    0.000    0.000    0.000    0.000    0.000 
#
# Total GULP energy -178525.731811 kJ/mol
# GULP energy per Si atom -5578.929119 kJ/mol
# Density = 2.763334 g / cm^3
# Si number density = 27.696378 Si / 1000 Ang^3
#
#
#
# Elastic Constant Matrix: (Units=GPa)
#
#
# Indices 1 2 3 4 5 6 
#
# 1 76.7698 50.2388 8.8514 0.0000 0.0000 0.0000
# 2 50.2388 76.7698 8.8514 0.0000 0.0000 0.0000
# 3 8.8514 8.8514 168.4674 0.0000 0.0000 0.0000
# 4 0.0000 0.0000 0.0000 43.5945 0.0000 0.0000
# 5 0.0000 0.0000 0.0000 0.0000 43.5945 0.0000
# 6 0.0000 0.0000 0.0000 0.0000 0.0000 38.3253
#
#
#
# Elastic Compliance Matrix: (Units=1/GPa)
#
#
# Indices 1 2 3 4 5 6 
#
# 1 0.022812 -0.014880 -0.000417 0.000000 0.000000 0.000000
# 2 -0.014880 0.022812 -0.000417 0.000000 0.000000 0.000000
# 3 -0.000417 -0.000417 0.005980 0.000000 0.000000 0.000000
# 4 0.000000 0.000000 0.000000 0.022939 0.000000 0.000000
# 5 0.000000 0.000000 0.000000 0.000000 0.022939 0.000000
# 6 0.000000 0.000000 0.000000 0.000000 0.000000 0.026092
#
#
# Mechanical properties :
#
#
# Convention : Reuss Voigt Hill
#
# Bulk Modulus (GPa) = 49.56413 50.87666 50.22039
# Shear Modulus (GPa) = 30.91663 42.04053 36.47858
#
# Velocity S-wave (km/s) = 3.34469 3.90026 3.63311
# Velocity P-wave (km/s) = 5.73152 6.22029 5.98090
#
# Compressibility (1/GPa) = 0.02017588
#
# Stress axis : x y z
#
# Youngs Moduli (GPa) = 43.83721 43.83721 167.23369
#
# Poissons Ratio (x) = 0.65230 0.06969
# Poissons Ratio (y) = 0.65230 0.06969
# Poissons Ratio (z) = 0.01827 0.01827
#
# Static dielectric constant tensor:
#      x y z
#    x 2.349690 0.000000 0.000000 
#    y 0.000000 2.349690 0.000000 
#    z 0.000000 0.000000 2.186420 
# 
# From -- ./inp_files/8099.got.cif
#   From: 2010.05.17/outbox.cif.g08.bks.cpg/sg142_5_cif.got.tgz:8099.got - 2010.05.20 13:39:18.
