data_PCOD9573607
_publ_section_title
;
Structure prediction by ZEFSAII (Michael W. Deem and Ramdas Pophale) SiO2 
 PCOD9573607
Probable space group: I 41/A C D
;
_chemical_formula_sum "Si O2"
_cell_formula_units_Z 160
_cell_length_a 16.572835
_cell_length_b 16.572835
_cell_length_c 26.229189
_cell_angle_alpha 90.000000
_cell_angle_beta 90.000000
_cell_angle_gamma 90.000000
_cell_volume 7204.079148
_symmetry_space_group_name_H-M "I 41/A C D"
_symmetry_group_IT_number 142
_space_group.IT_coordinate_system_code '2'
_symmetry_cell_setting 'tetragonal'
loop_
_space_group_symop_operation_xyz
x,y,z
1/4-y,3/4+x,1/4+z
-x,1/2-y,z
1/4+y,1/4-x,3/4+z
x,-y,1/2-z
1/2-x,y,-z
3/4+y,1/4+x,1/4-z
1/4-y,1/4-x,1/4-z
-x,-y,-z
3/4+y,1/4-x,3/4-z
x,1/2+y,-z
3/4-y,3/4+x,1/4-z
-x,y,1/2+z
1/2+x,-y,z
1/4-y,3/4-x,3/4+z
3/4+y,3/4+x,3/4+z
1/2+x,1/2+y,1/2+z
3/4-y,1/4+x,3/4+z
1/2-x,-y,1/2+z
3/4+y,3/4-x,1/4+z
1/2+x,1/2-y,-z
-x,1/2+y,1/2-z
1/4+y,3/4+x,3/4-z
3/4-y,3/4-x,3/4-z
1/2-x,1/2-y,1/2-z
1/4+y,3/4-x,1/4-z
1/2+x,y,1/2-z
1/4-y,1/4+x,3/4-z
1/2-x,1/2+y,z
x,1/2-y,1/2+z
3/4-y,1/4-x,1/4+z
1/4+y,1/4+x,1/4+z
loop_
_atom_site_type_symbol
_atom_site_label
_atom_site_fract_x
_atom_site_fract_y
_atom_site_fract_z
Si Si1 0.648087 0.217190 0.401630
Si Si2 0.776806 0.902549 0.056494
Si Si3 0.889871 0.732758 0.514310
Si Si4 0.037454 0.114492 0.475180
Si Si5 0.239388 0.174810 0.676526
O O1 0.568555 0.181446 0.375000
O O2 0.704023 0.137186 0.411981
O O3 0.636614 0.253848 0.457566
O O4 0.684808 0.287473 0.367096
O O5 0.838357 0.967413 0.080664
O O6 0.750000 0.933409 0.000000
O O7 0.828212 0.822980 0.043482
O O8 0.903450 0.815897 0.544433
O O9 0.965447 0.672466 0.504986
O O10 0.994059 0.057549 0.434938
O O11 0.074126 0.060251 0.520065
#
# Coordination Sequence:
#
# PCOD9573607 Si02
#       5
#    32  32  32  32  32
#     4  11  21  37  58  85 121 154 191 246 296 335
#     4   9  21  39  57  77 120 161 191 236 301 353
#     4   9  18  37  58  82 109 152 195 244 283 339
#     4   9  18  34  60  83 108 147 196 234 285 344
#     4  10  20  36  58  87 115 152 195 234 292 354
#
# _framework density 22.209638999999999
#
# number of rings (size 3 to 8) (size 9 to 14) (size 15 to 20)
#    0.000    2.400    2.000    0.000    2.800    2.400 
#    3.600    3.000    0.000    0.000    0.000    0.000 
#    0.000    0.000    0.000    0.000    0.000    0.000 
#
# Total GULP energy -446097.019710 kJ/mol
# GULP energy per Si atom -5576.212746 kJ/mol
# Density = 2.215909 g / cm^3
# Si number density = 22.209639 Si / 1000 Ang^3
#
#
#
# Elastic Constant Matrix: (Units=GPa)
#
#
# Indices 1 2 3 4 5 6 
#
# 1 54.8544 34.9421 8.4753 0.0000 0.0000 0.0000
# 2 34.9421 54.8521 8.4755 0.0000 0.0000 0.0000
# 3 8.4753 8.4755 17.8292 0.0000 0.0000 0.0000
# 4 0.0000 0.0000 0.0000 11.3930 0.0000 0.0000
# 5 0.0000 0.0000 0.0000 0.0000 11.3941 0.0000
# 6 0.0000 0.0000 0.0000 0.0000 0.0000 36.2466
#
#
#
# Elastic Compliance Matrix: (Units=1/GPa)
#
#
# Indices 1 2 3 4 5 6 
#
# 1 0.031228 -0.018994 -0.005815 0.000000 0.000000 0.000000
# 2 -0.018994 0.031229 -0.005816 0.000000 0.000000 0.000000
# 3 -0.005815 -0.005816 0.061617 0.000000 0.000000 0.000000
# 4 0.000000 0.000000 0.000000 0.087773 0.000000 0.000000
# 5 0.000000 0.000000 0.000000 0.000000 0.087765 0.000000
# 6 0.000000 0.000000 0.000000 0.000000 0.000000 0.027589
#
#
# Mechanical properties :
#
#
# Convention : Reuss Voigt Hill
#
# Bulk Modulus (GPa) = 15.91787 25.70239 20.81013
# Shear Modulus (GPa) = 12.21317 16.84957 14.53137
#
# Velocity S-wave (km/s) = 2.34755 2.75737 2.56067
# Velocity P-wave (km/s) = 3.81191 4.66210 4.25827
#
# Compressibility (1/GPa) = 0.06282249
#
# Stress axis : x y z
#
# Youngs Moduli (GPa) = 32.02265 32.02104 16.22928
#
# Poissons Ratio (x) = 0.60822 0.09437
# Poissons Ratio (y) = 0.60825 0.09440
# Poissons Ratio (z) = 0.18621 0.18625
#
# Static dielectric constant tensor:
#      x y z
#    x 1.905530 0.000000 0.000000 
#    y 0.000000 1.905530 0.000000 
#    z 0.000000 0.000000 1.822280 
# 
# From -- ./inp_files/12407.got.cif
#   From: 2010.05.17/outbox.cif.g08.bks.cpg/sg142_7_cif.got.tgz:12407.got - 2010.05.20 13:39:18.
