data_PCOD9573738
_publ_section_title
;
Structure prediction by ZEFSAII (Michael W. Deem and Ramdas Pophale) SiO2 
 PCOD9573738
Probable space group: I 41/A C D
;
_chemical_formula_sum "Si O2"
_cell_formula_units_Z 160
_cell_length_a 28.601178
_cell_length_b 28.601178
_cell_length_c 8.714093
_cell_angle_alpha 90.000000
_cell_angle_beta 90.000000
_cell_angle_gamma 90.000000
_cell_volume 7128.366692
_symmetry_space_group_name_H-M "I 41/A C D"
_symmetry_group_IT_number 142
_space_group.IT_coordinate_system_code '2'
_symmetry_cell_setting 'tetragonal'
loop_
_space_group_symop_operation_xyz
x,y,z
1/4-y,3/4+x,1/4+z
-x,1/2-y,z
1/4+y,1/4-x,3/4+z
x,-y,1/2-z
1/2-x,y,-z
3/4+y,1/4+x,1/4-z
1/4-y,1/4-x,1/4-z
-x,-y,-z
3/4+y,1/4-x,3/4-z
x,1/2+y,-z
3/4-y,3/4+x,1/4-z
-x,y,1/2+z
1/2+x,-y,z
1/4-y,3/4-x,3/4+z
3/4+y,3/4+x,3/4+z
1/2+x,1/2+y,1/2+z
3/4-y,1/4+x,3/4+z
1/2-x,-y,1/2+z
3/4+y,3/4-x,1/4+z
1/2+x,1/2-y,-z
-x,1/2+y,1/2-z
1/4+y,3/4+x,3/4-z
3/4-y,3/4-x,3/4-z
1/2-x,1/2-y,1/2-z
1/4+y,3/4-x,1/4-z
1/2+x,y,1/2-z
1/4-y,1/4+x,3/4-z
1/2-x,1/2+y,z
x,1/2-y,1/2+z
3/4-y,1/4-x,1/4+z
1/4+y,1/4+x,1/4+z
loop_
_atom_site_type_symbol
_atom_site_label
_atom_site_fract_x
_atom_site_fract_y
_atom_site_fract_z
Si Si1 0.692242 0.115768 0.244236
Si Si2 0.191694 0.000000 0.750000
Si Si3 0.102974 0.647027 0.375000
Si Si4 0.928425 0.178425 0.625000
Si Si5 0.899908 0.500000 0.250000
Si Si6 0.542593 0.619446 0.396690
Si Si7 0.156657 0.810039 0.613712
O O1 0.661225 0.088776 0.375000
O O2 0.739190 0.123238 0.343453
O O3 0.664397 0.163611 0.196764
O O4 0.710621 0.088622 0.093323
O O5 0.223875 0.026126 0.625000
O O6 0.058155 0.640753 0.265521
O O7 0.094904 0.604667 0.495055
O O8 0.914565 0.217698 0.744332
O O9 0.885003 0.181539 0.506908
O O10 0.928937 0.454249 0.281539
O O11 0.494402 0.592304 0.403116
#
# Coordination Sequence:
#
# PCOD9573738 Si02
#       7
#    32  16  16  16  16  32  32
#     4  12  25  46  71  99 143 190 238 284 365 418
#     4  12  28  46  72 102 144 192 256 302 340 420
#     4  10  24  40  72  97 137 188 232 274 352 434
#     4  10  20  46  66  97 139 192 218 274 358 428
#     4  12  26  44  68 104 140 184 228 294 348 422
#     4  11  22  42  72 104 135 187 228 287 349 434
#     4  11  24  44  73 102 141 182 236 290 358 417
#
# _framework density 22.445533999999999
#
# number of rings (size 3 to 8) (size 9 to 14) (size 15 to 20)
#    0.000    0.800    3.000    4.200    4.200    1.600 
#    0.000    0.000    0.000   42.000    0.000    0.000 
#    0.000    0.000    0.000    0.000    0.000    0.000 
#
# Total GULP energy -445535.057498 kJ/mol
# GULP energy per Si atom -5569.188219 kJ/mol
# Density = 2.239445 g / cm^3
# Si number density = 22.445534 Si / 1000 Ang^3
#
#
#
# Elastic Constant Matrix: (Units=GPa)
#
#
# Indices 1 2 3 4 5 6 
#
# 1 70.4956 47.5953 30.2484 0.0000 0.0000 0.0000
# 2 47.5953 70.4981 30.2500 0.0000 0.0000 0.0000
# 3 30.2484 30.2500 129.3828 0.0000 0.0000 0.0000
# 4 0.0000 0.0000 0.0000 32.9854 0.0000 0.0000
# 5 0.0000 0.0000 0.0000 0.0000 32.9851 0.0000
# 6 0.0000 0.0000 0.0000 0.0000 0.0000 12.9879
#
#
#
# Elastic Compliance Matrix: (Units=1/GPa)
#
#
# Indices 1 2 3 4 5 6 
#
# 1 0.026643 -0.017023 -0.002249 0.000000 0.000000 0.000000
# 2 -0.017023 0.026642 -0.002249 0.000000 0.000000 0.000000
# 3 -0.002249 -0.002249 0.008781 0.000000 0.000000 0.000000
# 4 0.000000 0.000000 0.000000 0.030316 0.000000 0.000000
# 5 0.000000 0.000000 0.000000 0.000000 0.030317 0.000000
# 6 0.000000 0.000000 0.000000 0.000000 0.000000 0.076995
#
#
# Mechanical properties :
#
#
# Convention : Reuss Voigt Hill
#
# Bulk Modulus (GPa) = 52.56397 54.06267 53.31332
# Shear Modulus (GPa) = 20.07407 26.61051 23.34229
#
# Velocity S-wave (km/s) = 2.99381 3.44693 3.22833
# Velocity P-wave (km/s) = 5.95145 6.32299 6.14003
#
# Compressibility (1/GPa) = 0.01902444
#
# Stress axis : x y z
#
# Youngs Moduli (GPa) = 37.53317 37.53421 113.88616
#
# Poissons Ratio (x) = 0.63893 0.25613
# Poissons Ratio (y) = 0.63891 0.25617
# Poissons Ratio (z) = 0.08441 0.08443
#
# Static dielectric constant tensor:
#      x y z
#    x 1.891660 0.000000 0.000000 
#    y 0.000000 1.891650 0.000000 
#    z 0.000000 0.000000 2.086890 
# 
# From -- ./inp_files/2280.got.cif
#   From: 2010.05.17/outbox.cif.g08.bks.cpg/sg142_2_cif.got.tgz:2280.got - 2010.05.20 13:39:18.
