data_PCOD9573818
_publ_section_title
;
Structure prediction by ZEFSAII (Michael W. Deem and Ramdas Pophale) SiO2 
 PCOD9573818
Probable space group: I 41/A C D
;
_chemical_formula_sum "Si O2"
_cell_formula_units_Z 112
_cell_length_a 13.782182
_cell_length_b 13.782182
_cell_length_c 23.821046
_cell_angle_alpha 90.000000
_cell_angle_beta 90.000000
_cell_angle_gamma 90.000000
_cell_volume 4524.772925
_symmetry_space_group_name_H-M "I 41/A C D"
_symmetry_group_IT_number 142
_space_group.IT_coordinate_system_code '2'
_symmetry_cell_setting 'tetragonal'
loop_
_space_group_symop_operation_xyz
x,y,z
1/4-y,3/4+x,1/4+z
-x,1/2-y,z
1/4+y,1/4-x,3/4+z
x,-y,1/2-z
1/2-x,y,-z
3/4+y,1/4+x,1/4-z
1/4-y,1/4-x,1/4-z
-x,-y,-z
3/4+y,1/4-x,3/4-z
x,1/2+y,-z
3/4-y,3/4+x,1/4-z
-x,y,1/2+z
1/2+x,-y,z
1/4-y,3/4-x,3/4+z
3/4+y,3/4+x,3/4+z
1/2+x,1/2+y,1/2+z
3/4-y,1/4+x,3/4+z
1/2-x,-y,1/2+z
3/4+y,3/4-x,1/4+z
1/2+x,1/2-y,-z
-x,1/2+y,1/2-z
1/4+y,3/4+x,3/4-z
3/4-y,3/4-x,3/4-z
1/2-x,1/2-y,1/2-z
1/4+y,3/4-x,1/4-z
1/2+x,y,1/2-z
1/4-y,1/4+x,3/4-z
1/2-x,1/2+y,z
x,1/2-y,1/2+z
3/4-y,1/4-x,1/4+z
1/4+y,1/4+x,1/4+z
loop_
_atom_site_type_symbol
_atom_site_label
_atom_site_fract_x
_atom_site_fract_y
_atom_site_fract_z
Si Si1 0.086868 0.957160 0.305747
Si Si2 0.670821 0.079180 0.875000
Si Si3 0.412696 0.173111 0.275642
Si Si4 0.214104 0.631359 0.168736
O O1 0.169812 0.877496 0.319652
O O2 0.982404 0.918501 0.288559
O O3 0.132843 0.000000 0.250000
O O4 0.076066 0.035096 0.355658
O O5 0.585041 0.091229 0.920537
O O6 0.771492 0.073223 0.909034
O O7 0.500000 0.250000 0.274311
O O8 0.348864 0.174730 0.219177
#
# Coordination Sequence:
#
# PCOD9573818 Si02
#       4
#    32  16  32  32
#     4  10  22  45  74 101 144 195 260 305 385 470
#     4  10  21  42  78  96 145 208 252 308 394 460
#     4  12  26  44  71 114 153 194 256 330 391 465
#     4  10  23  46  73 105 144 208 253 310 397 464
#
# _framework density 24.752624000000001
#
# number of rings (size 3 to 8) (size 9 to 14) (size 15 to 20)
#    0.000    1.714    0.000    6.429    8.000    1.143 
#   15.429    0.000    0.000    0.000    0.000    0.000 
#    0.000    0.000    0.000    0.000    0.000    0.000 
#
# Total GULP energy -312361.068559 kJ/mol
# GULP energy per Si atom -5577.876224 kJ/mol
# Density = 2.469629 g / cm^3
# Si number density = 24.752624 Si / 1000 Ang^3
#
#
#
# Elastic Constant Matrix: (Units=GPa)
#
#
# Indices 1 2 3 4 5 6 
#
# 1 83.2533 16.4998 22.8584 0.0000 0.0000 0.0000
# 2 16.4998 83.2545 22.8586 0.0000 0.0000 0.0000
# 3 22.8584 22.8586 161.7004 0.0000 0.0000 0.0000
# 4 0.0000 0.0000 0.0000 15.8866 0.0000 0.0000
# 5 0.0000 0.0000 0.0000 0.0000 15.8865 0.0000
# 6 0.0000 0.0000 0.0000 0.0000 0.0000 46.3787
#
#
#
# Elastic Compliance Matrix: (Units=1/GPa)
#
#
# Indices 1 2 3 4 5 6 
#
# 1 0.012850 -0.002131 -0.001515 0.000000 0.000000 0.000000
# 2 -0.002131 0.012850 -0.001515 0.000000 0.000000 0.000000
# 3 -0.001515 -0.001515 0.006613 0.000000 0.000000 0.000000
# 4 0.000000 0.000000 0.000000 0.062946 0.000000 0.000000
# 5 0.000000 0.000000 0.000000 0.000000 0.062946 0.000000
# 6 0.000000 0.000000 0.000000 0.000000 0.000000 0.021562
#
#
# Mechanical properties :
#
#
# Convention : Reuss Voigt Hill
#
# Bulk Modulus (GPa) = 45.47558 50.29351 47.88455
# Shear Modulus (GPa) = 25.32691 33.36314 29.34503
#
# Velocity S-wave (km/s) = 3.20222 3.67531 3.44689
# Velocity P-wave (km/s) = 5.66429 6.19460 5.93537
#
# Compressibility (1/GPa) = 0.02198982
#
# Stress axis : x y z
#
# Youngs Moduli (GPa) = 77.82193 77.82305 151.22433
#
# Poissons Ratio (x) = 0.16581 0.22915
# Poissons Ratio (y) = 0.16581 0.22915
# Poissons Ratio (z) = 0.11792 0.11792
#
# Static dielectric constant tensor:
#      x y z
#    x 2.068900 0.000000 0.000000 
#    y 0.000000 2.068910 0.000000 
#    z 0.000000 0.000000 2.125540 
# 
# From -- ./inp_files/11123.got.cif
#   From: 2010.05.17/outbox.cif.g08.bks.cpg/sg142_6_cif.got.tgz:11123.got - 2010.05.20 13:39:18.
