data_PCOD9573178
_publ_section_title
;
Structure prediction by ZEFSAII (Michael W. Deem and Ramdas Pophale) SiO2 
 PCOD9573178
Probable space group: I 41/A M D
;
_chemical_formula_sum "Si O2"
_cell_formula_units_Z 80
_cell_length_a 26.840128
_cell_length_b 26.840128
_cell_length_c 4.844760
_cell_angle_alpha 90.000000
_cell_angle_beta 90.000000
_cell_angle_gamma 90.000000
_cell_volume 3490.128628
_symmetry_space_group_name_H-M "I 41/A M D"
_symmetry_group_IT_number 141
_space_group.IT_coordinate_system_code '2'
_symmetry_cell_setting 'tetragonal'
loop_
_space_group_symop_operation_xyz
x,y,z
1/4-y,3/4+x,1/4+z
-x,1/2-y,z
1/4+y,1/4-x,3/4+z
x,-y,-z
-x,1/2+y,-z
1/4+y,3/4+x,1/4-z
1/4-y,1/4-x,3/4-z
-x,-y,-z
3/4+y,1/4-x,3/4-z
x,1/2+y,-z
3/4-y,3/4+x,1/4-z
-x,y,z
x,1/2-y,z
3/4-y,1/4-x,3/4+z
3/4+y,3/4+x,1/4+z
1/2+x,1/2+y,1/2+z
3/4-y,1/4+x,3/4+z
1/2-x,-y,1/2+z
3/4+y,3/4-x,1/4+z
1/2+x,1/2-y,1/2-z
1/2-x,y,1/2-z
3/4+y,1/4+x,3/4-z
3/4-y,3/4-x,1/4-z
1/2-x,1/2-y,1/2-z
1/4+y,3/4-x,1/4-z
1/2+x,y,1/2-z
1/4-y,1/4+x,3/4-z
1/2-x,1/2+y,1/2+z
1/2+x,-y,1/2+z
1/4-y,3/4-x,1/4+z
1/4+y,1/4+x,3/4+z
loop_
_atom_site_type_symbol
_atom_site_label
_atom_site_fract_x
_atom_site_fract_y
_atom_site_fract_z
Si Si1 0.414202 0.951330 0.298049
Si Si2 0.195641 0.945641 0.125000
Si Si3 0.361116 0.306160 0.058874
O O1 0.356062 0.945400 0.210140
O O2 0.431450 0.908142 0.504070
O O3 0.419578 0.000000 0.500000
O O4 0.440963 0.937504 0.012630
O O5 0.250000 0.943766 0.250000
O O6 0.380594 0.250000 0.075272
O O7 0.402744 0.347257 0.125000
#
# Coordination Sequence:
#
# PCOD9573178 Si02
#       3
#    32  16  32
#     4  11  24  44  68  99 136 175 214 266 325 399
#     4  10  22  38  64 100 139 176 208 254 319 400
#     4  12  25  45  68  95 131 171 226 279 334 386
#
# _framework density 22.921790999999999
#
# number of rings (size 3 to 8) (size 9 to 14) (size 15 to 20)
#    0.000    0.800    4.000    2.400    0.000   11.600 
#    0.000    0.000    0.000    4.800    0.000    0.000 
#    0.000    0.000    0.000    0.000    0.000    0.000 
#
# Total GULP energy -222939.269219 kJ/mol
# GULP energy per Si atom -5573.481730 kJ/mol
# Density = 2.286962 g / cm^3
# Si number density = 22.921791 Si / 1000 Ang^3
#
#
#
# Elastic Constant Matrix: (Units=GPa)
#
#
# Indices 1 2 3 4 5 6 
#
# 1 114.5613 12.3272 10.8465 0.0000 0.0000 0.0000
# 2 12.3272 114.5545 10.8457 0.0000 0.0000 0.0000
# 3 10.8465 10.8457 108.4429 0.0000 0.0000 0.0000
# 4 0.0000 0.0000 0.0000 4.7250 0.0000 0.0000
# 5 0.0000 0.0000 0.0000 0.0000 4.7214 0.0000
# 6 0.0000 0.0000 0.0000 0.0000 0.0000 13.0161
#
#
#
# Elastic Compliance Matrix: (Units=1/GPa)
#
#
# Indices 1 2 3 4 5 6 
#
# 1 0.008900 -0.000882 -0.000802 0.000000 0.000000 0.000000
# 2 -0.000882 0.008900 -0.000802 0.000000 0.000000 0.000000
# 3 -0.000802 -0.000802 0.009382 0.000000 0.000000 0.000000
# 4 0.000000 0.000000 0.000000 0.211641 0.000000 0.000000
# 5 0.000000 0.000000 0.000000 0.000000 0.211801 0.000000
# 6 0.000000 0.000000 0.000000 0.000000 0.000000 0.076828
#
#
# Mechanical properties :
#
#
# Convention : Reuss Voigt Hill
#
# Bulk Modulus (GPa) = 45.02371 45.06640 45.04506
# Shear Modulus (GPa) = 9.26223 24.72846 16.99534
#
# Velocity S-wave (km/s) = 2.01235 3.28810 2.72591
# Velocity P-wave (km/s) = 5.00843 5.84116 5.44075
#
# Compressibility (1/GPa) = 0.02221052
#
# Stress axis : x y z
#
# Youngs Moduli (GPa) = 112.36259 112.35598 106.58863
#
# Poissons Ratio (x) = 0.09907 0.08548
# Poissons Ratio (y) = 0.09908 0.08548
# Poissons Ratio (z) = 0.09011 0.09010
#
# Static dielectric constant tensor:
#      x y z
#    x 2.411530 0.000000 0.000000 
#    y 0.000000 2.411570 0.000000 
#    z 0.000000 0.000000 1.819020 
# 
# From -- ./inp_files/1003.got.cif
#   From: 2010.05.17/outbox.cif.g08.bks.cpg/sg141_1_cif.got.tgz:1003.got - 2010.05.20 13:30:51.
