data_PCOD9573224
_publ_section_title
;
Structure prediction by ZEFSAII (Michael W. Deem and Ramdas Pophale) SiO2 
 PCOD9573224
Probable space group: I 41/A M D
;
_chemical_formula_sum "Si O2"
_cell_formula_units_Z 96
_cell_length_a 28.708774
_cell_length_b 28.708774
_cell_length_c 5.441933
_cell_angle_alpha 90.000000
_cell_angle_beta 90.000000
_cell_angle_gamma 90.000000
_cell_volume 4485.206919
_symmetry_space_group_name_H-M "I 41/A M D"
_symmetry_group_IT_number 141
_space_group.IT_coordinate_system_code '2'
_symmetry_cell_setting 'tetragonal'
loop_
_space_group_symop_operation_xyz
x,y,z
1/4-y,3/4+x,1/4+z
-x,1/2-y,z
1/4+y,1/4-x,3/4+z
x,-y,-z
-x,1/2+y,-z
1/4+y,3/4+x,1/4-z
1/4-y,1/4-x,3/4-z
-x,-y,-z
3/4+y,1/4-x,3/4-z
x,1/2+y,-z
3/4-y,3/4+x,1/4-z
-x,y,z
x,1/2-y,z
3/4-y,1/4-x,3/4+z
3/4+y,3/4+x,1/4+z
1/2+x,1/2+y,1/2+z
3/4-y,1/4+x,3/4+z
1/2-x,-y,1/2+z
3/4+y,3/4-x,1/4+z
1/2+x,1/2-y,1/2-z
1/2-x,y,1/2-z
3/4+y,1/4+x,3/4-z
3/4-y,3/4-x,1/4-z
1/2-x,1/2-y,1/2-z
1/4+y,3/4-x,1/4-z
1/2+x,y,1/2-z
1/4-y,1/4+x,3/4-z
1/2-x,1/2+y,1/2+z
1/2+x,-y,1/2+z
1/4-y,3/4-x,1/4+z
1/4+y,1/4+x,3/4+z
loop_
_atom_site_type_symbol
_atom_site_label
_atom_site_fract_x
_atom_site_fract_y
_atom_site_fract_z
Si Si1 0.500000 0.387855 0.128804
Si Si2 0.899824 0.578525 0.753365
Si Si3 0.500000 0.828234 0.376667
Si Si4 0.155654 0.500000 0.500000
Si Si5 0.327862 0.077862 0.625000
O O1 0.547187 0.416407 0.177060
O O2 0.500000 0.352348 0.358329
O O3 0.500000 0.362145 0.862558
O O4 0.870970 0.620970 0.625000
O O5 0.877832 0.530871 0.663332
O O6 0.881529 0.576505 0.033314
O O7 0.454723 0.795278 0.375000
O O8 0.181285 0.461009 0.665881
#
# Coordination Sequence:
#
# PCOD9573224 Si02
#       5
#    16  32  16  16  16
#     4  12  26  40  71 107 140 192 239 286 358 425
#     4  10  23  42  70  97 143 187 234 291 358 423
#     4  11  24  42  64  98 143 188 243 302 350 411
#     4  10  22  43  74  98 140 178 238 289 368 428
#     4  10  22  44  72 100 137 194 222 308 356 442
#
# _framework density 21.403693000000001
#
# number of rings (size 3 to 8) (size 9 to 14) (size 15 to 20)
#    0.000    1.500    0.000    4.000   11.667    2.000 
#    0.000    3.333  132.000    0.000    0.000    0.000 
#    0.000    0.000    0.000    0.000    0.000    0.000 
#
# Total GULP energy -267614.990043 kJ/mol
# GULP energy per Si atom -5575.312293 kJ/mol
# Density = 2.135498 g / cm^3
# Si number density = 21.403693 Si / 1000 Ang^3
#
#
#
# Elastic Constant Matrix: (Units=GPa)
#
#
# Indices 1 2 3 4 5 6 
#
# 1 96.6937 20.5153 9.3621 0.0000 0.0000 0.0000
# 2 20.5153 96.6925 9.3622 0.0000 0.0000 0.0000
# 3 9.3621 9.3622 78.4810 0.0000 0.0000 0.0000
# 4 0.0000 0.0000 0.0000 19.7776 0.0000 0.0000
# 5 0.0000 0.0000 0.0000 0.0000 19.7755 0.0000
# 6 0.0000 0.0000 0.0000 0.0000 0.0000 3.1081
#
#
#
# Elastic Compliance Matrix: (Units=1/GPa)
#
#
# Indices 1 2 3 4 5 6 
#
# 1 0.010912 -0.002215 -0.001038 0.000000 0.000000 0.000000
# 2 -0.002215 0.010912 -0.001038 0.000000 0.000000 0.000000
# 3 -0.001038 -0.001038 0.012989 0.000000 0.000000 0.000000
# 4 0.000000 0.000000 0.000000 0.050562 0.000000 0.000000
# 5 0.000000 0.000000 0.000000 0.000000 0.050568 0.000000
# 6 0.000000 0.000000 0.000000 0.000000 0.000000 0.321740
#
#
# Mechanical properties :
#
#
# Convention : Reuss Voigt Hill
#
# Bulk Modulus (GPa) = 38.11788 38.92737 38.52263
# Shear Modulus (GPa) = 10.52613 24.04075 17.28344
#
# Velocity S-wave (km/s) = 2.22004 3.35506 2.84473
# Velocity P-wave (km/s) = 4.94157 5.76501 5.36910
#
# Compressibility (1/GPa) = 0.02623441
#
# Stress axis : x y z
#
# Youngs Moduli (GPa) = 91.63966 91.63845 76.98540
#
# Poissons Ratio (x) = 0.20296 0.07987
# Poissons Ratio (y) = 0.20296 0.07988
# Poissons Ratio (z) = 0.09508 0.09508
#
# Static dielectric constant tensor:
#      x y z
#    x 1.777760 0.000000 0.000000 
#    y 0.000000 1.777760 0.000000 
#    z 0.000000 0.000000 1.930700 
# 
# From -- ./inp_files/1238.got.cif
#   From: 2010.05.17/outbox.cif.g08.bks.cpg/sg141_1_cif.got.tgz:1238.got - 2010.05.20 13:30:51.
