data_PCOD9573647
_publ_section_title
;
Structure prediction by ZEFSAII (Michael W. Deem and Ramdas Pophale) SiO2 
 PCOD9573647
Probable space group: I 41/A C D
;
_chemical_formula_sum "Si O2"
_cell_formula_units_Z 120
_cell_length_a 18.691075
_cell_length_b 18.691075
_cell_length_c 15.701125
_cell_angle_alpha 90.000000
_cell_angle_beta 90.000000
_cell_angle_gamma 90.000000
_cell_volume 5485.286695
_symmetry_space_group_name_H-M "I 41/A C D"
_symmetry_group_IT_number 142
_space_group.IT_coordinate_system_code '2'
_symmetry_cell_setting 'tetragonal'
loop_
_space_group_symop_operation_xyz
x,y,z
1/4-y,3/4+x,1/4+z
-x,1/2-y,z
1/4+y,1/4-x,3/4+z
x,-y,1/2-z
1/2-x,y,-z
3/4+y,1/4+x,1/4-z
1/4-y,1/4-x,1/4-z
-x,-y,-z
3/4+y,1/4-x,3/4-z
x,1/2+y,-z
3/4-y,3/4+x,1/4-z
-x,y,1/2+z
1/2+x,-y,z
1/4-y,3/4-x,3/4+z
3/4+y,3/4+x,3/4+z
1/2+x,1/2+y,1/2+z
3/4-y,1/4+x,3/4+z
1/2-x,-y,1/2+z
3/4+y,3/4-x,1/4+z
1/2+x,1/2-y,-z
-x,1/2+y,1/2-z
1/4+y,3/4+x,3/4-z
3/4-y,3/4-x,3/4-z
1/2-x,1/2-y,1/2-z
1/4+y,3/4-x,1/4-z
1/2+x,y,1/2-z
1/4-y,1/4+x,3/4-z
1/2-x,1/2+y,z
x,1/2-y,1/2+z
3/4-y,1/4-x,1/4+z
1/4+y,1/4+x,1/4+z
loop_
_atom_site_type_symbol
_atom_site_label
_atom_site_fract_x
_atom_site_fract_y
_atom_site_fract_z
Si Si1 0.680390 0.147651 0.099308
Si Si2 0.635273 0.210314 0.536127
Si Si3 0.636413 0.386413 0.875000
Si Si4 0.000000 0.250000 0.375000
Si Si5 0.332544 0.989407 0.001879
O O1 0.611441 0.127019 0.158326
O O2 0.690416 0.230134 0.071233
O O3 0.744511 0.120068 0.159072
O O4 0.669467 0.093690 0.021295
O O5 0.638303 0.179755 0.441134
O O6 0.564897 0.255226 0.559813
O O7 0.710098 0.383006 0.820827
O O8 0.250000 0.014684 0.000000
#
# Coordination Sequence:
#
# PCOD9573647 Si02
#       5
#    32  32  16   8  32
#     4  10  21  39  66  93 133 170 221 268 330 384
#     4   9  20  37  64  94 124 174 212 277 313 394
#     4  10  20  37  66  94 122 172 226 249 336 396
#     4   8  16  38  60  84 140 166 200 252 348 370
#     4  11  20  39  66  92 132 180 207 267 335 398
#
# _framework density 21.876705000000001
#
# number of rings (size 3 to 8) (size 9 to 14) (size 15 to 20)
#    0.000    2.133    2.667    0.000    0.000    1.600 
#    4.800    0.000   23.467    3.200    0.000    0.000 
#    0.000    0.000    0.000    0.000    0.000    0.000 
#
# Total GULP energy -334183.867332 kJ/mol
# GULP energy per Si atom -5569.731122 kJ/mol
# Density = 2.182691 g / cm^3
# Si number density = 21.876705 Si / 1000 Ang^3
#
#
#
# Elastic Constant Matrix: (Units=GPa)
#
#
# Indices 1 2 3 4 5 6 
#
# 1 70.5023 -6.5262 51.9866 0.0000 0.0000 0.0000
# 2 -6.5262 70.5023 51.9866 0.0000 0.0000 0.0000
# 3 51.9866 51.9866 129.6090 0.0000 0.0000 0.0000
# 4 0.0000 0.0000 0.0000 35.8347 0.0000 0.0000
# 5 0.0000 0.0000 0.0000 0.0000 35.8347 0.0000
# 6 0.0000 0.0000 0.0000 0.0000 0.0000 10.6857
#
#
#
# Elastic Compliance Matrix: (Units=1/GPa)
#
#
# Indices 1 2 3 4 5 6 
#
# 1 0.028941 0.015959 -0.018009 0.000000 0.000000 0.000000
# 2 0.015959 0.028941 -0.018009 0.000000 0.000000 0.000000
# 3 -0.018009 -0.018009 0.022163 0.000000 0.000000 0.000000
# 4 0.000000 0.000000 0.000000 0.027906 0.000000 0.000000
# 5 0.000000 0.000000 0.000000 0.000000 0.027906 0.000000
# 6 0.000000 0.000000 0.000000 0.000000 0.000000 0.093583
#
#
# Mechanical properties :
#
#
# Convention : Reuss Voigt Hill
#
# Bulk Modulus (GPa) = 25.04743 51.72306 38.38525
# Shear Modulus (GPa) = 17.67613 28.01546 22.84580
#
# Velocity S-wave (km/s) = 2.84560 3.58244 3.23507
# Velocity P-wave (km/s) = 4.71919 6.38797 5.61591
#
# Compressibility (1/GPa) = 0.03992425
#
# Stress axis : x y z
#
# Youngs Moduli (GPa) = 34.55331 34.55331 45.12085
#
# Poissons Ratio (x) = -0.55142 0.81259
# Poissons Ratio (y) = -0.55142 0.81259
# Poissons Ratio (z) = 0.62228 0.62228
#
# Static dielectric constant tensor:
#      x y z
#    x 1.902310 0.000000 0.000000 
#    y 0.000000 1.902310 0.000000 
#    z 0.000000 0.000000 1.805910 
# 
# From -- ./inp_files/5033.got.cif
#   From: 2010.05.17/outbox.cif.g08.bks.cpg/sg142_3_cif.got.tgz:5033.got - 2010.05.20 13:39:18.
