data_PCOD9573522
_publ_section_title
;
Structure prediction by ZEFSAII (Michael W. Deem and Ramdas Pophale) SiO2 
 PCOD9573522
Probable space group: I 41/A C D
;
_chemical_formula_sum "Si O2"
_cell_formula_units_Z 96
_cell_length_a 16.764126
_cell_length_b 16.764126
_cell_length_c 16.475520
_cell_angle_alpha 90.000000
_cell_angle_beta 90.000000
_cell_angle_gamma 90.000000
_cell_volume 4630.212930
_symmetry_space_group_name_H-M "I 41/A C D"
_symmetry_group_IT_number 142
_space_group.IT_coordinate_system_code '2'
_symmetry_cell_setting 'tetragonal'
loop_
_space_group_symop_operation_xyz
x,y,z
1/4-y,3/4+x,1/4+z
-x,1/2-y,z
1/4+y,1/4-x,3/4+z
x,-y,1/2-z
1/2-x,y,-z
3/4+y,1/4+x,1/4-z
1/4-y,1/4-x,1/4-z
-x,-y,-z
3/4+y,1/4-x,3/4-z
x,1/2+y,-z
3/4-y,3/4+x,1/4-z
-x,y,1/2+z
1/2+x,-y,z
1/4-y,3/4-x,3/4+z
3/4+y,3/4+x,3/4+z
1/2+x,1/2+y,1/2+z
3/4-y,1/4+x,3/4+z
1/2-x,-y,1/2+z
3/4+y,3/4-x,1/4+z
1/2+x,1/2-y,-z
-x,1/2+y,1/2-z
1/4+y,3/4+x,3/4-z
3/4-y,3/4-x,3/4-z
1/2-x,1/2-y,1/2-z
1/4+y,3/4-x,1/4-z
1/2+x,y,1/2-z
1/4-y,1/4+x,3/4-z
1/2-x,1/2+y,z
x,1/2-y,1/2+z
3/4-y,1/4-x,1/4+z
1/4+y,1/4+x,1/4+z
loop_
_atom_site_type_symbol
_atom_site_label
_atom_site_fract_x
_atom_site_fract_y
_atom_site_fract_z
Si Si1 0.742898 0.863944 0.096577
Si Si2 0.443100 0.851254 0.909708
Si Si3 0.122071 0.256634 0.158137
O O1 0.684653 0.934653 0.125000
O O2 0.829915 0.867683 0.136203
O O3 0.704400 0.780317 0.127235
O O4 0.750000 0.864440 0.000000
O O5 0.513883 0.846260 0.842762
O O6 0.484955 0.868451 0.995242
O O7 0.057827 0.192174 0.125000
O O8 0.091701 0.341701 0.125000
#
# Coordination Sequence:
#
# PCOD9573522 Si02
#       3
#    32  32  32
#     4  11  23  41  60  85 123 162 199 250 303 354
#     4  11  21  38  64  91 117 155 201 248 301 359
#     4  10  19  35  59  89 119 155 198 244 295 356
#
# _framework density 20.733387
#
# number of rings (size 3 to 8) (size 9 to 14) (size 15 to 20)
#    0.000    1.333    0.000   11.000    0.000    0.000 
#    0.000    8.333    0.000    0.000    0.000    0.000 
#    0.000    0.000    0.000    0.000    0.000    0.000 
#
# Total GULP energy -268073.514548 kJ/mol
# GULP energy per Si atom -5584.864886 kJ/mol
# Density = 2.068620 g / cm^3
# Si number density = 20.733387 Si / 1000 Ang^3
#
#
#
# Elastic Constant Matrix: (Units=GPa)
#
#
# Indices 1 2 3 4 5 6 
#
# 1 70.0284 28.2733 17.0404 0.0000 0.0000 0.0000
# 2 28.2733 70.0277 17.0410 0.0000 0.0000 0.0000
# 3 17.0404 17.0410 152.2139 0.0000 0.0000 0.0000
# 4 0.0000 0.0000 0.0000 3.9541 0.0000 0.0000
# 5 0.0000 0.0000 0.0000 0.0000 3.9478 0.0000
# 6 0.0000 0.0000 0.0000 0.0000 0.0000 34.2855
#
#
#
# Elastic Compliance Matrix: (Units=1/GPa)
#
#
# Indices 1 2 3 4 5 6 
#
# 1 0.017266 -0.006683 -0.001185 0.000000 0.000000 0.000000
# 2 -0.006683 0.017267 -0.001185 0.000000 0.000000 0.000000
# 3 -0.001185 -0.001185 0.006835 0.000000 0.000000 0.000000
# 4 0.000000 0.000000 0.000000 0.252902 0.000000 0.000000
# 5 0.000000 0.000000 0.000000 0.000000 0.253307 0.000000
# 6 0.000000 0.000000 0.000000 0.000000 0.000000 0.029167
#
#
# Mechanical properties :
#
#
# Convention : Reuss Voigt Hill
#
# Bulk Modulus (GPa) = 42.98715 46.33103 44.65909
# Shear Modulus (GPa) = 8.29734 23.76516 16.03125
#
# Velocity S-wave (km/s) = 2.00265 3.38927 2.78368
# Velocity P-wave (km/s) = 5.11134 6.14091 5.64963
#
# Compressibility (1/GPa) = 0.02326277
#
# Stress axis : x y z
#
# Youngs Moduli (GPa) = 57.91605 57.91532 146.30583
#
# Poissons Ratio (x) = 0.38704 0.17334
# Poissons Ratio (y) = 0.38705 0.17336
# Poissons Ratio (z) = 0.06862 0.06862
#
# Static dielectric constant tensor:
#      x y z
#    x 1.780020 0.000000 0.000000 
#    y 0.000000 1.780020 0.000000 
#    z 0.000000 0.000000 1.730160 
# 
# From -- ./inp_files/6537.got.cif
#   From: 2010.05.17/outbox.cif.g08.bks.cpg/sg142_4_cif.got.tgz:6537.got - 2010.05.20 13:39:18.
