data_PCOD9573228
_publ_section_title
;
Structure prediction by ZEFSAII (Michael W. Deem and Ramdas Pophale) SiO2 
 PCOD9573228
Probable space group: I 41/A M D
;
_chemical_formula_sum "Si O2"
_cell_formula_units_Z 176
_cell_length_a 17.250887
_cell_length_b 17.250887
_cell_length_c 30.589869
_cell_angle_alpha 90.000000
_cell_angle_beta 90.000000
_cell_angle_gamma 90.000000
_cell_volume 9103.334014
_symmetry_space_group_name_H-M "I 41/A M D"
_symmetry_group_IT_number 141
_space_group.IT_coordinate_system_code '2'
_symmetry_cell_setting 'tetragonal'
loop_
_space_group_symop_operation_xyz
x,y,z
1/4-y,3/4+x,1/4+z
-x,1/2-y,z
1/4+y,1/4-x,3/4+z
x,-y,-z
-x,1/2+y,-z
1/4+y,3/4+x,1/4-z
1/4-y,1/4-x,3/4-z
-x,-y,-z
3/4+y,1/4-x,3/4-z
x,1/2+y,-z
3/4-y,3/4+x,1/4-z
-x,y,z
x,1/2-y,z
3/4-y,1/4-x,3/4+z
3/4+y,3/4+x,1/4+z
1/2+x,1/2+y,1/2+z
3/4-y,1/4+x,3/4+z
1/2-x,-y,1/2+z
3/4+y,3/4-x,1/4+z
1/2+x,1/2-y,1/2-z
1/2-x,y,1/2-z
3/4+y,1/4+x,3/4-z
3/4-y,3/4-x,1/4-z
1/2-x,1/2-y,1/2-z
1/4+y,3/4-x,1/4-z
1/2+x,y,1/2-z
1/4-y,1/4+x,3/4-z
1/2-x,1/2+y,1/2+z
1/2+x,-y,1/2+z
1/4-y,3/4-x,1/4+z
1/4+y,1/4+x,3/4+z
loop_
_atom_site_type_symbol
_atom_site_label
_atom_site_fract_x
_atom_site_fract_y
_atom_site_fract_z
Si Si1 0.632579 0.473061 0.847204
Si Si2 0.669004 0.091973 0.014209
Si Si3 0.093306 0.438854 0.791060
Si Si4 0.000000 0.611756 0.501901
Si Si5 0.591103 0.834219 0.214544
Si Si6 0.236935 0.250000 0.168713
Si Si7 0.694977 0.944977 0.375000
O O1 0.647953 0.543305 0.812630
O O2 0.597115 0.401203 0.821047
O O3 0.574973 0.492875 0.887207
O O4 0.715253 0.440990 0.861745
O O5 0.588492 0.139178 0.009123
O O6 0.732097 0.127491 0.981493
O O7 0.657648 0.000000 0.000000
O O8 0.122735 0.370335 0.759200
O O9 0.135348 0.430189 0.836604
O O10 0.000000 0.438896 0.793932
O O11 0.000000 0.588158 0.450324
O O12 0.000000 0.549775 0.542448
O O13 0.500000 0.825405 0.222070
O O14 0.623901 0.750000 0.202868
#
# Coordination Sequence:
#
# PCOD9573228 Si02
#       7
#    32  32  32  16  32  16  16
#     4  11  22  35  63  93 116 158 208 259 304 368
#     4  11  19  40  64  90 118 162 210 260 312 374
#     4  10  23  39  59  87 124 166 201 254 314 370
#     4  11  22  38  61  91 128 162 209 254 319 385
#     4   9  19  39  62  86 117 155 200 247 299 355
#     4  11  20  36  59  94 123 156 202 262 310 376
#     4  12  22  36  58  89 124 155 208 244 304 376
#
# _framework density 19.333576000000001
#
# number of rings (size 3 to 8) (size 9 to 14) (size 15 to 20)
#    0.000    1.455    4.545    2.182    1.273    1.455 
#    0.000    1.364    0.000    0.000    2.364    0.000 
#    5.455    0.000    0.000    0.000    0.000    0.000 
#
# Total GULP energy -489976.847778 kJ/mol
# GULP energy per Si atom -5567.918725 kJ/mol
# Density = 1.928957 g / cm^3
# Si number density = 19.333576 Si / 1000 Ang^3
#
#
#
# Elastic Constant Matrix: (Units=GPa)
#
#
# Indices 1 2 3 4 5 6 
#
# 1 91.7896 6.7571 34.1048 0.0000 0.0000 0.0000
# 2 6.7571 91.7896 34.1048 0.0000 0.0000 0.0000
# 3 34.1048 34.1048 131.0532 0.0000 0.0000 0.0000
# 4 0.0000 0.0000 0.0000 27.5622 0.0000 0.0000
# 5 0.0000 0.0000 0.0000 0.0000 27.5622 0.0000
# 6 0.0000 0.0000 0.0000 0.0000 0.0000 24.6654
#
#
#
# Elastic Compliance Matrix: (Units=1/GPa)
#
#
# Indices 1 2 3 4 5 6 
#
# 1 0.012069 0.000308 -0.003221 0.000000 0.000000 0.000000
# 2 0.000308 0.012069 -0.003221 0.000000 0.000000 0.000000
# 3 -0.003221 -0.003221 0.009307 0.000000 0.000000 0.000000
# 4 0.000000 0.000000 0.000000 0.036282 0.000000 0.000000
# 5 0.000000 0.000000 0.000000 0.000000 0.036282 0.000000
# 6 0.000000 0.000000 0.000000 0.000000 0.000000 0.040543
#
#
# Mechanical properties :
#
#
# Convention : Reuss Voigt Hill
#
# Bulk Modulus (GPa) = 47.22119 51.61845 49.41982
# Shear Modulus (GPa) = 30.14306 31.93568 31.03937
#
# Velocity S-wave (km/s) = 3.95283 4.06867 4.01117
# Velocity P-wave (km/s) = 6.73132 6.98777 6.86074
#
# Compressibility (1/GPa) = 0.02117693
#
# Stress axis : x y z
#
# Youngs Moduli (GPa) = 82.86021 82.86021 107.44744
#
# Poissons Ratio (x) = -0.02555 0.34608
# Poissons Ratio (y) = -0.02555 0.34608
# Poissons Ratio (z) = 0.26688 0.26688
#
# Static dielectric constant tensor:
#      x y z
#    x 1.695760 0.000000 0.000000 
#    y 0.000000 1.695760 0.000000 
#    z 0.000000 0.000000 1.759200 
# 
# From -- ./inp_files/14406.got.cif
#   From: 2010.05.17/outbox.cif.g08.bks.cpg/sg141_8_cif.got.tgz:14406.got - 2010.05.20 13:30:51.
