data_PCOD9573157
_publ_section_title
;
Structure prediction by ZEFSAII (Michael W. Deem and Ramdas Pophale) SiO2 
 PCOD9573157
Probable space group: I 41/A M D
;
_chemical_formula_sum "Si O2"
_cell_formula_units_Z 80
_cell_length_a 28.921099
_cell_length_b 28.921099
_cell_length_c 4.826655
_cell_angle_alpha 90.000000
_cell_angle_beta 90.000000
_cell_angle_gamma 90.000000
_cell_volume 4037.158884
_symmetry_space_group_name_H-M "I 41/A M D"
_symmetry_group_IT_number 141
_space_group.IT_coordinate_system_code '2'
_symmetry_cell_setting 'tetragonal'
loop_
_space_group_symop_operation_xyz
x,y,z
1/4-y,3/4+x,1/4+z
-x,1/2-y,z
1/4+y,1/4-x,3/4+z
x,-y,-z
-x,1/2+y,-z
1/4+y,3/4+x,1/4-z
1/4-y,1/4-x,3/4-z
-x,-y,-z
3/4+y,1/4-x,3/4-z
x,1/2+y,-z
3/4-y,3/4+x,1/4-z
-x,y,z
x,1/2-y,z
3/4-y,1/4-x,3/4+z
3/4+y,3/4+x,1/4+z
1/2+x,1/2+y,1/2+z
3/4-y,1/4+x,3/4+z
1/2-x,-y,1/2+z
3/4+y,3/4-x,1/4+z
1/2+x,1/2-y,1/2-z
1/2-x,y,1/2-z
3/4+y,1/4+x,3/4-z
3/4-y,3/4-x,1/4-z
1/2-x,1/2-y,1/2-z
1/4+y,3/4-x,1/4-z
1/2+x,y,1/2-z
1/4-y,1/4+x,3/4-z
1/2-x,1/2+y,1/2+z
1/2+x,-y,1/2+z
1/4-y,3/4-x,1/4+z
1/4+y,1/4+x,3/4+z
loop_
_atom_site_type_symbol
_atom_site_label
_atom_site_fract_x
_atom_site_fract_y
_atom_site_fract_z
Si Si1 0.800982 0.949019 0.125000
Si Si2 0.896334 0.081081 0.762102
Si Si3 0.054287 0.456348 0.297779
O O1 0.750000 0.945402 0.250000
O O2 0.846415 0.941853 0.318477
O O3 0.880538 0.130538 0.875000
O O4 0.930334 0.083931 0.505906
O O5 0.918074 0.051706 0.015028
O O6 0.065165 0.500000 0.500000
O O7 0.000000 0.458003 0.235599
#
# Coordination Sequence:
#
# PCOD9573157 Si02
#       3
#    16  32  32
#     4  10  22  34  52  78 118 168 201 224 262 334
#     4  10  23  38  54  82 118 153 194 239 288 332
#     4  11  21  37  60  82 110 151 202 250 296 340
#
# _framework density 19.815913999999999
#
# number of rings (size 3 to 8) (size 9 to 14) (size 15 to 20)
#    1.200    0.400    0.000    6.000    0.000    8.000 
#    0.000    0.000    0.000    0.000    0.000    0.000 
#    0.000   56.000    0.000    0.000    0.000    0.000 
#
# Total GULP energy -222842.733193 kJ/mol
# GULP energy per Si atom -5571.068330 kJ/mol
# Density = 1.977081 g / cm^3
# Si number density = 19.815914 Si / 1000 Ang^3
#
#
#
# Elastic Constant Matrix: (Units=GPa)
#
#
# Indices 1 2 3 4 5 6 
#
# 1 78.7295 12.6339 30.3637 0.0000 0.0000 0.0000
# 2 12.6339 78.7343 30.3650 0.0000 0.0000 0.0000
# 3 30.3637 30.3650 119.8097 0.0000 0.0000 0.0000
# 4 0.0000 0.0000 0.0000 27.8286 0.0000 0.0000
# 5 0.0000 0.0000 0.0000 0.0000 27.8279 0.0000
# 6 0.0000 0.0000 0.0000 0.0000 0.0000 0.2838
#
#
#
# Elastic Compliance Matrix: (Units=1/GPa)
#
#
# Indices 1 2 3 4 5 6 
#
# 1 0.014146 -0.000983 -0.003336 0.000000 0.000000 0.000000
# 2 -0.000983 0.014145 -0.003336 0.000000 0.000000 0.000000
# 3 -0.003336 -0.003336 0.010037 0.000000 0.000000 0.000000
# 4 0.000000 0.000000 0.000000 0.035934 0.000000 0.000000
# 5 0.000000 0.000000 0.000000 0.000000 0.035935 0.000000
# 6 0.000000 0.000000 0.000000 0.000000 0.000000 3.523836
#
#
# Mechanical properties :
#
#
# Convention : Reuss Voigt Hill
#
# Bulk Modulus (GPa) = 43.44305 47.11097 45.27701
# Shear Modulus (GPa) = 1.36723 24.78212 13.07468
#
# Velocity S-wave (km/s) = 0.83154 3.54024 2.57146
# Velocity P-wave (km/s) = 4.78465 6.36687 5.63160
#
# Compressibility (1/GPa) = 0.02301864
#
# Stress axis : x y z
#
# Youngs Moduli (GPa) = 70.69104 70.69518 99.62721
#
# Poissons Ratio (x) = 0.06952 0.33234
# Poissons Ratio (y) = 0.06952 0.33234
# Poissons Ratio (z) = 0.23581 0.23582
#
# Static dielectric constant tensor:
#      x y z
#    x 1.738720 0.000000 0.000000 
#    y 0.000000 1.738710 0.000000 
#    z 0.000000 0.000000 1.826330 
# 
# From -- ./inp_files/1011.got.cif
#   From: 2010.05.17/outbox.cif.g08.bks.cpg/sg141_1_cif.got.tgz:1011.got - 2010.05.20 13:30:51.
