data_PCOD9573855
_publ_section_title
;
Structure prediction by ZEFSAII (Michael W. Deem and Ramdas Pophale) SiO2 
 PCOD9573855
Probable space group: I 41/A C D
;
_chemical_formula_sum "Si O2"
_cell_formula_units_Z 128
_cell_length_a 27.420670
_cell_length_b 27.420670
_cell_length_c 8.650856
_cell_angle_alpha 90.000000
_cell_angle_beta 90.000000
_cell_angle_gamma 90.000000
_cell_volume 6504.519310
_symmetry_space_group_name_H-M "I 41/A C D"
_symmetry_group_IT_number 142
_space_group.IT_coordinate_system_code '2'
_symmetry_cell_setting 'tetragonal'
loop_
_space_group_symop_operation_xyz
x,y,z
1/4-y,3/4+x,1/4+z
-x,1/2-y,z
1/4+y,1/4-x,3/4+z
x,-y,1/2-z
1/2-x,y,-z
3/4+y,1/4+x,1/4-z
1/4-y,1/4-x,1/4-z
-x,-y,-z
3/4+y,1/4-x,3/4-z
x,1/2+y,-z
3/4-y,3/4+x,1/4-z
-x,y,1/2+z
1/2+x,-y,z
1/4-y,3/4-x,3/4+z
3/4+y,3/4+x,3/4+z
1/2+x,1/2+y,1/2+z
3/4-y,1/4+x,3/4+z
1/2-x,-y,1/2+z
3/4+y,3/4-x,1/4+z
1/2+x,1/2-y,-z
-x,1/2+y,1/2-z
1/4+y,3/4+x,3/4-z
3/4-y,3/4-x,3/4-z
1/2-x,1/2-y,1/2-z
1/4+y,3/4-x,1/4-z
1/2+x,y,1/2-z
1/4-y,1/4+x,3/4-z
1/2-x,1/2+y,z
x,1/2-y,1/2+z
3/4-y,1/4-x,1/4+z
1/4+y,1/4+x,1/4+z
loop_
_atom_site_type_symbol
_atom_site_label
_atom_site_fract_x
_atom_site_fract_y
_atom_site_fract_z
Si Si1 0.603835 0.353835 0.875000
Si Si2 0.305442 0.305295 0.707605
Si Si3 0.555209 0.197113 0.121408
Si Si4 0.893111 0.143111 0.125000
Si Si5 0.052590 0.445548 0.582748
O O1 0.562212 0.343487 0.750137
O O2 0.593241 0.405023 0.954231
O O3 0.342734 0.344186 0.785378
O O4 0.248082 0.314402 0.741738
O O5 0.303971 0.303442 0.520332
O O6 0.317942 0.251369 0.772397
O O7 0.558208 0.250777 0.193072
O O8 0.596601 0.186209 0.997997
#
# Coordination Sequence:
#
# PCOD9573855 Si02
#       5
#    16  32  32  16  32
#     4  12  22  35  56  82 113 160 196 240 304 354
#     4  10  22  39  59  84 116 153 201 251 303 357
#     4  11  22  34  50  78 118 158 197 235 286 359
#     4  12  22  35  56  82 115 160 196 250 298 364
#     4  10  22  39  59  84 115 154 199 251 299 361
#
# _framework density 19.678626000000001
#
# number of rings (size 3 to 8) (size 9 to 14) (size 15 to 20)
#    0.000    1.250    2.500    4.500    3.500    2.000 
#    0.000    0.000    0.000    0.000    0.000    7.000 
#    0.000    0.000    0.000    0.000    0.000    0.000 
#
# Total GULP energy -356617.589021 kJ/mol
# GULP energy per Si atom -5572.149828 kJ/mol
# Density = 1.963384 g / cm^3
# Si number density = 19.678626 Si / 1000 Ang^3
#
#
#
# Elastic Constant Matrix: (Units=GPa)
#
#
# Indices 1 2 3 4 5 6 
#
# 1 121.0961 60.4503 16.9469 0.0000 0.0000 0.0000
# 2 60.4503 121.0961 16.9469 0.0000 0.0000 0.0000
# 3 16.9469 16.9469 53.3897 0.0000 0.0000 0.0000
# 4 0.0000 0.0000 0.0000 27.4728 0.0000 0.0000
# 5 0.0000 0.0000 0.0000 0.0000 27.4728 0.0000
# 6 0.0000 0.0000 0.0000 0.0000 0.0000 27.9594
#
#
#
# Elastic Compliance Matrix: (Units=1/GPa)
#
#
# Indices 1 2 3 4 5 6 
#
# 1 0.011172 -0.005317 -0.001859 0.000000 0.000000 0.000000
# 2 -0.005317 0.011172 -0.001859 0.000000 0.000000 0.000000
# 3 -0.001859 -0.001859 0.019910 0.000000 0.000000 0.000000
# 4 0.000000 0.000000 0.000000 0.036400 0.000000 0.000000
# 5 0.000000 0.000000 0.000000 0.000000 0.036400 0.000000
# 6 0.000000 0.000000 0.000000 0.000000 0.000000 0.035766
#
#
# Mechanical properties :
#
#
# Convention : Reuss Voigt Hill
#
# Bulk Modulus (GPa) = 41.34574 53.80779 47.57676
# Shear Modulus (GPa) = 28.25653 29.99685 29.12669
#
# Velocity S-wave (km/s) = 3.79344 3.90851 3.85140
# Velocity P-wave (km/s) = 6.34374 6.91167 6.63379
#
# Compressibility (1/GPa) = 0.02418629
#
# Stress axis : x y z
#
# Youngs Moduli (GPa) = 89.50781 89.50781 50.22580
#
# Poissons Ratio (x) = 0.47591 0.09335
# Poissons Ratio (y) = 0.47591 0.09335
# Poissons Ratio (z) = 0.16636 0.16636
#
# Static dielectric constant tensor:
#      x y z
#    x 1.745160 0.000000 0.000000 
#    y 0.000000 1.745160 0.000000 
#    z 0.000000 0.000000 1.824410 
# 
# From -- ./inp_files/2047.got.cif
#   From: 2010.05.17/outbox.cif.g08.bks.cpg/sg142_2_cif.got.tgz:2047.got - 2010.05.20 13:39:18.
