data_PCOD9573887
_publ_section_title
;
Structure prediction by ZEFSAII (Michael W. Deem and Ramdas Pophale) SiO2 
 PCOD9573887
Probable space group: I 41/A C D
;
_chemical_formula_sum "Si O2"
_cell_formula_units_Z 120
_cell_length_a 22.586302
_cell_length_b 22.586302
_cell_length_c 9.038300
_cell_angle_alpha 90.000000
_cell_angle_beta 90.000000
_cell_angle_gamma 90.000000
_cell_volume 4610.807744
_symmetry_space_group_name_H-M "I 41/A C D"
_symmetry_group_IT_number 142
_space_group.IT_coordinate_system_code '2'
_symmetry_cell_setting 'tetragonal'
loop_
_space_group_symop_operation_xyz
x,y,z
1/4-y,3/4+x,1/4+z
-x,1/2-y,z
1/4+y,1/4-x,3/4+z
x,-y,1/2-z
1/2-x,y,-z
3/4+y,1/4+x,1/4-z
1/4-y,1/4-x,1/4-z
-x,-y,-z
3/4+y,1/4-x,3/4-z
x,1/2+y,-z
3/4-y,3/4+x,1/4-z
-x,y,1/2+z
1/2+x,-y,z
1/4-y,3/4-x,3/4+z
3/4+y,3/4+x,3/4+z
1/2+x,1/2+y,1/2+z
3/4-y,1/4+x,3/4+z
1/2-x,-y,1/2+z
3/4+y,3/4-x,1/4+z
1/2+x,1/2-y,-z
-x,1/2+y,1/2-z
1/4+y,3/4+x,3/4-z
3/4-y,3/4-x,3/4-z
1/2-x,1/2-y,1/2-z
1/4+y,3/4-x,1/4-z
1/2+x,y,1/2-z
1/4-y,1/4+x,3/4-z
1/2-x,1/2+y,z
x,1/2-y,1/2+z
3/4-y,1/4-x,1/4+z
1/4+y,1/4+x,1/4+z
loop_
_atom_site_type_symbol
_atom_site_label
_atom_site_fract_x
_atom_site_fract_y
_atom_site_fract_z
Si Si1 0.170042 0.079959 0.625000
Si Si2 0.333875 0.182329 0.581293
Si Si3 0.500000 0.250000 0.625000
Si Si4 0.946702 0.861362 0.733890
Si Si5 0.866108 0.981593 0.912248
O O1 0.105214 0.065402 0.689690
O O2 0.216320 0.078085 0.760100
O O3 0.339121 0.252848 0.547646
O O4 0.397417 0.148170 0.608938
O O5 0.294418 0.165503 0.724886
O O6 0.555926 0.240292 0.525122
O O7 0.906393 0.843608 0.875000
O O8 0.819424 0.930576 0.875000
O O9 0.890265 0.000000 0.750000
#
# Coordination Sequence:
#
# PCOD9573887 Si02
#       5
#    16  32   8  32  32
#     4  12  28  46  79 124 156 210 280 350 415 514
#     4  11  26  46  76 121 158 210 285 343 413 507
#     4   8  18  32  60 110 136 190 268 298 364 450
#     4  10  22  41  75 107 159 214 261 325 394 494
#     4  12  27  50  84 117 155 217 283 357 432 505
#
# _framework density 26.025811000000001
#
# number of rings (size 3 to 8) (size 9 to 14) (size 15 to 20)
#    0.000    1.067    2.667    2.000   13.067    0.000 
#    0.000    1.333   11.733    0.000    0.000    0.000 
#    0.000    0.000    0.000    0.000    0.000    0.000 
#
# Total GULP energy -334284.126061 kJ/mol
# GULP energy per Si atom -5571.402101 kJ/mol
# Density = 2.596657 g / cm^3
# Si number density = 26.025811 Si / 1000 Ang^3
#
#
#
# Elastic Constant Matrix: (Units=GPa)
#
#
# Indices 1 2 3 4 5 6 
#
# 1 116.7217 60.3029 60.1103 0.0000 0.0000 0.0000
# 2 60.3029 116.7237 60.1116 0.0000 0.0000 0.0000
# 3 60.1103 60.1116 154.8917 0.0000 0.0000 0.0000
# 4 0.0000 0.0000 0.0000 21.0430 0.0000 0.0000
# 5 0.0000 0.0000 0.0000 0.0000 21.0432 0.0000
# 6 0.0000 0.0000 0.0000 0.0000 0.0000 14.0888
#
#
#
# Elastic Compliance Matrix: (Units=1/GPa)
#
#
# Indices 1 2 3 4 5 6 
#
# 1 0.012697 -0.005027 -0.002977 0.000000 0.000000 0.000000
# 2 -0.005027 0.012697 -0.002977 0.000000 0.000000 0.000000
# 3 -0.002977 -0.002977 0.008767 0.000000 0.000000 0.000000
# 4 0.000000 0.000000 0.000000 0.047522 0.000000 0.000000
# 5 0.000000 0.000000 0.000000 0.000000 0.047521 0.000000
# 6 0.000000 0.000000 0.000000 0.000000 0.000000 0.070978
#
#
# Mechanical properties :
#
#
# Convention : Reuss Voigt Hill
#
# Bulk Modulus (GPa) = 81.96428 83.26520 82.61474
# Shear Modulus (GPa) = 22.10330 25.08915 23.59623
#
# Velocity S-wave (km/s) = 2.91741 3.10822 3.01432
# Velocity P-wave (km/s) = 6.55059 6.70404 6.62776
#
# Compressibility (1/GPa) = 0.01220044
#
# Stress axis : x y z
#
# Youngs Moduli (GPa) = 78.75585 78.75672 114.06907
#
# Poissons Ratio (x) = 0.39590 0.33956
# Poissons Ratio (y) = 0.39590 0.33957
# Poissons Ratio (z) = 0.23444 0.23445
#
# Static dielectric constant tensor:
#      x y z
#    x 2.111240 0.000000 0.000000 
#    y 0.000000 2.111240 0.000000 
#    z 0.000000 0.000000 2.258570 
# 
# From -- ./inp_files/1894.got.cif
#   From: 2010.05.17/outbox.cif.g08.bks.cpg/sg142_1_cif.got.tgz:1894.got - 2010.05.20 13:39:18.
