data_PCOD9573452
_publ_section_title
;
Structure prediction by ZEFSAII (Michael W. Deem and Ramdas Pophale) SiO2 
 PCOD9573452
Probable space group: I 41/A C D
;
_chemical_formula_sum "Si O2"
_cell_formula_units_Z 216
_cell_length_a 23.296189
_cell_length_b 23.296189
_cell_length_c 22.913688
_cell_angle_alpha 90.000000
_cell_angle_beta 90.000000
_cell_angle_gamma 90.000000
_cell_volume 12435.543110
_symmetry_space_group_name_H-M "I 41/A C D"
_symmetry_group_IT_number 142
_space_group.IT_coordinate_system_code '2'
_symmetry_cell_setting 'tetragonal'
loop_
_space_group_symop_operation_xyz
x,y,z
1/4-y,3/4+x,1/4+z
-x,1/2-y,z
1/4+y,1/4-x,3/4+z
x,-y,1/2-z
1/2-x,y,-z
3/4+y,1/4+x,1/4-z
1/4-y,1/4-x,1/4-z
-x,-y,-z
3/4+y,1/4-x,3/4-z
x,1/2+y,-z
3/4-y,3/4+x,1/4-z
-x,y,1/2+z
1/2+x,-y,z
1/4-y,3/4-x,3/4+z
3/4+y,3/4+x,3/4+z
1/2+x,1/2+y,1/2+z
3/4-y,1/4+x,3/4+z
1/2-x,-y,1/2+z
3/4+y,3/4-x,1/4+z
1/2+x,1/2-y,-z
-x,1/2+y,1/2-z
1/4+y,3/4+x,3/4-z
3/4-y,3/4-x,3/4-z
1/2-x,1/2-y,1/2-z
1/4+y,3/4-x,1/4-z
1/2+x,y,1/2-z
1/4-y,1/4+x,3/4-z
1/2-x,1/2+y,z
x,1/2-y,1/2+z
3/4-y,1/4-x,1/4+z
1/4+y,1/4+x,1/4+z
loop_
_atom_site_type_symbol
_atom_site_label
_atom_site_fract_x
_atom_site_fract_y
_atom_site_fract_z
Si Si1 0.751020 0.881104 0.561771
Si Si2 0.456883 0.865294 0.918948
Si Si3 0.634159 0.384159 0.375000
Si Si4 0.175780 0.788444 0.791860
Si Si5 0.000000 0.250000 0.875000
Si Si6 0.793618 0.664477 0.262793
Si Si7 0.156644 0.829183 0.142685
Si Si8 0.760283 0.459919 0.193339
O O1 0.750000 0.849688 0.500000
O O2 0.685779 0.892746 0.579439
O O3 0.785435 0.846936 0.610354
O O4 0.783817 0.941426 0.554140
O O5 0.477168 0.799945 0.915739
O O6 0.396091 0.863570 0.886333
O O7 0.510174 0.898606 0.888978
O O8 0.453262 0.887290 0.984316
O O9 0.573561 0.396283 0.406070
O O10 0.187513 0.720323 0.800231
O O11 0.236215 0.816238 0.772027
O O12 0.839559 0.656228 0.211043
O O13 0.781144 0.604950 0.294908
O O14 0.780023 0.500000 0.250000
O O15 0.774544 0.475457 0.125000
#
# Coordination Sequence:
#
# PCOD9573452 Si02
#       8
#    32  32  16  32   8  32  32  32
#     4  11  21  32  53  81 110 139 182 234 281 338
#     4   9  18  32  55  80 105 142 181 235 280 343
#     4  12  20  36  54  79 110 144 188 235 282 330
#     4  10  20  34  56  79 108 148 187 234 286 346
#     4   8  16  32  56  78 104 132 184 232 268 326
#     4  10  20  35  56  80 110 151 188 228 291 356
#     4  10  18  33  54  80 109 141 186 231 289 337
#     4  11  21  35  58  85 115 150 192 235 288 350
#
# _framework density 17.369567
#
# number of rings (size 3 to 8) (size 9 to 14) (size 15 to 20)
#    0.000    1.778    2.222    4.444    0.000    0.000 
#    0.000    0.000   16.296    0.000    0.000    0.000 
#    0.000    0.000    0.000    0.000    0.000    0.000 
#
# Total GULP energy -601403.967141 kJ/mol
# GULP energy per Si atom -5568.555251 kJ/mol
# Density = 1.733003 g / cm^3
# Si number density = 17.369567 Si / 1000 Ang^3
#
#
#
# Elastic Constant Matrix: (Units=GPa)
#
#
# Indices 1 2 3 4 5 6 
#
# 1 75.1292 29.6419 35.9583 0.0000 0.0000 0.0000
# 2 29.6419 75.1268 35.9568 0.0000 0.0000 0.0000
# 3 35.9583 35.9568 79.9278 0.0000 0.0000 0.0000
# 4 0.0000 0.0000 0.0000 27.1115 0.0000 0.0000
# 5 0.0000 0.0000 0.0000 0.0000 27.1115 0.0000
# 6 0.0000 0.0000 0.0000 0.0000 0.0000 16.7552
#
#
#
# Elastic Compliance Matrix: (Units=1/GPa)
#
#
# Indices 1 2 3 4 5 6 
#
# 1 0.017897 -0.004088 -0.006212 0.000000 0.000000 0.000000
# 2 -0.004088 0.017897 -0.006212 0.000000 0.000000 0.000000
# 3 -0.006212 -0.006212 0.018101 0.000000 0.000000 0.000000
# 4 0.000000 0.000000 0.000000 0.036885 0.000000 0.000000
# 5 0.000000 0.000000 0.000000 0.000000 0.036885 0.000000
# 6 0.000000 0.000000 0.000000 0.000000 0.000000 0.059683
#
#
# Mechanical properties :
#
#
# Convention : Reuss Voigt Hill
#
# Bulk Modulus (GPa) = 47.91691 48.14421 48.03056
# Shear Modulus (GPa) = 21.99463 22.77077 22.38270
#
# Velocity S-wave (km/s) = 3.56233 3.62464 3.59362
# Velocity P-wave (km/s) = 6.67584 6.73016 6.70306
#
# Compressibility (1/GPa) = 0.02086946
#
# Stress axis : x y z
#
# Youngs Moduli (GPa) = 55.87632 55.87530 55.24615
#
# Poissons Ratio (x) = 0.22841 0.34321
# Poissons Ratio (y) = 0.22842 0.34320
# Poissons Ratio (z) = 0.34713 0.34711
#
# Static dielectric constant tensor:
#      x y z
#    x 1.615470 0.000000 0.000000 
#    y 0.000000 1.615470 0.000000 
#    z 0.000000 0.000000 1.644550 
# 
# From -- ./inp_files/9267.got.cif
#   From: 2010.05.17/outbox.cif.g08.bks.cpg/sg142_5_cif.got.tgz:9267.got - 2010.05.20 13:39:18.
