data_PCOD9573589
_publ_section_title
;
Structure prediction by ZEFSAII (Michael W. Deem and Ramdas Pophale) SiO2 
 PCOD9573589
Probable space group: I 41/A C D
;
_chemical_formula_sum "Si O2"
_cell_formula_units_Z 224
_cell_length_a 22.074492
_cell_length_b 22.074492
_cell_length_c 22.979317
_cell_angle_alpha 90.000000
_cell_angle_beta 90.000000
_cell_angle_gamma 90.000000
_cell_volume 11197.435054
_symmetry_space_group_name_H-M "I 41/A C D"
_symmetry_group_IT_number 142
_space_group.IT_coordinate_system_code '2'
_symmetry_cell_setting 'tetragonal'
loop_
_space_group_symop_operation_xyz
x,y,z
1/4-y,3/4+x,1/4+z
-x,1/2-y,z
1/4+y,1/4-x,3/4+z
x,-y,1/2-z
1/2-x,y,-z
3/4+y,1/4+x,1/4-z
1/4-y,1/4-x,1/4-z
-x,-y,-z
3/4+y,1/4-x,3/4-z
x,1/2+y,-z
3/4-y,3/4+x,1/4-z
-x,y,1/2+z
1/2+x,-y,z
1/4-y,3/4-x,3/4+z
3/4+y,3/4+x,3/4+z
1/2+x,1/2+y,1/2+z
3/4-y,1/4+x,3/4+z
1/2-x,-y,1/2+z
3/4+y,3/4-x,1/4+z
1/2+x,1/2-y,-z
-x,1/2+y,1/2-z
1/4+y,3/4+x,3/4-z
3/4-y,3/4-x,3/4-z
1/2-x,1/2-y,1/2-z
1/4+y,3/4-x,1/4-z
1/2+x,y,1/2-z
1/4-y,1/4+x,3/4-z
1/2-x,1/2+y,z
x,1/2-y,1/2+z
3/4-y,1/4-x,1/4+z
1/4+y,1/4+x,1/4+z
loop_
_atom_site_type_symbol
_atom_site_label
_atom_site_fract_x
_atom_site_fract_y
_atom_site_fract_z
Si Si1 0.423778 0.810246 0.362480
Si Si2 0.083742 0.992072 0.521277
Si Si3 0.953398 0.560151 0.278205
Si Si4 0.445337 0.204560 0.944467
Si Si5 0.852990 0.084431 0.818350
Si Si6 0.515521 0.399676 0.505430
Si Si7 0.382629 0.967959 0.613074
O O1 0.493944 0.827697 0.357632
O O2 0.386450 0.857598 0.400381
O O3 0.391580 0.800447 0.301137
O O4 0.139920 0.962869 0.554230
O O5 0.098838 0.980887 0.452931
O O6 0.025341 0.950846 0.536599
O O7 0.063828 0.061107 0.530873
O O8 0.984461 0.500000 0.250000
O O9 0.976118 0.629780 0.282103
O O10 0.891269 0.567138 0.239794
O O11 0.939635 0.542721 0.344717
O O12 0.500000 0.250000 0.958831
O O13 0.445212 0.195212 0.875000
O O14 0.467061 0.141337 0.971926
O O15 0.851036 0.027165 0.860310
O O16 0.339074 0.910927 0.625000
#
# Coordination Sequence:
#
# PCOD9573589 Si02
#       7
#    32  32  32  32  32  32  32
#     4  11  22  35  55  89 131 161 199 257 320 381
#     4  11  21  36  58  87 125 164 205 259 319 389
#     4  10  20  34  58  91 126 156 206 276 319 378
#     4  11  23  40  65  92 122 167 219 271 325 393
#     4  11  21  36  56  93 120 161 216 256 323 378
#     4  11  22  36  59  87 124 166 201 255 321 388
#     4  11  20  35  61  89 122 158 212 273 316 376
#
# _framework density 20.004581000000002
#
# number of rings (size 3 to 8) (size 9 to 14) (size 15 to 20)
#    0.000    1.143    5.714    1.286    4.000    0.000 
#    0.000    0.000    3.143    0.000    0.000    0.000 
#    0.000    0.000    0.000    0.000    0.000    0.000 
#
# Total GULP energy -625073.143909 kJ/mol
# GULP energy per Si atom -5581.010213 kJ/mol
# Density = 1.995905 g / cm^3
# Si number density = 20.004581 Si / 1000 Ang^3
#
#
#
# Elastic Constant Matrix: (Units=GPa)
#
#
# Indices 1 2 3 4 5 6 
#
# 1 87.7760 34.0138 22.0238 0.0000 0.0000 0.0000
# 2 34.0138 87.7783 22.0242 0.0000 0.0000 0.0000
# 3 22.0238 22.0242 56.0343 0.0000 0.0000 0.0000
# 4 0.0000 0.0000 0.0000 24.2894 0.0000 0.0000
# 5 0.0000 0.0000 0.0000 0.0000 24.2890 0.0000
# 6 0.0000 0.0000 0.0000 0.0000 0.0000 34.1668
#
#
#
# Elastic Compliance Matrix: (Units=1/GPa)
#
#
# Indices 1 2 3 4 5 6 
#
# 1 0.014086 -0.004514 -0.003762 0.000000 0.000000 0.000000
# 2 -0.004514 0.014086 -0.003762 0.000000 0.000000 0.000000
# 3 -0.003762 -0.003762 0.020803 0.000000 0.000000 0.000000
# 4 0.000000 0.000000 0.000000 0.041170 0.000000 0.000000
# 5 0.000000 0.000000 0.000000 0.000000 0.041171 0.000000
# 6 0.000000 0.000000 0.000000 0.000000 0.000000 0.029268
#
#
# Mechanical properties :
#
#
# Convention : Reuss Voigt Hill
#
# Bulk Modulus (GPa) = 40.16338 43.07913 41.62125
# Shear Modulus (GPa) = 25.91209 26.78417 26.34813
#
# Velocity S-wave (km/s) = 3.60294 3.66307 3.63313
# Velocity P-wave (km/s) = 6.11792 6.28269 6.20085
#
# Compressibility (1/GPa) = 0.02489830
#
# Stress axis : x y z
#
# Youngs Moduli (GPa) = 70.99308 70.99485 48.06896
#
# Poissons Ratio (x) = 0.32049 0.18083
# Poissons Ratio (y) = 0.32049 0.18083
# Poissons Ratio (z) = 0.26707 0.26708
#
# Static dielectric constant tensor:
#      x y z
#    x 1.737710 0.000000 0.000000 
#    y 0.000000 1.737700 0.000000 
#    z 0.000000 0.000000 1.729210 
# 
# From -- ./inp_files/10562.got.cif
#   From: 2010.05.17/outbox.cif.g08.bks.cpg/sg142_6_cif.got.tgz:10562.got - 2010.05.20 13:39:18.
