data_PCOD9573030
_publ_section_title
;
Structure prediction by ZEFSAII (Michael W. Deem and Ramdas Pophale) SiO2 
 PCOD9573030
Probable space group: I 41/A M D
;
_chemical_formula_sum "Si O2"
_cell_formula_units_Z 160
_cell_length_a 19.224892
_cell_length_b 19.224892
_cell_length_c 23.381539
_cell_angle_alpha 90.000000
_cell_angle_beta 90.000000
_cell_angle_gamma 90.000000
_cell_volume 8641.734334
_symmetry_space_group_name_H-M "I 41/A M D"
_symmetry_group_IT_number 141
_space_group.IT_coordinate_system_code '2'
_symmetry_cell_setting 'tetragonal'
loop_
_space_group_symop_operation_xyz
x,y,z
1/4-y,3/4+x,1/4+z
-x,1/2-y,z
1/4+y,1/4-x,3/4+z
x,-y,-z
-x,1/2+y,-z
1/4+y,3/4+x,1/4-z
1/4-y,1/4-x,3/4-z
-x,-y,-z
3/4+y,1/4-x,3/4-z
x,1/2+y,-z
3/4-y,3/4+x,1/4-z
-x,y,z
x,1/2-y,z
3/4-y,1/4-x,3/4+z
3/4+y,3/4+x,1/4+z
1/2+x,1/2+y,1/2+z
3/4-y,1/4+x,3/4+z
1/2-x,-y,1/2+z
3/4+y,3/4-x,1/4+z
1/2+x,1/2-y,1/2-z
1/2-x,y,1/2-z
3/4+y,1/4+x,3/4-z
3/4-y,3/4-x,1/4-z
1/2-x,1/2-y,1/2-z
1/4+y,3/4-x,1/4-z
1/2+x,y,1/2-z
1/4-y,1/4+x,3/4-z
1/2-x,1/2+y,1/2+z
1/2+x,-y,1/2+z
1/4-y,3/4-x,1/4+z
1/4+y,1/4+x,3/4+z
loop_
_atom_site_type_symbol
_atom_site_label
_atom_site_fract_x
_atom_site_fract_y
_atom_site_fract_z
Si Si1 0.688669 0.169256 0.106022
Si Si2 0.311475 0.555841 0.118707
Si Si3 0.178392 0.326803 0.715221
Si Si4 0.577928 0.036210 0.279510
Si Si5 0.376130 0.829335 0.436801
O O1 0.691466 0.250000 0.121830
O O2 0.617522 0.132479 0.125000
O O3 0.750790 0.123846 0.132605
O O4 0.699426 0.163959 0.037595
O O5 0.240746 0.509255 0.125000
O O6 0.320593 0.609231 0.171492
O O7 0.313771 0.606055 0.064070
O O8 0.173976 0.250000 0.687540
O O9 0.250000 0.329735 0.750000
O O10 0.119026 0.334342 0.762920
O O11 0.500000 0.061808 0.295943
O O12 0.578906 0.954217 0.294184
O O13 0.385153 0.864848 0.375000
O O14 0.399959 0.750000 0.430979
#
# Coordination Sequence:
#
# PCOD9573030 Si02
#       5
#    32  32  32  32  32
#     4  10  23  42  65  90 118 152 194 250 314 373
#     4  11  22  35  61  88 118 155 204 248 300 352
#     4  11  22  35  53  83 122 164 207 249 292 340
#     4  10  20  38  60  87 123 159 197 245 297 352
#     4  11  22  37  57  84 123 167 209 246 282 341
#
# _framework density 18.514803000000001
#
# number of rings (size 3 to 8) (size 9 to 14) (size 15 to 20)
#    0.000    1.400    2.000    4.200    0.000    7.200 
#    0.000    2.000    0.000    3.000    0.000    0.000 
#    0.000    0.000    0.000    0.000    0.000    0.000 
#
# Total GULP energy -446685.439050 kJ/mol
# GULP energy per Si atom -5583.567988 kJ/mol
# Density = 1.847266 g / cm^3
# Si number density = 18.514803 Si / 1000 Ang^3
#
#
#
# Elastic Constant Matrix: (Units=GPa)
#
#
# Indices 1 2 3 4 5 6 
#
# 1 138.9461 39.2899 37.2184 0.0000 0.0000 0.0000
# 2 39.2899 138.9329 37.2133 0.0000 0.0000 0.0000
# 3 37.2184 37.2133 55.2597 0.0000 0.0000 0.0000
# 4 0.0000 0.0000 0.0000 21.8925 0.0000 0.0000
# 5 0.0000 0.0000 0.0000 0.0000 21.8957 0.0000
# 6 0.0000 0.0000 0.0000 0.0000 0.0000 73.0442
#
#
#
# Elastic Compliance Matrix: (Units=1/GPa)
#
#
# Indices 1 2 3 4 5 6 
#
# 1 0.008920 -0.001114 -0.005258 0.000000 0.000000 0.000000
# 2 -0.001114 0.008921 -0.005257 0.000000 0.000000 0.000000
# 3 -0.005258 -0.005257 0.025178 0.000000 0.000000 0.000000
# 4 0.000000 0.000000 0.000000 0.045678 0.000000 0.000000
# 5 0.000000 0.000000 0.000000 0.000000 0.045671 0.000000
# 6 0.000000 0.000000 0.000000 0.000000 0.000000 0.013690
#
#
# Mechanical properties :
#
#
# Convention : Reuss Voigt Hill
#
# Bulk Modulus (GPa) = 50.60476 62.28688 56.44582
# Shear Modulus (GPa) = 28.10515 37.99430 33.04972
#
# Velocity S-wave (km/s) = 3.90036 4.53493 4.22956
# Velocity P-wave (km/s) = 6.90472 7.81892 7.37599
#
# Compressibility (1/GPa) = 0.01976099
#
# Stress axis : x y z
#
# Youngs Moduli (GPa) = 112.10165 112.09538 39.71774
#
# Poissons Ratio (x) = 0.12492 0.20882
# Poissons Ratio (y) = 0.12493 0.20880
# Poissons Ratio (z) = 0.58939 0.58929
#
# Static dielectric constant tensor:
#      x y z
#    x 1.599430 0.000000 0.000000 
#    y 0.000000 1.599410 0.000000 
#    z 0.000000 0.000000 1.606640 
# 
# From -- ./inp_files/12681.got.cif
#   From: 2010.05.17/outbox.cif.g08.bks.cpg/sg141_7_cif.got.tgz:12681.got - 2010.05.20 13:30:51.
