data_PCOD9573588
_publ_section_title
;
Structure prediction by ZEFSAII (Michael W. Deem and Ramdas Pophale) SiO2 
 PCOD9573588
Probable space group: I 41/A C D
;
_chemical_formula_sum "Si O2"
_cell_formula_units_Z 160
_cell_length_a 20.248320
_cell_length_b 20.248320
_cell_length_c 17.968425
_cell_angle_alpha 90.000000
_cell_angle_beta 90.000000
_cell_angle_gamma 90.000000
_cell_volume 7366.954756
_symmetry_space_group_name_H-M "I 41/A C D"
_symmetry_group_IT_number 142
_space_group.IT_coordinate_system_code '2'
_symmetry_cell_setting 'tetragonal'
loop_
_space_group_symop_operation_xyz
x,y,z
1/4-y,3/4+x,1/4+z
-x,1/2-y,z
1/4+y,1/4-x,3/4+z
x,-y,1/2-z
1/2-x,y,-z
3/4+y,1/4+x,1/4-z
1/4-y,1/4-x,1/4-z
-x,-y,-z
3/4+y,1/4-x,3/4-z
x,1/2+y,-z
3/4-y,3/4+x,1/4-z
-x,y,1/2+z
1/2+x,-y,z
1/4-y,3/4-x,3/4+z
3/4+y,3/4+x,3/4+z
1/2+x,1/2+y,1/2+z
3/4-y,1/4+x,3/4+z
1/2-x,-y,1/2+z
3/4+y,3/4-x,1/4+z
1/2+x,1/2-y,-z
-x,1/2+y,1/2-z
1/4+y,3/4+x,3/4-z
3/4-y,3/4-x,3/4-z
1/2-x,1/2-y,1/2-z
1/4+y,3/4-x,1/4-z
1/2+x,y,1/2-z
1/4-y,1/4+x,3/4-z
1/2-x,1/2+y,z
x,1/2-y,1/2+z
3/4-y,1/4-x,1/4+z
1/4+y,1/4+x,1/4+z
loop_
_atom_site_type_symbol
_atom_site_label
_atom_site_fract_x
_atom_site_fract_y
_atom_site_fract_z
Si Si1 0.681146 0.715681 0.274973
Si Si2 0.602984 0.760087 0.903930
Si Si3 0.309621 0.430568 0.786293
Si Si4 0.809617 0.921242 0.960222
Si Si5 0.934973 0.173196 0.542304
O O1 0.750000 0.750000 0.250000
O O2 0.672236 0.728114 0.363714
O O3 0.672633 0.639054 0.252679
O O4 0.619646 0.754463 0.238361
O O5 0.569821 0.692629 0.877435
O O6 0.590518 0.767564 0.990775
O O7 0.336071 0.500000 0.750000
O O8 0.321324 0.428677 0.875000
O O9 0.231737 0.432551 0.767152
O O10 0.802107 0.947894 0.875000
O O11 0.874470 0.877983 0.958652
O O12 0.750000 0.882278 0.000000
O O13 0.946548 0.196548 0.625000
#
# Coordination Sequence:
#
# PCOD9573588 Si02
#       5
#    32  32  32  32  32
#     4  11  23  41  64  93 137 174 220 287 346 408
#     4   9  21  40  63  87 119 174 221 271 339 407
#     4  11  24  39  63  96 129 173 220 278 351 411
#     4  10  20  34  58  89 125 167 217 270 331 398
#     4  10  22  39  64  92 127 171 228 278 337 408
#
# _framework density 21.718608
#
# number of rings (size 3 to 8) (size 9 to 14) (size 15 to 20)
#    0.000    1.800    2.000    2.400    5.600    1.600 
#    0.000    7.000    0.000    1.200    0.000    0.000 
#    0.000    0.000    0.000    0.000    0.000    0.000 
#
# Total GULP energy -445988.942571 kJ/mol
# GULP energy per Si atom -5574.861782 kJ/mol
# Density = 2.166918 g / cm^3
# Si number density = 21.718608 Si / 1000 Ang^3
#
#
#
# Elastic Constant Matrix: (Units=GPa)
#
#
# Indices 1 2 3 4 5 6 
#
# 1 93.7240 16.2315 22.0170 0.0000 0.0000 0.0000
# 2 16.2315 93.7244 22.0172 0.0000 0.0000 0.0000
# 3 22.0170 22.0172 124.2132 0.0000 0.0000 0.0000
# 4 0.0000 0.0000 0.0000 27.8082 0.0000 0.0000
# 5 0.0000 0.0000 0.0000 0.0000 27.8080 0.0000
# 6 0.0000 0.0000 0.0000 0.0000 0.0000 17.4357
#
#
#
# Elastic Compliance Matrix: (Units=1/GPa)
#
#
# Indices 1 2 3 4 5 6 
#
# 1 0.011347 -0.001557 -0.001735 0.000000 0.000000 0.000000
# 2 -0.001557 0.011347 -0.001735 0.000000 0.000000 0.000000
# 3 -0.001735 -0.001735 0.008666 0.000000 0.000000 0.000000
# 4 0.000000 0.000000 0.000000 0.035961 0.000000 0.000000
# 5 0.000000 0.000000 0.000000 0.000000 0.035961 0.000000
# 6 0.000000 0.000000 0.000000 0.000000 0.000000 0.057354
#
#
# Mechanical properties :
#
#
# Convention : Reuss Voigt Hill
#
# Bulk Modulus (GPa) = 46.93968 48.02143 47.48056
# Shear Modulus (GPa) = 28.12275 31.37011 29.74643
#
# Velocity S-wave (km/s) = 3.60233 3.80463 3.70486
# Velocity P-wave (km/s) = 6.24195 6.43887 6.34118
#
# Compressibility (1/GPa) = 0.02130394
#
# Stress axis : x y z
#
# Youngs Moduli (GPa) = 88.12918 88.12952 115.39597
#
# Poissons Ratio (x) = 0.13726 0.20024
# Poissons Ratio (y) = 0.13726 0.20024
# Poissons Ratio (z) = 0.15292 0.15292
#
# Static dielectric constant tensor:
#      x y z
#    x 1.877280 0.000000 0.000000 
#    y 0.000000 1.877280 0.000000 
#    z 0.000000 0.000000 1.892610 
# 
# From -- ./inp_files/7383.got.cif
#   From: 2010.05.17/outbox.cif.g08.bks.cpg/sg142_4_cif.got.tgz:7383.got - 2010.05.20 13:39:18.
