data_PCOD9573892
_publ_section_title
;
Structure prediction by ZEFSAII (Michael W. Deem and Ramdas Pophale) SiO2 
 PCOD9573892
Probable space group: I 41/A C D
;
_chemical_formula_sum "Si O2"
_cell_formula_units_Z 168
_cell_length_a 28.146394
_cell_length_b 28.146394
_cell_length_c 9.956734
_cell_angle_alpha 90.000000
_cell_angle_beta 90.000000
_cell_angle_gamma 90.000000
_cell_volume 7887.918783
_symmetry_space_group_name_H-M "I 41/A C D"
_symmetry_group_IT_number 142
_space_group.IT_coordinate_system_code '2'
_symmetry_cell_setting 'tetragonal'
loop_
_space_group_symop_operation_xyz
x,y,z
1/4-y,3/4+x,1/4+z
-x,1/2-y,z
1/4+y,1/4-x,3/4+z
x,-y,1/2-z
1/2-x,y,-z
3/4+y,1/4+x,1/4-z
1/4-y,1/4-x,1/4-z
-x,-y,-z
3/4+y,1/4-x,3/4-z
x,1/2+y,-z
3/4-y,3/4+x,1/4-z
-x,y,1/2+z
1/2+x,-y,z
1/4-y,3/4-x,3/4+z
3/4+y,3/4+x,3/4+z
1/2+x,1/2+y,1/2+z
3/4-y,1/4+x,3/4+z
1/2-x,-y,1/2+z
3/4+y,3/4-x,1/4+z
1/2+x,1/2-y,-z
-x,1/2+y,1/2-z
1/4+y,3/4+x,3/4-z
3/4-y,3/4-x,3/4-z
1/2-x,1/2-y,1/2-z
1/4+y,3/4-x,1/4-z
1/2+x,y,1/2-z
1/4-y,1/4+x,3/4-z
1/2-x,1/2+y,z
x,1/2-y,1/2+z
3/4-y,1/4-x,1/4+z
1/4+y,1/4+x,1/4+z
loop_
_atom_site_type_symbol
_atom_site_label
_atom_site_fract_x
_atom_site_fract_y
_atom_site_fract_z
Si Si1 0.030735 0.167090 0.726879
Si Si2 0.943255 0.114903 0.665421
Si Si3 0.393615 0.887865 0.941323
Si Si4 0.782236 0.890785 0.368058
Si Si5 0.130595 0.437801 0.514266
Si Si6 0.500000 0.250000 0.625000
O O1 0.039516 0.210485 0.625000
O O2 0.082905 0.151607 0.770483
O O3 0.998610 0.193567 0.835301
O O4 0.998431 0.127097 0.659377
O O5 0.912059 0.162059 0.625000
O O6 0.929024 0.101310 0.817770
O O7 0.922334 0.075669 0.564859
O O8 0.341633 0.890314 0.871958
O O9 0.324809 0.856443 0.185885
O O10 0.750000 0.879391 0.500000
O O11 0.808095 0.941906 0.375000
O O12 0.742751 0.889318 0.252372
O O13 0.164790 0.414790 0.625000
#
# Coordination Sequence:
#
# PCOD9573892 Si02
#       6
#    32  32  32  32  32   8
#     4  12  23  35  65 103 145 179 240 285 349 396
#     4   9  20  40  64  97 145 186 228 279 351 423
#     4  10  22  42  63  97 138 189 215 297 354 411
#     4  12  24  43  70 104 137 171 231 294 365 428
#     4   9  22  42  67  94 142 174 225 283 357 425
#     4  12  22  36  60 106 140 180 226 300 320 418
#
# _framework density 21.298394999999999
#
# number of rings (size 3 to 8) (size 9 to 14) (size 15 to 20)
#    0.000    1.905    3.810    2.000    2.667    3.810 
#    0.000    0.000    0.000   14.857    0.000    0.000 
#    0.000    0.000    0.000    0.000    0.000    0.000 
#
# Total GULP energy -467690.955639 kJ/mol
# GULP energy per Si atom -5567.749472 kJ/mol
# Density = 2.124992 g / cm^3
# Si number density = 21.298395 Si / 1000 Ang^3
#
#
#
# Elastic Constant Matrix: (Units=GPa)
#
#
# Indices 1 2 3 4 5 6 
#
# 1 94.8788 50.1759 30.8680 0.0000 0.0000 0.0000
# 2 50.1759 94.8773 30.8659 0.0000 0.0000 0.0000
# 3 30.8680 30.8659 81.2646 0.0000 0.0000 0.0000
# 4 0.0000 0.0000 0.0000 66.6551 0.0000 0.0000
# 5 0.0000 0.0000 0.0000 0.0000 66.6738 0.0000
# 6 0.0000 0.0000 0.0000 0.0000 0.0000 30.6695
#
#
#
# Elastic Compliance Matrix: (Units=1/GPa)
#
#
# Indices 1 2 3 4 5 6 
#
# 1 0.015297 -0.007073 -0.003124 0.000000 0.000000 0.000000
# 2 -0.007073 0.015297 -0.003123 0.000000 0.000000 0.000000
# 3 -0.003124 -0.003123 0.014678 0.000000 0.000000 0.000000
# 4 0.000000 0.000000 0.000000 0.015003 0.000000 0.000000
# 5 0.000000 0.000000 0.000000 0.000000 0.014998 0.000000
# 6 0.000000 0.000000 0.000000 0.000000 0.000000 0.032606
#
#
# Mechanical properties :
#
#
# Convention : Reuss Voigt Hill
#
# Bulk Modulus (GPa) = 53.67403 54.98225 54.32814
# Shear Modulus (GPa) = 35.52906 43.40706 39.46806
#
# Velocity S-wave (km/s) = 4.08874 4.51937 4.30944
# Velocity P-wave (km/s) = 6.89536 7.28726 7.09402
#
# Compressibility (1/GPa) = 0.01863098
#
# Stress axis : x y z
#
# Youngs Moduli (GPa) = 65.37307 65.37317 68.12782
#
# Poissons Ratio (x) = 0.46242 0.21282
# Poissons Ratio (y) = 0.46242 0.21278
# Poissons Ratio (z) = 0.20421 0.20417
#
# Static dielectric constant tensor:
#      x y z
#    x 1.764150 0.000000 0.000000 
#    y 0.000000 1.764150 0.000000 
#    z 0.000000 0.000000 2.130060 
# 
# From -- ./inp_files/4108.got.cif
#   From: 2010.05.17/outbox.cif.g08.bks.cpg/sg142_3_cif.got.tgz:4108.got - 2010.05.20 13:39:18.
