data_PCOD9573075
_publ_section_title
;
Structure prediction by ZEFSAII (Michael W. Deem and Ramdas Pophale) SiO2 
 PCOD9573075
Probable space group: I 41/A M D
;
_chemical_formula_sum "Si O2"
_cell_formula_units_Z 144
_cell_length_a 15.555219
_cell_length_b 15.555219
_cell_length_c 26.857034
_cell_angle_alpha 90.000000
_cell_angle_beta 90.000000
_cell_angle_gamma 90.000000
_cell_volume 6498.457885
_symmetry_space_group_name_H-M "I 41/A M D"
_symmetry_group_IT_number 141
_space_group.IT_coordinate_system_code '2'
_symmetry_cell_setting 'tetragonal'
loop_
_space_group_symop_operation_xyz
x,y,z
1/4-y,3/4+x,1/4+z
-x,1/2-y,z
1/4+y,1/4-x,3/4+z
x,-y,-z
-x,1/2+y,-z
1/4+y,3/4+x,1/4-z
1/4-y,1/4-x,3/4-z
-x,-y,-z
3/4+y,1/4-x,3/4-z
x,1/2+y,-z
3/4-y,3/4+x,1/4-z
-x,y,z
x,1/2-y,z
3/4-y,1/4-x,3/4+z
3/4+y,3/4+x,1/4+z
1/2+x,1/2+y,1/2+z
3/4-y,1/4+x,3/4+z
1/2-x,-y,1/2+z
3/4+y,3/4-x,1/4+z
1/2+x,1/2-y,1/2-z
1/2-x,y,1/2-z
3/4+y,1/4+x,3/4-z
3/4-y,3/4-x,1/4-z
1/2-x,1/2-y,1/2-z
1/4+y,3/4-x,1/4-z
1/2+x,y,1/2-z
1/4-y,1/4+x,3/4-z
1/2-x,1/2+y,1/2+z
1/2+x,-y,1/2+z
1/4-y,3/4-x,1/4+z
1/4+y,1/4+x,3/4+z
loop_
_atom_site_type_symbol
_atom_site_label
_atom_site_fract_x
_atom_site_fract_y
_atom_site_fract_z
Si Si1 0.828118 0.421882 0.875000
Si Si2 0.095971 0.147711 0.595636
Si Si3 0.901783 0.156065 0.315400
Si Si4 0.595649 0.484373 0.712571
Si Si5 0.788173 0.910202 0.936178
O O1 0.817697 0.342935 0.910969
O O2 0.752243 0.436635 0.835190
O O3 0.109298 0.250000 0.608136
O O4 0.170888 0.123656 0.556414
O O5 0.102515 0.086334 0.644368
O O6 0.000000 0.139603 0.574932
O O7 0.865008 0.250000 0.299830
O O8 0.909539 0.159539 0.375000
O O9 0.000000 0.151265 0.295576
O O10 0.853491 0.065244 0.309012
O O11 0.500000 0.495486 0.732468
O O12 0.644136 0.436548 0.757037
#
# Coordination Sequence:
#
# PCOD9573075 Si02
#       5
#    16  32  32  32  32
#     4  10  22  38  56  78 112 140 176 228 276 318
#     4   9  19  35  55  81 111 142 182 230 274 320
#     4   9  17  28  44  72 109 146 180 211 248 301
#     4  10  21  36  57  81 105 142 182 220 275 333
#     4  11  19  35  58  80 108 145 185 221 268 324
#
# _framework density 22.159103999999999
#
# number of rings (size 3 to 8) (size 9 to 14) (size 15 to 20)
#    0.000    2.222    1.111    3.333    0.000    0.889 
#    0.000    3.333    0.000   11.000    0.000    0.000 
#    0.000    0.000    0.000    0.000    0.000    0.000 
#
# Total GULP energy -400835.446285 kJ/mol
# GULP energy per Si atom -5567.158976 kJ/mol
# Density = 2.210867 g / cm^3
# Si number density = 22.159104 Si / 1000 Ang^3
#
#
#
# Elastic Constant Matrix: (Units=GPa)
#
#
# Indices 1 2 3 4 5 6 
#
# 1 55.1953 7.0765 25.2659 0.0000 0.0000 0.0000
# 2 7.0765 55.1953 25.2659 0.0000 0.0000 0.0000
# 3 25.2659 25.2659 144.7353 0.0000 0.0000 0.0000
# 4 0.0000 0.0000 0.0000 8.6105 0.0000 0.0000
# 5 0.0000 0.0000 0.0000 0.0000 8.6105 0.0000
# 6 0.0000 0.0000 0.0000 0.0000 0.0000 8.7951
#
#
#
# Elastic Compliance Matrix: (Units=1/GPa)
#
#
# Indices 1 2 3 4 5 6 
#
# 1 0.019745 -0.001037 -0.003266 0.000000 0.000000 0.000000
# 2 -0.001037 0.019745 -0.003266 0.000000 0.000000 0.000000
# 3 -0.003266 -0.003266 0.008049 0.000000 0.000000 0.000000
# 4 0.000000 0.000000 0.000000 0.116138 0.000000 0.000000
# 5 0.000000 0.000000 0.000000 0.000000 0.116138 0.000000
# 6 0.000000 0.000000 0.000000 0.000000 0.000000 0.113700
#
#
# Mechanical properties :
#
#
# Convention : Reuss Voigt Hill
#
# Bulk Modulus (GPa) = 30.86098 41.14917 36.00507
# Shear Modulus (GPa) = 11.92027 18.37104 15.14566
#
# Velocity S-wave (km/s) = 2.32187 2.88245 2.61721
# Velocity P-wave (km/s) = 4.59841 5.44869 5.04150
#
# Compressibility (1/GPa) = 0.03240338
#
# Stress axis : x y z
#
# Youngs Moduli (GPa) = 50.64477 50.64477 124.23276
#
# Poissons Ratio (x) = 0.05249 0.40574
# Poissons Ratio (y) = 0.05249 0.40574
# Poissons Ratio (z) = 0.16540 0.16540
#
# Static dielectric constant tensor:
#      x y z
#    x 1.949690 0.000000 0.000000 
#    y 0.000000 1.949690 0.000000 
#    z 0.000000 0.000000 1.846920 
# 
# From -- ./inp_files/11413.got.cif
#   From: 2010.05.17/outbox.cif.g08.bks.cpg/sg141_6_cif.got.tgz:11413.got - 2010.05.20 13:30:51.
