data_PCOD9573786
_publ_section_title
;
Structure prediction by ZEFSAII (Michael W. Deem and Ramdas Pophale) SiO2 
 PCOD9573786
Probable space group: I 41/A C D
;
_chemical_formula_sum "Si O2"
_cell_formula_units_Z 160
_cell_length_a 18.061319
_cell_length_b 18.061319
_cell_length_c 24.793633
_cell_angle_alpha 90.000000
_cell_angle_beta 90.000000
_cell_angle_gamma 90.000000
_cell_volume 8087.961865
_symmetry_space_group_name_H-M "I 41/A C D"
_symmetry_group_IT_number 142
_space_group.IT_coordinate_system_code '2'
_symmetry_cell_setting 'tetragonal'
loop_
_space_group_symop_operation_xyz
x,y,z
1/4-y,3/4+x,1/4+z
-x,1/2-y,z
1/4+y,1/4-x,3/4+z
x,-y,1/2-z
1/2-x,y,-z
3/4+y,1/4+x,1/4-z
1/4-y,1/4-x,1/4-z
-x,-y,-z
3/4+y,1/4-x,3/4-z
x,1/2+y,-z
3/4-y,3/4+x,1/4-z
-x,y,1/2+z
1/2+x,-y,z
1/4-y,3/4-x,3/4+z
3/4+y,3/4+x,3/4+z
1/2+x,1/2+y,1/2+z
3/4-y,1/4+x,3/4+z
1/2-x,-y,1/2+z
3/4+y,3/4-x,1/4+z
1/2+x,1/2-y,-z
-x,1/2+y,1/2-z
1/4+y,3/4+x,3/4-z
3/4-y,3/4-x,3/4-z
1/2-x,1/2-y,1/2-z
1/4+y,3/4-x,1/4-z
1/2+x,y,1/2-z
1/4-y,1/4+x,3/4-z
1/2-x,1/2+y,z
x,1/2-y,1/2+z
3/4-y,1/4-x,1/4+z
1/4+y,1/4+x,1/4+z
loop_
_atom_site_type_symbol
_atom_site_label
_atom_site_fract_x
_atom_site_fract_y
_atom_site_fract_z
Si Si1 0.912918 0.240591 0.967364
Si Si2 0.705958 0.855529 0.917999
Si Si3 0.824230 0.822324 0.198851
Si Si4 0.621749 0.167671 0.435626
Si Si5 0.800812 0.157370 0.776857
O O1 0.855216 0.293779 0.936006
O O2 0.897967 0.156486 0.953614
O O3 0.000000 0.250000 0.953379
O O4 0.902349 0.259984 0.030697
O O5 0.711184 0.858114 0.853789
O O6 0.788790 0.839176 0.937790
O O7 0.667162 0.928696 0.941789
O O8 0.819842 0.732918 0.191630
O O9 0.781114 0.838854 0.253830
O O10 0.592178 0.157823 0.375000
O O11 0.590353 0.102443 0.473561
#
# Coordination Sequence:
#
# PCOD9573786 Si02
#       5
#    32  32  32  32  32
#     4  11  22  37  61  97 126 159 210 276 314 380
#     4  11  22  39  67  88 126 174 218 253 325 389
#     4  11  21  38  63  93 124 163 208 272 321 371
#     4  11  22  43  63  88 123 179 214 256 322 396
#     4  10  21  39  62  90 126 162 214 260 313 385
#
# _framework density 19.782487
#
# number of rings (size 3 to 8) (size 9 to 14) (size 15 to 20)
#    0.000    1.200    6.000    3.600    0.000    0.400 
#    0.000    4.000    0.000    0.000    0.000    0.000 
#    0.000    0.000    0.000    0.000    0.000    0.000 
#
# Total GULP energy -446348.506503 kJ/mol
# GULP energy per Si atom -5579.356331 kJ/mol
# Density = 1.973746 g / cm^3
# Si number density = 19.782487 Si / 1000 Ang^3
#
#
#
# Elastic Constant Matrix: (Units=GPa)
#
#
# Indices 1 2 3 4 5 6 
#
# 1 44.6939 1.4671 -11.8133 0.0000 0.0000 0.0000
# 2 1.4671 44.6936 -11.8135 0.0000 0.0000 0.0000
# 3 -11.8133 -11.8135 58.5201 0.0000 0.0000 0.0000
# 4 0.0000 0.0000 0.0000 29.2663 0.0000 0.0000
# 5 0.0000 0.0000 0.0000 0.0000 29.2668 0.0000
# 6 0.0000 0.0000 0.0000 0.0000 0.0000 10.1317
#
#
#
# Elastic Compliance Matrix: (Units=1/GPa)
#
#
# Indices 1 2 3 4 5 6 
#
# 1 0.023647 0.000513 0.004877 0.000000 0.000000 0.000000
# 2 0.000513 0.023647 0.004877 0.000000 0.000000 0.000000
# 3 0.004877 0.004877 0.019057 0.000000 0.000000 0.000000
# 4 0.000000 0.000000 0.000000 0.034169 0.000000 0.000000
# 5 0.000000 0.000000 0.000000 0.000000 0.034168 0.000000
# 6 0.000000 0.000000 0.000000 0.000000 0.000000 0.098700
#
#
# Mechanical properties :
#
#
# Convention : Reuss Voigt Hill
#
# Bulk Modulus (GPa) = 11.50949 11.50981 11.50965
# Shear Modulus (GPa) = 20.67694 25.07079 22.87387
#
# Velocity S-wave (km/s) = 3.23649 3.56381 3.40408
# Velocity P-wave (km/s) = 4.44939 4.77128 4.61315
#
# Compressibility (1/GPa) = 0.08688481
#
# Stress axis : x y z
#
# Youngs Moduli (GPa) = 42.28929 42.28889 52.47362
#
# Poissons Ratio (x) = -0.02169 -0.25591
# Poissons Ratio (y) = -0.02169 -0.25592
# Poissons Ratio (z) = -0.20625 -0.20625
#
# Static dielectric constant tensor:
#      x y z
#    x 1.722850 0.000000 0.000000 
#    y 0.000000 1.722850 0.000000 
#    z 0.000000 0.000000 1.722050 
# 
# From -- ./inp_files/11272.got.cif
#   From: 2010.05.17/outbox.cif.g08.bks.cpg/sg142_6_cif.got.tgz:11272.got - 2010.05.20 13:39:18.
