data_PCOD9573500
_publ_section_title
;
Structure prediction by ZEFSAII (Michael W. Deem and Ramdas Pophale) SiO2 
 PCOD9573500
Probable space group: I 41/A C D
;
_chemical_formula_sum "Si O2"
_cell_formula_units_Z 160
_cell_length_a 23.026613
_cell_length_b 23.026613
_cell_length_c 16.220435
_cell_angle_alpha 90.000000
_cell_angle_beta 90.000000
_cell_angle_gamma 90.000000
_cell_volume 8600.478627
_symmetry_space_group_name_H-M "I 41/A C D"
_symmetry_group_IT_number 142
_space_group.IT_coordinate_system_code '2'
_symmetry_cell_setting 'tetragonal'
loop_
_space_group_symop_operation_xyz
x,y,z
1/4-y,3/4+x,1/4+z
-x,1/2-y,z
1/4+y,1/4-x,3/4+z
x,-y,1/2-z
1/2-x,y,-z
3/4+y,1/4+x,1/4-z
1/4-y,1/4-x,1/4-z
-x,-y,-z
3/4+y,1/4-x,3/4-z
x,1/2+y,-z
3/4-y,3/4+x,1/4-z
-x,y,1/2+z
1/2+x,-y,z
1/4-y,3/4-x,3/4+z
3/4+y,3/4+x,3/4+z
1/2+x,1/2+y,1/2+z
3/4-y,1/4+x,3/4+z
1/2-x,-y,1/2+z
3/4+y,3/4-x,1/4+z
1/2+x,1/2-y,-z
-x,1/2+y,1/2-z
1/4+y,3/4+x,3/4-z
3/4-y,3/4-x,3/4-z
1/2-x,1/2-y,1/2-z
1/4+y,3/4-x,1/4-z
1/2+x,y,1/2-z
1/4-y,1/4+x,3/4-z
1/2-x,1/2+y,z
x,1/2-y,1/2+z
3/4-y,1/4-x,1/4+z
1/4+y,1/4+x,1/4+z
loop_
_atom_site_type_symbol
_atom_site_label
_atom_site_fract_x
_atom_site_fract_y
_atom_site_fract_z
Si Si1 0.531798 0.330540 0.236439
Si Si2 0.832755 0.368306 0.206172
Si Si3 0.988960 0.370757 0.580748
Si Si4 0.783125 0.689941 0.732105
Si Si5 0.621911 0.831420 0.896941
O O1 0.563930 0.272899 0.273624
O O2 0.518680 0.361438 0.322811
O O3 0.472562 0.335711 0.184875
O O4 0.579979 0.356711 0.174329
O O5 0.843505 0.406496 0.125000
O O6 0.856782 0.303594 0.184905
O O7 0.765433 0.359531 0.229189
O O8 0.872086 0.386931 0.283234
O O9 0.940945 0.417194 0.551450
O O10 0.750000 0.750000 0.750000
O O11 0.819753 0.691067 0.647423
#
# Coordination Sequence:
#
# PCOD9573500 Si02
#       5
#    32  32  32  32  32
#     4  10  19  33  53  84 116 153 190 229 293 356
#     4  11  21  37  54  84 118 155 196 243 297 347
#     4   9  19  36  54  80 121 154 188 240 293 348
#     4   9  20  38  57  80 115 148 194 249 280 346
#     4  11  21  35  56  86 116 156 200 231 298 359
#
# _framework density 18.603615000000001
#
# number of rings (size 3 to 8) (size 9 to 14) (size 15 to 20)
#    0.000    2.000    2.000    3.600    0.000    3.600 
#    0.000    3.000    0.000    0.000   31.200    0.000 
#    0.000    0.000    0.000    0.000    0.000    0.000 
#
# Total GULP energy -445539.127446 kJ/mol
# GULP energy per Si atom -5569.239093 kJ/mol
# Density = 1.856127 g / cm^3
# Si number density = 18.603615 Si / 1000 Ang^3
#
#
#
# Elastic Constant Matrix: (Units=GPa)
#
#
# Indices 1 2 3 4 5 6 
#
# 1 66.4434 19.4354 25.1157 0.0000 0.0000 0.0000
# 2 19.4354 66.4431 25.1155 0.0000 0.0000 0.0000
# 3 25.1157 25.1155 110.1295 0.0000 0.0000 0.0000
# 4 0.0000 0.0000 0.0000 21.4692 0.0000 0.0000
# 5 0.0000 0.0000 0.0000 0.0000 21.4690 0.0000
# 6 0.0000 0.0000 0.0000 0.0000 0.0000 24.7900
#
#
#
# Elastic Compliance Matrix: (Units=1/GPa)
#
#
# Indices 1 2 3 4 5 6 
#
# 1 0.017355 -0.003918 -0.003064 0.000000 0.000000 0.000000
# 2 -0.003918 0.017355 -0.003064 0.000000 0.000000 0.000000
# 3 -0.003064 -0.003064 0.010478 0.000000 0.000000 0.000000
# 4 0.000000 0.000000 0.000000 0.046578 0.000000 0.000000
# 5 0.000000 0.000000 0.000000 0.000000 0.046579 0.000000
# 6 0.000000 0.000000 0.000000 0.000000 0.000000 0.040339
#
#
# Mechanical properties :
#
#
# Convention : Reuss Voigt Hill
#
# Bulk Modulus (GPa) = 39.85014 42.48324 41.16669
# Shear Modulus (GPa) = 24.13805 25.10226 24.62015
#
# Velocity S-wave (km/s) = 3.60598 3.67730 3.64181
# Velocity P-wave (km/s) = 6.22933 6.39653 6.31349
#
# Compressibility (1/GPa) = 0.02509402
#
# Stress axis : x y z
#
# Youngs Moduli (GPa) = 57.62083 57.62061 95.43915
#
# Poissons Ratio (x) = 0.22577 0.29245
# Poissons Ratio (y) = 0.22577 0.29245
# Poissons Ratio (z) = 0.17657 0.17657
#
# Static dielectric constant tensor:
#      x y z
#    x 1.694730 0.000000 0.000000 
#    y 0.000000 1.694730 0.000000 
#    z 0.000000 0.000000 1.645370 
# 
# From -- ./inp_files/5397.got.cif
#   From: 2010.05.17/outbox.cif.g08.bks.cpg/sg142_3_cif.got.tgz:5397.got - 2010.05.20 13:39:18.
