data_PCOD9573872
_publ_section_title
;
Structure prediction by ZEFSAII (Michael W. Deem and Ramdas Pophale) SiO2 
 PCOD9573872
Probable space group: I 41/A C D
;
_chemical_formula_sum "Si O2"
_cell_formula_units_Z 160
_cell_length_a 18.696120
_cell_length_b 18.696120
_cell_length_c 24.363705
_cell_angle_alpha 90.000000
_cell_angle_beta 90.000000
_cell_angle_gamma 90.000000
_cell_volume 8516.208902
_symmetry_space_group_name_H-M "I 41/A C D"
_symmetry_group_IT_number 142
_space_group.IT_coordinate_system_code '2'
_symmetry_cell_setting 'tetragonal'
loop_
_space_group_symop_operation_xyz
x,y,z
1/4-y,3/4+x,1/4+z
-x,1/2-y,z
1/4+y,1/4-x,3/4+z
x,-y,1/2-z
1/2-x,y,-z
3/4+y,1/4+x,1/4-z
1/4-y,1/4-x,1/4-z
-x,-y,-z
3/4+y,1/4-x,3/4-z
x,1/2+y,-z
3/4-y,3/4+x,1/4-z
-x,y,1/2+z
1/2+x,-y,z
1/4-y,3/4-x,3/4+z
3/4+y,3/4+x,3/4+z
1/2+x,1/2+y,1/2+z
3/4-y,1/4+x,3/4+z
1/2-x,-y,1/2+z
3/4+y,3/4-x,1/4+z
1/2+x,1/2-y,-z
-x,1/2+y,1/2-z
1/4+y,3/4+x,3/4-z
3/4-y,3/4-x,3/4-z
1/2-x,1/2-y,1/2-z
1/4+y,3/4-x,1/4-z
1/2+x,y,1/2-z
1/4-y,1/4+x,3/4-z
1/2-x,1/2+y,z
x,1/2-y,1/2+z
3/4-y,1/4-x,1/4+z
1/4+y,1/4+x,1/4+z
loop_
_atom_site_type_symbol
_atom_site_label
_atom_site_fract_x
_atom_site_fract_y
_atom_site_fract_z
Si Si1 0.905678 0.882245 0.569684
Si Si2 0.495999 0.634296 0.629387
Si Si3 0.921839 0.640613 0.559055
Si Si4 0.164882 0.734734 0.501889
Si Si5 0.438469 0.035321 0.964279
O O1 0.877719 0.856056 0.629157
O O2 0.860351 0.842911 0.522641
O O3 0.990606 0.859926 0.562674
O O4 0.898745 0.967839 0.562770
O O5 0.416640 0.666640 0.625000
O O6 0.551099 0.698902 0.625000
O O7 0.501638 0.605781 0.690127
O O8 0.521774 0.580228 0.582853
O O9 0.882419 0.713374 0.540707
O O10 0.900923 0.585927 0.509639
O O11 0.250000 0.742909 0.500000
O O12 0.500000 0.000000 0.000000
#
# Coordination Sequence:
#
# PCOD9573872 Si02
#       5
#    32  32  32  32  32
#     4  11  23  40  68  97 128 171 226 280 332 394
#     4  11  22  38  63  94 124 159 208 266 326 388
#     4  11  21  40  68  97 126 166 224 279 330 392
#     4  12  25  40  61  95 130 167 220 274 327 391
#     4  10  22  40  64  94 132 168 211 272 344 394
#
# _framework density 18.787703
#
# number of rings (size 3 to 8) (size 9 to 14) (size 15 to 20)
#    0.000    1.000    4.000    4.200    5.600    0.000 
#    0.000    1.000    0.000    0.000    0.000    0.000 
#    0.000    0.000    0.000    0.000    0.000    0.000 
#
# Total GULP energy -445764.529373 kJ/mol
# GULP energy per Si atom -5572.056617 kJ/mol
# Density = 1.874494 g / cm^3
# Si number density = 18.787703 Si / 1000 Ang^3
#
#
#
# Elastic Constant Matrix: (Units=GPa)
#
#
# Indices 1 2 3 4 5 6 
#
# 1 84.8133 30.9962 43.5645 0.0000 0.0000 0.0000
# 2 30.9962 84.8010 43.5629 0.0000 0.0000 0.0000
# 3 43.5645 43.5629 157.7059 0.0000 0.0000 0.0000
# 4 0.0000 0.0000 0.0000 39.9777 0.0000 0.0000
# 5 0.0000 0.0000 0.0000 0.0000 39.9720 0.0000
# 6 0.0000 0.0000 0.0000 0.0000 0.0000 7.8992
#
#
#
# Elastic Compliance Matrix: (Units=1/GPa)
#
#
# Indices 1 2 3 4 5 6 
#
# 1 0.014741 -0.003841 -0.003011 0.000000 0.000000 0.000000
# 2 -0.003841 0.014743 -0.003011 0.000000 0.000000 0.000000
# 3 -0.003011 -0.003011 0.008005 0.000000 0.000000 0.000000
# 4 0.000000 0.000000 0.000000 0.025014 0.000000 0.000000
# 5 0.000000 0.000000 0.000000 0.000000 0.025018 0.000000
# 6 0.000000 0.000000 0.000000 0.000000 0.000000 0.126594
#
#
# Mechanical properties :
#
#
# Convention : Reuss Voigt Hill
#
# Bulk Modulus (GPa) = 56.30161 62.61861 59.46011
# Shear Modulus (GPa) = 20.85395 31.51622 26.18508
#
# Velocity S-wave (km/s) = 3.33525 4.10016 3.73733
# Velocity P-wave (km/s) = 6.69807 7.47108 7.09511
#
# Compressibility (1/GPa) = 0.01776148
#
# Stress axis : x y z
#
# Youngs Moduli (GPa) = 67.83772 67.82704 124.92963
#
# Poissons Ratio (x) = 0.26055 0.37616
# Poissons Ratio (y) = 0.26059 0.37622
# Poissons Ratio (z) = 0.20426 0.20426
#
# Static dielectric constant tensor:
#      x y z
#    x 1.524250 0.000000 0.000000 
#    y 0.000000 1.524160 0.000000 
#    z 0.000000 0.000000 1.616960 
# 
# From -- ./inp_files/11319.got.cif
#   From: 2010.05.17/outbox.cif.g08.bks.cpg/sg142_6_cif.got.tgz:11319.got - 2010.05.20 13:39:18.
