data_PCOD9573402
_publ_section_title
;
Structure prediction by ZEFSAII (Michael W. Deem and Ramdas Pophale) SiO2 
 PCOD9573402
Probable space group: I 41/A C D
;
_chemical_formula_sum "Si O2"
_cell_formula_units_Z 120
_cell_length_a 17.213295
_cell_length_b 17.213295
_cell_length_c 18.197863
_cell_angle_alpha 90.000000
_cell_angle_beta 90.000000
_cell_angle_gamma 90.000000
_cell_volume 5391.981763
_symmetry_space_group_name_H-M "I 41/A C D"
_symmetry_group_IT_number 142
_space_group.IT_coordinate_system_code '2'
_symmetry_cell_setting 'tetragonal'
loop_
_space_group_symop_operation_xyz
x,y,z
1/4-y,3/4+x,1/4+z
-x,1/2-y,z
1/4+y,1/4-x,3/4+z
x,-y,1/2-z
1/2-x,y,-z
3/4+y,1/4+x,1/4-z
1/4-y,1/4-x,1/4-z
-x,-y,-z
3/4+y,1/4-x,3/4-z
x,1/2+y,-z
3/4-y,3/4+x,1/4-z
-x,y,1/2+z
1/2+x,-y,z
1/4-y,3/4-x,3/4+z
3/4+y,3/4+x,3/4+z
1/2+x,1/2+y,1/2+z
3/4-y,1/4+x,3/4+z
1/2-x,-y,1/2+z
3/4+y,3/4-x,1/4+z
1/2+x,1/2-y,-z
-x,1/2+y,1/2-z
1/4+y,3/4+x,3/4-z
3/4-y,3/4-x,3/4-z
1/2-x,1/2-y,1/2-z
1/4+y,3/4-x,1/4-z
1/2+x,y,1/2-z
1/4-y,1/4+x,3/4-z
1/2-x,1/2+y,z
x,1/2-y,1/2+z
3/4-y,1/4-x,1/4+z
1/4+y,1/4+x,1/4+z
loop_
_atom_site_type_symbol
_atom_site_label
_atom_site_fract_x
_atom_site_fract_y
_atom_site_fract_z
Si Si1 0.293434 0.830718 0.152752
Si Si2 0.500000 0.250000 0.625000
Si Si3 0.750000 0.678117 0.000000
Si Si4 0.329549 0.965605 0.830113
Si Si5 0.086014 0.889206 0.047833
O O1 0.361397 0.888604 0.125000
O O2 0.221434 0.886120 0.176271
O O3 0.324941 0.792969 0.227341
O O4 0.273479 0.784540 0.077919
O O5 0.561153 0.204405 0.675304
O O6 0.674903 0.627368 0.977559
O O7 0.401627 0.943368 0.881788
O O8 0.346971 0.000000 0.750000
O O9 0.276280 0.026280 0.875000
#
# Coordination Sequence:
#
# PCOD9573402 Si02
#       5
#    32   8  16  32  32
#     4   8  14  27  56  94 119 151 199 272 346 394
#     4  12  28  44  54  84 148 208 230 260 340 450
#     4   8  16  34  64  92 114 156 232 286 332 392
#     4  10  16  29  61  98 123 151 214 299 356 394
#     4  10  20  38  60  91 135 182 220 276 347 419
#
# _framework density 22.255268999999998
#
# number of rings (size 3 to 8) (size 9 to 14) (size 15 to 20)
#    0.000    2.667    2.667    1.600    3.733    0.000 
#    2.400   11.333    0.000    3.200    0.000    0.000 
#    0.000    0.000    0.000    0.000    0.000    0.000 
#
# Total GULP energy -334437.976002 kJ/mol
# GULP energy per Si atom -5573.966267 kJ/mol
# Density = 2.220461 g / cm^3
# Si number density = 22.255269 Si / 1000 Ang^3
#
#
#
# Elastic Constant Matrix: (Units=GPa)
#
#
# Indices 1 2 3 4 5 6 
#
# 1 57.4099 41.7677 62.0522 0.0000 0.0000 0.0000
# 2 41.7677 57.4099 62.0523 0.0001 -0.0001 0.0000
# 3 62.0522 62.0523 228.5795 0.0001 0.0000 0.0000
# 4 0.0000 0.0001 0.0001 1211.8310 0.0010 0.0000
# 5 0.0000 -0.0001 0.0000 0.0010 1210.5218 0.0000
# 6 0.0000 0.0000 0.0000 0.0000 0.0000 5.9910
#
#
#
# Elastic Compliance Matrix: (Units=1/GPa)
#
#
# Indices 1 2 3 4 5 6 
#
# 1 0.039600 -0.024330 -0.004145 0.000000 0.000000 0.000000
# 2 -0.024330 0.039600 -0.004145 0.000000 0.000000 0.000000
# 3 -0.004145 -0.004145 0.006626 0.000000 0.000000 0.000000
# 4 0.000000 0.000000 0.000000 0.000825 0.000000 0.000000
# 5 0.000000 0.000000 0.000000 0.000000 0.000826 0.000000
# 6 0.000000 0.000000 0.000000 0.000000 0.000000 0.166917
#
#
# Mechanical properties :
#
#
# Convention : Reuss Voigt Hill
#
# Bulk Modulus (GPa) = 48.58051 75.01596 61.79823
# Shear Modulus (GPa) = 15.31414 497.50391 256.40902
#
# Velocity S-wave (km/s) = 2.62604 14.96762 10.74536
# Velocity P-wave (km/s) = 5.57413 18.23421 13.48253
#
# Compressibility (1/GPa) = 0.02058439
#
# Stress axis : x y z
#
# Youngs Moduli (GPa) = 25.25263 25.25259 150.93127
#
# Poissons Ratio (x) = 0.61439 0.62566
# Poissons Ratio (y) = 0.61439 0.62567
# Poissons Ratio (z) = 0.10468 0.10468
#
# Static dielectric constant tensor:
#      x y z
#    x 1.847380 0.000000 0.000000 
#    y 0.000000 1.847380 0.000000 
#    z 0.000000 0.000000 1.883650 
# 
# From -- ./inp_files/5074.got.cif
#   From: 2010.05.17/outbox.cif.g08.bks.cpg/sg142_3_cif.got.tgz:5074.got - 2010.05.20 13:39:18.
