data_PCOD9573729
_publ_section_title
;
Structure prediction by ZEFSAII (Michael W. Deem and Ramdas Pophale) SiO2 
 PCOD9573729
Probable space group: I 41/A C D
;
_chemical_formula_sum "Si O2"
_cell_formula_units_Z 104
_cell_length_a 17.205929
_cell_length_b 17.205929
_cell_length_c 15.217693
_cell_angle_alpha 90.000000
_cell_angle_beta 90.000000
_cell_angle_gamma 90.000000
_cell_volume 4505.106596
_symmetry_space_group_name_H-M "I 41/A C D"
_symmetry_group_IT_number 142
_space_group.IT_coordinate_system_code '2'
_symmetry_cell_setting 'tetragonal'
loop_
_space_group_symop_operation_xyz
x,y,z
1/4-y,3/4+x,1/4+z
-x,1/2-y,z
1/4+y,1/4-x,3/4+z
x,-y,1/2-z
1/2-x,y,-z
3/4+y,1/4+x,1/4-z
1/4-y,1/4-x,1/4-z
-x,-y,-z
3/4+y,1/4-x,3/4-z
x,1/2+y,-z
3/4-y,3/4+x,1/4-z
-x,y,1/2+z
1/2+x,-y,z
1/4-y,3/4-x,3/4+z
3/4+y,3/4+x,3/4+z
1/2+x,1/2+y,1/2+z
3/4-y,1/4+x,3/4+z
1/2-x,-y,1/2+z
3/4+y,3/4-x,1/4+z
1/2+x,1/2-y,-z
-x,1/2+y,1/2-z
1/4+y,3/4+x,3/4-z
3/4-y,3/4-x,3/4-z
1/2-x,1/2-y,1/2-z
1/4+y,3/4-x,1/4-z
1/2+x,y,1/2-z
1/4-y,1/4+x,3/4-z
1/2-x,1/2+y,z
x,1/2-y,1/2+z
3/4-y,1/4-x,1/4+z
1/4+y,1/4+x,1/4+z
loop_
_atom_site_type_symbol
_atom_site_label
_atom_site_fract_x
_atom_site_fract_y
_atom_site_fract_z
Si Si1 0.000000 0.750000 0.625000
Si Si2 0.642525 0.486570 0.645924
Si Si3 0.903342 0.855238 0.519904
Si Si4 0.857055 0.738965 0.382064
O O1 0.980336 0.822770 0.566389
O O2 0.633717 0.500000 0.750000
O O3 0.724090 0.525911 0.625000
O O4 0.638844 0.405842 0.593658
O O5 0.571332 0.539179 0.611378
O O6 0.858420 0.781121 0.477682
O O7 0.940216 0.898914 0.436642
O O8 0.936889 0.686889 0.375000
#
# Coordination Sequence:
#
# PCOD9573729 Si02
#       4
#     8  32  32  32
#     4  12  20  34  72 112 128 174 236 300 350 412
#     4  11  26  47  64  97 143 193 230 284 356 431
#     4  11  21  39  71 102 138 178 230 297 348 421
#     4  10  20  43  69 107 139 178 240 292 360 423
#
# _framework density 23.084914000000001
#
# number of rings (size 3 to 8) (size 9 to 14) (size 15 to 20)
#    0.000    1.231    3.077    3.692    4.308    0.000 
#   11.077    0.000    0.000    0.000    0.000    0.000 
#    0.000    0.000    0.000    0.000    0.000    0.000 
#
# Total GULP energy -290001.067553 kJ/mol
# GULP energy per Si atom -5576.943607 kJ/mol
# Density = 2.303237 g / cm^3
# Si number density = 23.084914 Si / 1000 Ang^3
#
#
#
# Elastic Constant Matrix: (Units=GPa)
#
#
# Indices 1 2 3 4 5 6 
#
# 1 61.5127 29.4291 28.2009 0.0000 0.0000 0.0000
# 2 29.4291 61.5148 28.1971 0.0000 0.0000 0.0000
# 3 28.2009 28.1971 116.5510 0.0000 0.0000 0.0000
# 4 0.0000 0.0000 0.0000 4.0710 0.0000 0.0000
# 5 0.0000 0.0000 0.0000 0.0000 4.0761 0.0000
# 6 0.0000 0.0000 0.0000 0.0000 0.0000 21.1867
#
#
#
# Elastic Compliance Matrix: (Units=1/GPa)
#
#
# Indices 1 2 3 4 5 6 
#
# 1 0.022053 -0.009115 -0.003131 0.000000 0.000000 0.000000
# 2 -0.009115 0.022051 -0.003129 0.000000 0.000000 0.000000
# 3 -0.003131 -0.003129 0.010095 0.000000 0.000000 0.000000
# 4 0.000000 0.000000 0.000000 0.245639 0.000000 0.000000
# 5 0.000000 0.000000 0.000000 0.000000 0.245332 0.000000
# 6 0.000000 0.000000 0.000000 0.000000 0.000000 0.047199
#
#
# Mechanical properties :
#
#
# Convention : Reuss Voigt Hill
#
# Bulk Modulus (GPa) = 42.64691 45.69252 44.16971
# Shear Modulus (GPa) = 7.92472 16.11685 12.02078
#
# Velocity S-wave (km/s) = 1.85481 2.64513 2.28441
# Velocity P-wave (km/s) = 4.80636 5.40048 5.11206
#
# Compressibility (1/GPa) = 0.02344836
#
# Stress axis : x y z
#
# Youngs Moduli (GPa) = 45.34514 45.34844 99.06340
#
# Poissons Ratio (x) = 0.41336 0.31014
# Poissons Ratio (y) = 0.41333 0.31001
# Poissons Ratio (z) = 0.14196 0.14191
#
# Static dielectric constant tensor:
#      x y z
#    x 1.865190 0.000000 0.000000 
#    y 0.000000 1.865190 0.000000 
#    z 0.000000 0.000000 2.020540 
# 
# From -- ./inp_files/6707.got.cif
#   From: 2010.05.17/outbox.cif.g08.bks.cpg/sg142_4_cif.got.tgz:6707.got - 2010.05.20 13:39:18.
