data_PCOD9573490
_publ_section_title
;
Structure prediction by ZEFSAII (Michael W. Deem and Ramdas Pophale) SiO2 
 PCOD9573490
Probable space group: I 41/A C D
;
_chemical_formula_sum "Si O2"
_cell_formula_units_Z 128
_cell_length_a 23.095427
_cell_length_b 23.095427
_cell_length_c 11.504188
_cell_angle_alpha 90.000000
_cell_angle_beta 90.000000
_cell_angle_gamma 90.000000
_cell_volume 6136.319480
_symmetry_space_group_name_H-M "I 41/A C D"
_symmetry_group_IT_number 142
_space_group.IT_coordinate_system_code '2'
_symmetry_cell_setting 'tetragonal'
loop_
_space_group_symop_operation_xyz
x,y,z
1/4-y,3/4+x,1/4+z
-x,1/2-y,z
1/4+y,1/4-x,3/4+z
x,-y,1/2-z
1/2-x,y,-z
3/4+y,1/4+x,1/4-z
1/4-y,1/4-x,1/4-z
-x,-y,-z
3/4+y,1/4-x,3/4-z
x,1/2+y,-z
3/4-y,3/4+x,1/4-z
-x,y,1/2+z
1/2+x,-y,z
1/4-y,3/4-x,3/4+z
3/4+y,3/4+x,3/4+z
1/2+x,1/2+y,1/2+z
3/4-y,1/4+x,3/4+z
1/2-x,-y,1/2+z
3/4+y,3/4-x,1/4+z
1/2+x,1/2-y,-z
-x,1/2+y,1/2-z
1/4+y,3/4+x,3/4-z
3/4-y,3/4-x,3/4-z
1/2-x,1/2-y,1/2-z
1/4+y,3/4-x,1/4-z
1/2+x,y,1/2-z
1/4-y,1/4+x,3/4-z
1/2-x,1/2+y,z
x,1/2-y,1/2+z
3/4-y,1/4-x,1/4+z
1/4+y,1/4+x,1/4+z
loop_
_atom_site_type_symbol
_atom_site_label
_atom_site_fract_x
_atom_site_fract_y
_atom_site_fract_z
Si Si1 0.174245 0.068209 0.273796
Si Si2 0.679432 0.790554 0.004432
Si Si3 0.203640 0.401218 0.231521
Si Si4 0.980740 0.067065 0.008569
O O1 0.109111 0.083703 0.241143
O O2 0.176675 0.080327 0.410445
O O3 0.229559 0.102108 0.227390
O O4 0.185056 0.000000 0.250000
O O5 0.658629 0.763032 0.126522
O O6 0.750000 0.785751 0.000000
O O7 0.660004 0.765827 0.876393
O O8 0.193380 0.443380 0.125000
O O9 0.182340 0.336992 0.208561
O O10 0.000000 0.000000 0.000000
#
# Coordination Sequence:
#
# PCOD9573490 Si02
#       4
#    32  32  32  32
#     4  10  19  31  45  67 101 136 170 209 256 315
#     4   8  16  30  47  65  89 126 171 215 250 295
#     4  11  21  31  47  73 104 137 173 212 261 317
#     4   9  18  32  48  67  93 131 176 216 251 299
#
# _framework density 20.859408999999999
#
# number of rings (size 3 to 8) (size 9 to 14) (size 15 to 20)
#    0.000    2.500    0.000    4.500    0.000    6.000 
#    0.000    0.000    0.000    0.000    0.000    0.000 
#    0.000    4.000    0.000   53.000    0.000   29.000 
#
# Total GULP energy -356372.094817 kJ/mol
# GULP energy per Si atom -5568.313982 kJ/mol
# Density = 2.081193 g / cm^3
# Si number density = 20.859409 Si / 1000 Ang^3
#
#
#
# Elastic Constant Matrix: (Units=GPa)
#
#
# Indices 1 2 3 4 5 6 
#
# 1 34.6962 -0.2771 33.8498 0.0000 0.0000 0.0000
# 2 -0.2771 34.6962 33.8498 0.0000 0.0000 0.0000
# 3 33.8498 33.8498 194.5933 0.0000 0.0000 0.0000
# 4 0.0000 0.0000 0.0000 25.2463 0.0000 0.0000
# 5 0.0000 0.0000 0.0000 0.0000 25.2463 0.0000
# 6 0.0000 0.0000 0.0000 0.0000 0.0000 1.7833
#
#
#
# Elastic Compliance Matrix: (Units=1/GPa)
#
#
# Indices 1 2 3 4 5 6 
#
# 1 0.036379 0.007786 -0.007682 0.000000 0.000000 0.000000
# 2 0.007786 0.036379 -0.007682 0.000000 0.000000 0.000000
# 3 -0.007682 -0.007682 0.007812 0.000000 0.000000 0.000000
# 4 0.000000 0.000000 0.000000 0.039610 0.000000 0.000000
# 5 0.000000 0.000000 0.000000 0.000000 0.039610 0.000000
# 6 0.000000 0.000000 0.000000 0.000000 0.000000 0.560751
#
#
# Mechanical properties :
#
#
# Convention : Reuss Voigt Hill
#
# Bulk Modulus (GPa) = 15.28807 44.31451 29.80129
# Shear Modulus (GPa) = 6.60064 23.55938 15.08001
#
# Velocity S-wave (km/s) = 1.78079 3.36436 2.69166
# Velocity P-wave (km/s) = 3.40195 6.03178 4.89672
#
# Compressibility (1/GPa) = 0.06541049
#
# Stress axis : x y z
#
# Youngs Moduli (GPa) = 27.48856 27.48856 128.01371
#
# Poissons Ratio (x) = -0.21401 0.98346
# Poissons Ratio (y) = -0.21401 0.98346
# Poissons Ratio (z) = 0.21118 0.21118
#
# Static dielectric constant tensor:
#      x y z
#    x 1.827980 0.000000 0.000000 
#    y 0.000000 1.827980 0.000000 
#    z 0.000000 0.000000 1.902430 
# 
# From -- ./inp_files/3456.got.cif
#   From: 2010.05.17/outbox.cif.g08.bks.cpg/sg142_2_cif.got.tgz:3456.got - 2010.05.20 13:39:18.
