data_PCOD9573457
_publ_section_title
;
Structure prediction by ZEFSAII (Michael W. Deem and Ramdas Pophale) SiO2 
 PCOD9573457
Probable space group: I 41/A C D
;
_chemical_formula_sum "Si O2"
_cell_formula_units_Z 216
_cell_length_a 23.381902
_cell_length_b 23.381902
_cell_length_c 18.485695
_cell_angle_alpha 90.000000
_cell_angle_beta 90.000000
_cell_angle_gamma 90.000000
_cell_volume 10106.376077
_symmetry_space_group_name_H-M "I 41/A C D"
_symmetry_group_IT_number 142
_space_group.IT_coordinate_system_code '2'
_symmetry_cell_setting 'tetragonal'
loop_
_space_group_symop_operation_xyz
x,y,z
1/4-y,3/4+x,1/4+z
-x,1/2-y,z
1/4+y,1/4-x,3/4+z
x,-y,1/2-z
1/2-x,y,-z
3/4+y,1/4+x,1/4-z
1/4-y,1/4-x,1/4-z
-x,-y,-z
3/4+y,1/4-x,3/4-z
x,1/2+y,-z
3/4-y,3/4+x,1/4-z
-x,y,1/2+z
1/2+x,-y,z
1/4-y,3/4-x,3/4+z
3/4+y,3/4+x,3/4+z
1/2+x,1/2+y,1/2+z
3/4-y,1/4+x,3/4+z
1/2-x,-y,1/2+z
3/4+y,3/4-x,1/4+z
1/2+x,1/2-y,-z
-x,1/2+y,1/2-z
1/4+y,3/4+x,3/4-z
3/4-y,3/4-x,3/4-z
1/2-x,1/2-y,1/2-z
1/4+y,3/4-x,1/4-z
1/2+x,y,1/2-z
1/4-y,1/4+x,3/4-z
1/2-x,1/2+y,z
x,1/2-y,1/2+z
3/4-y,1/4-x,1/4+z
1/4+y,1/4+x,1/4+z
loop_
_atom_site_type_symbol
_atom_site_label
_atom_site_fract_x
_atom_site_fract_y
_atom_site_fract_z
Si Si1 0.444784 0.500000 0.750000
Si Si2 0.961397 0.550640 0.144876
Si Si3 0.636210 0.937699 0.234712
Si Si4 0.979815 0.373950 0.590195
Si Si5 0.000000 0.250000 0.125000
Si Si6 0.917065 0.874333 0.268729
Si Si7 0.972521 0.824056 0.599642
Si Si8 0.414527 0.049832 0.927438
O O1 0.488436 0.513613 0.816917
O O2 0.407800 0.441480 0.754585
O O3 0.913590 0.565240 0.205531
O O4 0.982533 0.610282 0.115485
O O5 0.932272 0.515800 0.079700
O O6 0.606979 0.938095 0.155268
O O7 0.680181 0.885215 0.231160
O O8 0.663794 0.000000 0.250000
O O9 0.971234 0.377859 0.676563
O O10 0.915719 0.380009 0.558727
O O11 0.998318 0.308169 0.579309
O O12 0.028057 0.414361 0.560252
O O13 0.930034 0.832536 0.202125
O O14 0.952496 0.784731 0.667528
#
# Coordination Sequence:
#
# PCOD9573457 Si02
#       8
#    16  32  32  32   8  32  32  32
#     4  12  18  40  64  84 124 174 224 244 330 418
#     4  11  20  37  63  88 121 178 215 260 326 396
#     4   9  18  31  55  93 123 161 209 267 321 368
#     4  10  20  34  57  90 118 158 216 271 316 374
#     4   8  16  24  44  84 118 140 172 244 312 358
#     4  10  22  38  60  88 123 168 210 266 327 400
#     4  11  25  39  57  92 138 168 199 258 337 414
#     4  10  18  33  60  91 117 161 220 276 308 383
#
# _framework density 21.372646
#
# number of rings (size 3 to 8) (size 9 to 14) (size 15 to 20)
#    0.000    1.926    5.185    0.889    2.074    5.926 
#    0.000    0.741    8.148    0.000    0.000    0.000 
#    0.000    0.000    0.000    0.000    0.000    0.000 
#
# Total GULP energy -601372.109628 kJ/mol
# GULP energy per Si atom -5568.260274 kJ/mol
# Density = 2.132400 g / cm^3
# Si number density = 21.372646 Si / 1000 Ang^3
#
#
#
# Elastic Constant Matrix: (Units=GPa)
#
#
# Indices 1 2 3 4 5 6 
#
# 1 108.2627 37.8941 12.2831 0.0000 0.0000 0.0000
# 2 37.8941 108.2627 12.2831 0.0000 0.0000 0.0000
# 3 12.2831 12.2831 40.1672 0.0000 0.0000 0.0000
# 4 0.0000 0.0000 0.0000 10.8631 0.0000 0.0000
# 5 0.0000 0.0000 0.0000 0.0000 10.8631 0.0000
# 6 0.0000 0.0000 0.0000 0.0000 0.0000 24.6719
#
#
#
# Elastic Compliance Matrix: (Units=1/GPa)
#
#
# Indices 1 2 3 4 5 6 
#
# 1 0.010712 -0.003499 -0.002206 0.000000 0.000000 0.000000
# 2 -0.003499 0.010712 -0.002206 0.000000 0.000000 0.000000
# 3 -0.002206 -0.002206 0.026245 0.000000 0.000000 0.000000
# 4 0.000000 0.000000 0.000000 0.092055 0.000000 0.000000
# 5 0.000000 0.000000 0.000000 0.000000 0.092055 0.000000
# 6 0.000000 0.000000 0.000000 0.000000 0.000000 0.040532
#
#
# Mechanical properties :
#
#
# Convention : Reuss Voigt Hill
#
# Bulk Modulus (GPa) = 31.39941 42.40146 36.90044
# Shear Modulus (GPa) = 16.73660 22.22845 19.48252
#
# Velocity S-wave (km/s) = 2.80140 3.22847 3.02249
# Velocity P-wave (km/s) = 5.01867 5.81202 5.42985
#
# Compressibility (1/GPa) = 0.03184774
#
# Stress axis : x y z
#
# Youngs Moduli (GPa) = 93.35514 93.35514 38.10268
#
# Poissons Ratio (x) = 0.32666 0.08404
# Poissons Ratio (y) = 0.32666 0.08404
# Poissons Ratio (z) = 0.20591 0.20591
#
# Static dielectric constant tensor:
#      x y z
#    x 1.803750 0.000000 0.000000 
#    y 0.000000 1.803750 0.000000 
#    z 0.000000 0.000000 1.899520 
# 
# From -- ./inp_files/9261.got.cif
#   From: 2010.05.17/outbox.cif.g08.bks.cpg/sg142_5_cif.got.tgz:9261.got - 2010.05.20 13:39:18.
