data_PCOD9573944
_publ_section_title
;
Structure prediction by ZEFSAII (Michael W. Deem and Ramdas Pophale) SiO2 
 PCOD9573944
Probable space group: I 41/A C D
;
_chemical_formula_sum "Si O2"
_cell_formula_units_Z 160
_cell_length_a 30.910749
_cell_length_b 30.910749
_cell_length_c 8.129169
_cell_angle_alpha 90.000000
_cell_angle_beta 90.000000
_cell_angle_gamma 90.000000
_cell_volume 7767.212903
_symmetry_space_group_name_H-M "I 41/A C D"
_symmetry_group_IT_number 142
_space_group.IT_coordinate_system_code '2'
_symmetry_cell_setting 'tetragonal'
loop_
_space_group_symop_operation_xyz
x,y,z
1/4-y,3/4+x,1/4+z
-x,1/2-y,z
1/4+y,1/4-x,3/4+z
x,-y,1/2-z
1/2-x,y,-z
3/4+y,1/4+x,1/4-z
1/4-y,1/4-x,1/4-z
-x,-y,-z
3/4+y,1/4-x,3/4-z
x,1/2+y,-z
3/4-y,3/4+x,1/4-z
-x,y,1/2+z
1/2+x,-y,z
1/4-y,3/4-x,3/4+z
3/4+y,3/4+x,3/4+z
1/2+x,1/2+y,1/2+z
3/4-y,1/4+x,3/4+z
1/2-x,-y,1/2+z
3/4+y,3/4-x,1/4+z
1/2+x,1/2-y,-z
-x,1/2+y,1/2-z
1/4+y,3/4+x,3/4-z
3/4-y,3/4-x,3/4-z
1/2-x,1/2-y,1/2-z
1/4+y,3/4-x,1/4-z
1/2+x,y,1/2-z
1/4-y,1/4+x,3/4-z
1/2-x,1/2+y,z
x,1/2-y,1/2+z
3/4-y,1/4-x,1/4+z
1/4+y,1/4+x,1/4+z
loop_
_atom_site_type_symbol
_atom_site_label
_atom_site_fract_x
_atom_site_fract_y
_atom_site_fract_z
Si Si1 0.062664 0.884198 0.359641
Si Si2 0.250000 0.057742 0.000000
Si Si3 0.115444 0.939652 0.129197
Si Si4 0.140700 0.274509 0.967919
Si Si5 0.610836 0.139165 0.875000
Si Si6 0.540452 0.022814 0.911363
O O1 0.092333 0.842333 0.375000
O O2 0.093569 0.922586 0.296831
O O3 0.040888 0.895471 0.532919
O O4 0.024467 0.874446 0.229446
O O5 0.216253 0.090743 0.909975
O O6 0.277418 0.027418 0.875000
O O7 0.120235 0.896598 0.016298
O O8 0.078600 0.967703 0.038417
O O9 0.114983 0.312692 0.056327
O O10 0.184447 0.272653 0.073017
O O11 0.559583 0.000000 0.750000
O O12 0.500000 0.000000 0.000000
#
# Coordination Sequence:
#
# PCOD9573944 Si02
#       6
#    32  16  32  32  16  32
#     4  12  24  44  73 103 145 192 244 300 359 441
#     4  12  32  52  74 100 142 188 252 308 378 446
#     4  11  26  46  75 105 141 193 241 304 373 456
#     4  11  24  41  70 102 148 188 242 293 364 431
#     4  10  22  46  71 104 142 192 242 286 382 432
#     4  11  24  40  68 110 149 182 230 305 375 440
#
# _framework density 20.599409000000001
#
# number of rings (size 3 to 8) (size 9 to 14) (size 15 to 20)
#    0.000    0.800    2.000    5.400    8.400    1.600 
#    0.000    0.500    0.000    0.000    0.000    0.000 
#    0.000    0.000    0.000    0.000    0.000    0.000 
#
# Total GULP energy -447072.546306 kJ/mol
# GULP energy per Si atom -5588.406829 kJ/mol
# Density = 2.055252 g / cm^3
# Si number density = 20.599409 Si / 1000 Ang^3
#
#
#
# Elastic Constant Matrix: (Units=GPa)
#
#
# Indices 1 2 3 4 5 6 
#
# 1 105.8373 88.2958 58.5476 0.0000 0.0000 0.0000
# 2 88.2958 105.8367 58.5472 0.0000 0.0000 0.0000
# 3 58.5476 58.5472 124.5948 0.0000 0.0000 0.0000
# 4 0.0000 0.0000 0.0000 28.5910 0.0000 0.0000
# 5 0.0000 0.0000 0.0000 0.0000 28.5920 0.0000
# 6 0.0000 0.0000 0.0000 0.0000 0.0000 34.1615
#
#
#
# Elastic Compliance Matrix: (Units=1/GPa)
#
#
# Indices 1 2 3 4 5 6 
#
# 1 0.032099 -0.024910 -0.003378 0.000000 0.000000 0.000000
# 2 -0.024910 0.032099 -0.003378 0.000000 0.000000 0.000000
# 3 -0.003378 -0.003378 0.011201 0.000000 0.000000 0.000000
# 4 0.000000 0.000000 0.000000 0.034976 0.000000 0.000000
# 5 0.000000 0.000000 0.000000 0.000000 0.034975 0.000000
# 6 0.000000 0.000000 0.000000 0.000000 0.000000 0.029273
#
#
# Mechanical properties :
#
#
# Convention : Reuss Voigt Hill
#
# Bulk Modulus (GPa) = 82.87723 83.00558 82.94141
# Shear Modulus (GPa) = 20.66326 26.99409 23.82868
#
# Velocity S-wave (km/s) = 3.17061 3.62391 3.40481
# Velocity P-wave (km/s) = 7.32966 7.60874 7.47050
#
# Compressibility (1/GPa) = 0.01206604
#
# Stress axis : x y z
#
# Youngs Moduli (GPa) = 31.15404 31.15395 89.28084
#
# Poissons Ratio (x) = 0.77605 0.30159
# Poissons Ratio (y) = 0.77605 0.30158
# Poissons Ratio (z) = 0.10524 0.10523
#
# Static dielectric constant tensor:
#      x y z
#    x 1.715530 0.000000 0.000000 
#    y 0.000000 1.715590 0.000000 
#    z 0.000000 0.000000 1.724420 
# 
# From -- ./inp_files/2249.got.cif
#   From: 2010.05.17/outbox.cif.g08.bks.cpg/sg142_2_cif.got.tgz:2249.got - 2010.05.20 13:39:18.
