data_PCOD9573405
_publ_section_title
;
Structure prediction by ZEFSAII (Michael W. Deem and Ramdas Pophale) SiO2 
 PCOD9573405
Probable space group: I 41/A C D
;
_chemical_formula_sum "Si O2"
_cell_formula_units_Z 128
_cell_length_a 18.938790
_cell_length_b 18.938790
_cell_length_c 15.088005
_cell_angle_alpha 90.000000
_cell_angle_beta 90.000000
_cell_angle_gamma 90.000000
_cell_volume 5411.731937
_symmetry_space_group_name_H-M "I 41/A C D"
_symmetry_group_IT_number 142
_space_group.IT_coordinate_system_code '2'
_symmetry_cell_setting 'tetragonal'
loop_
_space_group_symop_operation_xyz
x,y,z
1/4-y,3/4+x,1/4+z
-x,1/2-y,z
1/4+y,1/4-x,3/4+z
x,-y,1/2-z
1/2-x,y,-z
3/4+y,1/4+x,1/4-z
1/4-y,1/4-x,1/4-z
-x,-y,-z
3/4+y,1/4-x,3/4-z
x,1/2+y,-z
3/4-y,3/4+x,1/4-z
-x,y,1/2+z
1/2+x,-y,z
1/4-y,3/4-x,3/4+z
3/4+y,3/4+x,3/4+z
1/2+x,1/2+y,1/2+z
3/4-y,1/4+x,3/4+z
1/2-x,-y,1/2+z
3/4+y,3/4-x,1/4+z
1/2+x,1/2-y,-z
-x,1/2+y,1/2-z
1/4+y,3/4+x,3/4-z
3/4-y,3/4-x,3/4-z
1/2-x,1/2-y,1/2-z
1/4+y,3/4-x,1/4-z
1/2+x,y,1/2-z
1/4-y,1/4+x,3/4-z
1/2-x,1/2+y,z
x,1/2-y,1/2+z
3/4-y,1/4-x,1/4+z
1/4+y,1/4+x,1/4+z
loop_
_atom_site_type_symbol
_atom_site_label
_atom_site_fract_x
_atom_site_fract_y
_atom_site_fract_z
Si Si1 0.296601 0.288783 0.674652
Si Si2 0.163324 0.233144 0.064190
Si Si3 0.328911 0.106820 0.477697
Si Si4 0.578650 0.217839 0.251646
O O1 0.250000 0.250000 0.750000
O O2 0.383645 0.241074 0.844441
O O3 0.317835 0.365322 0.710318
O O4 0.369810 0.245020 0.674858
O O5 0.163760 0.308610 0.017071
O O6 0.071761 0.133258 0.241904
O O7 0.241709 0.211228 0.093990
O O8 0.250000 0.086095 0.500000
O O9 0.341090 0.091090 0.375000
O O10 0.500000 0.250000 0.246123
#
# Coordination Sequence:
#
# PCOD9573405 Si02
#       4
#    32  32  32  32
#     4  10  20  36  66  93 131 164 232 293 325 422
#     4  10  19  36  65  99 122 172 229 282 339 413
#     4  12  23  43  65  92 138 188 227 285 362 415
#     4  10  16  31  67  93 122 171 224 264 338 414
#
# _framework density 23.652317
#
# number of rings (size 3 to 8) (size 9 to 14) (size 15 to 20)
#    0.000    1.500    7.500    1.500    0.000    0.000 
#    9.000    2.500    0.000    0.000    0.000    0.000 
#    0.000    0.000    0.000    0.000    0.000    0.000 
#
# Total GULP energy -358331.522213 kJ/mol
# GULP energy per Si atom -5598.930035 kJ/mol
# Density = 2.359848 g / cm^3
# Si number density = 23.652317 Si / 1000 Ang^3
#
#
#
# Elastic Constant Matrix: (Units=GPa)
#
#
# Indices 1 2 3 4 5 6 
#
# 1 205.7328 84.5734 55.1962 0.0000 0.0000 0.0000
# 2 84.5734 205.7328 55.1962 0.0000 0.0000 0.0000
# 3 55.1962 55.1962 117.7112 0.0000 0.0000 0.0000
# 4 0.0000 0.0000 0.0000 30.3273 0.0000 0.0000
# 5 0.0000 0.0000 0.0000 0.0000 30.3273 0.0000
# 6 0.0000 0.0000 0.0000 0.0000 0.0000 40.0794
#
#
#
# Elastic Compliance Matrix: (Units=1/GPa)
#
#
# Indices 1 2 3 4 5 6 
#
# 1 0.006223 -0.002031 -0.001966 0.000000 0.000000 0.000000
# 2 -0.002031 0.006223 -0.001966 0.000000 0.000000 0.000000
# 3 -0.001966 -0.001966 0.010339 0.000000 0.000000 0.000000
# 4 0.000000 0.000000 0.000000 0.032974 0.000000 0.000000
# 5 0.000000 0.000000 0.000000 0.000000 0.032974 0.000000
# 6 0.000000 0.000000 0.000000 0.000000 0.000000 0.024950
#
#
# Mechanical properties :
#
#
# Convention : Reuss Voigt Hill
#
# Bulk Modulus (GPa) = 92.07942 102.12315 97.10128
# Shear Modulus (GPa) = 38.69166 42.42753 40.55959
#
# Velocity S-wave (km/s) = 4.04895 4.23992 4.14554
# Velocity P-wave (km/s) = 7.80215 8.19999 8.00354
#
# Compressibility (1/GPa) = 0.01086019
#
# Stress axis : x y z
#
# Youngs Moduli (GPa) = 160.69778 160.69778 96.72223
#
# Poissons Ratio (x) = 0.32633 0.19013
# Poissons Ratio (y) = 0.32633 0.19013
# Poissons Ratio (z) = 0.31589 0.31589
#
# Static dielectric constant tensor:
#      x y z
#    x 1.856540 0.000000 0.000000 
#    y 0.000000 1.856540 0.000000 
#    z 0.000000 0.000000 2.277470 
# 
# From -- ./inp_files/7099.got.cif
#   From: 2010.05.17/outbox.cif.g08.bks.cpg/sg142_4_cif.got.tgz:7099.got - 2010.05.20 13:39:18.
