data_PCOD9573671
_publ_section_title
;
Structure prediction by ZEFSAII (Michael W. Deem and Ramdas Pophale) SiO2 
 PCOD9573671
Probable space group: I 41/A C D
;
_chemical_formula_sum "Si O2"
_cell_formula_units_Z 176
_cell_length_a 17.977405
_cell_length_b 17.977405
_cell_length_c 29.084535
_cell_angle_alpha 90.000000
_cell_angle_beta 90.000000
_cell_angle_gamma 90.000000
_cell_volume 9399.746246
_symmetry_space_group_name_H-M "I 41/A C D"
_symmetry_group_IT_number 142
_space_group.IT_coordinate_system_code '2'
_symmetry_cell_setting 'tetragonal'
loop_
_space_group_symop_operation_xyz
x,y,z
1/4-y,3/4+x,1/4+z
-x,1/2-y,z
1/4+y,1/4-x,3/4+z
x,-y,1/2-z
1/2-x,y,-z
3/4+y,1/4+x,1/4-z
1/4-y,1/4-x,1/4-z
-x,-y,-z
3/4+y,1/4-x,3/4-z
x,1/2+y,-z
3/4-y,3/4+x,1/4-z
-x,y,1/2+z
1/2+x,-y,z
1/4-y,3/4-x,3/4+z
3/4+y,3/4+x,3/4+z
1/2+x,1/2+y,1/2+z
3/4-y,1/4+x,3/4+z
1/2-x,-y,1/2+z
3/4+y,3/4-x,1/4+z
1/2+x,1/2-y,-z
-x,1/2+y,1/2-z
1/4+y,3/4+x,3/4-z
3/4-y,3/4-x,3/4-z
1/2-x,1/2-y,1/2-z
1/4+y,3/4-x,1/4-z
1/2+x,y,1/2-z
1/4-y,1/4+x,3/4-z
1/2-x,1/2+y,z
x,1/2-y,1/2+z
3/4-y,1/4-x,1/4+z
1/4+y,1/4+x,1/4+z
loop_
_atom_site_type_symbol
_atom_site_label
_atom_site_fract_x
_atom_site_fract_y
_atom_site_fract_z
Si Si1 0.510033 0.543473 0.139225
Si Si2 0.079436 0.784861 0.462421
Si Si3 0.702345 0.452663 0.204430
Si Si4 0.964178 0.067591 0.286992
Si Si5 0.792488 0.303469 0.213390
Si Si6 0.187665 0.937665 0.875000
O O1 0.479700 0.612265 0.170424
O O2 0.495181 0.468789 0.169140
O O3 0.477234 0.538802 0.088572
O O4 0.599041 0.551920 0.131423
O O5 0.114674 0.747548 0.508181
O O6 0.064255 0.870637 0.473549
O O7 0.000000 0.750000 0.450053
O O8 0.698072 0.500000 0.250000
O O9 0.620179 0.418149 0.197177
O O10 0.757277 0.385007 0.211322
O O11 0.720910 0.515099 0.166939
O O12 0.962768 0.000000 0.250000
O O13 0.750000 0.250000 0.250000
#
# Coordination Sequence:
#
# PCOD9573671 Si02
#       6
#    32  32  32  32  32  16
#     4  10  21  39  61  91 122 162 210 260 320 382
#     4  11  22  39  67  90 123 162 216 267 325 382
#     4  10  21  38  61  86 123 161 205 251 320 384
#     4   8  18  40  62  83 115 163 198 251 314 391
#     4  12  25  39  58  93 131 163 212 273 322 388
#     4  10  20  38  65  88 117 164 204 256 324 384
#
# _framework density 18.72391
#
# number of rings (size 3 to 8) (size 9 to 14) (size 15 to 20)
#    0.000    1.818    0.000    4.909    2.545    2.909 
#    6.545    0.000    0.000    0.000    0.000    0.000 
#    0.000    0.000    0.000    0.000    0.000    0.000 
#
# Total GULP energy -490476.349778 kJ/mol
# GULP energy per Si atom -5573.594884 kJ/mol
# Density = 1.868129 g / cm^3
# Si number density = 18.723910 Si / 1000 Ang^3
#
#
#
# Elastic Constant Matrix: (Units=GPa)
#
#
# Indices 1 2 3 4 5 6 
#
# 1 86.2468 43.9616 35.5203 0.0000 0.0000 0.0000
# 2 43.9616 86.2468 35.5203 0.0000 0.0000 0.0000
# 3 35.5203 35.5203 125.3795 0.0000 0.0000 0.0000
# 4 0.0000 0.0000 0.0000 14.5044 0.0000 0.0000
# 5 0.0000 0.0000 0.0000 0.0000 14.5044 0.0000
# 6 0.0000 0.0000 0.0000 0.0000 0.0000 34.7890
#
#
#
# Elastic Compliance Matrix: (Units=1/GPa)
#
#
# Indices 1 2 3 4 5 6 
#
# 1 0.016367 -0.007282 -0.002574 0.000000 0.000000 0.000000
# 2 -0.007282 0.016367 -0.002574 0.000000 0.000000 0.000000
# 3 -0.002574 -0.002574 0.009434 0.000000 0.000000 0.000000
# 4 0.000000 0.000000 0.000000 0.068945 0.000000 0.000000
# 5 0.000000 0.000000 0.000000 0.000000 0.068945 0.000000
# 6 0.000000 0.000000 0.000000 0.000000 0.000000 0.028745
#
#
# Mechanical properties :
#
#
# Convention : Reuss Voigt Hill
#
# Bulk Modulus (GPa) = 57.77679 58.65304 58.21492
# Shear Modulus (GPa) = 20.88299 24.95095 22.91697
#
# Velocity S-wave (km/s) = 3.34325 3.65440 3.50228
# Velocity P-wave (km/s) = 6.76959 7.01423 6.89299
#
# Compressibility (1/GPa) = 0.01730799
#
# Stress axis : x y z
#
# Youngs Moduli (GPa) = 61.10032 61.10032 105.99993
#
# Poissons Ratio (x) = 0.44496 0.27280
# Poissons Ratio (y) = 0.44496 0.27280
# Poissons Ratio (z) = 0.15724 0.15724
#
# Static dielectric constant tensor:
#      x y z
#    x 1.505500 0.000000 0.000000 
#    y 0.000000 1.505500 0.000000 
#    z 0.000000 0.000000 1.608490 
# 
# From -- ./inp_files/11475.got.cif
#   From: 2010.05.17/outbox.cif.g08.bks.cpg/sg142_6_cif.got.tgz:11475.got - 2010.05.20 13:39:18.
