data_PCOD9573932
_publ_section_title
;
Structure prediction by ZEFSAII (Michael W. Deem and Ramdas Pophale) SiO2 
 PCOD9573932
Probable space group: I 41/A C D
;
_chemical_formula_sum "Si O2"
_cell_formula_units_Z 72
_cell_length_a 11.746140
_cell_length_b 11.746140
_cell_length_c 21.092715
_cell_angle_alpha 90.000000
_cell_angle_beta 90.000000
_cell_angle_gamma 90.000000
_cell_volume 2910.199959
_symmetry_space_group_name_H-M "I 41/A C D"
_symmetry_group_IT_number 142
_space_group.IT_coordinate_system_code '2'
_symmetry_cell_setting 'tetragonal'
loop_
_space_group_symop_operation_xyz
x,y,z
1/4-y,3/4+x,1/4+z
-x,1/2-y,z
1/4+y,1/4-x,3/4+z
x,-y,1/2-z
1/2-x,y,-z
3/4+y,1/4+x,1/4-z
1/4-y,1/4-x,1/4-z
-x,-y,-z
3/4+y,1/4-x,3/4-z
x,1/2+y,-z
3/4-y,3/4+x,1/4-z
-x,y,1/2+z
1/2+x,-y,z
1/4-y,3/4-x,3/4+z
3/4+y,3/4+x,3/4+z
1/2+x,1/2+y,1/2+z
3/4-y,1/4+x,3/4+z
1/2-x,-y,1/2+z
3/4+y,3/4-x,1/4+z
1/2+x,1/2-y,-z
-x,1/2+y,1/2-z
1/4+y,3/4+x,3/4-z
3/4-y,3/4-x,3/4-z
1/2-x,1/2-y,1/2-z
1/4+y,3/4-x,1/4-z
1/2+x,y,1/2-z
1/4-y,1/4+x,3/4-z
1/2-x,1/2+y,z
x,1/2-y,1/2+z
3/4-y,1/4-x,1/4+z
1/4+y,1/4+x,1/4+z
loop_
_atom_site_type_symbol
_atom_site_label
_atom_site_fract_x
_atom_site_fract_y
_atom_site_fract_z
Si Si1 0.647343 0.705672 0.836669
Si Si2 0.379570 0.623273 0.719469
Si Si3 0.000000 0.750000 0.375000
O O1 0.634732 0.800472 0.892636
O O2 0.624008 0.780341 0.773828
O O3 0.765387 0.644134 0.821929
O O4 0.378680 0.500000 0.750000
O O5 0.487032 0.646310 0.673655
#
# Coordination Sequence:
#
# PCOD9573932 Si02
#       3
#    32  32   8
#     4  10  22  44  71 101 143 191 244 305 365 435
#     4  11  25  43  69 106 145 193 248 302 366 438
#     4  12  24  40  66 100 148 194 232 296 364 428
#
# _framework density 24.740566999999999
#
# number of rings (size 3 to 8) (size 9 to 14) (size 15 to 20)
#    0.000    1.333    0.000    5.333    0.000    7.111 
#    0.000   11.111    0.000    0.000    0.000    3.111 
#    0.000    0.000    0.000    0.000    0.000    0.000 
#
# Total GULP energy -201033.124514 kJ/mol
# GULP energy per Si atom -5584.253459 kJ/mol
# Density = 2.468426 g / cm^3
# Si number density = 24.740567 Si / 1000 Ang^3
#
#
#
# Elastic Constant Matrix: (Units=GPa)
#
#
# Indices 1 2 3 4 5 6 
#
# 1 136.5801 101.5792 93.2651 0.0000 0.0000 0.0000
# 2 101.5792 136.5801 93.2651 0.0000 0.0000 0.0000
# 3 93.2651 93.2651 141.7213 0.0000 0.0000 0.0000
# 4 0.0000 0.0000 0.0000 62.0118 0.0000 0.0000
# 5 0.0000 0.0000 0.0000 0.0000 62.0118 0.0000
# 6 0.0000 0.0000 0.0000 0.0000 0.0000 38.2126
#
#
#
# Elastic Compliance Matrix: (Units=1/GPa)
#
#
# Indices 1 2 3 4 5 6 
#
# 1 0.018618 -0.009953 -0.005702 0.000000 0.000000 0.000000
# 2 -0.009953 0.018618 -0.005702 0.000000 0.000000 0.000000
# 3 -0.005702 -0.005702 0.014561 0.000000 0.000000 0.000000
# 4 0.000000 0.000000 0.000000 0.016126 0.000000 0.000000
# 5 0.000000 0.000000 0.000000 0.000000 0.016126 0.000000
# 6 0.000000 0.000000 0.000000 0.000000 0.000000 0.026169
#
#
# Mechanical properties :
#
#
# Convention : Reuss Voigt Hill
#
# Bulk Modulus (GPa) = 110.10720 110.12226 110.11473
# Shear Modulus (GPa) = 32.05932 40.89873 36.47902
#
# Velocity S-wave (km/s) = 3.60366 4.07025 3.84404
# Velocity P-wave (km/s) = 7.86870 8.16680 8.01914
#
# Compressibility (1/GPa) = 0.00908206
#
# Stress axis : x y z
#
# Youngs Moduli (GPa) = 53.71184 53.71184 68.67462
#
# Poissons Ratio (x) = 0.53458 0.39161
# Poissons Ratio (y) = 0.53458 0.39161
# Poissons Ratio (z) = 0.30628 0.30628
#
# Static dielectric constant tensor:
#      x y z
#    x 1.982500 0.000000 0.000000 
#    y 0.000000 1.982500 0.000000 
#    z 0.000000 0.000000 2.047950 
# 
# From -- ./inp_files/10782.got.cif
#   From: 2010.05.17/outbox.cif.g08.bks.cpg/sg142_6_cif.got.tgz:10782.got - 2010.05.20 13:39:18.
