data_PCOD9573272
_publ_section_title
;
Structure prediction by ZEFSAII (Michael W. Deem and Ramdas Pophale) SiO2 
 PCOD9573272
Probable space group: I 41/A M D
;
_chemical_formula_sum "Si O2"
_cell_formula_units_Z 84
_cell_length_a 14.918862
_cell_length_b 14.918862
_cell_length_c 18.235932
_cell_angle_alpha 90.000000
_cell_angle_beta 90.000000
_cell_angle_gamma 90.000000
_cell_volume 4058.815942
_symmetry_space_group_name_H-M "I 41/A M D"
_symmetry_group_IT_number 141
_space_group.IT_coordinate_system_code '2'
_symmetry_cell_setting 'tetragonal'
loop_
_space_group_symop_operation_xyz
x,y,z
1/4-y,3/4+x,1/4+z
-x,1/2-y,z
1/4+y,1/4-x,3/4+z
x,-y,-z
-x,1/2+y,-z
1/4+y,3/4+x,1/4-z
1/4-y,1/4-x,3/4-z
-x,-y,-z
3/4+y,1/4-x,3/4-z
x,1/2+y,-z
3/4-y,3/4+x,1/4-z
-x,y,z
x,1/2-y,z
3/4-y,1/4-x,3/4+z
3/4+y,3/4+x,1/4+z
1/2+x,1/2+y,1/2+z
3/4-y,1/4+x,3/4+z
1/2-x,-y,1/2+z
3/4+y,3/4-x,1/4+z
1/2+x,1/2-y,1/2-z
1/2-x,y,1/2-z
3/4+y,1/4+x,3/4-z
3/4-y,3/4-x,1/4-z
1/2-x,1/2-y,1/2-z
1/4+y,3/4-x,1/4-z
1/2+x,y,1/2-z
1/4-y,1/4+x,3/4-z
1/2-x,1/2+y,1/2+z
1/2+x,-y,1/2+z
1/4-y,3/4-x,1/4+z
1/4+y,1/4+x,3/4+z
loop_
_atom_site_type_symbol
_atom_site_label
_atom_site_fract_x
_atom_site_fract_y
_atom_site_fract_z
Si Si1 0.109473 0.750000 0.360674
Si Si2 0.000000 0.250000 0.375000
Si Si3 0.097854 0.847854 0.125000
Si Si4 0.000000 0.927429 0.720572
Si Si5 0.817103 0.101860 0.020599
O O1 0.148762 0.750000 0.443246
O O2 0.141111 0.658423 0.318882
O O3 0.000000 0.750000 0.360748
O O4 0.000000 0.337146 0.324729
O O5 0.106227 0.750000 0.159421
O O6 0.106226 0.914449 0.190893
O O7 0.087043 0.987279 0.699640
O O8 0.794767 0.000000 0.000000
#
# Coordination Sequence:
#
# PCOD9573272 Si02
#       5
#    16   4  16  16  32
#     4  12  23  47  74 106 146 189 224 291 360 429
#     4  12  32  56  72  88 132 202 260 320 328 372
#     4  11  20  37  66 105 150 183 210 268 356 433
#     4  12  28  51  74  99 137 188 251 292 356 417
#     4  12  25  43  71 112 149 182 229 287 358 433
#
# _framework density 20.695692000000001
#
# number of rings (size 3 to 8) (size 9 to 14) (size 15 to 20)
#    0.000    0.190    6.667    2.857    0.000    4.571 
#    0.000    2.857    0.000    0.000    0.000    0.000 
#    0.000    0.000    0.000    0.000    0.000    0.000 
#
# Total GULP energy -234677.719265 kJ/mol
# GULP energy per Si atom -5587.564744 kJ/mol
# Density = 2.064859 g / cm^3
# Si number density = 20.695692 Si / 1000 Ang^3
#
#
#
# Elastic Constant Matrix: (Units=GPa)
#
#
# Indices 1 2 3 4 5 6 
#
# 1 170.8455 90.0848 42.3297 0.0000 0.0000 0.0000
# 2 90.0848 170.8455 42.3297 0.0000 0.0000 0.0000
# 3 42.3297 42.3297 100.4259 0.0000 0.0000 0.0000
# 4 0.0000 0.0000 0.0000 -23.1734 0.0000 0.0000
# 5 0.0000 0.0000 0.0000 0.0000 -23.1734 0.0000
# 6 0.0000 0.0000 0.0000 0.0000 0.0000 19.6091
#
#
#
# Elastic Compliance Matrix: (Units=1/GPa)
#
#
# Indices 1 2 3 4 5 6 
#
# 1 0.008411 -0.003971 -0.001871 0.000000 0.000000 0.000000
# 2 -0.003971 0.008411 -0.001871 0.000000 0.000000 0.000000
# 3 -0.001871 -0.001871 0.011535 0.000000 0.000000 0.000000
# 4 0.000000 0.000000 0.000000 -0.043153 0.000000 0.000000
# 5 0.000000 0.000000 0.000000 0.000000 -0.043153 0.000000
# 6 0.000000 0.000000 0.000000 0.000000 0.000000 0.050997
#
#
# Mechanical properties :
#
#
# Convention : Reuss Voigt Hill
#
# Bulk Modulus (GPa) = 77.34496 87.95616 82.65056
# Shear Modulus (GPa) = 391.06939 12.47729 201.77334
#
# Velocity S-wave (km/s) = 13.76125 2.45805 9.88468
# Velocity P-wave (km/s) = 17.02791 7.11674 13.04986
#
# Compressibility (1/GPa) = 0.01292909
#
# Stress axis : x y z
#
# Youngs Moduli (GPa) = 118.89301 118.89301 86.69195
#
# Poissons Ratio (x) = 0.47216 0.16223
# Poissons Ratio (y) = 0.47216 0.16223
# Poissons Ratio (z) = 0.22248 0.22248
#
# Static dielectric constant tensor:
#      x y z
#    x 1.590120 0.000000 0.000000 
#    y 0.000000 1.590120 0.000000 
#    z 0.000000 0.000000 1.699690 
# 
# From -- ./inp_files/11009.got.cif
#   From: 2010.05.17/outbox.cif.g08.bks.cpg/sg141_6_cif.got.tgz:11009.got - 2010.05.20 13:30:51.
