data_PCOD9573439
_publ_section_title
;
Structure prediction by ZEFSAII (Michael W. Deem and Ramdas Pophale) SiO2 
 PCOD9573439
Probable space group: I 41/A C D
;
_chemical_formula_sum "Si O2"
_cell_formula_units_Z 96
_cell_length_a 31.691875
_cell_length_b 31.691875
_cell_length_c 5.109798
_cell_angle_alpha 90.000000
_cell_angle_beta 90.000000
_cell_angle_gamma 90.000000
_cell_volume 5132.153065
_symmetry_space_group_name_H-M "I 41/A C D"
_symmetry_group_IT_number 142
_space_group.IT_coordinate_system_code '2'
_symmetry_cell_setting 'tetragonal'
loop_
_space_group_symop_operation_xyz
x,y,z
1/4-y,3/4+x,1/4+z
-x,1/2-y,z
1/4+y,1/4-x,3/4+z
x,-y,1/2-z
1/2-x,y,-z
3/4+y,1/4+x,1/4-z
1/4-y,1/4-x,1/4-z
-x,-y,-z
3/4+y,1/4-x,3/4-z
x,1/2+y,-z
3/4-y,3/4+x,1/4-z
-x,y,1/2+z
1/2+x,-y,z
1/4-y,3/4-x,3/4+z
3/4+y,3/4+x,3/4+z
1/2+x,1/2+y,1/2+z
3/4-y,1/4+x,3/4+z
1/2-x,-y,1/2+z
3/4+y,3/4-x,1/4+z
1/2+x,1/2-y,-z
-x,1/2+y,1/2-z
1/4+y,3/4+x,3/4-z
3/4-y,3/4-x,3/4-z
1/2-x,1/2-y,1/2-z
1/4+y,3/4-x,1/4-z
1/2+x,y,1/2-z
1/4-y,1/4+x,3/4-z
1/2-x,1/2+y,z
x,1/2-y,1/2+z
3/4-y,1/4-x,1/4+z
1/4+y,1/4+x,1/4+z
loop_
_atom_site_type_symbol
_atom_site_label
_atom_site_fract_x
_atom_site_fract_y
_atom_site_fract_z
Si Si1 0.542536 0.000000 0.250000
Si Si2 0.117137 0.907671 0.623210
Si Si3 0.658465 0.227987 0.338429
Si Si4 0.250000 0.849948 0.000000
O O1 0.518491 0.959065 0.142186
O O2 0.571978 0.987852 0.496148
O O3 0.144064 0.894064 0.375000
O O4 0.068246 0.902251 0.533342
O O5 0.123834 0.957135 0.681657
O O6 0.130403 0.880403 0.875000
O O7 0.641862 0.238362 0.627321
#
# Coordination Sequence:
#
# PCOD9573439 Si02
#       4
#    16  32  32  16
#     4  10  18  31  50  78 111 140 166 206 265 342
#     4  11  22  37  55  78 110 145 182 223 268 318
#     4  11  20  32  51  79 111 140 172 209 263 330
#     4  10  20  35  54  78 105 144 186 222 269 318
#
# _framework density 18.705598999999999
#
# number of rings (size 3 to 8) (size 9 to 14) (size 15 to 20)
#    0.000    1.333    0.000   11.000    0.000    1.333 
#    0.000    0.000    0.000    2.000    0.000    2.333 
#    0.000   46.667    0.000    0.000    0.000    0.000 
#
# Total GULP energy -267823.378337 kJ/mol
# GULP energy per Si atom -5579.653715 kJ/mol
# Density = 1.866302 g / cm^3
# Si number density = 18.705599 Si / 1000 Ang^3
#
#
#
# Elastic Constant Matrix: (Units=GPa)
#
#
# Indices 1 2 3 4 5 6 
#
# 1 54.8879 49.7712 53.0922 0.0000 0.0000 0.0000
# 2 49.7712 54.8879 53.0922 0.0000 0.0000 0.0000
# 3 53.0922 53.0922 189.9417 0.0000 0.0000 0.0000
# 4 0.0000 0.0000 0.0000 40.7023 0.0000 0.0000
# 5 0.0000 0.0000 0.0000 0.0000 40.7023 0.0000
# 6 0.0000 0.0000 0.0000 0.0000 0.0000 117.8097
#
#
#
# Elastic Compliance Matrix: (Units=1/GPa)
#
#
# Indices 1 2 3 4 5 6 
#
# 1 0.104387 -0.091050 -0.003728 0.000000 0.000000 0.000000
# 2 -0.091050 0.104387 -0.003728 0.000000 0.000000 0.000000
# 3 -0.003728 -0.003728 0.007349 0.000000 0.000000 0.000000
# 4 0.000000 0.000000 0.000000 0.024569 0.000000 0.000000
# 5 0.000000 0.000000 0.000000 0.000000 0.024569 0.000000
# 6 0.000000 0.000000 0.000000 0.000000 0.000000 0.008488
#
#
# Mechanical properties :
#
#
# Convention : Reuss Voigt Hill
#
# Bulk Modulus (GPa) = 52.32530 67.95874 60.14202
# Shear Modulus (GPa) = 10.47933 49.42701 29.95317
#
# Velocity S-wave (km/s) = 2.36947 5.14597 4.00596
# Velocity P-wave (km/s) = 5.95984 8.46862 7.32247
#
# Compressibility (1/GPa) = 0.01911122
#
# Stress axis : x y z
#
# Youngs Moduli (GPa) = 9.57976 9.57976 136.07583
#
# Poissons Ratio (x) = 0.87223 0.50729
# Poissons Ratio (y) = 0.87223 0.50729
# Poissons Ratio (z) = 0.03571 0.03571
#
# Static dielectric constant tensor:
#      x y z
#    x 1.663640 0.000000 0.000000 
#    y 0.000000 1.663640 0.000000 
#    z 0.000000 0.000000 1.703120 
# 
# From -- ./inp_files/691.got.cif
#   From: 2010.05.17/outbox.cif.g08.bks.cpg/sg142_1_cif.got.tgz:691.got - 2010.05.20 13:39:18.
