data_PCOD9573151
_publ_section_title
;
Structure prediction by ZEFSAII (Michael W. Deem and Ramdas Pophale) SiO2 
 PCOD9573151
Probable space group: I 41/A M D
;
_chemical_formula_sum "Si O2"
_cell_formula_units_Z 96
_cell_length_a 13.672897
_cell_length_b 13.672897
_cell_length_c 29.883054
_cell_angle_alpha 90.000000
_cell_angle_beta 90.000000
_cell_angle_gamma 90.000000
_cell_volume 5586.580537
_symmetry_space_group_name_H-M "I 41/A M D"
_symmetry_group_IT_number 141
_space_group.IT_coordinate_system_code '2'
_symmetry_cell_setting 'tetragonal'
loop_
_space_group_symop_operation_xyz
x,y,z
1/4-y,3/4+x,1/4+z
-x,1/2-y,z
1/4+y,1/4-x,3/4+z
x,-y,-z
-x,1/2+y,-z
1/4+y,3/4+x,1/4-z
1/4-y,1/4-x,3/4-z
-x,-y,-z
3/4+y,1/4-x,3/4-z
x,1/2+y,-z
3/4-y,3/4+x,1/4-z
-x,y,z
x,1/2-y,z
3/4-y,1/4-x,3/4+z
3/4+y,3/4+x,1/4+z
1/2+x,1/2+y,1/2+z
3/4-y,1/4+x,3/4+z
1/2-x,-y,1/2+z
3/4+y,3/4-x,1/4+z
1/2+x,1/2-y,1/2-z
1/2-x,y,1/2-z
3/4+y,1/4+x,3/4-z
3/4-y,3/4-x,1/4-z
1/2-x,1/2-y,1/2-z
1/4+y,3/4-x,1/4-z
1/2+x,y,1/2-z
1/4-y,1/4+x,3/4-z
1/2-x,1/2+y,1/2+z
1/2+x,-y,1/2+z
1/4-y,3/4-x,1/4+z
1/4+y,1/4+x,3/4+z
loop_
_atom_site_type_symbol
_atom_site_label
_atom_site_fract_x
_atom_site_fract_y
_atom_site_fract_z
Si Si1 0.000000 0.016353 0.331916
Si Si2 0.713033 0.536968 0.875000
Si Si3 0.885064 0.250000 0.999404
Si Si4 0.744515 0.584566 0.463316
Si Si5 0.113610 0.250000 0.504731
O O1 0.099910 0.020151 0.360296
O O2 0.000000 0.108007 0.297671
O O3 0.000000 0.924948 0.296637
O O4 0.782647 0.507899 0.833877
O O5 0.848037 0.344595 0.971719
O O6 0.000000 0.250000 0.006610
O O7 0.740793 0.500000 0.500000
O O8 0.835704 0.655316 0.473775
O O9 0.000000 0.250000 0.511689
#
# Coordination Sequence:
#
# PCOD9573151 Si02
#       5
#    16  16  16  32  16
#     4  10  24  38  63  94 126 165 205 252 307 393
#     4  12  22  41  63  94 132 160 216 252 320 374
#     4  10  22  48  64  87 120 166 225 261 327 367
#     4  10  21  42  61  89 126 162 204 265 306 373
#     4  10  22  40  60  91 124 166 210 247 320 366
#
# _framework density 17.184035999999999
#
# number of rings (size 3 to 8) (size 9 to 14) (size 15 to 20)
#    0.000    2.000    6.667    0.000    4.667    1.333 
#   12.000    0.000    0.000    0.000    0.000    0.000 
#    0.000    0.000    0.000    0.000    0.000    0.000 
#
# Total GULP energy -267680.126116 kJ/mol
# GULP energy per Si atom -5576.669294 kJ/mol
# Density = 1.714492 g / cm^3
# Si number density = 17.184036 Si / 1000 Ang^3
#
#
#
# Elastic Constant Matrix: (Units=GPa)
#
#
# Indices 1 2 3 4 5 6 
#
# 1 145.0236 55.2360 56.9519 0.0000 0.0000 0.0000
# 2 55.2360 145.0248 56.9522 0.0000 0.0000 0.0000
# 3 56.9519 56.9522 142.6878 0.0000 0.0000 0.0000
# 4 0.0000 0.0000 0.0000 13.5982 0.0000 0.0000
# 5 0.0000 0.0000 0.0000 0.0000 13.5976 0.0000
# 6 0.0000 0.0000 0.0000 0.0000 0.0000 -0.5234
#
#
#
# Elastic Compliance Matrix: (Units=1/GPa)
#
#
# Indices 1 2 3 4 5 6 
#
# 1 0.008799 -0.002339 -0.002578 0.000000 0.000000 0.000000
# 2 -0.002339 0.008799 -0.002578 0.000000 0.000000 0.000000
# 3 -0.002578 -0.002578 0.009067 0.000000 0.000000 0.000000
# 4 0.000000 0.000000 0.000000 0.073539 0.000000 0.000000
# 5 0.000000 0.000000 0.000000 0.000000 0.073542 0.000000
# 6 0.000000 0.000000 0.000000 0.000000 0.000000 -1.910614
#
#
# Mechanical properties :
#
#
# Convention : Reuss Voigt Hill
#
# Bulk Modulus (GPa) = 85.66816 85.66850 85.66833
# Shear Modulus (GPa) = -2.91038 22.90756 9.99859
#
# Velocity S-wave (km/s) = -1.30282 3.65509 2.41478
# Velocity P-wave (km/s) = 6.90641 8.23254 7.59846
#
# Compressibility (1/GPa) = 0.01167295
#
# Stress axis : x y z
#
# Youngs Moduli (GPa) = 113.65261 113.65359 110.29462
#
# Poissons Ratio (x) = 0.26579 0.28439
# Poissons Ratio (y) = 0.26579 0.28439
# Poissons Ratio (z) = 0.29305 0.29305
#
# Static dielectric constant tensor:
#      x y z
#    x 1.592820 0.000000 0.000000 
#    y 0.000000 1.592820 0.000000 
#    z 0.000000 0.000000 1.574020 
# 
# From -- ./inp_files/11081.got.cif
#   From: 2010.05.17/outbox.cif.g08.bks.cpg/sg141_6_cif.got.tgz:11081.got - 2010.05.20 13:30:51.
