data_PCOD9573103
_publ_section_title
;
Structure prediction by ZEFSAII (Michael W. Deem and Ramdas Pophale) SiO2 
 PCOD9573103
Probable space group: I 41/A M D
;
_chemical_formula_sum "Si O2"
_cell_formula_units_Z 80
_cell_length_a 10.945942
_cell_length_b 10.945942
_cell_length_c 31.252819
_cell_angle_alpha 90.000000
_cell_angle_beta 90.000000
_cell_angle_gamma 90.000000
_cell_volume 3744.514201
_symmetry_space_group_name_H-M "I 41/A M D"
_symmetry_group_IT_number 141
_space_group.IT_coordinate_system_code '2'
_symmetry_cell_setting 'tetragonal'
loop_
_space_group_symop_operation_xyz
x,y,z
1/4-y,3/4+x,1/4+z
-x,1/2-y,z
1/4+y,1/4-x,3/4+z
x,-y,-z
-x,1/2+y,-z
1/4+y,3/4+x,1/4-z
1/4-y,1/4-x,3/4-z
-x,-y,-z
3/4+y,1/4-x,3/4-z
x,1/2+y,-z
3/4-y,3/4+x,1/4-z
-x,y,z
x,1/2-y,z
3/4-y,1/4-x,3/4+z
3/4+y,3/4+x,1/4+z
1/2+x,1/2+y,1/2+z
3/4-y,1/4+x,3/4+z
1/2-x,-y,1/2+z
3/4+y,3/4-x,1/4+z
1/2+x,1/2-y,1/2-z
1/2-x,y,1/2-z
3/4+y,1/4+x,3/4-z
3/4-y,3/4-x,1/4-z
1/2-x,1/2-y,1/2-z
1/4+y,3/4-x,1/4-z
1/2+x,y,1/2-z
1/4-y,1/4+x,3/4-z
1/2-x,1/2+y,1/2+z
1/2+x,-y,1/2+z
1/4-y,3/4-x,1/4+z
1/4+y,1/4+x,3/4+z
loop_
_atom_site_type_symbol
_atom_site_label
_atom_site_fract_x
_atom_site_fract_y
_atom_site_fract_z
Si Si1 0.500000 0.887667 0.967049
Si Si2 0.354550 0.250000 0.923636
Si Si3 0.259794 0.488307 0.176788
Si Si4 0.144105 0.750000 0.320630
O O1 0.500000 0.750000 0.984023
O O2 0.624691 0.906581 0.940450
O O3 0.500000 0.000000 0.000000
O O4 0.500000 0.250000 0.928198
O O5 0.294806 0.127294 0.941328
O O6 0.336389 0.250000 0.872174
O O7 0.259305 0.490696 0.125000
O O8 0.300135 0.620646 0.193826
O O9 0.000000 0.750000 0.312119
#
# Coordination Sequence:
#
# PCOD9573103 Si02
#       4
#    16  16  32  16
#     4  12  28  42  64  94 134 173 223 273 344 403
#     4   9  16  31  57  90 128 157 195 273 333 359
#     4  10  21  37  66  93 125 168 221 273 326 391
#     4   9  18  33  54  92 124 156 206 271 319 368
#
# _framework density 21.364587
#
# number of rings (size 3 to 8) (size 9 to 14) (size 15 to 20)
#    0.000    2.000    2.000    1.200    8.400    0.800 
#    0.000    5.000    0.000    0.000    0.000    0.000 
#    0.000    0.000    0.000    0.000    0.000    0.000 
#
# Total GULP energy -223431.922090 kJ/mol
# GULP energy per Si atom -5585.798052 kJ/mol
# Density = 2.131596 g / cm^3
# Si number density = 21.364587 Si / 1000 Ang^3
#
#
#
# Elastic Constant Matrix: (Units=GPa)
#
#
# Indices 1 2 3 4 5 6 
#
# 1 184.6356 84.3510 16.5992 0.0000 0.0000 0.0000
# 2 84.3510 184.6372 16.5990 0.0000 0.0000 0.0000
# 3 16.5992 16.5990 28.2319 0.0000 0.0000 0.0000
# 4 0.0000 0.0000 0.0000 7.5926 0.0000 0.0000
# 5 0.0000 0.0000 0.0000 0.0000 7.5925 0.0000
# 6 0.0000 0.0000 0.0000 0.0000 0.0000 42.9756
#
#
#
# Elastic Compliance Matrix: (Units=1/GPa)
#
#
# Indices 1 2 3 4 5 6 
#
# 1 0.006990 -0.002982 -0.002357 0.000000 0.000000 0.000000
# 2 -0.002982 0.006990 -0.002357 0.000000 0.000000 0.000000
# 3 -0.002357 -0.002357 0.038192 0.000000 0.000000 0.000000
# 4 0.000000 0.000000 0.000000 0.131706 0.000000 0.000000
# 5 0.000000 0.000000 0.000000 0.000000 0.131709 0.000000
# 6 0.000000 0.000000 0.000000 0.000000 0.000000 0.023269
#
#
# Mechanical properties :
#
#
# Convention : Reuss Voigt Hill
#
# Bulk Modulus (GPa) = 27.18717 70.28923 48.73820
# Shear Modulus (GPa) = 13.64227 30.29585 21.96906
#
# Velocity S-wave (km/s) = 2.52969 3.76977 3.21018
# Velocity P-wave (km/s) = 4.61361 7.20552 6.05000
#
# Compressibility (1/GPa) = 0.03678206
#
# Stress axis : x y z
#
# Youngs Moduli (GPa) = 143.06004 143.06154 26.18327
#
# Poissons Ratio (x) = 0.42654 0.06171
# Poissons Ratio (y) = 0.42654 0.06171
# Poissons Ratio (z) = 0.33718 0.33716
#
# Static dielectric constant tensor:
#      x y z
#    x 1.768490 0.000000 0.000000 
#    y 0.000000 1.768490 0.000000 
#    z 0.000000 0.000000 1.798720 
# 
# From -- ./inp_files/13634.got.cif
#   From: 2010.05.17/outbox.cif.g08.bks.cpg/sg141_7_cif.got.tgz:13634.got - 2010.05.20 13:30:51.
