data_PCOD9573119
_publ_section_title
;
Structure prediction by ZEFSAII (Michael W. Deem and Ramdas Pophale) SiO2 
 PCOD9573119
Probable space group: I 41/A M D
;
_chemical_formula_sum "Si O2"
_cell_formula_units_Z 96
_cell_length_a 17.596698
_cell_length_b 17.596698
_cell_length_c 17.284447
_cell_angle_alpha 90.000000
_cell_angle_beta 90.000000
_cell_angle_gamma 90.000000
_cell_volume 5352.021513
_symmetry_space_group_name_H-M "I 41/A M D"
_symmetry_group_IT_number 141
_space_group.IT_coordinate_system_code '2'
_symmetry_cell_setting 'tetragonal'
loop_
_space_group_symop_operation_xyz
x,y,z
1/4-y,3/4+x,1/4+z
-x,1/2-y,z
1/4+y,1/4-x,3/4+z
x,-y,-z
-x,1/2+y,-z
1/4+y,3/4+x,1/4-z
1/4-y,1/4-x,3/4-z
-x,-y,-z
3/4+y,1/4-x,3/4-z
x,1/2+y,-z
3/4-y,3/4+x,1/4-z
-x,y,z
x,1/2-y,z
3/4-y,1/4-x,3/4+z
3/4+y,3/4+x,1/4+z
1/2+x,1/2+y,1/2+z
3/4-y,1/4+x,3/4+z
1/2-x,-y,1/2+z
3/4+y,3/4-x,1/4+z
1/2+x,1/2-y,1/2-z
1/2-x,y,1/2-z
3/4+y,1/4+x,3/4-z
3/4-y,3/4-x,1/4-z
1/2-x,1/2-y,1/2-z
1/4+y,3/4-x,1/4-z
1/2+x,y,1/2-z
1/4-y,1/4+x,3/4-z
1/2-x,1/2+y,1/2+z
1/2+x,-y,1/2+z
1/4-y,3/4-x,1/4+z
1/4+y,1/4+x,3/4+z
loop_
_atom_site_type_symbol
_atom_site_label
_atom_site_fract_x
_atom_site_fract_y
_atom_site_fract_z
Si Si1 0.860861 0.110861 0.375000
Si Si2 0.910420 0.750000 0.724038
Si Si3 0.639255 0.946158 0.203586
Si Si4 0.500000 0.160451 0.842461
Si Si5 0.197151 0.552850 0.125000
O O1 0.871151 0.176762 0.312368
O O2 0.781556 0.123610 0.420368
O O3 0.906378 0.750000 0.815267
O O4 0.000000 0.750000 0.704953
O O5 0.574177 0.886236 0.183449
O O6 0.647945 0.942193 0.296647
O O7 0.718926 0.930513 0.159736
O O8 0.500000 0.250000 0.819216
#
# Coordination Sequence:
#
# PCOD9573119 Si02
#       5
#    16  16  32  16  16
#     4  11  19  34  65  94 123 162 193 243 310 380
#     4  11  21  35  55  93 135 156 184 241 307 365
#     4  10  21  39  62  88 118 160 204 252 301 367
#     4  11  25  41  57  87 126 164 208 249 302 360
#     4   9  20  42  62  86 118 152 206 259 308 348
#
# _framework density 17.937148000000001
#
# number of rings (size 3 to 8) (size 9 to 14) (size 15 to 20)
#    0.000    1.667    1.667    3.000    0.000    5.333 
#    6.000    1.667    0.000    0.000    0.000    0.000 
#    0.000    0.000    0.000    0.000    0.000    0.000 
#
# Total GULP energy -267377.678739 kJ/mol
# GULP energy per Si atom -5570.368307 kJ/mol
# Density = 1.789632 g / cm^3
# Si number density = 17.937148 Si / 1000 Ang^3
#
#
#
# Elastic Constant Matrix: (Units=GPa)
#
#
# Indices 1 2 3 4 5 6 
#
# 1 120.1265 91.6274 74.6073 0.0000 0.0000 0.0000
# 2 91.6274 120.1258 74.6076 0.0000 0.0000 0.0000
# 3 74.6073 74.6076 184.0487 0.0000 0.0000 0.0000
# 4 0.0000 0.0000 0.0000 11.5383 0.0000 0.0000
# 5 0.0000 0.0000 0.0000 0.0000 11.5345 0.0000
# 6 0.0000 0.0000 0.0000 0.0000 0.0000 21.6707
#
#
#
# Elastic Compliance Matrix: (Units=1/GPa)
#
#
# Indices 1 2 3 4 5 6 
#
# 1 0.020850 -0.014239 -0.002680 0.000000 0.000000 0.000000
# 2 -0.014239 0.020850 -0.002680 0.000000 0.000000 0.000000
# 3 -0.002680 -0.002680 0.007606 0.000000 0.000000 0.000000
# 4 0.000000 0.000000 0.000000 0.086668 0.000000 0.000000
# 5 0.000000 0.000000 0.000000 0.000000 0.086696 0.000000
# 6 0.000000 0.000000 0.000000 0.000000 0.000000 0.046145
#
#
# Mechanical properties :
#
#
# Convention : Reuss Voigt Hill
#
# Bulk Modulus (GPa) = 98.92798 100.66508 99.79653
# Shear Modulus (GPa) = 16.05741 21.17929 18.61835
#
# Velocity S-wave (km/s) = 2.99524 3.43993 3.22526
# Velocity P-wave (km/s) = 8.19965 8.48648 8.34430
#
# Compressibility (1/GPa) = 0.01010836
#
# Stress axis : x y z
#
# Youngs Moduli (GPa) = 47.96184 47.96132 131.47560
#
# Poissons Ratio (x) = 0.68293 0.35232
# Poissons Ratio (y) = 0.68294 0.35234
# Poissons Ratio (z) = 0.12853 0.12853
#
# Static dielectric constant tensor:
#      x y z
#    x 1.616680 0.000000 0.000000 
#    y 0.000000 1.616680 0.000000 
#    z 0.000000 0.000000 1.615120 
# 
# From -- ./inp_files/7749.got.cif
#   From: 2010.05.17/outbox.cif.g08.bks.cpg/sg141_4_cif.got.tgz:7749.got - 2010.05.20 13:30:51.
