data_PCOD9573985
_publ_section_title
;
Structure prediction by ZEFSAII (Michael W. Deem and Ramdas Pophale) SiO2 
 PCOD9573985
Probable space group: I 41/A C D
;
_chemical_formula_sum "Si O2"
_cell_formula_units_Z 176
_cell_length_a 17.666904
_cell_length_b 17.666904
_cell_length_c 26.265515
_cell_angle_alpha 90.000000
_cell_angle_beta 90.000000
_cell_angle_gamma 90.000000
_cell_volume 8197.979329
_symmetry_space_group_name_H-M "I 41/A C D"
_symmetry_group_IT_number 142
_space_group.IT_coordinate_system_code '2'
_symmetry_cell_setting 'tetragonal'
loop_
_space_group_symop_operation_xyz
x,y,z
1/4-y,3/4+x,1/4+z
-x,1/2-y,z
1/4+y,1/4-x,3/4+z
x,-y,1/2-z
1/2-x,y,-z
3/4+y,1/4+x,1/4-z
1/4-y,1/4-x,1/4-z
-x,-y,-z
3/4+y,1/4-x,3/4-z
x,1/2+y,-z
3/4-y,3/4+x,1/4-z
-x,y,1/2+z
1/2+x,-y,z
1/4-y,3/4-x,3/4+z
3/4+y,3/4+x,3/4+z
1/2+x,1/2+y,1/2+z
3/4-y,1/4+x,3/4+z
1/2-x,-y,1/2+z
3/4+y,3/4-x,1/4+z
1/2+x,1/2-y,-z
-x,1/2+y,1/2-z
1/4+y,3/4+x,3/4-z
3/4-y,3/4-x,3/4-z
1/2-x,1/2-y,1/2-z
1/4+y,3/4-x,1/4-z
1/2+x,y,1/2-z
1/4-y,1/4+x,3/4-z
1/2-x,1/2+y,z
x,1/2-y,1/2+z
3/4-y,1/4-x,1/4+z
1/4+y,1/4+x,1/4+z
loop_
_atom_site_type_symbol
_atom_site_label
_atom_site_fract_x
_atom_site_fract_y
_atom_site_fract_z
Si Si1 0.142391 0.168536 0.571000
Si Si2 0.315150 0.934851 0.625000
Si Si3 0.976739 0.068393 0.036325
Si Si4 0.039441 0.534031 0.130802
Si Si5 0.409245 0.132164 0.782649
Si Si6 0.880514 0.414670 0.329630
O O1 0.097918 0.152082 0.625000
O O2 0.107740 0.102726 0.535388
O O3 0.232226 0.162595 0.580380
O O4 0.129836 0.253771 0.549747
O O5 0.357684 0.898357 0.576817
O O6 0.229448 0.917818 0.608247
O O7 0.029734 0.140081 0.025524
O O8 0.988431 0.030008 0.091274
O O9 0.000000 0.000000 0.000000
O O10 0.087871 0.594659 0.100454
O O11 0.967066 0.572052 0.155150
O O12 0.384274 0.088668 0.731501
#
# Coordination Sequence:
#
# PCOD9573985 Si02
#       6
#    32  16  32  32  32  32
#     4  10  23  43  72 106 138 186 247 307 361 441
#     4  12  24  44  75 104 144 181 246 314 370 434
#     4  11  22  42  69 106 138 182 241 297 368 447
#     4  11  25  46  67 100 147 188 242 301 366 445
#     4  12  23  46  77 103 141 192 247 306 369 451
#     4  12  27  45  73 103 148 197 241 304 386 444
#
# _framework density 21.468706000000001
#
# number of rings (size 3 to 8) (size 9 to 14) (size 15 to 20)
#    0.000    0.727    5.455    2.182    3.818    4.000 
#    3.273    0.000    0.000    0.000    0.000    0.000 
#    0.000    0.000    0.000    0.000    0.000    0.000 
#
# Total GULP energy -490978.267707 kJ/mol
# GULP energy per Si atom -5579.298497 kJ/mol
# Density = 2.141984 g / cm^3
# Si number density = 21.468706 Si / 1000 Ang^3
#
#
#
# Elastic Constant Matrix: (Units=GPa)
#
#
# Indices 1 2 3 4 5 6 
#
# 1 114.4848 23.2478 57.1219 0.0000 0.0000 0.0000
# 2 23.2478 114.4786 57.1264 0.0000 0.0000 0.0000
# 3 57.1219 57.1264 121.9120 0.0000 0.0000 0.0000
# 4 0.0000 0.0000 0.0000 24.2801 0.0000 0.0000
# 5 0.0000 0.0000 0.0000 0.0000 24.2814 0.0000
# 6 0.0000 0.0000 0.0000 0.0000 0.0000 36.0369
#
#
#
# Elastic Compliance Matrix: (Units=1/GPa)
#
#
# Indices 1 2 3 4 5 6 
#
# 1 0.011418 0.000458 -0.005565 0.000000 0.000000 0.000000
# 2 0.000458 0.011420 -0.005566 0.000000 0.000000 0.000000
# 3 -0.005565 -0.005566 0.013418 0.000000 0.000000 0.000000
# 4 0.000000 0.000000 0.000000 0.041186 0.000000 0.000000
# 5 0.000000 0.000000 0.000000 0.000000 0.041184 0.000000
# 6 0.000000 0.000000 0.000000 0.000000 0.000000 0.027749
#
#
# Mechanical properties :
#
#
# Convention : Reuss Voigt Hill
#
# Bulk Modulus (GPa) = 67.06356 69.54083 68.30219
# Shear Modulus (GPa) = 28.95360 31.14495 30.04928
#
# Velocity S-wave (km/s) = 3.67637 3.81296 3.74529
# Velocity P-wave (km/s) = 7.02329 7.20048 7.11243
#
# Compressibility (1/GPa) = 0.01491123
#
# Stress axis : x y z
#
# Youngs Moduli (GPa) = 87.57913 87.56870 74.52677
#
# Poissons Ratio (x) = -0.04011 0.41472
# Poissons Ratio (y) = -0.04012 0.41480
# Poissons Ratio (z) = 0.48735 0.48738
#
# Static dielectric constant tensor:
#      x y z
#    x 1.813540 0.000000 0.000000 
#    y 0.000000 1.813540 0.000000 
#    z 0.000000 0.000000 1.684800 
# 
# From -- ./inp_files/12516.got.cif
#   From: 2010.05.17/outbox.cif.g08.bks.cpg/sg142_7_cif.got.tgz:12516.got - 2010.05.20 13:39:18.
