data_PCOD9573467
_publ_section_title
;
Structure prediction by ZEFSAII (Michael W. Deem and Ramdas Pophale) SiO2 
 PCOD9573467
Probable space group: I 41/A C D
;
_chemical_formula_sum "Si O2"
_cell_formula_units_Z 160
_cell_length_a 18.581481
_cell_length_b 18.581481
_cell_length_c 19.197991
_cell_angle_alpha 90.000000
_cell_angle_beta 90.000000
_cell_angle_gamma 90.000000
_cell_volume 6628.517924
_symmetry_space_group_name_H-M "I 41/A C D"
_symmetry_group_IT_number 142
_space_group.IT_coordinate_system_code '2'
_symmetry_cell_setting 'tetragonal'
loop_
_space_group_symop_operation_xyz
x,y,z
1/4-y,3/4+x,1/4+z
-x,1/2-y,z
1/4+y,1/4-x,3/4+z
x,-y,1/2-z
1/2-x,y,-z
3/4+y,1/4+x,1/4-z
1/4-y,1/4-x,1/4-z
-x,-y,-z
3/4+y,1/4-x,3/4-z
x,1/2+y,-z
3/4-y,3/4+x,1/4-z
-x,y,1/2+z
1/2+x,-y,z
1/4-y,3/4-x,3/4+z
3/4+y,3/4+x,3/4+z
1/2+x,1/2+y,1/2+z
3/4-y,1/4+x,3/4+z
1/2-x,-y,1/2+z
3/4+y,3/4-x,1/4+z
1/2+x,1/2-y,-z
-x,1/2+y,1/2-z
1/4+y,3/4+x,3/4-z
3/4-y,3/4-x,3/4-z
1/2-x,1/2-y,1/2-z
1/4+y,3/4-x,1/4-z
1/2+x,y,1/2-z
1/4-y,1/4+x,3/4-z
1/2-x,1/2+y,z
x,1/2-y,1/2+z
3/4-y,1/4-x,1/4+z
1/4+y,1/4+x,1/4+z
loop_
_atom_site_type_symbol
_atom_site_label
_atom_site_fract_x
_atom_site_fract_y
_atom_site_fract_z
Si Si1 0.000000 0.250000 0.263286
Si Si2 0.420505 0.987717 0.398196
Si Si3 0.926815 0.500000 0.750000
Si Si4 0.366668 0.337306 0.747619
Si Si5 0.250195 0.999806 0.625000
Si Si6 0.086001 0.870975 0.166446
Si Si7 0.650692 0.500000 0.750000
O O1 0.930596 0.215726 0.226051
O O2 0.977152 0.319380 0.308621
O O3 0.430077 0.047084 0.456547
O O4 0.335639 0.989555 0.375547
O O5 0.463413 0.996788 0.326150
O O6 0.427898 0.907479 0.424995
O O7 0.886388 0.577655 0.756291
O O8 0.357081 0.330049 0.664264
O O9 0.294128 0.971360 0.691145
O O10 0.102907 0.937731 0.216500
#
# Coordination Sequence:
#
# PCOD9573467 Si02
#       7
#    16  32  16  32  16  32  16
#     4  12  27  52  65  90 147 210 247 290 357 430
#     4  10  20  35  70 108 134 178 225 301 361 428
#     4  10  19  37  64 104 138 170 224 294 364 420
#     4  11  22  40  73 100 139 184 248 289 360 434
#     4  10  18  34  64 104 148 156 210 294 370 422
#     4  10  24  40  70 101 138 189 231 298 361 432
#     4  10  23  35  72 108 136 178 224 304 366 428
#
# _framework density 24.138127000000001
#
# number of rings (size 3 to 8) (size 9 to 14) (size 15 to 20)
#    0.000    1.600    2.000    2.400   14.000    1.600 
#    0.000    2.000    8.800    0.000    0.000    0.000 
#    0.000    0.000    0.000    0.000    0.000    0.000 
#
# Total GULP energy -447283.367947 kJ/mol
# GULP energy per Si atom -5591.042099 kJ/mol
# Density = 2.408319 g / cm^3
# Si number density = 24.138127 Si / 1000 Ang^3
#
#
#
# Elastic Constant Matrix: (Units=GPa)
#
#
# Indices 1 2 3 4 5 6 
#
# 1 127.1237 30.9930 54.7647 0.0000 0.0000 0.0000
# 2 30.9930 127.1246 54.7645 0.0000 0.0000 0.0000
# 3 54.7647 54.7645 128.6161 0.0000 0.0000 0.0000
# 4 0.0000 0.0000 0.0000 26.3979 0.0000 0.0000
# 5 0.0000 0.0000 0.0000 0.0000 26.3977 0.0000
# 6 0.0000 0.0000 0.0000 0.0000 0.0000 29.1299
#
#
#
# Elastic Compliance Matrix: (Units=1/GPa)
#
#
# Indices 1 2 3 4 5 6 
#
# 1 0.009686 -0.000716 -0.003820 0.000000 0.000000 0.000000
# 2 -0.000716 0.009686 -0.003819 0.000000 0.000000 0.000000
# 3 -0.003820 -0.003819 0.011028 0.000000 0.000000 0.000000
# 4 0.000000 0.000000 0.000000 0.037882 0.000000 0.000000
# 5 0.000000 0.000000 0.000000 0.000000 0.037882 0.000000
# 6 0.000000 0.000000 0.000000 0.000000 0.000000 0.034329
#
#
# Mechanical properties :
#
#
# Convention : Reuss Voigt Hill
#
# Bulk Modulus (GPa) = 73.04506 73.76762 73.40634
# Shear Modulus (GPa) = 30.90868 32.54127 31.72498
#
# Velocity S-wave (km/s) = 3.58228 3.67567 3.62927
# Velocity P-wave (km/s) = 6.88747 6.97431 6.93103
#
# Compressibility (1/GPa) = 0.01369018
#
# Stress axis : x y z
#
# Youngs Moduli (GPa) = 103.23757 103.23868 90.68022
#
# Poissons Ratio (x) = 0.07393 0.34636
# Poissons Ratio (y) = 0.07393 0.34635
# Poissons Ratio (z) = 0.39432 0.39432
#
# Static dielectric constant tensor:
#      x y z
#    x 1.974900 0.000000 0.000000 
#    y 0.000000 1.974890 0.000000 
#    z 0.000000 0.000000 1.943160 
# 
# From -- ./inp_files/7490.got.cif
#   From: 2010.05.17/outbox.cif.g08.bks.cpg/sg142_4_cif.got.tgz:7490.got - 2010.05.20 13:39:18.
