data_PCOD9573567
_publ_section_title
;
Structure prediction by ZEFSAII (Michael W. Deem and Ramdas Pophale) SiO2 
 PCOD9573567
Probable space group: I 41/A C D
;
_chemical_formula_sum "Si O2"
_cell_formula_units_Z 112
_cell_length_a 31.190966
_cell_length_b 31.190966
_cell_length_c 5.363265
_cell_angle_alpha 90.000000
_cell_angle_beta 90.000000
_cell_angle_gamma 90.000000
_cell_volume 5217.793731
_symmetry_space_group_name_H-M "I 41/A C D"
_symmetry_group_IT_number 142
_space_group.IT_coordinate_system_code '2'
_symmetry_cell_setting 'tetragonal'
loop_
_space_group_symop_operation_xyz
x,y,z
1/4-y,3/4+x,1/4+z
-x,1/2-y,z
1/4+y,1/4-x,3/4+z
x,-y,1/2-z
1/2-x,y,-z
3/4+y,1/4+x,1/4-z
1/4-y,1/4-x,1/4-z
-x,-y,-z
3/4+y,1/4-x,3/4-z
x,1/2+y,-z
3/4-y,3/4+x,1/4-z
-x,y,1/2+z
1/2+x,-y,z
1/4-y,3/4-x,3/4+z
3/4+y,3/4+x,3/4+z
1/2+x,1/2+y,1/2+z
3/4-y,1/4+x,3/4+z
1/2-x,-y,1/2+z
3/4+y,3/4-x,1/4+z
1/2+x,1/2-y,-z
-x,1/2+y,1/2-z
1/4+y,3/4+x,3/4-z
3/4-y,3/4-x,3/4-z
1/2-x,1/2-y,1/2-z
1/4+y,3/4-x,1/4-z
1/2+x,y,1/2-z
1/4-y,1/4+x,3/4-z
1/2-x,1/2+y,z
x,1/2-y,1/2+z
3/4-y,1/4-x,1/4+z
1/4+y,1/4+x,1/4+z
loop_
_atom_site_type_symbol
_atom_site_label
_atom_site_fract_x
_atom_site_fract_y
_atom_site_fract_z
Si Si1 0.598184 0.328047 0.629265
Si Si2 0.416646 0.500000 0.250000
Si Si3 0.359410 0.578499 0.376655
Si Si4 0.472441 0.437841 0.576689
O O1 0.572491 0.322491 0.375000
O O2 0.610293 0.379090 0.624353
O O3 0.642708 0.302788 0.662941
O O4 0.570738 0.320738 0.875000
O O5 0.388296 0.536895 0.372490
O O6 0.442291 0.475773 0.471558
O O7 0.331826 0.581826 0.625000
O O8 0.332096 0.582096 0.125000
O O9 0.492059 0.439887 0.854672
#
# Coordination Sequence:
#
# PCOD9573567 Si02
#       4
#    32  16  32  32
#     4  10  19  41  63  84 126 187 223 256 310 409
#     4  12  24  44  68  98 140 182 222 280 356 416
#     4  10  22  39  65  88 119 182 236 267 318 406
#     4  12  26  40  63 105 145 171 212 277 351 415
#
# _framework density 21.465012999999999
#
# number of rings (size 3 to 8) (size 9 to 14) (size 15 to 20)
#    0.000    1.143    5.714    2.571    4.000    3.429 
#    0.000    0.000    0.000    1.714    0.000    0.000 
#    0.000   40.000    0.000    0.000    0.000    0.000 
#
# Total GULP energy -312690.893923 kJ/mol
# GULP energy per Si atom -5583.765963 kJ/mol
# Density = 2.141616 g / cm^3
# Si number density = 21.465013 Si / 1000 Ang^3
#
#
#
# Elastic Constant Matrix: (Units=GPa)
#
#
# Indices 1 2 3 4 5 6 
#
# 1 -46.5470 114.8024 18.3065 0.0000 0.0000 0.0000
# 2 114.8024 -46.5470 18.3065 0.0000 0.0000 0.0000
# 3 18.3065 18.3065 182.6329 0.0000 0.0000 0.0000
# 4 0.0000 0.0000 0.0000 49.9111 0.0000 0.0000
# 5 0.0000 0.0000 0.0000 0.0000 49.9111 0.0000
# 6 0.0000 0.0000 0.0000 0.0000 0.0000 36.8940
#
#
#
# Elastic Compliance Matrix: (Units=1/GPa)
#
#
# Indices 1 2 3 4 5 6 
#
# 1 0.004643 0.010841 -0.001552 0.000000 0.000000 0.000000
# 2 0.010841 0.004643 -0.001552 0.000000 0.000000 0.000000
# 3 -0.001552 -0.001552 0.005787 0.000000 0.000000 0.000000
# 4 0.000000 0.000000 0.000000 0.020036 0.000000 0.000000
# 5 0.000000 0.000000 0.000000 0.000000 0.020036 0.000000
# 6 0.000000 0.000000 0.000000 0.000000 0.000000 0.027105
#
#
# Mechanical properties :
#
#
# Convention : Reuss Voigt Hill
#
# Bulk Modulus (GPa) = 32.73820 43.59662 38.16741
# Shear Modulus (GPa) = 64.97150 23.21815 44.09482
#
# Velocity S-wave (km/s) = 5.50766 3.29245 4.53732
# Velocity P-wave (km/s) = 7.46530 5.89985 6.72826
#
# Compressibility (1/GPa) = 0.03054536
#
# Stress axis : x y z
#
# Youngs Moduli (GPa) = 215.38612 215.38612 172.81313
#
# Poissons Ratio (x) = -2.33491 0.26821
# Poissons Ratio (y) = -2.33491 0.26821
# Poissons Ratio (z) = 0.33428 0.33428
#
# Static dielectric constant tensor:
#      x y z
#    x 1.773790 0.000000 0.000000 
#    y 0.000000 1.773790 0.000000 
#    z 0.000000 0.000000 1.956450 
# 
# From -- ./inp_files/722.got.cif
#   From: 2010.05.17/outbox.cif.g08.bks.cpg/sg142_1_cif.got.tgz:722.got - 2010.05.20 13:39:18.
