data_PCOD9573356
_publ_section_title
;
Structure prediction by ZEFSAII (Michael W. Deem and Ramdas Pophale) SiO2 
 PCOD9573356
Probable space group: I 41/A M D
;
_chemical_formula_sum "Si O2"
_cell_formula_units_Z 128
_cell_length_a 20.458262
_cell_length_b 20.458262
_cell_length_c 14.040327
_cell_angle_alpha 90.000000
_cell_angle_beta 90.000000
_cell_angle_gamma 90.000000
_cell_volume 5876.445259
_symmetry_space_group_name_H-M "I 41/A M D"
_symmetry_group_IT_number 141
_space_group.IT_coordinate_system_code '2'
_symmetry_cell_setting 'tetragonal'
loop_
_space_group_symop_operation_xyz
x,y,z
1/4-y,3/4+x,1/4+z
-x,1/2-y,z
1/4+y,1/4-x,3/4+z
x,-y,-z
-x,1/2+y,-z
1/4+y,3/4+x,1/4-z
1/4-y,1/4-x,3/4-z
-x,-y,-z
3/4+y,1/4-x,3/4-z
x,1/2+y,-z
3/4-y,3/4+x,1/4-z
-x,y,z
x,1/2-y,z
3/4-y,1/4-x,3/4+z
3/4+y,3/4+x,1/4+z
1/2+x,1/2+y,1/2+z
3/4-y,1/4+x,3/4+z
1/2-x,-y,1/2+z
3/4+y,3/4-x,1/4+z
1/2+x,1/2-y,1/2-z
1/2-x,y,1/2-z
3/4+y,1/4+x,3/4-z
3/4-y,3/4-x,1/4-z
1/2-x,1/2-y,1/2-z
1/4+y,3/4-x,1/4-z
1/2+x,y,1/2-z
1/4-y,1/4+x,3/4-z
1/2-x,1/2+y,1/2+z
1/2+x,-y,1/2+z
1/4-y,3/4-x,1/4+z
1/4+y,1/4+x,3/4+z
loop_
_atom_site_type_symbol
_atom_site_label
_atom_site_fract_x
_atom_site_fract_y
_atom_site_fract_z
Si Si1 0.638755 0.888913 0.032399
Si Si2 0.368991 0.881010 0.375000
Si Si3 0.679796 0.750000 0.800272
Si Si4 0.188537 0.750000 0.469624
Si Si5 0.000000 0.056105 0.919351
Si Si6 0.774569 0.924553 0.964957
O O1 0.651449 0.814859 0.065062
O O2 0.654287 0.939062 0.118477
O O3 0.567465 0.896731 0.986329
O O4 0.699723 0.903528 0.963185
O O5 0.353037 0.812582 0.326120
O O6 0.311861 0.887586 0.451608
O O7 0.750000 0.750000 0.750000
O O8 0.686481 0.750000 0.914820
O O9 0.261715 0.750000 0.426930
O O10 0.000000 0.000000 0.000000
O O11 0.779417 0.000000 0.000000
#
# Coordination Sequence:
#
# PCOD9573356 Si02
#       6
#    32  16  16  16  16  32
#     4  12  26  44  74 103 148 195 255 318 390 469
#     4  12  24  43  78 110 150 198 258 315 402 460
#     4  12  28  45  67 108 147 193 249 315 391 474
#     4  12  24  49  71  99 152 199 244 322 389 460
#     4  12  26  49  76 114 157 202 263 330 403 475
#     4  12  22  44  73 109 139 193 259 325 379 458
#
# _framework density 21.781876
#
# number of rings (size 3 to 8) (size 9 to 14) (size 15 to 20)
#    0.000    0.000    5.000    5.250    0.000    2.750 
#    0.000    1.250    0.000    4.500    0.000    0.000 
#    0.000    0.000    0.000    0.000    0.000    0.000 
#
# Total GULP energy -358074.271337 kJ/mol
# GULP energy per Si atom -5594.910490 kJ/mol
# Density = 2.173230 g / cm^3
# Si number density = 21.781876 Si / 1000 Ang^3
#
#
#
# Elastic Constant Matrix: (Units=GPa)
#
#
# Indices 1 2 3 4 5 6 
#
# 1 178.4903 49.6342 43.6844 0.0000 0.0000 0.0000
# 2 49.6342 178.4906 43.6839 0.0000 0.0000 0.0000
# 3 43.6844 43.6839 101.7790 0.0000 0.0000 0.0000
# 4 0.0000 0.0000 0.0000 -14.1704 0.0000 0.0000
# 5 0.0000 0.0000 0.0000 0.0000 -14.1928 0.0000
# 6 0.0000 0.0000 0.0000 0.0000 0.0000 39.5413
#
#
#
# Elastic Compliance Matrix: (Units=1/GPa)
#
#
# Indices 1 2 3 4 5 6 
#
# 1 0.006503 -0.001257 -0.002252 0.000000 0.000000 0.000000
# 2 -0.001257 0.006503 -0.002252 0.000000 0.000000 0.000000
# 3 -0.002252 -0.002252 0.011758 0.000000 0.000000 0.000000
# 4 0.000000 0.000000 0.000000 -0.070570 0.000000 0.000000
# 5 0.000000 0.000000 0.000000 0.000000 -0.070458 0.000000
# 6 0.000000 0.000000 0.000000 0.000000 0.000000 0.025290
#
#
# Mechanical properties :
#
#
# Convention : Reuss Voigt Hill
#
# Bulk Modulus (GPa) = 75.50880 81.41833 78.46356
# Shear Modulus (GPa) = -66.63277 23.68612 -21.47332
#
# Velocity S-wave (km/s) = -5.53691 3.30119 -3.14321
# Velocity P-wave (km/s) = 2.47695 7.21045 4.78828
#
# Compressibility (1/GPa) = 0.01324349
#
# Stress axis : x y z
#
# Youngs Moduli (GPa) = 153.76924 153.76999 85.04862
#
# Poissons Ratio (x) = 0.19334 0.19149
# Poissons Ratio (y) = 0.19334 0.19149
# Poissons Ratio (z) = 0.34622 0.34622
#
# Static dielectric constant tensor:
#      x y z
#    x 2.003020 0.000000 0.000000 
#    y 0.000000 2.003120 0.000000 
#    z 0.000000 0.000000 1.840240 
# 
# From -- ./inp_files/6326.got.cif
#   From: 2010.05.17/outbox.cif.g08.bks.cpg/sg141_4_cif.got.tgz:6326.got - 2010.05.20 13:30:51.
