data_PCOD9573542
_publ_section_title
;
Structure prediction by ZEFSAII (Michael W. Deem and Ramdas Pophale) SiO2 
 PCOD9573542
Probable space group: I 41/A C D
;
_chemical_formula_sum "Si O2"
_cell_formula_units_Z 168
_cell_length_a 19.099388
_cell_length_b 19.099388
_cell_length_c 23.115331
_cell_angle_alpha 90.000000
_cell_angle_beta 90.000000
_cell_angle_gamma 90.000000
_cell_volume 8432.163511
_symmetry_space_group_name_H-M "I 41/A C D"
_symmetry_group_IT_number 142
_space_group.IT_coordinate_system_code '2'
_symmetry_cell_setting 'tetragonal'
loop_
_space_group_symop_operation_xyz
x,y,z
1/4-y,3/4+x,1/4+z
-x,1/2-y,z
1/4+y,1/4-x,3/4+z
x,-y,1/2-z
1/2-x,y,-z
3/4+y,1/4+x,1/4-z
1/4-y,1/4-x,1/4-z
-x,-y,-z
3/4+y,1/4-x,3/4-z
x,1/2+y,-z
3/4-y,3/4+x,1/4-z
-x,y,1/2+z
1/2+x,-y,z
1/4-y,3/4-x,3/4+z
3/4+y,3/4+x,3/4+z
1/2+x,1/2+y,1/2+z
3/4-y,1/4+x,3/4+z
1/2-x,-y,1/2+z
3/4+y,3/4-x,1/4+z
1/2+x,1/2-y,-z
-x,1/2+y,1/2-z
1/4+y,3/4+x,3/4-z
3/4-y,3/4-x,3/4-z
1/2-x,1/2-y,1/2-z
1/4+y,3/4-x,1/4-z
1/2+x,y,1/2-z
1/4-y,1/4+x,3/4-z
1/2-x,1/2+y,z
x,1/2-y,1/2+z
3/4-y,1/4-x,1/4+z
1/4+y,1/4+x,1/4+z
loop_
_atom_site_type_symbol
_atom_site_label
_atom_site_fract_x
_atom_site_fract_y
_atom_site_fract_z
Si Si1 0.752882 0.966427 0.688439
Si Si2 0.006600 0.647259 0.095835
Si Si3 0.893894 0.218698 0.221438
Si Si4 0.252882 0.193559 0.334146
Si Si5 0.412604 0.441676 0.793373
Si Si6 0.000000 0.750000 0.375000
O O1 0.756536 0.006536 0.625000
O O2 0.775594 0.885168 0.679905
O O3 0.669663 0.957991 0.698475
O O4 0.779641 0.000000 0.750000
O O5 0.069228 0.685658 0.129205
O O6 0.009543 0.563965 0.097765
O O7 0.010414 0.664613 0.028196
O O8 0.809985 0.216950 0.212928
O O9 0.917939 0.137722 0.227579
O O10 0.933128 0.249103 0.166372
O O11 0.298343 0.191276 0.392646
O O12 0.441877 0.500000 0.750000
#
# Coordination Sequence:
#
# PCOD9573542 Si02
#       6
#    32  32  32  32  32   8
#     4   8  15  28  53  86 119 153 196 252 310 367
#     4  11  24  41  61  87 121 162 207 255 310 365
#     4  11  21  37  60  92 123 163 205 253 305 372
#     4  10  19  37  61  89 118 156 209 252 305 369
#     4   9  16  31  57  92 118 152 202 253 296 358
#     4  12  20  36  62  84 128 160 200 246 304 364
#
# _framework density 19.923712999999999
#
# number of rings (size 3 to 8) (size 9 to 14) (size 15 to 20)
#    0.000    2.095    1.905    4.000    0.000    1.524 
#    0.000    0.000    6.286    0.000    0.000    0.000 
#    0.000    0.000    0.000    0.000    0.000    0.000 
#
# Total GULP energy -468036.815414 kJ/mol
# GULP energy per Si atom -5571.866850 kJ/mol
# Density = 1.987837 g / cm^3
# Si number density = 19.923713 Si / 1000 Ang^3
#
#
#
# Elastic Constant Matrix: (Units=GPa)
#
#
# Indices 1 2 3 4 5 6 
#
# 1 40.1122 37.1169 20.0869 0.0000 0.0000 0.0000
# 2 37.1169 40.1122 20.0869 0.0000 0.0000 0.0000
# 3 20.0869 20.0869 114.8172 0.0000 0.0000 0.0000
# 4 0.0000 0.0000 0.0000 -705.9787 0.0003 0.0000
# 5 0.0000 0.0000 0.0000 0.0003 -705.9783 0.0000
# 6 0.0000 0.0000 0.0000 0.0000 0.0000 16.5370
#
#
#
# Elastic Compliance Matrix: (Units=1/GPa)
#
#
# Indices 1 2 3 4 5 6 
#
# 1 0.174047 -0.159802 -0.002492 0.000000 0.000000 0.000000
# 2 -0.159802 0.174047 -0.002492 0.000000 0.000000 0.000000
# 3 -0.002492 -0.002492 0.009581 0.000000 0.000000 0.000000
# 4 0.000000 0.000000 0.000000 -0.001416 0.000000 0.000000
# 5 0.000000 0.000000 0.000000 0.000000 -0.001416 0.000000
# 6 0.000000 0.000000 0.000000 0.000000 0.000000 0.060471
#
#
# Mechanical properties :
#
#
# Convention : Reuss Voigt Hill
#
# Bulk Modulus (GPa) = 35.58365 38.84700 37.21533
# Shear Modulus (GPa) = 6.62907 -271.23396 -132.30244
#
# Velocity S-wave (km/s) = 1.82605 -11.68040 -8.15774
# Velocity P-wave (km/s) = 4.72701 12.74240 8.36732
#
# Compressibility (1/GPa) = 0.02810280
#
# Stress axis : x y z
#
# Youngs Moduli (GPa) = 5.74558 5.74558 104.36812
#
# Poissons Ratio (x) = 0.91816 0.26010
# Poissons Ratio (y) = 0.91816 0.26010
# Poissons Ratio (z) = 0.01432 0.01432
#
# Static dielectric constant tensor:
#      x y z
#    x 1.726510 0.000000 0.000000 
#    y 0.000000 1.726510 0.000000 
#    z 0.000000 0.000000 1.779120 
# 
# From -- ./inp_files/10343.got.cif
#   From: 2010.05.17/outbox.cif.g08.bks.cpg/sg142_6_cif.got.tgz:10343.got - 2010.05.20 13:39:18.
