data_PCOD9573377
_publ_section_title
;
Structure prediction by ZEFSAII (Michael W. Deem and Ramdas Pophale) SiO2 
 PCOD9573377
Probable space group: I 41/A M D
;
_chemical_formula_sum "Si O2"
_cell_formula_units_Z 80
_cell_length_a 27.000000
_cell_length_b 27.000000
_cell_length_c 12.000000
_cell_angle_alpha 90.000000
_cell_angle_beta 90.000000
_cell_angle_gamma 90.000000
_cell_volume 8748.000000
_symmetry_space_group_name_H-M "I 41/A M D"
_symmetry_group_IT_number 141
_space_group.IT_coordinate_system_code '2'
_symmetry_cell_setting 'tetragonal'
loop_
_space_group_symop_operation_xyz
x,y,z
1/4-y,3/4+x,1/4+z
-x,1/2-y,z
1/4+y,1/4-x,3/4+z
x,-y,-z
-x,1/2+y,-z
1/4+y,3/4+x,1/4-z
1/4-y,1/4-x,3/4-z
-x,-y,-z
3/4+y,1/4-x,3/4-z
x,1/2+y,-z
3/4-y,3/4+x,1/4-z
-x,y,z
x,1/2-y,z
3/4-y,1/4-x,3/4+z
3/4+y,3/4+x,1/4+z
1/2+x,1/2+y,1/2+z
3/4-y,1/4+x,3/4+z
1/2-x,-y,1/2+z
3/4+y,3/4-x,1/4+z
1/2+x,1/2-y,1/2-z
1/2-x,y,1/2-z
3/4+y,1/4+x,3/4-z
3/4-y,3/4-x,1/4-z
1/2-x,1/2-y,1/2-z
1/4+y,3/4-x,1/4-z
1/2+x,y,1/2-z
1/4-y,1/4+x,3/4-z
1/2-x,1/2+y,1/2+z
1/2+x,-y,1/2+z
1/4-y,3/4-x,1/4+z
1/4+y,1/4+x,3/4+z
loop_
_atom_site_type_symbol
_atom_site_label
_atom_site_fract_x
_atom_site_fract_y
_atom_site_fract_z
Si Si1 0.284616 0.600760 0.145798
Si Si2 0.145611 0.308126 0.608931
Si Si3 0.673514 0.658257 0.865310
Si Si4 0.865611 0.691866 0.872508
Si Si5 0.279022 0.124077 0.429763
O O1 0.250000 0.589030 0.250000
O O2 0.314012 0.653311 0.160664
O O3 0.327201 0.559012 0.128953
O O4 0.247640 0.606288 0.042296
O O5 0.147390 0.250000 0.641972
O O6 0.158186 0.312157 0.476691
O O7 0.092474 0.335058 0.630252
O O8 0.643494 0.606507 0.875000
O O9 0.654572 0.684858 0.754166
O O10 0.731875 0.646886 0.865103
O O11 0.872859 0.750000 0.896593
O O12 0.821618 0.665867 0.943885
#
# Coordination Sequence:
#
# PCOD9573377 Si02
#       5
#    32  32  32  32  32
#     4  10  21  37  55  77 102 133 172 211 254 304
#     4   9  19  35  53  75 102 132 171 216 260 308
#     4   9  18  32  50  76 108 138 168 203 247 302
#     4  10  20  33  51  76 105 137 173 212 253 302
#     4  10  21  34  51  77 107 135 170 207 247 302
#
# _framework density 9.1449470000000002
#
# number of rings (size 3 to 8) (size 9 to 14) (size 15 to 20)
#    0.000    2.400    0.000    3.000    0.000    7.200 
#    0.000    2.000    0.000    3.600    0.000    0.000 
#    0.000    6.400    0.000    0.000    0.000    0.200 
#
# Total GULP energy -446089.008623 kJ/mol
# GULP energy per Si atom -5576.112608 kJ/mol
# Density = 0.912413 g / cm^3
# Si number density = 9.144947 Si / 1000 Ang^3
#
#
#
# Elastic Constant Matrix: (Units=GPa)
#
#
# Indices 1 2 3 4 5 6 
#
# 1 137.2084 43.9703 1.2042 0.0000 0.0000 0.0000
# 2 43.9703 137.2090 1.2049 0.0000 0.0000 0.0000
# 3 1.2042 1.2049 22.0846 0.0000 0.0000 0.0000
# 4 0.0000 0.0000 0.0000 17.2275 0.0000 0.0000
# 5 0.0000 0.0000 0.0000 0.0000 17.2266 0.0000
# 6 0.0000 0.0000 0.0000 0.0000 0.0000 18.0836
#
#
#
# Elastic Compliance Matrix: (Units=1/GPa)
#
#
# Indices 1 2 3 4 5 6 
#
# 1 0.008124 -0.002601 -0.000301 0.000000 0.000000 0.000000
# 2 -0.002601 0.008124 -0.000301 0.000000 0.000000 0.000000
# 3 -0.000301 -0.000301 0.045313 0.000000 0.000000 0.000000
# 4 0.000000 0.000000 0.000000 0.058047 0.000000 0.000000
# 5 0.000000 0.000000 0.000000 0.000000 0.058050 0.000000
# 6 0.000000 0.000000 0.000000 0.000000 0.000000 0.055299
#
#
# Mechanical properties :
#
#
# Convention : Reuss Voigt Hill
#
# Bulk Modulus (GPa) = 18.13073 43.25120 30.69096
# Shear Modulus (GPa) = 19.39872 27.18237 23.29055
#
# Velocity S-wave (km/s) = 3.26026 3.85930 3.57236
# Velocity P-wave (km/s) = 4.90987 6.59984 5.81656
#
# Compressibility (1/GPa) = 0.05515499
#
# Stress axis : x y z
#
# Youngs Moduli (GPa) = 123.08725 123.08770 22.06863
#
# Poissons Ratio (x) = 0.32014 0.00664
# Poissons Ratio (y) = 0.32014 0.00665
# Poissons Ratio (z) = 0.03706 0.03710
#
# Static dielectric constant tensor:
#      x y z
#    x 1.620520 0.000000 0.000000 
#    y 0.000000 1.620520 0.000000 
#    z 0.000000 0.000000 1.679960 
# 
# From -- ./inp_files/4838.got.cif
#   From: 2010.05.17/outbox.ucp.g08.bks.cvg/sg141_3_cif.got.tgz:4838.got - 2010.06.11 11:43:24.
