data_PCOD9573737
_publ_section_title
;
Structure prediction by ZEFSAII (Michael W. Deem and Ramdas Pophale) SiO2 
 PCOD9573737
Probable space group: I 41/A C D
;
_chemical_formula_sum "Si O2"
_cell_formula_units_Z 120
_cell_length_a 19.071456
_cell_length_b 19.071456
_cell_length_c 14.307429
_cell_angle_alpha 90.000000
_cell_angle_beta 90.000000
_cell_angle_gamma 90.000000
_cell_volume 5203.904285
_symmetry_space_group_name_H-M "I 41/A C D"
_symmetry_group_IT_number 142
_space_group.IT_coordinate_system_code '2'
_symmetry_cell_setting 'tetragonal'
loop_
_space_group_symop_operation_xyz
x,y,z
1/4-y,3/4+x,1/4+z
-x,1/2-y,z
1/4+y,1/4-x,3/4+z
x,-y,1/2-z
1/2-x,y,-z
3/4+y,1/4+x,1/4-z
1/4-y,1/4-x,1/4-z
-x,-y,-z
3/4+y,1/4-x,3/4-z
x,1/2+y,-z
3/4-y,3/4+x,1/4-z
-x,y,1/2+z
1/2+x,-y,z
1/4-y,3/4-x,3/4+z
3/4+y,3/4+x,3/4+z
1/2+x,1/2+y,1/2+z
3/4-y,1/4+x,3/4+z
1/2-x,-y,1/2+z
3/4+y,3/4-x,1/4+z
1/2+x,1/2-y,-z
-x,1/2+y,1/2-z
1/4+y,3/4+x,3/4-z
3/4-y,3/4-x,3/4-z
1/2-x,1/2-y,1/2-z
1/4+y,3/4-x,1/4-z
1/2+x,y,1/2-z
1/4-y,1/4+x,3/4-z
1/2-x,1/2+y,z
x,1/2-y,1/2+z
3/4-y,1/4-x,1/4+z
1/4+y,1/4+x,1/4+z
loop_
_atom_site_type_symbol
_atom_site_label
_atom_site_fract_x
_atom_site_fract_y
_atom_site_fract_z
Si Si1 0.765579 0.416692 0.234535
Si Si2 0.500000 0.250000 0.375000
Si Si3 0.159600 0.649733 0.084586
Si Si4 0.539975 0.628628 0.269560
Si Si5 0.656755 0.593246 0.125000
O O1 0.753142 0.500000 0.250000
O O2 0.721914 0.383431 0.149144
O O3 0.847562 0.402308 0.246194
O O4 0.730698 0.389188 0.328784
O O5 0.564636 0.255316 0.448280
O O6 0.172371 0.728841 0.053396
O O7 0.085904 0.654891 0.141637
O O8 0.600908 0.597749 0.206349
#
# Coordination Sequence:
#
# PCOD9573737 Si02
#       5
#    32   8  32  32  16
#     4  11  21  43  69  93 135 184 218 273 347 409
#     4  10  20  46  66  88 148 186 214 256 372 400
#     4  11  23  42  69 100 135 176 229 274 341 400
#     4  10  22  39  68  99 130 177 222 282 323 404
#     4   9  20  41  67  92 128 182 219 267 344 397
#
# _framework density 23.059608999999998
#
# number of rings (size 3 to 8) (size 9 to 14) (size 15 to 20)
#    0.000    1.600    2.667    1.600    0.000    1.067 
#    9.600    0.000    0.000    0.000    0.000    0.000 
#    0.000    0.000    0.000    0.000    0.000    0.000 
#
# Total GULP energy -334629.623408 kJ/mol
# GULP energy per Si atom -5577.160390 kJ/mol
# Density = 2.300712 g / cm^3
# Si number density = 23.059609 Si / 1000 Ang^3
#
#
#
# Elastic Constant Matrix: (Units=GPa)
#
#
# Indices 1 2 3 4 5 6 
#
# 1 64.4533 31.2321 33.1734 0.0000 0.0000 0.0000
# 2 31.2321 64.4497 33.1694 0.0000 0.0000 0.0000
# 3 33.1734 33.1694 87.6422 0.0000 0.0000 0.0000
# 4 0.0000 0.0000 0.0000 -11.7234 0.0000 0.0000
# 5 0.0000 0.0000 0.0000 0.0000 -11.7206 0.0000
# 6 0.0000 0.0000 0.0000 0.0000 0.0000 15.2938
#
#
#
# Elastic Compliance Matrix: (Units=1/GPa)
#
#
# Indices 1 2 3 4 5 6 
#
# 1 0.022136 -0.007967 -0.005364 0.000000 0.000000 0.000000
# 2 -0.007967 0.022136 -0.005362 0.000000 0.000000 0.000000
# 3 -0.005364 -0.005362 0.015470 0.000000 0.000000 0.000000
# 4 0.000000 0.000000 0.000000 -0.085299 0.000000 0.000000
# 5 0.000000 0.000000 0.000000 0.000000 -0.085320 0.000000
# 6 0.000000 0.000000 0.000000 0.000000 0.000000 0.065386
#
#
# Mechanical properties :
#
#
# Convention : Reuss Voigt Hill
#
# Bulk Modulus (GPa) = 44.72901 45.74387 45.23644
# Shear Modulus (GPa) = -7649.48091 6.30132 -3821.58980
#
# Velocity S-wave (km/s) = -57.65818 1.65486 -40.75369
# Velocity P-wave (km/s) = 66.43178 4.85095 46.84896
#
# Compressibility (1/GPa) = 0.02235686
#
# Stress axis : x y z
#
# Youngs Moduli (GPa) = 45.17505 45.17462 64.64270
#
# Poissons Ratio (x) = 0.35989 0.34672
# Poissons Ratio (y) = 0.35989 0.34664
# Poissons Ratio (z) = 0.24230 0.24224
#
# Static dielectric constant tensor:
#      x y z
#    x 1.912950 0.000000 0.000000 
#    y 0.000000 1.912950 0.000000 
#    z 0.000000 0.000000 1.448020 
# 
# From -- ./inp_files/5055.got.cif
#   From: 2010.05.17/outbox.cif.g08.bks.cpg/sg142_3_cif.got.tgz:5055.got - 2010.05.20 13:39:18.
