data_PCOD9573171
_publ_section_title
;
Structure prediction by ZEFSAII (Michael W. Deem and Ramdas Pophale) SiO2 
 PCOD9573171
Probable space group: I 41/A M D
;
_chemical_formula_sum "Si O2"
_cell_formula_units_Z 144
_cell_length_a 20.832963
_cell_length_b 20.832963
_cell_length_c 15.726004
_cell_angle_alpha 90.000000
_cell_angle_beta 90.000000
_cell_angle_gamma 90.000000
_cell_volume 6825.279911
_symmetry_space_group_name_H-M "I 41/A M D"
_symmetry_group_IT_number 141
_space_group.IT_coordinate_system_code '2'
_symmetry_cell_setting 'tetragonal'
loop_
_space_group_symop_operation_xyz
x,y,z
1/4-y,3/4+x,1/4+z
-x,1/2-y,z
1/4+y,1/4-x,3/4+z
x,-y,-z
-x,1/2+y,-z
1/4+y,3/4+x,1/4-z
1/4-y,1/4-x,3/4-z
-x,-y,-z
3/4+y,1/4-x,3/4-z
x,1/2+y,-z
3/4-y,3/4+x,1/4-z
-x,y,z
x,1/2-y,z
3/4-y,1/4-x,3/4+z
3/4+y,3/4+x,1/4+z
1/2+x,1/2+y,1/2+z
3/4-y,1/4+x,3/4+z
1/2-x,-y,1/2+z
3/4+y,3/4-x,1/4+z
1/2+x,1/2-y,1/2-z
1/2-x,y,1/2-z
3/4+y,1/4+x,3/4-z
3/4-y,3/4-x,1/4-z
1/2-x,1/2-y,1/2-z
1/4+y,3/4-x,1/4-z
1/2+x,y,1/2-z
1/4-y,1/4+x,3/4-z
1/2-x,1/2+y,1/2+z
1/2+x,-y,1/2+z
1/4-y,3/4-x,1/4+z
1/4+y,1/4+x,3/4+z
loop_
_atom_site_type_symbol
_atom_site_label
_atom_site_fract_x
_atom_site_fract_y
_atom_site_fract_z
Si Si1 0.176551 0.500000 0.000000
Si Si2 0.758092 0.131598 0.051380
Si Si3 0.159388 0.676037 0.676786
Si Si4 0.383424 0.678546 0.628017
Si Si5 0.210936 0.179001 0.621980
O O1 0.220542 0.438504 0.019313
O O2 0.126715 0.499858 0.079150
O O3 0.717185 0.133808 0.138243
O O4 0.822205 0.171945 0.067129
O O5 0.717541 0.164894 0.977780
O O6 0.175670 0.750000 0.659482
O O7 0.097081 0.652920 0.625000
O O8 0.144268 0.670604 0.776138
O O9 0.412293 0.750000 0.621977
O O10 0.424084 0.615017 0.608105
O O11 0.234872 0.250000 0.642537
#
# Coordination Sequence:
#
# PCOD9573171 Si02
#       5
#    16  32  32  32  32
#     4  10  25  42  60  88 117 152 200 256 310 358
#     4  11  22  39  60  85 119 160 201 244 303 360
#     4  11  22  37  57  87 123 163 202 241 291 354
#     4  10  22  38  58  88 123 160 201 242 291 357
#     4  11  22  40  63  87 117 156 200 249 306 357
#
# _framework density 21.098036
#
# number of rings (size 3 to 8) (size 9 to 14) (size 15 to 20)
#    0.000    1.333    2.222    3.667    0.000    6.000 
#    0.000    2.222    0.000    0.000    0.000    0.000 
#    0.000   19.556    0.000    0.000    0.000    0.000 
#
# Total GULP energy -402014.338847 kJ/mol
# GULP energy per Si atom -5583.532484 kJ/mol
# Density = 2.105002 g / cm^3
# Si number density = 21.098036 Si / 1000 Ang^3
#
#
#
# Elastic Constant Matrix: (Units=GPa)
#
#
# Indices 1 2 3 4 5 6 
#
# 1 93.9869 33.0552 5.9789 0.0000 0.0000 0.0000
# 2 33.0552 93.9831 5.9794 0.0000 0.0000 0.0000
# 3 5.9789 5.9794 32.4768 0.0000 0.0000 0.0000
# 4 0.0000 0.0000 0.0000 20.8083 0.0000 0.0000
# 5 0.0000 0.0000 0.0000 0.0000 20.8093 0.0000
# 6 0.0000 0.0000 0.0000 0.0000 0.0000 10.9191
#
#
#
# Elastic Compliance Matrix: (Units=1/GPa)
#
#
# Indices 1 2 3 4 5 6 
#
# 1 0.012211 -0.004201 -0.001475 0.000000 0.000000 0.000000
# 2 -0.004201 0.012212 -0.001475 0.000000 0.000000 0.000000
# 3 -0.001475 -0.001475 0.031334 0.000000 0.000000 0.000000
# 4 0.000000 0.000000 0.000000 0.048058 0.000000 0.000000
# 5 0.000000 0.000000 0.000000 0.000000 0.048055 0.000000
# 6 0.000000 0.000000 0.000000 0.000000 0.000000 0.091583
#
#
# Mechanical properties :
#
#
# Convention : Reuss Voigt Hill
#
# Bulk Modulus (GPa) = 24.12202 34.49711 29.30957
# Shear Modulus (GPa) = 18.41130 22.20289 20.30710
#
# Velocity S-wave (km/s) = 2.95728 3.24754 3.10580
# Velocity P-wave (km/s) = 4.80820 5.51801 5.17529
#
# Compressibility (1/GPa) = 0.04145589
#
# Stress axis : x y z
#
# Youngs Moduli (GPa) = 81.89289 81.88935 31.91401
#
# Poissons Ratio (x) = 0.34402 0.04706
# Poissons Ratio (y) = 0.34403 0.04707
# Poissons Ratio (z) = 0.12076 0.12078
#
# Static dielectric constant tensor:
#      x y z
#    x 1.784350 0.000000 0.000000 
#    y 0.000000 1.784350 0.000000 
#    z 0.000000 0.000000 1.771840 
# 
# From -- ./inp_files/8427.got.cif
#   From: 2010.05.17/outbox.cif.g08.bks.cpg/sg141_5_cif.got.tgz:8427.got - 2010.05.20 13:30:51.
