data_PCOD9573226
_publ_section_title
;
Structure prediction by ZEFSAII (Michael W. Deem and Ramdas Pophale) SiO2 
 PCOD9573226
Probable space group: I 41/A M D
;
_chemical_formula_sum "Si O2"
_cell_formula_units_Z 128
_cell_length_a 21.145652
_cell_length_b 21.145652
_cell_length_c 14.399063
_cell_angle_alpha 90.000000
_cell_angle_beta 90.000000
_cell_angle_gamma 90.000000
_cell_volume 6438.376850
_symmetry_space_group_name_H-M "I 41/A M D"
_symmetry_group_IT_number 141
_space_group.IT_coordinate_system_code '2'
_symmetry_cell_setting 'tetragonal'
loop_
_space_group_symop_operation_xyz
x,y,z
1/4-y,3/4+x,1/4+z
-x,1/2-y,z
1/4+y,1/4-x,3/4+z
x,-y,-z
-x,1/2+y,-z
1/4+y,3/4+x,1/4-z
1/4-y,1/4-x,3/4-z
-x,-y,-z
3/4+y,1/4-x,3/4-z
x,1/2+y,-z
3/4-y,3/4+x,1/4-z
-x,y,z
x,1/2-y,z
3/4-y,1/4-x,3/4+z
3/4+y,3/4+x,1/4+z
1/2+x,1/2+y,1/2+z
3/4-y,1/4+x,3/4+z
1/2-x,-y,1/2+z
3/4+y,3/4-x,1/4+z
1/2+x,1/2-y,1/2-z
1/2-x,y,1/2-z
3/4+y,1/4+x,3/4-z
3/4-y,3/4-x,1/4-z
1/2-x,1/2-y,1/2-z
1/4+y,3/4-x,1/4-z
1/2+x,y,1/2-z
1/4-y,1/4+x,3/4-z
1/2-x,1/2+y,1/2+z
1/2+x,-y,1/2+z
1/4-y,3/4-x,1/4+z
1/4+y,1/4+x,3/4+z
loop_
_atom_site_type_symbol
_atom_site_label
_atom_site_fract_x
_atom_site_fract_y
_atom_site_fract_z
Si Si1 0.000000 0.676802 0.496543
Si Si2 0.793017 0.750000 0.658284
Si Si3 0.323427 0.402694 0.732892
Si Si4 0.131862 0.176027 0.607555
Si Si5 0.130886 0.963596 0.696109
O O1 0.937820 0.669481 0.434480
O O2 0.000000 0.750000 0.529573
O O3 0.000000 0.618851 0.569734
O O4 0.750000 0.750000 0.750000
O O5 0.777397 0.813038 0.602020
O O6 0.250000 0.387208 0.750000
O O7 0.341059 0.408942 0.625000
O O8 0.362896 0.350565 0.789070
O O9 0.337105 0.470458 0.779559
O O10 0.150122 0.250000 0.602273
O O11 0.175832 0.133686 0.540685
O O12 0.173487 0.923487 0.625000
#
# Coordination Sequence:
#
# PCOD9573226 Si02
#       5
#    16  16  32  32  32
#     4  10  22  44  70  99 144 184 222 271 346 419
#     4  12  24  40  64 102 137 176 221 276 338 404
#     4  12  26  47  69  93 131 181 228 290 354 405
#     4  11  24  46  68 100 134 179 228 275 339 416
#     4  12  25  40  67 100 136 172 220 275 339 412
#
# _framework density 19.880787999999999
#
# number of rings (size 3 to 8) (size 9 to 14) (size 15 to 20)
#    0.000    0.500    6.250    2.250    0.000    0.500 
#    6.750    0.000    0.000    0.000    0.000    0.000 
#    0.000    0.000    0.000    0.000    0.000    0.000 
#
# Total GULP energy -358146.894020 kJ/mol
# GULP energy per Si atom -5596.045219 kJ/mol
# Density = 1.983554 g / cm^3
# Si number density = 19.880788 Si / 1000 Ang^3
#
#
#
# Elastic Constant Matrix: (Units=GPa)
#
#
# Indices 1 2 3 4 5 6 
#
# 1 40.9592 0.2470 5.6702 0.0000 0.0000 0.0000
# 2 0.2470 40.9591 5.6703 0.0000 0.0000 0.0000
# 3 5.6702 5.6703 110.5058 0.0000 0.0000 0.0000
# 4 0.0000 0.0000 0.0000 -2.8851 0.0000 0.0000
# 5 0.0000 0.0000 0.0000 0.0000 -2.8887 0.0000
# 6 0.0000 0.0000 0.0000 0.0000 0.0000 104.0961
#
#
#
# Elastic Compliance Matrix: (Units=1/GPa)
#
#
# Indices 1 2 3 4 5 6 
#
# 1 0.024589 0.000027 -0.001263 0.000000 0.000000 0.000000
# 2 0.000027 0.024589 -0.001263 0.000000 0.000000 0.000000
# 3 -0.001263 -0.001263 0.009179 0.000000 0.000000 0.000000
# 4 0.000000 0.000000 0.000000 -0.346609 0.000000 0.000000
# 5 0.000000 0.000000 0.000000 0.000000 -0.346180 0.000000
# 6 0.000000 0.000000 0.000000 0.000000 0.000000 0.009607
#
#
# Mechanical properties :
#
#
# Convention : Reuss Voigt Hill
#
# Bulk Modulus (GPa) = 18.74124 23.95546 21.34835
# Shear Modulus (GPa) = -8.30511 31.72023 11.70756
#
# Velocity S-wave (km/s) = -2.04610 3.99873 2.42933
# Velocity P-wave (km/s) = 1.96602 5.77889 4.31629
#
# Compressibility (1/GPa) = 0.05335825
#
# Stress axis : x y z
#
# Youngs Moduli (GPa) = 40.66817 40.66813 108.94532
#
# Poissons Ratio (x) = -0.00108 0.13761
# Poissons Ratio (y) = -0.00108 0.13761
# Poissons Ratio (z) = 0.05137 0.05137
#
# Static dielectric constant tensor:
#      x y z
#    x 1.682100 0.000000 0.000000 
#    y 0.000000 1.682100 0.000000 
#    z 0.000000 0.000000 1.712710 
# 
# From -- ./inp_files/6235.got.cif
#   From: 2010.05.17/outbox.cif.g08.bks.cpg/sg141_4_cif.got.tgz:6235.got - 2010.05.20 13:30:51.
