data_PCOD9573586
_publ_section_title
;
Structure prediction by ZEFSAII (Michael W. Deem and Ramdas Pophale) SiO2 
 PCOD9573586
Probable space group: I 41/A C D
;
_chemical_formula_sum "Si O2"
_cell_formula_units_Z 128
_cell_length_a 16.796581
_cell_length_b 16.796581
_cell_length_c 25.722906
_cell_angle_alpha 90.000000
_cell_angle_beta 90.000000
_cell_angle_gamma 90.000000
_cell_volume 7257.078284
_symmetry_space_group_name_H-M "I 41/A C D"
_symmetry_group_IT_number 142
_space_group.IT_coordinate_system_code '2'
_symmetry_cell_setting 'tetragonal'
loop_
_space_group_symop_operation_xyz
x,y,z
1/4-y,3/4+x,1/4+z
-x,1/2-y,z
1/4+y,1/4-x,3/4+z
x,-y,1/2-z
1/2-x,y,-z
3/4+y,1/4+x,1/4-z
1/4-y,1/4-x,1/4-z
-x,-y,-z
3/4+y,1/4-x,3/4-z
x,1/2+y,-z
3/4-y,3/4+x,1/4-z
-x,y,1/2+z
1/2+x,-y,z
1/4-y,3/4-x,3/4+z
3/4+y,3/4+x,3/4+z
1/2+x,1/2+y,1/2+z
3/4-y,1/4+x,3/4+z
1/2-x,-y,1/2+z
3/4+y,3/4-x,1/4+z
1/2+x,1/2-y,-z
-x,1/2+y,1/2-z
1/4+y,3/4+x,3/4-z
3/4-y,3/4-x,3/4-z
1/2-x,1/2-y,1/2-z
1/4+y,3/4-x,1/4-z
1/2+x,y,1/2-z
1/4-y,1/4+x,3/4-z
1/2-x,1/2+y,z
x,1/2-y,1/2+z
3/4-y,1/4-x,1/4+z
1/4+y,1/4+x,1/4+z
loop_
_atom_site_type_symbol
_atom_site_label
_atom_site_fract_x
_atom_site_fract_y
_atom_site_fract_z
Si Si1 0.956912 0.506595 0.944495
Si Si2 0.084918 0.213781 0.181875
Si Si3 0.838759 0.384547 0.979426
Si Si4 0.873532 0.771353 0.116054
O O1 0.871247 0.466081 0.953240
O O2 0.967489 0.598033 0.928808
O O3 0.002296 0.450228 0.903353
O O4 0.000000 0.500000 0.000000
O O5 0.073979 0.176022 0.125000
O O6 0.112405 0.148050 0.223392
O O7 0.000000 0.250000 0.197641
O O8 0.847087 0.315658 0.936124
O O9 0.750000 0.391850 0.000000
O O10 0.920689 0.688614 0.106766
#
# Coordination Sequence:
#
# PCOD9573586 Si02
#       4
#    32  32  32  32
#     4   9  19  34  56  79 111 145 188 228 295 335
#     4  10  21  36  59  77 112 153 193 227 283 352
#     4  10  20  34  57  83 116 146 190 236 295 337
#     4   9  18  31  56  85 111 145 195 243 283 344
#
# _framework density 17.637954000000001
#
# number of rings (size 3 to 8) (size 9 to 14) (size 15 to 20)
#    0.000    2.500    0.000    1.500   10.500    0.000 
#    0.000    1.250   49.500    0.000    0.000    0.000 
#    0.000    0.000    0.000    0.000    0.000    0.000 
#
# Total GULP energy -356708.558251 kJ/mol
# GULP energy per Si atom -5573.571223 kJ/mol
# Density = 1.759781 g / cm^3
# Si number density = 17.637954 Si / 1000 Ang^3
#
#
#
# Elastic Constant Matrix: (Units=GPa)
#
#
# Indices 1 2 3 4 5 6 
#
# 1 135.6827 68.5263 41.6268 0.0000 0.0000 0.0000
# 2 68.5263 135.6830 41.6268 0.0000 0.0000 0.0000
# 3 41.6268 41.6268 69.0873 0.0000 0.0000 0.0000
# 4 0.0000 0.0000 0.0000 26.0862 0.0000 0.0000
# 5 0.0000 0.0000 0.0000 0.0000 26.0864 0.0000
# 6 0.0000 0.0000 0.0000 0.0000 0.0000 13.0097
#
#
#
# Elastic Compliance Matrix: (Units=1/GPa)
#
#
# Indices 1 2 3 4 5 6 
#
# 1 0.010691 -0.004200 -0.003911 0.000000 0.000000 0.000000
# 2 -0.004200 0.010691 -0.003911 0.000000 0.000000 0.000000
# 3 -0.003911 -0.003911 0.019188 0.000000 0.000000 0.000000
# 4 0.000000 0.000000 0.000000 0.038334 0.000000 0.000000
# 5 0.000000 0.000000 0.000000 0.000000 0.038334 0.000000
# 6 0.000000 0.000000 0.000000 0.000000 0.000000 0.076866
#
#
# Mechanical properties :
#
#
# Convention : Reuss Voigt Hill
#
# Bulk Modulus (GPa) = 60.51219 71.55697 66.03458
# Shear Modulus (GPa) = 22.35564 25.61465 23.98515
#
# Velocity S-wave (km/s) = 3.56402 3.81497 3.69163
# Velocity P-wave (km/s) = 7.16371 7.75005 7.46264
#
# Compressibility (1/GPa) = 0.01652560
#
# Stress axis : x y z
#
# Youngs Moduli (GPa) = 93.53595 93.53619 52.11648
#
# Poissons Ratio (x) = 0.39281 0.20384
# Poissons Ratio (y) = 0.39281 0.20384
# Poissons Ratio (z) = 0.36585 0.36585
#
# Static dielectric constant tensor:
#      x y z
#    x 1.605020 0.000000 0.000000 
#    y 0.000000 1.605020 0.000000 
#    z 0.000000 0.000000 1.589360 
# 
# From -- ./inp_files/9955.got.cif
#   From: 2010.05.17/outbox.cif.g08.bks.cpg/sg142_5_cif.got.tgz:9955.got - 2010.05.20 13:39:18.
