data_PCOD9573702
_publ_section_title
;
Structure prediction by ZEFSAII (Michael W. Deem and Ramdas Pophale) SiO2 
 PCOD9573702
Probable space group: I 41/A C D
;
_chemical_formula_sum "Si O2"
_cell_formula_units_Z 152
_cell_length_a 18.800477
_cell_length_b 18.800477
_cell_length_c 19.667090
_cell_angle_alpha 90.000000
_cell_angle_beta 90.000000
_cell_angle_gamma 90.000000
_cell_volume 6951.489027
_symmetry_space_group_name_H-M "I 41/A C D"
_symmetry_group_IT_number 142
_space_group.IT_coordinate_system_code '2'
_symmetry_cell_setting 'tetragonal'
loop_
_space_group_symop_operation_xyz
x,y,z
1/4-y,3/4+x,1/4+z
-x,1/2-y,z
1/4+y,1/4-x,3/4+z
x,-y,1/2-z
1/2-x,y,-z
3/4+y,1/4+x,1/4-z
1/4-y,1/4-x,1/4-z
-x,-y,-z
3/4+y,1/4-x,3/4-z
x,1/2+y,-z
3/4-y,3/4+x,1/4-z
-x,y,1/2+z
1/2+x,-y,z
1/4-y,3/4-x,3/4+z
3/4+y,3/4+x,3/4+z
1/2+x,1/2+y,1/2+z
3/4-y,1/4+x,3/4+z
1/2-x,-y,1/2+z
3/4+y,3/4-x,1/4+z
1/2+x,1/2-y,-z
-x,1/2+y,1/2-z
1/4+y,3/4+x,3/4-z
3/4-y,3/4-x,3/4-z
1/2-x,1/2-y,1/2-z
1/4+y,3/4-x,1/4-z
1/2+x,y,1/2-z
1/4-y,1/4+x,3/4-z
1/2-x,1/2+y,z
x,1/2-y,1/2+z
3/4-y,1/4-x,1/4+z
1/4+y,1/4+x,1/4+z
loop_
_atom_site_type_symbol
_atom_site_label
_atom_site_fract_x
_atom_site_fract_y
_atom_site_fract_z
Si Si1 0.081781 0.147455 0.781762
Si Si2 0.500000 0.250000 0.625000
Si Si3 0.327950 0.577950 0.125000
Si Si4 0.176364 0.447021 0.043498
Si Si5 0.945251 0.582834 0.258912
Si Si6 0.340685 0.411568 0.145373
O O1 0.058676 0.216585 0.823734
O O2 0.153027 0.138976 0.737750
O O3 0.099665 0.088053 0.839845
O O4 0.017153 0.126050 0.733260
O O5 0.342802 0.635255 0.065936
O O6 0.337743 0.492065 0.114182
O O7 0.181947 0.431947 0.125000
O O8 0.280540 0.411894 0.202672
O O9 0.250000 0.435160 0.000000
O O10 0.962489 0.500000 0.250000
O O11 0.912815 0.601603 0.185801
#
# Coordination Sequence:
#
# PCOD9573702 Si02
#       6
#    32   8  16  32  32  32
#     4  12  24  46  66  95 137 194 238 283 352 421
#     4  12  28  52  62  84 144 212 236 294 348 432
#     4  10  20  40  66 109 140 165 222 304 364 424
#     4  12  23  42  75 109 144 173 231 305 369 424
#     4  10  22  37  66  96 134 178 226 286 353 420
#     4  11  20  40  71 103 134 178 229 297 358 419
#
# _framework density 21.865819999999999
#
# number of rings (size 3 to 8) (size 9 to 14) (size 15 to 20)
#    0.000    0.842    5.263    3.789    0.000    0.000 
#    3.789    1.053    0.000    0.000    0.000    0.000 
#    0.000    0.000    0.000    0.000    0.000    0.000 
#
# Total GULP energy -423263.395103 kJ/mol
# GULP energy per Si atom -5569.255199 kJ/mol
# Density = 2.181605 g / cm^3
# Si number density = 21.865820 Si / 1000 Ang^3
#
#
#
# Elastic Constant Matrix: (Units=GPa)
#
#
# Indices 1 2 3 4 5 6 
#
# 1 60.1203 29.2247 29.0079 0.0000 0.0000 0.0000
# 2 29.2247 60.1203 29.0079 0.0000 0.0000 0.0000
# 3 29.0079 29.0079 80.0133 0.0000 0.0000 0.0000
# 4 0.0000 0.0000 0.0000 30.0262 0.0000 0.0000
# 5 0.0000 0.0000 0.0000 0.0000 30.0262 0.0000
# 6 0.0000 0.0000 0.0000 0.0000 0.0000 33.4269
#
#
#
# Elastic Compliance Matrix: (Units=1/GPa)
#
#
# Indices 1 2 3 4 5 6 
#
# 1 0.023503 -0.008864 -0.005307 0.000000 0.000000 0.000000
# 2 -0.008864 0.023503 -0.005307 0.000000 0.000000 0.000000
# 3 -0.005307 -0.005307 0.016346 0.000000 0.000000 0.000000
# 4 0.000000 0.000000 0.000000 0.033304 0.000000 0.000000
# 5 0.000000 0.000000 0.000000 0.000000 0.033304 0.000000
# 6 0.000000 0.000000 0.000000 0.000000 0.000000 0.029916
#
#
# Mechanical properties :
#
#
# Convention : Reuss Voigt Hill
#
# Bulk Modulus (GPa) = 40.99202 41.63723 41.31462
# Shear Modulus (GPa) = 24.15870 26.23008 25.19439
#
# Velocity S-wave (km/s) = 3.32755 3.46727 3.39813
# Velocity P-wave (km/s) = 5.79234 5.92560 5.85935
#
# Compressibility (1/GPa) = 0.02439499
#
# Stress axis : x y z
#
# Youngs Moduli (GPa) = 42.54795 42.54796 61.17710
#
# Poissons Ratio (x) = 0.37715 0.32467
# Poissons Ratio (y) = 0.37715 0.32467
# Poissons Ratio (z) = 0.22581 0.22581
#
# Static dielectric constant tensor:
#      x y z
#    x 1.808090 0.000000 0.000000 
#    y 0.000000 1.808090 0.000000 
#    z 0.000000 0.000000 1.875700 
# 
# From -- ./inp_files/9034.got.cif
#   From: 2010.05.17/outbox.cif.g08.bks.cpg/sg142_5_cif.got.tgz:9034.got - 2010.05.20 13:39:18.
