data_PCOD9573480
_publ_section_title
;
Structure prediction by ZEFSAII (Michael W. Deem and Ramdas Pophale) SiO2 
 PCOD9573480
Probable space group: I 41/A C D
;
_chemical_formula_sum "Si O2"
_cell_formula_units_Z 176
_cell_length_a 18.719254
_cell_length_b 18.719254
_cell_length_c 23.113299
_cell_angle_alpha 90.000000
_cell_angle_beta 90.000000
_cell_angle_gamma 90.000000
_cell_volume 8099.141973
_symmetry_space_group_name_H-M "I 41/A C D"
_symmetry_group_IT_number 142
_space_group.IT_coordinate_system_code '2'
_symmetry_cell_setting 'tetragonal'
loop_
_space_group_symop_operation_xyz
x,y,z
1/4-y,3/4+x,1/4+z
-x,1/2-y,z
1/4+y,1/4-x,3/4+z
x,-y,1/2-z
1/2-x,y,-z
3/4+y,1/4+x,1/4-z
1/4-y,1/4-x,1/4-z
-x,-y,-z
3/4+y,1/4-x,3/4-z
x,1/2+y,-z
3/4-y,3/4+x,1/4-z
-x,y,1/2+z
1/2+x,-y,z
1/4-y,3/4-x,3/4+z
3/4+y,3/4+x,3/4+z
1/2+x,1/2+y,1/2+z
3/4-y,1/4+x,3/4+z
1/2-x,-y,1/2+z
3/4+y,3/4-x,1/4+z
1/2+x,1/2-y,-z
-x,1/2+y,1/2-z
1/4+y,3/4+x,3/4-z
3/4-y,3/4-x,3/4-z
1/2-x,1/2-y,1/2-z
1/4+y,3/4-x,1/4-z
1/2+x,y,1/2-z
1/4-y,1/4+x,3/4-z
1/2-x,1/2+y,z
x,1/2-y,1/2+z
3/4-y,1/4-x,1/4+z
1/4+y,1/4+x,1/4+z
loop_
_atom_site_type_symbol
_atom_site_label
_atom_site_fract_x
_atom_site_fract_y
_atom_site_fract_z
Si Si1 0.201257 0.144696 0.217314
Si Si2 0.303410 0.197488 0.322462
Si Si3 0.911479 0.835310 0.509460
Si Si4 0.773874 0.476127 0.125000
Si Si5 0.425508 0.169860 0.042577
Si Si6 0.382225 0.066833 0.139377
O O1 0.257360 0.167147 0.267404
O O2 0.193100 0.216913 0.180018
O O3 0.215117 0.077436 0.177807
O O4 0.127548 0.130436 0.249198
O O5 0.381512 0.165057 0.305572
O O6 0.253012 0.179996 0.377084
O O7 0.910937 0.750937 0.524501
O O8 0.845530 0.868706 0.545192
O O9 0.991594 0.852727 0.532890
O O10 0.691794 0.460012 0.112092
O O11 0.406938 0.138758 0.105430
#
# Coordination Sequence:
#
# PCOD9573480 Si02
#       6
#    32  32  32  16  32  32
#     4   9  19  38  56  84 116 165 193 242 302 367
#     4   9  19  37  61  79 120 159 196 241 315 360
#     4  10  18  37  62  95 118 151 199 260 306 355
#     4  12  24  36  56  83 128 161 204 238 300 378
#     4   9  20  34  65  92 117 148 207 259 299 345
#     4  11  22  34  59  89 121 160 198 247 300 362
#
# _framework density 21.730696999999999
#
# number of rings (size 3 to 8) (size 9 to 14) (size 15 to 20)
#    0.000    2.182    1.818    2.182    2.545    4.364 
#    0.000    1.818    4.000    7.636    0.000    0.000 
#    0.000    0.000    0.000    0.000    0.000    0.000 
#
# Total GULP energy -489890.207596 kJ/mol
# GULP energy per Si atom -5566.934177 kJ/mol
# Density = 2.168124 g / cm^3
# Si number density = 21.730697 Si / 1000 Ang^3
#
#
#
# Elastic Constant Matrix: (Units=GPa)
#
#
# Indices 1 2 3 4 5 6 
#
# 1 70.4747 -2.4910 10.3426 0.0000 0.0000 0.0000
# 2 -2.4910 70.4765 10.3424 0.0000 0.0000 0.0000
# 3 10.3426 10.3424 26.0079 0.0000 0.0000 0.0000
# 4 0.0000 0.0000 0.0000 -9.4447 0.0000 0.0000
# 5 0.0000 0.0000 0.0000 0.0000 -9.4477 0.0000
# 6 0.0000 0.0000 0.0000 0.0000 0.0000 28.8023
#
#
#
# Elastic Compliance Matrix: (Units=1/GPa)
#
#
# Indices 1 2 3 4 5 6 
#
# 1 0.015220 0.001515 -0.006655 0.000000 0.000000 0.000000
# 2 0.001515 0.015219 -0.006654 0.000000 0.000000 0.000000
# 3 -0.006655 -0.006654 0.043742 0.000000 0.000000 0.000000
# 4 0.000000 0.000000 0.000000 -0.105879 0.000000 0.000000
# 5 0.000000 0.000000 0.000000 0.000000 -0.105846 0.000000
# 6 0.000000 0.000000 0.000000 0.000000 0.000000 0.034719
#
#
# Mechanical properties :
#
#
# Convention : Reuss Voigt Hill
#
# Bulk Modulus (GPa) = 19.76594 22.59414 21.18004
# Shear Modulus (GPa) = -80.16478 11.89966 -34.13256
#
# Velocity S-wave (km/s) = -6.08031 2.34262 -3.96751
# Velocity P-wave (km/s) = 6.33861 4.21154 3.34970
#
# Compressibility (1/GPa) = 0.05059209
#
# Stress axis : x y z
#
# Youngs Moduli (GPa) = 65.70460 65.70655 22.86113
#
# Poissons Ratio (x) = -0.09951 0.15213
# Poissons Ratio (y) = -0.09951 0.15213
# Poissons Ratio (z) = 0.43724 0.43724
#
# Static dielectric constant tensor:
#      x y z
#    x 1.872240 0.000000 0.000000 
#    y 0.000000 1.872220 0.000000 
#    z 0.000000 0.000000 1.600850 
# 
# From -- ./inp_files/11424.got.cif
#   From: 2010.05.17/outbox.cif.g08.bks.cpg/sg142_6_cif.got.tgz:11424.got - 2010.05.20 13:39:18.
