data_PCOD9573487
_publ_section_title
;
Structure prediction by ZEFSAII (Michael W. Deem and Ramdas Pophale) SiO2 
 PCOD9573487
Probable space group: I 41/A C D
;
_chemical_formula_sum "Si O2"
_cell_formula_units_Z 240
_cell_length_a 23.679153
_cell_length_b 23.679153
_cell_length_c 24.207813
_cell_angle_alpha 90.000000
_cell_angle_beta 90.000000
_cell_angle_gamma 90.000000
_cell_volume 13573.376107
_symmetry_space_group_name_H-M "I 41/A C D"
_symmetry_group_IT_number 142
_space_group.IT_coordinate_system_code '2'
_symmetry_cell_setting 'tetragonal'
loop_
_space_group_symop_operation_xyz
x,y,z
1/4-y,3/4+x,1/4+z
-x,1/2-y,z
1/4+y,1/4-x,3/4+z
x,-y,1/2-z
1/2-x,y,-z
3/4+y,1/4+x,1/4-z
1/4-y,1/4-x,1/4-z
-x,-y,-z
3/4+y,1/4-x,3/4-z
x,1/2+y,-z
3/4-y,3/4+x,1/4-z
-x,y,1/2+z
1/2+x,-y,z
1/4-y,3/4-x,3/4+z
3/4+y,3/4+x,3/4+z
1/2+x,1/2+y,1/2+z
3/4-y,1/4+x,3/4+z
1/2-x,-y,1/2+z
3/4+y,3/4-x,1/4+z
1/2+x,1/2-y,-z
-x,1/2+y,1/2-z
1/4+y,3/4+x,3/4-z
3/4-y,3/4-x,3/4-z
1/2-x,1/2-y,1/2-z
1/4+y,3/4-x,1/4-z
1/2+x,y,1/2-z
1/4-y,1/4+x,3/4-z
1/2-x,1/2+y,z
x,1/2-y,1/2+z
3/4-y,1/4-x,1/4+z
1/4+y,1/4+x,1/4+z
loop_
_atom_site_type_symbol
_atom_site_label
_atom_site_fract_x
_atom_site_fract_y
_atom_site_fract_z
Si Si1 0.610716 0.422241 0.476361
Si Si2 0.749130 0.588678 0.864095
Si Si3 0.486450 0.091403 0.392651
Si Si4 0.798115 0.169585 0.042077
Si Si5 0.292283 0.889638 0.422549
Si Si6 0.075158 0.998161 0.073921
Si Si7 0.409201 0.159201 0.875000
Si Si8 0.155474 0.083487 0.206454
O O1 0.640111 0.474707 0.443876
O O2 0.567554 0.398355 0.430805
O O3 0.656907 0.373216 0.486605
O O4 0.578057 0.448762 0.528402
O O5 0.779842 0.529842 0.875000
O O6 0.767551 0.630965 0.911728
O O7 0.683344 0.578734 0.862496
O O8 0.466919 0.077586 0.330141
O O9 0.528631 0.144104 0.394094
O O10 0.520367 0.037834 0.419101
O O11 0.750000 0.190084 0.000000
O O12 0.278850 0.836767 0.383995
O O13 0.230101 0.915274 0.435166
O O14 0.324485 0.885894 0.480616
O O15 0.126532 0.040744 0.056230
O O16 0.363551 0.144104 0.922291
#
# Coordination Sequence:
#
# PCOD9573487 Si02
#       8
#    32  32  32  32  32  32  16  32
#     4  10  20  36  53  78 109 145 183 228 277 341
#     4   9  17  28  45  71 106 146 175 211 267 334
#     4  10  21  36  57  78 111 145 190 232 276 333
#     4  10  21  36  54  80 113 141 178 230 285 344
#     4  11  18  27  47  75 111 147 188 224 267 339
#     4  11  19  33  51  77 108 152 184 223 282 327
#     4  10  20  40  53  78 112 150 188 244 284 317
#     4  10  19  29  45  76 112 145 187 228 268 337
#
# _framework density 17.681673
#
# number of rings (size 3 to 8) (size 9 to 14) (size 15 to 20)
#    0.000    1.867    4.000    3.200    0.000    2.133 
#    0.000    1.333    0.000    0.000    0.000    0.000 
#    0.000    0.000    0.000    0.000    0.000    0.000 
#
# Total GULP energy -668592.971525 kJ/mol
# GULP energy per Si atom -5571.608096 kJ/mol
# Density = 1.764143 g / cm^3
# Si number density = 17.681673 Si / 1000 Ang^3
#
#
#
# Elastic Constant Matrix: (Units=GPa)
#
#
# Indices 1 2 3 4 5 6 
#
# 1 42.7443 3.8640 2.4505 0.0000 0.0000 0.0000
# 2 3.8640 42.7443 2.4505 0.0000 0.0000 0.0000
# 3 2.4505 2.4505 69.9868 0.0000 0.0000 0.0000
# 4 0.0000 0.0000 0.0000 18.0994 0.0000 0.0000
# 5 0.0000 0.0000 0.0000 0.0000 18.0994 0.0000
# 6 0.0000 0.0000 0.0000 0.0000 0.0000 13.9502
#
#
#
# Elastic Compliance Matrix: (Units=1/GPa)
#
#
# Indices 1 2 3 4 5 6 
#
# 1 0.023627 -0.002093 -0.000754 0.000000 0.000000 0.000000
# 2 -0.002093 0.023627 -0.000754 0.000000 0.000000 0.000000
# 3 -0.000754 -0.000754 0.014341 0.000000 0.000000 0.000000
# 4 0.000000 0.000000 0.000000 0.055250 0.000000 0.000000
# 5 0.000000 0.000000 0.000000 0.000000 0.055250 0.000000
# 6 0.000000 0.000000 0.000000 0.000000 0.000000 0.071683
#
#
# Mechanical properties :
#
#
# Convention : Reuss Voigt Hill
#
# Bulk Modulus (GPa) = 18.38420 19.22283 18.80352
# Shear Modulus (GPa) = 18.57956 19.81050 19.19503
#
# Velocity S-wave (km/s) = 3.24509 3.35087 3.29840
# Velocity P-wave (km/s) = 4.94578 5.08589 5.01632
#
# Compressibility (1/GPa) = 0.05439453
#
# Stress axis : x y z
#
# Youngs Moduli (GPa) = 42.32388 42.32388 69.72909
#
# Poissons Ratio (x) = 0.08857 0.05258
# Poissons Ratio (y) = 0.08857 0.05258
# Poissons Ratio (z) = 0.03191 0.03191
#
# Static dielectric constant tensor:
#      x y z
#    x 1.599660 0.000000 0.000000 
#    y 0.000000 1.599660 0.000000 
#    z 0.000000 0.000000 1.644950 
# 
# From -- ./inp_files/10627.got.cif
#   From: 2010.05.17/outbox.cif.g08.bks.cpg/sg142_6_cif.got.tgz:10627.got - 2010.05.20 13:39:18.
