data_PCOD9573318
_publ_section_title
;
Structure prediction by ZEFSAII (Michael W. Deem and Ramdas Pophale) SiO2 
 PCOD9573318
Probable space group: I 41/A M D
;
_chemical_formula_sum "Si O2"
_cell_formula_units_Z 160
_cell_length_a 20.984701
_cell_length_b 20.984701
_cell_length_c 18.452227
_cell_angle_alpha 90.000000
_cell_angle_beta 90.000000
_cell_angle_gamma 90.000000
_cell_volume 8125.579800
_symmetry_space_group_name_H-M "I 41/A M D"
_symmetry_group_IT_number 141
_space_group.IT_coordinate_system_code '2'
_symmetry_cell_setting 'tetragonal'
loop_
_space_group_symop_operation_xyz
x,y,z
1/4-y,3/4+x,1/4+z
-x,1/2-y,z
1/4+y,1/4-x,3/4+z
x,-y,-z
-x,1/2+y,-z
1/4+y,3/4+x,1/4-z
1/4-y,1/4-x,3/4-z
-x,-y,-z
3/4+y,1/4-x,3/4-z
x,1/2+y,-z
3/4-y,3/4+x,1/4-z
-x,y,z
x,1/2-y,z
3/4-y,1/4-x,3/4+z
3/4+y,3/4+x,1/4+z
1/2+x,1/2+y,1/2+z
3/4-y,1/4+x,3/4+z
1/2-x,-y,1/2+z
3/4+y,3/4-x,1/4+z
1/2+x,1/2-y,1/2-z
1/2-x,y,1/2-z
3/4+y,1/4+x,3/4-z
3/4-y,3/4-x,1/4-z
1/2-x,1/2-y,1/2-z
1/4+y,3/4-x,1/4-z
1/2+x,y,1/2-z
1/4-y,1/4+x,3/4-z
1/2-x,1/2+y,1/2+z
1/2+x,-y,1/2+z
1/4-y,3/4-x,1/4+z
1/4+y,1/4+x,3/4+z
loop_
_atom_site_type_symbol
_atom_site_label
_atom_site_fract_x
_atom_site_fract_y
_atom_site_fract_z
Si Si1 0.927091 0.054582 0.216267
Si Si2 0.191975 0.010565 0.302352
Si Si3 0.070551 0.173041 0.456005
Si Si4 0.693999 0.638350 0.195419
Si Si5 0.426329 0.327039 0.708169
O O1 0.907445 0.127305 0.234960
O O2 0.923466 0.047476 0.130498
O O3 0.000000 0.043717 0.240854
O O4 0.874727 0.014957 0.259954
O O5 0.250000 0.030263 0.250000
O O6 0.202329 0.936537 0.321146
O O7 0.198232 0.051769 0.375000
O O8 0.093231 0.156770 0.375000
O O9 0.065677 0.250000 0.454937
O O10 0.000000 0.146863 0.469234
O O11 0.750000 0.658079 0.250000
O O12 0.626112 0.649551 0.234698
O O13 0.500000 0.348747 0.720356
O O14 0.427342 0.250000 0.711310
O O15 0.406805 0.343196 0.625000
#
# Coordination Sequence:
#
# PCOD9573318 Si02
#       5
#    32  32  32  32  32
#     4  11  23  38  61  94 122 156 206 261 317 372
#     4  11  23  44  66  87 122 171 214 255 312 383
#     4   8  15  31  56  84 115 152 191 237 300 371
#     4  11  25  39  62  89 122 167 214 262 310 369
#     4   9  20  39  62  90 128 170 206 254 323 383
#
# _framework density 19.690902999999999
#
# number of rings (size 3 to 8) (size 9 to 14) (size 15 to 20)
#    0.000    2.000    2.000    2.400    2.800    3.200 
#    0.000    2.000    0.000    1.200    0.000    0.000 
#    0.000    0.000    0.000    0.000    0.000    0.000 
#
# Total GULP energy -446350.626445 kJ/mol
# GULP energy per Si atom -5579.382831 kJ/mol
# Density = 1.964609 g / cm^3
# Si number density = 19.690903 Si / 1000 Ang^3
#
#
#
# Elastic Constant Matrix: (Units=GPa)
#
#
# Indices 1 2 3 4 5 6 
#
# 1 62.4961 4.8761 23.1795 0.0000 0.0000 0.0000
# 2 4.8761 62.4956 23.1786 0.0000 0.0000 0.0000
# 3 23.1795 23.1786 83.2783 0.0000 0.0000 0.0000
# 4 0.0000 0.0000 0.0000 30.2483 0.0000 0.0000
# 5 0.0000 0.0000 0.0000 0.0000 30.2486 0.0000
# 6 0.0000 0.0000 0.0000 0.0000 0.0000 30.0269
#
#
#
# Elastic Compliance Matrix: (Units=1/GPa)
#
#
# Indices 1 2 3 4 5 6 
#
# 1 0.017857 0.000502 -0.005110 0.000000 0.000000 0.000000
# 2 0.000502 0.017857 -0.005110 0.000000 0.000000 0.000000
# 3 -0.005110 -0.005110 0.014852 0.000000 0.000000 0.000000
# 4 0.000000 0.000000 0.000000 0.033060 0.000000 0.000000
# 5 0.000000 0.000000 0.000000 0.000000 0.033059 0.000000
# 6 0.000000 0.000000 0.000000 0.000000 0.000000 0.033303
#
#
# Mechanical properties :
#
#
# Convention : Reuss Voigt Hill
#
# Bulk Modulus (GPa) = 32.12244 34.52649 33.32446
# Shear Modulus (GPa) = 27.80836 28.57380 28.19108
#
# Velocity S-wave (km/s) = 3.76206 3.81349 3.78786
# Velocity P-wave (km/s) = 5.93461 6.07968 6.00758
#
# Compressibility (1/GPa) = 0.03113089
#
# Stress axis : x y z
#
# Youngs Moduli (GPa) = 56.00006 56.00011 67.32901
#
# Poissons Ratio (x) = -0.02811 0.34405
# Poissons Ratio (y) = -0.02811 0.34404
# Poissons Ratio (z) = 0.28616 0.28615
#
# Static dielectric constant tensor:
#      x y z
#    x 1.711400 0.000000 0.000000 
#    y 0.000000 1.711400 0.000000 
#    z 0.000000 0.000000 1.034940 
# 
# From -- ./inp_files/8574.got.cif
#   From: 2010.05.17/outbox.cif.g08.bks.cpg/sg141_5_cif.got.tgz:8574.got - 2010.05.20 13:30:51.
