data_PCOD9573461
_publ_section_title
;
Structure prediction by ZEFSAII (Michael W. Deem and Ramdas Pophale) SiO2 
 PCOD9573461
Probable space group: I 41/A C D
;
_chemical_formula_sum "Si O2"
_cell_formula_units_Z 152
_cell_length_a 23.233755
_cell_length_b 23.233755
_cell_length_c 15.633738
_cell_angle_alpha 90.000000
_cell_angle_beta 90.000000
_cell_angle_gamma 90.000000
_cell_volume 8439.207015
_symmetry_space_group_name_H-M "I 41/A C D"
_symmetry_group_IT_number 142
_space_group.IT_coordinate_system_code '2'
_symmetry_cell_setting 'tetragonal'
loop_
_space_group_symop_operation_xyz
x,y,z
1/4-y,3/4+x,1/4+z
-x,1/2-y,z
1/4+y,1/4-x,3/4+z
x,-y,1/2-z
1/2-x,y,-z
3/4+y,1/4+x,1/4-z
1/4-y,1/4-x,1/4-z
-x,-y,-z
3/4+y,1/4-x,3/4-z
x,1/2+y,-z
3/4-y,3/4+x,1/4-z
-x,y,1/2+z
1/2+x,-y,z
1/4-y,3/4-x,3/4+z
3/4+y,3/4+x,3/4+z
1/2+x,1/2+y,1/2+z
3/4-y,1/4+x,3/4+z
1/2-x,-y,1/2+z
3/4+y,3/4-x,1/4+z
1/2+x,1/2-y,-z
-x,1/2+y,1/2-z
1/4+y,3/4+x,3/4-z
3/4-y,3/4-x,3/4-z
1/2-x,1/2-y,1/2-z
1/4+y,3/4-x,1/4-z
1/2+x,y,1/2-z
1/4-y,1/4+x,3/4-z
1/2-x,1/2+y,z
x,1/2-y,1/2+z
3/4-y,1/4-x,1/4+z
1/4+y,1/4+x,1/4+z
loop_
_atom_site_type_symbol
_atom_site_label
_atom_site_fract_x
_atom_site_fract_y
_atom_site_fract_z
Si Si1 0.332264 0.877000 0.795494
Si Si2 0.500000 0.250000 0.625000
Si Si3 0.037835 0.522308 0.153644
Si Si4 0.750000 0.895134 0.000000
Si Si5 0.619064 0.213019 0.545960
Si Si6 0.057250 0.064093 0.126061
O O1 0.287091 0.846492 0.856540
O O2 0.397633 0.874465 0.829987
O O3 0.334116 0.839563 0.708376
O O4 0.319891 0.943758 0.776919
O O5 0.556255 0.236764 0.567672
O O6 0.046198 0.500000 0.250000
O O7 0.001812 0.581663 0.160505
O O8 0.998906 0.474146 0.107766
O O9 0.772846 0.852195 0.926333
O O10 0.636907 0.209253 0.445410
#
# Coordination Sequence:
#
# PCOD9573461 Si02
#       6
#    32   8  32  16  32  32
#     4  11  20  34  61  84 112 152 201 242 292 354
#     4  12  20  32  58  84 116 164 182 244 320 354
#     4  10  19  36  59  84 117 151 193 241 292 363
#     4  10  18  34  56  82 114 146 190 250 280 338
#     4  10  19  33  54  84 116 148 187 236 298 352
#     4  10  19  36  58  85 109 150 199 242 287 360
#
# _framework density 18.011171000000001
#
# number of rings (size 3 to 8) (size 9 to 14) (size 15 to 20)
#    0.000    1.684    7.368    3.158    0.000    0.000 
#    0.000    2.105    9.263    0.000    0.000    0.000 
#    0.000    0.000    0.000    0.000    0.000    0.000 
#
# Total GULP energy -423852.713807 kJ/mol
# GULP energy per Si atom -5577.009392 kJ/mol
# Density = 1.797018 g / cm^3
# Si number density = 18.011171 Si / 1000 Ang^3
#
#
#
# Elastic Constant Matrix: (Units=GPa)
#
#
# Indices 1 2 3 4 5 6 
#
# 1 126.1654 58.4250 33.6433 0.0000 0.0000 0.0000
# 2 58.4250 126.1654 33.6433 0.0000 0.0000 0.0000
# 3 33.6433 33.6433 38.9615 0.0000 0.0000 0.0000
# 4 0.0000 0.0000 0.0000 18.5579 0.0000 0.0000
# 5 0.0000 0.0000 0.0000 0.0000 18.5579 0.0000
# 6 0.0000 0.0000 0.0000 0.0000 0.0000 37.9603
#
#
#
# Elastic Compliance Matrix: (Units=1/GPa)
#
#
# Indices 1 2 3 4 5 6 
#
# 1 0.011334 -0.003428 -0.006827 0.000000 0.000000 0.000000
# 2 -0.003428 0.011334 -0.006827 0.000000 0.000000 0.000000
# 3 -0.006827 -0.006827 0.037456 0.000000 0.000000 0.000000
# 4 0.000000 0.000000 0.000000 0.053885 0.000000 0.000000
# 5 0.000000 0.000000 0.000000 0.000000 0.053885 0.000000
# 6 0.000000 0.000000 0.000000 0.000000 0.000000 0.026343
#
#
# Mechanical properties :
#
#
# Convention : Reuss Voigt Hill
#
# Bulk Modulus (GPa) = 38.51936 60.30172 49.41054
# Shear Modulus (GPa) = 21.09213 26.05393 23.57303
#
# Velocity S-wave (km/s) = 3.42579 3.80747 3.62166
# Velocity P-wave (km/s) = 6.08940 7.27200 6.70682
#
# Compressibility (1/GPa) = 0.02596097
#
# Stress axis : x y z
#
# Youngs Moduli (GPa) = 88.22969 88.22969 26.69790
#
# Poissons Ratio (x) = 0.30247 0.18226
# Poissons Ratio (y) = 0.30247 0.18226
# Poissons Ratio (z) = 0.60232 0.60232
#
# Static dielectric constant tensor:
#      x y z
#    x 1.630560 0.000000 0.000000 
#    y 0.000000 1.630560 0.000000 
#    z 0.000000 0.000000 1.629710 
# 
# From -- ./inp_files/5469.got.cif
#   From: 2010.05.17/outbox.cif.g08.bks.cpg/sg142_3_cif.got.tgz:5469.got - 2010.05.20 13:39:18.
