data_PCOD9573145
_publ_section_title
;
Structure prediction by ZEFSAII (Michael W. Deem and Ramdas Pophale) SiO2 
 PCOD9573145
Probable space group: I 41/A M D
;
_chemical_formula_sum "Si O2"
_cell_formula_units_Z 160
_cell_length_a 28.465734
_cell_length_b 28.465734
_cell_length_c 9.734351
_cell_angle_alpha 90.000000
_cell_angle_beta 90.000000
_cell_angle_gamma 90.000000
_cell_volume 7887.725265
_symmetry_space_group_name_H-M "I 41/A M D"
_symmetry_group_IT_number 141
_space_group.IT_coordinate_system_code '2'
_symmetry_cell_setting 'tetragonal'
loop_
_space_group_symop_operation_xyz
x,y,z
1/4-y,3/4+x,1/4+z
-x,1/2-y,z
1/4+y,1/4-x,3/4+z
x,-y,-z
-x,1/2+y,-z
1/4+y,3/4+x,1/4-z
1/4-y,1/4-x,3/4-z
-x,-y,-z
3/4+y,1/4-x,3/4-z
x,1/2+y,-z
3/4-y,3/4+x,1/4-z
-x,y,z
x,1/2-y,z
3/4-y,1/4-x,3/4+z
3/4+y,3/4+x,1/4+z
1/2+x,1/2+y,1/2+z
3/4-y,1/4+x,3/4+z
1/2-x,-y,1/2+z
3/4+y,3/4-x,1/4+z
1/2+x,1/2-y,1/2-z
1/2-x,y,1/2-z
3/4+y,1/4+x,3/4-z
3/4-y,3/4-x,1/4-z
1/2-x,1/2-y,1/2-z
1/4+y,3/4-x,1/4-z
1/2+x,y,1/2-z
1/4-y,1/4+x,3/4-z
1/2-x,1/2+y,1/2+z
1/2+x,-y,1/2+z
1/4-y,3/4-x,1/4+z
1/4+y,1/4+x,3/4+z
loop_
_atom_site_type_symbol
_atom_site_label
_atom_site_fract_x
_atom_site_fract_y
_atom_site_fract_z
Si Si1 0.122840 0.446224 0.845743
Si Si2 0.080986 0.196450 0.223318
Si Si3 0.390756 0.547912 0.742245
Si Si4 0.326573 0.859563 0.716807
Si Si5 0.552579 0.105022 0.443844
O O1 0.173844 0.423844 0.875000
O O2 0.121826 0.502664 0.847662
O O3 0.105906 0.438216 0.689761
O O4 0.088697 0.415960 0.944551
O O5 0.058335 0.191666 0.375000
O O6 0.076116 0.250000 0.175609
O O7 0.134762 0.180495 0.244796
O O8 0.062255 0.157350 0.115207
O O9 0.353264 0.590013 0.722941
O O10 0.438708 0.570277 0.685000
O O11 0.392159 0.541038 0.905692
O O12 0.500000 0.102406 0.496815
#
# Coordination Sequence:
#
# PCOD9573145 Si02
#       5
#    32  32  32  32  32
#     4  12  23  39  64  93 127 172 207 263 328 390
#     4  11  21  38  66  96 128 170 219 270 327 391
#     4  10  21  40  68  87 123 170 215 260 316 373
#     4  10  21  42  63  95 127 167 209 273 318 384
#     4  11  24  42  63  94 128 167 217 269 324 387
#
# _framework density 20.284682
#
# number of rings (size 3 to 8) (size 9 to 14) (size 15 to 20)
#    0.000    1.200    8.000    1.800    0.000    3.800 
#    0.000    0.000   13.200    3.600    0.000    0.000 
#    0.000    0.000    0.000    0.000    0.000    0.000 
#
# Total GULP energy -445930.038925 kJ/mol
# GULP energy per Si atom -5574.125487 kJ/mol
# Density = 2.023851 g / cm^3
# Si number density = 20.284682 Si / 1000 Ang^3
#
#
#
# Elastic Constant Matrix: (Units=GPa)
#
#
# Indices 1 2 3 4 5 6 
#
# 1 105.4124 49.3950 22.6249 0.0000 0.0000 0.0000
# 2 49.3950 105.4080 22.6239 0.0000 0.0000 0.0000
# 3 22.6249 22.6239 124.9338 0.0000 0.0000 0.0000
# 4 0.0000 0.0000 0.0000 13.6060 0.0000 0.0000
# 5 0.0000 0.0000 0.0000 0.0000 13.6062 0.0000
# 6 0.0000 0.0000 0.0000 0.0000 0.0000 4.1436
#
#
#
# Elastic Compliance Matrix: (Units=1/GPa)
#
#
# Indices 1 2 3 4 5 6 
#
# 1 0.012336 -0.005516 -0.001235 0.000000 0.000000 0.000000
# 2 -0.005516 0.012337 -0.001235 0.000000 0.000000 0.000000
# 3 -0.001235 -0.001235 0.008452 0.000000 0.000000 0.000000
# 4 0.000000 0.000000 0.000000 0.073497 0.000000 0.000000
# 5 0.000000 0.000000 0.000000 0.000000 0.073496 0.000000
# 6 0.000000 0.000000 0.000000 0.000000 0.000000 0.241339
#
#
# Mechanical properties :
#
#
# Convention : Reuss Voigt Hill
#
# Bulk Modulus (GPa) = 58.30081 58.33796 58.31939
# Shear Modulus (GPa) = 11.28295 22.34516 16.81405
#
# Velocity S-wave (km/s) = 2.36101 3.32260 2.88219
# Velocity P-wave (km/s) = 6.01965 6.59861 6.31577
#
# Compressibility (1/GPa) = 0.01715242
#
# Stress axis : x y z
#
# Youngs Moduli (GPa) = 81.06167 81.05845 118.32078
#
# Poissons Ratio (x) = 0.44710 0.14615
# Poissons Ratio (y) = 0.44712 0.14615
# Poissons Ratio (z) = 0.10013 0.10012
#
# Static dielectric constant tensor:
#      x y z
#    x 1.736930 0.000000 0.000000 
#    y 0.000000 1.736940 0.000000 
#    z 0.000000 0.000000 1.829720 
# 
# From -- ./inp_files/4866.got.cif
#   From: 2010.05.17/outbox.cif.g08.bks.cpg/sg141_3_cif.got.tgz:4866.got - 2010.05.20 13:30:51.
