data_PCOD9573990
_publ_section_title
;
Structure prediction by ZEFSAII (Michael W. Deem and Ramdas Pophale) SiO2 
 PCOD9573990
Probable space group: I 41/A C D
;
_chemical_formula_sum "Si O2"
_cell_formula_units_Z 96
_cell_length_a 15.193306
_cell_length_b 15.193306
_cell_length_c 17.092579
_cell_angle_alpha 90.000000
_cell_angle_beta 90.000000
_cell_angle_gamma 90.000000
_cell_volume 3945.591919
_symmetry_space_group_name_H-M "I 41/A C D"
_symmetry_group_IT_number 142
_space_group.IT_coordinate_system_code '2'
_symmetry_cell_setting 'tetragonal'
loop_
_space_group_symop_operation_xyz
x,y,z
1/4-y,3/4+x,1/4+z
-x,1/2-y,z
1/4+y,1/4-x,3/4+z
x,-y,1/2-z
1/2-x,y,-z
3/4+y,1/4+x,1/4-z
1/4-y,1/4-x,1/4-z
-x,-y,-z
3/4+y,1/4-x,3/4-z
x,1/2+y,-z
3/4-y,3/4+x,1/4-z
-x,y,1/2+z
1/2+x,-y,z
1/4-y,3/4-x,3/4+z
3/4+y,3/4+x,3/4+z
1/2+x,1/2+y,1/2+z
3/4-y,1/4+x,3/4+z
1/2-x,-y,1/2+z
3/4+y,3/4-x,1/4+z
1/2+x,1/2-y,-z
-x,1/2+y,1/2-z
1/4+y,3/4+x,3/4-z
3/4-y,3/4-x,3/4-z
1/2-x,1/2-y,1/2-z
1/4+y,3/4-x,1/4-z
1/2+x,y,1/2-z
1/4-y,1/4+x,3/4-z
1/2-x,1/2+y,z
x,1/2-y,1/2+z
3/4-y,1/4-x,1/4+z
1/4+y,1/4+x,1/4+z
loop_
_atom_site_type_symbol
_atom_site_label
_atom_site_fract_x
_atom_site_fract_y
_atom_site_fract_z
Si Si1 0.861881 0.841671 0.292366
Si Si2 0.283128 0.836699 0.662384
Si Si3 0.992450 0.626979 0.167889
O O1 0.858995 0.891006 0.375000
O O2 0.781119 0.862408 0.234112
O O3 0.851280 0.738414 0.311463
O O4 0.719887 0.710088 0.400668
O O5 0.332112 0.917889 0.625000
O O6 0.452275 0.638673 0.753602
O O7 0.059279 0.659744 0.098933
#
# Coordination Sequence:
#
# PCOD9573990 Si02
#       3
#    32  32  32
#     4  10  23  44  74 108 141 191 248 296 360 444
#     4  10  23  44  72 106 147 191 241 306 372 430
#     4   9  20  43  73 103 144 193 240 290 362 445
#
# _framework density 24.330947999999999
#
# number of rings (size 3 to 8) (size 9 to 14) (size 15 to 20)
#    0.000    2.333    0.000    0.000    0.000   15.333 
#    0.000   33.333    0.000   14.000    0.000    0.000 
#    0.000    0.000    0.000    0.000    0.000    0.000 
#
# Total GULP energy -268825.415053 kJ/mol
# GULP energy per Si atom -5600.529480 kJ/mol
# Density = 2.427557 g / cm^3
# Si number density = 24.330948 Si / 1000 Ang^3
#
#
#
# Elastic Constant Matrix: (Units=GPa)
#
#
# Indices 1 2 3 4 5 6 
#
# 1 101.7844 90.8611 76.4770 0.0000 0.0000 0.0000
# 2 90.8611 101.7747 76.4703 0.0000 0.0000 0.0000
# 3 76.4770 76.4703 164.3668 0.0000 0.0000 0.0000
# 4 0.0000 0.0000 0.0000 33.9536 0.0000 0.0000
# 5 0.0000 0.0000 0.0000 0.0000 33.9580 0.0000
# 6 0.0000 0.0000 0.0000 0.0000 0.0000 22.2732
#
#
#
# Elastic Compliance Matrix: (Units=1/GPa)
#
#
# Indices 1 2 3 4 5 6 
#
# 1 0.049909 -0.041678 -0.003831 0.000000 0.000000 0.000000
# 2 -0.041678 0.049911 -0.003829 0.000000 0.000000 0.000000
# 3 -0.003831 -0.003829 0.009648 0.000000 0.000000 0.000000
# 4 0.000000 0.000000 0.000000 0.029452 0.000000 0.000000
# 5 0.000000 0.000000 0.000000 0.000000 0.029448 0.000000
# 6 0.000000 0.000000 0.000000 0.000000 0.000000 0.044897
#
#
# Mechanical properties :
#
#
# Convention : Reuss Voigt Hill
#
# Bulk Modulus (GPa) = 92.66438 95.06029 93.86234
# Shear Modulus (GPa) = 15.84592 26.31143 21.07867
#
# Velocity S-wave (km/s) = 2.55476 3.29203 2.94654
# Velocity P-wave (km/s) = 6.84617 7.32151 7.08782
#
# Compressibility (1/GPa) = 0.01079163
#
# Stress axis : x y z
#
# Youngs Moduli (GPa) = 20.03656 20.03551 103.65042
#
# Poissons Ratio (x) = 0.83505 0.39711
# Poissons Ratio (y) = 0.83509 0.39684
# Poissons Ratio (z) = 0.07676 0.07671
#
# Static dielectric constant tensor:
#      x y z
#    x 1.935550 0.000000 0.000000 
#    y 0.000000 1.935550 0.000000 
#    z 0.000000 0.000000 1.982320 
# 
# From -- ./inp_files/6541.got.cif
#   From: 2010.05.17/outbox.cif.g08.bks.cpg/sg142_4_cif.got.tgz:6541.got - 2010.05.20 13:39:18.
