data_PCOD9573260
_publ_section_title
;
Structure prediction by ZEFSAII (Michael W. Deem and Ramdas Pophale) SiO2 
 PCOD9573260
Probable space group: I 41/A M D
;
_chemical_formula_sum "Si O2"
_cell_formula_units_Z 96
_cell_length_a 17.755379
_cell_length_b 17.755379
_cell_length_c 15.585092
_cell_angle_alpha 90.000000
_cell_angle_beta 90.000000
_cell_angle_gamma 90.000000
_cell_volume 4913.254543
_symmetry_space_group_name_H-M "I 41/A M D"
_symmetry_group_IT_number 141
_space_group.IT_coordinate_system_code '2'
_symmetry_cell_setting 'tetragonal'
loop_
_space_group_symop_operation_xyz
x,y,z
1/4-y,3/4+x,1/4+z
-x,1/2-y,z
1/4+y,1/4-x,3/4+z
x,-y,-z
-x,1/2+y,-z
1/4+y,3/4+x,1/4-z
1/4-y,1/4-x,3/4-z
-x,-y,-z
3/4+y,1/4-x,3/4-z
x,1/2+y,-z
3/4-y,3/4+x,1/4-z
-x,y,z
x,1/2-y,z
3/4-y,1/4-x,3/4+z
3/4+y,3/4+x,1/4+z
1/2+x,1/2+y,1/2+z
3/4-y,1/4+x,3/4+z
1/2-x,-y,1/2+z
3/4+y,3/4-x,1/4+z
1/2+x,1/2-y,1/2-z
1/2-x,y,1/2-z
3/4+y,1/4+x,3/4-z
3/4-y,3/4-x,1/4-z
1/2-x,1/2-y,1/2-z
1/4+y,3/4-x,1/4-z
1/2+x,y,1/2-z
1/4-y,1/4+x,3/4-z
1/2-x,1/2+y,1/2+z
1/2+x,-y,1/2+z
1/4-y,3/4-x,1/4+z
1/4+y,1/4+x,3/4+z
loop_
_atom_site_type_symbol
_atom_site_label
_atom_site_fract_x
_atom_site_fract_y
_atom_site_fract_z
Si Si1 0.000000 0.336085 0.555456
Si Si2 0.414436 0.750000 0.486316
Si Si3 0.853303 0.068502 0.564821
Si Si4 0.413353 0.471175 0.749084
O O1 0.000000 0.334360 0.659593
O O2 0.924583 0.381613 0.533178
O O3 0.000000 0.250000 0.524184
O O4 0.500000 0.750000 0.459777
O O5 0.362809 0.821545 0.462742
O O6 0.778813 0.119430 0.560465
O O7 0.843603 0.000000 0.500000
O O8 0.872219 0.038203 0.659651
O O9 0.500000 0.498607 0.764001
#
# Coordination Sequence:
#
# PCOD9573260 Si02
#       4
#    16  16  32  32
#     4   9  17  29  51  73 108 160 195 235 291 366
#     4   7  14  31  51  78 106 141 191 239 296 361
#     4  11  19  33  50  78 122 162 206 252 308 375
#     4   9  20  33  54  84 116 162 207 250 317 380
#
# _framework density 19.538983000000002
#
# number of rings (size 3 to 8) (size 9 to 14) (size 15 to 20)
#    1.000    1.667    1.667    2.500    0.000    1.333 
#    0.000    0.000    0.000    1.000    0.000    4.667 
#    0.000    0.000    0.000    0.000    0.000    0.000 
#
# Total GULP energy -267323.168694 kJ/mol
# GULP energy per Si atom -5569.232681 kJ/mol
# Density = 1.949451 g / cm^3
# Si number density = 19.538983 Si / 1000 Ang^3
#
#
#
# Elastic Constant Matrix: (Units=GPa)
#
#
# Indices 1 2 3 4 5 6 
#
# 1 122.0103 32.2330 15.6418 0.0000 0.0000 0.0000
# 2 32.2330 122.0103 15.6418 0.0000 0.0000 0.0000
# 3 15.6418 15.6418 52.6503 0.0000 0.0000 0.0000
# 4 0.0000 0.0000 0.0000 -7.0441 0.0000 0.0000
# 5 0.0000 0.0000 0.0000 0.0000 -7.0441 0.0000
# 6 0.0000 0.0000 0.0000 0.0000 0.0000 46.8152
#
#
#
# Elastic Compliance Matrix: (Units=1/GPa)
#
#
# Indices 1 2 3 4 5 6 
#
# 1 0.009019 -0.002120 -0.002050 0.000000 0.000000 0.000000
# 2 -0.002120 0.009019 -0.002050 0.000000 0.000000 0.000000
# 3 -0.002050 -0.002050 0.020211 0.000000 0.000000 0.000000
# 4 0.000000 0.000000 0.000000 -0.141963 0.000000 0.000000
# 5 0.000000 0.000000 0.000000 0.000000 -0.141963 0.000000
# 6 0.000000 0.000000 0.000000 0.000000 0.000000 0.021361
#
#
# Mechanical properties :
#
#
# Convention : Reuss Voigt Hill
#
# Bulk Modulus (GPa) = 38.74377 47.07823 42.91100
# Shear Modulus (GPa) = -24.59720 22.08904 -1.25408
#
# Velocity S-wave (km/s) = -3.55192 3.36595 -0.80202
# Velocity P-wave (km/s) = 1.74657 6.26522 4.59911
#
# Compressibility (1/GPa) = 0.02581060
#
# Stress axis : x y z
#
# Youngs Moduli (GPa) = 110.87929 110.87929 49.47785
#
# Poissons Ratio (x) = 0.23505 0.10141
# Poissons Ratio (y) = 0.23505 0.10141
# Poissons Ratio (z) = 0.22726 0.22726
#
# Static dielectric constant tensor:
#      x y z
#    x 1.712260 0.000000 0.000000 
#    y 0.000000 1.712260 0.000000 
#    z 0.000000 0.000000 1.665700 
# 
# From -- ./inp_files/7720.got.cif
#   From: 2010.05.17/outbox.cif.g08.bks.cpg/sg141_4_cif.got.tgz:7720.got - 2010.05.20 13:30:51.
