data_PCOD9573521
_publ_section_title
;
Structure prediction by ZEFSAII (Michael W. Deem and Ramdas Pophale) SiO2 
 PCOD9573521
Probable space group: I 41/A C D
;
_chemical_formula_sum "Si O2"
_cell_formula_units_Z 176
_cell_length_a 17.726039
_cell_length_b 17.726039
_cell_length_c 29.726748
_cell_angle_alpha 90.000000
_cell_angle_beta 90.000000
_cell_angle_gamma 90.000000
_cell_volume 9340.514576
_symmetry_space_group_name_H-M "I 41/A C D"
_symmetry_group_IT_number 142
_space_group.IT_coordinate_system_code '2'
_symmetry_cell_setting 'tetragonal'
loop_
_space_group_symop_operation_xyz
x,y,z
1/4-y,3/4+x,1/4+z
-x,1/2-y,z
1/4+y,1/4-x,3/4+z
x,-y,1/2-z
1/2-x,y,-z
3/4+y,1/4+x,1/4-z
1/4-y,1/4-x,1/4-z
-x,-y,-z
3/4+y,1/4-x,3/4-z
x,1/2+y,-z
3/4-y,3/4+x,1/4-z
-x,y,1/2+z
1/2+x,-y,z
1/4-y,3/4-x,3/4+z
3/4+y,3/4+x,3/4+z
1/2+x,1/2+y,1/2+z
3/4-y,1/4+x,3/4+z
1/2-x,-y,1/2+z
3/4+y,3/4-x,1/4+z
1/2+x,1/2-y,-z
-x,1/2+y,1/2-z
1/4+y,3/4+x,3/4-z
3/4-y,3/4-x,3/4-z
1/2-x,1/2-y,1/2-z
1/4+y,3/4-x,1/4-z
1/2+x,y,1/2-z
1/4-y,1/4+x,3/4-z
1/2-x,1/2+y,z
x,1/2-y,1/2+z
3/4-y,1/4-x,1/4+z
1/4+y,1/4+x,1/4+z
loop_
_atom_site_type_symbol
_atom_site_label
_atom_site_fract_x
_atom_site_fract_y
_atom_site_fract_z
Si Si1 0.707272 0.724342 0.680997
Si Si2 0.385254 0.528634 0.507274
Si Si3 0.240781 0.246987 0.082389
Si Si4 0.383052 0.576951 0.279276
Si Si5 0.952045 0.672614 0.298096
Si Si6 0.750000 0.856539 0.500000
O O1 0.694900 0.791184 0.716461
O O2 0.757227 0.661826 0.706816
O O3 0.741829 0.758124 0.635691
O O4 0.625080 0.688514 0.674992
O O5 0.355716 0.452228 0.531099
O O6 0.321549 0.590887 0.508340
O O7 0.295589 0.175295 0.072983
O O8 0.151771 0.237976 0.070351
O O9 0.265754 0.306770 0.044457
O O10 0.382174 0.500000 0.250000
O O11 0.428284 0.641452 0.251590
O O12 0.000000 0.750000 0.297135
#
# Coordination Sequence:
#
# PCOD9573521 Si02
#       6
#    32  32  32  32  32  16
#     4  10  23  38  58  87 122 154 198 242 302 352
#     4  10  22  40  59  86 119 159 199 248 292 353
#     4  11  22  38  59  90 118 157 195 244 298 361
#     4   9  18  38  60  80 114 157 191 230 294 355
#     4  10  19  35  59  86 114 150 192 241 291 348
#     4  12  22  36  64  92 118 156 208 248 296 340
#
# _framework density 18.842644
#
# number of rings (size 3 to 8) (size 9 to 14) (size 15 to 20)
#    0.000    1.818    3.636    1.636    0.000    5.091 
#    0.000    0.000    0.000    0.000    0.000    0.000 
#    0.000    0.000    0.000    0.000    0.000    0.000 
#
# Total GULP energy -490293.700191 kJ/mol
# GULP energy per Si atom -5571.519320 kJ/mol
# Density = 1.879976 g / cm^3
# Si number density = 18.842644 Si / 1000 Ang^3
#
#
#
# Elastic Constant Matrix: (Units=GPa)
#
#
# Indices 1 2 3 4 5 6 
#
# 1 60.7448 18.6735 18.2690 0.0000 0.0000 0.0000
# 2 18.6735 60.7448 18.2690 0.0000 0.0000 0.0000
# 3 18.2690 18.2690 66.9498 0.0000 0.0000 0.0000
# 4 0.0000 0.0000 0.0000 20.0115 0.0000 0.0000
# 5 0.0000 0.0000 0.0000 0.0000 20.0115 0.0000
# 6 0.0000 0.0000 0.0000 0.0000 0.0000 19.2189
#
#
#
# Elastic Compliance Matrix: (Units=1/GPa)
#
#
# Indices 1 2 3 4 5 6 
#
# 1 0.019084 -0.004685 -0.003929 0.000000 0.000000 0.000000
# 2 -0.004685 0.019084 -0.003929 0.000000 0.000000 0.000000
# 3 -0.003929 -0.003929 0.017081 0.000000 0.000000 0.000000
# 4 0.000000 0.000000 0.000000 0.049971 0.000000 0.000000
# 5 0.000000 0.000000 0.000000 0.000000 0.049971 0.000000
# 6 0.000000 0.000000 0.000000 0.000000 0.000000 0.052032
#
#
# Mechanical properties :
#
#
# Convention : Reuss Voigt Hill
#
# Bulk Modulus (GPa) = 33.15365 33.20696 33.18031
# Shear Modulus (GPa) = 20.63003 20.73023 20.68013
#
# Velocity S-wave (km/s) = 3.31245 3.32049 3.31647
# Velocity P-wave (km/s) = 5.68005 5.68880 5.68443
#
# Compressibility (1/GPa) = 0.03016259
#
# Stress axis : x y z
#
# Youngs Moduli (GPa) = 52.39928 52.39928 58.54476
#
# Poissons Ratio (x) = 0.24549 0.23004
# Poissons Ratio (y) = 0.24549 0.23004
# Poissons Ratio (z) = 0.20589 0.20589
#
# Static dielectric constant tensor:
#      x y z
#    x 1.673080 0.000000 0.000000 
#    y 0.000000 1.673080 0.000000 
#    z 0.000000 0.000000 1.689110 
# 
# From -- ./inp_files/12544.got.cif
#   From: 2010.05.17/outbox.cif.g08.bks.cpg/sg142_7_cif.got.tgz:12544.got - 2010.05.20 13:39:18.
