data_PCOD9573732
_publ_section_title
;
Structure prediction by ZEFSAII (Michael W. Deem and Ramdas Pophale) SiO2 
 PCOD9573732
Probable space group: I 41/A C D
;
_chemical_formula_sum "Si O2"
_cell_formula_units_Z 88
_cell_length_a 14.897912
_cell_length_b 14.897912
_cell_length_c 19.477128
_cell_angle_alpha 90.000000
_cell_angle_beta 90.000000
_cell_angle_gamma 90.000000
_cell_volume 4322.905359
_symmetry_space_group_name_H-M "I 41/A C D"
_symmetry_group_IT_number 142
_space_group.IT_coordinate_system_code '2'
_symmetry_cell_setting 'tetragonal'
loop_
_space_group_symop_operation_xyz
x,y,z
1/4-y,3/4+x,1/4+z
-x,1/2-y,z
1/4+y,1/4-x,3/4+z
x,-y,1/2-z
1/2-x,y,-z
3/4+y,1/4+x,1/4-z
1/4-y,1/4-x,1/4-z
-x,-y,-z
3/4+y,1/4-x,3/4-z
x,1/2+y,-z
3/4-y,3/4+x,1/4-z
-x,y,1/2+z
1/2+x,-y,z
1/4-y,3/4-x,3/4+z
3/4+y,3/4+x,3/4+z
1/2+x,1/2+y,1/2+z
3/4-y,1/4+x,3/4+z
1/2-x,-y,1/2+z
3/4+y,3/4-x,1/4+z
1/2+x,1/2-y,-z
-x,1/2+y,1/2-z
1/4+y,3/4+x,3/4-z
3/4-y,3/4-x,3/4-z
1/2-x,1/2-y,1/2-z
1/4+y,3/4-x,1/4-z
1/2+x,y,1/2-z
1/4-y,1/4+x,3/4-z
1/2-x,1/2+y,z
x,1/2-y,1/2+z
3/4-y,1/4-x,1/4+z
1/4+y,1/4+x,1/4+z
loop_
_atom_site_type_symbol
_atom_site_label
_atom_site_fract_x
_atom_site_fract_y
_atom_site_fract_z
Si Si1 0.149416 0.027111 0.998550
Si Si2 0.000000 0.250000 0.125000
Si Si3 0.453580 0.500000 0.250000
Si Si4 0.002141 0.451873 0.100772
O O1 0.250000 0.987209 0.000000
O O2 0.168637 0.133133 0.988010
O O3 0.091735 0.013477 0.067950
O O4 0.086567 0.991552 0.938696
O O5 0.999062 0.154744 0.087130
O O6 0.505368 0.524532 0.180959
#
# Coordination Sequence:
#
# PCOD9573732 Si02
#       4
#    32   8  16  32
#     4   9  21  43  66  91 132 180 218 275 338 409
#     4  12  20  40  56  94 132 164 208 282 320 400
#     4  10  20  44  64  92 138 168 226 292 318 424
#     4  11  22  41  66  95 134 173 220 281 340 398
#
# _framework density 20.356679
#
# number of rings (size 3 to 8) (size 9 to 14) (size 15 to 20)
#    1.091    0.727    3.636    0.000    0.000    2.909 
#   16.364    1.818    0.000    2.182    0.000    0.000 
#    0.000    0.000    0.000    0.000    0.000    0.000 
#
# Total GULP energy -245190.107342 kJ/mol
# GULP energy per Si atom -5572.502440 kJ/mol
# Density = 2.031035 g / cm^3
# Si number density = 20.356679 Si / 1000 Ang^3
#
#
#
# Elastic Constant Matrix: (Units=GPa)
#
#
# Indices 1 2 3 4 5 6 
#
# 1 101.4918 37.8835 61.0307 0.0000 0.0000 0.0000
# 2 37.8835 101.4918 61.0307 0.0000 0.0000 0.0000
# 3 61.0307 61.0307 140.9121 0.0000 0.0000 0.0000
# 4 0.0000 0.0000 0.0000 -623.8904 -0.0002 0.0000
# 5 0.0000 0.0000 0.0000 -0.0002 -623.8906 0.0000
# 6 0.0000 0.0000 0.0000 0.0000 0.0000 20.6662
#
#
#
# Elastic Compliance Matrix: (Units=1/GPa)
#
#
# Indices 1 2 3 4 5 6 
#
# 1 0.013640 -0.002081 -0.005007 0.000000 0.000000 0.000000
# 2 -0.002081 0.013640 -0.005007 0.000000 0.000000 0.000000
# 3 -0.005007 -0.005007 0.011433 0.000000 0.000000 0.000000
# 4 0.000000 0.000000 0.000000 -0.001603 0.000000 0.000000
# 5 0.000000 0.000000 0.000000 0.000000 -0.001603 0.000000
# 6 0.000000 0.000000 0.000000 0.000000 0.000000 0.048388
#
#
# Mechanical properties :
#
#
# Convention : Reuss Voigt Hill
#
# Bulk Modulus (GPa) = 68.84120 73.75393 71.29757
# Shear Modulus (GPa) = 44.27653 -233.15958 -94.44152
#
# Velocity S-wave (km/s) = 4.66879 -10.71381 -6.81866
# Velocity P-wave (km/s) = 7.93438 10.80455 5.18574
#
# Compressibility (1/GPa) = 0.01452618
#
# Stress axis : x y z
#
# Youngs Moduli (GPa) = 73.31193 73.31194 87.46297
#
# Poissons Ratio (x) = 0.15255 0.43789
# Poissons Ratio (y) = 0.15255 0.43789
# Poissons Ratio (z) = 0.36704 0.36704
#
# Static dielectric constant tensor:
#      x y z
#    x 1.753030 0.000000 0.000000 
#    y 0.000000 1.753030 0.000000 
#    z 0.000000 0.000000 1.726810 
# 
# From -- ./inp_files/8285.got.cif
#   From: 2010.05.17/outbox.cif.g08.bks.cpg/sg142_5_cif.got.tgz:8285.got - 2010.05.20 13:39:18.
