data_PCOD9573973
_publ_section_title
;
Structure prediction by ZEFSAII (Michael W. Deem and Ramdas Pophale) SiO2 
 PCOD9573973
Probable space group: I 41/A C D
;
_chemical_formula_sum "Si O2"
_cell_formula_units_Z 176
_cell_length_a 22.809098
_cell_length_b 22.809098
_cell_length_c 17.056059
_cell_angle_alpha 90.000000
_cell_angle_beta 90.000000
_cell_angle_gamma 90.000000
_cell_volume 8873.499149
_symmetry_space_group_name_H-M "I 41/A C D"
_symmetry_group_IT_number 142
_space_group.IT_coordinate_system_code '2'
_symmetry_cell_setting 'tetragonal'
loop_
_space_group_symop_operation_xyz
x,y,z
1/4-y,3/4+x,1/4+z
-x,1/2-y,z
1/4+y,1/4-x,3/4+z
x,-y,1/2-z
1/2-x,y,-z
3/4+y,1/4+x,1/4-z
1/4-y,1/4-x,1/4-z
-x,-y,-z
3/4+y,1/4-x,3/4-z
x,1/2+y,-z
3/4-y,3/4+x,1/4-z
-x,y,1/2+z
1/2+x,-y,z
1/4-y,3/4-x,3/4+z
3/4+y,3/4+x,3/4+z
1/2+x,1/2+y,1/2+z
3/4-y,1/4+x,3/4+z
1/2-x,-y,1/2+z
3/4+y,3/4-x,1/4+z
1/2+x,1/2-y,-z
-x,1/2+y,1/2-z
1/4+y,3/4+x,3/4-z
3/4-y,3/4-x,3/4-z
1/2-x,1/2-y,1/2-z
1/4+y,3/4-x,1/4-z
1/2+x,y,1/2-z
1/4-y,1/4+x,3/4-z
1/2-x,1/2+y,z
x,1/2-y,1/2+z
3/4-y,1/4-x,1/4+z
1/4+y,1/4+x,1/4+z
loop_
_atom_site_type_symbol
_atom_site_label
_atom_site_fract_x
_atom_site_fract_y
_atom_site_fract_z
Si Si1 0.446425 0.672949 0.357493
Si Si2 0.824976 0.674704 0.868027
Si Si3 0.274828 0.608686 0.083664
Si Si4 0.546170 0.872576 0.180157
Si Si5 0.869185 0.000000 0.250000
Si Si6 0.378012 0.576356 0.451828
O O1 0.424437 0.739728 0.352278
O O2 0.455794 0.647909 0.270262
O O3 0.402389 0.635199 0.410881
O O4 0.875462 0.625462 0.875000
O O5 0.852823 0.735311 0.896645
O O6 0.809439 0.667798 0.776707
O O7 0.771775 0.657448 0.925767
O O8 0.303092 0.553092 0.125000
O O9 0.324968 0.657022 0.073652
O O10 0.223775 0.633119 0.137656
O O11 0.250000 0.591829 0.000000
O O12 0.570713 0.820713 0.125000
O O13 0.834216 0.940680 0.226001
#
# Coordination Sequence:
#
# PCOD9573973 Si02
#       6
#    32  32  32  32  16  32
#     4  11  23  41  68 100 132 174 215 269 333 405
#     4  10  23  42  65  98 127 173 216 271 333 394
#     4  11  26  43  66  97 133 181 223 280 333 391
#     4  11  24  43  65  95 135 169 218 273 333 396
#     4  10  24  38  66  94 130 168 218 274 322 390
#     4  11  24  43  67  96 134 173 228 272 332 400
#
# _framework density 19.834340000000001
#
# number of rings (size 3 to 8) (size 9 to 14) (size 15 to 20)
#    0.000    1.273    1.818    3.273    5.091    4.727 
#    0.000    0.000    0.000    0.000    0.000    0.000 
#    0.000    0.000    0.000    0.000    0.000    0.000 
#
# Total GULP energy -491668.512194 kJ/mol
# GULP energy per Si atom -5587.142184 kJ/mol
# Density = 1.978920 g / cm^3
# Si number density = 19.834340 Si / 1000 Ang^3
#
#
#
# Elastic Constant Matrix: (Units=GPa)
#
#
# Indices 1 2 3 4 5 6 
#
# 1 85.2822 28.5263 51.6074 0.0000 0.0000 0.0000
# 2 28.5263 85.2822 51.6074 0.0000 0.0000 0.0000
# 3 51.6074 51.6074 170.6622 0.0000 0.0000 0.0000
# 4 0.0000 0.0000 0.0000 4.6883 0.0000 0.0000
# 5 0.0000 0.0000 0.0000 0.0000 4.6883 0.0000
# 6 0.0000 0.0000 0.0000 0.0000 0.0000 -74.8665
#
#
#
# Elastic Compliance Matrix: (Units=1/GPa)
#
#
# Indices 1 2 3 4 5 6 
#
# 1 0.014863 -0.002756 -0.003661 0.000000 0.000000 0.000000
# 2 -0.002756 0.014863 -0.003661 0.000000 0.000000 0.000000
# 3 -0.003661 -0.003661 0.008074 0.000000 0.000000 0.000000
# 4 0.000000 0.000000 0.000000 0.213298 0.000000 0.000000
# 5 0.000000 0.000000 0.000000 0.000000 0.213298 0.000000
# 6 0.000000 0.000000 0.000000 0.000000 0.000000 -0.013357
#
#
# Mechanical properties :
#
#
# Convention : Reuss Voigt Hill
#
# Bulk Modulus (GPa) = 56.67866 67.18990 61.93428
# Shear Modulus (GPa) = 10.48052 0.86771 5.67411
#
# Velocity S-wave (km/s) = 2.30119 0.66214 1.69321
# Velocity P-wave (km/s) = 5.97484 5.87653 5.92589
#
# Compressibility (1/GPa) = 0.01764332
#
# Stress axis : x y z
#
# Youngs Moduli (GPa) = 67.28044 67.28044 123.85853
#
# Poissons Ratio (x) = 0.18544 0.45346
# Poissons Ratio (y) = 0.18544 0.45346
# Poissons Ratio (z) = 0.24632 0.24632
#
# Static dielectric constant tensor:
#      x y z
#    x 1.706020 0.000000 0.000000 
#    y 0.000000 1.706020 0.000000 
#    z 0.000000 0.000000 1.709190 
# 
# From -- ./inp_files/5539.got.cif
#   From: 2010.05.17/outbox.cif.g08.bks.cpg/sg142_3_cif.got.tgz:5539.got - 2010.05.20 13:39:18.
