data_PCOD9573917
_publ_section_title
;
Structure prediction by ZEFSAII (Michael W. Deem and Ramdas Pophale) SiO2 
 PCOD9573917
Probable space group: I 41/A C D
;
_chemical_formula_sum "Si O2"
_cell_formula_units_Z 176
_cell_length_a 23.849833
_cell_length_b 23.849833
_cell_length_c 13.581109
_cell_angle_alpha 90.000000
_cell_angle_beta 90.000000
_cell_angle_gamma 90.000000
_cell_volume 7725.132189
_symmetry_space_group_name_H-M "I 41/A C D"
_symmetry_group_IT_number 142
_space_group.IT_coordinate_system_code '2'
_symmetry_cell_setting 'tetragonal'
loop_
_space_group_symop_operation_xyz
x,y,z
1/4-y,3/4+x,1/4+z
-x,1/2-y,z
1/4+y,1/4-x,3/4+z
x,-y,1/2-z
1/2-x,y,-z
3/4+y,1/4+x,1/4-z
1/4-y,1/4-x,1/4-z
-x,-y,-z
3/4+y,1/4-x,3/4-z
x,1/2+y,-z
3/4-y,3/4+x,1/4-z
-x,y,1/2+z
1/2+x,-y,z
1/4-y,3/4-x,3/4+z
3/4+y,3/4+x,3/4+z
1/2+x,1/2+y,1/2+z
3/4-y,1/4+x,3/4+z
1/2-x,-y,1/2+z
3/4+y,3/4-x,1/4+z
1/2+x,1/2-y,-z
-x,1/2+y,1/2-z
1/4+y,3/4+x,3/4-z
3/4-y,3/4-x,3/4-z
1/2-x,1/2-y,1/2-z
1/4+y,3/4-x,1/4-z
1/2+x,y,1/2-z
1/4-y,1/4+x,3/4-z
1/2-x,1/2+y,z
x,1/2-y,1/2+z
3/4-y,1/4-x,1/4+z
1/4+y,1/4+x,1/4+z
loop_
_atom_site_type_symbol
_atom_site_label
_atom_site_fract_x
_atom_site_fract_y
_atom_site_fract_z
Si Si1 0.843396 0.406605 0.125000
Si Si2 0.700169 0.500000 0.750000
Si Si3 0.201986 0.951986 0.875000
Si Si4 0.294359 0.805692 0.666267
Si Si5 0.908536 0.158536 0.125000
Si Si6 0.156298 0.258951 0.987932
Si Si7 0.670877 0.199583 0.706609
Si Si8 0.250000 0.149367 0.500000
O O1 0.786803 0.410187 0.065195
O O2 0.838992 0.353436 0.192595
O O3 0.743821 0.540841 0.804538
O O4 0.143534 0.965397 0.820347
O O5 0.309407 0.783231 0.558147
O O6 0.230754 0.826335 0.677588
O O7 0.308754 0.754083 0.734975
O O8 0.963606 0.142358 0.192360
O O9 0.863338 0.162933 0.214580
O O10 0.140105 0.223465 0.890876
O O11 0.201329 0.308565 0.959921
#
# Coordination Sequence:
#
# PCOD9573917 Si02
#       8
#    16  16  16  32  16  32  32  16
#     4  11  24  38  63  89 134 177 215 262 334 413
#     4   9  22  37  50  88 136 181 214 257 326 420
#     4   9  21  36  52  90 147 182 224 270 332 413
#     4  10  23  41  65 100 139 182 235 286 336 413
#     4  10  25  42  71 107 131 176 241 289 364 421
#     4  11  22  41  68 103 138 183 237 295 348 417
#     4  10  22  43  68 100 138 177 236 295 342 411
#     4  11  20  35  64  94 136 191 228 281 336 412
#
# _framework density 22.782782000000001
#
# number of rings (size 3 to 8) (size 9 to 14) (size 15 to 20)
#    0.000    1.818    1.818    0.545    5.091    5.818 
#    0.000    0.909    0.000   19.091    0.000    0.000 
#    0.000    0.000    0.000    0.000    0.000    0.000 
#
# Total GULP energy -490249.951756 kJ/mol
# GULP energy per Si atom -5571.022179 kJ/mol
# Density = 2.273093 g / cm^3
# Si number density = 22.782782 Si / 1000 Ang^3
#
#
#
# Elastic Constant Matrix: (Units=GPa)
#
#
# Indices 1 2 3 4 5 6 
#
# 1 124.7144 -8.5584 39.7041 0.0000 0.0000 0.0000
# 2 -8.5584 124.7053 39.7061 0.0000 0.0000 0.0000
# 3 39.7041 39.7061 127.8068 0.0000 0.0000 0.0000
# 4 0.0000 0.0000 0.0000 38.1734 0.0000 0.0000
# 5 0.0000 0.0000 0.0000 0.0000 38.1735 0.0000
# 6 0.0000 0.0000 0.0000 0.0000 0.0000 30.2302
#
#
#
# Elastic Compliance Matrix: (Units=1/GPa)
#
#
# Indices 1 2 3 4 5 6 
#
# 1 0.009217 0.001714 -0.003396 0.000000 0.000000 0.000000
# 2 0.001714 0.009218 -0.003396 0.000000 0.000000 0.000000
# 3 -0.003396 -0.003396 0.009934 0.000000 0.000000 0.000000
# 4 0.000000 0.000000 0.000000 0.026196 0.000000 0.000000
# 5 0.000000 0.000000 0.000000 0.000000 0.026196 0.000000
# 6 0.000000 0.000000 0.000000 0.000000 0.000000 0.033079
#
#
# Mechanical properties :
#
#
# Convention : Reuss Voigt Hill
#
# Bulk Modulus (GPa) = 54.90608 57.65891 56.28249
# Shear Modulus (GPa) = 38.44137 41.74042 40.09090
#
# Velocity S-wave (km/s) = 4.11213 4.28495 4.19943
# Velocity P-wave (km/s) = 6.83362 7.06004 6.94775
#
# Compressibility (1/GPa) = 0.01821292
#
# Stress axis : x y z
#
# Youngs Moduli (GPa) = 108.49526 108.48523 100.66125
#
# Poissons Ratio (x) = -0.18592 0.34182
# Poissons Ratio (y) = -0.18593 0.34186
# Poissons Ratio (z) = 0.36842 0.36843
#
# Static dielectric constant tensor:
#      x y z
#    x 1.887960 0.000000 0.000000 
#    y 0.000000 1.887950 0.000000 
#    z 0.000000 0.000000 1.969270 
# 
# From -- ./inp_files/5627.got.cif
#   From: 2010.05.17/outbox.cif.g08.bks.cpg/sg142_3_cif.got.tgz:5627.got - 2010.05.20 13:39:18.
