data_PCOD9573049
_publ_section_title
;
Structure prediction by ZEFSAII (Michael W. Deem and Ramdas Pophale) SiO2 
 PCOD9573049
Probable space group: I 41/A M D
;
_chemical_formula_sum "Si O2"
_cell_formula_units_Z 72
_cell_length_a 13.869441
_cell_length_b 13.869441
_cell_length_c 20.707500
_cell_angle_alpha 90.000000
_cell_angle_beta 90.000000
_cell_angle_gamma 90.000000
_cell_volume 3983.323559
_symmetry_space_group_name_H-M "I 41/A M D"
_symmetry_group_IT_number 141
_space_group.IT_coordinate_system_code '2'
_symmetry_cell_setting 'tetragonal'
loop_
_space_group_symop_operation_xyz
x,y,z
1/4-y,3/4+x,1/4+z
-x,1/2-y,z
1/4+y,1/4-x,3/4+z
x,-y,-z
-x,1/2+y,-z
1/4+y,3/4+x,1/4-z
1/4-y,1/4-x,3/4-z
-x,-y,-z
3/4+y,1/4-x,3/4-z
x,1/2+y,-z
3/4-y,3/4+x,1/4-z
-x,y,z
x,1/2-y,z
3/4-y,1/4-x,3/4+z
3/4+y,3/4+x,1/4+z
1/2+x,1/2+y,1/2+z
3/4-y,1/4+x,3/4+z
1/2-x,-y,1/2+z
3/4+y,3/4-x,1/4+z
1/2+x,1/2-y,1/2-z
1/2-x,y,1/2-z
3/4+y,1/4+x,3/4-z
3/4-y,3/4-x,1/4-z
1/2-x,1/2-y,1/2-z
1/4+y,3/4-x,1/4-z
1/2+x,y,1/2-z
1/4-y,1/4+x,3/4-z
1/2-x,1/2+y,1/2+z
1/2+x,-y,1/2+z
1/4-y,3/4-x,1/4+z
1/4+y,1/4+x,3/4+z
loop_
_atom_site_type_symbol
_atom_site_label
_atom_site_fract_x
_atom_site_fract_y
_atom_site_fract_z
Si Si1 0.000000 0.250000 0.132018
Si Si2 0.795890 0.045890 0.375000
Si Si3 0.606227 0.750000 0.246342
Si Si4 0.000000 0.028250 0.575136
Si Si5 0.830730 0.000000 0.000000
O O1 0.103924 0.250000 0.167481
O O2 0.000000 0.339779 0.081658
O O3 0.768587 0.155900 0.358203
O O4 0.734205 0.018240 0.437823
O O5 0.500000 0.750000 0.274987
O O6 0.662353 0.653720 0.263432
O O7 0.000000 0.000000 0.500000
#
# Coordination Sequence:
#
# PCOD9573049 Si02
#       5
#     8  16  16  16  16
#     4  10  20  44  68  92 138 172 218 284 340 388
#     4  12  24  45  67 102 136 180 230 280 338 405
#     4   9  19  42  64  94 128 169 215 277 339 401
#     4  12  26  45  70 100 140 184 227 283 341 411
#     4  11  22  41  68  96 134 175 222 279 340 402
#
# _framework density 18.075358000000001
#
# number of rings (size 3 to 8) (size 9 to 14) (size 15 to 20)
#    0.667    0.444    6.667    0.000    0.000    2.222 
#   12.000    0.000    0.000    0.000    0.000    0.000 
#    0.000    0.000    0.000    0.000    0.000    0.000 
#
# Total GULP energy -200736.581967 kJ/mol
# GULP energy per Si atom -5576.016166 kJ/mol
# Density = 1.803422 g / cm^3
# Si number density = 18.075358 Si / 1000 Ang^3
#
#
#
# Elastic Constant Matrix: (Units=GPa)
#
#
# Indices 1 2 3 4 5 6 
#
# 1 174.3313 102.3105 71.1194 0.0000 0.0000 0.0000
# 2 102.3105 174.3313 71.1194 0.0000 0.0000 0.0000
# 3 71.1194 71.1194 135.2925 0.0000 0.0000 0.0000
# 4 0.0000 0.0000 0.0000 31.0721 0.0000 0.0000
# 5 0.0000 0.0000 0.0000 0.0000 31.0721 0.0000
# 6 0.0000 0.0000 0.0000 0.0000 0.0000 8.5676
#
#
#
# Elastic Compliance Matrix: (Units=1/GPa)
#
#
# Indices 1 2 3 4 5 6 
#
# 1 0.009419 -0.004466 -0.002604 0.000000 0.000000 0.000000
# 2 -0.004466 0.009419 -0.002604 0.000000 0.000000 0.000000
# 3 -0.002604 -0.002604 0.010129 0.000000 0.000000 0.000000
# 4 0.000000 0.000000 0.000000 0.032183 0.000000 0.000000
# 5 0.000000 0.000000 0.000000 0.000000 0.032183 0.000000
# 6 0.000000 0.000000 0.000000 0.000000 0.000000 0.116719
#
#
# Mechanical properties :
#
#
# Convention : Reuss Voigt Hill
#
# Bulk Modulus (GPa) = 103.94561 108.11709 106.03135
# Shear Modulus (GPa) = 21.49544 30.10274 25.79909
#
# Velocity S-wave (km/s) = 3.45224 4.08536 3.78207
# Velocity P-wave (km/s) = 8.57451 9.06631 8.82384
#
# Compressibility (1/GPa) = 0.00962042
#
# Stress axis : x y z
#
# Youngs Moduli (GPa) = 106.16540 106.16540 98.72556
#
# Poissons Ratio (x) = 0.47409 0.25708
# Poissons Ratio (y) = 0.47409 0.25708
# Poissons Ratio (z) = 0.27645 0.27645
#
# Static dielectric constant tensor:
#      x y z
#    x 1.620740 0.000000 0.000000 
#    y 0.000000 1.620740 0.000000 
#    z 0.000000 0.000000 1.594900 
# 
# From -- ./inp_files/7493.got.cif
#   From: 2010.05.17/outbox.cif.g08.bks.cpg/sg141_4_cif.got.tgz:7493.got - 2010.05.20 13:30:51.
