data_PCOD9573924
_publ_section_title
;
Structure prediction by ZEFSAII (Michael W. Deem and Ramdas Pophale) SiO2 
 PCOD9573924
Probable space group: I 41/A C D
;
_chemical_formula_sum "Si O2"
_cell_formula_units_Z 80
_cell_length_a 13.171161
_cell_length_b 13.171161
_cell_length_c 19.881755
_cell_angle_alpha 90.000000
_cell_angle_beta 90.000000
_cell_angle_gamma 90.000000
_cell_volume 3449.076560
_symmetry_space_group_name_H-M "I 41/A C D"
_symmetry_group_IT_number 142
_space_group.IT_coordinate_system_code '2'
_symmetry_cell_setting 'tetragonal'
loop_
_space_group_symop_operation_xyz
x,y,z
1/4-y,3/4+x,1/4+z
-x,1/2-y,z
1/4+y,1/4-x,3/4+z
x,-y,1/2-z
1/2-x,y,-z
3/4+y,1/4+x,1/4-z
1/4-y,1/4-x,1/4-z
-x,-y,-z
3/4+y,1/4-x,3/4-z
x,1/2+y,-z
3/4-y,3/4+x,1/4-z
-x,y,1/2+z
1/2+x,-y,z
1/4-y,3/4-x,3/4+z
3/4+y,3/4+x,3/4+z
1/2+x,1/2+y,1/2+z
3/4-y,1/4+x,3/4+z
1/2-x,-y,1/2+z
3/4+y,3/4-x,1/4+z
1/2+x,1/2-y,-z
-x,1/2+y,1/2-z
1/4+y,3/4+x,3/4-z
3/4-y,3/4-x,3/4-z
1/2-x,1/2-y,1/2-z
1/4+y,3/4-x,1/4-z
1/2+x,y,1/2-z
1/4-y,1/4+x,3/4-z
1/2-x,1/2+y,z
x,1/2-y,1/2+z
3/4-y,1/4-x,1/4+z
1/4+y,1/4+x,1/4+z
loop_
_atom_site_type_symbol
_atom_site_label
_atom_site_fract_x
_atom_site_fract_y
_atom_site_fract_z
Si Si1 0.816385 0.628864 0.569014
Si Si2 0.000000 0.750000 0.125000
Si Si3 0.000000 0.250000 0.125000
Si Si4 0.215550 0.727517 0.324433
O O1 0.750000 0.624568 0.500000
O O2 0.913600 0.704582 0.575969
O O3 0.747827 0.681483 0.625823
O O4 0.870421 0.522359 0.588660
O O5 0.095893 0.267085 0.172447
O O6 0.250000 0.750000 0.250000
#
# Coordination Sequence:
#
# PCOD9573924 Si02
#       4
#    32   8   8  32
#     4  10  22  43  72 104 144 187 233 288 350 411
#     4   8  20  42  72 106 144 190 236 290 340 406
#     4  12  28  46  72 106 140 182 236 290 348 426
#     4  11  26  46  72 106 141 184 235 289 349 415
#
# _framework density 23.194614000000001
#
# number of rings (size 3 to 8) (size 9 to 14) (size 15 to 20)
#    0.000    1.600    0.000    2.400    0.000   25.600 
#    0.000    0.000    0.000    0.000    0.000    0.000 
#    0.000    0.000    0.000    0.000    0.000    0.000 
#
# Total GULP energy -223096.228694 kJ/mol
# GULP energy per Si atom -5577.405717 kJ/mol
# Density = 2.314182 g / cm^3
# Si number density = 23.194614 Si / 1000 Ang^3
#
#
#
# Elastic Constant Matrix: (Units=GPa)
#
#
# Indices 1 2 3 4 5 6 
#
# 1 174.1871 67.4412 78.6152 0.0000 0.0000 0.0000
# 2 67.4412 174.1871 78.6152 0.0000 0.0000 0.0000
# 3 78.6152 78.6152 162.3128 0.0000 0.0000 0.0000
# 4 0.0000 0.0000 0.0000 19.9982 0.0000 0.0000
# 5 0.0000 0.0000 0.0000 0.0000 19.9982 0.0000
# 6 0.0000 0.0000 0.0000 0.0000 0.0000 26.5631
#
#
#
# Elastic Compliance Matrix: (Units=1/GPa)
#
#
# Indices 1 2 3 4 5 6 
#
# 1 0.007706 -0.001662 -0.002927 0.000000 0.000000 0.000000
# 2 -0.001662 0.007706 -0.002927 0.000000 0.000000 0.000000
# 3 -0.002927 -0.002927 0.008996 0.000000 0.000000 0.000000
# 4 0.000000 0.000000 0.000000 0.050004 0.000000 0.000000
# 5 0.000000 0.000000 0.000000 0.000000 0.050004 0.000000
# 6 0.000000 0.000000 0.000000 0.000000 0.000000 0.037646
#
#
# Mechanical properties :
#
#
# Convention : Reuss Voigt Hill
#
# Bulk Modulus (GPa) = 106.66957 106.67000 106.66978
# Shear Modulus (GPa) = 27.74381 32.37960 30.06171
#
# Velocity S-wave (km/s) = 3.46227 3.74036 3.60399
# Velocity P-wave (km/s) = 7.87857 8.04628 7.96287
#
# Compressibility (1/GPa) = 0.00937475
#
# Stress axis : x y z
#
# Youngs Moduli (GPa) = 129.77522 129.77522 111.15694
#
# Poissons Ratio (x) = 0.21574 0.32536
# Poissons Ratio (y) = 0.21574 0.32536
# Poissons Ratio (z) = 0.37985 0.37985
#
# Static dielectric constant tensor:
#      x y z
#    x 1.772230 0.000000 0.000000 
#    y 0.000000 1.772230 0.000000 
#    z 0.000000 0.000000 1.816090 
# 
# From -- ./inp_files/8236.got.cif
#   From: 2010.05.17/outbox.cif.g08.bks.cpg/sg142_5_cif.got.tgz:8236.got - 2010.05.20 13:39:18.
