data_PCOD9573974
_publ_section_title
;
Structure prediction by ZEFSAII (Michael W. Deem and Ramdas Pophale) SiO2 
 PCOD9573974
Probable space group: I 41/A C D
;
_chemical_formula_sum "Si O2"
_cell_formula_units_Z 128
_cell_length_a 15.547796
_cell_length_b 15.547796
_cell_length_c 22.936728
_cell_angle_alpha 90.000000
_cell_angle_beta 90.000000
_cell_angle_gamma 90.000000
_cell_volume 5544.586099
_symmetry_space_group_name_H-M "I 41/A C D"
_symmetry_group_IT_number 142
_space_group.IT_coordinate_system_code '2'
_symmetry_cell_setting 'tetragonal'
loop_
_space_group_symop_operation_xyz
x,y,z
1/4-y,3/4+x,1/4+z
-x,1/2-y,z
1/4+y,1/4-x,3/4+z
x,-y,1/2-z
1/2-x,y,-z
3/4+y,1/4+x,1/4-z
1/4-y,1/4-x,1/4-z
-x,-y,-z
3/4+y,1/4-x,3/4-z
x,1/2+y,-z
3/4-y,3/4+x,1/4-z
-x,y,1/2+z
1/2+x,-y,z
1/4-y,3/4-x,3/4+z
3/4+y,3/4+x,3/4+z
1/2+x,1/2+y,1/2+z
3/4-y,1/4+x,3/4+z
1/2-x,-y,1/2+z
3/4+y,3/4-x,1/4+z
1/2+x,1/2-y,-z
-x,1/2+y,1/2-z
1/4+y,3/4+x,3/4-z
3/4-y,3/4-x,3/4-z
1/2-x,1/2-y,1/2-z
1/4+y,3/4-x,1/4-z
1/2+x,y,1/2-z
1/4-y,1/4+x,3/4-z
1/2-x,1/2+y,z
x,1/2-y,1/2+z
3/4-y,1/4-x,1/4+z
1/4+y,1/4+x,1/4+z
loop_
_atom_site_type_symbol
_atom_site_label
_atom_site_fract_x
_atom_site_fract_y
_atom_site_fract_z
Si Si1 0.889946 0.397990 0.756811
Si Si2 0.583702 0.398965 0.732796
Si Si3 0.681732 0.755609 0.197370
Si Si4 0.630186 0.525410 0.880167
O O1 0.890101 0.500000 0.750000
O O2 0.864048 0.337111 0.702214
O O3 0.824214 0.384672 0.809158
O O4 0.985590 0.372349 0.775460
O O5 0.588801 0.500000 0.750000
O O6 0.622349 0.334645 0.780253
O O7 0.631691 0.404210 0.670963
O O8 0.750000 0.750000 0.250000
O O9 0.723459 0.789111 0.137012
O O10 0.707936 0.457936 0.875000
#
# Coordination Sequence:
#
# PCOD9573974 Si02
#       4
#    32  32  32  32
#     4  10  25  42  68  95 132 179 226 287 336 415
#     4  11  23  44  64  96 135 175 225 281 350 403
#     4  10  23  42  66  96 133 172 222 281 339 405
#     4  11  24  39  71  97 132 181 225 285 345 412
#
# _framework density 23.085581999999999
#
# number of rings (size 3 to 8) (size 9 to 14) (size 15 to 20)
#    0.000    1.500    2.500    0.750   14.000    0.000 
#    0.000    3.750    0.000    0.000    0.000    0.000 
#    0.000    0.000    0.000    0.000    0.000    0.000 
#
# Total GULP energy -357206.198568 kJ/mol
# GULP energy per Si atom -5581.346853 kJ/mol
# Density = 2.303304 g / cm^3
# Si number density = 23.085582 Si / 1000 Ang^3
#
#
#
# Elastic Constant Matrix: (Units=GPa)
#
#
# Indices 1 2 3 4 5 6 
#
# 1 74.7806 15.2700 -6.0470 0.0000 0.0000 0.0000
# 2 15.2700 74.7806 -6.0470 0.0000 0.0000 0.0000
# 3 -6.0470 -6.0470 41.3207 0.0000 0.0000 0.0000
# 4 0.0000 0.0000 0.0000 17.7318 0.0000 0.0000
# 5 0.0000 0.0000 0.0000 0.0000 17.7318 0.0000
# 6 0.0000 0.0000 0.0000 0.0000 0.0000 28.5228
#
#
#
# Elastic Compliance Matrix: (Units=1/GPa)
#
#
# Indices 1 2 3 4 5 6 
#
# 1 0.014066 -0.002738 0.001658 0.000000 0.000000 0.000000
# 2 -0.002738 0.014066 0.001658 0.000000 0.000000 0.000000
# 3 0.001658 0.001658 0.024686 0.000000 0.000000 0.000000
# 4 0.000000 0.000000 0.000000 0.056396 0.000000 0.000000
# 5 0.000000 0.000000 0.000000 0.000000 0.056396 0.000000
# 6 0.000000 0.000000 0.000000 0.000000 0.000000 0.035060
#
#
# Mechanical properties :
#
#
# Convention : Reuss Voigt Hill
#
# Bulk Modulus (GPa) = 18.52816 21.91487 20.22151
# Shear Modulus (GPa) = 22.98798 25.31100 24.14949
#
# Velocity S-wave (km/s) = 3.15901 3.31478 3.23783
# Velocity P-wave (km/s) = 4.62050 4.91568 4.77037
#
# Compressibility (1/GPa) = 0.05397191
#
# Stress axis : x y z
#
# Youngs Moduli (GPa) = 71.09535 71.09535 40.50861
#
# Poissons Ratio (x) = 0.19467 -0.06715
# Poissons Ratio (y) = 0.19467 -0.06715
# Poissons Ratio (z) = -0.11785 -0.11785
#
# Static dielectric constant tensor:
#      x y z
#    x 1.942950 0.000000 0.000000 
#    y 0.000000 1.942950 0.000000 
#    z 0.000000 0.000000 1.815340 
# 
# From -- ./inp_files/9962.got.cif
#   From: 2010.05.17/outbox.cif.g08.bks.cpg/sg142_5_cif.got.tgz:9962.got - 2010.05.20 13:39:18.
