data_PCOD9573751
_publ_section_title
;
Structure prediction by ZEFSAII (Michael W. Deem and Ramdas Pophale) SiO2 
 PCOD9573751
Probable space group: I 41/A C D
;
_chemical_formula_sum "Si O2"
_cell_formula_units_Z 192
_cell_length_a 20.271969
_cell_length_b 20.271969
_cell_length_c 24.351846
_cell_angle_alpha 90.000000
_cell_angle_beta 90.000000
_cell_angle_gamma 90.000000
_cell_volume 10007.457525
_symmetry_space_group_name_H-M "I 41/A C D"
_symmetry_group_IT_number 142
_space_group.IT_coordinate_system_code '2'
_symmetry_cell_setting 'tetragonal'
loop_
_space_group_symop_operation_xyz
x,y,z
1/4-y,3/4+x,1/4+z
-x,1/2-y,z
1/4+y,1/4-x,3/4+z
x,-y,1/2-z
1/2-x,y,-z
3/4+y,1/4+x,1/4-z
1/4-y,1/4-x,1/4-z
-x,-y,-z
3/4+y,1/4-x,3/4-z
x,1/2+y,-z
3/4-y,3/4+x,1/4-z
-x,y,1/2+z
1/2+x,-y,z
1/4-y,3/4-x,3/4+z
3/4+y,3/4+x,3/4+z
1/2+x,1/2+y,1/2+z
3/4-y,1/4+x,3/4+z
1/2-x,-y,1/2+z
3/4+y,3/4-x,1/4+z
1/2+x,1/2-y,-z
-x,1/2+y,1/2-z
1/4+y,3/4+x,3/4-z
3/4-y,3/4-x,3/4-z
1/2-x,1/2-y,1/2-z
1/4+y,3/4-x,1/4-z
1/2+x,y,1/2-z
1/4-y,1/4+x,3/4-z
1/2-x,1/2+y,z
x,1/2-y,1/2+z
3/4-y,1/4-x,1/4+z
1/4+y,1/4+x,1/4+z
loop_
_atom_site_type_symbol
_atom_site_label
_atom_site_fract_x
_atom_site_fract_y
_atom_site_fract_z
Si Si1 0.698193 0.418933 0.750540
Si Si2 0.881514 0.424419 0.451009
Si Si3 0.472541 0.142342 0.627280
Si Si4 0.049741 0.921027 0.245923
Si Si5 0.683245 0.835080 0.537874
Si Si6 0.760123 0.596337 0.128128
O O1 0.705587 0.500000 0.750000
O O2 0.748953 0.383945 0.791067
O O3 0.622956 0.399449 0.761750
O O4 0.719081 0.393910 0.690330
O O5 0.949853 0.403074 0.423576
O O6 0.864595 0.387453 0.508137
O O7 0.825759 0.401511 0.407911
O O8 0.544998 0.173055 0.621055
O O9 0.466259 0.102427 0.684107
O O10 0.987237 0.902253 0.282980
O O11 0.053333 0.000000 0.250000
O O12 0.750000 0.836188 0.500000
O O13 0.708116 0.855753 0.597838
O O14 0.725073 0.524928 0.125000
#
# Coordination Sequence:
#
# PCOD9573751 Si02
#       6
#    32  32  32  32  32  32
#     4  11  20  32  55  92 125 154 192 256 316 365
#     4  11  19  33  56  84 119 151 201 246 302 359
#     4  11  23  39  61  86 115 156 207 256 302 363
#     4  10  21  36  56  84 119 154 192 250 313 359
#     4   9  18  32  53  81 113 152 194 237 289 362
#     4  11  18  30  55  87 122 154 198 246 298 367
#
# _framework density 19.185692
#
# number of rings (size 3 to 8) (size 9 to 14) (size 15 to 20)
#    0.000    1.500    6.667    0.500    0.000    0.000 
#    0.000    0.833    0.000    2.000    0.000    0.000 
#    0.000    0.000    0.000    0.000    0.000    0.000 
#
# Total GULP energy -535338.881401 kJ/mol
# GULP energy per Si atom -5576.446681 kJ/mol
# Density = 1.914202 g / cm^3
# Si number density = 19.185692 Si / 1000 Ang^3
#
#
#
# Elastic Constant Matrix: (Units=GPa)
#
#
# Indices 1 2 3 4 5 6 
#
# 1 83.1814 13.3918 33.0996 0.0000 0.0000 0.0000
# 2 13.3918 83.1829 33.0997 0.0000 0.0000 0.0000
# 3 33.0996 33.0997 79.6699 0.0000 0.0000 0.0000
# 4 0.0000 0.0000 0.0000 21.6814 0.0000 0.0000
# 5 0.0000 0.0000 0.0000 0.0000 21.6801 0.0000
# 6 0.0000 0.0000 0.0000 0.0000 0.0000 19.0592
#
#
#
# Elastic Compliance Matrix: (Units=1/GPa)
#
#
# Indices 1 2 3 4 5 6 
#
# 1 0.014403 0.000075 -0.006015 0.000000 0.000000 0.000000
# 2 0.000075 0.014403 -0.006015 0.000000 0.000000 0.000000
# 3 -0.006015 -0.006015 0.017550 0.000000 0.000000 0.000000
# 4 0.000000 0.000000 0.000000 0.046122 0.000000 0.000000
# 5 0.000000 0.000000 0.000000 0.000000 0.046125 0.000000
# 6 0.000000 0.000000 0.000000 0.000000 0.000000 0.052468
#
#
# Mechanical properties :
#
#
# Convention : Reuss Voigt Hill
#
# Bulk Modulus (GPa) = 44.55215 45.02406 44.78810
# Shear Modulus (GPa) = 22.47549 23.58035 23.02792
#
# Velocity S-wave (km/s) = 3.42639 3.50960 3.46824
# Velocity P-wave (km/s) = 6.23903 6.31993 6.27961
#
# Compressibility (1/GPa) = 0.02244561
#
# Stress axis : x y z
#
# Youngs Moduli (GPa) = 69.42799 69.42939 56.98080
#
# Poissons Ratio (x) = -0.00518 0.34274
# Poissons Ratio (y) = -0.00518 0.34274
# Poissons Ratio (z) = 0.41761 0.41761
#
# Static dielectric constant tensor:
#      x y z
#    x 1.740320 0.000000 0.000000 
#    y 0.000000 1.740330 0.000000 
#    z 0.000000 0.000000 1.669960 
# 
# From -- ./inp_files/10399.got.cif
#   From: 2010.05.17/outbox.cif.g08.bks.cpg/sg142_6_cif.got.tgz:10399.got - 2010.05.20 13:39:18.
