data_PCOD9573307
_publ_section_title
;
Structure prediction by ZEFSAII (Michael W. Deem and Ramdas Pophale) SiO2 
 PCOD9573307
Probable space group: I 41/A M D
;
_chemical_formula_sum "Si O2"
_cell_formula_units_Z 176
_cell_length_a 17.405005
_cell_length_b 17.405005
_cell_length_c 26.958213
_cell_angle_alpha 90.000000
_cell_angle_beta 90.000000
_cell_angle_gamma 90.000000
_cell_volume 8166.564663
_symmetry_space_group_name_H-M "I 41/A M D"
_symmetry_group_IT_number 141
_space_group.IT_coordinate_system_code '2'
_symmetry_cell_setting 'tetragonal'
loop_
_space_group_symop_operation_xyz
x,y,z
1/4-y,3/4+x,1/4+z
-x,1/2-y,z
1/4+y,1/4-x,3/4+z
x,-y,-z
-x,1/2+y,-z
1/4+y,3/4+x,1/4-z
1/4-y,1/4-x,3/4-z
-x,-y,-z
3/4+y,1/4-x,3/4-z
x,1/2+y,-z
3/4-y,3/4+x,1/4-z
-x,y,z
x,1/2-y,z
3/4-y,1/4-x,3/4+z
3/4+y,3/4+x,1/4+z
1/2+x,1/2+y,1/2+z
3/4-y,1/4+x,3/4+z
1/2-x,-y,1/2+z
3/4+y,3/4-x,1/4+z
1/2+x,1/2-y,1/2-z
1/2-x,y,1/2-z
3/4+y,1/4+x,3/4-z
3/4-y,3/4-x,1/4-z
1/2-x,1/2-y,1/2-z
1/4+y,3/4-x,1/4-z
1/2+x,y,1/2-z
1/4-y,1/4+x,3/4-z
1/2-x,1/2+y,1/2+z
1/2+x,-y,1/2+z
1/4-y,3/4-x,1/4+z
1/4+y,1/4+x,3/4+z
loop_
_atom_site_type_symbol
_atom_site_label
_atom_site_fract_x
_atom_site_fract_y
_atom_site_fract_z
Si Si1 0.719369 0.634112 0.299466
Si Si2 0.215384 0.073494 0.529734
Si Si3 0.334524 0.839326 0.942201
Si Si4 0.406527 0.250000 0.339339
Si Si5 0.817978 0.394730 0.114257
Si Si6 0.916122 0.833879 0.125000
Si Si7 0.093702 0.250000 0.279984
O O1 0.750000 0.674105 0.250000
O O2 0.679302 0.556586 0.279240
O O3 0.796237 0.612851 0.329323
O O4 0.655280 0.664688 0.337228
O O5 0.186335 0.147307 0.500347
O O6 0.190612 0.059165 0.585046
O O7 0.184951 0.000000 0.500000
O O8 0.336649 0.750000 0.929983
O O9 0.264107 0.874909 0.910972
O O10 0.422569 0.869764 0.941250
O O11 0.500000 0.250000 0.342135
O O12 0.368437 0.178022 0.368115
O O13 0.385706 0.250000 0.279482
O O14 0.912424 0.750000 0.099192
O O15 0.000000 0.250000 0.280618
#
# Coordination Sequence:
#
# PCOD9573307 Si02
#       7
#    32  32  32  16  32  16  16
#     4  11  23  44  71 101 138 183 236 281 344 421
#     4  11  22  39  69  96 133 178 232 289 337 415
#     4  11  22  39  69 101 137 181 236 287 353 409
#     4  11  24  42  66 107 143 173 237 292 347 410
#     4  12  22  41  70 101 137 187 232 292 341 417
#     4  11  26  48  74 106 144 184 229 286 354 426
#     4   9  20  40  64 100 139 187 227 283 344 417
#
# _framework density 21.551289000000001
#
# number of rings (size 3 to 8) (size 9 to 14) (size 15 to 20)
#    0.000    1.000    8.182    0.000    0.000    1.818 
#    1.636    1.818    6.000    0.000    0.000    0.000 
#    0.000    0.000    0.000    0.000    0.000    0.000 
#
# Total GULP energy -490879.098238 kJ/mol
# GULP energy per Si atom -5578.171571 kJ/mol
# Density = 2.150224 g / cm^3
# Si number density = 21.551289 Si / 1000 Ang^3
#
#
#
# Elastic Constant Matrix: (Units=GPa)
#
#
# Indices 1 2 3 4 5 6 
#
# 1 123.0703 50.0159 50.6911 0.0000 0.0000 0.0000
# 2 50.0159 123.0700 50.6916 0.0000 0.0000 0.0000
# 3 50.6911 50.6916 149.4407 0.0000 0.0000 0.0000
# 4 0.0000 0.0000 0.0000 -16.9272 0.0000 0.0000
# 5 0.0000 0.0000 0.0000 0.0000 -16.9355 0.0000
# 6 0.0000 0.0000 0.0000 0.0000 0.0000 14.1254
#
#
#
# Elastic Compliance Matrix: (Units=1/GPa)
#
#
# Indices 1 2 3 4 5 6 
#
# 1 0.010449 -0.003239 -0.002446 0.000000 0.000000 0.000000
# 2 -0.003239 0.010449 -0.002446 0.000000 0.000000 0.000000
# 3 -0.002446 -0.002446 0.008351 0.000000 0.000000 0.000000
# 4 0.000000 0.000000 0.000000 -0.059077 0.000000 0.000000
# 5 0.000000 0.000000 0.000000 0.000000 -0.059047 0.000000
# 6 0.000000 0.000000 0.000000 0.000000 0.000000 0.070794
#
#
# Mechanical properties :
#
#
# Convention : Reuss Voigt Hill
#
# Bulk Modulus (GPa) = 76.99376 77.59759 77.29567
# Shear Modulus (GPa) = 1992.00368 12.33138 1002.16753
#
# Velocity S-wave (km/s) = 30.43542 2.39464 21.58760
# Velocity P-wave (km/s) = 35.64954 6.61286 25.63806
#
# Compressibility (1/GPa) = 0.01298807
#
# Stress axis : x y z
#
# Youngs Moduli (GPa) = 95.70116 95.70059 119.74899
#
# Poissons Ratio (x) = 0.31000 0.29286
# Poissons Ratio (y) = 0.31000 0.29287
# Poissons Ratio (z) = 0.23405 0.23406
#
# Static dielectric constant tensor:
#      x y z
#    x 1.831360 0.000000 0.000000 
#    y 0.000000 1.831360 0.000000 
#    z 0.000000 0.000000 1.821170 
# 
# From -- ./inp_files/12979.got.cif
#   From: 2010.05.17/outbox.cif.g08.bks.cpg/sg141_7_cif.got.tgz:12979.got - 2010.05.20 13:30:51.
