data_PCOD9573941
_publ_section_title
;
Structure prediction by ZEFSAII (Michael W. Deem and Ramdas Pophale) SiO2 
 PCOD9573941
Probable space group: I 41/A C D
;
_chemical_formula_sum "Si O2"
_cell_formula_units_Z 192
_cell_length_a 19.527599
_cell_length_b 19.527599
_cell_length_c 22.629499
_cell_angle_alpha 90.000000
_cell_angle_beta 90.000000
_cell_angle_gamma 90.000000
_cell_volume 8629.241742
_symmetry_space_group_name_H-M "I 41/A C D"
_symmetry_group_IT_number 142
_space_group.IT_coordinate_system_code '2'
_symmetry_cell_setting 'tetragonal'
loop_
_space_group_symop_operation_xyz
x,y,z
1/4-y,3/4+x,1/4+z
-x,1/2-y,z
1/4+y,1/4-x,3/4+z
x,-y,1/2-z
1/2-x,y,-z
3/4+y,1/4+x,1/4-z
1/4-y,1/4-x,1/4-z
-x,-y,-z
3/4+y,1/4-x,3/4-z
x,1/2+y,-z
3/4-y,3/4+x,1/4-z
-x,y,1/2+z
1/2+x,-y,z
1/4-y,3/4-x,3/4+z
3/4+y,3/4+x,3/4+z
1/2+x,1/2+y,1/2+z
3/4-y,1/4+x,3/4+z
1/2-x,-y,1/2+z
3/4+y,3/4-x,1/4+z
1/2+x,1/2-y,-z
-x,1/2+y,1/2-z
1/4+y,3/4+x,3/4-z
3/4-y,3/4-x,3/4-z
1/2-x,1/2-y,1/2-z
1/4+y,3/4-x,1/4-z
1/2+x,y,1/2-z
1/4-y,1/4+x,3/4-z
1/2-x,1/2+y,z
x,1/2-y,1/2+z
3/4-y,1/4-x,1/4+z
1/4+y,1/4+x,1/4+z
loop_
_atom_site_type_symbol
_atom_site_label
_atom_site_fract_x
_atom_site_fract_y
_atom_site_fract_z
Si Si1 0.665316 0.363851 0.627002
Si Si2 0.150108 0.647464 0.249997
Si Si3 0.915396 0.111441 0.685549
Si Si4 0.713778 0.427164 0.739001
Si Si5 0.926220 0.720525 0.214443
Si Si6 0.290775 0.305453 0.938476
O O1 0.631527 0.385933 0.565867
O O2 0.677838 0.422965 0.675175
O O3 0.616220 0.309638 0.659681
O O4 0.739137 0.333972 0.610025
O O5 0.230256 0.632856 0.259234
O O6 0.121804 0.724054 0.247164
O O7 0.105799 0.604417 0.297724
O O8 0.899731 0.149731 0.625000
O O9 0.845103 0.080653 0.711900
O O10 0.940133 0.161070 0.738134
O O11 0.978051 0.060966 0.674051
O O12 0.749791 0.500000 0.750000
O O13 0.000000 0.750000 0.197530
O O14 0.250000 0.303273 0.000000
#
# Coordination Sequence:
#
# PCOD9573941 Si02
#       6
#    32  32  32  32  32  32
#     4  10  26  42  72 101 137 181 228 290 346 404
#     4  11  25  43  72 101 139 179 236 287 341 418
#     4  11  26  43  68 100 143 184 224 286 349 415
#     4  11  26  45  69 103 140 179 235 284 349 422
#     4  11  25  46  68 104 136 180 241 281 342 412
#     4  10  22  46  67  99 138 183 226 279 347 417
#
# _framework density 22.249927
#
# number of rings (size 3 to 8) (size 9 to 14) (size 15 to 20)
#    0.000    1.333    1.667    2.000    9.333    5.000 
#    0.000    0.000    0.000    0.000    0.000    0.000 
#    0.000    0.000    0.000    0.000    0.000    0.000 
#
# Total GULP energy -537098.991955 kJ/mol
# GULP energy per Si atom -5594.781166 kJ/mol
# Density = 2.219928 g / cm^3
# Si number density = 22.249927 Si / 1000 Ang^3
#
#
#
# Elastic Constant Matrix: (Units=GPa)
#
#
# Indices 1 2 3 4 5 6 
#
# 1 60.0398 -1.2733 10.9568 0.0000 0.0000 0.0000
# 2 -1.2733 60.0398 10.9568 0.0000 0.0000 0.0000
# 3 10.9568 10.9568 94.8062 0.0000 0.0000 0.0000
# 4 0.0000 0.0000 0.0000 -34.2436 0.0000 0.0000
# 5 0.0000 0.0000 0.0000 0.0000 -34.2436 0.0000
# 6 0.0000 0.0000 0.0000 0.0000 0.0000 46.0529
#
#
#
# Elastic Compliance Matrix: (Units=1/GPa)
#
#
# Indices 1 2 3 4 5 6 
#
# 1 0.017046 0.000737 -0.002055 0.000000 0.000000 0.000000
# 2 0.000737 0.017046 -0.002055 0.000000 0.000000 0.000000
# 3 -0.002055 -0.002055 0.011023 0.000000 0.000000 0.000000
# 4 0.000000 0.000000 0.000000 -0.029203 0.000000 0.000000
# 5 0.000000 0.000000 0.000000 0.000000 -0.029203 0.000000
# 6 0.000000 0.000000 0.000000 0.000000 0.000000 0.021714
#
#
# Mechanical properties :
#
#
# Convention : Reuss Voigt Hill
#
# Bulk Modulus (GPa) = 26.06345 28.46292 27.26319
# Shear Modulus (GPa) = 178.81787 8.46283 93.64035
#
# Velocity S-wave (km/s) = 8.97454 1.95238 6.49439
# Velocity P-wave (km/s) = 10.91463 4.23114 8.27743
#
# Compressibility (1/GPa) = 0.03836790
#
# Stress axis : x y z
#
# Youngs Moduli (GPa) = 58.66381 58.66380 90.72054
#
# Poissons Ratio (x) = -0.04321 0.18645
# Poissons Ratio (y) = -0.04321 0.18645
# Poissons Ratio (z) = 0.12056 0.12056
#
# Static dielectric constant tensor:
#      x y z
#    x 1.834960 0.000000 0.000000 
#    y 0.000000 1.834960 0.000000 
#    z 0.000000 0.000000 1.772590 
# 
# From -- ./inp_files/10402.got.cif
#   From: 2010.05.17/outbox.cif.g08.bks.cpg/sg142_6_cif.got.tgz:10402.got - 2010.05.20 13:39:18.
