data_PCOD9573003
_publ_section_title
;
Structure prediction by ZEFSAII (Michael W. Deem and Ramdas Pophale) SiO2 
 PCOD9573003
Probable space group: I 41/A M D
;
_chemical_formula_sum "Si O2"
_cell_formula_units_Z 160
_cell_length_a 20.593695
_cell_length_b 20.593695
_cell_length_c 17.495198
_cell_angle_alpha 90.000000
_cell_angle_beta 90.000000
_cell_angle_gamma 90.000000
_cell_volume 7419.718261
_symmetry_space_group_name_H-M "I 41/A M D"
_symmetry_group_IT_number 141
_space_group.IT_coordinate_system_code '2'
_symmetry_cell_setting 'tetragonal'
loop_
_space_group_symop_operation_xyz
x,y,z
1/4-y,3/4+x,1/4+z
-x,1/2-y,z
1/4+y,1/4-x,3/4+z
x,-y,-z
-x,1/2+y,-z
1/4+y,3/4+x,1/4-z
1/4-y,1/4-x,3/4-z
-x,-y,-z
3/4+y,1/4-x,3/4-z
x,1/2+y,-z
3/4-y,3/4+x,1/4-z
-x,y,z
x,1/2-y,z
3/4-y,1/4-x,3/4+z
3/4+y,3/4+x,1/4+z
1/2+x,1/2+y,1/2+z
3/4-y,1/4+x,3/4+z
1/2-x,-y,1/2+z
3/4+y,3/4-x,1/4+z
1/2+x,1/2-y,1/2-z
1/2-x,y,1/2-z
3/4+y,1/4+x,3/4-z
3/4-y,3/4-x,1/4-z
1/2-x,1/2-y,1/2-z
1/4+y,3/4-x,1/4-z
1/2+x,y,1/2-z
1/4-y,1/4+x,3/4-z
1/2-x,1/2+y,1/2+z
1/2+x,-y,1/2+z
1/4-y,3/4-x,1/4+z
1/4+y,1/4+x,3/4+z
loop_
_atom_site_type_symbol
_atom_site_label
_atom_site_fract_x
_atom_site_fract_y
_atom_site_fract_z
Si Si1 0.798677 0.355838 0.347643
Si Si2 0.605666 0.397628 0.939774
Si Si3 0.428846 0.826552 0.211202
Si Si4 0.927905 0.522853 0.759082
Si Si5 0.837208 0.573853 0.033869
O O1 0.824797 0.425204 0.375000
O O2 0.844436 0.331896 0.277993
O O3 0.723756 0.363251 0.326726
O O4 0.801113 0.314945 0.424145
O O5 0.569054 0.365081 0.869467
O O6 0.671441 0.355877 0.941443
O O7 0.500000 0.838768 0.249137
O O8 0.424056 0.750000 0.196272
O O9 0.365771 0.849658 0.258792
O O10 0.873207 0.467820 0.752905
O O11 0.000000 0.503221 0.786366
O O12 0.825272 0.575272 0.125000
O O13 0.835919 0.500000 0.000000
#
# Coordination Sequence:
#
# PCOD9573003 Si02
#       5
#    32  32  32  32  32
#     4   9  20  34  61  96 137 176 213 273 342 414
#     4  10  20  36  62  95 132 172 221 273 336 407
#     4  11  25  46  69  95 134 185 237 288 349 422
#     4  11  23  39  63  96 135 177 224 280 343 424
#     4  12  28  44  70 100 134 177 225 292 357 424
#
# _framework density 21.564160999999999
#
# number of rings (size 3 to 8) (size 9 to 14) (size 15 to 20)
#    0.000    1.400    2.000    2.400    5.600    2.800 
#    0.000    3.000    0.000    0.000    0.000    9.800 
#    0.000    0.000    0.000    0.000    0.000    0.000 
#
# Total GULP energy -445404.135452 kJ/mol
# GULP energy per Si atom -5567.551693 kJ/mol
# Density = 2.151508 g / cm^3
# Si number density = 21.564161 Si / 1000 Ang^3
#
#
#
# Elastic Constant Matrix: (Units=GPa)
#
#
# Indices 1 2 3 4 5 6 
#
# 1 133.6760 59.1821 20.1527 0.0000 0.0000 0.0000
# 2 59.1821 133.6641 20.1441 0.0000 0.0000 0.0000
# 3 20.1527 20.1441 93.6360 0.0000 0.0000 0.0000
# 4 0.0000 0.0000 0.0000 19.0646 0.0000 0.0000
# 5 0.0000 0.0000 0.0000 0.0000 19.0675 0.0000
# 6 0.0000 0.0000 0.0000 0.0000 0.0000 11.7340
#
#
#
# Elastic Compliance Matrix: (Units=1/GPa)
#
#
# Indices 1 2 3 4 5 6 
#
# 1 0.009427 -0.003998 -0.001169 0.000000 0.000000 0.000000
# 2 -0.003998 0.009428 -0.001168 0.000000 0.000000 0.000000
# 3 -0.001169 -0.001168 0.011182 0.000000 0.000000 0.000000
# 4 0.000000 0.000000 0.000000 0.052453 0.000000 0.000000
# 5 0.000000 0.000000 0.000000 0.000000 0.052445 0.000000
# 6 0.000000 0.000000 0.000000 0.000000 0.000000 0.085222
#
#
# Mechanical properties :
#
#
# Convention : Reuss Voigt Hill
#
# Bulk Modulus (GPa) = 57.57674 62.21489 59.89581
# Shear Modulus (GPa) = 20.95419 27.40637 24.18028
#
# Velocity S-wave (km/s) = 3.12061 3.56887 3.35224
# Velocity P-wave (km/s) = 6.30416 6.77467 6.54364
#
# Compressibility (1/GPa) = 0.01736813
#
# Stress axis : x y z
#
# Youngs Moduli (GPa) = 106.07926 106.07252 89.42597
#
# Poissons Ratio (x) = 0.42405 0.10453
# Poissons Ratio (y) = 0.42408 0.10443
# Poissons Ratio (z) = 0.12399 0.12387
#
# Static dielectric constant tensor:
#      x y z
#    x 1.814790 0.000000 0.000000 
#    y 0.000000 1.814810 0.000000 
#    z 0.000000 0.000000 1.878260 
# 
# From -- ./inp_files/8623.got.cif
#   From: 2010.05.17/outbox.cif.g08.bks.cpg/sg141_5_cif.got.tgz:8623.got - 2010.05.20 13:30:51.
