data_PCOD9573871
_publ_section_title
;
Structure prediction by ZEFSAII (Michael W. Deem and Ramdas Pophale) SiO2 
 PCOD9573871
Probable space group: I 41/A C D
;
_chemical_formula_sum "Si O2"
_cell_formula_units_Z 120
_cell_length_a 24.261503
_cell_length_b 24.261503
_cell_length_c 9.681071
_cell_angle_alpha 90.000000
_cell_angle_beta 90.000000
_cell_angle_gamma 90.000000
_cell_volume 5698.477122
_symmetry_space_group_name_H-M "I 41/A C D"
_symmetry_group_IT_number 142
_space_group.IT_coordinate_system_code '2'
_symmetry_cell_setting 'tetragonal'
loop_
_space_group_symop_operation_xyz
x,y,z
1/4-y,3/4+x,1/4+z
-x,1/2-y,z
1/4+y,1/4-x,3/4+z
x,-y,1/2-z
1/2-x,y,-z
3/4+y,1/4+x,1/4-z
1/4-y,1/4-x,1/4-z
-x,-y,-z
3/4+y,1/4-x,3/4-z
x,1/2+y,-z
3/4-y,3/4+x,1/4-z
-x,y,1/2+z
1/2+x,-y,z
1/4-y,3/4-x,3/4+z
3/4+y,3/4+x,3/4+z
1/2+x,1/2+y,1/2+z
3/4-y,1/4+x,3/4+z
1/2-x,-y,1/2+z
3/4+y,3/4-x,1/4+z
1/2+x,1/2-y,-z
-x,1/2+y,1/2-z
1/4+y,3/4+x,3/4-z
3/4-y,3/4-x,3/4-z
1/2-x,1/2-y,1/2-z
1/4+y,3/4-x,1/4-z
1/2+x,y,1/2-z
1/4-y,1/4+x,3/4-z
1/2-x,1/2+y,z
x,1/2-y,1/2+z
3/4-y,1/4-x,1/4+z
1/4+y,1/4+x,1/4+z
loop_
_atom_site_type_symbol
_atom_site_label
_atom_site_fract_x
_atom_site_fract_y
_atom_site_fract_z
Si Si1 0.125955 0.000000 0.250000
Si Si2 0.700548 0.709178 0.718787
Si Si3 0.131355 0.118456 0.288735
Si Si4 0.892316 0.292998 0.735553
Si Si5 0.000000 0.250000 0.875000
O O1 0.085010 0.976876 0.365720
O O2 0.156222 0.943678 0.204237
O O3 0.750000 0.750000 0.750000
O O4 0.671707 0.668595 0.831136
O O5 0.651864 0.750621 0.674915
O O6 0.076796 0.119505 0.382169
O O7 0.119794 0.130206 0.125000
O O8 0.912860 0.337141 0.625000
O O9 0.945614 0.259041 0.784721
#
# Coordination Sequence:
#
# PCOD9573871 Si02
#       5
#    16  32  32  32   8
#     4  10  22  40  64  92 130 178 226 266 326 408
#     4  11  23  40  68  97 132 174 224 278 332 408
#     4  10  23  41  63  92 130 172 225 267 333 406
#     4  12  26  39  63  97 136 172 219 281 344 405
#     4  12  26  40  60  94 142 180 212 270 350 432
#
# _framework density 21.058257999999999
#
# number of rings (size 3 to 8) (size 9 to 14) (size 15 to 20)
#    0.000    1.067    5.333    0.400   11.200    0.000 
#    0.000    0.000    0.000    4.800    0.000    0.000 
#    0.000    0.000    0.000    0.000    0.000    0.000 
#
# Total GULP energy -334371.324883 kJ/mol
# GULP energy per Si atom -5572.855415 kJ/mol
# Density = 2.101033 g / cm^3
# Si number density = 21.058258 Si / 1000 Ang^3
#
#
#
# Elastic Constant Matrix: (Units=GPa)
#
#
# Indices 1 2 3 4 5 6 
#
# 1 123.1134 35.6510 2.7826 0.0000 0.0000 0.0000
# 2 35.6510 123.1110 2.7828 0.0000 0.0000 0.0000
# 3 2.7826 2.7828 45.9034 0.0000 0.0000 0.0000
# 4 0.0000 0.0000 0.0000 7.6484 0.0000 0.0000
# 5 0.0000 0.0000 0.0000 0.0000 7.6514 0.0000
# 6 0.0000 0.0000 0.0000 0.0000 0.0000 45.5585
#
#
#
# Elastic Compliance Matrix: (Units=1/GPa)
#
#
# Indices 1 2 3 4 5 6 
#
# 1 0.008873 -0.002561 -0.000383 0.000000 0.000000 0.000000
# 2 -0.002561 0.008873 -0.000383 0.000000 0.000000 0.000000
# 3 -0.000383 -0.000383 0.021831 0.000000 0.000000 0.000000
# 4 0.000000 0.000000 0.000000 0.130746 0.000000 0.000000
# 5 0.000000 0.000000 0.000000 0.000000 0.130694 0.000000
# 6 0.000000 0.000000 0.000000 0.000000 0.000000 0.021950
#
#
# Mechanical properties :
#
#
# Convention : Reuss Voigt Hill
#
# Bulk Modulus (GPa) = 30.37214 41.61783 35.99498
# Shear Modulus (GPa) = 14.68022 28.89910 21.78966
#
# Velocity S-wave (km/s) = 2.64318 3.70853 3.22022
# Velocity P-wave (km/s) = 4.87539 6.17606 5.56386
#
# Compressibility (1/GPa) = 0.03292491
#
# Stress axis : x y z
#
# Youngs Moduli (GPa) = 112.70416 112.70199 45.80585
#
# Poissons Ratio (x) = 0.28860 0.01753
# Poissons Ratio (y) = 0.28861 0.01753
# Poissons Ratio (z) = 0.04312 0.04313
#
# Static dielectric constant tensor:
#      x y z
#    x 1.849310 0.000000 0.000000 
#    y 0.000000 1.849290 0.000000 
#    z 0.000000 0.000000 1.838040 
# 
# From -- ./inp_files/3519.got.cif
#   From: 2010.05.17/outbox.cif.g08.bks.cpg/sg142_2_cif.got.tgz:3519.got - 2010.05.20 13:39:18.
