data_PCOD9573519
_publ_section_title
;
Structure prediction by ZEFSAII (Michael W. Deem and Ramdas Pophale) SiO2 
 PCOD9573519
Probable space group: I 41/A C D
;
_chemical_formula_sum "Si O2"
_cell_formula_units_Z 240
_cell_length_a 25.586917
_cell_length_b 25.586917
_cell_length_c 17.483996
_cell_angle_alpha 90.000000
_cell_angle_beta 90.000000
_cell_angle_gamma 90.000000
_cell_volume 11446.602963
_symmetry_space_group_name_H-M "I 41/A C D"
_symmetry_group_IT_number 142
_space_group.IT_coordinate_system_code '2'
_symmetry_cell_setting 'tetragonal'
loop_
_space_group_symop_operation_xyz
x,y,z
1/4-y,3/4+x,1/4+z
-x,1/2-y,z
1/4+y,1/4-x,3/4+z
x,-y,1/2-z
1/2-x,y,-z
3/4+y,1/4+x,1/4-z
1/4-y,1/4-x,1/4-z
-x,-y,-z
3/4+y,1/4-x,3/4-z
x,1/2+y,-z
3/4-y,3/4+x,1/4-z
-x,y,1/2+z
1/2+x,-y,z
1/4-y,3/4-x,3/4+z
3/4+y,3/4+x,3/4+z
1/2+x,1/2+y,1/2+z
3/4-y,1/4+x,3/4+z
1/2-x,-y,1/2+z
3/4+y,3/4-x,1/4+z
1/2+x,1/2-y,-z
-x,1/2+y,1/2-z
1/4+y,3/4+x,3/4-z
3/4-y,3/4-x,3/4-z
1/2-x,1/2-y,1/2-z
1/4+y,3/4-x,1/4-z
1/2+x,y,1/2-z
1/4-y,1/4+x,3/4-z
1/2-x,1/2+y,z
x,1/2-y,1/2+z
3/4-y,1/4-x,1/4+z
1/4+y,1/4+x,1/4+z
loop_
_atom_site_type_symbol
_atom_site_label
_atom_site_fract_x
_atom_site_fract_y
_atom_site_fract_z
Si Si1 0.582668 0.445387 0.294817
Si Si2 0.660827 0.689064 0.369594
Si Si3 0.113254 0.416046 0.365771
Si Si4 0.969018 0.440342 0.223228
Si Si5 0.219715 0.056510 0.269800
Si Si6 0.103507 0.968665 0.398516
Si Si7 0.305218 0.224874 0.726027
Si Si8 0.186208 0.063793 0.625000
O O1 0.579913 0.500000 0.250000
O O2 0.609729 0.413743 0.225829
O O3 0.524061 0.429892 0.319504
O O4 0.625007 0.446135 0.361304
O O5 0.618645 0.644740 0.382929
O O6 0.659106 0.720487 0.448571
O O7 0.720037 0.664003 0.360731
O O8 0.657098 0.727905 0.297731
O O9 0.162595 0.441918 0.410148
O O10 0.062819 0.444759 0.401641
O O11 0.972605 0.500000 0.250000
O O12 0.913185 0.439692 0.179883
O O13 0.218975 0.091817 0.193320
O O14 0.278161 0.047919 0.302891
O O15 0.196236 0.000000 0.250000
O O16 0.065385 0.936616 0.455923
O O17 0.250000 0.250000 0.750000
#
# Coordination Sequence:
#
# PCOD9573519 Si02
#       8
#    32  32  32  32  32  32  32  16
#     4  11  21  37  59  84 122 158 218 269 318 374
#     4  10  19  35  58  85 118 152 207 268 327 386
#     4  11  22  39  60  89 120 169 213 266 325 395
#     4   9  19  35  59  85 112 153 206 279 324 363
#     4  11  25  40  53  80 130 180 217 245 309 400
#     4   9  20  36  59  83 114 165 217 266 315 368
#     4   9  19  37  60  86 118 160 217 272 319 381
#     4  12  24  36  54  82 122 182 209 252 320 401
#
# _framework density 20.966918
#
# number of rings (size 3 to 8) (size 9 to 14) (size 15 to 20)
#    0.000    1.867    2.667    1.200    3.733    3.733 
#    0.000    2.000    0.000    0.400    0.000    0.000 
#    0.000    0.000    0.000    0.000    0.000    0.000 
#
# Total GULP energy -668141.707710 kJ/mol
# GULP energy per Si atom -5567.847564 kJ/mol
# Density = 2.091920 g / cm^3
# Si number density = 20.966918 Si / 1000 Ang^3
#
#
#
# Elastic Constant Matrix: (Units=GPa)
#
#
# Indices 1 2 3 4 5 6 
#
# 1 82.6618 16.4067 22.1421 0.0000 0.0000 0.0000
# 2 16.4067 82.6626 22.1411 0.0000 0.0000 0.0000
# 3 22.1421 22.1411 63.3043 0.0000 0.0000 0.0000
# 4 0.0000 0.0000 0.0000 22.7711 0.0000 0.0000
# 5 0.0000 0.0000 0.0000 0.0000 22.7708 0.0000
# 6 0.0000 0.0000 0.0000 0.0000 0.0000 11.6120
#
#
#
# Elastic Compliance Matrix: (Units=1/GPa)
#
#
# Indices 1 2 3 4 5 6 
#
# 1 0.013529 -0.001564 -0.004185 0.000000 0.000000 0.000000
# 2 -0.001564 0.013529 -0.004185 0.000000 0.000000 0.000000
# 3 -0.004185 -0.004185 0.018724 0.000000 0.000000 0.000000
# 4 0.000000 0.000000 0.000000 0.043915 0.000000 0.000000
# 5 0.000000 0.000000 0.000000 0.000000 0.043916 0.000000
# 6 0.000000 0.000000 0.000000 0.000000 0.000000 0.086118
#
#
# Mechanical properties :
#
#
# Convention : Reuss Voigt Hill
#
# Bulk Modulus (GPa) = 38.58905 38.88984 38.73944
# Shear Modulus (GPa) = 20.14209 22.62670 21.38439
#
# Velocity S-wave (km/s) = 3.10281 3.28862 3.19707
# Velocity P-wave (km/s) = 5.59297 5.74530 5.66965
#
# Compressibility (1/GPa) = 0.02591409
#
# Stress axis : x y z
#
# Youngs Moduli (GPa) = 73.91549 73.91706 53.40718
#
# Poissons Ratio (x) = 0.11563 0.22351
# Poissons Ratio (y) = 0.11562 0.22349
# Poissons Ratio (z) = 0.30933 0.30931
#
# Static dielectric constant tensor:
#      x y z
#    x 1.817370 0.000000 0.000000 
#    y 0.000000 1.817370 0.000000 
#    z 0.000000 0.000000 1.976580 
# 
# From -- ./inp_files/7826.got.cif
#   From: 2010.05.17/outbox.cif.g08.bks.cpg/sg142_4_cif.got.tgz:7826.got - 2010.05.20 13:39:18.
