data_PCOD9573980
_publ_section_title
;
Structure prediction by ZEFSAII (Michael W. Deem and Ramdas Pophale) SiO2 
 PCOD9573980
Probable space group: I 41/A C D
;
_chemical_formula_sum "Si O2"
_cell_formula_units_Z 160
_cell_length_a 20.179765
_cell_length_b 20.179765
_cell_length_c 18.249371
_cell_angle_alpha 90.000000
_cell_angle_beta 90.000000
_cell_angle_gamma 90.000000
_cell_volume 7431.562064
_symmetry_space_group_name_H-M "I 41/A C D"
_symmetry_group_IT_number 142
_space_group.IT_coordinate_system_code '2'
_symmetry_cell_setting 'tetragonal'
loop_
_space_group_symop_operation_xyz
x,y,z
1/4-y,3/4+x,1/4+z
-x,1/2-y,z
1/4+y,1/4-x,3/4+z
x,-y,1/2-z
1/2-x,y,-z
3/4+y,1/4+x,1/4-z
1/4-y,1/4-x,1/4-z
-x,-y,-z
3/4+y,1/4-x,3/4-z
x,1/2+y,-z
3/4-y,3/4+x,1/4-z
-x,y,1/2+z
1/2+x,-y,z
1/4-y,3/4-x,3/4+z
3/4+y,3/4+x,3/4+z
1/2+x,1/2+y,1/2+z
3/4-y,1/4+x,3/4+z
1/2-x,-y,1/2+z
3/4+y,3/4-x,1/4+z
1/2+x,1/2-y,-z
-x,1/2+y,1/2-z
1/4+y,3/4+x,3/4-z
3/4-y,3/4-x,3/4-z
1/2-x,1/2-y,1/2-z
1/4+y,3/4-x,1/4-z
1/2+x,y,1/2-z
1/4-y,1/4+x,3/4-z
1/2-x,1/2+y,z
x,1/2-y,1/2+z
3/4-y,1/4-x,1/4+z
1/4+y,1/4+x,1/4+z
loop_
_atom_site_type_symbol
_atom_site_label
_atom_site_fract_x
_atom_site_fract_y
_atom_site_fract_z
Si Si1 0.738959 0.880995 0.144164
Si Si2 0.297010 0.760541 0.072713
Si Si3 0.020229 0.174488 0.759684
Si Si4 0.566513 0.481314 0.043166
Si Si5 0.612621 0.851622 0.889476
O O1 0.692764 0.942764 0.125000
O O2 0.710134 0.813449 0.106894
O O3 0.740206 0.872435 0.232131
O O4 0.814383 0.881958 0.116521
O O5 0.272881 0.813530 0.132548
O O6 0.250000 0.764712 0.000000
O O7 0.373553 0.774271 0.056174
O O8 0.085212 0.168927 0.810098
O O9 0.000000 0.250000 0.743860
O O10 0.962676 0.142662 0.810372
O O11 0.567439 0.406304 0.071348
O O12 0.500000 0.500000 0.000000
#
# Coordination Sequence:
#
# PCOD9573980 Si02
#       5
#    32  32  32  32  32
#     4  11  25  43  71 104 139 189 250 303 371 451
#     4  11  21  43  72  99 140 195 241 299 378 447
#     4  12  23  38  72 111 144 192 251 304 372 447
#     4  10  23  42  73 100 140 186 243 304 371 434
#     4  12  21  42  75 103 140 190 253 307 364 447
#
# _framework density 21.529795
#
# number of rings (size 3 to 8) (size 9 to 14) (size 15 to 20)
#    0.000    0.800    6.000    2.400    0.000    0.000 
#    0.000    5.000    8.800    0.000    0.000    0.000 
#    0.000    0.000    0.000    0.000    0.000    0.000 
#
# Total GULP energy -447194.028611 kJ/mol
# GULP energy per Si atom -5589.925358 kJ/mol
# Density = 2.148079 g / cm^3
# Si number density = 21.529795 Si / 1000 Ang^3
#
#
#
# Elastic Constant Matrix: (Units=GPa)
#
#
# Indices 1 2 3 4 5 6 
#
# 1 114.9766 37.7996 47.0301 0.0000 0.0000 0.0000
# 2 37.7996 114.9766 47.0301 0.0000 0.0000 0.0000
# 3 47.0301 47.0301 112.6308 0.0000 0.0000 0.0000
# 4 0.0000 0.0000 0.0000 29.0517 0.0000 0.0000
# 5 0.0000 0.0000 0.0000 0.0000 29.0517 0.0000
# 6 0.0000 0.0000 0.0000 0.0000 0.0000 37.7579
#
#
#
# Elastic Compliance Matrix: (Units=1/GPa)
#
#
# Indices 1 2 3 4 5 6 
#
# 1 0.010884 -0.002073 -0.003679 0.000000 0.000000 0.000000
# 2 -0.002073 0.010884 -0.003679 0.000000 0.000000 0.000000
# 3 -0.003679 -0.003679 0.011951 0.000000 0.000000 0.000000
# 4 0.000000 0.000000 0.000000 0.034421 0.000000 0.000000
# 5 0.000000 0.000000 0.000000 0.000000 0.034421 0.000000
# 6 0.000000 0.000000 0.000000 0.000000 0.000000 0.026484
#
#
# Mechanical properties :
#
#
# Convention : Reuss Voigt Hill
#
# Bulk Modulus (GPa) = 67.31161 67.36707 67.33934
# Shear Modulus (GPa) = 32.70955 33.22053 32.96504
#
# Velocity S-wave (km/s) = 3.90201 3.93237 3.91722
# Velocity P-wave (km/s) = 7.18562 7.20945 7.19754
#
# Compressibility (1/GPa) = 0.01485628
#
# Stress axis : x y z
#
# Youngs Moduli (GPa) = 91.87898 91.87898 83.67563
#
# Poissons Ratio (x) = 0.19050 0.30784
# Poissons Ratio (y) = 0.19050 0.30784
# Poissons Ratio (z) = 0.33802 0.33802
#
# Static dielectric constant tensor:
#      x y z
#    x 1.792670 0.000000 0.000000 
#    y 0.000000 1.792670 0.000000 
#    z 0.000000 0.000000 1.821630 
# 
# From -- ./inp_files/7354.got.cif
#   From: 2010.05.17/outbox.cif.g08.bks.cpg/sg142_4_cif.got.tgz:7354.got - 2010.05.20 13:39:18.
