data_PCOD9573730
_publ_section_title
;
Structure prediction by ZEFSAII (Michael W. Deem and Ramdas Pophale) SiO2 
 PCOD9573730
Probable space group: I 41/A C D
;
_chemical_formula_sum "Si O2"
_cell_formula_units_Z 160
_cell_length_a 20.612057
_cell_length_b 20.612057
_cell_length_c 17.955077
_cell_angle_alpha 90.000000
_cell_angle_beta 90.000000
_cell_angle_gamma 90.000000
_cell_volume 7628.338242
_symmetry_space_group_name_H-M "I 41/A C D"
_symmetry_group_IT_number 142
_space_group.IT_coordinate_system_code '2'
_symmetry_cell_setting 'tetragonal'
loop_
_space_group_symop_operation_xyz
x,y,z
1/4-y,3/4+x,1/4+z
-x,1/2-y,z
1/4+y,1/4-x,3/4+z
x,-y,1/2-z
1/2-x,y,-z
3/4+y,1/4+x,1/4-z
1/4-y,1/4-x,1/4-z
-x,-y,-z
3/4+y,1/4-x,3/4-z
x,1/2+y,-z
3/4-y,3/4+x,1/4-z
-x,y,1/2+z
1/2+x,-y,z
1/4-y,3/4-x,3/4+z
3/4+y,3/4+x,3/4+z
1/2+x,1/2+y,1/2+z
3/4-y,1/4+x,3/4+z
1/2-x,-y,1/2+z
3/4+y,3/4-x,1/4+z
1/2+x,1/2-y,-z
-x,1/2+y,1/2-z
1/4+y,3/4+x,3/4-z
3/4-y,3/4-x,3/4-z
1/2-x,1/2-y,1/2-z
1/4+y,3/4-x,1/4-z
1/2+x,y,1/2-z
1/4-y,1/4+x,3/4-z
1/2-x,1/2+y,z
x,1/2-y,1/2+z
3/4-y,1/4-x,1/4+z
1/4+y,1/4+x,1/4+z
loop_
_atom_site_type_symbol
_atom_site_label
_atom_site_fract_x
_atom_site_fract_y
_atom_site_fract_z
Si Si1 0.825072 0.268664 0.020115
Si Si2 0.495125 0.649185 0.376659
Si Si3 0.208165 0.364187 0.076137
Si Si4 0.710103 0.808635 0.287475
Si Si5 0.184401 0.911592 0.452095
O O1 0.838607 0.197107 0.053403
O O2 0.832552 0.335594 0.065300
O O3 0.750000 0.263238 0.000000
O O4 0.858978 0.282326 0.941561
O O5 0.441718 0.697204 0.407273
O O6 0.525222 0.606861 0.440765
O O7 0.168225 0.418225 0.125000
O O8 0.257480 0.332511 0.135620
O O9 0.250000 0.383880 0.000000
O O10 0.750000 0.750000 0.250000
O O11 0.696282 0.873173 0.240351
O O12 0.250000 0.912374 0.500000
O O13 0.197272 0.947272 0.375000
#
# Coordination Sequence:
#
# PCOD9573730 Si02
#       5
#    32  32  32  32  32
#     4  10  20  43  69  95 139 181 231 296 356 424
#     4  11  23  42  69 101 138 183 232 295 359 431
#     4  11  25  44  69 103 140 185 234 298 363 435
#     4  12  26  43  71 104 142 190 241 294 366 440
#     4  11  26  46  73 103 144 188 241 301 364 438
#
# _framework density 20.974423999999999
#
# number of rings (size 3 to 8) (size 9 to 14) (size 15 to 20)
#    0.000    1.000    6.000    1.200    5.600    3.200 
#    0.000    0.000    0.000    0.000    0.000    0.000 
#    0.000    0.000    0.000    0.000    0.000    0.000 
#
# Total GULP energy -445882.867271 kJ/mol
# GULP energy per Si atom -5573.535841 kJ/mol
# Density = 2.092669 g / cm^3
# Si number density = 20.974424 Si / 1000 Ang^3
#
#
#
# Elastic Constant Matrix: (Units=GPa)
#
#
# Indices 1 2 3 4 5 6 
#
# 1 85.4820 45.3318 37.2897 0.0000 0.0000 0.0000
# 2 45.3318 85.4820 37.2897 0.0000 0.0000 0.0000
# 3 37.2897 37.2897 108.5837 0.0000 0.0000 0.0000
# 4 0.0000 0.0000 0.0000 45.9344 0.0000 0.0000
# 5 0.0000 0.0000 0.0000 0.0000 45.9344 0.0000
# 6 0.0000 0.0000 0.0000 0.0000 0.0000 15.4217
#
#
#
# Elastic Compliance Matrix: (Units=1/GPa)
#
#
# Indices 1 2 3 4 5 6 
#
# 1 0.017206 -0.007700 -0.003264 0.000000 0.000000 0.000000
# 2 -0.007700 0.017206 -0.003264 0.000000 0.000000 0.000000
# 3 -0.003264 -0.003264 0.011452 0.000000 0.000000 0.000000
# 4 0.000000 0.000000 0.000000 0.021770 0.000000 0.000000
# 5 0.000000 0.000000 0.000000 0.000000 0.021770 0.000000
# 6 0.000000 0.000000 0.000000 0.000000 0.000000 0.064844
#
#
# Mechanical properties :
#
#
# Convention : Reuss Voigt Hill
#
# Bulk Modulus (GPa) = 57.45430 57.70779 57.58105
# Shear Modulus (GPa) = 26.52410 32.10055 29.31233
#
# Velocity S-wave (km/s) = 3.55997 3.91636 3.74241
# Velocity P-wave (km/s) = 6.65957 6.92991 6.79608
#
# Compressibility (1/GPa) = 0.01740514
#
# Stress axis : x y z
#
# Youngs Moduli (GPa) = 58.11917 58.11917 87.32421
#
# Poissons Ratio (x) = 0.44755 0.28506
# Poissons Ratio (y) = 0.44755 0.28506
# Poissons Ratio (z) = 0.18972 0.18972
#
# Static dielectric constant tensor:
#      x y z
#    x 1.866460 0.000000 0.000000 
#    y 0.000000 1.866460 0.000000 
#    z 0.000000 0.000000 1.259850 
# 
# From -- ./inp_files/7365.got.cif
#   From: 2010.05.17/outbox.cif.g08.bks.cpg/sg142_4_cif.got.tgz:7365.got - 2010.05.20 13:39:18.
