data_PCOD9573804
_publ_section_title
;
Structure prediction by ZEFSAII (Michael W. Deem and Ramdas Pophale) SiO2 
 PCOD9573804
Probable space group: I 41/A C D
;
_chemical_formula_sum "Si O2"
_cell_formula_units_Z 208
_cell_length_a 22.703115
_cell_length_b 22.703115
_cell_length_c 17.846496
_cell_angle_alpha 90.000000
_cell_angle_beta 90.000000
_cell_angle_gamma 90.000000
_cell_volume 9198.644966
_symmetry_space_group_name_H-M "I 41/A C D"
_symmetry_group_IT_number 142
_space_group.IT_coordinate_system_code '2'
_symmetry_cell_setting 'tetragonal'
loop_
_space_group_symop_operation_xyz
x,y,z
1/4-y,3/4+x,1/4+z
-x,1/2-y,z
1/4+y,1/4-x,3/4+z
x,-y,1/2-z
1/2-x,y,-z
3/4+y,1/4+x,1/4-z
1/4-y,1/4-x,1/4-z
-x,-y,-z
3/4+y,1/4-x,3/4-z
x,1/2+y,-z
3/4-y,3/4+x,1/4-z
-x,y,1/2+z
1/2+x,-y,z
1/4-y,3/4-x,3/4+z
3/4+y,3/4+x,3/4+z
1/2+x,1/2+y,1/2+z
3/4-y,1/4+x,3/4+z
1/2-x,-y,1/2+z
3/4+y,3/4-x,1/4+z
1/2+x,1/2-y,-z
-x,1/2+y,1/2-z
1/4+y,3/4+x,3/4-z
3/4-y,3/4-x,3/4-z
1/2-x,1/2-y,1/2-z
1/4+y,3/4-x,1/4-z
1/2+x,y,1/2-z
1/4-y,1/4+x,3/4-z
1/2-x,1/2+y,z
x,1/2-y,1/2+z
3/4-y,1/4-x,1/4+z
1/4+y,1/4+x,1/4+z
loop_
_atom_site_type_symbol
_atom_site_label
_atom_site_fract_x
_atom_site_fract_y
_atom_site_fract_z
Si Si1 0.916683 0.269378 0.414025
Si Si2 0.318266 0.169561 0.723666
Si Si3 0.089015 0.536541 0.854480
Si Si4 0.710281 0.000000 0.750000
Si Si5 0.967878 0.472042 0.828700
Si Si6 0.436005 0.330167 0.294119
Si Si7 0.803421 0.059084 0.400413
O O1 0.931129 0.212541 0.361524
O O2 0.769444 0.307428 0.336206
O O3 0.848551 0.285876 0.418463
O O4 0.291051 0.161828 0.805540
O O5 0.381034 0.198089 0.748166
O O6 0.339877 0.108975 0.686293
O O7 0.034619 0.495488 0.831658
O O8 0.079710 0.600545 0.815633
O O9 0.150685 0.504197 0.839516
O O10 0.681995 0.040200 0.684960
O O11 0.751316 0.042177 0.800117
O O12 0.943609 0.500000 0.750000
O O13 0.006265 0.322474 0.754018
O O14 0.445928 0.304073 0.375000
#
# Coordination Sequence:
#
# PCOD9573804 Si02
#       7
#    32  32  32  16  32  32  32
#     4  11  23  44  68  96 129 174 228 283 341 396
#     4  11  23  40  61  94 131 169 216 270 332 393
#     4  11  23  39  66  94 131 168 219 277 325 397
#     4  10  22  34  58  90 128 160 216 252 324 382
#     4  12  25  41  67  95 131 172 219 272 339 409
#     4  10  21  40  68  97 128 167 222 277 334 402
#     4  11  21  38  59  92 126 171 210 266 322 386
#
# _framework density 22.612027000000001
#
# number of rings (size 3 to 8) (size 9 to 14) (size 15 to 20)
#    0.000    1.077    4.615    2.308    6.462    0.000 
#    0.000    1.538    0.000    0.000    0.000    0.000 
#    0.000    0.000    0.000    0.000    0.000    0.000 
#
# Total GULP energy -579731.415393 kJ/mol
# GULP energy per Si atom -5574.340533 kJ/mol
# Density = 2.256056 g / cm^3
# Si number density = 22.612027 Si / 1000 Ang^3
#
#
#
# Elastic Constant Matrix: (Units=GPa)
#
#
# Indices 1 2 3 4 5 6 
#
# 1 63.8671 14.7680 43.5671 0.0000 0.0000 0.0000
# 2 14.7680 63.8672 43.5670 0.0000 0.0000 0.0000
# 3 43.5671 43.5670 199.5385 0.0000 0.0000 0.0000
# 4 0.0000 0.0000 0.0000 37.4270 0.0000 0.0000
# 5 0.0000 0.0000 0.0000 0.0000 37.4273 0.0000
# 6 0.0000 0.0000 0.0000 0.0000 0.0000 28.0626
#
#
#
# Elastic Compliance Matrix: (Units=1/GPa)
#
#
# Indices 1 2 3 4 5 6 
#
# 1 0.018571 -0.001796 -0.003663 0.000000 0.000000 0.000000
# 2 -0.001796 0.018571 -0.003663 0.000000 0.000000 0.000000
# 3 -0.003663 -0.003663 0.006611 0.000000 0.000000 0.000000
# 4 0.000000 0.000000 0.000000 0.026719 0.000000 0.000000
# 5 0.000000 0.000000 0.000000 0.000000 0.026718 0.000000
# 6 0.000000 0.000000 0.000000 0.000000 0.000000 0.035635
#
#
# Mechanical properties :
#
#
# Convention : Reuss Voigt Hill
#
# Bulk Modulus (GPa) = 39.19857 59.00856 49.10357
# Shear Modulus (GPa) = 31.33392 35.60810 33.47101
#
# Velocity S-wave (km/s) = 3.72656 3.97261 3.85155
# Velocity P-wave (km/s) = 5.99077 6.86985 6.44531
#
# Compressibility (1/GPa) = 0.02551113
#
# Stress axis : x y z
#
# Youngs Moduli (GPa) = 53.84651 53.84664 151.26268
#
# Poissons Ratio (x) = 0.09669 0.55404
# Poissons Ratio (y) = 0.09669 0.55404
# Poissons Ratio (z) = 0.19723 0.19723
#
# Static dielectric constant tensor:
#      x y z
#    x 1.887670 0.000000 0.000000 
#    y 0.000000 1.887670 0.000000 
#    z 0.000000 0.000000 1.940760 
# 
# From -- ./inp_files/7801.got.cif
#   From: 2010.05.17/outbox.cif.g08.bks.cpg/sg142_4_cif.got.tgz:7801.got - 2010.05.20 13:39:18.
