data_PCOD9573079
_publ_section_title
;
Structure prediction by ZEFSAII (Michael W. Deem and Ramdas Pophale) SiO2 
 PCOD9573079
Probable space group: I 41/A M D
;
_chemical_formula_sum "Si O2"
_cell_formula_units_Z 84
_cell_length_a 10.314873
_cell_length_b 10.314873
_cell_length_c 37.683570
_cell_angle_alpha 90.000000
_cell_angle_beta 90.000000
_cell_angle_gamma 90.000000
_cell_volume 4009.403913
_symmetry_space_group_name_H-M "I 41/A M D"
_symmetry_group_IT_number 141
_space_group.IT_coordinate_system_code '2'
_symmetry_cell_setting 'tetragonal'
loop_
_space_group_symop_operation_xyz
x,y,z
1/4-y,3/4+x,1/4+z
-x,1/2-y,z
1/4+y,1/4-x,3/4+z
x,-y,-z
-x,1/2+y,-z
1/4+y,3/4+x,1/4-z
1/4-y,1/4-x,3/4-z
-x,-y,-z
3/4+y,1/4-x,3/4-z
x,1/2+y,-z
3/4-y,3/4+x,1/4-z
-x,y,z
x,1/2-y,z
3/4-y,1/4-x,3/4+z
3/4+y,3/4+x,1/4+z
1/2+x,1/2+y,1/2+z
3/4-y,1/4+x,3/4+z
1/2-x,-y,1/2+z
3/4+y,3/4-x,1/4+z
1/2+x,1/2-y,1/2-z
1/2-x,y,1/2-z
3/4+y,1/4+x,3/4-z
3/4-y,3/4-x,1/4-z
1/2-x,1/2-y,1/2-z
1/4+y,3/4-x,1/4-z
1/2+x,y,1/2-z
1/4-y,1/4+x,3/4-z
1/2-x,1/2+y,1/2+z
1/2+x,-y,1/2+z
1/4-y,3/4-x,1/4+z
1/4+y,1/4+x,3/4+z
loop_
_atom_site_type_symbol
_atom_site_label
_atom_site_fract_x
_atom_site_fract_y
_atom_site_fract_z
Si Si1 0.858016 0.403892 0.610232
Si Si2 0.354501 0.250000 0.696664
Si Si3 0.654280 0.031766 0.280293
Si Si4 0.500000 0.250000 0.625000
O O1 0.746284 0.496284 0.625000
O O2 0.842338 0.250000 0.617378
O O3 0.854207 0.414396 0.567626
O O4 0.000000 0.442805 0.623928
O O5 0.500000 0.250000 0.712306
O O6 0.298320 0.384877 0.709693
O O7 0.385574 0.250000 0.654282
O O8 0.500000 0.032087 0.270625
O O9 0.750000 0.081121 0.250000
#
# Coordination Sequence:
#
# PCOD9573079 Si02
#       4
#    32  16  32   4
#     4  10  24  43  66  97 129 167 220 274 328 394
#     4   8  17  29  53  85 115 157 211 253 313 371
#     4  10  21  36  58  86 126 166 211 261 317 390
#     4   8  16  28  56  84 112 164 220 252 320 396
#
# _framework density 20.950745999999999
#
# number of rings (size 3 to 8) (size 9 to 14) (size 15 to 20)
#    0.571    1.905    0.000    0.571    5.333    3.048 
#    0.000    0.000    0.000    0.000    0.000    0.000 
#    0.000    0.000    0.000    0.000    0.000    0.000 
#
# Total GULP energy -233966.079423 kJ/mol
# GULP energy per Si atom -5570.620939 kJ/mol
# Density = 2.090306 g / cm^3
# Si number density = 20.950746 Si / 1000 Ang^3
#
#
#
# Elastic Constant Matrix: (Units=GPa)
#
#
# Indices 1 2 3 4 5 6 
#
# 1 124.0334 55.5628 40.7819 0.0000 0.0000 0.0000
# 2 55.5628 124.0334 40.7819 0.0000 0.0000 0.0000
# 3 40.7819 40.7819 77.1893 0.0000 0.0000 0.0000
# 4 0.0000 0.0000 0.0000 -2.4555 0.0000 0.0000
# 5 0.0000 0.0000 0.0000 0.0000 -2.4555 0.0000
# 6 0.0000 0.0000 0.0000 0.0000 0.0000 15.9738
#
#
#
# Elastic Compliance Matrix: (Units=1/GPa)
#
#
# Indices 1 2 3 4 5 6 
#
# 1 0.010965 -0.003639 -0.003871 0.000000 0.000000 0.000000
# 2 -0.003639 0.010965 -0.003871 0.000000 0.000000 0.000000
# 3 -0.003871 -0.003871 0.017045 0.000000 0.000000 0.000000
# 4 0.000000 0.000000 0.000000 -0.407248 0.000000 0.000000
# 5 0.000000 0.000000 0.000000 0.000000 -0.407248 0.000000
# 6 0.000000 0.000000 0.000000 0.000000 0.000000 0.062602
#
#
# Mechanical properties :
#
#
# Convention : Reuss Voigt Hill
#
# Bulk Modulus (GPa) = 61.67253 66.61216 64.14235
# Shear Modulus (GPa) = -7.30192 14.75452 3.72630
#
# Velocity S-wave (km/s) = -1.86892 2.65665 1.33509
# Velocity P-wave (km/s) = 4.98434 6.42449 5.74968
#
# Compressibility (1/GPa) = 0.01621467
#
# Stress axis : x y z
#
# Youngs Moduli (GPa) = 91.19651 91.19651 58.66812
#
# Poissons Ratio (x) = 0.33191 0.22708
# Poissons Ratio (y) = 0.33191 0.22708
# Poissons Ratio (z) = 0.35298 0.35298
#
# Static dielectric constant tensor:
#      x y z
#    x 1.802360 0.000000 0.000000 
#    y 0.000000 1.802360 0.000000 
#    z 0.000000 0.000000 1.746490 
# 
# From -- ./inp_files/13732.got.cif
#   From: 2010.05.17/outbox.cif.g08.bks.cpg/sg141_7_cif.got.tgz:13732.got - 2010.05.20 13:30:51.
