data_PCOD9573782
_publ_section_title
;
Structure prediction by ZEFSAII (Michael W. Deem and Ramdas Pophale) SiO2 
 PCOD9573782
Probable space group: I 41/A C D
;
_chemical_formula_sum "Si O2"
_cell_formula_units_Z 136
_cell_length_a 18.285849
_cell_length_b 18.285849
_cell_length_c 17.672333
_cell_angle_alpha 90.000000
_cell_angle_beta 90.000000
_cell_angle_gamma 90.000000
_cell_volume 5909.138166
_symmetry_space_group_name_H-M "I 41/A C D"
_symmetry_group_IT_number 142
_space_group.IT_coordinate_system_code '2'
_symmetry_cell_setting 'tetragonal'
loop_
_space_group_symop_operation_xyz
x,y,z
1/4-y,3/4+x,1/4+z
-x,1/2-y,z
1/4+y,1/4-x,3/4+z
x,-y,1/2-z
1/2-x,y,-z
3/4+y,1/4+x,1/4-z
1/4-y,1/4-x,1/4-z
-x,-y,-z
3/4+y,1/4-x,3/4-z
x,1/2+y,-z
3/4-y,3/4+x,1/4-z
-x,y,1/2+z
1/2+x,-y,z
1/4-y,3/4-x,3/4+z
3/4+y,3/4+x,3/4+z
1/2+x,1/2+y,1/2+z
3/4-y,1/4+x,3/4+z
1/2-x,-y,1/2+z
3/4+y,3/4-x,1/4+z
1/2+x,1/2-y,-z
-x,1/2+y,1/2-z
1/4+y,3/4+x,3/4-z
3/4-y,3/4-x,3/4-z
1/2-x,1/2-y,1/2-z
1/4+y,3/4-x,1/4-z
1/2+x,y,1/2-z
1/4-y,1/4+x,3/4-z
1/2-x,1/2+y,z
x,1/2-y,1/2+z
3/4-y,1/4-x,1/4+z
1/4+y,1/4+x,1/4+z
loop_
_atom_site_type_symbol
_atom_site_label
_atom_site_fract_x
_atom_site_fract_y
_atom_site_fract_z
Si Si1 0.745012 0.582654 0.811545
Si Si2 0.222154 0.229255 0.615325
Si Si3 0.545368 0.877678 0.774272
Si Si4 0.500000 0.750000 0.375000
Si Si5 0.204809 0.871563 0.665567
O O1 0.796275 0.546275 0.875000
O O2 0.766937 0.668050 0.821267
O O3 0.759561 0.570371 0.723534
O O4 0.663208 0.566726 0.838550
O O5 0.294308 0.214427 0.564617
O O6 0.149803 0.218957 0.563301
O O7 0.236914 0.309074 0.648285
O O8 0.495395 0.819038 0.817903
O O9 0.627648 0.851487 0.794420
#
# Coordination Sequence:
#
# PCOD9573782 Si02
#       5
#    32  32  32   8  32
#     4  11  22  41  70  95 136 181 236 285 360 436
#     4  10  21  41  67  99 138 177 231 291 352 426
#     4  10  21  38  68  99 134 183 234 284 350 428
#     4  12  20  40  68 106 136 192 246 292 360 436
#     4  11  22  42  68 100 132 186 231 289 355 430
#
# _framework density 23.015201000000001
#
# number of rings (size 3 to 8) (size 9 to 14) (size 15 to 20)
#    0.000    1.412    4.706    1.412    0.000    0.000 
#    8.471    0.000    0.000    7.059    0.000    0.000 
#    0.000    0.000    0.000    0.000    0.000    0.000 
#
# Total GULP energy -379382.525167 kJ/mol
# GULP energy per Si atom -5579.154782 kJ/mol
# Density = 2.296282 g / cm^3
# Si number density = 23.015201 Si / 1000 Ang^3
#
#
#
# Elastic Constant Matrix: (Units=GPa)
#
#
# Indices 1 2 3 4 5 6 
#
# 1 47.3005 42.0478 27.1779 0.0000 0.0000 0.0000
# 2 42.0478 47.3005 27.1779 0.0000 0.0000 0.0000
# 3 27.1779 27.1779 98.6767 0.0000 0.0000 0.0000
# 4 0.0000 0.0000 0.0000 97.3800 0.0000 0.0000
# 5 0.0000 0.0000 0.0000 0.0000 97.3800 0.0000
# 6 0.0000 0.0000 0.0000 0.0000 0.0000 22.0760
#
#
#
# Elastic Compliance Matrix: (Units=1/GPa)
#
#
# Indices 1 2 3 4 5 6 
#
# 1 0.101912 -0.088467 -0.003703 0.000000 0.000000 0.000000
# 2 -0.088467 0.101912 -0.003703 0.000000 0.000000 0.000000
# 3 -0.003703 -0.003703 0.012174 0.000000 0.000000 0.000000
# 4 0.000000 0.000000 0.000000 0.010269 0.000000 0.000000
# 5 0.000000 0.000000 0.000000 0.000000 0.010269 0.000000
# 6 0.000000 0.000000 0.000000 0.000000 0.000000 0.045298
#
#
# Mechanical properties :
#
#
# Convention : Reuss Voigt Hill
#
# Bulk Modulus (GPa) = 41.23445 42.89835 42.06640
# Shear Modulus (GPa) = 10.38065 49.82545 30.10305
#
# Velocity S-wave (km/s) = 2.12606 4.65789 3.62050
# Velocity P-wave (km/s) = 4.89713 6.89982 5.98287
#
# Compressibility (1/GPa) = 0.02425157
#
# Stress axis : x y z
#
# Youngs Moduli (GPa) = 9.81236 9.81236 82.14277
#
# Poissons Ratio (x) = 0.86807 0.30418
# Poissons Ratio (y) = 0.86807 0.30418
# Poissons Ratio (z) = 0.03634 0.03634
#
# Static dielectric constant tensor:
#      x y z
#    x 1.901880 0.000000 0.000000 
#    y 0.000000 1.901880 0.000000 
#    z 0.000000 0.000000 1.955000 
# 
# From -- ./inp_files/8823.got.cif
#   From: 2010.05.17/outbox.cif.g08.bks.cpg/sg142_5_cif.got.tgz:8823.got - 2010.05.20 13:39:18.
