data_PCOD9573998
_publ_section_title
;
Structure prediction by ZEFSAII (Michael W. Deem and Ramdas Pophale) SiO2 
 PCOD9573998
Probable space group: I 41/A C D
;
_chemical_formula_sum "Si O2"
_cell_formula_units_Z 144
_cell_length_a 29.846839
_cell_length_b 29.846839
_cell_length_c 7.937065
_cell_angle_alpha 90.000000
_cell_angle_beta 90.000000
_cell_angle_gamma 90.000000
_cell_volume 7070.605761
_symmetry_space_group_name_H-M "I 41/A C D"
_symmetry_group_IT_number 142
_space_group.IT_coordinate_system_code '2'
_symmetry_cell_setting 'tetragonal'
loop_
_space_group_symop_operation_xyz
x,y,z
1/4-y,3/4+x,1/4+z
-x,1/2-y,z
1/4+y,1/4-x,3/4+z
x,-y,1/2-z
1/2-x,y,-z
3/4+y,1/4+x,1/4-z
1/4-y,1/4-x,1/4-z
-x,-y,-z
3/4+y,1/4-x,3/4-z
x,1/2+y,-z
3/4-y,3/4+x,1/4-z
-x,y,1/2+z
1/2+x,-y,z
1/4-y,3/4-x,3/4+z
3/4+y,3/4+x,3/4+z
1/2+x,1/2+y,1/2+z
3/4-y,1/4+x,3/4+z
1/2-x,-y,1/2+z
3/4+y,3/4-x,1/4+z
1/2+x,1/2-y,-z
-x,1/2+y,1/2-z
1/4+y,3/4+x,3/4-z
3/4-y,3/4-x,3/4-z
1/2-x,1/2-y,1/2-z
1/4+y,3/4-x,1/4-z
1/2+x,y,1/2-z
1/4-y,1/4+x,3/4-z
1/2-x,1/2+y,z
x,1/2-y,1/2+z
3/4-y,1/4-x,1/4+z
1/4+y,1/4+x,1/4+z
loop_
_atom_site_type_symbol
_atom_site_label
_atom_site_fract_x
_atom_site_fract_y
_atom_site_fract_z
Si Si1 0.308092 0.058092 0.375000
Si Si2 0.994816 0.000000 0.250000
Si Si3 0.840654 0.457877 0.971757
Si Si4 0.040670 0.842407 0.511781
Si Si5 0.554637 0.054274 0.506608
Si Si6 0.447946 0.302055 0.875000
O O1 0.256958 0.069604 0.318682
O O2 0.317914 0.085631 0.543793
O O3 0.027734 0.021697 0.115592
O O4 0.961736 0.038833 0.310745
O O5 0.813279 0.436722 0.125000
O O6 0.892890 0.455077 0.015815
O O7 0.076607 0.826607 0.375000
O O8 0.037961 0.895298 0.484032
O O9 0.053890 0.833042 0.706837
O O10 0.996095 0.814283 0.459971
#
# Coordination Sequence:
#
# PCOD9573998 Si02
#       6
#    16  16  32  32  32  16
#     4  10  24  39  68 101 140 176 225 276 354 411
#     4  10  24  46  74  84 138 184 224 288 354 422
#     4  11  24  42  68 103 137 181 225 285 342 420
#     4  12  25  43  68 106 139 181 231 288 344 427
#     4  11  25  48  67 101 131 182 238 282 351 416
#     4  12  25  41  72 101 144 184 224 282 366 410
#
# _framework density 20.366005999999999
#
# number of rings (size 3 to 8) (size 9 to 14) (size 15 to 20)
#    0.000    0.889    2.222    4.333    9.333    0.889 
#    0.000    0.000    0.000    0.000    0.000    0.000 
#    0.000    0.000    0.000    0.000    0.000    0.000 
#
# Total GULP energy -401394.616058 kJ/mol
# GULP energy per Si atom -5574.925223 kJ/mol
# Density = 2.031965 g / cm^3
# Si number density = 20.366006 Si / 1000 Ang^3
#
#
#
# Elastic Constant Matrix: (Units=GPa)
#
#
# Indices 1 2 3 4 5 6 
#
# 1 80.7959 79.0667 28.9952 0.0000 0.0000 0.0000
# 2 79.0667 80.7868 29.0060 0.0000 0.0000 0.0000
# 3 28.9952 29.0060 116.5284 0.0000 0.0000 0.0000
# 4 0.0000 0.0000 0.0000 53.5330 0.0000 0.0000
# 5 0.0000 0.0000 0.0000 0.0000 53.5433 0.0000
# 6 0.0000 0.0000 0.0000 0.0000 0.0000 6.2386
#
#
#
# Elastic Compliance Matrix: (Units=1/GPa)
#
#
# Indices 1 2 3 4 5 6 
#
# 1 0.293325 -0.286477 -0.001677 0.000000 0.000000 0.000000
# 2 -0.286477 0.293383 -0.001745 0.000000 0.000000 0.000000
# 3 -0.001677 -0.001745 0.009433 0.000000 0.000000 0.000000
# 4 0.000000 0.000000 0.000000 0.018680 0.000000 0.000000
# 5 0.000000 0.000000 0.000000 0.000000 0.018676 0.000000
# 6 0.000000 0.000000 0.000000 0.000000 0.000000 0.160293
#
#
# Mechanical properties :
#
#
# Convention : Reuss Voigt Hill
#
# Bulk Modulus (GPa) = 61.19601 61.36078 61.27839
# Shear Modulus (GPa) = 3.62571 32.06585 17.84578
#
# Velocity S-wave (km/s) = 1.33572 3.97228 2.96337
# Velocity P-wave (km/s) = 5.70019 7.15773 6.47013
#
# Compressibility (1/GPa) = 0.01634094
#
# Stress axis : x y z
#
# Youngs Moduli (GPa) = 3.40919 3.40852 106.00604
#
# Poissons Ratio (x) = 0.97646 0.17781
# Poissons Ratio (y) = 0.97665 0.18502
# Poissons Ratio (z) = 0.00572 0.00595
#
# Static dielectric constant tensor:
#      x y z
#    x 1.737260 0.000000 0.000000 
#    y 0.000000 1.737270 0.000000 
#    z 0.000000 0.000000 1.733350 
# 
# From -- ./inp_files/2178.got.cif
#   From: 2010.05.17/outbox.cif.g08.bks.cpg/sg142_2_cif.got.tgz:2178.got - 2010.05.20 13:39:18.
