data_PCOD9573938
_publ_section_title
;
Structure prediction by ZEFSAII (Michael W. Deem and Ramdas Pophale) SiO2 
 PCOD9573938
Probable space group: I 41/A C D
;
_chemical_formula_sum "Si O2"
_cell_formula_units_Z 88
_cell_length_a 9.521677
_cell_length_b 9.521677
_cell_length_c 43.323095
_cell_angle_alpha 90.000000
_cell_angle_beta 90.000000
_cell_angle_gamma 90.000000
_cell_volume 3927.772861
_symmetry_space_group_name_H-M "I 41/A C D"
_symmetry_group_IT_number 142
_space_group.IT_coordinate_system_code '2'
_symmetry_cell_setting 'tetragonal'
loop_
_space_group_symop_operation_xyz
x,y,z
1/4-y,3/4+x,1/4+z
-x,1/2-y,z
1/4+y,1/4-x,3/4+z
x,-y,1/2-z
1/2-x,y,-z
3/4+y,1/4+x,1/4-z
1/4-y,1/4-x,1/4-z
-x,-y,-z
3/4+y,1/4-x,3/4-z
x,1/2+y,-z
3/4-y,3/4+x,1/4-z
-x,y,1/2+z
1/2+x,-y,z
1/4-y,3/4-x,3/4+z
3/4+y,3/4+x,3/4+z
1/2+x,1/2+y,1/2+z
3/4-y,1/4+x,3/4+z
1/2-x,-y,1/2+z
3/4+y,3/4-x,1/4+z
1/2+x,1/2-y,-z
-x,1/2+y,1/2-z
1/4+y,3/4+x,3/4-z
3/4-y,3/4-x,3/4-z
1/2-x,1/2-y,1/2-z
1/4+y,3/4-x,1/4-z
1/2+x,y,1/2-z
1/4-y,1/4+x,3/4-z
1/2-x,1/2+y,z
x,1/2-y,1/2+z
3/4-y,1/4-x,1/4+z
1/4+y,1/4+x,1/4+z
loop_
_atom_site_type_symbol
_atom_site_label
_atom_site_fract_x
_atom_site_fract_y
_atom_site_fract_z
Si Si1 0.000000 0.750000 0.797965
Si Si2 0.000000 0.250000 0.875000
Si Si3 0.173996 0.000201 0.031375
Si Si4 0.988461 0.452613 0.319581
O O1 0.133075 0.698576 0.777913
O O2 0.966078 0.616393 0.819100
O O3 0.868635 0.272708 0.897553
O O4 0.285311 0.091345 0.051657
O O5 0.129431 0.862121 0.049912
O O6 0.250000 0.959063 0.000000
#
# Coordination Sequence:
#
# PCOD9573938 Si02
#       4
#    16   8  32  32
#     4   8  24  45  69 106 139 185 234 290 370 420
#     4  12  28  46  72  96 146 192 256 290 344 444
#     4  10  22  45  72 107 142 177 236 301 370 431
#     4  10  25  46  69 105 139 194 237 294 364 420
#
# _framework density 22.404554999999998
#
# number of rings (size 3 to 8) (size 9 to 14) (size 15 to 20)
#    2.182    0.000    0.000    1.091    5.091    4.364 
#    0.000    1.818    0.000    0.000    0.000    0.000 
#    0.000    0.000    0.000    0.000    0.000    0.000 
#
# Total GULP energy -245390.708523 kJ/mol
# GULP energy per Si atom -5577.061557 kJ/mol
# Density = 2.235356 g / cm^3
# Si number density = 22.404555 Si / 1000 Ang^3
#
#
#
# Elastic Constant Matrix: (Units=GPa)
#
#
# Indices 1 2 3 4 5 6 
#
# 1 93.7063 -17.5979 12.0178 0.0000 0.0000 0.0000
# 2 -17.5979 93.7063 12.0178 0.0000 0.0000 0.0000
# 3 12.0178 12.0178 110.6603 0.0000 0.0000 0.0000
# 4 0.0000 0.0000 0.0000 34.3762 0.0000 0.0000
# 5 0.0000 0.0000 0.0000 0.0000 34.3762 0.0000
# 6 0.0000 0.0000 0.0000 0.0000 0.0000 44.6207
#
#
#
# Elastic Compliance Matrix: (Units=1/GPa)
#
#
# Indices 1 2 3 4 5 6 
#
# 1 0.011295 0.002311 -0.001478 0.000000 0.000000 0.000000
# 2 0.002311 0.011295 -0.001478 0.000000 0.000000 0.000000
# 3 -0.001478 -0.001478 0.009358 0.000000 0.000000 0.000000
# 4 0.000000 0.000000 0.000000 0.029090 0.000000 0.000000
# 5 0.000000 0.000000 0.000000 0.000000 0.029090 0.000000
# 6 0.000000 0.000000 0.000000 0.000000 0.000000 0.022411
#
#
# Mechanical properties :
#
#
# Convention : Reuss Voigt Hill
#
# Bulk Modulus (GPa) = 32.61711 34.54984 33.58347
# Shear Modulus (GPa) = 40.30722 42.11697 41.21209
#
# Velocity S-wave (km/s) = 4.24614 4.34042 4.29354
# Velocity P-wave (km/s) = 6.21526 6.36972 6.29296
#
# Compressibility (1/GPa) = 0.03065876
#
# Stress axis : x y z
#
# Youngs Moduli (GPa) = 88.53410 88.53410 106.86504
#
# Poissons Ratio (x) = -0.20458 0.15790
# Poissons Ratio (y) = -0.20458 0.15790
# Poissons Ratio (z) = 0.13082 0.13082
#
# Static dielectric constant tensor:
#      x y z
#    x 1.879690 0.000000 0.000000 
#    y 0.000000 1.879690 0.000000 
#    z 0.000000 0.000000 1.749920 
# 
# From -- ./inp_files/11992.got.cif
#   From: 2010.05.17/outbox.cif.g08.bks.cpg/sg142_6_cif.got.tgz:11992.got - 2010.05.20 13:39:18.
