data_PCOD9573165
_publ_section_title
;
Structure prediction by ZEFSAII (Michael W. Deem and Ramdas Pophale) SiO2 
 PCOD9573165
Probable space group: I 41/A M D
;
_chemical_formula_sum "Si O2"
_cell_formula_units_Z 144
_cell_length_a 31.158317
_cell_length_b 31.158317
_cell_length_c 8.623610
_cell_angle_alpha 90.000000
_cell_angle_beta 90.000000
_cell_angle_gamma 90.000000
_cell_volume 8372.151727
_symmetry_space_group_name_H-M "I 41/A M D"
_symmetry_group_IT_number 141
_space_group.IT_coordinate_system_code '2'
_symmetry_cell_setting 'tetragonal'
loop_
_space_group_symop_operation_xyz
x,y,z
1/4-y,3/4+x,1/4+z
-x,1/2-y,z
1/4+y,1/4-x,3/4+z
x,-y,-z
-x,1/2+y,-z
1/4+y,3/4+x,1/4-z
1/4-y,1/4-x,3/4-z
-x,-y,-z
3/4+y,1/4-x,3/4-z
x,1/2+y,-z
3/4-y,3/4+x,1/4-z
-x,y,z
x,1/2-y,z
3/4-y,1/4-x,3/4+z
3/4+y,3/4+x,1/4+z
1/2+x,1/2+y,1/2+z
3/4-y,1/4+x,3/4+z
1/2-x,-y,1/2+z
3/4+y,3/4-x,1/4+z
1/2+x,1/2-y,1/2-z
1/2-x,y,1/2-z
3/4+y,1/4+x,3/4-z
3/4-y,3/4-x,1/4-z
1/2-x,1/2-y,1/2-z
1/4+y,3/4-x,1/4-z
1/2+x,y,1/2-z
1/4-y,1/4+x,3/4-z
1/2-x,1/2+y,1/2+z
1/2+x,-y,1/2+z
1/4-y,3/4-x,1/4+z
1/4+y,1/4+x,3/4+z
loop_
_atom_site_type_symbol
_atom_site_label
_atom_site_fract_x
_atom_site_fract_y
_atom_site_fract_z
Si Si1 0.342727 0.589844 0.554317
Si Si2 0.782893 0.750000 0.036304
Si Si3 0.704240 0.831949 0.672434
Si Si4 0.360699 0.330807 0.042700
Si Si5 0.500000 0.431670 0.363747
Si Si6 0.197498 0.000000 0.000000
O O1 0.351972 0.601972 0.375000
O O2 0.303806 0.621537 0.597612
O O3 0.379677 0.599421 0.678385
O O4 0.330794 0.539669 0.561553
O O5 0.730188 0.750000 0.038597
O O6 0.804581 0.750000 0.205861
O O7 0.797932 0.792925 0.948327
O O8 0.750000 0.830440 0.750000
O O9 0.670303 0.826620 0.809805
O O10 0.406301 0.343700 0.125000
O O11 0.347725 0.289957 0.939239
O O12 0.227865 0.022136 0.875000
#
# Coordination Sequence:
#
# PCOD9573165 Si02
#       6
#    32  16  32  32  16  16
#     4  10  23  38  52  76 109 156 196 251 293 354
#     4  11  22  35  60  93 115 149 191 253 314 363
#     4  11  21  35  56  80 114 146 192 245 308 358
#     4  10  22  37  58  83 115 151 191 237 300 362
#     4  11  21  36  59  87 120 148 190 243 301 366
#     4  10  24  34  50  67 102 147 210 250 286 338
#
# _framework density 17.19988
#
# number of rings (size 3 to 8) (size 9 to 14) (size 15 to 20)
#    0.000    1.556    2.222    2.333    7.778    2.667 
#    0.000    0.000    0.000    0.333    0.000    0.000 
#    0.000    7.111    0.000    0.000    0.000    0.000 
#
# Total GULP energy -400963.631141 kJ/mol
# GULP energy per Si atom -5568.939321 kJ/mol
# Density = 1.716073 g / cm^3
# Si number density = 17.199880 Si / 1000 Ang^3
#
#
#
# Elastic Constant Matrix: (Units=GPa)
#
#
# Indices 1 2 3 4 5 6 
#
# 1 101.2652 42.4027 38.3006 0.0000 0.0000 0.0000
# 2 42.4027 101.2698 38.3016 0.0000 0.0000 0.0000
# 3 38.3006 38.3016 96.7363 0.0000 0.0000 0.0000
# 4 0.0000 0.0000 0.0000 21.4517 0.0000 0.0000
# 5 0.0000 0.0000 0.0000 0.0000 21.4578 0.0000
# 6 0.0000 0.0000 0.0000 0.0000 0.0000 -16.9554
#
#
#
# Elastic Compliance Matrix: (Units=1/GPa)
#
#
# Indices 1 2 3 4 5 6 
#
# 1 0.012906 -0.004083 -0.003493 0.000000 0.000000 0.000000
# 2 -0.004083 0.012905 -0.003493 0.000000 0.000000 0.000000
# 3 -0.003493 -0.003493 0.013104 0.000000 0.000000 0.000000
# 4 0.000000 0.000000 0.000000 0.046616 0.000000 0.000000
# 5 0.000000 0.000000 0.000000 0.000000 0.046603 0.000000
# 6 0.000000 0.000000 0.000000 0.000000 0.000000 -0.058978
#
#
# Mechanical properties :
#
#
# Convention : Reuss Voigt Hill
#
# Bulk Modulus (GPa) = 59.60787 59.69791 59.65289
# Shear Modulus (GPa) = 49.56076 17.20858 33.38467
#
# Velocity S-wave (km/s) = 5.37375 3.16651 4.41044
# Velocity P-wave (km/s) = 8.55769 6.93922 7.79060
#
# Compressibility (1/GPa) = 0.01677631
#
# Stress axis : x y z
#
# Youngs Moduli (GPa) = 77.48461 77.48800 76.31489
#
# Poissons Ratio (x) = 0.31635 0.26659
# Poissons Ratio (y) = 0.31634 0.26659
# Poissons Ratio (z) = 0.27068 0.27069
#
# Static dielectric constant tensor:
#      x y z
#    x 1.547090 0.000000 0.000000 
#    y 0.000000 1.546370 0.000000 
#    z 0.000000 0.000000 -1.387230 
# 
# From -- ./inp_files/3225.got.cif
#   From: 2010.05.17/outbox.cif.g08.bks.cpg/sg141_2_cif.got.tgz:3225.got - 2010.05.20 13:30:51.
