data_PCOD9573629
_publ_section_title
;
Structure prediction by ZEFSAII (Michael W. Deem and Ramdas Pophale) SiO2 
 PCOD9573629
Probable space group: I 41/A C D
;
_chemical_formula_sum "Si O2"
_cell_formula_units_Z 184
_cell_length_a 22.199360
_cell_length_b 22.199360
_cell_length_c 15.357674
_cell_angle_alpha 90.000000
_cell_angle_beta 90.000000
_cell_angle_gamma 90.000000
_cell_volume 7568.439657
_symmetry_space_group_name_H-M "I 41/A C D"
_symmetry_group_IT_number 142
_space_group.IT_coordinate_system_code '2'
_symmetry_cell_setting 'tetragonal'
loop_
_space_group_symop_operation_xyz
x,y,z
1/4-y,3/4+x,1/4+z
-x,1/2-y,z
1/4+y,1/4-x,3/4+z
x,-y,1/2-z
1/2-x,y,-z
3/4+y,1/4+x,1/4-z
1/4-y,1/4-x,1/4-z
-x,-y,-z
3/4+y,1/4-x,3/4-z
x,1/2+y,-z
3/4-y,3/4+x,1/4-z
-x,y,1/2+z
1/2+x,-y,z
1/4-y,3/4-x,3/4+z
3/4+y,3/4+x,3/4+z
1/2+x,1/2+y,1/2+z
3/4-y,1/4+x,3/4+z
1/2-x,-y,1/2+z
3/4+y,3/4-x,1/4+z
1/2+x,1/2-y,-z
-x,1/2+y,1/2-z
1/4+y,3/4+x,3/4-z
3/4-y,3/4-x,3/4-z
1/2-x,1/2-y,1/2-z
1/4+y,3/4-x,1/4-z
1/2+x,y,1/2-z
1/4-y,1/4+x,3/4-z
1/2-x,1/2+y,z
x,1/2-y,1/2+z
3/4-y,1/4-x,1/4+z
1/4+y,1/4+x,1/4+z
loop_
_atom_site_type_symbol
_atom_site_label
_atom_site_fract_x
_atom_site_fract_y
_atom_site_fract_z
Si Si1 0.065974 0.824404 0.754909
Si Si2 0.146148 0.896148 0.875000
Si Si3 0.500000 0.250000 0.875000
Si Si4 0.872246 0.522121 0.658998
Si Si5 0.488397 0.525458 0.366241
Si Si6 0.874331 0.854880 0.078307
Si Si7 0.971270 0.908307 0.959723
O O1 0.098186 0.881653 0.799284
O O2 0.076752 0.829857 0.651283
O O3 0.105765 0.769947 0.794166
O O4 0.004028 0.805169 0.801867
O O5 0.214610 0.886229 0.846024
O O6 0.844932 0.500000 0.750000
O O7 0.847962 0.584409 0.622464
O O8 0.944145 0.528361 0.669474
O O9 0.443371 0.571251 0.318345
O O10 0.467393 0.456858 0.382486
O O11 0.498658 0.554962 0.460515
O O12 0.909553 0.879436 0.994400
#
# Coordination Sequence:
#
# PCOD9573629 Si02
#       7
#    32  16   8  32  32  32  32
#     4  10  20  37  52  83 120 155 200 249 306 371
#     4  11  20  37  58  87 118 152 206 258 302 357
#     4  10  24  32  54  78 124 160 192 252 312 362
#     4  11  21  35  64  89 115 156 205 255 298 376
#     4   9  19  36  56  86 121 155 199 247 318 365
#     4  10  21  34  58  89 116 156 203 252 306 370
#     4   9  18  34  57  79 117 163 191 250 310 371
#
# _framework density 24.311482999999999
#
# number of rings (size 3 to 8) (size 9 to 14) (size 15 to 20)
#    0.000    2.087    3.478    0.000    2.435    4.174 
#    0.000    0.000    0.000    4.174    0.000    0.000 
#    0.000    0.000    0.000    0.000    0.000    0.000 
#
# Total GULP energy -512964.692083 kJ/mol
# GULP energy per Si atom -5575.703175 kJ/mol
# Density = 2.425615 g / cm^3
# Si number density = 24.311483 Si / 1000 Ang^3
#
#
#
# Elastic Constant Matrix: (Units=GPa)
#
#
# Indices 1 2 3 4 5 6 
#
# 1 109.2878 46.5643 10.1613 0.0000 0.0000 0.0000
# 2 46.5643 109.2878 10.1613 0.0000 0.0000 0.0000
# 3 10.1613 10.1613 63.4145 0.0000 0.0000 0.0000
# 4 0.0000 0.0000 0.0000 110.4455 0.0000 0.0000
# 5 0.0000 0.0000 0.0000 0.0000 110.4455 0.0000
# 6 0.0000 0.0000 0.0000 0.0000 0.0000 39.8904
#
#
#
# Elastic Compliance Matrix: (Units=1/GPa)
#
#
# Indices 1 2 3 4 5 6 
#
# 1 0.011248 -0.004695 -0.001050 0.000000 0.000000 0.000000
# 2 -0.004695 0.011248 -0.001050 0.000000 0.000000 0.000000
# 3 -0.001050 -0.001050 0.016106 0.000000 0.000000 0.000000
# 4 0.000000 0.000000 0.000000 0.009054 0.000000 0.000000
# 5 0.000000 0.000000 0.000000 0.000000 0.009054 0.000000
# 6 0.000000 0.000000 0.000000 0.000000 0.000000 0.025069
#
#
# Mechanical properties :
#
#
# Convention : Reuss Voigt Hill
#
# Bulk Modulus (GPa) = 39.98076 46.19599 43.08838
# Shear Modulus (GPa) = 48.21300 66.49651 57.35475
#
# Velocity S-wave (km/s) = 4.45807 5.23558 4.86239
# Velocity P-wave (km/s) = 6.55592 7.45596 7.02038
#
# Compressibility (1/GPa) = 0.02501203
#
# Stress axis : x y z
#
# Youngs Moduli (GPa) = 88.90378 88.90378 62.08951
#
# Poissons Ratio (x) = 0.41739 0.06520
# Poissons Ratio (y) = 0.41739 0.06520
# Poissons Ratio (z) = 0.09336 0.09336
#
# Static dielectric constant tensor:
#      x y z
#    x 2.178580 0.000000 0.000000 
#    y 0.000000 2.178580 0.000000 
#    z 0.000000 0.000000 2.268820 
# 
# From -- ./inp_files/7667.got.cif
#   From: 2010.05.17/outbox.cif.g08.bks.cpg/sg142_4_cif.got.tgz:7667.got - 2010.05.20 13:39:18.
