data_PCOD9573268
_publ_section_title
;
Structure prediction by ZEFSAII (Michael W. Deem and Ramdas Pophale) SiO2 
 PCOD9573268
Probable space group: I 41/A M D
;
_chemical_formula_sum "Si O2"
_cell_formula_units_Z 160
_cell_length_a 30.722703
_cell_length_b 30.722703
_cell_length_c 8.283895
_cell_angle_alpha 90.000000
_cell_angle_beta 90.000000
_cell_angle_gamma 90.000000
_cell_volume 7819.039921
_symmetry_space_group_name_H-M "I 41/A M D"
_symmetry_group_IT_number 141
_space_group.IT_coordinate_system_code '2'
_symmetry_cell_setting 'tetragonal'
loop_
_space_group_symop_operation_xyz
x,y,z
1/4-y,3/4+x,1/4+z
-x,1/2-y,z
1/4+y,1/4-x,3/4+z
x,-y,-z
-x,1/2+y,-z
1/4+y,3/4+x,1/4-z
1/4-y,1/4-x,3/4-z
-x,-y,-z
3/4+y,1/4-x,3/4-z
x,1/2+y,-z
3/4-y,3/4+x,1/4-z
-x,y,z
x,1/2-y,z
3/4-y,1/4-x,3/4+z
3/4+y,3/4+x,1/4+z
1/2+x,1/2+y,1/2+z
3/4-y,1/4+x,3/4+z
1/2-x,-y,1/2+z
3/4+y,3/4-x,1/4+z
1/2+x,1/2-y,1/2-z
1/2-x,y,1/2-z
3/4+y,1/4+x,3/4-z
3/4-y,3/4-x,1/4-z
1/2-x,1/2-y,1/2-z
1/4+y,3/4-x,1/4-z
1/2+x,y,1/2-z
1/4-y,1/4+x,3/4-z
1/2-x,1/2+y,1/2+z
1/2+x,-y,1/2+z
1/4-y,3/4-x,1/4+z
1/4+y,1/4+x,3/4+z
loop_
_atom_site_type_symbol
_atom_site_label
_atom_site_fract_x
_atom_site_fract_y
_atom_site_fract_z
Si Si1 0.365724 0.698419 0.734774
Si Si2 0.584984 0.523993 0.139623
Si Si3 0.133515 0.169983 0.609092
Si Si4 0.500000 0.079154 0.524650
Si Si5 0.000000 0.496812 0.239944
Si Si6 0.637235 0.547102 0.457048
O O1 0.373509 0.750000 0.707304
O O2 0.319827 0.682069 0.670273
O O3 0.398535 0.664514 0.645858
O O4 0.364204 0.689446 0.927983
O O5 0.544231 0.492164 0.165141
O O6 0.603876 0.532746 0.316295
O O7 0.613021 0.500000 0.000000
O O8 0.141647 0.207809 0.740641
O O9 0.172848 0.136085 0.655262
O O10 0.500000 0.047115 0.677647
O O11 0.500000 0.040766 0.391156
O O12 0.656383 0.500000 0.500000
O O13 0.672326 0.577675 0.375000
#
# Coordination Sequence:
#
# PCOD9573268 Si02
#       6
#    32  32  32  16  16  32
#     4  11  23  40  63  97 135 176 226 276 335 405
#     4  12  23  37  62  98 129 164 215 283 346 403
#     4  11  23  41  66  93 137 181 221 283 339 408
#     4  11  20  36  59  96 129 173 218 276 342 412
#     4  11  21  32  62  94 129 163 217 284 359 411
#     4  12  25  46  69  96 133 180 230 276 343 417
#
# _framework density 20.462871
#
# number of rings (size 3 to 8) (size 9 to 14) (size 15 to 20)
#    0.000    0.600    6.000    3.900    0.000    0.000 
#    0.000    1.500    0.000    0.000    0.000    0.000 
#    0.000    0.000    0.000    0.000    0.000    0.000 
#
# Total GULP energy -446092.895466 kJ/mol
# GULP energy per Si atom -5576.161193 kJ/mol
# Density = 2.041630 g / cm^3
# Si number density = 20.462871 Si / 1000 Ang^3
#
#
#
# Elastic Constant Matrix: (Units=GPa)
#
#
# Indices 1 2 3 4 5 6 
#
# 1 59.8760 33.0509 0.2592 0.0000 0.0000 0.0000
# 2 33.0509 59.8265 0.2447 0.0000 0.0000 0.0000
# 3 0.2592 0.2447 48.5621 0.0000 0.0000 0.0000
# 4 0.0000 0.0000 0.0000 29.2780 0.0000 0.0000
# 5 0.0000 0.0000 0.0000 0.0000 29.2711 0.0000
# 6 0.0000 0.0000 0.0000 0.0000 0.0000 559.9543
#
#
#
# Elastic Compliance Matrix: (Units=1/GPa)
#
#
# Indices 1 2 3 4 5 6 
#
# 1 0.024029 -0.013274 -0.000061 0.000000 0.000000 0.000000
# 2 -0.013274 0.024049 -0.000050 0.000000 0.000000 0.000000
# 3 -0.000061 -0.000050 0.020593 0.000000 0.000000 0.000000
# 4 0.000000 0.000000 0.000000 0.034155 0.000000 0.000000
# 5 0.000000 0.000000 0.000000 0.000000 0.034163 0.000000
# 6 0.000000 0.000000 0.000000 0.000000 0.000000 0.001786
#
#
# Mechanical properties :
#
#
# Convention : Reuss Voigt Hill
#
# Bulk Modulus (GPa) = 23.86749 26.15270 25.01010
# Shear Modulus (GPa) = 27.85319 132.68133 80.26726
#
# Velocity S-wave (km/s) = 3.69339 8.06107 6.26985
# Velocity P-wave (km/s) = 5.46601 9.97243 8.04135
#
# Compressibility (1/GPa) = 0.04189800
#
# Stress axis : x y z
#
# Youngs Moduli (GPa) = 41.61687 41.58257 48.56078
#
# Poissons Ratio (x) = 0.55198 0.00298
# Poissons Ratio (y) = 0.55244 0.00244
# Poissons Ratio (z) = 0.00256 0.00209
#
# Static dielectric constant tensor:
#      x y z
#    x 1.804230 0.000000 0.000000 
#    y 0.000000 1.804330 0.000000 
#    z 0.000000 0.000000 1.913080 
# 
# From -- ./inp_files/3307.got.cif
#   From: 2010.05.17/outbox.cif.g08.bks.cpg/sg141_2_cif.got.tgz:3307.got - 2010.05.20 13:30:51.
