data_PCOD9573897
_publ_section_title
;
Structure prediction by ZEFSAII (Michael W. Deem and Ramdas Pophale) SiO2 
 PCOD9573897
Probable space group: I 41/A C D
;
_chemical_formula_sum "Si O2"
_cell_formula_units_Z 96
_cell_length_a 23.775870
_cell_length_b 23.775870
_cell_length_c 8.443743
_cell_angle_alpha 90.000000
_cell_angle_beta 90.000000
_cell_angle_gamma 90.000000
_cell_volume 4773.180319
_symmetry_space_group_name_H-M "I 41/A C D"
_symmetry_group_IT_number 142
_space_group.IT_coordinate_system_code '2'
_symmetry_cell_setting 'tetragonal'
loop_
_space_group_symop_operation_xyz
x,y,z
1/4-y,3/4+x,1/4+z
-x,1/2-y,z
1/4+y,1/4-x,3/4+z
x,-y,1/2-z
1/2-x,y,-z
3/4+y,1/4+x,1/4-z
1/4-y,1/4-x,1/4-z
-x,-y,-z
3/4+y,1/4-x,3/4-z
x,1/2+y,-z
3/4-y,3/4+x,1/4-z
-x,y,1/2+z
1/2+x,-y,z
1/4-y,3/4-x,3/4+z
3/4+y,3/4+x,3/4+z
1/2+x,1/2+y,1/2+z
3/4-y,1/4+x,3/4+z
1/2-x,-y,1/2+z
3/4+y,3/4-x,1/4+z
1/2+x,1/2-y,-z
-x,1/2+y,1/2-z
1/4+y,3/4+x,3/4-z
3/4-y,3/4-x,3/4-z
1/2-x,1/2-y,1/2-z
1/4+y,3/4-x,1/4-z
1/2+x,y,1/2-z
1/4-y,1/4+x,3/4-z
1/2-x,1/2+y,z
x,1/2-y,1/2+z
3/4-y,1/4-x,1/4+z
1/4+y,1/4+x,1/4+z
loop_
_atom_site_type_symbol
_atom_site_label
_atom_site_fract_x
_atom_site_fract_y
_atom_site_fract_z
Si Si1 0.046131 0.818336 0.051360
Si Si2 0.324140 0.500000 0.250000
Si Si3 0.475138 0.500000 0.750000
Si Si4 0.075206 0.056636 0.442795
O O1 0.073892 0.768985 0.152330
O O2 0.077759 0.876588 0.058289
O O3 0.047109 0.797109 0.875000
O O4 0.286488 0.536488 0.125000
O O5 0.368175 0.465754 0.138986
O O6 0.519278 0.540486 0.841281
O O7 0.437652 0.531196 0.617152
#
# Coordination Sequence:
#
# PCOD9573897 Si02
#       4
#    32  16  16  32
#     4  11  23  37  59  93 130 164 200 243 302 381
#     4  11  28  47  66  90 120 163 220 277 322 378
#     4   9  20  39  66 100 124 161 222 253 306 400
#     4  10  22  42  66  92 129 168 206 265 321 370
#
# _framework density 20.112376000000001
#
# number of rings (size 3 to 8) (size 9 to 14) (size 15 to 20)
#    0.000    1.667    0.000    4.000    0.000   16.000 
#    0.000    0.000    0.000    0.000    0.000    0.000 
#    0.000    0.000    0.000    0.000    0.000    0.000 
#
# Total GULP energy -267916.552497 kJ/mol
# GULP energy per Si atom -5581.594844 kJ/mol
# Density = 2.006660 g / cm^3
# Si number density = 20.112376 Si / 1000 Ang^3
#
#
#
# Elastic Constant Matrix: (Units=GPa)
#
#
# Indices 1 2 3 4 5 6 
#
# 1 133.4369 86.3145 83.0554 0.0000 0.0000 0.0000
# 2 86.3145 133.4369 83.0554 0.0000 0.0000 0.0000
# 3 83.0554 83.0554 172.1974 0.0000 0.0000 0.0000
# 4 0.0000 0.0000 0.0000 41.8723 0.0000 0.0000
# 5 0.0000 0.0000 0.0000 0.0000 41.8723 0.0000
# 6 0.0000 0.0000 0.0000 0.0000 0.0000 18.0356
#
#
#
# Elastic Compliance Matrix: (Units=1/GPa)
#
#
# Indices 1 2 3 4 5 6 
#
# 1 0.014192 -0.007030 -0.003454 0.000000 0.000000 0.000000
# 2 -0.007030 0.014192 -0.003454 0.000000 0.000000 0.000000
# 3 -0.003454 -0.003454 0.009139 0.000000 0.000000 0.000000
# 4 0.000000 0.000000 0.000000 0.023882 0.000000 0.000000
# 5 0.000000 0.000000 0.000000 0.000000 0.023882 0.000000
# 6 0.000000 0.000000 0.000000 0.000000 0.000000 0.055446
#
#
# Mechanical properties :
#
#
# Convention : Reuss Voigt Hill
#
# Bulk Modulus (GPa) = 103.67259 104.88021 104.27640
# Shear Modulus (GPa) = 29.09940 32.79907 30.94924
#
# Velocity S-wave (km/s) = 3.80786 4.04269 3.92703
# Velocity P-wave (km/s) = 8.42565 8.60531 8.51596
#
# Compressibility (1/GPa) = 0.00964575
#
# Stress axis : x y z
#
# Youngs Moduli (GPa) = 70.46462 70.46462 109.41546
#
# Poissons Ratio (x) = 0.49535 0.37795
# Poissons Ratio (y) = 0.49535 0.37795
# Poissons Ratio (z) = 0.24340 0.24340
#
# Static dielectric constant tensor:
#      x y z
#    x 1.757360 0.000000 0.000000 
#    y 0.000000 1.757360 0.000000 
#    z 0.000000 0.000000 1.724990 
# 
# From -- ./inp_files/1694.got.cif
#   From: 2010.05.17/outbox.cif.g08.bks.cpg/sg142_1_cif.got.tgz:1694.got - 2010.05.20 13:39:18.
