data_PCOD9573877
_publ_section_title
;
Structure prediction by ZEFSAII (Michael W. Deem and Ramdas Pophale) SiO2 
 PCOD9573877
Probable space group: I 41/A C D
;
_chemical_formula_sum "Si O2"
_cell_formula_units_Z 136
_cell_length_a 16.338728
_cell_length_b 16.338728
_cell_length_c 22.168719
_cell_angle_alpha 90.000000
_cell_angle_beta 90.000000
_cell_angle_gamma 90.000000
_cell_volume 5918.028936
_symmetry_space_group_name_H-M "I 41/A C D"
_symmetry_group_IT_number 142
_space_group.IT_coordinate_system_code '2'
_symmetry_cell_setting 'tetragonal'
loop_
_space_group_symop_operation_xyz
x,y,z
1/4-y,3/4+x,1/4+z
-x,1/2-y,z
1/4+y,1/4-x,3/4+z
x,-y,1/2-z
1/2-x,y,-z
3/4+y,1/4+x,1/4-z
1/4-y,1/4-x,1/4-z
-x,-y,-z
3/4+y,1/4-x,3/4-z
x,1/2+y,-z
3/4-y,3/4+x,1/4-z
-x,y,1/2+z
1/2+x,-y,z
1/4-y,3/4-x,3/4+z
3/4+y,3/4+x,3/4+z
1/2+x,1/2+y,1/2+z
3/4-y,1/4+x,3/4+z
1/2-x,-y,1/2+z
3/4+y,3/4-x,1/4+z
1/2+x,1/2-y,-z
-x,1/2+y,1/2-z
1/4+y,3/4+x,3/4-z
3/4-y,3/4-x,3/4-z
1/2-x,1/2-y,1/2-z
1/4+y,3/4-x,1/4-z
1/2+x,y,1/2-z
1/4-y,1/4+x,3/4-z
1/2-x,1/2+y,z
x,1/2-y,1/2+z
3/4-y,1/4-x,1/4+z
1/4+y,1/4+x,1/4+z
loop_
_atom_site_type_symbol
_atom_site_label
_atom_site_fract_x
_atom_site_fract_y
_atom_site_fract_z
Si Si1 0.492749 0.461156 0.579267
Si Si2 0.500000 0.750000 0.625000
Si Si3 0.202440 0.019171 0.938333
Si Si4 0.544480 0.066023 0.208538
Si Si5 0.963364 0.874918 0.970539
O O1 0.397872 0.485458 0.563126
O O2 0.497790 0.424648 0.645796
O O3 0.515682 0.393561 0.529819
O O4 0.550341 0.538097 0.562971
O O5 0.424211 0.744885 0.668501
O O6 0.219149 0.116907 0.937918
O O7 0.231950 0.981950 0.875000
O O8 0.250000 0.989809 0.000000
O O9 0.570676 0.139965 0.252240
O O10 0.499919 0.000000 0.250000
#
# Coordination Sequence:
#
# PCOD9573877 Si02
#       5
#    32   8  32  32  32
#     4  10  23  44  67  96 139 178 226 288 349 411
#     4  12  24  40  66  88 140 172 232 278 356 424
#     4  10  24  41  67 103 135 183 238 287 340 424
#     4  10  22  40  68  95 131 178 223 281 350 417
#     4  10  24  41  63  99 128 181 221 287 343 416
#
# _framework density 22.980623999999999
#
# number of rings (size 3 to 8) (size 9 to 14) (size 15 to 20)
#    0.000    1.882    0.000    1.412   14.824    4.706 
#    0.000    0.000    0.000    0.000    0.000    0.000 
#    0.000    0.000    0.000    0.000    0.000    0.000 
#
# Total GULP energy -378775.711486 kJ/mol
# GULP energy per Si atom -5570.231051 kJ/mol
# Density = 2.292832 g / cm^3
# Si number density = 22.980624 Si / 1000 Ang^3
#
#
#
# Elastic Constant Matrix: (Units=GPa)
#
#
# Indices 1 2 3 4 5 6 
#
# 1 13.6660 63.9530 62.6456 0.0000 0.0000 0.0000
# 2 63.9530 13.6660 62.6456 0.0000 0.0000 0.0000
# 3 62.6456 62.6456 225.0670 0.0000 0.0000 0.0000
# 4 0.0000 0.0000 0.0000 36.3456 0.0000 0.0000
# 5 0.0000 0.0000 0.0000 0.0000 36.3456 0.0000
# 6 0.0000 0.0000 0.0000 0.0000 0.0000 7.7304
#
#
#
# Elastic Compliance Matrix: (Units=1/GPa)
#
#
# Indices 1 2 3 4 5 6 
#
# 1 0.001754 0.021640 -0.006512 0.000000 0.000000 0.000000
# 2 0.021640 0.001754 -0.006512 0.000000 0.000000 0.000000
# 3 -0.006512 -0.006512 0.008068 0.000000 0.000000 0.000000
# 4 0.000000 0.000000 0.000000 0.027514 0.000000 0.000000
# 5 0.000000 0.000000 0.000000 0.000000 0.027514 0.000000
# 6 0.000000 0.000000 0.000000 0.000000 0.000000 0.129359
#
#
# Mechanical properties :
#
#
# Convention : Reuss Voigt Hill
#
# Bulk Modulus (GPa) = 34.70981 70.09861 52.40421
# Shear Modulus (GPa) = 26.54875 20.29463 23.42169
#
# Velocity S-wave (km/s) = 3.40261 2.97496 3.19594
# Velocity P-wave (km/s) = 5.52935 6.50923 6.03920
#
# Compressibility (1/GPa) = 0.02881030
#
# Stress axis : x y z
#
# Youngs Moduli (GPa) = 570.03182 570.03184 123.94565
#
# Poissons Ratio (x) = -12.33557 0.80709
# Poissons Ratio (y) = -12.33557 0.80709
# Poissons Ratio (z) = 3.71185 3.71185
#
# Static dielectric constant tensor:
#      x y z
#    x 1.928920 0.000000 0.000000 
#    y 0.000000 1.928920 0.000000 
#    z 0.000000 0.000000 1.873360 
# 
# From -- ./inp_files/8804.got.cif
#   From: 2010.05.17/outbox.cif.g08.bks.cpg/sg142_5_cif.got.tgz:8804.got - 2010.05.20 13:39:18.
