data_PCOD9573697
_publ_section_title
;
Structure prediction by ZEFSAII (Michael W. Deem and Ramdas Pophale) SiO2 
 PCOD9573697
Probable space group: I 41/A C D
;
_chemical_formula_sum "Si O2"
_cell_formula_units_Z 112
_cell_length_a 13.413014
_cell_length_b 13.413014
_cell_length_c 28.247029
_cell_angle_alpha 90.000000
_cell_angle_beta 90.000000
_cell_angle_gamma 90.000000
_cell_volume 5081.893174
_symmetry_space_group_name_H-M "I 41/A C D"
_symmetry_group_IT_number 142
_space_group.IT_coordinate_system_code '2'
_symmetry_cell_setting 'tetragonal'
loop_
_space_group_symop_operation_xyz
x,y,z
1/4-y,3/4+x,1/4+z
-x,1/2-y,z
1/4+y,1/4-x,3/4+z
x,-y,1/2-z
1/2-x,y,-z
3/4+y,1/4+x,1/4-z
1/4-y,1/4-x,1/4-z
-x,-y,-z
3/4+y,1/4-x,3/4-z
x,1/2+y,-z
3/4-y,3/4+x,1/4-z
-x,y,1/2+z
1/2+x,-y,z
1/4-y,3/4-x,3/4+z
3/4+y,3/4+x,3/4+z
1/2+x,1/2+y,1/2+z
3/4-y,1/4+x,3/4+z
1/2-x,-y,1/2+z
3/4+y,3/4-x,1/4+z
1/2+x,1/2-y,-z
-x,1/2+y,1/2-z
1/4+y,3/4+x,3/4-z
3/4-y,3/4-x,3/4-z
1/2-x,1/2-y,1/2-z
1/4+y,3/4-x,1/4-z
1/2+x,y,1/2-z
1/4-y,1/4+x,3/4-z
1/2-x,1/2+y,z
x,1/2-y,1/2+z
3/4-y,1/4-x,1/4+z
1/4+y,1/4+x,1/4+z
loop_
_atom_site_type_symbol
_atom_site_label
_atom_site_fract_x
_atom_site_fract_y
_atom_site_fract_z
Si Si1 0.185622 0.308118 0.179889
Si Si2 0.525844 0.136365 0.036065
Si Si3 0.773536 0.974203 0.554047
Si Si4 0.369632 0.880369 0.625000
O O1 0.133706 0.273608 0.229346
O O2 0.304340 0.294235 0.189190
O O3 0.172535 0.425562 0.175535
O O4 0.150128 0.233355 0.139286
O O5 0.500000 0.250000 0.046314
O O6 0.635225 0.103148 0.053473
O O7 0.750000 0.000387 0.500000
O O8 0.806824 0.073125 0.581582
#
# Coordination Sequence:
#
# PCOD9573697 Si02
#       4
#    32  32  32  16
#     4   9  19  39  61  94 137 170 227 286 348 421
#     4   9  18  38  67  93 126 177 231 282 348 420
#     4   9  19  40  64  94 136 183 229 293 357 426
#     4  10  20  40  63  91 138 180 216 296 354 411
#
# _framework density 22.03903
#
# number of rings (size 3 to 8) (size 9 to 14) (size 15 to 20)
#    0.000    2.857    0.000    1.714    0.000    0.000 
#   20.571   24.286    0.000    0.000    0.000    0.000 
#    0.000    0.000    0.000    0.000    0.000    0.000 
#
# Total GULP energy -312973.761814 kJ/mol
# GULP energy per Si atom -5588.817175 kJ/mol
# Density = 2.198887 g / cm^3
# Si number density = 22.039030 Si / 1000 Ang^3
#
#
#
# Elastic Constant Matrix: (Units=GPa)
#
#
# Indices 1 2 3 4 5 6 
#
# 1 146.8177 42.8887 41.0989 0.0000 0.0000 0.0000
# 2 42.8887 146.8161 41.0986 0.0000 0.0000 0.0000
# 3 41.0989 41.0986 97.0427 0.0000 0.0000 0.0000
# 4 0.0000 0.0000 0.0000 18.9885 0.0000 0.0000
# 5 0.0000 0.0000 0.0000 0.0000 18.9881 0.0000
# 6 0.0000 0.0000 0.0000 0.0000 0.0000 18.1791
#
#
#
# Elastic Compliance Matrix: (Units=1/GPa)
#
#
# Indices 1 2 3 4 5 6 
#
# 1 0.008039 -0.001583 -0.002734 0.000000 0.000000 0.000000
# 2 -0.001583 0.008039 -0.002734 0.000000 0.000000 0.000000
# 3 -0.002734 -0.002734 0.012621 0.000000 0.000000 0.000000
# 4 0.000000 0.000000 0.000000 0.052663 0.000000 0.000000
# 5 0.000000 0.000000 0.000000 0.000000 0.052664 0.000000
# 6 0.000000 0.000000 0.000000 0.000000 0.000000 0.055008
#
#
# Mechanical properties :
#
#
# Convention : Reuss Voigt Hill
#
# Bulk Modulus (GPa) = 68.51229 71.20540 69.85885
# Shear Modulus (GPa) = 24.03813 28.93718 26.48765
#
# Velocity S-wave (km/s) = 3.30617 3.62746 3.47053
# Velocity P-wave (km/s) = 6.76229 7.06566 6.91564
#
# Compressibility (1/GPa) = 0.01459592
#
# Stress axis : x y z
#
# Youngs Moduli (GPa) = 124.39379 124.39252 79.23502
#
# Poissons Ratio (x) = 0.19691 0.21664
# Poissons Ratio (y) = 0.19692 0.21664
# Poissons Ratio (z) = 0.34012 0.34011
#
# Static dielectric constant tensor:
#      x y z
#    x 1.801660 0.000000 0.000000 
#    y 0.000000 1.801660 0.000000 
#    z 0.000000 0.000000 1.864960 
# 
# From -- ./inp_files/12215.got.cif
#   From: 2010.05.17/outbox.cif.g08.bks.cpg/sg142_7_cif.got.tgz:12215.got - 2010.05.20 13:39:18.
