data_PCOD9573181
_publ_section_title
;
Structure prediction by ZEFSAII (Michael W. Deem and Ramdas Pophale) SiO2 
 PCOD9573181
Probable space group: I 41/A M D
;
_chemical_formula_sum "Si O2"
_cell_formula_units_Z 136
_cell_length_a 17.537517
_cell_length_b 17.537517
_cell_length_c 20.391461
_cell_angle_alpha 90.000000
_cell_angle_beta 90.000000
_cell_angle_gamma 90.000000
_cell_volume 6271.689558
_symmetry_space_group_name_H-M "I 41/A M D"
_symmetry_group_IT_number 141
_space_group.IT_coordinate_system_code '2'
_symmetry_cell_setting 'tetragonal'
loop_
_space_group_symop_operation_xyz
x,y,z
1/4-y,3/4+x,1/4+z
-x,1/2-y,z
1/4+y,1/4-x,3/4+z
x,-y,-z
-x,1/2+y,-z
1/4+y,3/4+x,1/4-z
1/4-y,1/4-x,3/4-z
-x,-y,-z
3/4+y,1/4-x,3/4-z
x,1/2+y,-z
3/4-y,3/4+x,1/4-z
-x,y,z
x,1/2-y,z
3/4-y,1/4-x,3/4+z
3/4+y,3/4+x,1/4+z
1/2+x,1/2+y,1/2+z
3/4-y,1/4+x,3/4+z
1/2-x,-y,1/2+z
3/4+y,3/4-x,1/4+z
1/2+x,1/2-y,1/2-z
1/2-x,y,1/2-z
3/4+y,1/4+x,3/4-z
3/4-y,3/4-x,1/4-z
1/2-x,1/2-y,1/2-z
1/4+y,3/4-x,1/4-z
1/2+x,y,1/2-z
1/4-y,1/4+x,3/4-z
1/2-x,1/2+y,1/2+z
1/2+x,-y,1/2+z
1/4-y,3/4-x,1/4+z
1/4+y,1/4+x,3/4+z
loop_
_atom_site_type_symbol
_atom_site_label
_atom_site_fract_x
_atom_site_fract_y
_atom_site_fract_z
Si Si1 0.500000 0.250000 0.426925
Si Si2 0.624362 0.360838 0.877376
Si Si3 0.081278 0.839767 0.528253
Si Si4 0.245031 0.842054 0.555532
Si Si5 0.702928 0.837514 0.409325
O O1 0.566048 0.317707 0.420982
O O2 0.591592 0.342764 0.949652
O O3 0.619836 0.449793 0.861848
O O4 0.712879 0.338092 0.876552
O O5 0.078126 0.750000 0.545666
O O6 0.159008 0.872300 0.556284
O O7 0.000000 0.875053 0.547014
O O8 0.241201 0.750000 0.557137
O O9 0.281450 0.861376 0.484684
O O10 0.674636 0.750000 0.408370
O O11 0.644591 0.894591 0.375000
#
# Coordination Sequence:
#
# PCOD9573181 Si02
#       5
#     8  32  32  32  32
#     4  12  16  28  56  90 105 138 192 230 265 322
#     4  11  17  31  54  82 106 138 185 232 269 309
#     4   9  14  26  46  74 110 145 177 215 269 326
#     4   9  18  29  49  78 105 133 179 231 268 314
#     4  10  22  39  50  72 109 146 183 222 271 324
#
# _framework density 21.684746000000001
#
# number of rings (size 3 to 8) (size 9 to 14) (size 15 to 20)
#    0.000    2.118    4.706    1.412    0.000    1.176 
#    2.118    1.176    0.000    0.000    3.059    3.294 
#    0.000    2.353    0.000    0.471    0.000    0.000 
#
# Total GULP energy -378700.964362 kJ/mol
# GULP energy per Si atom -5569.131829 kJ/mol
# Density = 2.163539 g / cm^3
# Si number density = 21.684746 Si / 1000 Ang^3
#
#
#
# Elastic Constant Matrix: (Units=GPa)
#
#
# Indices 1 2 3 4 5 6 
#
# 1 111.8908 35.5110 33.4167 0.0000 0.0000 0.0000
# 2 35.5110 111.8908 33.4167 0.0000 0.0000 0.0000
# 3 33.4167 33.4167 49.1387 0.0000 0.0000 0.0000
# 4 0.0000 0.0000 0.0000 -19.1212 0.0000 0.0000
# 5 0.0000 0.0000 0.0000 0.0000 -19.1212 0.0000
# 6 0.0000 0.0000 0.0000 0.0000 0.0000 20.2851
#
#
#
# Elastic Compliance Matrix: (Units=1/GPa)
#
#
# Indices 1 2 3 4 5 6 
#
# 1 0.011451 -0.001642 -0.006670 0.000000 0.000000 0.000000
# 2 -0.001642 0.011451 -0.006670 0.000000 0.000000 0.000000
# 3 -0.006670 -0.006670 0.029423 0.000000 0.000000 0.000000
# 4 0.000000 0.000000 0.000000 -0.052298 0.000000 0.000000
# 5 0.000000 0.000000 0.000000 0.000000 -0.052298 0.000000
# 6 0.000000 0.000000 0.000000 0.000000 0.000000 0.049297
#
#
# Mechanical properties :
#
#
# Convention : Reuss Voigt Hill
#
# Bulk Modulus (GPa) = 44.72525 53.06768 48.89646
# Shear Modulus (GPa) = 145.16783 7.78028 76.47405
#
# Velocity S-wave (km/s) = 8.19085 1.89623 5.94499
# Velocity P-wave (km/s) = 10.49397 5.41477 8.34994
#
# Compressibility (1/GPa) = 0.02235873
#
# Stress axis : x y z
#
# Youngs Moduli (GPa) = 87.33236 87.33236 33.98731
#
# Poissons Ratio (x) = 0.14340 0.22670
# Poissons Ratio (y) = 0.14340 0.22670
# Poissons Ratio (z) = 0.58253 0.58253
#
# Static dielectric constant tensor:
#      x y z
#    x 1.815590 0.000000 0.000000 
#    y 0.000000 1.815590 0.000000 
#    z 0.000000 0.000000 1.831790 
# 
# From -- ./inp_files/10091.got.cif
#   From: 2010.05.17/outbox.cif.g08.bks.cpg/sg141_6_cif.got.tgz:10091.got - 2010.05.20 13:30:51.
