data_PCOD9573395
_publ_section_title
;
Structure prediction by ZEFSAII (Michael W. Deem and Ramdas Pophale) SiO2 
 PCOD9573395
Probable space group: I 41/A M D
;
_chemical_formula_sum "Si O2"
_cell_formula_units_Z 96
_cell_length_a 18.000000
_cell_length_b 18.000000
_cell_length_c 30.000000
_cell_angle_alpha 90.000000
_cell_angle_beta 90.000000
_cell_angle_gamma 90.000000
_cell_volume 9720.000000
_symmetry_space_group_name_H-M "I 41/A M D"
_symmetry_group_IT_number 141
_space_group.IT_coordinate_system_code '2'
_symmetry_cell_setting 'tetragonal'
loop_
_space_group_symop_operation_xyz
x,y,z
1/4-y,3/4+x,1/4+z
-x,1/2-y,z
1/4+y,1/4-x,3/4+z
x,-y,-z
-x,1/2+y,-z
1/4+y,3/4+x,1/4-z
1/4-y,1/4-x,3/4-z
-x,-y,-z
3/4+y,1/4-x,3/4-z
x,1/2+y,-z
3/4-y,3/4+x,1/4-z
-x,y,z
x,1/2-y,z
3/4-y,1/4-x,3/4+z
3/4+y,3/4+x,1/4+z
1/2+x,1/2+y,1/2+z
3/4-y,1/4+x,3/4+z
1/2-x,-y,1/2+z
3/4+y,3/4-x,1/4+z
1/2+x,1/2-y,1/2-z
1/2-x,y,1/2-z
3/4+y,1/4+x,3/4-z
3/4-y,3/4-x,1/4-z
1/2-x,1/2-y,1/2-z
1/4+y,3/4-x,1/4-z
1/2+x,y,1/2-z
1/4-y,1/4+x,3/4-z
1/2-x,1/2+y,1/2+z
1/2+x,-y,1/2+z
1/4-y,3/4-x,1/4+z
1/4+y,1/4+x,3/4+z
loop_
_atom_site_type_symbol
_atom_site_label
_atom_site_fract_x
_atom_site_fract_y
_atom_site_fract_z
Si Si1 0.414092 0.664162 0.996241
Si Si2 0.164088 0.099308 0.661004
Si Si3 0.687964 0.099791 0.074090
Si Si4 0.084907 0.750000 0.212405
Si Si5 0.692435 0.070443 0.942951
Si Si6 0.000000 0.833119 0.930830
Si Si7 0.854327 0.417459 0.928234
O O1 0.500000 0.642379 0.991715
O O2 0.410797 0.750000 0.009852
O O3 0.369421 0.652170 0.950546
O O4 0.370473 0.613564 0.031067
O O5 0.180965 0.082646 0.609561
O O6 0.120733 0.174778 0.665245
O O7 0.243937 0.110698 0.683951
O O8 0.125511 0.023974 0.678226
O O9 0.663839 0.086162 0.125000
O O10 0.687937 0.018231 0.051042
O O11 0.084284 0.750000 0.265707
O O12 0.125805 0.675751 0.196298
O O13 0.000000 0.750000 0.196006
O O14 0.775646 0.101061 0.951612
O O15 0.000000 0.750000 0.913832
O O16 0.847894 0.402107 0.875000
#
# Coordination Sequence:
#
# PCOD9573395 Si02
#       7
#    32  32  32  16  32  16  32
#     4  11  25  40  58  89 125 156 192 239 298 356
#     4   9  20  40  63  86 115 154 202 245 299 350
#     4   9  20  41  66  89 115 150 198 247 297 354
#     4  11  25  37  51  85 127 161 201 245 293 351
#     4   9  20  40  64  89 115 151 198 250 294 353
#     4  11  25  39  53  85 127 163 203 245 297 361
#     4   9  20  38  61  87 115 156 201 248 297 347
#
# _framework density 9.8765429999999999
#
# number of rings (size 3 to 8) (size 9 to 14) (size 15 to 20)
#    0.000    2.333    0.000    3.000    4.667    5.333 
#    0.000    4.167    0.000    0.000    0.000    0.000 
#    0.000    0.000    0.000    0.000    0.000    0.000 
#
# Total GULP energy -535682.098449 kJ/mol
# GULP energy per Si atom -5580.021859 kJ/mol
# Density = 0.985406 g / cm^3
# Si number density = 9.876543 Si / 1000 Ang^3
#
#
#
# Elastic Constant Matrix: (Units=GPa)
#
#
# Indices 1 2 3 4 5 6 
#
# 1 94.8329 50.5101 -7.6168 0.0000 0.0000 0.0000
# 2 50.5101 94.8331 -7.6169 0.0000 0.0000 0.0000
# 3 -7.6168 -7.6169 3.7288 0.0000 0.0000 0.0000
# 4 0.0000 0.0000 0.0000 37.2557 0.0000 0.0000
# 5 0.0000 0.0000 0.0000 0.0000 37.2565 0.0000
# 6 0.0000 0.0000 0.0000 0.0000 0.0000 29.6392
#
#
#
# Elastic Compliance Matrix: (Units=1/GPa)
#
#
# Indices 1 2 3 4 5 6 
#
# 1 0.015658 -0.006904 0.017883 0.000000 0.000000 0.000000
# 2 -0.006904 0.015658 0.017883 0.000000 0.000000 0.000000
# 3 0.017883 0.017883 0.341247 0.000000 0.000000 0.000000
# 4 0.000000 0.000000 0.000000 0.026842 0.000000 0.000000
# 5 0.000000 0.000000 0.000000 0.000000 0.026841 0.000000
# 6 0.000000 0.000000 0.000000 0.000000 0.000000 0.033739
#
#
# Mechanical properties :
#
#
# Convention : Reuss Voigt Hill
#
# Bulk Modulus (GPa) = 2.32402 29.32752 15.82577
# Shear Modulus (GPa) = 9.16274 31.37150 20.26712
#
# Velocity S-wave (km/s) = 2.15609 3.98952 3.20663
# Velocity P-wave (km/s) = 2.71613 6.00841 4.66253
#
# Compressibility (1/GPa) = 0.43028946
#
# Stress axis : x y z
#
# Youngs Moduli (GPa) = 63.86433 63.86442 2.93043
#
# Poissons Ratio (x) = 0.44089 -0.05241
# Poissons Ratio (y) = 0.44089 -0.05241
# Poissons Ratio (z) = -1.14211 -1.14211
#
# Static dielectric constant tensor:
#      x y z
#    x 1.652980 0.000000 0.000000 
#    y 0.000000 1.652980 0.000000 
#    z 0.000000 0.000000 1.720920 
# 
# From -- ./inp_files/14458.got.cif
#   From: 2010.05.17/outbox.ucp.g08.bks.cvg/sg141_8_cif.got.tgz:14458.got - 2010.06.11 11:43:24.
