data_PCOD9573276
_publ_section_title
;
Structure prediction by ZEFSAII (Michael W. Deem and Ramdas Pophale) SiO2 
 PCOD9573276
Probable space group: I 41/A M D
;
_chemical_formula_sum "Si O2"
_cell_formula_units_Z 128
_cell_length_a 21.866581
_cell_length_b 21.866581
_cell_length_c 14.030743
_cell_angle_alpha 90.000000
_cell_angle_beta 90.000000
_cell_angle_gamma 90.000000
_cell_volume 6708.762789
_symmetry_space_group_name_H-M "I 41/A M D"
_symmetry_group_IT_number 141
_space_group.IT_coordinate_system_code '2'
_symmetry_cell_setting 'tetragonal'
loop_
_space_group_symop_operation_xyz
x,y,z
1/4-y,3/4+x,1/4+z
-x,1/2-y,z
1/4+y,1/4-x,3/4+z
x,-y,-z
-x,1/2+y,-z
1/4+y,3/4+x,1/4-z
1/4-y,1/4-x,3/4-z
-x,-y,-z
3/4+y,1/4-x,3/4-z
x,1/2+y,-z
3/4-y,3/4+x,1/4-z
-x,y,z
x,1/2-y,z
3/4-y,1/4-x,3/4+z
3/4+y,3/4+x,1/4+z
1/2+x,1/2+y,1/2+z
3/4-y,1/4+x,3/4+z
1/2-x,-y,1/2+z
3/4+y,3/4-x,1/4+z
1/2+x,1/2-y,1/2-z
1/2-x,y,1/2-z
3/4+y,1/4+x,3/4-z
3/4-y,3/4-x,1/4-z
1/2-x,1/2-y,1/2-z
1/4+y,3/4-x,1/4-z
1/2+x,y,1/2-z
1/4-y,1/4+x,3/4-z
1/2-x,1/2+y,1/2+z
1/2+x,-y,1/2+z
1/4-y,3/4-x,1/4+z
1/4+y,1/4+x,3/4+z
loop_
_atom_site_type_symbol
_atom_site_label
_atom_site_fract_x
_atom_site_fract_y
_atom_site_fract_z
Si Si1 0.789015 0.750000 0.903920
Si Si2 0.074514 0.175487 0.875000
Si Si3 0.680520 0.544834 0.708789
Si Si4 0.126946 0.422956 0.736130
Si Si5 0.626838 0.376838 0.125000
Si Si6 0.500000 0.410331 0.044033
O O1 0.797933 0.811097 0.962545
O O2 0.726289 0.750000 0.845475
O O3 0.838130 0.750000 0.819318
O O4 0.084059 0.250000 0.877629
O O5 0.109459 0.141377 0.786653
O O6 0.750000 0.549866 0.750000
O O7 0.670928 0.582986 0.611506
O O8 0.661262 0.474294 0.700952
O O9 0.639548 0.574399 0.792041
O O10 0.561549 0.381136 0.078420
#
# Coordination Sequence:
#
# PCOD9573276 Si02
#       6
#    16  16  32  32  16  16
#     4  11  20  40  67  92 127 175 225 262 338 396
#     4  11  28  53  72  91 130 185 236 281 334 393
#     4  12  23  41  69 104 141 172 215 274 346 403
#     4  12  25  44  70 100 129 178 221 277 333 399
#     4  12  22  38  62  95 138 179 216 264 340 398
#     4  11  22  37  62  96 135 174 219 276 324 413
#
# _framework density 19.079525
#
# number of rings (size 3 to 8) (size 9 to 14) (size 15 to 20)
#    0.000    0.375    8.750    0.000    3.500    0.250 
#    4.500    1.250    2.750    0.000    0.000    0.000 
#    0.000    0.000    0.000    0.000    0.000    0.000 
#
# Total GULP energy -357059.671350 kJ/mol
# GULP energy per Si atom -5579.057365 kJ/mol
# Density = 1.903610 g / cm^3
# Si number density = 19.079525 Si / 1000 Ang^3
#
#
#
# Elastic Constant Matrix: (Units=GPa)
#
#
# Indices 1 2 3 4 5 6 
#
# 1 87.2401 43.8988 48.6219 0.0000 0.0000 0.0000
# 2 43.8988 87.2410 48.6220 0.0000 0.0000 0.0000
# 3 48.6219 48.6220 94.5350 0.0000 0.0000 0.0000
# 4 0.0000 0.0000 0.0000 38.2777 0.0000 0.0000
# 5 0.0000 0.0000 0.0000 0.0000 38.2792 0.0000
# 6 0.0000 0.0000 0.0000 0.0000 0.0000 31.0467
#
#
#
# Elastic Compliance Matrix: (Units=1/GPa)
#
#
# Indices 1 2 3 4 5 6 
#
# 1 0.017700 -0.005373 -0.006340 0.000000 0.000000 0.000000
# 2 -0.005373 0.017700 -0.006340 0.000000 0.000000 0.000000
# 3 -0.006340 -0.006340 0.017100 0.000000 0.000000 0.000000
# 4 0.000000 0.000000 0.000000 0.026125 0.000000 0.000000
# 5 0.000000 0.000000 0.000000 0.000000 0.026124 0.000000
# 6 0.000000 0.000000 0.000000 0.000000 0.000000 0.032210
#
#
# Mechanical properties :
#
#
# Convention : Reuss Voigt Hill
#
# Bulk Modulus (GPa) = 61.00045 61.25572 61.12808
# Shear Modulus (GPa) = 28.00691 30.04562 29.02626
#
# Velocity S-wave (km/s) = 3.83548 3.97263 3.90466
# Velocity P-wave (km/s) = 7.18718 7.29503 7.24131
#
# Compressibility (1/GPa) = 0.01639332
#
# Stress axis : x y z
#
# Youngs Moduli (GPa) = 56.49804 56.49875 58.48028
#
# Poissons Ratio (x) = 0.30356 0.37077
# Poissons Ratio (y) = 0.30355 0.37076
# Poissons Ratio (z) = 0.35820 0.35820
#
# Static dielectric constant tensor:
#      x y z
#    x 1.737810 0.000000 0.000000 
#    y 0.000000 1.737770 0.000000 
#    z 0.000000 0.000000 1.662160 
# 
# From -- ./inp_files/6273.got.cif
#   From: 2010.05.17/outbox.cif.g08.bks.cpg/sg141_4_cif.got.tgz:6273.got - 2010.05.20 13:30:51.
