data_PCOD9573288
_publ_section_title
;
Structure prediction by ZEFSAII (Michael W. Deem and Ramdas Pophale) SiO2 
 PCOD9573288
Probable space group: I 41/A M D
;
_chemical_formula_sum "Si O2"
_cell_formula_units_Z 160
_cell_length_a 17.432483
_cell_length_b 17.432483
_cell_length_c 24.855025
_cell_angle_alpha 90.000000
_cell_angle_beta 90.000000
_cell_angle_gamma 90.000000
_cell_volume 7553.229924
_symmetry_space_group_name_H-M "I 41/A M D"
_symmetry_group_IT_number 141
_space_group.IT_coordinate_system_code '2'
_symmetry_cell_setting 'tetragonal'
loop_
_space_group_symop_operation_xyz
x,y,z
1/4-y,3/4+x,1/4+z
-x,1/2-y,z
1/4+y,1/4-x,3/4+z
x,-y,-z
-x,1/2+y,-z
1/4+y,3/4+x,1/4-z
1/4-y,1/4-x,3/4-z
-x,-y,-z
3/4+y,1/4-x,3/4-z
x,1/2+y,-z
3/4-y,3/4+x,1/4-z
-x,y,z
x,1/2-y,z
3/4-y,1/4-x,3/4+z
3/4+y,3/4+x,1/4+z
1/2+x,1/2+y,1/2+z
3/4-y,1/4+x,3/4+z
1/2-x,-y,1/2+z
3/4+y,3/4-x,1/4+z
1/2+x,1/2-y,1/2-z
1/2-x,y,1/2-z
3/4+y,1/4+x,3/4-z
3/4-y,3/4-x,1/4-z
1/2-x,1/2-y,1/2-z
1/4+y,3/4-x,1/4-z
1/2+x,y,1/2-z
1/4-y,1/4+x,3/4-z
1/2-x,1/2+y,1/2+z
1/2+x,-y,1/2+z
1/4-y,3/4-x,1/4+z
1/4+y,1/4+x,3/4+z
loop_
_atom_site_type_symbol
_atom_site_label
_atom_site_fract_x
_atom_site_fract_y
_atom_site_fract_z
Si Si1 0.584401 0.113978 0.683284
Si Si2 0.653906 0.468445 0.360209
Si Si3 0.174675 0.574658 0.970284
Si Si4 0.413239 0.085268 0.975512
Si Si5 0.408569 0.077193 0.176562
O O1 0.500000 0.133747 0.699919
O O2 0.600894 0.149107 0.625000
O O3 0.638714 0.127292 0.733568
O O4 0.597401 0.023538 0.672255
O O5 0.729140 0.520861 0.375000
O O6 0.624647 0.448202 0.419112
O O7 0.667729 0.394278 0.324692
O O8 0.243819 0.626208 0.945889
O O9 0.210644 0.500000 0.000000
O O10 0.500000 0.105827 0.959929
O O11 0.381602 0.140697 0.022309
O O12 0.413931 0.000000 0.000000
O O13 0.362348 0.112348 0.125000
O O14 0.500000 0.073349 0.165222
#
# Coordination Sequence:
#
# PCOD9573288 Si02
#       5
#    32  32  32  32  32
#     4  11  24  42  69 101 131 168 209 263 327 390
#     4  11  21  37  63  91 126 168 213 268 319 379
#     4  12  21  39  67 100 123 167 214 274 320 379
#     4  11  23  38  57  84 125 176 223 267 316 375
#     4  12  25  38  59  91 133 175 219 266 316 381
#
# _framework density 21.18299
#
# number of rings (size 3 to 8) (size 9 to 14) (size 15 to 20)
#    0.000    0.600    6.000    4.800    0.000    4.800 
#    0.000    2.000    0.000    0.000    0.000    2.800 
#    0.000    0.000    0.000    0.000    0.000    0.000 
#
# Total GULP energy -446727.223237 kJ/mol
# GULP energy per Si atom -5584.090290 kJ/mol
# Density = 2.113478 g / cm^3
# Si number density = 21.182990 Si / 1000 Ang^3
#
#
#
# Elastic Constant Matrix: (Units=GPa)
#
#
# Indices 1 2 3 4 5 6 
#
# 1 37.8089 -6.5470 -1.0300 0.0000 0.0000 0.0000
# 2 -6.5470 37.8090 -1.0305 0.0000 0.0000 0.0000
# 3 -1.0300 -1.0305 136.3979 0.0000 0.0000 0.0000
# 4 0.0000 0.0000 0.0000 21.7875 0.0000 0.0000
# 5 0.0000 0.0000 0.0000 0.0000 21.7872 0.0000
# 6 0.0000 0.0000 0.0000 0.0000 0.0000 -0.3259
#
#
#
# Elastic Compliance Matrix: (Units=1/GPa)
#
#
# Indices 1 2 3 4 5 6 
#
# 1 0.027274 0.004729 0.000242 0.000000 0.000000 0.000000
# 2 0.004729 0.027274 0.000242 0.000000 0.000000 0.000000
# 3 0.000242 0.000242 0.007335 0.000000 0.000000 0.000000
# 4 0.000000 0.000000 0.000000 0.045898 0.000000 0.000000
# 5 0.000000 0.000000 0.000000 0.000000 0.045899 0.000000
# 6 0.000000 0.000000 0.000000 0.000000 0.000000 -3.068002
#
#
# Mechanical properties :
#
#
# Convention : Reuss Voigt Hill
#
# Bulk Modulus (GPa) = 13.82946 21.64453 17.73699
# Shear Modulus (GPa) = -1.72375 23.35796 10.81710
#
# Velocity S-wave (km/s) = -0.90306 3.32426 2.26221
# Velocity P-wave (km/s) = 2.33568 4.99743 3.90062
#
# Compressibility (1/GPa) = 0.07230942
#
# Stress axis : x y z
#
# Youngs Moduli (GPa) = 36.66453 36.66460 136.32999
#
# Poissons Ratio (x) = -0.17340 -0.03295
# Poissons Ratio (y) = -0.17340 -0.03296
# Poissons Ratio (z) = -0.00886 -0.00886
#
# Static dielectric constant tensor:
#      x y z
#    x 1.792130 0.000000 0.000000 
#    y 0.000000 1.792120 0.000000 
#    z 0.000000 0.000000 1.848640 
# 
# From -- ./inp_files/12746.got.cif
#   From: 2010.05.17/outbox.cif.g08.bks.cpg/sg141_7_cif.got.tgz:12746.got - 2010.05.20 13:30:51.
