data_PCOD9573593
_publ_section_title
;
Structure prediction by ZEFSAII (Michael W. Deem and Ramdas Pophale) SiO2 
 PCOD9573593
Probable space group: I 41/A C D
;
_chemical_formula_sum "Si O2"
_cell_formula_units_Z 160
_cell_length_a 18.276705
_cell_length_b 18.276705
_cell_length_c 27.793514
_cell_angle_alpha 90.000000
_cell_angle_beta 90.000000
_cell_angle_gamma 90.000000
_cell_volume 9284.088319
_symmetry_space_group_name_H-M "I 41/A C D"
_symmetry_group_IT_number 142
_space_group.IT_coordinate_system_code '2'
_symmetry_cell_setting 'tetragonal'
loop_
_space_group_symop_operation_xyz
x,y,z
1/4-y,3/4+x,1/4+z
-x,1/2-y,z
1/4+y,1/4-x,3/4+z
x,-y,1/2-z
1/2-x,y,-z
3/4+y,1/4+x,1/4-z
1/4-y,1/4-x,1/4-z
-x,-y,-z
3/4+y,1/4-x,3/4-z
x,1/2+y,-z
3/4-y,3/4+x,1/4-z
-x,y,1/2+z
1/2+x,-y,z
1/4-y,3/4-x,3/4+z
3/4+y,3/4+x,3/4+z
1/2+x,1/2+y,1/2+z
3/4-y,1/4+x,3/4+z
1/2-x,-y,1/2+z
3/4+y,3/4-x,1/4+z
1/2+x,1/2-y,-z
-x,1/2+y,1/2-z
1/4+y,3/4+x,3/4-z
3/4-y,3/4-x,3/4-z
1/2-x,1/2-y,1/2-z
1/4+y,3/4-x,1/4-z
1/2+x,y,1/2-z
1/4-y,1/4+x,3/4-z
1/2-x,1/2+y,z
x,1/2-y,1/2+z
3/4-y,1/4-x,1/4+z
1/4+y,1/4+x,1/4+z
loop_
_atom_site_type_symbol
_atom_site_label
_atom_site_fract_x
_atom_site_fract_y
_atom_site_fract_z
Si Si1 0.766975 0.908885 0.141842
Si Si2 0.441096 0.310965 0.702824
Si Si3 0.493002 0.577013 0.375596
Si Si4 0.221689 0.628813 0.351385
Si Si5 0.174230 0.413082 0.252928
O O1 0.793485 0.836179 0.115692
O O2 0.776644 0.901207 0.199240
O O3 0.689117 0.939117 0.125000
O O4 0.825470 0.969935 0.126587
O O5 0.500000 0.250000 0.719137
O O6 0.477212 0.370688 0.666588
O O7 0.380816 0.267153 0.671249
O O8 0.396419 0.360642 0.740587
O O9 0.543614 0.507898 0.388049
O O10 0.144069 0.605932 0.375000
O O11 0.215480 0.610517 0.295280
O O12 0.156069 0.500000 0.250000
#
# Coordination Sequence:
#
# PCOD9573593 Si02
#       5
#    32  32  32  32  32
#     4  10  20  34  60  86 115 153 200 250 290 353
#     4  11  19  33  60  90 117 147 197 255 300 349
#     4  11  18  35  61  86 113 150 192 249 302 345
#     4  11  20  36  61  81 118 159 192 240 299 358
#     4  11  20  35  62  88 114 155 205 238 300 356
#
# _framework density 17.233785999999998
#
# number of rings (size 3 to 8) (size 9 to 14) (size 15 to 20)
#    0.000    1.200   10.000    0.000    0.000    3.200 
#    0.000    0.000   30.800    0.000    0.000    0.000 
#    0.000    0.000    0.000    0.000    0.000    0.000 
#
# Total GULP energy -445547.410892 kJ/mol
# GULP energy per Si atom -5569.342636 kJ/mol
# Density = 1.719456 g / cm^3
# Si number density = 17.233786 Si / 1000 Ang^3
#
#
#
# Elastic Constant Matrix: (Units=GPa)
#
#
# Indices 1 2 3 4 5 6 
#
# 1 20.8986 4.3856 -15.7331 0.0000 0.0000 0.0000
# 2 4.3856 20.9015 -15.7311 0.0000 0.0000 0.0000
# 3 -15.7331 -15.7311 69.2686 0.0000 0.0000 0.0000
# 4 0.0000 0.0000 0.0000 -46.6516 0.0000 0.0000
# 5 0.0000 0.0000 0.0000 0.0000 -46.7082 0.0000
# 6 0.0000 0.0000 0.0000 0.0000 0.0000 -23.0237
#
#
#
# Elastic Compliance Matrix: (Units=1/GPa)
#
#
# Indices 1 2 3 4 5 6 
#
# 1 0.057847 -0.002712 0.012523 0.000000 0.000000 0.000000
# 2 -0.002712 0.057834 0.012518 0.000000 0.000000 0.000000
# 3 0.012523 0.012518 0.020124 0.000000 0.000000 0.000000
# 4 0.000000 0.000000 0.000000 -0.021435 0.000000 0.000000
# 5 0.000000 0.000000 0.000000 0.000000 -0.021410 0.000000
# 6 0.000000 0.000000 0.000000 0.000000 0.000000 -0.043434
#
#
# Mechanical properties :
#
#
# Convention : Reuss Voigt Hill
#
# Bulk Modulus (GPa) = 5.54132 6.32349 5.93241
# Shear Modulus (GPa) = 76.89596 -14.06687 31.41455
#
# Velocity S-wave (km/s) = 6.68702 -2.86009 4.27411
# Velocity P-wave (km/s) = 7.92742 2.68879 5.27325
#
# Compressibility (1/GPa) = 0.18046234
#
# Stress axis : x y z
#
# Youngs Moduli (GPa) = 17.28701 17.29084 49.69229
#
# Poissons Ratio (x) = 0.04690 -0.62229
# Poissons Ratio (y) = 0.04689 -0.62206
# Poissons Ratio (z) = -0.21648 -0.21645
#
# Static dielectric constant tensor:
#      x y z
#    x 1.622580 0.000000 0.000000 
#    y 0.000000 1.622580 0.000000 
#    z 0.000000 0.000000 1.575250 
# 
# From -- ./inp_files/11263.got.cif
#   From: 2010.05.17/outbox.cif.g08.bks.cpg/sg142_6_cif.got.tgz:11263.got - 2010.05.20 13:39:18.
