data_PCOD9573841
_publ_section_title
;
Structure prediction by ZEFSAII (Michael W. Deem and Ramdas Pophale) SiO2 
 PCOD9573841
Probable space group: I 41/A C D
;
_chemical_formula_sum "Si O2"
_cell_formula_units_Z 160
_cell_length_a 16.647001
_cell_length_b 16.647001
_cell_length_c 28.629579
_cell_angle_alpha 90.000000
_cell_angle_beta 90.000000
_cell_angle_gamma 90.000000
_cell_volume 7933.904580
_symmetry_space_group_name_H-M "I 41/A C D"
_symmetry_group_IT_number 142
_space_group.IT_coordinate_system_code '2'
_symmetry_cell_setting 'tetragonal'
loop_
_space_group_symop_operation_xyz
x,y,z
1/4-y,3/4+x,1/4+z
-x,1/2-y,z
1/4+y,1/4-x,3/4+z
x,-y,1/2-z
1/2-x,y,-z
3/4+y,1/4+x,1/4-z
1/4-y,1/4-x,1/4-z
-x,-y,-z
3/4+y,1/4-x,3/4-z
x,1/2+y,-z
3/4-y,3/4+x,1/4-z
-x,y,1/2+z
1/2+x,-y,z
1/4-y,3/4-x,3/4+z
3/4+y,3/4+x,3/4+z
1/2+x,1/2+y,1/2+z
3/4-y,1/4+x,3/4+z
1/2-x,-y,1/2+z
3/4+y,3/4-x,1/4+z
1/2+x,1/2-y,-z
-x,1/2+y,1/2-z
1/4+y,3/4+x,3/4-z
3/4-y,3/4-x,3/4-z
1/2-x,1/2-y,1/2-z
1/4+y,3/4-x,1/4-z
1/2+x,y,1/2-z
1/4-y,1/4+x,3/4-z
1/2-x,1/2+y,z
x,1/2-y,1/2+z
3/4-y,1/4-x,1/4+z
1/4+y,1/4+x,1/4+z
loop_
_atom_site_type_symbol
_atom_site_label
_atom_site_fract_x
_atom_site_fract_y
_atom_site_fract_z
Si Si1 0.543461 0.670275 0.678922
Si Si2 0.715902 0.334917 0.446914
Si Si3 0.740863 0.862749 0.707774
Si Si4 0.271380 0.673621 0.192000
Si Si5 0.183299 0.930177 0.124916
O O1 0.500000 0.750000 0.700107
O O2 0.557804 0.692197 0.625000
O O3 0.491533 0.589847 0.685290
O O4 0.633950 0.658090 0.695290
O O5 0.750000 0.330423 0.500000
O O6 0.653867 0.409144 0.441114
O O7 0.784925 0.358896 0.409393
O O8 0.740098 0.768237 0.698164
O O9 0.739512 0.874410 0.763134
O O10 0.814332 0.899011 0.678000
O O11 0.223141 0.643903 0.146874
O O12 0.248591 0.001410 0.125000
#
# Coordination Sequence:
#
# PCOD9573841 Si02
#       5
#    32  32  32  32  32
#     4  11  23  39  65  96 126 165 220 274 332 394
#     4  11  21  42  63  94 129 169 218 271 336 398
#     4  10  22  40  66  91 131 178 217 276 336 405
#     4  11  21  42  64  92 133 173 222 276 339 402
#     4  10  22  37  62  92 127 169 218 271 328 397
#
# _framework density 20.166615
#
# number of rings (size 3 to 8) (size 9 to 14) (size 15 to 20)
#    0.000    1.400    4.000    1.800    5.600    0.000 
#   14.400    0.000    0.000    0.000    0.000    0.000 
#    0.000    0.000    0.000    0.000    0.000    0.000 
#
# Total GULP energy -446135.217500 kJ/mol
# GULP energy per Si atom -5576.690219 kJ/mol
# Density = 2.012071 g / cm^3
# Si number density = 20.166615 Si / 1000 Ang^3
#
#
#
# Elastic Constant Matrix: (Units=GPa)
#
#
# Indices 1 2 3 4 5 6 
#
# 1 61.4927 23.6169 6.3474 0.0000 0.0000 0.0000
# 2 23.6169 61.4926 6.3473 0.0000 0.0000 0.0000
# 3 6.3474 6.3473 59.4659 0.0000 0.0000 0.0000
# 4 0.0000 0.0000 0.0000 18.6214 0.0000 0.0000
# 5 0.0000 0.0000 0.0000 0.0000 18.6226 0.0000
# 6 0.0000 0.0000 0.0000 0.0000 0.0000 33.1532
#
#
#
# Elastic Compliance Matrix: (Units=1/GPa)
#
#
# Indices 1 2 3 4 5 6 
#
# 1 0.019171 -0.007231 -0.001274 0.000000 0.000000 0.000000
# 2 -0.007231 0.019171 -0.001274 0.000000 0.000000 0.000000
# 3 -0.001274 -0.001274 0.017088 0.000000 0.000000 0.000000
# 4 0.000000 0.000000 0.000000 0.053702 0.000000 0.000000
# 5 0.000000 0.000000 0.000000 0.000000 0.053698 0.000000
# 6 0.000000 0.000000 0.000000 0.000000 0.000000 0.030163
#
#
# Mechanical properties :
#
#
# Convention : Reuss Voigt Hill
#
# Bulk Modulus (GPa) = 27.87843 28.34159 28.11001
# Shear Modulus (GPa) = 22.27074 23.82209 23.04641
#
# Velocity S-wave (km/s) = 3.32676 3.44068 3.38420
# Velocity P-wave (km/s) = 5.34888 5.46522 5.40736
#
# Compressibility (1/GPa) = 0.03587002
#
# Stress axis : x y z
#
# Youngs Moduli (GPa) = 52.16248 52.16240 58.51911
#
# Poissons Ratio (x) = 0.37720 0.07458
# Poissons Ratio (y) = 0.37720 0.07458
# Poissons Ratio (z) = 0.06648 0.06648
#
# Static dielectric constant tensor:
#      x y z
#    x 1.736100 0.000000 0.000000 
#    y 0.000000 1.736100 0.000000 
#    z 0.000000 0.000000 1.762940 
# 
# From -- ./inp_files/11332.got.cif
#   From: 2010.05.17/outbox.cif.g08.bks.cpg/sg142_6_cif.got.tgz:11332.got - 2010.05.20 13:39:18.
