data_PCOD9573773
_publ_section_title
;
Structure prediction by ZEFSAII (Michael W. Deem and Ramdas Pophale) SiO2 
 PCOD9573773
Probable space group: I 41/A C D
;
_chemical_formula_sum "Si O2"
_cell_formula_units_Z 176
_cell_length_a 24.152827
_cell_length_b 24.152827
_cell_length_c 15.493881
_cell_angle_alpha 90.000000
_cell_angle_beta 90.000000
_cell_angle_gamma 90.000000
_cell_volume 9038.495733
_symmetry_space_group_name_H-M "I 41/A C D"
_symmetry_group_IT_number 142
_space_group.IT_coordinate_system_code '2'
_symmetry_cell_setting 'tetragonal'
loop_
_space_group_symop_operation_xyz
x,y,z
1/4-y,3/4+x,1/4+z
-x,1/2-y,z
1/4+y,1/4-x,3/4+z
x,-y,1/2-z
1/2-x,y,-z
3/4+y,1/4+x,1/4-z
1/4-y,1/4-x,1/4-z
-x,-y,-z
3/4+y,1/4-x,3/4-z
x,1/2+y,-z
3/4-y,3/4+x,1/4-z
-x,y,1/2+z
1/2+x,-y,z
1/4-y,3/4-x,3/4+z
3/4+y,3/4+x,3/4+z
1/2+x,1/2+y,1/2+z
3/4-y,1/4+x,3/4+z
1/2-x,-y,1/2+z
3/4+y,3/4-x,1/4+z
1/2+x,1/2-y,-z
-x,1/2+y,1/2-z
1/4+y,3/4+x,3/4-z
3/4-y,3/4-x,3/4-z
1/2-x,1/2-y,1/2-z
1/4+y,3/4-x,1/4-z
1/2+x,y,1/2-z
1/4-y,1/4+x,3/4-z
1/2-x,1/2+y,z
x,1/2-y,1/2+z
3/4-y,1/4-x,1/4+z
1/4+y,1/4+x,1/4+z
loop_
_atom_site_type_symbol
_atom_site_label
_atom_site_fract_x
_atom_site_fract_y
_atom_site_fract_z
Si Si1 0.559178 0.066602 0.757118
Si Si2 0.716229 0.435765 0.729560
Si Si3 0.983239 0.570441 0.411782
Si Si4 0.146594 0.076038 0.439623
Si Si5 0.812751 0.272907 0.851927
Si Si6 0.637544 0.112457 0.375000
O O1 0.533503 0.083810 0.848186
O O2 0.618394 0.093064 0.741586
O O3 0.515121 0.080919 0.681545
O O4 0.565562 0.000000 0.750000
O O5 0.727426 0.500000 0.750000
O O6 0.771075 0.400822 0.751589
O O7 0.694148 0.429225 0.633006
O O8 0.667499 0.415553 0.792985
O O9 0.975889 0.504194 0.401516
O O10 0.927110 0.599246 0.380941
O O11 0.996892 0.582228 0.511240
O O12 0.086927 0.079526 0.394296
#
# Coordination Sequence:
#
# PCOD9573773 Si02
#       6
#    32  32  32  32  32  16
#     4  10  23  39  60  90 126 164 209 256 311 375
#     4  12  22  37  58  98 130 160 196 252 336 399
#     4  10  21  38  62  89 121 166 213 258 305 371
#     4  12  24  39  63  90 131 165 206 260 318 384
#     4  10  21  41  60  87 123 165 213 251 306 377
#     4  12  20  38  66  91 126 162 210 262 314 381
#
# _framework density 19.472265
#
# number of rings (size 3 to 8) (size 9 to 14) (size 15 to 20)
#    0.000    1.091    3.636    2.727    5.091    2.182 
#    0.000    0.000    0.000    4.909    0.000    0.000 
#    0.000    0.000    0.000    0.000    0.000    0.000 
#
# Total GULP energy -492205.793267 kJ/mol
# GULP energy per Si atom -5593.247651 kJ/mol
# Density = 1.942795 g / cm^3
# Si number density = 19.472265 Si / 1000 Ang^3
#
#
#
# Elastic Constant Matrix: (Units=GPa)
#
#
# Indices 1 2 3 4 5 6 
#
# 1 77.6446 36.2929 29.1808 0.0000 0.0000 0.0000
# 2 36.2929 77.6453 29.1810 0.0000 0.0000 0.0000
# 3 29.1808 29.1810 73.9815 0.0000 0.0000 0.0000
# 4 0.0000 0.0000 0.0000 22.8134 0.0000 0.0000
# 5 0.0000 0.0000 0.0000 0.0000 22.8149 0.0000
# 6 0.0000 0.0000 0.0000 0.0000 0.0000 11.6973
#
#
#
# Elastic Compliance Matrix: (Units=1/GPa)
#
#
# Indices 1 2 3 4 5 6 
#
# 1 0.017591 -0.006592 -0.004338 0.000000 0.000000 0.000000
# 2 -0.006592 0.017591 -0.004338 0.000000 0.000000 0.000000
# 3 -0.004338 -0.004338 0.016939 0.000000 0.000000 0.000000
# 4 0.000000 0.000000 0.000000 0.043834 0.000000 0.000000
# 5 0.000000 0.000000 0.000000 0.000000 0.043831 0.000000
# 6 0.000000 0.000000 0.000000 0.000000 0.000000 0.085490
#
#
# Mechanical properties :
#
#
# Convention : Reuss Voigt Hill
#
# Bulk Modulus (GPa) = 46.33127 46.50900 46.42013
# Shear Modulus (GPa) = 19.01086 20.43955 19.72521
#
# Velocity S-wave (km/s) = 3.12798 3.24338 3.18620
# Velocity P-wave (km/s) = 6.07378 6.16138 6.11774
#
# Compressibility (1/GPa) = 0.02158370
#
# Stress axis : x y z
#
# Youngs Moduli (GPa) = 56.84778 56.84825 59.03435
#
# Poissons Ratio (x) = 0.37473 0.25611
# Poissons Ratio (y) = 0.37473 0.25611
# Poissons Ratio (z) = 0.24663 0.24663
#
# Static dielectric constant tensor:
#      x y z
#    x 1.670390 0.000000 0.000000 
#    y 0.000000 1.670390 0.000000 
#    z 0.000000 0.000000 1.679890 
# 
# From -- ./inp_files/5568.got.cif
#   From: 2010.05.17/outbox.cif.g08.bks.cpg/sg142_3_cif.got.tgz:5568.got - 2010.05.20 13:39:18.
