data_PCOD9573863
_publ_section_title
;
Structure prediction by ZEFSAII (Michael W. Deem and Ramdas Pophale) SiO2 
 PCOD9573863
Probable space group: I 41/A C D
;
_chemical_formula_sum "Si O2"
_cell_formula_units_Z 168
_cell_length_a 20.207630
_cell_length_b 20.207630
_cell_length_c 20.647202
_cell_angle_alpha 90.000000
_cell_angle_beta 90.000000
_cell_angle_gamma 90.000000
_cell_volume 8431.250047
_symmetry_space_group_name_H-M "I 41/A C D"
_symmetry_group_IT_number 142
_space_group.IT_coordinate_system_code '2'
_symmetry_cell_setting 'tetragonal'
loop_
_space_group_symop_operation_xyz
x,y,z
1/4-y,3/4+x,1/4+z
-x,1/2-y,z
1/4+y,1/4-x,3/4+z
x,-y,1/2-z
1/2-x,y,-z
3/4+y,1/4+x,1/4-z
1/4-y,1/4-x,1/4-z
-x,-y,-z
3/4+y,1/4-x,3/4-z
x,1/2+y,-z
3/4-y,3/4+x,1/4-z
-x,y,1/2+z
1/2+x,-y,z
1/4-y,3/4-x,3/4+z
3/4+y,3/4+x,3/4+z
1/2+x,1/2+y,1/2+z
3/4-y,1/4+x,3/4+z
1/2-x,-y,1/2+z
3/4+y,3/4-x,1/4+z
1/2+x,1/2-y,-z
-x,1/2+y,1/2-z
1/4+y,3/4+x,3/4-z
3/4-y,3/4-x,3/4-z
1/2-x,1/2-y,1/2-z
1/4+y,3/4-x,1/4-z
1/2+x,y,1/2-z
1/4-y,1/4+x,3/4-z
1/2-x,1/2+y,z
x,1/2-y,1/2+z
3/4-y,1/4-x,1/4+z
1/4+y,1/4+x,1/4+z
loop_
_atom_site_type_symbol
_atom_site_label
_atom_site_fract_x
_atom_site_fract_y
_atom_site_fract_z
Si Si1 0.366098 0.349303 0.174808
Si Si2 0.281618 0.653701 0.696168
Si Si3 0.866397 0.798920 0.189254
Si Si4 0.594220 0.250306 0.494255
Si Si5 0.802404 0.345794 0.550677
Si Si6 0.000000 0.250000 0.125000
O O1 0.294899 0.368602 0.204936
O O2 0.390965 0.389302 0.111744
O O3 0.360267 0.271837 0.155304
O O4 0.428599 0.349052 0.223713
O O5 0.311350 0.698689 0.753947
O O6 0.341253 0.600719 0.693786
O O7 0.280795 0.677723 0.621644
O O8 0.941329 0.803792 0.218109
O O9 0.664552 0.283844 0.484643
O O10 0.561807 0.248224 0.423093
O O11 0.750000 0.371150 0.500000
#
# Coordination Sequence:
#
# PCOD9573863 Si02
#       6
#    32  32  32  32  32   8
#     4  12  22  37  62  98 128 166 212 272 334 390
#     4  10  22  39  64  91 122 172 220 265 318 399
#     4  11  21  38  60  94 134 169 208 262 333 396
#     4  11  22  36  62  94 125 166 205 268 329 390
#     4  10  22  43  65  88 122 174 228 263 321 399
#     4  12  20  36  58  92 136 156 204 262 336 404
#
# _framework density 19.92587
#
# number of rings (size 3 to 8) (size 9 to 14) (size 15 to 20)
#    0.000    1.143    3.810    5.143    0.000    0.000 
#    0.000    0.952    0.000    2.286    0.000    0.000 
#    0.000    0.000    0.000    0.000    0.000    0.000 
#
# Total GULP energy -467848.396771 kJ/mol
# GULP energy per Si atom -5569.623771 kJ/mol
# Density = 1.988052 g / cm^3
# Si number density = 19.925870 Si / 1000 Ang^3
#
#
#
# Elastic Constant Matrix: (Units=GPa)
#
#
# Indices 1 2 3 4 5 6 
#
# 1 90.4389 10.5613 23.5814 0.0000 0.0000 0.0000
# 2 10.5613 90.4389 23.5814 0.0000 0.0000 0.0000
# 3 23.5814 23.5814 84.9873 0.0000 0.0000 0.0000
# 4 0.0000 0.0000 0.0000 21.5345 0.0000 0.0000
# 5 0.0000 0.0000 0.0000 0.0000 21.5345 0.0000
# 6 0.0000 0.0000 0.0000 0.0000 0.0000 9.4744
#
#
#
# Elastic Compliance Matrix: (Units=1/GPa)
#
#
# Indices 1 2 3 4 5 6 
#
# 1 0.011947 -0.000572 -0.003156 0.000000 0.000000 0.000000
# 2 -0.000572 0.011947 -0.003156 0.000000 0.000000 0.000000
# 3 -0.003156 -0.003156 0.013518 0.000000 0.000000 0.000000
# 4 0.000000 0.000000 0.000000 0.046437 0.000000 0.000000
# 5 0.000000 0.000000 0.000000 0.000000 0.046437 0.000000
# 6 0.000000 0.000000 0.000000 0.000000 0.000000 0.105548
#
#
# Mechanical properties :
#
#
# Convention : Reuss Voigt Hill
#
# Bulk Modulus (GPa) = 42.29609 42.36815 42.33212
# Shear Modulus (GPa) = 19.41868 24.38472 21.90170
#
# Velocity S-wave (km/s) = 3.12516 3.50204 3.31895
# Velocity P-wave (km/s) = 5.85619 6.13689 5.99818
#
# Compressibility (1/GPa) = 0.02364285
#
# Stress axis : x y z
#
# Youngs Moduli (GPa) = 83.70329 83.70329 73.97579
#
# Poissons Ratio (x) = 0.04790 0.23348
# Poissons Ratio (y) = 0.04790 0.23348
# Poissons Ratio (z) = 0.26418 0.26418
#
# Static dielectric constant tensor:
#      x y z
#    x 1.824000 0.000000 0.000000 
#    y 0.000000 1.824000 0.000000 
#    z 0.000000 0.000000 1.871110 
# 
# From -- ./inp_files/10349.got.cif
#   From: 2010.05.17/outbox.cif.g08.bks.cpg/sg142_6_cif.got.tgz:10349.got - 2010.05.20 13:39:18.
