data_PCOD9573927
_publ_section_title
;
Structure prediction by ZEFSAII (Michael W. Deem and Ramdas Pophale) SiO2 
 PCOD9573927
Probable space group: I 41/A C D
;
_chemical_formula_sum "Si O2"
_cell_formula_units_Z 176
_cell_length_a 16.874945
_cell_length_b 16.874945
_cell_length_c 25.010797
_cell_angle_alpha 90.000000
_cell_angle_beta 90.000000
_cell_angle_gamma 90.000000
_cell_volume 7122.168813
_symmetry_space_group_name_H-M "I 41/A C D"
_symmetry_group_IT_number 142
_space_group.IT_coordinate_system_code '2'
_symmetry_cell_setting 'tetragonal'
loop_
_space_group_symop_operation_xyz
x,y,z
1/4-y,3/4+x,1/4+z
-x,1/2-y,z
1/4+y,1/4-x,3/4+z
x,-y,1/2-z
1/2-x,y,-z
3/4+y,1/4+x,1/4-z
1/4-y,1/4-x,1/4-z
-x,-y,-z
3/4+y,1/4-x,3/4-z
x,1/2+y,-z
3/4-y,3/4+x,1/4-z
-x,y,1/2+z
1/2+x,-y,z
1/4-y,3/4-x,3/4+z
3/4+y,3/4+x,3/4+z
1/2+x,1/2+y,1/2+z
3/4-y,1/4+x,3/4+z
1/2-x,-y,1/2+z
3/4+y,3/4-x,1/4+z
1/2+x,1/2-y,-z
-x,1/2+y,1/2-z
1/4+y,3/4+x,3/4-z
3/4-y,3/4-x,3/4-z
1/2-x,1/2-y,1/2-z
1/4+y,3/4-x,1/4-z
1/2+x,y,1/2-z
1/4-y,1/4+x,3/4-z
1/2-x,1/2+y,z
x,1/2-y,1/2+z
3/4-y,1/4-x,1/4+z
1/4+y,1/4+x,1/4+z
loop_
_atom_site_type_symbol
_atom_site_label
_atom_site_fract_x
_atom_site_fract_y
_atom_site_fract_z
Si Si1 0.807345 0.500000 0.750000
Si Si2 0.666670 0.319553 0.571769
Si Si3 0.379332 0.001527 0.429513
Si Si4 0.086629 0.663372 0.375000
Si Si5 0.413425 0.836576 0.625000
Si Si6 0.500000 0.750000 0.960164
Si Si7 0.914492 0.891265 0.982651
Si Si8 0.250000 0.803349 0.500000
O O1 0.862150 0.432429 0.777413
O O2 0.759539 0.539553 0.798671
O O3 0.695158 0.353431 0.628821
O O4 0.578483 0.282223 0.570890
O O5 0.727443 0.251849 0.550683
O O6 0.424253 0.965777 0.479784
O O7 0.404449 0.089774 0.414159
O O8 0.090724 0.749575 0.401917
O O9 0.346791 0.834075 0.669445
O O10 0.526851 0.823581 0.996566
O O11 0.826867 0.855773 0.991305
#
# Coordination Sequence:
#
# PCOD9573927 Si02
#       8
#    16  32  32  16  16  16  32  16
#     4  11  23  44  72 108 150 208 256 314 376 468
#     4  10  22  43  76 105 152 199 252 321 379 461
#     4  12  25  45  74 109 149 200 257 306 386 457
#     4  11  24  48  77 104 146 202 257 313 388 452
#     4  11  26  46  75 108 152 192 257 331 372 458
#     4  10  24  44  74 114 152 203 254 315 402 454
#     4  11  25  45  72 113 151 198 250 319 378 468
#     4   9  21  46  72 102 146 200 246 304 394 440
#
# _framework density 24.711575
#
# number of rings (size 3 to 8) (size 9 to 14) (size 15 to 20)
#    0.000    1.273    1.818    2.727    7.636    4.364 
#    6.545    0.000    0.000    0.000    0.000    0.000 
#    0.000    0.000    0.000    0.000    0.000    0.000 
#
# Total GULP energy -492236.568904 kJ/mol
# GULP energy per Si atom -5593.597374 kJ/mol
# Density = 2.465533 g / cm^3
# Si number density = 24.711575 Si / 1000 Ang^3
#
#
#
# Elastic Constant Matrix: (Units=GPa)
#
#
# Indices 1 2 3 4 5 6 
#
# 1 110.2251 45.7810 60.4959 0.0000 0.0000 0.0000
# 2 45.7810 110.2256 60.4956 0.0000 0.0000 0.0000
# 3 60.4959 60.4956 165.1201 0.0000 0.0000 0.0000
# 4 0.0000 0.0000 0.0000 35.4812 0.0000 0.0000
# 5 0.0000 0.0000 0.0000 0.0000 35.4813 0.0000
# 6 0.0000 0.0000 0.0000 0.0000 0.0000 34.3231
#
#
#
# Elastic Compliance Matrix: (Units=1/GPa)
#
#
# Indices 1 2 3 4 5 6 
#
# 1 0.012236 -0.003281 -0.003281 0.000000 0.000000 0.000000
# 2 -0.003281 0.012236 -0.003281 0.000000 0.000000 0.000000
# 3 -0.003281 -0.003281 0.008460 0.000000 0.000000 0.000000
# 4 0.000000 0.000000 0.000000 0.028184 0.000000 0.000000
# 5 0.000000 0.000000 0.000000 0.000000 0.028184 0.000000
# 6 0.000000 0.000000 0.000000 0.000000 0.000000 0.029135
#
#
# Mechanical properties :
#
#
# Convention : Reuss Voigt Hill
#
# Bulk Modulus (GPa) = 75.49351 79.90176 77.69763
# Shear Modulus (GPa) = 35.07907 35.64369 35.36138
#
# Velocity S-wave (km/s) = 3.77177 3.80200 3.78691
# Velocity P-wave (km/s) = 7.04162 7.18871 7.11555
#
# Compressibility (1/GPa) = 0.01324617
#
# Stress axis : x y z
#
# Youngs Moduli (GPa) = 81.72718 81.72783 118.20237
#
# Poissons Ratio (x) = 0.26819 0.38778
# Poissons Ratio (y) = 0.26819 0.38777
# Poissons Ratio (z) = 0.26812 0.26812
#
# Static dielectric constant tensor:
#      x y z
#    x 1.971530 0.000000 0.000000 
#    y 0.000000 1.971530 0.000000 
#    z 0.000000 0.000000 1.976010 
# 
# From -- ./inp_files/11533.got.cif
#   From: 2010.05.17/outbox.cif.g08.bks.cpg/sg142_6_cif.got.tgz:11533.got - 2010.05.20 13:39:18.
