data_PCOD9573006
_publ_section_title
;
Structure prediction by ZEFSAII (Michael W. Deem and Ramdas Pophale) SiO2 
 PCOD9573006
Probable space group: I 41/A M D
;
_chemical_formula_sum "Si O2"
_cell_formula_units_Z 80
_cell_length_a 11.098566
_cell_length_b 11.098566
_cell_length_c 29.386588
_cell_angle_alpha 90.000000
_cell_angle_beta 90.000000
_cell_angle_gamma 90.000000
_cell_volume 3619.786052
_symmetry_space_group_name_H-M "I 41/A M D"
_symmetry_group_IT_number 141
_space_group.IT_coordinate_system_code '2'
_symmetry_cell_setting 'tetragonal'
loop_
_space_group_symop_operation_xyz
x,y,z
1/4-y,3/4+x,1/4+z
-x,1/2-y,z
1/4+y,1/4-x,3/4+z
x,-y,-z
-x,1/2+y,-z
1/4+y,3/4+x,1/4-z
1/4-y,1/4-x,3/4-z
-x,-y,-z
3/4+y,1/4-x,3/4-z
x,1/2+y,-z
3/4-y,3/4+x,1/4-z
-x,y,z
x,1/2-y,z
3/4-y,1/4-x,3/4+z
3/4+y,3/4+x,1/4+z
1/2+x,1/2+y,1/2+z
3/4-y,1/4+x,3/4+z
1/2-x,-y,1/2+z
3/4+y,3/4-x,1/4+z
1/2+x,1/2-y,1/2-z
1/2-x,y,1/2-z
3/4+y,1/4+x,3/4-z
3/4-y,3/4-x,1/4-z
1/2-x,1/2-y,1/2-z
1/4+y,3/4-x,1/4-z
1/2+x,y,1/2-z
1/4-y,1/4+x,3/4-z
1/2-x,1/2+y,1/2+z
1/2+x,-y,1/2+z
1/4-y,3/4-x,1/4+z
1/4+y,1/4+x,3/4+z
loop_
_atom_site_type_symbol
_atom_site_label
_atom_site_fract_x
_atom_site_fract_y
_atom_site_fract_z
Si Si1 0.862469 0.112469 0.375000
Si Si2 0.135786 0.750000 0.214982
Si Si3 0.251401 0.536107 0.052997
Si Si4 0.500000 0.119767 0.968593
O O1 0.848312 0.250000 0.359711
O O2 0.773058 0.079779 0.415796
O O3 0.250000 0.750000 0.250000
O O4 0.150754 0.874694 0.187639
O O5 0.000000 0.750000 0.235559
O O6 0.374520 0.611880 0.058698
O O7 0.248787 0.500000 0.000000
O O8 0.500000 0.250000 0.993446
O O9 0.500000 0.000000 0.000000
#
# Coordination Sequence:
#
# PCOD9573006 Si02
#       4
#    16  16  32  16
#     4  11  24  44  71 106 142 186 237 296 360 429
#     4  10  22  42  70 100 141 188 237 287 351 422
#     4  10  22  42  65 100 136 183 231 288 350 412
#     4  10  20  36  64  98 135 174 227 283 343 406
#
# _framework density 22.100754999999999
#
# number of rings (size 3 to 8) (size 9 to 14) (size 15 to 20)
#    0.000    1.800    2.000    1.200    0.000   12.800 
#    7.200    0.000    0.000    0.000    0.000    0.000 
#    0.000    0.000    0.000    0.000    0.000    0.000 
#
# Total GULP energy -222837.718711 kJ/mol
# GULP energy per Si atom -5570.942968 kJ/mol
# Density = 2.205045 g / cm^3
# Si number density = 22.100755 Si / 1000 Ang^3
#
#
#
# Elastic Constant Matrix: (Units=GPa)
#
#
# Indices 1 2 3 4 5 6 
#
# 1 186.5779 44.1060 8.4239 0.0000 0.0000 0.0000
# 2 44.1060 186.5779 8.4239 0.0000 0.0000 0.0000
# 3 8.4239 8.4239 62.1340 0.0000 0.0000 0.0000
# 4 0.0000 0.0000 0.0000 19.9773 0.0000 0.0000
# 5 0.0000 0.0000 0.0000 0.0000 19.9773 0.0000
# 6 0.0000 0.0000 0.0000 0.0000 0.0000 21.3135
#
#
#
# Elastic Compliance Matrix: (Units=1/GPa)
#
#
# Indices 1 2 3 4 5 6 
#
# 1 0.005699 -0.001320 -0.000594 0.000000 0.000000 0.000000
# 2 -0.001320 0.005699 -0.000594 0.000000 0.000000 0.000000
# 3 -0.000594 -0.000594 0.016255 0.000000 0.000000 0.000000
# 4 0.000000 0.000000 0.000000 0.050057 0.000000 0.000000
# 5 0.000000 0.000000 0.000000 0.000000 0.050057 0.000000
# 6 0.000000 0.000000 0.000000 0.000000 0.000000 0.046919
#
#
# Mechanical properties :
#
#
# Convention : Reuss Voigt Hill
#
# Bulk Modulus (GPa) = 44.17467 61.91083 53.04275
# Shear Modulus (GPa) = 26.70293 37.20937 31.95615
#
# Velocity S-wave (km/s) = 3.47974 4.10765 3.80666
# Velocity P-wave (km/s) = 6.01465 7.11132 6.58585
#
# Compressibility (1/GPa) = 0.02263741
#
# Stress axis : x y z
#
# Youngs Moduli (GPa) = 175.48147 175.48148 61.51881
#
# Poissons Ratio (x) = 0.23169 0.03652
# Poissons Ratio (y) = 0.23169 0.03652
# Poissons Ratio (z) = 0.10416 0.10416
#
# Static dielectric constant tensor:
#      x y z
#    x 1.875180 0.000000 0.000000 
#    y 0.000000 1.875180 0.000000 
#    z 0.000000 0.000000 1.809180 
# 
# From -- ./inp_files/13669.got.cif
#   From: 2010.05.17/outbox.cif.g08.bks.cpg/sg141_7_cif.got.tgz:13669.got - 2010.05.20 13:30:51.
