data_PCOD9573612
_publ_section_title
;
Structure prediction by ZEFSAII (Michael W. Deem and Ramdas Pophale) SiO2 
 PCOD9573612
Probable space group: I 41/A C D
;
_chemical_formula_sum "Si O2"
_cell_formula_units_Z 120
_cell_length_a 24.593171
_cell_length_b 24.593171
_cell_length_c 8.970483
_cell_angle_alpha 90.000000
_cell_angle_beta 90.000000
_cell_angle_gamma 90.000000
_cell_volume 5425.563947
_symmetry_space_group_name_H-M "I 41/A C D"
_symmetry_group_IT_number 142
_space_group.IT_coordinate_system_code '2'
_symmetry_cell_setting 'tetragonal'
loop_
_space_group_symop_operation_xyz
x,y,z
1/4-y,3/4+x,1/4+z
-x,1/2-y,z
1/4+y,1/4-x,3/4+z
x,-y,1/2-z
1/2-x,y,-z
3/4+y,1/4+x,1/4-z
1/4-y,1/4-x,1/4-z
-x,-y,-z
3/4+y,1/4-x,3/4-z
x,1/2+y,-z
3/4-y,3/4+x,1/4-z
-x,y,1/2+z
1/2+x,-y,z
1/4-y,3/4-x,3/4+z
3/4+y,3/4+x,3/4+z
1/2+x,1/2+y,1/2+z
3/4-y,1/4+x,3/4+z
1/2-x,-y,1/2+z
3/4+y,3/4-x,1/4+z
1/2+x,1/2-y,-z
-x,1/2+y,1/2-z
1/4+y,3/4+x,3/4-z
3/4-y,3/4-x,3/4-z
1/2-x,1/2-y,1/2-z
1/4+y,3/4-x,1/4-z
1/2+x,y,1/2-z
1/4-y,1/4+x,3/4-z
1/2-x,1/2+y,z
x,1/2-y,1/2+z
3/4-y,1/4-x,1/4+z
1/4+y,1/4+x,1/4+z
loop_
_atom_site_type_symbol
_atom_site_label
_atom_site_fract_x
_atom_site_fract_y
_atom_site_fract_z
Si Si1 0.964227 0.862637 0.233978
Si Si2 0.500000 0.750000 0.125000
Si Si3 0.183411 0.000000 0.750000
Si Si4 0.562543 0.101821 0.057558
Si Si5 0.687630 0.589905 0.465202
O O1 0.909369 0.842339 0.156989
O O2 0.946527 0.895458 0.381143
O O3 0.995288 0.806611 0.284271
O O4 0.004168 0.896794 0.133160
O O5 0.158317 0.953149 0.645393
O O6 0.216279 0.033722 0.625000
O O7 0.603471 0.058915 0.127040
O O8 0.750000 0.572521 0.500000
O O9 0.658490 0.591511 0.625000
#
# Coordination Sequence:
#
# PCOD9573612 Si02
#       5
#    32   8  16  32  32
#     4  10  20  36  59  91 129 168 216 267 314 384
#     4   8  16  30  56  86 108 158 212 266 304 338
#     4  12  20  42  68  98 120 146 208 278 332 376
#     4  10  23  37  61  92 126 173 212 263 324 382
#     4  12  25  41  68  96 127 166 215 280 339 390
#
# _framework density 22.117518
#
# number of rings (size 3 to 8) (size 9 to 14) (size 15 to 20)
#    0.000    1.600    4.000    3.200    9.333    1.067 
#    0.000    1.333    2.933    0.000    0.000    0.000 
#    0.000    0.000    0.000    0.000    0.000    0.000 
#
# Total GULP energy -334690.140352 kJ/mol
# GULP energy per Si atom -5578.169006 kJ/mol
# Density = 2.206718 g / cm^3
# Si number density = 22.117518 Si / 1000 Ang^3
#
#
#
# Elastic Constant Matrix: (Units=GPa)
#
#
# Indices 1 2 3 4 5 6 
#
# 1 26.9286 0.6066 21.2927 0.0000 0.0000 0.0000
# 2 0.6066 26.9280 21.2934 0.0000 0.0000 0.0000
# 3 21.2927 21.2934 124.0628 0.0000 0.0000 0.0000
# 4 0.0000 0.0000 0.0000 23.2965 0.0000 0.0000
# 5 0.0000 0.0000 0.0000 0.0000 23.2970 0.0000
# 6 0.0000 0.0000 0.0000 0.0000 0.0000 33.8535
#
#
#
# Elastic Compliance Matrix: (Units=1/GPa)
#
#
# Indices 1 2 3 4 5 6 
#
# 1 0.043716 0.005725 -0.008486 0.000000 0.000000 0.000000
# 2 0.005725 0.043717 -0.008486 0.000000 0.000000 0.000000
# 3 -0.008486 -0.008486 0.010973 0.000000 0.000000 0.000000
# 4 0.000000 0.000000 0.000000 0.042925 0.000000 0.000000
# 5 0.000000 0.000000 0.000000 0.000000 0.042924 0.000000
# 6 0.000000 0.000000 0.000000 0.000000 0.000000 0.029539
#
#
# Mechanical properties :
#
#
# Convention : Reuss Voigt Hill
#
# Bulk Modulus (GPa) = 13.17280 29.36721 21.27000
# Shear Modulus (GPa) = 19.11375 25.07118 22.09246
#
# Velocity S-wave (km/s) = 2.94290 3.37047 3.16391
# Velocity P-wave (km/s) = 4.18525 5.33417 4.79425
#
# Compressibility (1/GPa) = 0.07591400
#
# Stress axis : x y z
#
# Youngs Moduli (GPa) = 22.87501 22.87414 91.13038
#
# Poissons Ratio (x) = -0.13096 0.77329
# Poissons Ratio (y) = -0.13097 0.77334
# Poissons Ratio (z) = 0.19411 0.19411
#
# Static dielectric constant tensor:
#      x y z
#    x 1.834540 0.000000 0.000000 
#    y 0.000000 1.834540 0.000000 
#    z 0.000000 0.000000 1.843410 
# 
# From -- ./inp_files/1888.got.cif
#   From: 2010.05.17/outbox.cif.g08.bks.cpg/sg142_1_cif.got.tgz:1888.got - 2010.05.20 13:39:18.
