data_PCOD9573891
_publ_section_title
;
Structure prediction by ZEFSAII (Michael W. Deem and Ramdas Pophale) SiO2 
 PCOD9573891
Probable space group: I 41/A C D
;
_chemical_formula_sum "Si O2"
_cell_formula_units_Z 144
_cell_length_a 17.700039
_cell_length_b 17.700039
_cell_length_c 20.560234
_cell_angle_alpha 90.000000
_cell_angle_beta 90.000000
_cell_angle_gamma 90.000000
_cell_volume 6441.344095
_symmetry_space_group_name_H-M "I 41/A C D"
_symmetry_group_IT_number 142
_space_group.IT_coordinate_system_code '2'
_symmetry_cell_setting 'tetragonal'
loop_
_space_group_symop_operation_xyz
x,y,z
1/4-y,3/4+x,1/4+z
-x,1/2-y,z
1/4+y,1/4-x,3/4+z
x,-y,1/2-z
1/2-x,y,-z
3/4+y,1/4+x,1/4-z
1/4-y,1/4-x,1/4-z
-x,-y,-z
3/4+y,1/4-x,3/4-z
x,1/2+y,-z
3/4-y,3/4+x,1/4-z
-x,y,1/2+z
1/2+x,-y,z
1/4-y,3/4-x,3/4+z
3/4+y,3/4+x,3/4+z
1/2+x,1/2+y,1/2+z
3/4-y,1/4+x,3/4+z
1/2-x,-y,1/2+z
3/4+y,3/4-x,1/4+z
1/2+x,1/2-y,-z
-x,1/2+y,1/2-z
1/4+y,3/4+x,3/4-z
3/4-y,3/4-x,3/4-z
1/2-x,1/2-y,1/2-z
1/4+y,3/4-x,1/4-z
1/2+x,y,1/2-z
1/4-y,1/4+x,3/4-z
1/2-x,1/2+y,z
x,1/2-y,1/2+z
3/4-y,1/4-x,1/4+z
1/4+y,1/4+x,1/4+z
loop_
_atom_site_type_symbol
_atom_site_label
_atom_site_fract_x
_atom_site_fract_y
_atom_site_fract_z
Si Si1 0.003881 0.034519 0.396772
Si Si2 0.750000 0.998028 0.000000
Si Si3 0.524336 0.088208 0.732631
Si Si4 0.890590 0.926838 0.818880
Si Si5 0.595266 0.419869 0.473785
O O1 0.966436 0.093119 0.345698
O O2 0.045741 0.063845 0.460999
O O3 0.947577 0.967245 0.418387
O O4 0.066758 0.996197 0.351710
O O5 0.793136 0.941022 0.951402
O O6 0.680515 0.047110 0.974338
O O7 0.439353 0.101493 0.758268
O O8 0.580433 0.141174 0.773303
O O9 0.541776 0.000000 0.750000
O O10 0.884492 0.865509 0.875000
#
# Coordination Sequence:
#
# PCOD9573891 Si02
#       5
#    32  16  32  32  32
#     4  10  23  41  64  96 140 165 219 286 343 401
#     4  12  22  38  72 102 120 166 232 278 346 400
#     4  10  22  42  63  97 136 171 216 286 338 402
#     4  11  22  41  65  95 133 173 214 274 343 412
#     4  11  24  41  67 101 127 178 226 284 343 410
#
# _framework density 22.355584
#
# number of rings (size 3 to 8) (size 9 to 14) (size 15 to 20)
#    0.000    1.333    6.667    0.000    3.111    3.556 
#    0.000    2.222    0.000    0.000    0.000    0.000 
#    0.000    0.000    0.000    0.000    0.000    0.000 
#
# Total GULP energy -401478.507137 kJ/mol
# GULP energy per Si atom -5576.090377 kJ/mol
# Density = 2.230470 g / cm^3
# Si number density = 22.355584 Si / 1000 Ang^3
#
#
#
# Elastic Constant Matrix: (Units=GPa)
#
#
# Indices 1 2 3 4 5 6 
#
# 1 58.8867 13.3802 17.5872 0.0000 0.0000 0.0000
# 2 13.3802 58.8884 17.5880 0.0000 0.0000 0.0000
# 3 17.5872 17.5880 111.5223 0.0000 0.0000 0.0000
# 4 0.0000 0.0000 0.0000 13.6507 0.0000 0.0000
# 5 0.0000 0.0000 0.0000 0.0000 13.6500 0.0000
# 6 0.0000 0.0000 0.0000 0.0000 0.0000 16.8312
#
#
#
# Elastic Compliance Matrix: (Units=1/GPa)
#
#
# Indices 1 2 3 4 5 6 
#
# 1 0.018481 -0.003493 -0.002364 0.000000 0.000000 0.000000
# 2 -0.003493 0.018481 -0.002364 0.000000 0.000000 0.000000
# 3 -0.002364 -0.002364 0.009712 0.000000 0.000000 0.000000
# 4 0.000000 0.000000 0.000000 0.073256 0.000000 0.000000
# 5 0.000000 0.000000 0.000000 0.000000 0.073260 0.000000
# 6 0.000000 0.000000 0.000000 0.000000 0.000000 0.059413
#
#
# Mechanical properties :
#
#
# Convention : Reuss Voigt Hill
#
# Bulk Modulus (GPa) = 33.07589 36.26757 34.67173
# Shear Modulus (GPa) = 17.91322 20.87586 19.39454
#
# Velocity S-wave (km/s) = 2.83377 3.05915 2.94861
# Velocity P-wave (km/s) = 5.05317 5.36061 5.20915
#
# Compressibility (1/GPa) = 0.03023350
#
# Stress axis : x y z
#
# Youngs Moduli (GPa) = 54.10837 54.10981 102.96183
#
# Poissons Ratio (x) = 0.18902 0.24336
# Poissons Ratio (y) = 0.18902 0.24337
# Poissons Ratio (z) = 0.12789 0.12790
#
# Static dielectric constant tensor:
#      x y z
#    x 1.872990 0.000000 0.000000 
#    y 0.000000 1.872990 0.000000 
#    z 0.000000 0.000000 1.933340 
# 
# From -- ./inp_files/10104.got.cif
#   From: 2010.05.17/outbox.cif.g08.bks.cpg/sg142_6_cif.got.tgz:10104.got - 2010.05.20 13:39:18.
