data_PCOD9573568
_publ_section_title
;
Structure prediction by ZEFSAII (Michael W. Deem and Ramdas Pophale) SiO2 
 PCOD9573568
Probable space group: I 41/A C D
;
_chemical_formula_sum "Si O2"
_cell_formula_units_Z 120
_cell_length_a 21.100483
_cell_length_b 21.100483
_cell_length_c 11.275093
_cell_angle_alpha 90.000000
_cell_angle_beta 90.000000
_cell_angle_gamma 90.000000
_cell_volume 5020.013973
_symmetry_space_group_name_H-M "I 41/A C D"
_symmetry_group_IT_number 142
_space_group.IT_coordinate_system_code '2'
_symmetry_cell_setting 'tetragonal'
loop_
_space_group_symop_operation_xyz
x,y,z
1/4-y,3/4+x,1/4+z
-x,1/2-y,z
1/4+y,1/4-x,3/4+z
x,-y,1/2-z
1/2-x,y,-z
3/4+y,1/4+x,1/4-z
1/4-y,1/4-x,1/4-z
-x,-y,-z
3/4+y,1/4-x,3/4-z
x,1/2+y,-z
3/4-y,3/4+x,1/4-z
-x,y,1/2+z
1/2+x,-y,z
1/4-y,3/4-x,3/4+z
3/4+y,3/4+x,3/4+z
1/2+x,1/2+y,1/2+z
3/4-y,1/4+x,3/4+z
1/2-x,-y,1/2+z
3/4+y,3/4-x,1/4+z
1/2+x,1/2-y,-z
-x,1/2+y,1/2-z
1/4+y,3/4+x,3/4-z
3/4-y,3/4-x,3/4-z
1/2-x,1/2-y,1/2-z
1/4+y,3/4-x,1/4-z
1/2+x,y,1/2-z
1/4-y,1/4+x,3/4-z
1/2-x,1/2+y,z
x,1/2-y,1/2+z
3/4-y,1/4-x,1/4+z
1/4+y,1/4+x,1/4+z
loop_
_atom_site_type_symbol
_atom_site_label
_atom_site_fract_x
_atom_site_fract_y
_atom_site_fract_z
Si Si1 0.406995 0.954131 0.939152
Si Si2 0.490766 0.500000 0.750000
Si Si3 0.000000 0.750000 0.125000
Si Si4 0.634306 0.918290 0.991743
Si Si5 0.935206 0.133832 0.290271
O O1 0.353125 0.942130 0.839757
O O2 0.412109 0.883853 0.993762
O O3 0.465587 0.982999 0.864596
O O4 0.381301 0.008382 0.022595
O O5 0.453594 0.566372 0.733524
O O6 0.061019 0.763651 0.042550
O O7 0.647369 0.897369 0.125000
O O8 0.575908 0.882324 0.930341
#
# Coordination Sequence:
#
# PCOD9573568 Si02
#       5
#    32  16   8  32  32
#     4  10  21  40  65  91 132 175 223 284 349 416
#     4  12  20  44  62  98 140 176 234 292 354 426
#     4  12  20  48  66  96 132 192 230 288 360 438
#     4  10  19  41  65  95 123 175 223 277 350 413
#     4  10  24  39  72  94 135 182 233 292 353 425
#
# _framework density 23.904316999999999
#
# number of rings (size 3 to 8) (size 9 to 14) (size 15 to 20)
#    1.600    0.000    5.333    0.000    0.000    1.067 
#    4.800    2.000    0.000    0.000    0.000    0.000 
#    0.000    0.000    0.000    0.000    0.000    0.000 
#
# Total GULP energy -334569.111179 kJ/mol
# GULP energy per Si atom -5576.151853 kJ/mol
# Density = 2.384991 g / cm^3
# Si number density = 23.904317 Si / 1000 Ang^3
#
#
#
# Elastic Constant Matrix: (Units=GPa)
#
#
# Indices 1 2 3 4 5 6 
#
# 1 150.1360 81.3810 30.5368 0.0000 0.0000 0.0000
# 2 81.3810 150.1360 30.5368 0.0000 0.0000 0.0000
# 3 30.5368 30.5368 35.7282 0.0000 0.0000 0.0000
# 4 0.0000 0.0000 0.0000 25.9436 0.0000 0.0000
# 5 0.0000 0.0000 0.0000 0.0000 25.9436 0.0000
# 6 0.0000 0.0000 0.0000 0.0000 0.0000 31.5486
#
#
#
# Elastic Compliance Matrix: (Units=1/GPa)
#
#
# Indices 1 2 3 4 5 6 
#
# 1 0.010061 -0.004484 -0.004766 0.000000 0.000000 0.000000
# 2 -0.004484 0.010061 -0.004766 0.000000 0.000000 0.000000
# 3 -0.004766 -0.004766 0.036137 0.000000 0.000000 0.000000
# 4 0.000000 0.000000 0.000000 0.038545 0.000000 0.000000
# 5 0.000000 0.000000 0.000000 0.000000 0.038545 0.000000
# 6 0.000000 0.000000 0.000000 0.000000 0.000000 0.031697
#
#
# Mechanical properties :
#
#
# Convention : Reuss Voigt Hill
#
# Bulk Modulus (GPa) = 35.43011 68.98992 52.21001
# Shear Modulus (GPa) = 24.69297 29.59019 27.14158
#
# Velocity S-wave (km/s) = 3.21751 3.52214 3.37326
# Velocity P-wave (km/s) = 5.35322 6.74271 6.08774
#
# Compressibility (1/GPa) = 0.02822458
#
# Stress axis : x y z
#
# Youngs Moduli (GPa) = 99.39827 99.39827 27.67269
#
# Poissons Ratio (x) = 0.44569 0.13190
# Poissons Ratio (y) = 0.44569 0.13190
# Poissons Ratio (z) = 0.47377 0.47377
#
# Static dielectric constant tensor:
#      x y z
#    x 1.947560 0.000000 0.000000 
#    y 0.000000 1.947560 0.000000 
#    z 0.000000 0.000000 1.954360 
# 
# From -- ./inp_files/5076.got.cif
#   From: 2010.05.17/outbox.cif.g08.bks.cpg/sg142_3_cif.got.tgz:5076.got - 2010.05.20 13:39:18.
