data_PCOD9573256
_publ_section_title
;
Structure prediction by ZEFSAII (Michael W. Deem and Ramdas Pophale) SiO2 
 PCOD9573256
Probable space group: I 41/A M D
;
_chemical_formula_sum "Si O2"
_cell_formula_units_Z 160
_cell_length_a 20.306195
_cell_length_b 20.306195
_cell_length_c 17.525194
_cell_angle_alpha 90.000000
_cell_angle_beta 90.000000
_cell_angle_gamma 90.000000
_cell_volume 7226.365752
_symmetry_space_group_name_H-M "I 41/A M D"
_symmetry_group_IT_number 141
_space_group.IT_coordinate_system_code '2'
_symmetry_cell_setting 'tetragonal'
loop_
_space_group_symop_operation_xyz
x,y,z
1/4-y,3/4+x,1/4+z
-x,1/2-y,z
1/4+y,1/4-x,3/4+z
x,-y,-z
-x,1/2+y,-z
1/4+y,3/4+x,1/4-z
1/4-y,1/4-x,3/4-z
-x,-y,-z
3/4+y,1/4-x,3/4-z
x,1/2+y,-z
3/4-y,3/4+x,1/4-z
-x,y,z
x,1/2-y,z
3/4-y,1/4-x,3/4+z
3/4+y,3/4+x,1/4+z
1/2+x,1/2+y,1/2+z
3/4-y,1/4+x,3/4+z
1/2-x,-y,1/2+z
3/4+y,3/4-x,1/4+z
1/2+x,1/2-y,1/2-z
1/2-x,y,1/2-z
3/4+y,1/4+x,3/4-z
3/4-y,3/4-x,1/4-z
1/2-x,1/2-y,1/2-z
1/4+y,3/4-x,1/4-z
1/2+x,y,1/2-z
1/4-y,1/4+x,3/4-z
1/2-x,1/2+y,1/2+z
1/2+x,-y,1/2+z
1/4-y,3/4-x,1/4+z
1/4+y,1/4+x,3/4+z
loop_
_atom_site_type_symbol
_atom_site_label
_atom_site_fract_x
_atom_site_fract_y
_atom_site_fract_z
Si Si1 0.285323 0.172779 0.046658
Si Si2 0.151353 0.635980 0.905514
Si Si3 0.073005 0.170735 0.502635
Si Si4 0.745204 0.673048 0.132036
Si Si5 0.887952 0.323143 0.796631
O O1 0.283608 0.250000 0.065983
O O2 0.230023 0.138491 0.097628
O O3 0.361673 0.151704 0.044480
O O4 0.259364 0.165389 0.959367
O O5 0.117135 0.669521 0.832836
O O6 0.124234 0.561898 0.910833
O O7 0.122952 0.665834 0.984117
O O8 0.077896 0.250000 0.515512
O O9 0.000000 0.157900 0.469367
O O10 0.730141 0.750000 0.147378
O O11 0.814663 0.659575 0.171858
O O12 0.927382 0.322619 0.875000
O O13 0.886791 0.250000 0.762730
#
# Coordination Sequence:
#
# PCOD9573256 Si02
#       5
#    32  32  32  32  32
#     4   9  17  29  44  64  89 119 161 208 249 287
#     4  11  18  28  47  64  85 123 167 208 247 290
#     4   9  18  31  46  65  92 129 171 209 243 290
#     4   9  18  32  44  60  89 126 165 207 252 291
#     4  11  21  31  42  60  90 128 168 211 250 284
#
# _framework density 22.141145000000002
#
# number of rings (size 3 to 8) (size 9 to 14) (size 15 to 20)
#    0.000    2.200    2.000    4.200    0.000    2.600 
#    0.000    0.000    0.000    0.000    0.000    0.000 
#    0.000    3.200    0.000    7.200    0.000    3.400 
#
# Total GULP energy -446586.646231 kJ/mol
# GULP energy per Si atom -5582.333078 kJ/mol
# Density = 2.209075 g / cm^3
# Si number density = 22.141145 Si / 1000 Ang^3
#
#
#
# Elastic Constant Matrix: (Units=GPa)
#
#
# Indices 1 2 3 4 5 6 
#
# 1 93.8867 50.0587 20.9886 0.0000 0.0000 0.0000
# 2 50.0587 93.8874 20.9894 0.0000 0.0000 0.0000
# 3 20.9886 20.9894 52.4136 0.0000 0.0000 0.0000
# 4 0.0000 0.0000 0.0000 10.3149 0.0000 0.0000
# 5 0.0000 0.0000 0.0000 0.0000 10.3143 0.0000
# 6 0.0000 0.0000 0.0000 0.0000 0.0000 16.7130
#
#
#
# Elastic Compliance Matrix: (Units=1/GPa)
#
#
# Indices 1 2 3 4 5 6 
#
# 1 0.015341 -0.007475 -0.003150 0.000000 0.000000 0.000000
# 2 -0.007475 0.015341 -0.003150 0.000000 0.000000 0.000000
# 3 -0.003150 -0.003150 0.021602 0.000000 0.000000 0.000000
# 4 0.000000 0.000000 0.000000 0.096947 0.000000 0.000000
# 5 0.000000 0.000000 0.000000 0.000000 0.096953 0.000000
# 6 0.000000 0.000000 0.000000 0.000000 0.000000 0.059834
#
#
# Mechanical properties :
#
#
# Convention : Reuss Voigt Hill
#
# Bulk Modulus (GPa) = 40.43054 47.14013 43.78533
# Shear Modulus (GPa) = 14.62792 17.34517 15.98654
#
# Velocity S-wave (km/s) = 2.57313 2.80195 2.68997
# Velocity P-wave (km/s) = 5.20846 5.63958 5.42830
#
# Compressibility (1/GPa) = 0.02473378
#
# Stress axis : x y z
#
# Youngs Moduli (GPa) = 65.18503 65.18512 46.29265
#
# Poissons Ratio (x) = 0.48728 0.14580
# Poissons Ratio (y) = 0.48728 0.14582
# Poissons Ratio (z) = 0.20531 0.20533
#
# Static dielectric constant tensor:
#      x y z
#    x 1.837510 0.000000 0.000000 
#    y 0.000000 1.837510 0.000000 
#    z 0.000000 0.000000 1.871830 
# 
# From -- ./inp_files/8555.got.cif
#   From: 2010.05.17/outbox.cif.g08.bks.cpg/sg141_5_cif.got.tgz:8555.got - 2010.05.20 13:30:51.
