data_PCOD9573417
_publ_section_title
;
Structure prediction by ZEFSAII (Michael W. Deem and Ramdas Pophale) SiO2 
 PCOD9573417
Probable space group: I 41/A C D
;
_chemical_formula_sum "Si O2"
_cell_formula_units_Z 168
_cell_length_a 20.282018
_cell_length_b 20.282018
_cell_length_c 19.947503
_cell_angle_alpha 90.000000
_cell_angle_beta 90.000000
_cell_angle_gamma 90.000000
_cell_volume 8205.609904
_symmetry_space_group_name_H-M "I 41/A C D"
_symmetry_group_IT_number 142
_space_group.IT_coordinate_system_code '2'
_symmetry_cell_setting 'tetragonal'
loop_
_space_group_symop_operation_xyz
x,y,z
1/4-y,3/4+x,1/4+z
-x,1/2-y,z
1/4+y,1/4-x,3/4+z
x,-y,1/2-z
1/2-x,y,-z
3/4+y,1/4+x,1/4-z
1/4-y,1/4-x,1/4-z
-x,-y,-z
3/4+y,1/4-x,3/4-z
x,1/2+y,-z
3/4-y,3/4+x,1/4-z
-x,y,1/2+z
1/2+x,-y,z
1/4-y,3/4-x,3/4+z
3/4+y,3/4+x,3/4+z
1/2+x,1/2+y,1/2+z
3/4-y,1/4+x,3/4+z
1/2-x,-y,1/2+z
3/4+y,3/4-x,1/4+z
1/2+x,1/2-y,-z
-x,1/2+y,1/2-z
1/4+y,3/4+x,3/4-z
3/4-y,3/4-x,3/4-z
1/2-x,1/2-y,1/2-z
1/4+y,3/4-x,1/4-z
1/2+x,y,1/2-z
1/4-y,1/4+x,3/4-z
1/2-x,1/2+y,z
x,1/2-y,1/2+z
3/4-y,1/4-x,1/4+z
1/4+y,1/4+x,1/4+z
loop_
_atom_site_type_symbol
_atom_site_label
_atom_site_fract_x
_atom_site_fract_y
_atom_site_fract_z
Si Si1 0.708539 0.461519 0.178802
Si Si2 0.323045 0.676569 0.770232
Si Si3 0.710988 0.345326 0.373746
Si Si4 0.000000 0.250000 0.125000
Si Si5 0.621080 0.718535 0.028446
Si Si6 0.990885 0.859804 0.634367
O O1 0.713389 0.500000 0.250000
O O2 0.760141 0.489860 0.125000
O O3 0.712482 0.385088 0.194956
O O4 0.635855 0.476033 0.148153
O O5 0.287249 0.686477 0.699419
O O6 0.396686 0.655227 0.745543
O O7 0.336459 0.730368 0.826835
O O8 0.653971 0.403971 0.375000
O O9 0.685641 0.293663 0.427736
O O10 0.997649 0.186136 0.173513
O O11 0.634090 0.757498 0.960512
O O12 0.931645 0.806903 0.629701
#
# Coordination Sequence:
#
# PCOD9573417 Si02
#       6
#    32  32  32   8  32  32
#     4  11  18  31  54  86 102 132 191 246 295 320
#     4  10  17  32  48  78 114 135 175 232 278 330
#     4   9  16  28  47  77 107 132 172 231 283 317
#     4  12  16  24  50  84 112 148 178 228 264 348
#     4  10  17  26  45  75 111 144 173 216 275 328
#     4   9  18  29  45  75 113 149 181 208 270 347
#
# _framework density 20.473797999999999
#
# number of rings (size 3 to 8) (size 9 to 14) (size 15 to 20)
#    0.000    2.095    8.571    2.286    0.000    0.000 
#    0.000    0.000    0.000    4.571   17.333    0.000 
#    0.000    0.000    0.000    0.000    0.000    0.000 
#
# Total GULP energy -468619.216435 kJ/mol
# GULP energy per Si atom -5578.800196 kJ/mol
# Density = 2.042720 g / cm^3
# Si number density = 20.473798 Si / 1000 Ang^3
#
#
#
# Elastic Constant Matrix: (Units=GPa)
#
#
# Indices 1 2 3 4 5 6 
#
# 1 39.5480 27.3153 42.3682 0.0000 0.0000 0.0000
# 2 27.3153 39.5481 42.3689 0.0000 0.0000 0.0000
# 3 42.3682 42.3689 197.9399 0.0000 0.0000 0.0000
# 4 0.0000 0.0000 0.0000 23.0527 0.0000 0.0000
# 5 0.0000 0.0000 0.0000 0.0000 23.0528 0.0000
# 6 0.0000 0.0000 0.0000 0.0000 0.0000 11.7576
#
#
#
# Elastic Compliance Matrix: (Units=1/GPa)
#
#
# Indices 1 2 3 4 5 6 
#
# 1 0.051135 -0.030612 -0.004393 0.000000 0.000000 0.000000
# 2 -0.030612 0.051135 -0.004393 0.000000 0.000000 0.000000
# 3 -0.004393 -0.004393 0.006933 0.000000 0.000000 0.000000
# 4 0.000000 0.000000 0.000000 0.043379 0.000000 0.000000
# 5 0.000000 0.000000 0.000000 0.000000 0.043379 0.000000
# 6 0.000000 0.000000 0.000000 0.000000 0.000000 0.085051
#
#
# Mechanical properties :
#
#
# Convention : Reuss Voigt Hill
#
# Bulk Modulus (GPa) = 32.88703 55.68232 44.28468
# Shear Modulus (GPa) = 13.51557 22.57155 18.04356
#
# Velocity S-wave (km/s) = 2.57211 3.32393 2.97189
# Velocity P-wave (km/s) = 4.99188 6.47976 5.78386
#
# Compressibility (1/GPa) = 0.03040712
#
# Stress axis : x y z
#
# Youngs Moduli (GPa) = 19.55601 19.55590 144.24557
#
# Poissons Ratio (x) = 0.59865 0.63363
# Poissons Ratio (y) = 0.59865 0.63368
# Poissons Ratio (z) = 0.08590 0.08591
#
# Static dielectric constant tensor:
#      x y z
#    x 1.759380 0.000000 0.000000 
#    y 0.000000 1.759380 0.000000 
#    z 0.000000 0.000000 1.752540 
# 
# From -- ./inp_files/9187.got.cif
#   From: 2010.05.17/outbox.cif.g08.bks.cpg/sg142_5_cif.got.tgz:9187.got - 2010.05.20 13:39:18.
