data_PCOD9573627
_publ_section_title
;
Structure prediction by ZEFSAII (Michael W. Deem and Ramdas Pophale) SiO2 
 PCOD9573627
Probable space group: I 41/A C D
;
_chemical_formula_sum "Si O2"
_cell_formula_units_Z 120
_cell_length_a 13.378932
_cell_length_b 13.378932
_cell_length_c 27.362739
_cell_angle_alpha 90.000000
_cell_angle_beta 90.000000
_cell_angle_gamma 90.000000
_cell_volume 4897.815945
_symmetry_space_group_name_H-M "I 41/A C D"
_symmetry_group_IT_number 142
_space_group.IT_coordinate_system_code '2'
_symmetry_cell_setting 'tetragonal'
loop_
_space_group_symop_operation_xyz
x,y,z
1/4-y,3/4+x,1/4+z
-x,1/2-y,z
1/4+y,1/4-x,3/4+z
x,-y,1/2-z
1/2-x,y,-z
3/4+y,1/4+x,1/4-z
1/4-y,1/4-x,1/4-z
-x,-y,-z
3/4+y,1/4-x,3/4-z
x,1/2+y,-z
3/4-y,3/4+x,1/4-z
-x,y,1/2+z
1/2+x,-y,z
1/4-y,3/4-x,3/4+z
3/4+y,3/4+x,3/4+z
1/2+x,1/2+y,1/2+z
3/4-y,1/4+x,3/4+z
1/2-x,-y,1/2+z
3/4+y,3/4-x,1/4+z
1/2+x,1/2-y,-z
-x,1/2+y,1/2-z
1/4+y,3/4+x,3/4-z
3/4-y,3/4-x,3/4-z
1/2-x,1/2-y,1/2-z
1/4+y,3/4-x,1/4-z
1/2+x,y,1/2-z
1/4-y,1/4+x,3/4-z
1/2-x,1/2+y,z
x,1/2-y,1/2+z
3/4-y,1/4-x,1/4+z
1/4+y,1/4+x,1/4+z
loop_
_atom_site_type_symbol
_atom_site_label
_atom_site_fract_x
_atom_site_fract_y
_atom_site_fract_z
Si Si1 0.000000 0.750000 0.125000
Si Si2 0.375471 0.874530 0.125000
Si Si3 0.350199 0.421503 0.529429
Si Si4 0.850354 0.591436 0.105219
Si Si5 0.526458 0.077268 0.450822
O O1 0.075092 0.817833 0.093983
O O2 0.265768 0.879571 0.097965
O O3 0.382580 0.778813 0.158189
O O4 0.250000 0.442789 0.500000
O O5 0.330035 0.391522 0.585272
O O6 0.416494 0.357148 0.491281
O O7 0.428327 0.513929 0.531078
O O8 0.894115 0.497789 0.075951
#
# Coordination Sequence:
#
# PCOD9573627 Si02
#       5
#     8  16  32  32  32
#     4  12  20  40  68 100 128 198 236 276 328 468
#     4  10  20  36  66 100 132 184 220 288 362 394
#     4  10  21  38  64  98 129 177 233 283 342 419
#     4  11  21  40  69  95 138 187 230 275 352 424
#     4  10  20  37  65  98 132 174 231 284 349 429
#
# _framework density 24.500717999999999
#
# number of rings (size 3 to 8) (size 9 to 14) (size 15 to 20)
#    0.000    1.600    5.333    3.200    0.000    0.000 
#    0.000    2.667    0.000    5.600    0.000    0.000 
#    0.000    0.000    0.000    0.000    0.000    0.000 
#
# Total GULP energy -334335.854778 kJ/mol
# GULP energy per Si atom -5572.264246 kJ/mol
# Density = 2.444495 g / cm^3
# Si number density = 24.500718 Si / 1000 Ang^3
#
#
#
# Elastic Constant Matrix: (Units=GPa)
#
#
# Indices 1 2 3 4 5 6 
#
# 1 86.9187 44.4421 48.0081 0.0000 0.0000 0.0000
# 2 44.4421 86.9182 48.0081 0.0000 0.0000 0.0000
# 3 48.0081 48.0081 145.4804 0.0000 0.0000 0.0000
# 4 0.0000 0.0000 0.0000 16.0209 0.0000 0.0000
# 5 0.0000 0.0000 0.0000 0.0000 16.0205 0.0000
# 6 0.0000 0.0000 0.0000 0.0000 0.0000 34.0542
#
#
#
# Elastic Compliance Matrix: (Units=1/GPa)
#
#
# Indices 1 2 3 4 5 6 
#
# 1 0.016787 -0.006755 -0.003311 0.000000 0.000000 0.000000
# 2 -0.006755 0.016788 -0.003311 0.000000 0.000000 0.000000
# 3 -0.003311 -0.003311 0.009059 0.000000 0.000000 0.000000
# 4 0.000000 0.000000 0.000000 0.062419 0.000000 0.000000
# 5 0.000000 0.000000 0.000000 0.000000 0.062420 0.000000
# 6 0.000000 0.000000 0.000000 0.000000 0.000000 0.029365
#
#
# Mechanical properties :
#
#
# Convention : Reuss Voigt Hill
#
# Bulk Modulus (GPa) = 62.96798 66.69264 64.83031
# Shear Modulus (GPa) = 21.84513 25.14304 23.49409
#
# Velocity S-wave (km/s) = 2.98923 3.20694 3.09999
# Velocity P-wave (km/s) = 6.13761 6.40253 6.27147
#
# Compressibility (1/GPa) = 0.01588109
#
# Stress axis : x y z
#
# Youngs Moduli (GPa) = 59.56819 59.56772 110.38954
#
# Poissons Ratio (x) = 0.40238 0.36547
# Poissons Ratio (y) = 0.40238 0.36547
# Poissons Ratio (z) = 0.19721 0.19721
#
# Static dielectric constant tensor:
#      x y z
#    x 2.103590 0.000000 0.000000 
#    y 0.000000 2.103590 0.000000 
#    z 0.000000 0.000000 2.568710 
# 
# From -- ./inp_files/12289.got.cif
#   From: 2010.05.17/outbox.cif.g08.bks.cpg/sg142_7_cif.got.tgz:12289.got - 2010.05.20 13:39:18.
