data_PCOD9573509
_publ_section_title
;
Structure prediction by ZEFSAII (Michael W. Deem and Ramdas Pophale) SiO2 
 PCOD9573509
Probable space group: I 41/A C D
;
_chemical_formula_sum "Si O2"
_cell_formula_units_Z 240
_cell_length_a 21.246656
_cell_length_b 21.246656
_cell_length_c 29.026997
_cell_angle_alpha 90.000000
_cell_angle_beta 90.000000
_cell_angle_gamma 90.000000
_cell_volume 13103.378341
_symmetry_space_group_name_H-M "I 41/A C D"
_symmetry_group_IT_number 142
_space_group.IT_coordinate_system_code '2'
_symmetry_cell_setting 'tetragonal'
loop_
_space_group_symop_operation_xyz
x,y,z
1/4-y,3/4+x,1/4+z
-x,1/2-y,z
1/4+y,1/4-x,3/4+z
x,-y,1/2-z
1/2-x,y,-z
3/4+y,1/4+x,1/4-z
1/4-y,1/4-x,1/4-z
-x,-y,-z
3/4+y,1/4-x,3/4-z
x,1/2+y,-z
3/4-y,3/4+x,1/4-z
-x,y,1/2+z
1/2+x,-y,z
1/4-y,3/4-x,3/4+z
3/4+y,3/4+x,3/4+z
1/2+x,1/2+y,1/2+z
3/4-y,1/4+x,3/4+z
1/2-x,-y,1/2+z
3/4+y,3/4-x,1/4+z
1/2+x,1/2-y,-z
-x,1/2+y,1/2-z
1/4+y,3/4+x,3/4-z
3/4-y,3/4-x,3/4-z
1/2-x,1/2-y,1/2-z
1/4+y,3/4-x,1/4-z
1/2+x,y,1/2-z
1/4-y,1/4+x,3/4-z
1/2-x,1/2+y,z
x,1/2-y,1/2+z
3/4-y,1/4-x,1/4+z
1/4+y,1/4+x,1/4+z
loop_
_atom_site_type_symbol
_atom_site_label
_atom_site_fract_x
_atom_site_fract_y
_atom_site_fract_z
Si Si1 0.830650 0.514899 0.951274
Si Si2 0.586001 0.745144 0.356179
Si Si3 0.582236 0.456618 0.631543
Si Si4 0.255922 0.066720 0.809867
Si Si5 0.867640 0.363750 0.299797
Si Si6 0.133746 0.883746 0.875000
Si Si7 0.381568 0.142734 0.807479
Si Si8 0.662422 0.736847 0.619501
O O1 0.758480 0.498855 0.937248
O O2 0.877860 0.456905 0.940960
O O3 0.847975 0.574743 0.920030
O O4 0.832335 0.518191 0.007549
O O5 0.531787 0.692479 0.348623
O O6 0.649888 0.707735 0.360609
O O7 0.602054 0.803818 0.324243
O O8 0.642050 0.469956 0.598332
O O9 0.604434 0.428737 0.680284
O O10 0.536422 0.515934 0.635435
O O11 0.327965 0.089687 0.816868
O O12 0.882388 0.354804 0.246766
O O13 0.148252 0.810211 0.883619
O O14 0.446756 0.124255 0.830915
O O15 0.359167 0.207029 0.831622
#
# Coordination Sequence:
#
# PCOD9573509 Si02
#       8
#    32  32  32  32  32  16  32  32
#     4  10  20  35  56  86 118 146 185 235 293 354
#     4   9  19  35  51  77 111 141 178 222 276 342
#     4  10  19  34  58  83 110 145 184 237 289 338
#     4   9  19  36  59  86 114 144 185 240 298 345
#     4  10  19  35  63  86 105 141 188 243 296 341
#     4  12  24  37  54  82 120 164 190 221 282 352
#     4   9  20  39  61  82 105 144 196 243 282 334
#     4  10  22  39  55  79 114 149 191 234 279 340
#
# _framework density 18.315887
#
# number of rings (size 3 to 8) (size 9 to 14) (size 15 to 20)
#    0.000    2.267    0.000    2.400    0.000    6.933 
#    0.000   18.667    0.000    0.000    0.000    0.000 
#    0.000    0.000    0.000    0.000    0.000    0.000 
#
# Total GULP energy -668256.977819 kJ/mol
# GULP energy per Si atom -5568.808148 kJ/mol
# Density = 1.827420 g / cm^3
# Si number density = 18.315887 Si / 1000 Ang^3
#
#
#
# Elastic Constant Matrix: (Units=GPa)
#
#
# Indices 1 2 3 4 5 6 
#
# 1 99.1156 43.9652 54.7979 0.0000 0.0000 0.0000
# 2 43.9652 99.1156 54.7979 0.0000 0.0000 0.0000
# 3 54.7979 54.7979 102.5614 0.0000 0.0000 0.0000
# 4 0.0000 0.0000 0.0000 17.1129 0.0000 0.0000
# 5 0.0000 0.0000 0.0000 0.0000 17.1129 0.0000
# 6 0.0000 0.0000 0.0000 0.0000 0.0000 25.5339
#
#
#
# Elastic Compliance Matrix: (Units=1/GPa)
#
#
# Indices 1 2 3 4 5 6 
#
# 1 0.014982 -0.003151 -0.006321 0.000000 0.000000 0.000000
# 2 -0.003151 0.014982 -0.006321 0.000000 0.000000 0.000000
# 3 -0.006321 -0.006321 0.016505 0.000000 0.000000 0.000000
# 4 0.000000 0.000000 0.000000 0.058436 0.000000 0.000000
# 5 0.000000 0.000000 0.000000 0.000000 0.058436 0.000000
# 6 0.000000 0.000000 0.000000 0.000000 0.000000 0.039164
#
#
# Mechanical properties :
#
#
# Convention : Reuss Voigt Hill
#
# Bulk Modulus (GPa) = 67.19491 67.54609 67.37050
# Shear Modulus (GPa) = 20.91616 21.76736 21.34176
#
# Velocity S-wave (km/s) = 3.38297 3.45112 3.41721
# Velocity P-wave (km/s) = 7.21288 7.26903 7.24101
#
# Compressibility (1/GPa) = 0.01488208
#
# Stress axis : x y z
#
# Youngs Moduli (GPa) = 66.74866 66.74866 60.58777
#
# Poissons Ratio (x) = 0.21030 0.38299
# Poissons Ratio (y) = 0.21030 0.38299
# Poissons Ratio (z) = 0.42193 0.42193
#
# Static dielectric constant tensor:
#      x y z
#    x 1.644130 0.000000 0.000000 
#    y 0.000000 1.644130 0.000000 
#    z 0.000000 0.000000 1.644070 
# 
# From -- ./inp_files/12754.got.cif
#   From: 2010.05.17/outbox.cif.g08.bks.cpg/sg142_7_cif.got.tgz:12754.got - 2010.05.20 13:39:18.
