data_PCOD9573108
_publ_section_title
;
Structure prediction by ZEFSAII (Michael W. Deem and Ramdas Pophale) SiO2 
 PCOD9573108
Probable space group: I 41/A M D
;
_chemical_formula_sum "Si O2"
_cell_formula_units_Z 176
_cell_length_a 18.623185
_cell_length_b 18.623185
_cell_length_c 26.388080
_cell_angle_alpha 90.000000
_cell_angle_beta 90.000000
_cell_angle_gamma 90.000000
_cell_volume 9151.993586
_symmetry_space_group_name_H-M "I 41/A M D"
_symmetry_group_IT_number 141
_space_group.IT_coordinate_system_code '2'
_symmetry_cell_setting 'tetragonal'
loop_
_space_group_symop_operation_xyz
x,y,z
1/4-y,3/4+x,1/4+z
-x,1/2-y,z
1/4+y,1/4-x,3/4+z
x,-y,-z
-x,1/2+y,-z
1/4+y,3/4+x,1/4-z
1/4-y,1/4-x,3/4-z
-x,-y,-z
3/4+y,1/4-x,3/4-z
x,1/2+y,-z
3/4-y,3/4+x,1/4-z
-x,y,z
x,1/2-y,z
3/4-y,1/4-x,3/4+z
3/4+y,3/4+x,1/4+z
1/2+x,1/2+y,1/2+z
3/4-y,1/4+x,3/4+z
1/2-x,-y,1/2+z
3/4+y,3/4-x,1/4+z
1/2+x,1/2-y,1/2-z
1/2-x,y,1/2-z
3/4+y,1/4+x,3/4-z
3/4-y,3/4-x,1/4-z
1/2-x,1/2-y,1/2-z
1/4+y,3/4-x,1/4-z
1/2+x,y,1/2-z
1/4-y,1/4+x,3/4-z
1/2-x,1/2+y,1/2+z
1/2+x,-y,1/2+z
1/4-y,3/4-x,1/4+z
1/4+y,1/4+x,3/4+z
loop_
_atom_site_type_symbol
_atom_site_label
_atom_site_fract_x
_atom_site_fract_y
_atom_site_fract_z
Si Si1 0.669904 0.592714 0.592804
Si Si2 0.083210 0.081021 0.189418
Si Si3 0.419349 0.164816 0.206573
Si Si4 0.918882 0.961738 0.055136
Si Si5 0.166467 0.916467 0.625000
Si Si6 0.672242 0.335909 0.517925
O O1 0.626117 0.614713 0.642698
O O2 0.636944 0.513187 0.583611
O O3 0.752451 0.592683 0.607562
O O4 0.664289 0.638147 0.540771
O O5 0.088378 0.131933 0.237969
O O6 0.000000 0.075281 0.174307
O O7 0.105183 0.001184 0.209320
O O8 0.500000 0.143635 0.187668
O O9 0.416506 0.250000 0.207630
O O10 0.358313 0.133261 0.171088
O O11 0.886252 0.882777 0.048162
O O12 0.000000 0.960957 0.076412
O O13 0.923364 0.000000 0.000000
O O14 0.663645 0.250000 0.521024
#
# Coordination Sequence:
#
# PCOD9573108 Si02
#       6
#    32  32  32  32  16  32
#     4  11  22  36  61  89 121 162 207 259 310 374
#     4  10  21  40  62  87 124 168 209 258 324 383
#     4  10  22  41  62  86 123 170 212 252 308 379
#     4   9  19  37  59  86 120 160 203 246 306 382
#     4  12  22  35  60  90 120 161 216 262 308 370
#     4  10  21  38  60  89 126 161 204 264 319 363
#
# _framework density 19.230782999999999
#
# number of rings (size 3 to 8) (size 9 to 14) (size 15 to 20)
#    0.000    1.818    1.818    2.182    0.000    4.000 
#    0.000    0.909    0.000    0.000    0.000    2.545 
#    0.000    0.000    0.000    0.000    0.000    0.000 
#
# Total GULP energy -491058.561779 kJ/mol
# GULP energy per Si atom -5580.210929 kJ/mol
# Density = 1.918701 g / cm^3
# Si number density = 19.230783 Si / 1000 Ang^3
#
#
#
# Elastic Constant Matrix: (Units=GPa)
#
#
# Indices 1 2 3 4 5 6 
#
# 1 102.9026 23.8832 23.8363 0.0000 0.0000 0.0000
# 2 23.8832 102.9026 23.8363 0.0000 0.0001 0.0000
# 3 23.8363 23.8363 52.7341 0.0000 0.0001 0.0000
# 4 0.0000 0.0000 0.0000 3827.4940 0.0050 0.0000
# 5 0.0000 0.0001 0.0001 0.0050 3827.4877 0.0000
# 6 0.0000 0.0000 0.0000 0.0000 0.0000 27.1755
#
#
#
# Elastic Compliance Matrix: (Units=1/GPa)
#
#
# Indices 1 2 3 4 5 6 
#
# 1 0.011079 -0.001576 -0.004295 0.000000 0.000000 0.000000
# 2 -0.001576 0.011079 -0.004295 0.000000 0.000000 0.000000
# 3 -0.004295 -0.004295 0.022846 0.000000 0.000000 0.000000
# 4 0.000000 0.000000 0.000000 0.000261 0.000000 0.000000
# 5 0.000000 0.000000 0.000000 0.000000 0.000261 0.000000
# 6 0.000000 0.000000 0.000000 0.000000 0.000000 0.036798
#
#
# Mechanical properties :
#
#
# Convention : Reuss Voigt Hill
#
# Bulk Modulus (GPa) = 40.53501 44.62789 42.58145
# Shear Modulus (GPa) = 45.09360 1548.89701 796.99530
#
# Velocity S-wave (km/s) = 4.84763 28.41081 20.37982
# Velocity P-wave (km/s) = 7.24270 33.15855 23.99944
#
# Compressibility (1/GPa) = 0.02467003
#
# Stress axis : x y z
#
# Youngs Moduli (GPa) = 90.26313 90.26313 43.77143
#
# Poissons Ratio (x) = 0.14229 0.18800
# Poissons Ratio (y) = 0.14229 0.18800
# Poissons Ratio (z) = 0.38769 0.38769
#
# Static dielectric constant tensor:
#      x y z
#    x 1.652740 0.000000 0.000000 
#    y 0.000000 1.652740 0.000000 
#    z 0.000000 0.000000 1.713240 
# 
# From -- ./inp_files/12922.got.cif
#   From: 2010.05.17/outbox.cif.g08.bks.cpg/sg141_7_cif.got.tgz:12922.got - 2010.05.20 13:30:51.
