data_PCOD9573638
_publ_section_title
;
Structure prediction by ZEFSAII (Michael W. Deem and Ramdas Pophale) SiO2 
 PCOD9573638
Probable space group: I 41/A C D
;
_chemical_formula_sum "Si O2"
_cell_formula_units_Z 240
_cell_length_a 20.442518
_cell_length_b 20.442518
_cell_length_c 30.128508
_cell_angle_alpha 90.000000
_cell_angle_beta 90.000000
_cell_angle_gamma 90.000000
_cell_volume 12590.599314
_symmetry_space_group_name_H-M "I 41/A C D"
_symmetry_group_IT_number 142
_space_group.IT_coordinate_system_code '2'
_symmetry_cell_setting 'tetragonal'
loop_
_space_group_symop_operation_xyz
x,y,z
1/4-y,3/4+x,1/4+z
-x,1/2-y,z
1/4+y,1/4-x,3/4+z
x,-y,1/2-z
1/2-x,y,-z
3/4+y,1/4+x,1/4-z
1/4-y,1/4-x,1/4-z
-x,-y,-z
3/4+y,1/4-x,3/4-z
x,1/2+y,-z
3/4-y,3/4+x,1/4-z
-x,y,1/2+z
1/2+x,-y,z
1/4-y,3/4-x,3/4+z
3/4+y,3/4+x,3/4+z
1/2+x,1/2+y,1/2+z
3/4-y,1/4+x,3/4+z
1/2-x,-y,1/2+z
3/4+y,3/4-x,1/4+z
1/2+x,1/2-y,-z
-x,1/2+y,1/2-z
1/4+y,3/4+x,3/4-z
3/4-y,3/4-x,3/4-z
1/2-x,1/2-y,1/2-z
1/4+y,3/4-x,1/4-z
1/2+x,y,1/2-z
1/4-y,1/4+x,3/4-z
1/2-x,1/2+y,z
x,1/2-y,1/2+z
3/4-y,1/4-x,1/4+z
1/4+y,1/4+x,1/4+z
loop_
_atom_site_type_symbol
_atom_site_label
_atom_site_fract_x
_atom_site_fract_y
_atom_site_fract_z
Si Si1 0.177427 0.556090 0.019257
Si Si2 0.000000 0.750000 0.528174
Si Si3 0.595129 0.647394 0.999505
Si Si4 0.318219 0.418895 0.927841
Si Si5 0.561470 0.506415 0.967216
Si Si6 0.279320 0.191060 0.546294
Si Si7 0.401238 0.654082 0.329887
Si Si8 0.805209 0.763787 0.131833
O O1 0.181827 0.491655 0.051239
O O2 0.145759 0.616824 0.045470
O O3 0.250000 0.567961 0.000000
O O4 0.123300 0.536070 0.982274
O O5 0.964417 0.803422 0.497692
O O6 0.949639 0.707675 0.558283
O O7 0.627143 0.623416 0.045577
O O8 0.578502 0.581941 0.973647
O O9 0.646198 0.682191 0.966983
O O10 0.328031 0.421970 0.875000
O O11 0.252618 0.378929 0.940943
O O12 0.539258 0.501918 0.916600
O O13 0.500000 0.500000 0.000000
O O14 0.250000 0.215168 0.500000
O O15 0.271470 0.239052 0.587020
O O16 0.433084 0.609689 0.368168
O O17 0.344506 0.702274 0.347499
#
# Coordination Sequence:
#
# PCOD9573638 Si02
#       8
#    32  16  32  32  32  32  32  32
#     4  11  24  43  66  96 139 178 215 284 354 415
#     4  12  20  41  57  94 132 168 214 279 346 391
#     4  10  20  37  59  86 126 161 206 270 323 386
#     4  10  21  38  64  93 122 168 226 266 325 406
#     4  11  21  39  62  94 129 170 220 265 341 412
#     4  10  21  38  58  87 122 163 210 270 326 391
#     4  12  24  39  64  99 133 170 219 290 340 405
#     4  12  22  38  64  95 126 167 223 275 342 399
#
# _framework density 19.061841000000001
#
# number of rings (size 3 to 8) (size 9 to 14) (size 15 to 20)
#    0.000    1.067    4.000    4.400    1.867    1.600 
#    0.000    0.333    0.000    0.000    0.000    0.000 
#    0.000    0.000    0.000    0.000    0.000    0.000 
#
# Total GULP energy -669834.810504 kJ/mol
# GULP energy per Si atom -5581.956754 kJ/mol
# Density = 1.901846 g / cm^3
# Si number density = 19.061841 Si / 1000 Ang^3
#
#
#
# Elastic Constant Matrix: (Units=GPa)
#
#
# Indices 1 2 3 4 5 6 
#
# 1 61.1831 23.5164 44.7090 0.0000 0.0000 0.0000
# 2 23.5164 61.1834 44.7090 0.0000 0.0000 0.0000
# 3 44.7090 44.7090 141.6323 0.0000 0.0000 0.0000
# 4 0.0000 0.0000 0.0000 18.4026 0.0000 0.0000
# 5 0.0000 0.0000 0.0000 0.0000 18.4030 0.0000
# 6 0.0000 0.0000 0.0000 0.0000 0.0000 28.6773
#
#
#
# Elastic Compliance Matrix: (Units=1/GPa)
#
#
# Indices 1 2 3 4 5 6 
#
# 1 0.022128 -0.004420 -0.005590 0.000000 0.000000 0.000000
# 2 -0.004420 0.022128 -0.005590 0.000000 0.000000 0.000000
# 3 -0.005590 -0.005590 0.010590 0.000000 0.000000 0.000000
# 4 0.000000 0.000000 0.000000 0.054340 0.000000 0.000000
# 5 0.000000 0.000000 0.000000 0.000000 0.054339 0.000000
# 6 0.000000 0.000000 0.000000 0.000000 0.000000 0.034871
#
#
# Mechanical properties :
#
#
# Convention : Reuss Voigt Hill
#
# Bulk Modulus (GPa) = 42.29095 54.42973 48.36034
# Shear Modulus (GPa) = 21.05464 23.16755 22.11110
#
# Velocity S-wave (km/s) = 3.32707 3.49002 3.40952
# Velocity P-wave (km/s) = 6.08223 6.69751 6.39727
#
# Compressibility (1/GPa) = 0.02364572
#
# Stress axis : x y z
#
# Youngs Moduli (GPa) = 45.19140 45.19169 94.43272
#
# Poissons Ratio (x) = 0.19977 0.52786
# Poissons Ratio (y) = 0.19977 0.52785
# Poissons Ratio (z) = 0.25261 0.25261
#
# Static dielectric constant tensor:
#      x y z
#    x 1.657490 0.000000 0.000000 
#    y 0.000000 1.657490 0.000000 
#    z 0.000000 0.000000 1.691970 
# 
# From -- ./inp_files/12747.got.cif
#   From: 2010.05.17/outbox.cif.g08.bks.cpg/sg142_7_cif.got.tgz:12747.got - 2010.05.20 13:39:18.
