data_PCOD9573474
_publ_section_title
;
Structure prediction by ZEFSAII (Michael W. Deem and Ramdas Pophale) SiO2 
 PCOD9573474
Probable space group: I 41/A C D
;
_chemical_formula_sum "Si O2"
_cell_formula_units_Z 240
_cell_length_a 20.218888
_cell_length_b 20.218888
_cell_length_c 30.035836
_cell_angle_alpha 90.000000
_cell_angle_beta 90.000000
_cell_angle_gamma 90.000000
_cell_volume 12278.752838
_symmetry_space_group_name_H-M "I 41/A C D"
_symmetry_group_IT_number 142
_space_group.IT_coordinate_system_code '2'
_symmetry_cell_setting 'tetragonal'
loop_
_space_group_symop_operation_xyz
x,y,z
1/4-y,3/4+x,1/4+z
-x,1/2-y,z
1/4+y,1/4-x,3/4+z
x,-y,1/2-z
1/2-x,y,-z
3/4+y,1/4+x,1/4-z
1/4-y,1/4-x,1/4-z
-x,-y,-z
3/4+y,1/4-x,3/4-z
x,1/2+y,-z
3/4-y,3/4+x,1/4-z
-x,y,1/2+z
1/2+x,-y,z
1/4-y,3/4-x,3/4+z
3/4+y,3/4+x,3/4+z
1/2+x,1/2+y,1/2+z
3/4-y,1/4+x,3/4+z
1/2-x,-y,1/2+z
3/4+y,3/4-x,1/4+z
1/2+x,1/2-y,-z
-x,1/2+y,1/2-z
1/4+y,3/4+x,3/4-z
3/4-y,3/4-x,3/4-z
1/2-x,1/2-y,1/2-z
1/4+y,3/4-x,1/4-z
1/2+x,y,1/2-z
1/4-y,1/4+x,3/4-z
1/2-x,1/2+y,z
x,1/2-y,1/2+z
3/4-y,1/4-x,1/4+z
1/4+y,1/4+x,1/4+z
loop_
_atom_site_type_symbol
_atom_site_label
_atom_site_fract_x
_atom_site_fract_y
_atom_site_fract_z
Si Si1 0.750000 0.782925 0.000000
Si Si2 0.551861 0.397502 0.469129
Si Si3 0.957226 0.099372 0.614471
Si Si4 0.842835 0.492399 0.392878
Si Si5 0.628546 0.918102 0.308319
Si Si6 0.374960 0.738063 0.544327
Si Si7 0.066579 0.790213 0.228456
Si Si8 0.672733 0.487471 0.501176
O O1 0.726793 0.831230 0.960161
O O2 0.812716 0.739022 0.988295
O O3 0.500650 0.412713 0.429520
O O4 0.583436 0.327509 0.456653
O O5 0.507888 0.378337 0.512243
O O6 0.613074 0.445698 0.478840
O O7 0.918924 0.168924 0.625000
O O8 0.901098 0.044396 0.616023
O O9 0.003186 0.095572 0.657226
O O10 0.775817 0.525817 0.375000
O O11 0.853805 0.431315 0.359598
O O12 0.841131 0.486497 0.445935
O O13 0.589892 0.849265 0.302922
O O14 0.691634 0.919640 0.274598
O O15 0.422253 0.796198 0.524835
O O16 0.000000 0.750000 0.215286
O O17 0.750000 0.464758 0.500000
#
# Coordination Sequence:
#
# PCOD9573474 Si02
#       8
#    16  32  32  32  32  32  32  32
#     4  10  18  36  62  98 120 172 230 268 328 396
#     4  11  24  40  61  96 139 176 211 280 353 395
#     4  11  21  37  66 103 131 165 227 284 339 409
#     4  11  22  41  69 100 129 176 238 290 337 416
#     4  11  20  40  70  95 131 178 227 282 336 404
#     4  10  20  36  63  92 133 168 219 275 332 407
#     4   9  20  38  66  96 127 171 219 275 341 402
#     4  12  26  44  67  95 140 184 228 283 344 418
#
# _framework density 19.545960000000001
#
# number of rings (size 3 to 8) (size 9 to 14) (size 15 to 20)
#    0.000    1.333    4.667    1.200    4.667    2.667 
#    4.800    0.000    8.800    0.000    0.000    0.000 
#    0.000    0.000    0.000    0.000    0.000    0.000 
#
# Total GULP energy -668670.869786 kJ/mol
# GULP energy per Si atom -5572.257248 kJ/mol
# Density = 1.950147 g / cm^3
# Si number density = 19.545960 Si / 1000 Ang^3
#
#
#
# Elastic Constant Matrix: (Units=GPa)
#
#
# Indices 1 2 3 4 5 6 
#
# 1 67.0887 32.2374 26.8256 0.0000 0.0000 0.0000
# 2 32.2374 67.0887 26.8256 0.0000 0.0000 0.0000
# 3 26.8256 26.8256 105.8917 0.0000 0.0000 0.0000
# 4 0.0000 0.0000 0.0000 6.2722 0.0000 0.0000
# 5 0.0000 0.0000 0.0000 0.0000 6.2722 0.0000
# 6 0.0000 0.0000 0.0000 0.0000 0.0000 37.4545
#
#
#
# Elastic Compliance Matrix: (Units=1/GPa)
#
#
# Indices 1 2 3 4 5 6 
#
# 1 0.020179 -0.008515 -0.002955 0.000000 0.000000 0.000000
# 2 -0.008515 0.020179 -0.002955 0.000000 0.000000 0.000000
# 3 -0.002955 -0.002955 0.010941 0.000000 0.000000 0.000000
# 4 0.000000 0.000000 0.000000 0.159434 0.000000 0.000000
# 5 0.000000 0.000000 0.000000 0.000000 0.159434 0.000000
# 6 0.000000 0.000000 0.000000 0.000000 0.000000 0.026699
#
#
# Mechanical properties :
#
#
# Convention : Reuss Voigt Hill
#
# Bulk Modulus (GPa) = 44.54499 45.76071 45.15285
# Shear Modulus (GPa) = 11.54208 20.27846 15.91027
#
# Velocity S-wave (km/s) = 2.43268 3.22448 2.85615
# Velocity P-wave (km/s) = 5.54346 6.10948 5.83334
#
# Compressibility (1/GPa) = 0.02244922
#
# Stress axis : x y z
#
# Youngs Moduli (GPa) = 49.55736 49.55736 91.40182
#
# Poissons Ratio (x) = 0.42197 0.27008
# Poissons Ratio (y) = 0.42197 0.27008
# Poissons Ratio (z) = 0.14643 0.14643
#
# Static dielectric constant tensor:
#      x y z
#    x 1.707410 0.000000 0.000000 
#    y 0.000000 1.707410 0.000000 
#    z 0.000000 0.000000 1.710230 
# 
# From -- ./inp_files/11674.got.cif
#   From: 2010.05.17/outbox.cif.g08.bks.cpg/sg142_6_cif.got.tgz:11674.got - 2010.05.20 13:39:18.
