data_PCOD9573077
_publ_section_title
;
Structure prediction by ZEFSAII (Michael W. Deem and Ramdas Pophale) SiO2 
 PCOD9573077
Probable space group: I 41/A M D
;
_chemical_formula_sum "Si O2"
_cell_formula_units_Z 96
_cell_length_a 27.965496
_cell_length_b 27.965496
_cell_length_c 7.321185
_cell_angle_alpha 90.000000
_cell_angle_beta 90.000000
_cell_angle_gamma 90.000000
_cell_volume 5725.671587
_symmetry_space_group_name_H-M "I 41/A M D"
_symmetry_group_IT_number 141
_space_group.IT_coordinate_system_code '2'
_symmetry_cell_setting 'tetragonal'
loop_
_space_group_symop_operation_xyz
x,y,z
1/4-y,3/4+x,1/4+z
-x,1/2-y,z
1/4+y,1/4-x,3/4+z
x,-y,-z
-x,1/2+y,-z
1/4+y,3/4+x,1/4-z
1/4-y,1/4-x,3/4-z
-x,-y,-z
3/4+y,1/4-x,3/4-z
x,1/2+y,-z
3/4-y,3/4+x,1/4-z
-x,y,z
x,1/2-y,z
3/4-y,1/4-x,3/4+z
3/4+y,3/4+x,1/4+z
1/2+x,1/2+y,1/2+z
3/4-y,1/4+x,3/4+z
1/2-x,-y,1/2+z
3/4+y,3/4-x,1/4+z
1/2+x,1/2-y,1/2-z
1/2-x,y,1/2-z
3/4+y,1/4+x,3/4-z
3/4-y,3/4-x,1/4-z
1/2-x,1/2-y,1/2-z
1/4+y,3/4-x,1/4-z
1/2+x,y,1/2-z
1/4-y,1/4+x,3/4-z
1/2-x,1/2+y,1/2+z
1/2+x,-y,1/2+z
1/4-y,3/4-x,1/4+z
1/4+y,1/4+x,3/4+z
loop_
_atom_site_type_symbol
_atom_site_label
_atom_site_fract_x
_atom_site_fract_y
_atom_site_fract_z
Si Si1 0.054179 0.195822 0.375000
Si Si2 0.444225 0.865853 0.515994
Si Si3 0.863516 0.555377 0.973187
Si Si4 0.298250 0.548250 0.875000
O O1 0.058508 0.250000 0.300244
O O2 0.092052 0.190192 0.534905
O O3 0.422305 0.827696 0.375000
O O4 0.500000 0.875542 0.478203
O O5 0.410394 0.912056 0.509857
O O6 0.839599 0.555770 0.773911
O O7 0.874756 0.500000 0.000000
O O8 0.825946 0.575946 0.125000
O O9 0.250000 0.548758 0.750000
#
# Coordination Sequence:
#
# PCOD9573077 Si02
#       4
#    16  32  32  16
#     4   9  17  32  55  80 106 138 180 230 276 318
#     4  10  21  36  57  82 111 146 186 229 277 334
#     4  11  22  37  55  81 113 147 183 227 282 332
#     4  12  21  34  59  84 110 145 186 238 281 330
#
# _framework density 16.766591999999999
#
# number of rings (size 3 to 8) (size 9 to 14) (size 15 to 20)
#    0.000    1.500    3.333    3.000    0.000    2.333 
#    0.000    0.000    0.000    1.000    0.000    0.000 
#    0.000    0.000    0.000    0.000    0.000    0.000 
#
# Total GULP energy -267676.813827 kJ/mol
# GULP energy per Si atom -5576.600288 kJ/mol
# Density = 1.672843 g / cm^3
# Si number density = 16.766592 Si / 1000 Ang^3
#
#
#
# Elastic Constant Matrix: (Units=GPa)
#
#
# Indices 1 2 3 4 5 6 
#
# 1 144.8777 51.3346 50.2765 0.0000 0.0000 0.0000
# 2 51.3346 144.9016 50.2709 0.0000 0.0000 0.0000
# 3 50.2765 50.2709 96.3790 0.0000 0.0000 0.0000
# 4 0.0000 0.0000 0.0000 21.8368 0.0000 0.0000
# 5 0.0000 0.0000 0.0000 0.0000 21.8595 0.0000
# 6 0.0000 0.0000 0.0000 0.0000 0.0000 15.2562
#
#
#
# Elastic Compliance Matrix: (Units=1/GPa)
#
#
# Indices 1 2 3 4 5 6 
#
# 1 0.008823 -0.001867 -0.003629 0.000000 0.000000 0.000000
# 2 -0.001867 0.008821 -0.003627 0.000000 0.000000 0.000000
# 3 -0.003629 -0.003627 0.014161 0.000000 0.000000 0.000000
# 4 0.000000 0.000000 0.000000 0.045794 0.000000 0.000000
# 5 0.000000 0.000000 0.000000 0.000000 0.045747 0.000000
# 6 0.000000 0.000000 0.000000 0.000000 0.000000 0.065547
#
#
# Mechanical properties :
#
#
# Convention : Reuss Voigt Hill
#
# Bulk Modulus (GPa) = 73.75166 76.65806 75.20486
# Shear Modulus (GPa) = 23.62297 27.40892 25.51594
#
# Velocity S-wave (km/s) = 3.75765 4.04757 3.90530
# Velocity P-wave (km/s) = 7.93154 8.22580 8.08001
#
# Compressibility (1/GPa) = 0.01355902
#
# Stress axis : x y z
#
# Youngs Moduli (GPa) = 113.33783 113.36621 70.61818
#
# Poissons Ratio (x) = 0.21163 0.25627
# Poissons Ratio (y) = 0.21158 0.25614
# Poissons Ratio (z) = 0.41129 0.41120
#
# Static dielectric constant tensor:
#      x y z
#    x 1.539310 0.000000 0.000000 
#    y 0.000000 1.539360 0.000000 
#    z 0.000000 0.000000 1.621720 
# 
# From -- ./inp_files/1185.got.cif
#   From: 2010.05.17/outbox.cif.g08.bks.cpg/sg141_1_cif.got.tgz:1185.got - 2010.05.20 13:30:51.
