data_PCOD9573843
_publ_section_title
;
Structure prediction by ZEFSAII (Michael W. Deem and Ramdas Pophale) SiO2 
 PCOD9573843
Probable space group: I 41/A C D
;
_chemical_formula_sum "Si O2"
_cell_formula_units_Z 80
_cell_length_a 27.625014
_cell_length_b 27.625014
_cell_length_c 5.125732
_cell_angle_alpha 90.000000
_cell_angle_beta 90.000000
_cell_angle_gamma 90.000000
_cell_volume 3911.658287
_symmetry_space_group_name_H-M "I 41/A C D"
_symmetry_group_IT_number 142
_space_group.IT_coordinate_system_code '2'
_symmetry_cell_setting 'tetragonal'
loop_
_space_group_symop_operation_xyz
x,y,z
1/4-y,3/4+x,1/4+z
-x,1/2-y,z
1/4+y,1/4-x,3/4+z
x,-y,1/2-z
1/2-x,y,-z
3/4+y,1/4+x,1/4-z
1/4-y,1/4-x,1/4-z
-x,-y,-z
3/4+y,1/4-x,3/4-z
x,1/2+y,-z
3/4-y,3/4+x,1/4-z
-x,y,1/2+z
1/2+x,-y,z
1/4-y,3/4-x,3/4+z
3/4+y,3/4+x,3/4+z
1/2+x,1/2+y,1/2+z
3/4-y,1/4+x,3/4+z
1/2-x,-y,1/2+z
3/4+y,3/4-x,1/4+z
1/2+x,1/2-y,-z
-x,1/2+y,1/2-z
1/4+y,3/4+x,3/4-z
3/4-y,3/4-x,3/4-z
1/2-x,1/2-y,1/2-z
1/4+y,3/4-x,1/4-z
1/2+x,y,1/2-z
1/4-y,1/4+x,3/4-z
1/2-x,1/2+y,z
x,1/2-y,1/2+z
3/4-y,1/4-x,1/4+z
1/4+y,1/4+x,1/4+z
loop_
_atom_site_type_symbol
_atom_site_label
_atom_site_fract_x
_atom_site_fract_y
_atom_site_fract_z
Si Si1 0.653746 0.596254 0.125000
Si Si2 0.750000 0.854917 0.500000
Si Si3 0.893838 0.143838 0.625000
Si Si4 0.182611 0.718504 0.816455
O O1 0.639652 0.540611 0.134270
O O2 0.634647 0.625375 0.373578
O O3 0.779939 0.821924 0.708230
O O4 0.947170 0.122411 0.566521
O O5 0.189688 0.761550 0.607343
#
# Coordination Sequence:
#
# PCOD9573843 Si02
#       4
#    16  16  16  32
#     4  10  22  38  59  80 124 163 191 242 285 345
#     4  10  22  40  58  90 120 158 204 242 294 346
#     4  10  22  40  57  87 122 152 185 240 315 348
#     4  11  22  37  63  88 115 151 195 246 289 351
#
# _framework density 20.451682999999999
#
# number of rings (size 3 to 8) (size 9 to 14) (size 15 to 20)
#    0.000    1.600    0.000    6.000    0.000   12.800 
#    0.000    8.000    0.000    3.600    0.000    0.000 
#    0.000    0.000    0.000    0.000    0.000    0.000 
#
# Total GULP energy -223104.026268 kJ/mol
# GULP energy per Si atom -5577.600657 kJ/mol
# Density = 2.040513 g / cm^3
# Si number density = 20.451683 Si / 1000 Ang^3
#
#
#
# Elastic Constant Matrix: (Units=GPa)
#
#
# Indices 1 2 3 4 5 6 
#
# 1 62.2202 47.0198 2.6007 0.0000 0.0000 0.0000
# 2 47.0198 62.2202 2.6007 0.0000 0.0000 0.0000
# 3 2.6007 2.6007 100.0850 0.0000 0.0000 0.0000
# 4 0.0000 0.0000 0.0000 19.5585 0.0000 0.0000
# 5 0.0000 0.0000 0.0000 0.0000 19.5585 0.0000
# 6 0.0000 0.0000 0.0000 0.0000 0.0000 50.5381
#
#
#
# Elastic Compliance Matrix: (Units=1/GPa)
#
#
# Indices 1 2 3 4 5 6 
#
# 1 0.037477 -0.028311 -0.000238 0.000000 0.000000 0.000000
# 2 -0.028311 0.037477 -0.000238 0.000000 0.000000 0.000000
# 3 -0.000238 -0.000238 0.010004 0.000000 0.000000 0.000000
# 4 0.000000 0.000000 0.000000 0.051129 0.000000 0.000000
# 5 0.000000 0.000000 0.000000 0.000000 0.051129 0.000000
# 6 0.000000 0.000000 0.000000 0.000000 0.000000 0.019787
#
#
# Mechanical properties :
#
#
# Convention : Reuss Voigt Hill
#
# Bulk Modulus (GPa) = 36.52003 36.55196 36.53599
# Shear Modulus (GPa) = 18.26790 29.41796 23.84293
#
# Velocity S-wave (km/s) = 2.99193 3.79676 3.41811
# Velocity P-wave (km/s) = 5.46178 6.09357 5.78630
#
# Compressibility (1/GPa) = 0.02738224
#
# Stress axis : x y z
#
# Youngs Moduli (GPa) = 26.68328 26.68328 99.96113
#
# Poissons Ratio (x) = 0.75543 0.02381
# Poissons Ratio (y) = 0.75543 0.02381
# Poissons Ratio (z) = 0.00635 0.00635
#
# Static dielectric constant tensor:
#      x y z
#    x 1.782270 0.000000 0.000000 
#    y 0.000000 1.782270 0.000000 
#    z 0.000000 0.000000 1.721730 
# 
# From -- ./inp_files/623.got.cif
#   From: 2010.05.17/outbox.cif.g08.bks.cpg/sg142_1_cif.got.tgz:623.got - 2010.05.20 13:39:18.
