data_PCOD9573516
_publ_section_title
;
Structure prediction by ZEFSAII (Michael W. Deem and Ramdas Pophale) SiO2 
 PCOD9573516
Probable space group: I 41/A C D
;
_chemical_formula_sum "Si O2"
_cell_formula_units_Z 128
_cell_length_a 18.572936
_cell_length_b 18.572936
_cell_length_c 18.552248
_cell_angle_alpha 90.000000
_cell_angle_beta 90.000000
_cell_angle_gamma 90.000000
_cell_volume 6399.671260
_symmetry_space_group_name_H-M "I 41/A C D"
_symmetry_group_IT_number 142
_space_group.IT_coordinate_system_code '2'
_symmetry_cell_setting 'tetragonal'
loop_
_space_group_symop_operation_xyz
x,y,z
1/4-y,3/4+x,1/4+z
-x,1/2-y,z
1/4+y,1/4-x,3/4+z
x,-y,1/2-z
1/2-x,y,-z
3/4+y,1/4+x,1/4-z
1/4-y,1/4-x,1/4-z
-x,-y,-z
3/4+y,1/4-x,3/4-z
x,1/2+y,-z
3/4-y,3/4+x,1/4-z
-x,y,1/2+z
1/2+x,-y,z
1/4-y,3/4-x,3/4+z
3/4+y,3/4+x,3/4+z
1/2+x,1/2+y,1/2+z
3/4-y,1/4+x,3/4+z
1/2-x,-y,1/2+z
3/4+y,3/4-x,1/4+z
1/2+x,1/2-y,-z
-x,1/2+y,1/2-z
1/4+y,3/4+x,3/4-z
3/4-y,3/4-x,3/4-z
1/2-x,1/2-y,1/2-z
1/4+y,3/4-x,1/4-z
1/2+x,y,1/2-z
1/4-y,1/4+x,3/4-z
1/2-x,1/2+y,z
x,1/2-y,1/2+z
3/4-y,1/4-x,1/4+z
1/4+y,1/4+x,1/4+z
loop_
_atom_site_type_symbol
_atom_site_label
_atom_site_fract_x
_atom_site_fract_y
_atom_site_fract_z
Si Si1 0.926061 0.796421 0.224904
Si Si2 0.343035 0.093035 0.875000
Si Si3 0.250000 0.126173 0.000000
Si Si4 0.197631 0.252086 0.180016
Si Si5 0.998935 0.076475 0.837926
O O1 0.874739 0.789853 0.293764
O O2 0.879307 0.769879 0.155428
O O3 0.000000 0.750000 0.230426
O O4 0.948316 0.878037 0.211110
O O5 0.423604 0.077732 0.902546
O O6 0.330107 0.041194 0.808401
O O7 0.306028 0.178007 0.042240
O O8 0.250000 0.250000 0.250000
O O9 0.251495 0.279866 0.118278
#
# Coordination Sequence:
#
# PCOD9573516 Si02
#       5
#    32  16  16  32  32
#     4  11  18  33  62  92 118 163 219 272 326 388
#     4  10  20  38  59  92 130 170 222 271 332 392
#     4  10  22  36  58  90 120 170 216 264 324 404
#     4   9  21  35  58  95 126 159 210 275 323 394
#     4  10  19  35  56  90 124 161 207 270 327 392
#
# _framework density 20.001027000000001
#
# number of rings (size 3 to 8) (size 9 to 14) (size 15 to 20)
#    0.000    2.000    2.500    1.500    3.500    0.000 
#    0.000   11.875    0.000   13.500   19.500    0.000 
#    0.000    0.000    0.000    0.000    0.000    0.000 
#
# Total GULP energy -357006.628247 kJ/mol
# GULP energy per Si atom -5578.228566 kJ/mol
# Density = 1.995550 g / cm^3
# Si number density = 20.001027 Si / 1000 Ang^3
#
#
#
# Elastic Constant Matrix: (Units=GPa)
#
#
# Indices 1 2 3 4 5 6 
#
# 1 107.4925 64.0967 52.6180 0.0000 0.0000 0.0000
# 2 64.0967 107.4925 52.6180 0.0000 0.0000 0.0000
# 3 52.6180 52.6180 85.3710 0.0000 0.0000 0.0000
# 4 0.0000 0.0000 0.0000 31.7959 0.0000 0.0000
# 5 0.0000 0.0000 0.0000 0.0000 31.7959 0.0000
# 6 0.0000 0.0000 0.0000 0.0000 0.0000 19.7867
#
#
#
# Elastic Compliance Matrix: (Units=1/GPa)
#
#
# Indices 1 2 3 4 5 6 
#
# 1 0.016207 -0.006837 -0.005775 0.000000 0.000000 0.000000
# 2 -0.006837 0.016207 -0.005775 0.000000 0.000000 0.000000
# 3 -0.005775 -0.005775 0.018832 0.000000 0.000000 0.000000
# 4 0.000000 0.000000 0.000000 0.031451 0.000000 0.000000
# 5 0.000000 0.000000 0.000000 0.000000 0.031451 0.000000
# 6 0.000000 0.000000 0.000000 0.000000 0.000000 0.050539
#
#
# Mechanical properties :
#
#
# Convention : Reuss Voigt Hill
#
# Bulk Modulus (GPa) = 69.09972 71.00237 70.05105
# Shear Modulus (GPa) = 24.23848 25.41059 24.82453
#
# Velocity S-wave (km/s) = 3.48496 3.56822 3.52684
# Velocity P-wave (km/s) = 7.12856 7.24933 7.18919
#
# Compressibility (1/GPa) = 0.01447184
#
# Stress axis : x y z
#
# Youngs Moduli (GPa) = 61.70293 61.70293 53.10026
#
# Poissons Ratio (x) = 0.42186 0.30665
# Poissons Ratio (y) = 0.42186 0.30665
# Poissons Ratio (z) = 0.35633 0.35633
#
# Static dielectric constant tensor:
#      x y z
#    x 1.701160 0.000000 0.000000 
#    y 0.000000 1.701160 0.000000 
#    z 0.000000 0.000000 1.755210 
# 
# From -- ./inp_files/8928.got.cif
#   From: 2010.05.17/outbox.cif.g08.bks.cpg/sg142_5_cif.got.tgz:8928.got - 2010.05.20 13:39:18.
