data_PCOD9573978
_publ_section_title
;
Structure prediction by ZEFSAII (Michael W. Deem and Ramdas Pophale) SiO2 
 PCOD9573978
Probable space group: I 41/A C D
;
_chemical_formula_sum "Si O2"
_cell_formula_units_Z 96
_cell_length_a 13.229932
_cell_length_b 13.229932
_cell_length_c 22.588119
_cell_angle_alpha 90.000000
_cell_angle_beta 90.000000
_cell_angle_gamma 90.000000
_cell_volume 3953.623332
_symmetry_space_group_name_H-M "I 41/A C D"
_symmetry_group_IT_number 142
_space_group.IT_coordinate_system_code '2'
_symmetry_cell_setting 'tetragonal'
loop_
_space_group_symop_operation_xyz
x,y,z
1/4-y,3/4+x,1/4+z
-x,1/2-y,z
1/4+y,1/4-x,3/4+z
x,-y,1/2-z
1/2-x,y,-z
3/4+y,1/4+x,1/4-z
1/4-y,1/4-x,1/4-z
-x,-y,-z
3/4+y,1/4-x,3/4-z
x,1/2+y,-z
3/4-y,3/4+x,1/4-z
-x,y,1/2+z
1/2+x,-y,z
1/4-y,3/4-x,3/4+z
3/4+y,3/4+x,3/4+z
1/2+x,1/2+y,1/2+z
3/4-y,1/4+x,3/4+z
1/2-x,-y,1/2+z
3/4+y,3/4-x,1/4+z
1/2+x,1/2-y,-z
-x,1/2+y,1/2-z
1/4+y,3/4+x,3/4-z
3/4-y,3/4-x,3/4-z
1/2-x,1/2-y,1/2-z
1/4+y,3/4-x,1/4-z
1/2+x,y,1/2-z
1/4-y,1/4+x,3/4-z
1/2-x,1/2+y,z
x,1/2-y,1/2+z
3/4-y,1/4-x,1/4+z
1/4+y,1/4+x,1/4+z
loop_
_atom_site_type_symbol
_atom_site_label
_atom_site_fract_x
_atom_site_fract_y
_atom_site_fract_z
Si Si1 0.271768 0.333693 0.158814
Si Si2 0.091912 0.478712 0.680358
Si Si3 0.511155 0.632732 0.524299
O O1 0.256469 0.262812 0.102336
O O2 0.327109 0.440288 0.155244
O O3 0.334870 0.273465 0.209639
O O4 0.163254 0.334190 0.191189
O O5 0.077876 0.500000 0.750000
O O6 0.132222 0.362415 0.685390
O O7 0.500000 0.750000 0.517400
#
# Coordination Sequence:
#
# PCOD9573978 Si02
#       3
#    32  32  32
#     4  10  23  43  72 103 149 190 246 322 366 457
#     4  10  23  42  70 111 143 194 257 305 381 460
#     4  10  23  47  71 103 146 197 252 306 388 449
#
# _framework density 24.281523
#
# number of rings (size 3 to 8) (size 9 to 14) (size 15 to 20)
#    0.000    2.000    0.000    1.000    9.333    2.667 
#   12.000    8.333    0.000    0.000    0.000    0.000 
#    0.000    0.000    0.000    0.000    0.000    0.000 
#
# Total GULP energy -268173.893553 kJ/mol
# GULP energy per Si atom -5586.956116 kJ/mol
# Density = 2.422626 g / cm^3
# Si number density = 24.281523 Si / 1000 Ang^3
#
#
#
# Elastic Constant Matrix: (Units=GPa)
#
#
# Indices 1 2 3 4 5 6 
#
# 1 119.5706 38.1795 47.0017 0.0000 0.0000 0.0000
# 2 38.1795 119.5706 47.0017 0.0000 0.0000 0.0000
# 3 47.0017 47.0017 93.2359 0.0000 0.0000 0.0000
# 4 0.0000 0.0000 0.0000 35.0529 0.0000 0.0000
# 5 0.0000 0.0000 0.0000 0.0000 35.0529 0.0000
# 6 0.0000 0.0000 0.0000 0.0000 0.0000 43.4391
#
#
#
# Elastic Compliance Matrix: (Units=1/GPa)
#
#
# Indices 1 2 3 4 5 6 
#
# 1 0.010674 -0.001613 -0.004568 0.000000 0.000000 0.000000
# 2 -0.001613 0.010674 -0.004568 0.000000 0.000000 0.000000
# 3 -0.004568 -0.004568 0.015331 0.000000 0.000000 0.000000
# 4 0.000000 0.000000 0.000000 0.028528 0.000000 0.000000
# 5 0.000000 0.000000 0.000000 0.000000 0.028528 0.000000
# 6 0.000000 0.000000 0.000000 0.000000 0.000000 0.023021
#
#
# Mechanical properties :
#
#
# Convention : Reuss Voigt Hill
#
# Bulk Modulus (GPa) = 65.86849 66.30477 66.08663
# Shear Modulus (GPa) = 34.88866 36.05526 35.47196
#
# Velocity S-wave (km/s) = 3.79468 3.85760 3.82627
# Velocity P-wave (km/s) = 6.81068 6.87076 6.84079
#
# Compressibility (1/GPa) = 0.01518176
#
# Stress axis : x y z
#
# Youngs Moduli (GPa) = 93.68787 93.68787 65.22756
#
# Poissons Ratio (x) = 0.15108 0.29795
# Poissons Ratio (y) = 0.15108 0.29795
# Poissons Ratio (z) = 0.42795 0.42795
#
# Static dielectric constant tensor:
#      x y z
#    x 1.964100 0.000000 0.000000 
#    y 0.000000 1.964100 0.000000 
#    z 0.000000 0.000000 1.988370 
# 
# From -- ./inp_files/8387.got.cif
#   From: 2010.05.17/outbox.cif.g08.bks.cpg/sg142_5_cif.got.tgz:8387.got - 2010.05.20 13:39:18.
