data_PCOD9573761
_publ_section_title
;
Structure prediction by ZEFSAII (Michael W. Deem and Ramdas Pophale) SiO2 
 PCOD9573761
Probable space group: I 41/A C D
;
_chemical_formula_sum "Si O2"
_cell_formula_units_Z 160
_cell_length_a 20.267784
_cell_length_b 20.267784
_cell_length_c 18.827421
_cell_angle_alpha 90.000000
_cell_angle_beta 90.000000
_cell_angle_gamma 90.000000
_cell_volume 7733.985766
_symmetry_space_group_name_H-M "I 41/A C D"
_symmetry_group_IT_number 142
_space_group.IT_coordinate_system_code '2'
_symmetry_cell_setting 'tetragonal'
loop_
_space_group_symop_operation_xyz
x,y,z
1/4-y,3/4+x,1/4+z
-x,1/2-y,z
1/4+y,1/4-x,3/4+z
x,-y,1/2-z
1/2-x,y,-z
3/4+y,1/4+x,1/4-z
1/4-y,1/4-x,1/4-z
-x,-y,-z
3/4+y,1/4-x,3/4-z
x,1/2+y,-z
3/4-y,3/4+x,1/4-z
-x,y,1/2+z
1/2+x,-y,z
1/4-y,3/4-x,3/4+z
3/4+y,3/4+x,3/4+z
1/2+x,1/2+y,1/2+z
3/4-y,1/4+x,3/4+z
1/2-x,-y,1/2+z
3/4+y,3/4-x,1/4+z
1/2+x,1/2-y,-z
-x,1/2+y,1/2-z
1/4+y,3/4+x,3/4-z
3/4-y,3/4-x,3/4-z
1/2-x,1/2-y,1/2-z
1/4+y,3/4-x,1/4-z
1/2+x,y,1/2-z
1/4-y,1/4+x,3/4-z
1/2-x,1/2+y,z
x,1/2-y,1/2+z
3/4-y,1/4-x,1/4+z
1/4+y,1/4+x,1/4+z
loop_
_atom_site_type_symbol
_atom_site_label
_atom_site_fract_x
_atom_site_fract_y
_atom_site_fract_z
Si Si1 0.094353 0.290169 0.347581
Si Si2 0.294317 0.574589 0.277783
Si Si3 0.070190 0.211319 0.549393
Si Si4 0.582873 0.900142 0.184970
Si Si5 0.122703 0.532674 0.600006
O O1 0.077733 0.213364 0.358664
O O2 0.085724 0.313463 0.267004
O O3 0.167196 0.313318 0.363792
O O4 0.286208 0.500000 0.250000
O O5 0.362628 0.603449 0.245876
O O6 0.311943 0.564461 0.361407
O O7 0.238765 0.613833 0.231964
O O8 0.073926 0.176075 0.625000
O O9 0.132008 0.260503 0.538623
O O10 0.000000 0.250000 0.547358
O O11 0.595051 0.845051 0.125000
O O12 0.601068 0.967440 0.143937
#
# Coordination Sequence:
#
# PCOD9573761 Si02
#       5
#    32  32  32  32  32
#     4  11  23  40  60  88 124 168 209 257 317 380
#     4   9  18  35  60  87 113 155 206 260 305 367
#     4  11  20  35  62  87 121 158 205 260 315 366
#     4   9  17  33  60  88 109 152 210 258 305 368
#     4  10  21  37  62  87 122 157 216 259 313 380
#
# _framework density 20.687909999999999
#
# number of rings (size 3 to 8) (size 9 to 14) (size 15 to 20)
#    0.000    2.000    4.000    3.000    0.000    0.000 
#    0.000    8.000    0.000    0.000    0.000    0.000 
#    0.000    0.000    0.000    0.000    0.000    0.000 
#
# Total GULP energy -445339.970432 kJ/mol
# GULP energy per Si atom -5566.749630 kJ/mol
# Density = 2.064082 g / cm^3
# Si number density = 20.687910 Si / 1000 Ang^3
#
#
#
# Elastic Constant Matrix: (Units=GPa)
#
#
# Indices 1 2 3 4 5 6 
#
# 1 45.5900 39.1005 7.9685 0.0000 0.0000 0.0000
# 2 39.1005 45.5901 7.9685 0.0000 0.0000 0.0000
# 3 7.9685 7.9685 87.2979 0.0000 0.0000 0.0000
# 4 0.0000 0.0000 0.0000 15.7632 0.0000 0.0000
# 5 0.0000 0.0000 0.0000 0.0000 15.7630 0.0000
# 6 0.0000 0.0000 0.0000 0.0000 0.0000 28.5166
#
#
#
# Elastic Compliance Matrix: (Units=1/GPa)
#
#
# Indices 1 2 3 4 5 6 
#
# 1 0.083055 -0.071040 -0.001097 0.000000 0.000000 0.000000
# 2 -0.071040 0.083054 -0.001097 0.000000 0.000000 0.000000
# 3 -0.001097 -0.001097 0.011655 0.000000 0.000000 0.000000
# 4 0.000000 0.000000 0.000000 0.063439 0.000000 0.000000
# 5 0.000000 0.000000 0.000000 0.000000 0.063440 0.000000
# 6 0.000000 0.000000 0.000000 0.000000 0.000000 0.035067
#
#
# Mechanical properties :
#
#
# Convention : Reuss Voigt Hill
#
# Bulk Modulus (GPa) = 31.95216 32.06145 32.00681
# Shear Modulus (GPa) = 10.06827 20.23792 15.15309
#
# Velocity S-wave (km/s) = 2.20846 3.13109 2.70934
# Velocity P-wave (km/s) = 4.68844 5.34817 5.02913
#
# Compressibility (1/GPa) = 0.03129679
#
# Stress axis : x y z
#
# Youngs Moduli (GPa) = 12.04028 12.04030 85.79838
#
# Poissons Ratio (x) = 0.85535 0.09409
# Poissons Ratio (y) = 0.85535 0.09409
# Poissons Ratio (z) = 0.01320 0.01320
#
# Static dielectric constant tensor:
#      x y z
#    x 1.757410 0.000000 0.000000 
#    y 0.000000 1.757410 0.000000 
#    z 0.000000 0.000000 1.846650 
# 
# From -- ./inp_files/7405.got.cif
#   From: 2010.05.17/outbox.cif.g08.bks.cpg/sg142_4_cif.got.tgz:7405.got - 2010.05.20 13:39:18.
