data_PCOD9573600
_publ_section_title
;
Structure prediction by ZEFSAII (Michael W. Deem and Ramdas Pophale) SiO2 
 PCOD9573600
Probable space group: I 41/A C D
;
_chemical_formula_sum "Si O2"
_cell_formula_units_Z 160
_cell_length_a 21.100513
_cell_length_b 21.100513
_cell_length_c 16.920867
_cell_angle_alpha 90.000000
_cell_angle_beta 90.000000
_cell_angle_gamma 90.000000
_cell_volume 7533.705515
_symmetry_space_group_name_H-M "I 41/A C D"
_symmetry_group_IT_number 142
_space_group.IT_coordinate_system_code '2'
_symmetry_cell_setting 'tetragonal'
loop_
_space_group_symop_operation_xyz
x,y,z
1/4-y,3/4+x,1/4+z
-x,1/2-y,z
1/4+y,1/4-x,3/4+z
x,-y,1/2-z
1/2-x,y,-z
3/4+y,1/4+x,1/4-z
1/4-y,1/4-x,1/4-z
-x,-y,-z
3/4+y,1/4-x,3/4-z
x,1/2+y,-z
3/4-y,3/4+x,1/4-z
-x,y,1/2+z
1/2+x,-y,z
1/4-y,3/4-x,3/4+z
3/4+y,3/4+x,3/4+z
1/2+x,1/2+y,1/2+z
3/4-y,1/4+x,3/4+z
1/2-x,-y,1/2+z
3/4+y,3/4-x,1/4+z
1/2+x,1/2-y,-z
-x,1/2+y,1/2-z
1/4+y,3/4+x,3/4-z
3/4-y,3/4-x,3/4-z
1/2-x,1/2-y,1/2-z
1/4+y,3/4-x,1/4-z
1/2+x,y,1/2-z
1/4-y,1/4+x,3/4-z
1/2-x,1/2+y,z
x,1/2-y,1/2+z
3/4-y,1/4-x,1/4+z
1/4+y,1/4+x,1/4+z
loop_
_atom_site_type_symbol
_atom_site_label
_atom_site_fract_x
_atom_site_fract_y
_atom_site_fract_z
Si Si1 0.756213 0.255343 0.881318
Si Si2 0.052309 0.372152 0.294325
Si Si3 0.451677 0.591076 0.518399
Si Si4 0.633297 0.444758 0.801552
Si Si5 0.919038 0.678861 0.224694
O O1 0.806437 0.219931 0.937402
O O2 0.704893 0.208210 0.842953
O O3 0.797697 0.284694 0.808935
O O4 0.721036 0.315128 0.919462
O O5 0.115681 0.359757 0.244868
O O6 0.063243 0.340210 0.380631
O O7 0.991954 0.336059 0.257841
O O8 0.510559 0.640255 0.518132
O O9 0.663189 0.500000 0.750000
O O10 0.675216 0.425216 0.875000
O O11 0.620721 0.382215 0.750685
#
# Coordination Sequence:
#
# PCOD9573600 Si02
#       5
#    32  32  32  32  32
#     4  10  21  36  60  93 136 174 218 277 356 410
#     4  11  19  35  61  96 132 171 222 282 354 427
#     4  10  20  35  59  99 129 168 222 283 349 425
#     4  12  23  41  63  99 137 184 236 288 342 417
#     4  11  20  33  63  93 132 170 218 280 355 421
#
# _framework density 21.237888000000002
#
# number of rings (size 3 to 8) (size 9 to 14) (size 15 to 20)
#    0.000    1.200    8.000    0.600    0.000    0.000 
#    0.000    1.000    0.000    0.000   31.200    0.000 
#    0.000    0.000    0.000    0.000    0.000    0.000 
#
# Total GULP energy -447475.857431 kJ/mol
# GULP energy per Si atom -5593.448218 kJ/mol
# Density = 2.118955 g / cm^3
# Si number density = 21.237888 Si / 1000 Ang^3
#
#
#
# Elastic Constant Matrix: (Units=GPa)
#
#
# Indices 1 2 3 4 5 6 
#
# 1 100.0209 34.2963 43.0520 0.0000 0.0000 0.0000
# 2 34.2963 100.0209 43.0520 0.0000 0.0000 0.0000
# 3 43.0520 43.0520 48.9840 0.0000 0.0000 0.0000
# 4 0.0000 0.0000 0.0000 26.3027 0.0000 0.0000
# 5 0.0000 0.0000 0.0000 0.0000 26.3027 0.0000
# 6 0.0000 0.0000 0.0000 0.0000 0.0000 40.7996
#
#
#
# Elastic Compliance Matrix: (Units=1/GPa)
#
#
# Indices 1 2 3 4 5 6 
#
# 1 0.016134 0.000919 -0.014988 0.000000 0.000000 0.000000
# 2 0.000919 0.016134 -0.014988 0.000000 0.000000 0.000000
# 3 -0.014988 -0.014988 0.046761 0.000000 0.000000 0.000000
# 4 0.000000 0.000000 0.000000 0.038019 0.000000 0.000000
# 5 0.000000 0.000000 0.000000 0.000000 0.038019 0.000000
# 6 0.000000 0.000000 0.000000 0.000000 0.000000 0.024510
#
#
# Mechanical properties :
#
#
# Convention : Reuss Voigt Hill
#
# Bulk Modulus (GPa) = 47.81254 54.42517 51.11885
# Shear Modulus (GPa) = 20.43638 27.25605 23.84622
#
# Velocity S-wave (km/s) = 3.10540 3.58630 3.35448
# Velocity P-wave (km/s) = 5.95145 6.54453 6.25502
#
# Compressibility (1/GPa) = 0.02091502
#
# Stress axis : x y z
#
# Youngs Moduli (GPa) = 61.98081 61.98081 21.38553
#
# Poissons Ratio (x) = -0.05696 0.32052
# Poissons Ratio (y) = -0.05696 0.32052
# Poissons Ratio (z) = 0.92896 0.92896
#
# Static dielectric constant tensor:
#      x y z
#    x 1.762800 0.000000 0.000000 
#    y 0.000000 1.762800 0.000000 
#    z 0.000000 0.000000 1.810420 
# 
# From -- ./inp_files/7426.got.cif
#   From: 2010.05.17/outbox.cif.g08.bks.cpg/sg142_4_cif.got.tgz:7426.got - 2010.05.20 13:39:18.
