data_PCOD9573722
_publ_section_title
;
Structure prediction by ZEFSAII (Michael W. Deem and Ramdas Pophale) SiO2 
 PCOD9573722
Probable space group: I 41/A C D
;
_chemical_formula_sum "Si O2"
_cell_formula_units_Z 136
_cell_length_a 17.782732
_cell_length_b 17.782732
_cell_length_c 20.696660
_cell_angle_alpha 90.000000
_cell_angle_beta 90.000000
_cell_angle_gamma 90.000000
_cell_volume 6544.812844
_symmetry_space_group_name_H-M "I 41/A C D"
_symmetry_group_IT_number 142
_space_group.IT_coordinate_system_code '2'
_symmetry_cell_setting 'tetragonal'
loop_
_space_group_symop_operation_xyz
x,y,z
1/4-y,3/4+x,1/4+z
-x,1/2-y,z
1/4+y,1/4-x,3/4+z
x,-y,1/2-z
1/2-x,y,-z
3/4+y,1/4+x,1/4-z
1/4-y,1/4-x,1/4-z
-x,-y,-z
3/4+y,1/4-x,3/4-z
x,1/2+y,-z
3/4-y,3/4+x,1/4-z
-x,y,1/2+z
1/2+x,-y,z
1/4-y,3/4-x,3/4+z
3/4+y,3/4+x,3/4+z
1/2+x,1/2+y,1/2+z
3/4-y,1/4+x,3/4+z
1/2-x,-y,1/2+z
3/4+y,3/4-x,1/4+z
1/2+x,1/2-y,-z
-x,1/2+y,1/2-z
1/4+y,3/4+x,3/4-z
3/4-y,3/4-x,3/4-z
1/2-x,1/2-y,1/2-z
1/4+y,3/4-x,1/4-z
1/2+x,y,1/2-z
1/4-y,1/4+x,3/4-z
1/2-x,1/2+y,z
x,1/2-y,1/2+z
3/4-y,1/4-x,1/4+z
1/4+y,1/4+x,1/4+z
loop_
_atom_site_type_symbol
_atom_site_label
_atom_site_fract_x
_atom_site_fract_y
_atom_site_fract_z
Si Si1 0.666893 0.416893 0.875000
Si Si2 0.235532 0.375372 0.165499
Si Si3 0.889866 0.304089 0.353797
Si Si4 0.294594 0.500000 0.250000
Si Si5 0.980484 0.397188 0.044729
Si Si6 0.000000 0.250000 0.125000
O O1 0.666681 0.478519 0.817915
O O2 0.674191 0.339935 0.836344
O O3 0.174403 0.424403 0.125000
O O4 0.313729 0.351788 0.127993
O O5 0.249906 0.427417 0.227580
O O6 0.203234 0.298543 0.194071
O O7 0.902497 0.219746 0.384077
O O8 0.874088 0.291050 0.277916
O O9 0.003528 0.320682 0.079086
#
# Coordination Sequence:
#
# PCOD9573722 Si02
#       6
#    16  32  32  16  32   8
#     4  11  26  46  76 102 148 198 256 309 384 458
#     4  12  27  45  73 108 150 195 250 316 385 464
#     4  11  26  47  76 105 145 196 250 315 376 457
#     4  12  26  46  72 112 146 198 256 314 390 462
#     4  11  24  46  71 102 144 199 242 312 376 452
#     4  10  20  42  66  96 136 182 256 280 366 442
#
# _framework density 20.779814999999999
#
# number of rings (size 3 to 8) (size 9 to 14) (size 15 to 20)
#    0.000    0.706    4.706    2.118    6.588    0.000 
#    0.000    1.176    0.000    0.000    0.000    0.000 
#    0.000    0.000    0.000    0.000    0.000    0.000 
#
# Total GULP energy -379073.308446 kJ/mol
# GULP energy per Si atom -5574.607477 kJ/mol
# Density = 2.073252 g / cm^3
# Si number density = 20.779815 Si / 1000 Ang^3
#
#
#
# Elastic Constant Matrix: (Units=GPa)
#
#
# Indices 1 2 3 4 5 6 
#
# 1 132.5404 55.2908 58.2974 0.0000 0.0000 0.0000
# 2 55.2908 132.5404 58.2974 0.0000 0.0000 0.0000
# 3 58.2974 58.2974 156.2104 0.0000 0.0000 0.0000
# 4 0.0000 0.0000 0.0000 37.2777 0.0000 0.0000
# 5 0.0000 0.0000 0.0000 0.0000 37.2777 0.0000
# 6 0.0000 0.0000 0.0000 0.0000 0.0000 40.3888
#
#
#
# Elastic Compliance Matrix: (Units=1/GPa)
#
#
# Indices 1 2 3 4 5 6 
#
# 1 0.009937 -0.003008 -0.002586 0.000000 0.000000 0.000000
# 2 -0.003008 0.009937 -0.002586 0.000000 0.000000 0.000000
# 3 -0.002586 -0.002586 0.008332 0.000000 0.000000 0.000000
# 4 0.000000 0.000000 0.000000 0.026826 0.000000 0.000000
# 5 0.000000 0.000000 0.000000 0.000000 0.026826 0.000000
# 6 0.000000 0.000000 0.000000 0.000000 0.000000 0.024759
#
#
# Mechanical properties :
#
#
# Convention : Reuss Voigt Hill
#
# Bulk Modulus (GPa) = 84.41476 85.00692 84.71084
# Shear Modulus (GPa) = 39.39330 39.61587 39.50458
#
# Velocity S-wave (km/s) = 4.35874 4.37104 4.36490
# Velocity P-wave (km/s) = 8.12669 8.15303 8.13987
#
# Compressibility (1/GPa) = 0.01184627
#
# Stress axis : x y z
#
# Youngs Moduli (GPa) = 100.63309 100.63309 120.02268
#
# Poissons Ratio (x) = 0.30270 0.31037
# Poissons Ratio (y) = 0.30270 0.31037
# Poissons Ratio (z) = 0.26023 0.26023
#
# Static dielectric constant tensor:
#      x y z
#    x 1.879420 0.000000 0.000000 
#    y 0.000000 1.879420 0.000000 
#    z 0.000000 0.000000 3.770400 
# 
# From -- ./inp_files/8848.got.cif
#   From: 2010.05.17/outbox.cif.g08.bks.cpg/sg142_5_cif.got.tgz:8848.got - 2010.05.20 13:39:18.
