data_PCOD9573687
_publ_section_title
;
Structure prediction by ZEFSAII (Michael W. Deem and Ramdas Pophale) SiO2 
 PCOD9573687
Probable space group: I 41/A C D
;
_chemical_formula_sum "Si O2"
_cell_formula_units_Z 96
_cell_length_a 14.366861
_cell_length_b 14.366861
_cell_length_c 19.100861
_cell_angle_alpha 90.000000
_cell_angle_beta 90.000000
_cell_angle_gamma 90.000000
_cell_volume 3942.545591
_symmetry_space_group_name_H-M "I 41/A C D"
_symmetry_group_IT_number 142
_space_group.IT_coordinate_system_code '2'
_symmetry_cell_setting 'tetragonal'
loop_
_space_group_symop_operation_xyz
x,y,z
1/4-y,3/4+x,1/4+z
-x,1/2-y,z
1/4+y,1/4-x,3/4+z
x,-y,1/2-z
1/2-x,y,-z
3/4+y,1/4+x,1/4-z
1/4-y,1/4-x,1/4-z
-x,-y,-z
3/4+y,1/4-x,3/4-z
x,1/2+y,-z
3/4-y,3/4+x,1/4-z
-x,y,1/2+z
1/2+x,-y,z
1/4-y,3/4-x,3/4+z
3/4+y,3/4+x,3/4+z
1/2+x,1/2+y,1/2+z
3/4-y,1/4+x,3/4+z
1/2-x,-y,1/2+z
3/4+y,3/4-x,1/4+z
1/2+x,1/2-y,-z
-x,1/2+y,1/2-z
1/4+y,3/4+x,3/4-z
3/4-y,3/4-x,3/4-z
1/2-x,1/2-y,1/2-z
1/4+y,3/4-x,1/4-z
1/2+x,y,1/2-z
1/4-y,1/4+x,3/4-z
1/2-x,1/2+y,z
x,1/2-y,1/2+z
3/4-y,1/4-x,1/4+z
1/4+y,1/4+x,1/4+z
loop_
_atom_site_type_symbol
_atom_site_label
_atom_site_fract_x
_atom_site_fract_y
_atom_site_fract_z
Si Si1 0.806486 0.845793 0.929029
Si Si2 0.976846 0.350228 0.981320
Si Si3 0.721683 0.834535 0.662925
O O1 0.818557 0.931444 0.875000
O O2 0.775550 0.754208 0.888638
O O3 0.750000 0.862187 0.000000
O O4 0.911307 0.825404 0.953676
O O5 0.914638 0.420192 0.934837
O O6 0.000000 0.250000 0.949934
O O7 0.059312 0.411885 0.016378
O O8 0.669057 0.919057 0.625000
#
# Coordination Sequence:
#
# PCOD9573687 Si02
#       3
#    32  32  32
#     4  10  22  42  66  99 150 194 248 318 395 477
#     4  10  20  39  71 103 143 193 248 317 394 463
#     4  10  20  39  70 106 141 192 251 313 390 471
#
# _framework density 24.349751000000001
#
# number of rings (size 3 to 8) (size 9 to 14) (size 15 to 20)
#    0.000    2.000    3.333    0.000    0.000    1.333 
#    6.000    1.667    0.000    0.000    0.000    0.000 
#    0.000    0.000    0.000    0.000    0.000    0.000 
#
# Total GULP energy -267797.760194 kJ/mol
# GULP energy per Si atom -5579.120004 kJ/mol
# Density = 2.429433 g / cm^3
# Si number density = 24.349751 Si / 1000 Ang^3
#
#
#
# Elastic Constant Matrix: (Units=GPa)
#
#
# Indices 1 2 3 4 5 6 
#
# 1 137.0052 77.9685 64.5997 0.0000 0.0000 0.0000
# 2 77.9685 137.0041 64.5994 0.0000 0.0000 0.0000
# 3 64.5997 64.5994 142.0254 0.0000 0.0000 0.0000
# 4 0.0000 0.0000 0.0000 46.2657 0.0000 0.0000
# 5 0.0000 0.0000 0.0000 0.0000 46.2658 0.0000
# 6 0.0000 0.0000 0.0000 0.0000 0.0000 37.4840
#
#
#
# Elastic Compliance Matrix: (Units=1/GPa)
#
#
# Indices 1 2 3 4 5 6 
#
# 1 0.011670 -0.005269 -0.002912 0.000000 0.000000 0.000000
# 2 -0.005269 0.011670 -0.002912 0.000000 0.000000 0.000000
# 3 -0.002912 -0.002912 0.009690 0.000000 0.000000 0.000000
# 4 0.000000 0.000000 0.000000 0.021614 0.000000 0.000000
# 5 0.000000 0.000000 0.000000 0.000000 0.021614 0.000000
# 6 0.000000 0.000000 0.000000 0.000000 0.000000 0.026678
#
#
# Mechanical properties :
#
#
# Convention : Reuss Voigt Hill
#
# Bulk Modulus (GPa) = 92.19896 92.26332 92.23114
# Shear Modulus (GPa) = 38.83902 39.92758 39.38330
#
# Velocity S-wave (km/s) = 3.99814 4.05378 4.02605
# Velocity P-wave (km/s) = 7.69806 7.73847 7.71829
#
# Compressibility (1/GPa) = 0.01084611
#
# Stress axis : x y z
#
# Youngs Moduli (GPa) = 85.68829 85.68757 103.20100
#
# Poissons Ratio (x) = 0.45145 0.30050
# Poissons Ratio (y) = 0.45145 0.30050
# Poissons Ratio (z) = 0.24951 0.24951
#
# Static dielectric constant tensor:
#      x y z
#    x 2.040310 0.000000 0.000000 
#    y 0.000000 2.040320 0.000000 
#    z 0.000000 0.000000 1.968770 
# 
# From -- ./inp_files/8365.got.cif
#   From: 2010.05.17/outbox.cif.g08.bks.cpg/sg142_5_cif.got.tgz:8365.got - 2010.05.20 13:39:18.
