data_PCOD9573273
_publ_section_title
;
Structure prediction by ZEFSAII (Michael W. Deem and Ramdas Pophale) SiO2 
 PCOD9573273
Probable space group: I 41/A M D
;
_chemical_formula_sum "Si O2"
_cell_formula_units_Z 176
_cell_length_a 18.303360
_cell_length_b 18.303360
_cell_length_c 27.625452
_cell_angle_alpha 90.000000
_cell_angle_beta 90.000000
_cell_angle_gamma 90.000000
_cell_volume 9254.885200
_symmetry_space_group_name_H-M "I 41/A M D"
_symmetry_group_IT_number 141
_space_group.IT_coordinate_system_code '2'
_symmetry_cell_setting 'tetragonal'
loop_
_space_group_symop_operation_xyz
x,y,z
1/4-y,3/4+x,1/4+z
-x,1/2-y,z
1/4+y,1/4-x,3/4+z
x,-y,-z
-x,1/2+y,-z
1/4+y,3/4+x,1/4-z
1/4-y,1/4-x,3/4-z
-x,-y,-z
3/4+y,1/4-x,3/4-z
x,1/2+y,-z
3/4-y,3/4+x,1/4-z
-x,y,z
x,1/2-y,z
3/4-y,1/4-x,3/4+z
3/4+y,3/4+x,1/4+z
1/2+x,1/2+y,1/2+z
3/4-y,1/4+x,3/4+z
1/2-x,-y,1/2+z
3/4+y,3/4-x,1/4+z
1/2+x,1/2-y,1/2-z
1/2-x,y,1/2-z
3/4+y,1/4+x,3/4-z
3/4-y,3/4-x,1/4-z
1/2-x,1/2-y,1/2-z
1/4+y,3/4-x,1/4-z
1/2+x,y,1/2-z
1/4-y,1/4+x,3/4-z
1/2-x,1/2+y,1/2+z
1/2+x,-y,1/2+z
1/4-y,3/4-x,1/4+z
1/4+y,1/4+x,3/4+z
loop_
_atom_site_type_symbol
_atom_site_label
_atom_site_fract_x
_atom_site_fract_y
_atom_site_fract_z
Si Si1 0.646173 0.083560 0.387277
Si Si2 0.291796 0.927719 0.030033
Si Si3 0.298422 0.371086 0.703179
Si Si4 0.581751 0.168250 0.125000
Si Si5 0.583254 0.026321 0.191919
Si Si6 0.000000 0.834340 0.915513
Si Si7 0.000000 0.835771 0.032532
O O1 0.671327 0.079800 0.331813
O O2 0.713027 0.114469 0.420057
O O3 0.573931 0.130905 0.395150
O O4 0.622754 0.003972 0.406818
O O5 0.204981 0.932069 0.038199
O O6 0.300043 0.858998 0.994945
O O7 0.314298 0.000000 0.000000
O O8 0.250000 0.346590 0.750000
O O9 0.368827 0.320178 0.699415
O O10 0.586043 0.250000 0.147661
O O11 0.587367 0.099647 0.160347
O O12 0.500000 0.998780 0.191600
O O13 0.000000 0.750000 0.903203
O O14 0.000000 0.841282 0.973934
O O15 0.000000 0.750000 0.045425
#
# Coordination Sequence:
#
# PCOD9573273 Si02
#       7
#    32  32  32  16  32  16  16
#     4  12  23  40  66  92 129 169 213 262 319 382
#     4  11  23  39  64  94 123 163 212 263 315 376
#     4  11  20  38  62  92 120 165 208 257 310 378
#     4   9  20  40  66  92 124 168 207 256 322 382
#     4  11  22  39  65  95 126 162 215 263 313 382
#     4  11  23  39  61  95 132 170 210 256 315 376
#     4  11  22  40  66  92 128 166 214 260 310 378
#
# _framework density 19.016984000000001
#
# number of rings (size 3 to 8) (size 9 to 14) (size 15 to 20)
#    0.000    1.000    5.455    3.000    1.273    2.182 
#    0.000    1.818    2.000    4.909    0.000    0.000 
#    0.000    0.000    0.000    0.000    0.000    0.000 
#
# Total GULP energy -491493.698600 kJ/mol
# GULP energy per Si atom -5585.155666 kJ/mol
# Density = 1.897370 g / cm^3
# Si number density = 19.016984 Si / 1000 Ang^3
#
#
#
# Elastic Constant Matrix: (Units=GPa)
#
#
# Indices 1 2 3 4 5 6 
#
# 1 90.2514 40.4930 26.0942 0.0000 0.0000 0.0000
# 2 40.4930 90.2530 26.0938 0.0000 0.0000 0.0000
# 3 26.0942 26.0938 97.2902 0.0000 0.0000 0.0000
# 4 0.0000 0.0000 0.0000 23.3046 0.0000 0.0000
# 5 0.0000 0.0000 0.0000 0.0000 23.3050 0.0000
# 6 0.0000 0.0000 0.0000 0.0000 0.0000 16.8190
#
#
#
# Elastic Compliance Matrix: (Units=1/GPa)
#
#
# Indices 1 2 3 4 5 6 
#
# 1 0.014331 -0.005766 -0.002297 0.000000 0.000000 0.000000
# 2 -0.005766 0.014331 -0.002297 0.000000 0.000000 0.000000
# 3 -0.002297 -0.002297 0.011511 0.000000 0.000000 0.000000
# 4 0.000000 0.000000 0.000000 0.042910 0.000000 0.000000
# 5 0.000000 0.000000 0.000000 0.000000 0.042909 0.000000
# 6 0.000000 0.000000 0.000000 0.000000 0.000000 0.059457
#
#
# Mechanical properties :
#
#
# Convention : Reuss Voigt Hill
#
# Bulk Modulus (GPa) = 51.40734 51.46184 51.43459
# Shear Modulus (GPa) = 23.51241 25.02663 24.26952
#
# Velocity S-wave (km/s) = 3.52005 3.63163 3.57627
# Velocity P-wave (km/s) = 6.60394 6.68616 6.64517
#
# Compressibility (1/GPa) = 0.01945248
#
# Stress axis : x y z
#
# Youngs Moduli (GPa) = 69.77734 69.77888 86.87453
#
# Poissons Ratio (x) = 0.40232 0.19959
# Poissons Ratio (y) = 0.40231 0.19957
# Poissons Ratio (z) = 0.16031 0.16030
#
# Static dielectric constant tensor:
#      x y z
#    x 5.703050 0.000000 0.000000 
#    y 0.000000 5.704660 0.000000 
#    z 0.000000 0.000000 1.663980 
# 
# From -- ./inp_files/12962.got.cif
#   From: 2010.05.17/outbox.cif.g08.bks.cpg/sg141_7_cif.got.tgz:12962.got - 2010.05.20 13:30:51.
