data_PCOD9573945
_publ_section_title
;
Structure prediction by ZEFSAII (Michael W. Deem and Ramdas Pophale) SiO2 
 PCOD9573945
Probable space group: I 41/A C D
;
_chemical_formula_sum "Si O2"
_cell_formula_units_Z 104
_cell_length_a 19.105376
_cell_length_b 19.105376
_cell_length_c 12.435134
_cell_angle_alpha 90.000000
_cell_angle_beta 90.000000
_cell_angle_gamma 90.000000
_cell_volume 4539.015313
_symmetry_space_group_name_H-M "I 41/A C D"
_symmetry_group_IT_number 142
_space_group.IT_coordinate_system_code '2'
_symmetry_cell_setting 'tetragonal'
loop_
_space_group_symop_operation_xyz
x,y,z
1/4-y,3/4+x,1/4+z
-x,1/2-y,z
1/4+y,1/4-x,3/4+z
x,-y,1/2-z
1/2-x,y,-z
3/4+y,1/4+x,1/4-z
1/4-y,1/4-x,1/4-z
-x,-y,-z
3/4+y,1/4-x,3/4-z
x,1/2+y,-z
3/4-y,3/4+x,1/4-z
-x,y,1/2+z
1/2+x,-y,z
1/4-y,3/4-x,3/4+z
3/4+y,3/4+x,3/4+z
1/2+x,1/2+y,1/2+z
3/4-y,1/4+x,3/4+z
1/2-x,-y,1/2+z
3/4+y,3/4-x,1/4+z
1/2+x,1/2-y,-z
-x,1/2+y,1/2-z
1/4+y,3/4+x,3/4-z
3/4-y,3/4-x,3/4-z
1/2-x,1/2-y,1/2-z
1/4+y,3/4-x,1/4-z
1/2+x,y,1/2-z
1/4-y,1/4+x,3/4-z
1/2-x,1/2+y,z
x,1/2-y,1/2+z
3/4-y,1/4-x,1/4+z
1/4+y,1/4+x,1/4+z
loop_
_atom_site_type_symbol
_atom_site_label
_atom_site_fract_x
_atom_site_fract_y
_atom_site_fract_z
Si Si1 0.000000 0.750000 0.625000
Si Si2 0.383280 0.866721 0.625000
Si Si3 0.614258 0.499790 0.479329
Si Si4 0.250000 0.903005 0.000000
Si Si5 0.467857 0.128394 0.451628
O O1 0.934481 0.736456 0.705449
O O2 0.371837 0.925872 0.534855
O O3 0.467080 0.875983 0.631740
O O4 0.605701 0.511435 0.353168
O O5 0.684196 0.454488 0.494041
O O6 0.553215 0.444456 0.508125
O O7 0.405475 0.155475 0.375000
#
# Coordination Sequence:
#
# PCOD9573945 Si02
#       5
#     8  16  32  16  32
#     4  12  26  48  76  98 152 212 242 320 392 478
#     4  12  25  46  72 116 146 190 264 321 376 480
#     4  11  25  45  75 108 148 202 251 316 390 456
#     4  10  22  46  72 100 154 194 240 316 374 454
#     4  12  25  49  72 106 156 197 251 318 394 456
#
# _framework density 22.912458999999998
#
# number of rings (size 3 to 8) (size 9 to 14) (size 15 to 20)
#    0.000    0.615    6.154    2.769    4.308    0.000 
#    0.000    4.615    0.000    0.000    0.000    0.000 
#    0.000    0.000    0.000    0.000    0.000    0.000 
#
# Total GULP energy -289953.440536 kJ/mol
# GULP energy per Si atom -5576.027703 kJ/mol
# Density = 2.286031 g / cm^3
# Si number density = 22.912459 Si / 1000 Ang^3
#
#
#
# Elastic Constant Matrix: (Units=GPa)
#
#
# Indices 1 2 3 4 5 6 
#
# 1 88.7187 91.2304 46.9026 0.0000 0.0000 0.0000
# 2 91.2304 88.7133 46.9013 0.0000 0.0000 0.0000
# 3 46.9026 46.9013 112.7905 0.0000 0.0000 0.0000
# 4 0.0000 0.0000 0.0000 4.9308 0.0000 0.0000
# 5 0.0000 0.0000 0.0000 0.0000 4.9293 0.0000
# 6 0.0000 0.0000 0.0000 0.0000 0.0000 38.8603
#
#
#
# Elastic Compliance Matrix: (Units=1/GPa)
#
#
# Indices 1 2 3 4 5 6 
#
# 1 -0.195305 0.202406 -0.002951 0.000000 0.000000 0.000000
# 2 0.202406 -0.195317 -0.002950 0.000000 0.000000 0.000000
# 3 -0.002951 -0.002950 0.011320 0.000000 0.000000 0.000000
# 4 0.000000 0.000000 0.000000 0.202806 0.000000 0.000000
# 5 0.000000 0.000000 0.000000 0.000000 0.202868 0.000000
# 6 0.000000 0.000000 0.000000 0.000000 0.000000 0.025733
#
#
# Mechanical properties :
#
#
# Convention : Reuss Voigt Hill
#
# Bulk Modulus (GPa) = 72.94735 73.36567 73.15651
# Shear Modulus (GPa) = -14.86608 16.75664 0.94528
#
# Velocity S-wave (km/s) = -2.54996 2.70725 0.64301
# Velocity P-wave (km/s) = 4.82046 6.47007 5.70520
#
# Compressibility (1/GPa) = 0.01370852
#
# Stress axis : x y z
#
# Youngs Moduli (GPa) = -5.12020 -5.11988 88.34112
#
# Poissons Ratio (x) = 1.03630 0.26067
# Poissons Ratio (y) = 1.03636 0.26062
# Poissons Ratio (z) = -0.01511 -0.01510
#
# Static dielectric constant tensor:
#      x y z
#    x 1.906480 0.000000 0.000000 
#    y 0.000000 1.906480 0.000000 
#    z 0.000000 0.000000 1.892980 
# 
# From -- ./inp_files/5003.got.cif
#   From: 2010.05.17/outbox.cif.g08.bks.cpg/sg142_3_cif.got.tgz:5003.got - 2010.05.20 13:39:18.
