data_PCOD9573986
_publ_section_title
;
Structure prediction by ZEFSAII (Michael W. Deem and Ramdas Pophale) SiO2 
 PCOD9573986
Probable space group: I 41/A C D
;
_chemical_formula_sum "Si O2"
_cell_formula_units_Z 96
_cell_length_a 13.683913
_cell_length_b 13.683913
_cell_length_c 20.968193
_cell_angle_alpha 90.000000
_cell_angle_beta 90.000000
_cell_angle_gamma 90.000000
_cell_volume 3926.283131
_symmetry_space_group_name_H-M "I 41/A C D"
_symmetry_group_IT_number 142
_space_group.IT_coordinate_system_code '2'
_symmetry_cell_setting 'tetragonal'
loop_
_space_group_symop_operation_xyz
x,y,z
1/4-y,3/4+x,1/4+z
-x,1/2-y,z
1/4+y,1/4-x,3/4+z
x,-y,1/2-z
1/2-x,y,-z
3/4+y,1/4+x,1/4-z
1/4-y,1/4-x,1/4-z
-x,-y,-z
3/4+y,1/4-x,3/4-z
x,1/2+y,-z
3/4-y,3/4+x,1/4-z
-x,y,1/2+z
1/2+x,-y,z
1/4-y,3/4-x,3/4+z
3/4+y,3/4+x,3/4+z
1/2+x,1/2+y,1/2+z
3/4-y,1/4+x,3/4+z
1/2-x,-y,1/2+z
3/4+y,3/4-x,1/4+z
1/2+x,1/2-y,-z
-x,1/2+y,1/2-z
1/4+y,3/4+x,3/4-z
3/4-y,3/4-x,3/4-z
1/2-x,1/2-y,1/2-z
1/4+y,3/4-x,1/4-z
1/2+x,y,1/2-z
1/4-y,1/4+x,3/4-z
1/2-x,1/2+y,z
x,1/2-y,1/2+z
3/4-y,1/4-x,1/4+z
1/4+y,1/4+x,1/4+z
loop_
_atom_site_type_symbol
_atom_site_label
_atom_site_fract_x
_atom_site_fract_y
_atom_site_fract_z
Si Si1 0.821294 0.720423 0.348946
Si Si2 0.868388 0.749969 0.588933
Si Si3 0.365986 0.426279 0.999532
O O1 0.916882 0.666882 0.375000
O O2 0.744145 0.725829 0.406388
O O3 0.827737 0.826550 0.316776
O O4 0.762852 0.657761 0.294796
O O5 0.932789 0.653588 0.600237
O O6 0.887551 0.820204 0.530470
O O7 0.250000 0.438417 0.000000
#
# Coordination Sequence:
#
# PCOD9573986 Si02
#       3
#    32  32  32
#     4  10  23  45  72 105 147 190 247 306 374 462
#     4   9  20  43  70  95 140 186 236 305 378 436
#     4  10  23  43  72 106 143 195 248 309 383 450
#
# _framework density 24.450604999999999
#
# number of rings (size 3 to 8) (size 9 to 14) (size 15 to 20)
#    0.000    2.333    0.000    0.000    9.333    0.000 
#   30.000    1.667    0.000    0.000    0.000    0.000 
#    0.000    0.000    0.000    0.000    0.000    0.000 
#
# Total GULP energy -268318.247028 kJ/mol
# GULP energy per Si atom -5589.963480 kJ/mol
# Density = 2.439495 g / cm^3
# Si number density = 24.450605 Si / 1000 Ang^3
#
#
#
# Elastic Constant Matrix: (Units=GPa)
#
#
# Indices 1 2 3 4 5 6 
#
# 1 140.4730 29.5531 25.2667 0.0000 0.0000 0.0000
# 2 29.5531 140.4730 25.2667 0.0000 0.0000 0.0000
# 3 25.2667 25.2667 45.3367 0.0000 0.0000 0.0000
# 4 0.0000 0.0000 0.0000 30.6076 0.0000 0.0000
# 5 0.0000 0.0000 0.0000 0.0000 30.6076 0.0000
# 6 0.0000 0.0000 0.0000 0.0000 0.0000 44.0159
#
#
#
# Elastic Compliance Matrix: (Units=1/GPa)
#
#
# Indices 1 2 3 4 5 6 
#
# 1 0.008032 -0.000983 -0.003929 0.000000 0.000000 0.000000
# 2 -0.000983 0.008032 -0.003929 0.000000 0.000000 0.000000
# 3 -0.003929 -0.003929 0.026436 0.000000 0.000000 0.000000
# 4 0.000000 0.000000 0.000000 0.032672 0.000000 0.000000
# 5 0.000000 0.000000 0.000000 0.000000 0.032672 0.000000
# 6 0.000000 0.000000 0.000000 0.000000 0.000000 0.022719
#
#
# Mechanical properties :
#
#
# Convention : Reuss Voigt Hill
#
# Bulk Modulus (GPa) = 40.29007 54.05066 47.17036
# Shear Modulus (GPa) = 31.94548 37.45931 34.70239
#
# Velocity S-wave (km/s) = 3.61852 3.91838 3.77143
# Velocity P-wave (km/s) = 5.82856 6.52883 6.18861
#
# Compressibility (1/GPa) = 0.02482001
#
# Stress axis : x y z
#
# Youngs Moduli (GPa) = 124.49763 124.49763 37.82718
#
# Poissons Ratio (x) = 0.12241 0.14860
# Poissons Ratio (y) = 0.12241 0.14860
# Poissons Ratio (z) = 0.48909 0.48909
#
# Static dielectric constant tensor:
#      x y z
#    x 1.969450 0.000000 0.000000 
#    y 0.000000 1.969450 0.000000 
#    z 0.000000 0.000000 1.934350 
# 
# From -- ./inp_files/8377.got.cif
#   From: 2010.05.17/outbox.cif.g08.bks.cpg/sg142_5_cif.got.tgz:8377.got - 2010.05.20 13:39:18.
