data_PCOD9573610
_publ_section_title
;
Structure prediction by ZEFSAII (Michael W. Deem and Ramdas Pophale) SiO2 
 PCOD9573610
Probable space group: I 41/A C D
;
_chemical_formula_sum "Si O2"
_cell_formula_units_Z 128
_cell_length_a 23.855145
_cell_length_b 23.855145
_cell_length_c 11.229980
_cell_angle_alpha 90.000000
_cell_angle_beta 90.000000
_cell_angle_gamma 90.000000
_cell_volume 6390.621618
_symmetry_space_group_name_H-M "I 41/A C D"
_symmetry_group_IT_number 142
_space_group.IT_coordinate_system_code '2'
_symmetry_cell_setting 'tetragonal'
loop_
_space_group_symop_operation_xyz
x,y,z
1/4-y,3/4+x,1/4+z
-x,1/2-y,z
1/4+y,1/4-x,3/4+z
x,-y,1/2-z
1/2-x,y,-z
3/4+y,1/4+x,1/4-z
1/4-y,1/4-x,1/4-z
-x,-y,-z
3/4+y,1/4-x,3/4-z
x,1/2+y,-z
3/4-y,3/4+x,1/4-z
-x,y,1/2+z
1/2+x,-y,z
1/4-y,3/4-x,3/4+z
3/4+y,3/4+x,3/4+z
1/2+x,1/2+y,1/2+z
3/4-y,1/4+x,3/4+z
1/2-x,-y,1/2+z
3/4+y,3/4-x,1/4+z
1/2+x,1/2-y,-z
-x,1/2+y,1/2-z
1/4+y,3/4+x,3/4-z
3/4-y,3/4-x,3/4-z
1/2-x,1/2-y,1/2-z
1/4+y,3/4-x,1/4-z
1/2+x,y,1/2-z
1/4-y,1/4+x,3/4-z
1/2-x,1/2+y,z
x,1/2-y,1/2+z
3/4-y,1/4-x,1/4+z
1/4+y,1/4+x,1/4+z
loop_
_atom_site_type_symbol
_atom_site_label
_atom_site_fract_x
_atom_site_fract_y
_atom_site_fract_z
Si Si1 0.349282 0.322134 0.950182
Si Si2 0.153392 0.894637 0.588746
Si Si3 0.609132 0.496678 0.473625
Si Si4 0.693437 0.201890 0.423343
O O1 0.398489 0.351512 0.875000
O O2 0.290229 0.341867 0.890018
O O3 0.345871 0.255674 0.936474
O O4 0.356562 0.346021 0.083377
O O5 0.201669 0.878525 0.680416
O O6 0.161946 0.851524 0.480931
O O7 0.157550 0.958896 0.551179
O O8 0.561592 0.534016 0.540692
O O9 0.750000 0.212259 0.500000
#
# Coordination Sequence:
#
# PCOD9573610 Si02
#       4
#    32  32  32  32
#     4  10  21  37  59  85 111 146 191 241 292 342
#     4  10  21  36  56  84 115 149 186 234 290 343
#     4  10  20  37  57  83 114 151 194 234 286 344
#     4  10  20  36  59  84 112 150 193 236 282 346
#
# _framework density 20.029350999999998
#
# number of rings (size 3 to 8) (size 9 to 14) (size 15 to 20)
#    0.000    2.000    0.000    3.750    0.000    4.000 
#    0.000   35.000    0.000    9.750    0.000    0.000 
#    0.000    0.000    0.000    0.000    0.000    0.000 
#
# Total GULP energy -356965.665736 kJ/mol
# GULP energy per Si atom -5577.588527 kJ/mol
# Density = 1.998376 g / cm^3
# Si number density = 20.029351 Si / 1000 Ang^3
#
#
#
# Elastic Constant Matrix: (Units=GPa)
#
#
# Indices 1 2 3 4 5 6 
#
# 1 50.0284 42.7651 18.0660 0.0000 0.0000 0.0000
# 2 42.7651 50.0278 18.0672 0.0000 0.0000 0.0000
# 3 18.0660 18.0672 45.1137 0.0000 0.0000 0.0000
# 4 0.0000 0.0000 0.0000 16.4067 0.0000 0.0000
# 5 0.0000 0.0000 0.0000 0.0000 16.4059 0.0000
# 6 0.0000 0.0000 0.0000 0.0000 0.0000 29.8581
#
#
#
# Elastic Compliance Matrix: (Units=1/GPa)
#
#
# Indices 1 2 3 4 5 6 
#
# 1 0.075225 -0.062459 -0.005111 0.000000 0.000000 0.000000
# 2 -0.062459 0.075228 -0.005115 0.000000 0.000000 0.000000
# 3 -0.005111 -0.005115 0.026261 0.000000 0.000000 0.000000
# 4 0.000000 0.000000 0.000000 0.060951 0.000000 0.000000
# 5 0.000000 0.000000 0.000000 0.000000 0.060954 0.000000
# 6 0.000000 0.000000 0.000000 0.000000 0.000000 0.033492
#
#
# Mechanical properties :
#
#
# Convention : Reuss Voigt Hill
#
# Bulk Modulus (GPa) = 31.90344 33.66293 32.78319
# Shear Modulus (GPa) = 10.24744 16.95226 13.59985
#
# Velocity S-wave (km/s) = 2.26436 2.91240 2.60858
# Velocity P-wave (km/s) = 4.77487 5.30592 5.04738
#
# Compressibility (1/GPa) = 0.03134458
#
# Stress axis : x y z
#
# Youngs Moduli (GPa) = 13.29350 13.29300 38.07871
#
# Poissons Ratio (x) = 0.83026 0.19461
# Poissons Ratio (y) = 0.83029 0.19479
# Poissons Ratio (z) = 0.06794 0.06800
#
# Static dielectric constant tensor:
#      x y z
#    x 1.711690 0.000000 0.000000 
#    y 0.000000 1.711690 0.000000 
#    z 0.000000 0.000000 1.777740 
# 
# From -- ./inp_files/3440.got.cif
#   From: 2010.05.17/outbox.cif.g08.bks.cpg/sg142_2_cif.got.tgz:3440.got - 2010.05.20 13:39:18.
