data_PCOD9573285
_publ_section_title
;
Structure prediction by ZEFSAII (Michael W. Deem and Ramdas Pophale) SiO2 
 PCOD9573285
Probable space group: I 41/A M D
;
_chemical_formula_sum "Si O2"
_cell_formula_units_Z 176
_cell_length_a 17.003847
_cell_length_b 17.003847
_cell_length_c 27.379748
_cell_angle_alpha 90.000000
_cell_angle_beta 90.000000
_cell_angle_gamma 90.000000
_cell_volume 7916.328793
_symmetry_space_group_name_H-M "I 41/A M D"
_symmetry_group_IT_number 141
_space_group.IT_coordinate_system_code '2'
_symmetry_cell_setting 'tetragonal'
loop_
_space_group_symop_operation_xyz
x,y,z
1/4-y,3/4+x,1/4+z
-x,1/2-y,z
1/4+y,1/4-x,3/4+z
x,-y,-z
-x,1/2+y,-z
1/4+y,3/4+x,1/4-z
1/4-y,1/4-x,3/4-z
-x,-y,-z
3/4+y,1/4-x,3/4-z
x,1/2+y,-z
3/4-y,3/4+x,1/4-z
-x,y,z
x,1/2-y,z
3/4-y,1/4-x,3/4+z
3/4+y,3/4+x,1/4+z
1/2+x,1/2+y,1/2+z
3/4-y,1/4+x,3/4+z
1/2-x,-y,1/2+z
3/4+y,3/4-x,1/4+z
1/2+x,1/2-y,1/2-z
1/2-x,y,1/2-z
3/4+y,1/4+x,3/4-z
3/4-y,3/4-x,1/4-z
1/2-x,1/2-y,1/2-z
1/4+y,3/4-x,1/4-z
1/2+x,y,1/2-z
1/4-y,1/4+x,3/4-z
1/2-x,1/2+y,1/2+z
1/2+x,-y,1/2+z
1/4-y,3/4-x,1/4+z
1/4+y,1/4+x,3/4+z
loop_
_atom_site_type_symbol
_atom_site_label
_atom_site_fract_x
_atom_site_fract_y
_atom_site_fract_z
Si Si1 0.151645 0.067473 0.033305
Si Si2 0.807772 0.659099 0.529643
Si Si3 0.907924 0.460121 0.876617
Si Si4 0.669930 0.919930 0.875000
Si Si5 0.840518 0.417096 0.180829
Si Si6 0.409207 0.250000 0.771225
Si Si7 0.588010 0.750000 0.110470
O O1 0.217397 0.133140 0.039898
O O2 0.076565 0.108467 0.008313
O O3 0.124701 0.018210 0.081004
O O4 0.187505 0.000000 0.000000
O O5 0.813258 0.750000 0.514107
O O6 0.843165 0.642709 0.582534
O O7 0.845187 0.601612 0.488642
O O8 0.878642 0.371359 0.875000
O O9 0.868734 0.493701 0.827681
O O10 0.000000 0.467474 0.877018
O O11 0.755929 0.911423 0.846823
O O12 0.915708 0.372355 0.156644
O O13 0.500000 0.250000 0.754312
O O14 0.411184 0.250000 0.830587
O O15 0.500000 0.750000 0.091902
#
# Coordination Sequence:
#
# PCOD9573285 Si02
#       7
#    32  32  32  16  32  16  16
#     4  12  22  38  62  91 127 178 224 286 343 413
#     4  12  25  42  70 102 135 177 233 285 348 421
#     4  12  22  38  59  87 128 178 230 282 338 404
#     4  12  24  42  70 105 141 184 228 292 350 424
#     4  12  21  43  67 102 135 178 230 277 343 417
#     4  11  21  37  59  89 134 176 226 285 345 400
#     4  11  22  39  69 101 133 178 229 297 352 413
#
# _framework density 22.232527999999999
#
# number of rings (size 3 to 8) (size 9 to 14) (size 15 to 20)
#    0.000    0.182    7.273    3.545    0.000    2.364 
#    0.000    1.818    0.000    2.182    0.000    0.000 
#    0.000    0.000    0.000    0.000    0.000    0.000 
#
# Total GULP energy -490852.975241 kJ/mol
# GULP energy per Si atom -5577.874719 kJ/mol
# Density = 2.218193 g / cm^3
# Si number density = 22.232528 Si / 1000 Ang^3
#
#
#
# Elastic Constant Matrix: (Units=GPa)
#
#
# Indices 1 2 3 4 5 6 
#
# 1 71.5287 12.9013 5.1743 0.0000 0.0000 0.0000
# 2 12.9013 71.5315 5.1740 0.0000 0.0000 0.0000
# 3 5.1743 5.1740 96.1228 0.0000 0.0000 0.0000
# 4 0.0000 0.0000 0.0000 22.4527 0.0000 0.0000
# 5 0.0000 0.0000 0.0000 0.0000 22.4520 0.0000
# 6 0.0000 0.0000 0.0000 0.0000 0.0000 25.8623
#
#
#
# Elastic Compliance Matrix: (Units=1/GPa)
#
#
# Indices 1 2 3 4 5 6 
#
# 1 0.014490 -0.002567 -0.000642 0.000000 0.000000 0.000000
# 2 -0.002567 0.014489 -0.000642 0.000000 0.000000 0.000000
# 3 -0.000642 -0.000642 0.010472 0.000000 0.000000 0.000000
# 4 0.000000 0.000000 0.000000 0.044538 0.000000 0.000000
# 5 0.000000 0.000000 0.000000 0.000000 0.044539 0.000000
# 6 0.000000 0.000000 0.000000 0.000000 0.000000 0.038666
#
#
# Mechanical properties :
#
#
# Convention : Reuss Voigt Hill
#
# Bulk Modulus (GPa) = 31.49554 31.74248 31.61901
# Shear Modulus (GPa) = 26.95711 28.54896 27.75304
#
# Velocity S-wave (km/s) = 3.48589 3.58733 3.53697
# Velocity P-wave (km/s) = 5.51353 5.60955 5.56175
#
# Compressibility (1/GPa) = 0.03175053
#
# Stress axis : x y z
#
# Youngs Moduli (GPa) = 69.01395 69.01670 95.48863
#
# Poissons Ratio (x) = 0.17716 0.06129
# Poissons Ratio (y) = 0.17715 0.06128
# Poissons Ratio (z) = 0.04429 0.04429
#
# Static dielectric constant tensor:
#      x y z
#    x 1.854010 0.000000 0.000000 
#    y 0.000000 1.854010 0.000000 
#    z 0.000000 0.000000 1.958070 
# 
# From -- ./inp_files/14438.got.cif
#   From: 2010.05.17/outbox.cif.g08.bks.cpg/sg141_8_cif.got.tgz:14438.got - 2010.05.20 13:30:51.
