data_PCOD9573284
_publ_section_title
;
Structure prediction by ZEFSAII (Michael W. Deem and Ramdas Pophale) SiO2 
 PCOD9573284
Probable space group: I 41/A M D
;
_chemical_formula_sum "Si O2"
_cell_formula_units_Z 112
_cell_length_a 19.264035
_cell_length_b 19.264035
_cell_length_c 16.173507
_cell_angle_alpha 90.000000
_cell_angle_beta 90.000000
_cell_angle_gamma 90.000000
_cell_volume 6002.037688
_symmetry_space_group_name_H-M "I 41/A M D"
_symmetry_group_IT_number 141
_space_group.IT_coordinate_system_code '2'
_symmetry_cell_setting 'tetragonal'
loop_
_space_group_symop_operation_xyz
x,y,z
1/4-y,3/4+x,1/4+z
-x,1/2-y,z
1/4+y,1/4-x,3/4+z
x,-y,-z
-x,1/2+y,-z
1/4+y,3/4+x,1/4-z
1/4-y,1/4-x,3/4-z
-x,-y,-z
3/4+y,1/4-x,3/4-z
x,1/2+y,-z
3/4-y,3/4+x,1/4-z
-x,y,z
x,1/2-y,z
3/4-y,1/4-x,3/4+z
3/4+y,3/4+x,1/4+z
1/2+x,1/2+y,1/2+z
3/4-y,1/4+x,3/4+z
1/2-x,-y,1/2+z
3/4+y,3/4-x,1/4+z
1/2+x,1/2-y,1/2-z
1/2-x,y,1/2-z
3/4+y,1/4+x,3/4-z
3/4-y,3/4-x,1/4-z
1/2-x,1/2-y,1/2-z
1/4+y,3/4-x,1/4-z
1/2+x,y,1/2-z
1/4-y,1/4+x,3/4-z
1/2-x,1/2+y,1/2+z
1/2+x,-y,1/2+z
1/4-y,3/4-x,1/4+z
1/4+y,1/4+x,3/4+z
loop_
_atom_site_type_symbol
_atom_site_label
_atom_site_fract_x
_atom_site_fract_y
_atom_site_fract_z
Si Si1 0.829012 0.575627 0.247064
Si Si2 0.083086 0.666915 0.125000
Si Si3 0.419860 0.832890 0.969434
Si Si4 0.672158 0.936877 0.063307
O O1 0.750000 0.604150 0.250000
O O2 0.881222 0.629151 0.203978
O O3 0.826794 0.504163 0.195550
O O4 0.846188 0.552505 0.340934
O O5 0.094902 0.750000 0.126186
O O6 0.399910 0.850090 0.875000
O O7 0.500000 0.853899 0.982036
O O8 0.416520 0.750000 0.977206
O O9 0.370035 0.871180 0.031544
O O10 0.656383 0.000000 0.000000
#
# Coordination Sequence:
#
# PCOD9573284 Si02
#       4
#    32  16  32  32
#     4  11  21  42  64  89 124 164 205 257 318 377
#     4  11  26  46  66  94 128 166 220 271 310 374
#     4   9  19  36  55  80 119 162 202 247 304 371
#     4  11  21  36  64  92 123 157 205 260 311 379
#
# _framework density 18.660329000000001
#
# number of rings (size 3 to 8) (size 9 to 14) (size 15 to 20)
#    0.000    1.571    2.857    5.143    0.000    4.571 
#    0.000    2.857    0.000    0.000    0.000    0.000 
#    0.000    0.000    0.000    0.000    0.000    0.000 
#
# Total GULP energy -312580.368348 kJ/mol
# GULP energy per Si atom -5581.792292 kJ/mol
# Density = 1.861786 g / cm^3
# Si number density = 18.660329 Si / 1000 Ang^3
#
#
#
# Elastic Constant Matrix: (Units=GPa)
#
#
# Indices 1 2 3 4 5 6 
#
# 1 47.9000 40.5071 47.8185 0.0000 0.0000 0.0000
# 2 40.5071 47.9017 47.8187 0.0000 0.0000 0.0000
# 3 47.8185 47.8187 142.2296 0.0000 0.0000 0.0000
# 4 0.0000 0.0000 0.0000 28.4410 0.0000 0.0000
# 5 0.0000 0.0000 0.0000 0.0000 28.4424 0.0000
# 6 0.0000 0.0000 0.0000 0.0000 0.0000 36.5687
#
#
#
# Elastic Compliance Matrix: (Units=1/GPa)
#
#
# Indices 1 2 3 4 5 6 
#
# 1 0.076515 -0.058736 -0.005977 0.000000 0.000000 0.000000
# 2 -0.058736 0.076511 -0.005976 0.000000 0.000000 0.000000
# 3 -0.005977 -0.005976 0.011050 0.000000 0.000000 0.000000
# 4 0.000000 0.000000 0.000000 0.035160 0.000000 0.000000
# 5 0.000000 0.000000 0.000000 0.000000 0.035159 0.000000
# 6 0.000000 0.000000 0.000000 0.000000 0.000000 0.027346
#
#
# Mechanical properties :
#
#
# Convention : Reuss Voigt Hill
#
# Bulk Modulus (GPa) = 44.06009 56.70221 50.38115
# Shear Modulus (GPa) = 12.17480 25.48290 18.82885
#
# Velocity S-wave (km/s) = 2.55707 3.69944 3.17997
# Velocity P-wave (km/s) = 5.69043 6.97856 6.36715
#
# Compressibility (1/GPa) = 0.02269628
#
# Stress axis : x y z
#
# Youngs Moduli (GPa) = 13.06941 13.07004 90.50078
#
# Poissons Ratio (x) = 0.76768 0.54093
# Poissons Ratio (y) = 0.76765 0.54084
# Poissons Ratio (z) = 0.07812 0.07811
#
# Static dielectric constant tensor:
#      x y z
#    x 1.625540 0.000000 0.000000 
#    y 0.000000 1.625530 0.000000 
#    z 0.000000 0.000000 1.717920 
# 
# From -- ./inp_files/7905.got.cif
#   From: 2010.05.17/outbox.cif.g08.bks.cpg/sg141_4_cif.got.tgz:7905.got - 2010.05.20 13:30:51.
