data_PCOD9573958
_publ_section_title
;
Structure prediction by ZEFSAII (Michael W. Deem and Ramdas Pophale) SiO2 
 PCOD9573958
Probable space group: I 41/A C D
;
_chemical_formula_sum "Si O2"
_cell_formula_units_Z 96
_cell_length_a 13.056562
_cell_length_b 13.056562
_cell_length_c 22.481570
_cell_angle_alpha 90.000000
_cell_angle_beta 90.000000
_cell_angle_gamma 90.000000
_cell_volume 3832.518921
_symmetry_space_group_name_H-M "I 41/A C D"
_symmetry_group_IT_number 142
_space_group.IT_coordinate_system_code '2'
_symmetry_cell_setting 'tetragonal'
loop_
_space_group_symop_operation_xyz
x,y,z
1/4-y,3/4+x,1/4+z
-x,1/2-y,z
1/4+y,1/4-x,3/4+z
x,-y,1/2-z
1/2-x,y,-z
3/4+y,1/4+x,1/4-z
1/4-y,1/4-x,1/4-z
-x,-y,-z
3/4+y,1/4-x,3/4-z
x,1/2+y,-z
3/4-y,3/4+x,1/4-z
-x,y,1/2+z
1/2+x,-y,z
1/4-y,3/4-x,3/4+z
3/4+y,3/4+x,3/4+z
1/2+x,1/2+y,1/2+z
3/4-y,1/4+x,3/4+z
1/2-x,-y,1/2+z
3/4+y,3/4-x,1/4+z
1/2+x,1/2-y,-z
-x,1/2+y,1/2-z
1/4+y,3/4+x,3/4-z
3/4-y,3/4-x,3/4-z
1/2-x,1/2-y,1/2-z
1/4+y,3/4-x,1/4-z
1/2+x,y,1/2-z
1/4-y,1/4+x,3/4-z
1/2-x,1/2+y,z
x,1/2-y,1/2+z
3/4-y,1/4-x,1/4+z
1/4+y,1/4+x,1/4+z
loop_
_atom_site_type_symbol
_atom_site_label
_atom_site_fract_x
_atom_site_fract_y
_atom_site_fract_z
Si Si1 0.387997 0.723003 0.236970
Si Si2 0.226372 0.860178 0.423777
Si Si3 0.061455 0.535460 0.096260
O O1 0.500000 0.750000 0.217028
O O2 0.376602 0.598298 0.230750
O O3 0.310248 0.789601 0.197806
O O4 0.372079 0.746551 0.306849
O O5 0.139790 0.889790 0.375000
O O6 0.262345 0.744697 0.408078
O O7 0.321385 0.931631 0.404576
#
# Coordination Sequence:
#
# PCOD9573958 Si02
#       3
#    32  32  32
#     4  10  23  43  65  95 133 177 223 280 348 413
#     4  10  23  39  64  96 128 177 225 278 342 407
#     4  10  23  41  63  97 134 168 230 276 340 419
#
# _framework density 25.048801999999998
#
# number of rings (size 3 to 8) (size 9 to 14) (size 15 to 20)
#    0.000    2.000    0.000    1.000    9.333    4.667 
#    0.000    3.333    0.000    0.000    0.000    0.000 
#    0.000    0.000    0.000    0.000    0.000    0.000 
#
# Total GULP energy -267556.731300 kJ/mol
# GULP energy per Si atom -5574.098569 kJ/mol
# Density = 2.499179 g / cm^3
# Si number density = 25.048802 Si / 1000 Ang^3
#
#
#
# Elastic Constant Matrix: (Units=GPa)
#
#
# Indices 1 2 3 4 5 6 
#
# 1 113.2075 29.8021 -0.2835 0.0000 0.0000 0.0000
# 2 29.8021 113.2075 -0.2835 0.0000 0.0000 0.0000
# 3 -0.2835 -0.2835 50.0174 0.0000 0.0000 0.0000
# 4 0.0000 0.0000 0.0000 14.6111 0.0000 0.0000
# 5 0.0000 0.0000 0.0000 0.0000 14.6111 0.0000
# 6 0.0000 0.0000 0.0000 0.0000 0.0000 31.0466
#
#
#
# Elastic Compliance Matrix: (Units=1/GPa)
#
#
# Indices 1 2 3 4 5 6 
#
# 1 0.009491 -0.002498 0.000040 0.000000 0.000000 0.000000
# 2 -0.002498 0.009491 0.000040 0.000000 0.000000 0.000000
# 3 0.000040 0.000040 0.019993 0.000000 0.000000 0.000000
# 4 0.000000 0.000000 0.000000 0.068441 0.000000 0.000000
# 5 0.000000 0.000000 0.000000 0.000000 0.068441 0.000000
# 6 0.000000 0.000000 0.000000 0.000000 0.000000 0.032210
#
#
# Mechanical properties :
#
#
# Convention : Reuss Voigt Hill
#
# Bulk Modulus (GPa) = 29.29337 37.21141 33.25239
# Shear Modulus (GPa) = 22.29300 28.53356 25.41328
#
# Velocity S-wave (km/s) = 2.98649 3.37874 3.18866
# Velocity P-wave (km/s) = 4.85923 5.48717 5.18272
#
# Compressibility (1/GPa) = 0.03413742
#
# Stress axis : x y z
#
# Youngs Moduli (GPa) = 105.36123 105.36123 50.01626
#
# Poissons Ratio (x) = 0.26324 -0.00198
# Poissons Ratio (y) = 0.26324 -0.00198
# Poissons Ratio (z) = -0.00418 -0.00418
#
# Static dielectric constant tensor:
#      x y z
#    x 2.284030 0.000000 0.000000 
#    y 0.000000 2.284030 0.000000 
#    z 0.000000 0.000000 2.262600 
# 
# From -- ./inp_files/12056.got.cif
#   From: 2010.05.17/outbox.cif.g08.bks.cpg/sg142_7_cif.got.tgz:12056.got - 2010.05.20 13:39:18.
