data_PCOD9573259
_publ_section_title
;
Structure prediction by ZEFSAII (Michael W. Deem and Ramdas Pophale) SiO2 
 PCOD9573259
Probable space group: I 41/A M D
;
_chemical_formula_sum "Si O2"
_cell_formula_units_Z 160
_cell_length_a 15.635528
_cell_length_b 15.635528
_cell_length_c 26.903152
_cell_angle_alpha 90.000000
_cell_angle_beta 90.000000
_cell_angle_gamma 90.000000
_cell_volume 6577.006463
_symmetry_space_group_name_H-M "I 41/A M D"
_symmetry_group_IT_number 141
_space_group.IT_coordinate_system_code '2'
_symmetry_cell_setting 'tetragonal'
loop_
_space_group_symop_operation_xyz
x,y,z
1/4-y,3/4+x,1/4+z
-x,1/2-y,z
1/4+y,1/4-x,3/4+z
x,-y,-z
-x,1/2+y,-z
1/4+y,3/4+x,1/4-z
1/4-y,1/4-x,3/4-z
-x,-y,-z
3/4+y,1/4-x,3/4-z
x,1/2+y,-z
3/4-y,3/4+x,1/4-z
-x,y,z
x,1/2-y,z
3/4-y,1/4-x,3/4+z
3/4+y,3/4+x,1/4+z
1/2+x,1/2+y,1/2+z
3/4-y,1/4+x,3/4+z
1/2-x,-y,1/2+z
3/4+y,3/4-x,1/4+z
1/2+x,1/2-y,1/2-z
1/2-x,y,1/2-z
3/4+y,1/4+x,3/4-z
3/4-y,3/4-x,1/4-z
1/2-x,1/2-y,1/2-z
1/4+y,3/4-x,1/4-z
1/2+x,y,1/2-z
1/4-y,1/4+x,3/4-z
1/2-x,1/2+y,1/2+z
1/2+x,-y,1/2+z
1/4-y,3/4-x,1/4+z
1/4+y,1/4+x,3/4+z
loop_
_atom_site_type_symbol
_atom_site_label
_atom_site_fract_x
_atom_site_fract_y
_atom_site_fract_z
Si Si1 0.625649 0.750000 0.762709
Si Si2 0.902997 0.648611 0.177638
Si Si3 0.144996 0.067576 0.242604
Si Si4 0.824229 0.068316 0.130754
Si Si5 0.759356 0.750000 0.837413
Si Si6 0.858265 0.851564 0.963511
O O1 0.594728 0.653857 0.755748
O O2 0.663746 0.750000 0.817986
O O3 0.688775 0.750000 0.714500
O O4 0.865378 0.615378 0.125000
O O5 0.907445 0.750000 0.169004
O O6 0.865256 0.639230 0.232464
O O7 0.000000 0.614639 0.183193
O O8 0.250000 0.076338 0.250000
O O9 0.132656 0.048037 0.183989
O O10 0.111742 0.993133 0.277710
O O11 0.786205 0.164155 0.136235
O O12 0.881470 0.084322 0.081620
O O13 0.744548 0.005453 0.125000
O O14 0.882496 0.750000 0.956561
#
# Coordination Sequence:
#
# PCOD9573259 Si02
#       6
#    16  32  32  32  16  32
#     4   9  14  30  51  70  97 144 193 220 257 326
#     4   8  16  35  61  83 107 145 184 219 276 350
#     4  11  19  33  53  77 104 145 191 224 272 330
#     4  11  19  31  51  77 105 142 183 223 273 325
#     4   9  14  26  46  69  95 134 182 221 252 314
#     4  11  22  35  55  87 115 137 184 243 279 320
#
# _framework density 24.327178
#
# number of rings (size 3 to 8) (size 9 to 14) (size 15 to 20)
#    0.000    2.000    7.000    0.600    0.000    0.800 
#    0.000    1.500    0.000    0.900    0.000    0.000 
#    0.000    0.000    0.000    0.000    0.000    0.000 
#
# Total GULP energy -445730.497038 kJ/mol
# GULP energy per Si atom -5571.631213 kJ/mol
# Density = 2.427181 g / cm^3
# Si number density = 24.327178 Si / 1000 Ang^3
#
#
#
# Elastic Constant Matrix: (Units=GPa)
#
#
# Indices 1 2 3 4 5 6 
#
# 1 40.1971 17.1702 -6.4607 0.0000 0.0000 0.0000
# 2 17.1702 40.1956 -6.4617 0.0000 0.0000 0.0000
# 3 -6.4607 -6.4617 171.7618 0.0000 0.0000 0.0000
# 4 0.0000 0.0000 0.0000 24.9637 0.0000 0.0000
# 5 0.0000 0.0000 0.0000 0.0000 24.9644 0.0000
# 6 0.0000 0.0000 0.0000 0.0000 0.0000 -4.4866
#
#
#
# Elastic Compliance Matrix: (Units=1/GPa)
#
#
# Indices 1 2 3 4 5 6 
#
# 1 0.030504 -0.012924 0.000661 0.000000 0.000000 0.000000
# 2 -0.012924 0.030505 0.000661 0.000000 0.000000 0.000000
# 3 0.000661 0.000661 0.005872 0.000000 0.000000 0.000000
# 4 0.000000 0.000000 0.000000 0.040058 0.000000 0.000000
# 5 0.000000 0.000000 0.000000 0.000000 0.040057 0.000000
# 6 0.000000 0.000000 0.000000 0.000000 0.000000 -0.222886
#
#
# Mechanical properties :
#
#
# Convention : Reuss Voigt Hill
#
# Bulk Modulus (GPa) = 22.89450 28.96111 25.92781
# Shear Modulus (GPa) = -131.14054 25.61543 -52.76256
#
# Velocity S-wave (km/s) = -7.35010 3.24845 -4.66217
# Velocity P-wave (km/s) = 7.91205 5.09907 4.27785
#
# Compressibility (1/GPa) = 0.04367862
#
# Stress axis : x y z
#
# Youngs Moduli (GPa) = 32.78239 32.78105 170.30636
#
# Poissons Ratio (x) = 0.42366 -0.11261
# Poissons Ratio (y) = 0.42368 -0.11266
# Poissons Ratio (z) = -0.02168 -0.02168
#
# Static dielectric constant tensor:
#      x y z
#    x 2.015940 0.000000 0.000000 
#    y 0.000000 2.015940 0.000000 
#    z 0.000000 0.000000 2.056430 
# 
# From -- ./inp_files/12778.got.cif
#   From: 2010.05.17/outbox.cif.g08.bks.cpg/sg141_7_cif.got.tgz:12778.got - 2010.05.20 13:30:51.
