data_PCOD9573979
_publ_section_title
;
Structure prediction by ZEFSAII (Michael W. Deem and Ramdas Pophale) SiO2 
 PCOD9573979
Probable space group: I 41/A C D
;
_chemical_formula_sum "Si O2"
_cell_formula_units_Z 160
_cell_length_a 22.846178
_cell_length_b 22.846178
_cell_length_c 13.800815
_cell_angle_alpha 90.000000
_cell_angle_beta 90.000000
_cell_angle_gamma 90.000000
_cell_volume 7203.305707
_symmetry_space_group_name_H-M "I 41/A C D"
_symmetry_group_IT_number 142
_space_group.IT_coordinate_system_code '2'
_symmetry_cell_setting 'tetragonal'
loop_
_space_group_symop_operation_xyz
x,y,z
1/4-y,3/4+x,1/4+z
-x,1/2-y,z
1/4+y,1/4-x,3/4+z
x,-y,1/2-z
1/2-x,y,-z
3/4+y,1/4+x,1/4-z
1/4-y,1/4-x,1/4-z
-x,-y,-z
3/4+y,1/4-x,3/4-z
x,1/2+y,-z
3/4-y,3/4+x,1/4-z
-x,y,1/2+z
1/2+x,-y,z
1/4-y,3/4-x,3/4+z
3/4+y,3/4+x,3/4+z
1/2+x,1/2+y,1/2+z
3/4-y,1/4+x,3/4+z
1/2-x,-y,1/2+z
3/4+y,3/4-x,1/4+z
1/2+x,1/2-y,-z
-x,1/2+y,1/2-z
1/4+y,3/4+x,3/4-z
3/4-y,3/4-x,3/4-z
1/2-x,1/2-y,1/2-z
1/4+y,3/4-x,1/4-z
1/2+x,y,1/2-z
1/4-y,1/4+x,3/4-z
1/2-x,1/2+y,z
x,1/2-y,1/2+z
3/4-y,1/4-x,1/4+z
1/4+y,1/4+x,1/4+z
loop_
_atom_site_type_symbol
_atom_site_label
_atom_site_fract_x
_atom_site_fract_y
_atom_site_fract_z
Si Si1 0.215651 0.965651 0.875000
Si Si2 0.704724 0.281571 0.650549
Si Si3 0.250000 0.862178 0.000000
Si Si4 0.931852 0.318149 0.125000
Si Si5 0.750000 0.425103 0.000000
Si Si6 0.497526 0.670236 0.430890
Si Si7 0.796950 0.321380 0.136726
O O1 0.156765 0.964758 0.815477
O O2 0.214833 0.026712 0.935839
O O3 0.704754 0.323280 0.559352
O O4 0.648692 0.241681 0.672053
O O5 0.705907 0.323912 0.745610
O O6 0.757502 0.236887 0.626926
O O7 0.938287 0.275148 0.216177
O O8 0.863012 0.311220 0.099542
O O9 0.723981 0.379254 0.920569
O O10 0.440324 0.705150 0.400100
#
# Coordination Sequence:
#
# PCOD9573979 Si02
#       7
#    16  32  16  16  16  32  32
#     4  10  27  42  60 101 140 181 235 274 361 411
#     4  10  24  45  68 104 135 178 234 284 354 408
#     4  11  25  44  60  96 143 175 226 294 334 417
#     4  10  23  43  68 105 136 170 236 292 337 417
#     4  11  23  42  68  94 133 183 226 282 336 435
#     4  10  24  44  68  98 136 181 228 286 345 412
#     4  10  23  42  73 100 132 177 230 287 344 422
#
# _framework density 22.212024
#
# number of rings (size 3 to 8) (size 9 to 14) (size 15 to 20)
#    0.000    1.800    0.000    1.200   16.800    1.600 
#    7.200    0.000    0.000    0.000    0.000    0.000 
#    0.000    0.000    0.000    0.000    0.000    0.000 
#
# Total GULP energy -445875.276360 kJ/mol
# GULP energy per Si atom -5573.440955 kJ/mol
# Density = 2.216147 g / cm^3
# Si number density = 22.212024 Si / 1000 Ang^3
#
#
#
# Elastic Constant Matrix: (Units=GPa)
#
#
# Indices 1 2 3 4 5 6 
#
# 1 40.1394 9.5519 1.2971 0.0000 0.0000 0.0000
# 2 9.5519 40.1381 1.2958 0.0000 0.0000 0.0000
# 3 1.2971 1.2958 67.7372 0.0000 0.0000 0.0000
# 4 0.0000 0.0000 0.0000 28.1208 0.0000 0.0000
# 5 0.0000 0.0000 0.0000 0.0000 28.1208 0.0000
# 6 0.0000 0.0000 0.0000 0.0000 0.0000 73.8621
#
#
#
# Elastic Compliance Matrix: (Units=1/GPa)
#
#
# Indices 1 2 3 4 5 6 
#
# 1 0.026419 -0.006275 -0.000386 0.000000 0.000000 0.000000
# 2 -0.006275 0.026420 -0.000385 0.000000 0.000000 0.000000
# 3 -0.000386 -0.000385 0.014778 0.000000 0.000000 0.000000
# 4 0.000000 0.000000 0.000000 0.035561 0.000000 0.000000
# 5 0.000000 0.000000 0.000000 0.000000 0.035561 0.000000
# 6 0.000000 0.000000 0.000000 0.000000 0.000000 0.013539
#
#
# Mechanical properties :
#
#
# Convention : Reuss Voigt Hill
#
# Bulk Modulus (GPa) = 18.68295 19.14493 18.91394
# Shear Modulus (GPa) = 27.14301 35.07874 31.11088
#
# Velocity S-wave (km/s) = 3.49950 3.97831 3.74656
# Velocity P-wave (km/s) = 4.97575 5.45349 5.22009
#
# Compressibility (1/GPa) = 0.05352473
#
# Stress axis : x y z
#
# Youngs Moduli (GPa) = 37.85185 37.85062 67.66958
#
# Poissons Ratio (x) = 0.23750 0.02611
# Poissons Ratio (y) = 0.23750 0.02607
# Poissons Ratio (z) = 0.01461 0.01458
#
# Static dielectric constant tensor:
#      x y z
#    x 1.808500 0.000000 0.000000 
#    y 0.000000 1.808500 0.000000 
#    z 0.000000 0.000000 1.893680 
# 
# From -- ./inp_files/5521.got.cif
#   From: 2010.05.17/outbox.cif.g08.bks.cpg/sg142_3_cif.got.tgz:5521.got - 2010.05.20 13:39:18.
