data_PCOD9573428
_publ_section_title
;
Structure prediction by ZEFSAII (Michael W. Deem and Ramdas Pophale) SiO2 
 PCOD9573428
Probable space group: I 41/A C D
;
_chemical_formula_sum "Si O2"
_cell_formula_units_Z 144
_cell_length_a 20.214928
_cell_length_b 20.214928
_cell_length_c 14.782334
_cell_angle_alpha 90.000000
_cell_angle_beta 90.000000
_cell_angle_gamma 90.000000
_cell_volume 6040.701955
_symmetry_space_group_name_H-M "I 41/A C D"
_symmetry_group_IT_number 142
_space_group.IT_coordinate_system_code '2'
_symmetry_cell_setting 'tetragonal'
loop_
_space_group_symop_operation_xyz
x,y,z
1/4-y,3/4+x,1/4+z
-x,1/2-y,z
1/4+y,1/4-x,3/4+z
x,-y,1/2-z
1/2-x,y,-z
3/4+y,1/4+x,1/4-z
1/4-y,1/4-x,1/4-z
-x,-y,-z
3/4+y,1/4-x,3/4-z
x,1/2+y,-z
3/4-y,3/4+x,1/4-z
-x,y,1/2+z
1/2+x,-y,z
1/4-y,3/4-x,3/4+z
3/4+y,3/4+x,3/4+z
1/2+x,1/2+y,1/2+z
3/4-y,1/4+x,3/4+z
1/2-x,-y,1/2+z
3/4+y,3/4-x,1/4+z
1/2+x,1/2-y,-z
-x,1/2+y,1/2-z
1/4+y,3/4+x,3/4-z
3/4-y,3/4-x,3/4-z
1/2-x,1/2-y,1/2-z
1/4+y,3/4-x,1/4-z
1/2+x,y,1/2-z
1/4-y,1/4+x,3/4-z
1/2-x,1/2+y,z
x,1/2-y,1/2+z
3/4-y,1/4-x,1/4+z
1/4+y,1/4+x,1/4+z
loop_
_atom_site_type_symbol
_atom_site_label
_atom_site_fract_x
_atom_site_fract_y
_atom_site_fract_z
Si Si1 0.380588 0.773774 0.288322
Si Si2 0.495008 0.141307 0.249490
Si Si3 0.510989 0.500000 0.250000
Si Si4 0.876819 0.105754 0.513854
Si Si5 0.395137 0.527034 0.389304
O O1 0.444813 0.798685 0.233946
O O2 0.399636 0.768456 0.394807
O O3 0.350557 0.703117 0.266027
O O4 0.325600 0.830477 0.281956
O O5 0.455900 0.071597 0.258169
O O6 0.566226 0.128744 0.296683
O O7 0.462459 0.508682 0.335641
O O8 0.821760 0.105781 0.433941
O O9 0.865539 0.040306 0.573292
#
# Coordination Sequence:
#
# PCOD9573428 Si02
#       5
#    32  32  16  32  32
#     4  10  17  33  60  97 126 167 219 283 335 395
#     4  10  18  32  61  89 127 168 220 269 333 394
#     4   8  20  36  54  84 126 178 204 272 332 408
#     4  10  20  33  59  97 132 172 222 274 338 411
#     4  10  21  35  59  92 133 176 218 274 344 406
#
# _framework density 23.838290000000001
#
# number of rings (size 3 to 8) (size 9 to 14) (size 15 to 20)
#    0.000    2.667    4.444    1.333    0.000    3.556 
#    0.000    1.111    0.000   21.333    0.000    0.000 
#    0.000    0.222    0.000    0.000    0.000    0.000 
#
# Total GULP energy -400997.936074 kJ/mol
# GULP energy per Si atom -5569.415779 kJ/mol
# Density = 2.378403 g / cm^3
# Si number density = 23.838290 Si / 1000 Ang^3
#
#
#
# Elastic Constant Matrix: (Units=GPa)
#
#
# Indices 1 2 3 4 5 6 
#
# 1 155.2214 85.7116 42.0937 0.0000 0.0000 0.0000
# 2 85.7116 155.2214 42.0937 0.0000 0.0000 0.0000
# 3 42.0937 42.0937 58.6199 0.0000 0.0000 0.0000
# 4 0.0000 0.0000 0.0000 24.2680 0.0000 0.0000
# 5 0.0000 0.0000 0.0000 0.0000 24.2680 0.0000
# 6 0.0000 0.0000 0.0000 0.0000 0.0000 12.8456
#
#
#
# Elastic Compliance Matrix: (Units=1/GPa)
#
#
# Indices 1 2 3 4 5 6 
#
# 1 0.009964 -0.004423 -0.003979 0.000000 0.000000 0.000000
# 2 -0.004423 0.009964 -0.003979 0.000000 0.000000 0.000000
# 3 -0.003979 -0.003979 0.022773 0.000000 0.000000 0.000000
# 4 0.000000 0.000000 0.000000 0.041206 0.000000 0.000000
# 5 0.000000 0.000000 0.000000 0.000000 0.041206 0.000000
# 6 0.000000 0.000000 0.000000 0.000000 0.000000 0.077847
#
#
# Mechanical properties :
#
#
# Convention : Reuss Voigt Hill
#
# Bulk Modulus (GPa) = 55.74192 78.76231 67.25211
# Shear Modulus (GPa) = 21.39483 25.55391 23.47437
#
# Velocity S-wave (km/s) = 2.99908 3.27765 3.14145
# Velocity P-wave (km/s) = 5.95204 6.88737 6.43672
#
# Compressibility (1/GPa) = 0.01793982
#
# Stress axis : x y z
#
# Youngs Moduli (GPa) = 100.36513 100.36513 43.91138
#
# Poissons Ratio (x) = 0.44390 0.17471
# Poissons Ratio (y) = 0.44390 0.17471
# Poissons Ratio (z) = 0.39933 0.39933
#
# Static dielectric constant tensor:
#      x y z
#    x 1.981390 0.000000 0.000000 
#    y 0.000000 1.981390 0.000000 
#    z 0.000000 0.000000 2.138990 
# 
# From -- ./inp_files/8997.got.cif
#   From: 2010.05.17/outbox.cif.g08.bks.cpg/sg142_5_cif.got.tgz:8997.got - 2010.05.20 13:39:18.
