data_PCOD9573575
_publ_section_title
;
Structure prediction by ZEFSAII (Michael W. Deem and Ramdas Pophale) SiO2 
 PCOD9573575
Probable space group: I 41/A C D
;
_chemical_formula_sum "Si O2"
_cell_formula_units_Z 128
_cell_length_a 14.087549
_cell_length_b 14.087549
_cell_length_c 28.974874
_cell_angle_alpha 90.000000
_cell_angle_beta 90.000000
_cell_angle_gamma 90.000000
_cell_volume 5750.325586
_symmetry_space_group_name_H-M "I 41/A C D"
_symmetry_group_IT_number 142
_space_group.IT_coordinate_system_code '2'
_symmetry_cell_setting 'tetragonal'
loop_
_space_group_symop_operation_xyz
x,y,z
1/4-y,3/4+x,1/4+z
-x,1/2-y,z
1/4+y,1/4-x,3/4+z
x,-y,1/2-z
1/2-x,y,-z
3/4+y,1/4+x,1/4-z
1/4-y,1/4-x,1/4-z
-x,-y,-z
3/4+y,1/4-x,3/4-z
x,1/2+y,-z
3/4-y,3/4+x,1/4-z
-x,y,1/2+z
1/2+x,-y,z
1/4-y,3/4-x,3/4+z
3/4+y,3/4+x,3/4+z
1/2+x,1/2+y,1/2+z
3/4-y,1/4+x,3/4+z
1/2-x,-y,1/2+z
3/4+y,3/4-x,1/4+z
1/2+x,1/2-y,-z
-x,1/2+y,1/2-z
1/4+y,3/4+x,3/4-z
3/4-y,3/4-x,3/4-z
1/2-x,1/2-y,1/2-z
1/4+y,3/4-x,1/4-z
1/2+x,y,1/2-z
1/4-y,1/4+x,3/4-z
1/2-x,1/2+y,z
x,1/2-y,1/2+z
3/4-y,1/4-x,1/4+z
1/4+y,1/4+x,1/4+z
loop_
_atom_site_type_symbol
_atom_site_label
_atom_site_fract_x
_atom_site_fract_y
_atom_site_fract_z
Si Si1 0.250000 0.271513 0.000000
Si Si2 0.826776 0.576776 0.875000
Si Si3 0.696862 0.118300 0.779593
Si Si4 0.586723 0.049737 0.439530
Si Si5 0.279317 0.791071 0.593574
O O1 0.166592 0.342842 0.014869
O O2 0.219591 0.216752 0.953616
O O3 0.771947 0.563602 0.826580
O O4 0.808635 0.685538 0.890174
O O5 0.692806 0.228367 0.793762
O O6 0.759126 0.108967 0.733770
O O7 0.630242 0.149451 0.424005
O O8 0.587702 0.990514 0.391115
#
# Coordination Sequence:
#
# PCOD9573575 Si02
#       5
#    16  16  32  32  32
#     4  10  20  32  48  74 104 132 168 214 262 310
#     4   8  16  31  54  76 100 138 172 207 254 310
#     4   9  18  33  52  75 103 132 166 211 265 311
#     4   9  18  34  54  74 100 136 175 213 257 314
#     4   9  18  33  53  77  99 130 179 218 250 303
#
# _framework density 22.259608
#
# number of rings (size 3 to 8) (size 9 to 14) (size 15 to 20)
#    0.000    3.000    0.000    0.000    0.000   16.000 
#    0.000   25.000    0.000    0.000    0.000    0.000 
#    0.000    0.000    0.000    0.000    0.000    0.000 
#
# Total GULP energy -356379.724200 kJ/mol
# GULP energy per Si atom -5568.433191 kJ/mol
# Density = 2.220894 g / cm^3
# Si number density = 22.259608 Si / 1000 Ang^3
#
#
#
# Elastic Constant Matrix: (Units=GPa)
#
#
# Indices 1 2 3 4 5 6 
#
# 1 37.3592 -0.1886 52.7035 0.0000 0.0000 0.0000
# 2 -0.1886 37.3592 52.7035 0.0000 0.0000 0.0000
# 3 52.7035 52.7035 294.0041 0.0000 0.0000 0.0000
# 4 0.0000 0.0000 0.0000 40.5683 0.0000 0.0000
# 5 0.0000 0.0000 0.0000 0.0000 40.5683 0.0000
# 6 0.0000 0.0000 0.0000 0.0000 0.0000 17.8308
#
#
#
# Elastic Compliance Matrix: (Units=1/GPa)
#
#
# Indices 1 2 3 4 5 6 
#
# 1 0.040676 0.014043 -0.009809 0.000000 0.000000 0.000000
# 2 0.014043 0.040676 -0.009809 0.000000 0.000000 0.000000
# 3 -0.009809 -0.009809 0.006918 0.000000 0.000000 0.000000
# 4 0.000000 0.000000 0.000000 0.024650 0.000000 0.000000
# 5 0.000000 0.000000 0.000000 0.000000 0.024650 0.000000
# 6 0.000000 0.000000 0.000000 0.000000 0.000000 0.056083
#
#
# Mechanical properties :
#
#
# Convention : Reuss Voigt Hill
#
# Bulk Modulus (GPa) = 12.96682 64.35102 38.65892
# Shear Modulus (GPa) = 21.69118 37.36042 29.52580
#
# Velocity S-wave (km/s) = 3.12503 4.10127 3.64597
# Velocity P-wave (km/s) = 4.34269 7.16933 5.92698
#
# Compressibility (1/GPa) = 0.07711991
#
# Stress axis : x y z
#
# Youngs Moduli (GPa) = 24.58464 24.58464 144.54960
#
# Poissons Ratio (x) = -0.34524 1.41788
# Poissons Ratio (y) = -0.34524 1.41788
# Poissons Ratio (z) = 0.24115 0.24115
#
# Static dielectric constant tensor:
#      x y z
#    x 1.843700 0.000000 0.000000 
#    y 0.000000 1.843700 0.000000 
#    z 0.000000 0.000000 1.978360 
# 
# From -- ./inp_files/10072.got.cif
#   From: 2010.05.17/outbox.cif.g08.bks.cpg/sg142_6_cif.got.tgz:10072.got - 2010.05.20 13:39:18.
