data_PCOD9573019
_publ_section_title
;
Structure prediction by ZEFSAII (Michael W. Deem and Ramdas Pophale) SiO2 
 PCOD9573019
Probable space group: I 41/A M D
;
_chemical_formula_sum "Si O2"
_cell_formula_units_Z 128
_cell_length_a 23.642084
_cell_length_b 23.642084
_cell_length_c 11.022172
_cell_angle_alpha 90.000000
_cell_angle_beta 90.000000
_cell_angle_gamma 90.000000
_cell_volume 6160.822493
_symmetry_space_group_name_H-M "I 41/A M D"
_symmetry_group_IT_number 141
_space_group.IT_coordinate_system_code '2'
_symmetry_cell_setting 'tetragonal'
loop_
_space_group_symop_operation_xyz
x,y,z
1/4-y,3/4+x,1/4+z
-x,1/2-y,z
1/4+y,1/4-x,3/4+z
x,-y,-z
-x,1/2+y,-z
1/4+y,3/4+x,1/4-z
1/4-y,1/4-x,3/4-z
-x,-y,-z
3/4+y,1/4-x,3/4-z
x,1/2+y,-z
3/4-y,3/4+x,1/4-z
-x,y,z
x,1/2-y,z
3/4-y,1/4-x,3/4+z
3/4+y,3/4+x,1/4+z
1/2+x,1/2+y,1/2+z
3/4-y,1/4+x,3/4+z
1/2-x,-y,1/2+z
3/4+y,3/4-x,1/4+z
1/2+x,1/2-y,1/2-z
1/2-x,y,1/2-z
3/4+y,1/4+x,3/4-z
3/4-y,3/4-x,1/4-z
1/2-x,1/2-y,1/2-z
1/4+y,3/4-x,1/4-z
1/2+x,y,1/2-z
1/4-y,1/4+x,3/4-z
1/2-x,1/2+y,1/2+z
1/2+x,-y,1/2+z
1/4-y,3/4-x,1/4+z
1/4+y,1/4+x,3/4+z
loop_
_atom_site_type_symbol
_atom_site_label
_atom_site_fract_x
_atom_site_fract_y
_atom_site_fract_z
Si Si1 0.294845 0.314691 0.843757
Si Si2 0.938369 0.669795 0.984052
Si Si3 0.791874 0.371273 0.402000
Si Si4 0.064121 0.073040 0.586035
O O1 0.277560 0.250000 0.878290
O O2 0.250000 0.338855 0.750000
O O3 0.352510 0.311222 0.771180
O O4 0.304238 0.351757 0.962214
O O5 0.882565 0.685390 0.907163
O O6 0.000000 0.688223 0.934010
O O7 0.935951 0.685951 0.125000
O O8 0.816127 0.433874 0.375000
O O9 0.725268 0.357419 0.384058
O O10 0.825648 0.331890 0.305225
O O11 0.000000 0.050906 0.596760
#
# Coordination Sequence:
#
# PCOD9573019 Si02
#       4
#    32  32  32  32
#     4  10  20  37  63  93 130 177 232 288 341 410
#     4  11  23  39  62  96 139 182 231 289 349 417
#     4  11  21  40  66  96 132 171 228 288 340 413
#     4  11  23  40  67  97 133 184 229 274 347 422
#
# _framework density 20.776447000000001
#
# number of rings (size 3 to 8) (size 9 to 14) (size 15 to 20)
#    0.000    1.250    2.500    5.250    0.000    3.750 
#    0.000    0.000    5.500    0.000    0.000    0.000 
#    0.000    0.000    0.000    0.000    0.000    0.000 
#
# Total GULP energy -356926.595223 kJ/mol
# GULP energy per Si atom -5576.978050 kJ/mol
# Density = 2.072916 g / cm^3
# Si number density = 20.776447 Si / 1000 Ang^3
#
#
#
# Elastic Constant Matrix: (Units=GPa)
#
#
# Indices 1 2 3 4 5 6 
#
# 1 135.6140 41.4667 43.6471 0.0000 0.0000 0.0000
# 2 41.4667 135.6114 43.6467 0.0000 0.0000 0.0000
# 3 43.6471 43.6467 106.6932 0.0000 0.0000 0.0000
# 4 0.0000 0.0000 0.0000 11.5958 0.0000 0.0000
# 5 0.0000 0.0000 0.0000 0.0000 11.5950 0.0000
# 6 0.0000 0.0000 0.0000 0.0000 0.0000 16.9781
#
#
#
# Elastic Compliance Matrix: (Units=1/GPa)
#
#
# Indices 1 2 3 4 5 6 
#
# 1 0.008848 -0.001774 -0.002894 0.000000 0.000000 0.000000
# 2 -0.001774 0.008848 -0.002894 0.000000 0.000000 0.000000
# 3 -0.002894 -0.002894 0.011740 0.000000 0.000000 0.000000
# 4 0.000000 0.000000 0.000000 0.086238 0.000000 0.000000
# 5 0.000000 0.000000 0.000000 0.000000 0.086244 0.000000
# 6 0.000000 0.000000 0.000000 0.000000 0.000000 0.058899
#
#
# Mechanical properties :
#
#
# Convention : Reuss Voigt Hill
#
# Bulk Modulus (GPa) = 69.86838 70.60438 70.23638
# Shear Modulus (GPa) = 17.81188 24.64432 21.22810
#
# Velocity S-wave (km/s) = 2.93116 3.44781 3.19993
# Velocity P-wave (km/s) = 6.71992 7.06446 6.89434
#
# Compressibility (1/GPa) = 0.01431263
#
# Stress axis : x y z
#
# Youngs Moduli (GPa) = 113.02411 113.02200 85.17685
#
# Poissons Ratio (x) = 0.20051 0.24648
# Poissons Ratio (y) = 0.20051 0.24648
# Poissons Ratio (z) = 0.32706 0.32706
#
# Static dielectric constant tensor:
#      x y z
#    x 1.811420 0.000000 0.000000 
#    y 0.000000 1.811430 0.000000 
#    z 0.000000 0.000000 1.742160 
# 
# From -- ./inp_files/4581.got.cif
#   From: 2010.05.17/outbox.cif.g08.bks.cpg/sg141_3_cif.got.tgz:4581.got - 2010.05.20 13:30:51.
