data_PCOD9573510
_publ_section_title
;
Structure prediction by ZEFSAII (Michael W. Deem and Ramdas Pophale) SiO2 
 PCOD9573510
Probable space group: I 41/A C D
;
_chemical_formula_sum "Si O2"
_cell_formula_units_Z 160
_cell_length_a 22.074068
_cell_length_b 22.074068
_cell_length_c 17.505014
_cell_angle_alpha 90.000000
_cell_angle_beta 90.000000
_cell_angle_gamma 90.000000
_cell_volume 8529.571510
_symmetry_space_group_name_H-M "I 41/A C D"
_symmetry_group_IT_number 142
_space_group.IT_coordinate_system_code '2'
_symmetry_cell_setting 'tetragonal'
loop_
_space_group_symop_operation_xyz
x,y,z
1/4-y,3/4+x,1/4+z
-x,1/2-y,z
1/4+y,1/4-x,3/4+z
x,-y,1/2-z
1/2-x,y,-z
3/4+y,1/4+x,1/4-z
1/4-y,1/4-x,1/4-z
-x,-y,-z
3/4+y,1/4-x,3/4-z
x,1/2+y,-z
3/4-y,3/4+x,1/4-z
-x,y,1/2+z
1/2+x,-y,z
1/4-y,3/4-x,3/4+z
3/4+y,3/4+x,3/4+z
1/2+x,1/2+y,1/2+z
3/4-y,1/4+x,3/4+z
1/2-x,-y,1/2+z
3/4+y,3/4-x,1/4+z
1/2+x,1/2-y,-z
-x,1/2+y,1/2-z
1/4+y,3/4+x,3/4-z
3/4-y,3/4-x,3/4-z
1/2-x,1/2-y,1/2-z
1/4+y,3/4-x,1/4-z
1/2+x,y,1/2-z
1/4-y,1/4+x,3/4-z
1/2-x,1/2+y,z
x,1/2-y,1/2+z
3/4-y,1/4-x,1/4+z
1/4+y,1/4+x,1/4+z
loop_
_atom_site_type_symbol
_atom_site_label
_atom_site_fract_x
_atom_site_fract_y
_atom_site_fract_z
Si Si1 0.212305 0.185372 0.333345
Si Si2 0.322045 0.004727 0.992124
Si Si3 0.678890 0.129004 0.021359
Si Si4 0.356019 0.393982 0.375000
Si Si5 0.404151 0.845850 0.125000
Si Si6 0.985146 0.582175 0.422223
O O1 0.238485 0.117936 0.313278
O O2 0.172387 0.175226 0.408535
O O3 0.269841 0.229131 0.345924
O O4 0.176982 0.211235 0.259350
O O5 0.250000 0.002287 0.000000
O O6 0.334713 0.064280 0.943996
O O7 0.338993 0.939833 0.955346
O O8 0.750000 0.129953 0.000000
O O9 0.641650 0.143862 0.945526
O O10 0.342503 0.322993 0.380980
O O11 0.387683 0.780604 0.159434
#
# Coordination Sequence:
#
# PCOD9573510 Si02
#       6
#    32  32  32  16  16  32
#     4  10  20  38  59  91 131 163 204 265 320 392
#     4  10  19  34  59  95 129 152 198 271 330 381
#     4  11  19  34  62  95 124 159 207 257 334 383
#     4  10  22  38  56  84 123 169 204 255 321 366
#     4  12  22  40  64  92 123 177 210 266 297 387
#     4  10  22  40  59  85 125 172 215 256 314 376
#
# _framework density 18.758268999999999
#
# number of rings (size 3 to 8) (size 9 to 14) (size 15 to 20)
#    0.000    1.600    4.000    1.200    0.000    3.600 
#    3.600    2.000    0.000    0.000    0.000    0.000 
#    0.000    0.000    0.000    0.000    0.000    0.000 
#
# Total GULP energy -445777.387264 kJ/mol
# GULP energy per Si atom -5572.217341 kJ/mol
# Density = 1.871557 g / cm^3
# Si number density = 18.758269 Si / 1000 Ang^3
#
#
#
# Elastic Constant Matrix: (Units=GPa)
#
#
# Indices 1 2 3 4 5 6 
#
# 1 96.7986 20.4947 44.1883 0.0000 0.0000 0.0000
# 2 20.4947 96.7987 44.1885 0.0000 0.0000 0.0000
# 3 44.1883 44.1885 98.1741 0.0000 0.0000 0.0000
# 4 0.0000 0.0000 0.0000 31.2577 0.0000 0.0000
# 5 0.0000 0.0000 0.0000 0.0000 31.2580 0.0000
# 6 0.0000 0.0000 0.0000 0.0000 0.0000 23.4737
#
#
#
# Elastic Compliance Matrix: (Units=1/GPa)
#
#
# Indices 1 2 3 4 5 6 
#
# 1 0.013003 -0.000102 -0.005807 0.000000 0.000000 0.000000
# 2 -0.000102 0.013003 -0.005807 0.000000 0.000000 0.000000
# 3 -0.005807 -0.005807 0.015413 0.000000 0.000000 0.000000
# 4 0.000000 0.000000 0.000000 0.031992 0.000000 0.000000
# 5 0.000000 0.000000 0.000000 0.000000 0.031992 0.000000
# 6 0.000000 0.000000 0.000000 0.000000 0.000000 0.042601
#
#
# Mechanical properties :
#
#
# Convention : Reuss Voigt Hill
#
# Bulk Modulus (GPa) = 55.59248 56.61272 56.10260
# Shear Modulus (GPa) = 28.17988 29.39122 28.78555
#
# Velocity S-wave (km/s) = 3.88011 3.96263 3.92159
# Velocity P-wave (km/s) = 7.05509 7.15418 7.10480
#
# Compressibility (1/GPa) = 0.01798805
#
# Stress axis : x y z
#
# Youngs Moduli (GPa) = 76.90460 76.90460 64.87958
#
# Poissons Ratio (x) = 0.00787 0.37673
# Poissons Ratio (y) = 0.00787 0.37673
# Poissons Ratio (z) = 0.44656 0.44656
#
# Static dielectric constant tensor:
#      x y z
#    x 1.690390 0.000000 0.000000 
#    y 0.000000 1.690390 0.000000 
#    z 0.000000 0.000000 1.691550 
# 
# From -- ./inp_files/7440.got.cif
#   From: 2010.05.17/outbox.cif.g08.bks.cpg/sg142_4_cif.got.tgz:7440.got - 2010.05.20 13:39:18.
