data_PCOD9573875
_publ_section_title
;
Structure prediction by ZEFSAII (Michael W. Deem and Ramdas Pophale) SiO2 
 PCOD9573875
Probable space group: I 41/A C D
;
_chemical_formula_sum "Si O2"
_cell_formula_units_Z 88
_cell_length_a 23.163117
_cell_length_b 23.163117
_cell_length_c 7.996466
_cell_angle_alpha 90.000000
_cell_angle_beta 90.000000
_cell_angle_gamma 90.000000
_cell_volume 4290.343816
_symmetry_space_group_name_H-M "I 41/A C D"
_symmetry_group_IT_number 142
_space_group.IT_coordinate_system_code '2'
_symmetry_cell_setting 'tetragonal'
loop_
_space_group_symop_operation_xyz
x,y,z
1/4-y,3/4+x,1/4+z
-x,1/2-y,z
1/4+y,1/4-x,3/4+z
x,-y,1/2-z
1/2-x,y,-z
3/4+y,1/4+x,1/4-z
1/4-y,1/4-x,1/4-z
-x,-y,-z
3/4+y,1/4-x,3/4-z
x,1/2+y,-z
3/4-y,3/4+x,1/4-z
-x,y,1/2+z
1/2+x,-y,z
1/4-y,3/4-x,3/4+z
3/4+y,3/4+x,3/4+z
1/2+x,1/2+y,1/2+z
3/4-y,1/4+x,3/4+z
1/2-x,-y,1/2+z
3/4+y,3/4-x,1/4+z
1/2+x,1/2-y,-z
-x,1/2+y,1/2-z
1/4+y,3/4+x,3/4-z
3/4-y,3/4-x,3/4-z
1/2-x,1/2-y,1/2-z
1/4+y,3/4-x,1/4-z
1/2+x,y,1/2-z
1/4-y,1/4+x,3/4-z
1/2-x,1/2+y,z
x,1/2-y,1/2+z
3/4-y,1/4-x,1/4+z
1/4+y,1/4+x,1/4+z
loop_
_atom_site_type_symbol
_atom_site_label
_atom_site_fract_x
_atom_site_fract_y
_atom_site_fract_z
Si Si1 0.173958 0.500000 0.750000
Si Si2 0.500000 0.250000 0.125000
Si Si3 0.523506 0.500000 0.250000
Si Si4 0.071985 0.438581 0.937299
Si Si5 0.432287 0.182287 0.375000
O O1 0.213755 0.463755 0.625000
O O2 0.131498 0.455933 0.848571
O O3 0.482265 0.195840 0.239817
O O4 0.479884 0.449261 0.193851
O O5 0.560702 0.482834 0.409682
O O6 0.068056 0.376485 0.020983
#
# Coordination Sequence:
#
# PCOD9573875 Si02
#       5
#    16   8  16  32  16
#     4  11  28  45  64  94 130 169 228 289 336 394
#     4  10  24  42  60 106 140 162 216 262 320 394
#     4   9  20  41  64  96 128 159 224 263 310 394
#     4  10  22  40  67  95 126 176 210 267 327 393
#     4  11  22  40  66  94 132 176 202 264 324 393
#
# _framework density 20.511175999999999
#
# number of rings (size 3 to 8) (size 9 to 14) (size 15 to 20)
#    0.000    1.818    0.000    2.182    7.636    0.000 
#   13.091    0.000    0.000    0.000    0.000    0.000 
#    0.000    0.000    0.000    0.000    0.000    0.000 
#
# Total GULP energy -245621.179562 kJ/mol
# GULP energy per Si atom -5582.299536 kJ/mol
# Density = 2.046449 g / cm^3
# Si number density = 20.511176 Si / 1000 Ang^3
#
#
#
# Elastic Constant Matrix: (Units=GPa)
#
#
# Indices 1 2 3 4 5 6 
#
# 1 110.8299 58.6893 63.4620 0.0000 0.0000 0.0000
# 2 58.6893 110.8299 63.4620 0.0000 0.0000 0.0000
# 3 63.4620 63.4620 126.8727 0.0000 0.0000 0.0000
# 4 0.0000 0.0000 0.0000 38.5236 0.0000 0.0000
# 5 0.0000 0.0000 0.0000 0.0000 38.5236 0.0000
# 6 0.0000 0.0000 0.0000 0.0000 0.0000 10.8985
#
#
#
# Elastic Compliance Matrix: (Units=1/GPa)
#
#
# Indices 1 2 3 4 5 6 
#
# 1 0.014305 -0.004874 -0.004717 0.000000 0.000000 0.000000
# 2 -0.004874 0.014305 -0.004717 0.000000 0.000000 0.000000
# 3 -0.004717 -0.004717 0.012601 0.000000 0.000000 0.000000
# 4 0.000000 0.000000 0.000000 0.025958 0.000000 0.000000
# 5 0.000000 0.000000 0.000000 0.000000 0.025958 0.000000
# 6 0.000000 0.000000 0.000000 0.000000 0.000000 0.091756
#
#
# Mechanical properties :
#
#
# Convention : Reuss Voigt Hill
#
# Bulk Modulus (GPa) = 79.40489 79.97323 79.68906
# Shear Modulus (GPa) = 22.96750 28.45042 25.70896
#
# Velocity S-wave (km/s) = 3.34990 3.72838 3.54420
# Velocity P-wave (km/s) = 7.33209 7.59007 7.46219
#
# Compressibility (1/GPa) = 0.01259368
#
# Stress axis : x y z
#
# Youngs Moduli (GPa) = 69.90545 69.90545 79.35692
#
# Poissons Ratio (x) = 0.34071 0.37436
# Poissons Ratio (y) = 0.34071 0.37436
# Poissons Ratio (z) = 0.32978 0.32978
#
# Static dielectric constant tensor:
#      x y z
#    x 1.721500 0.000000 0.000000 
#    y 0.000000 1.721500 0.000000 
#    z 0.000000 0.000000 1.745200 
# 
# From -- ./inp_files/1706.got.cif
#   From: 2010.05.17/outbox.cif.g08.bks.cpg/sg142_1_cif.got.tgz:1706.got - 2010.05.20 13:39:18.
