data_PCOD9573664
_publ_section_title
;
Structure prediction by ZEFSAII (Michael W. Deem and Ramdas Pophale) SiO2 
 PCOD9573664
Probable space group: I 41/A C D
;
_chemical_formula_sum "Si O2"
_cell_formula_units_Z 160
_cell_length_a 23.612726
_cell_length_b 23.612726
_cell_length_c 14.864631
_cell_angle_alpha 90.000000
_cell_angle_beta 90.000000
_cell_angle_gamma 90.000000
_cell_volume 8287.935985
_symmetry_space_group_name_H-M "I 41/A C D"
_symmetry_group_IT_number 142
_space_group.IT_coordinate_system_code '2'
_symmetry_cell_setting 'tetragonal'
loop_
_space_group_symop_operation_xyz
x,y,z
1/4-y,3/4+x,1/4+z
-x,1/2-y,z
1/4+y,1/4-x,3/4+z
x,-y,1/2-z
1/2-x,y,-z
3/4+y,1/4+x,1/4-z
1/4-y,1/4-x,1/4-z
-x,-y,-z
3/4+y,1/4-x,3/4-z
x,1/2+y,-z
3/4-y,3/4+x,1/4-z
-x,y,1/2+z
1/2+x,-y,z
1/4-y,3/4-x,3/4+z
3/4+y,3/4+x,3/4+z
1/2+x,1/2+y,1/2+z
3/4-y,1/4+x,3/4+z
1/2-x,-y,1/2+z
3/4+y,3/4-x,1/4+z
1/2+x,1/2-y,-z
-x,1/2+y,1/2-z
1/4+y,3/4+x,3/4-z
3/4-y,3/4-x,3/4-z
1/2-x,1/2-y,1/2-z
1/4+y,3/4-x,1/4-z
1/2+x,y,1/2-z
1/4-y,1/4+x,3/4-z
1/2-x,1/2+y,z
x,1/2-y,1/2+z
3/4-y,1/4-x,1/4+z
1/4+y,1/4+x,1/4+z
loop_
_atom_site_type_symbol
_atom_site_label
_atom_site_fract_x
_atom_site_fract_y
_atom_site_fract_z
Si Si1 0.221373 0.548675 0.189450
Si Si2 0.561886 0.613496 0.683529
Si Si3 0.906186 0.732494 0.620864
Si Si4 0.826328 0.603360 0.216389
Si Si5 0.315023 0.232703 0.756435
O O1 0.192506 0.500000 0.250000
O O2 0.263274 0.513274 0.125000
O O3 0.177961 0.582817 0.128344
O O4 0.264675 0.585839 0.246869
O O5 0.581727 0.668274 0.625000
O O6 0.529408 0.628099 0.774262
O O7 0.621804 0.586550 0.717387
O O8 0.526083 0.578359 0.612027
O O9 0.936763 0.793556 0.619236
O O10 0.859981 0.729538 0.700983
O O11 0.825392 0.670681 0.213303
O O12 0.250000 0.250000 0.750000
#
# Coordination Sequence:
#
# PCOD9573664 Si02
#       5
#    32  32  32  32  32
#     4   9  18  34  59  89 120 162 206 254 313 388
#     4  10  21  44  63  92 126 166 218 265 325 394
#     4  11  23  43  69  94 128 172 219 270 326 407
#     4  10  20  38  62  91 126 168 216 258 324 393
#     4  11  25  42  61  98 129 165 222 275 331 383
#
# _framework density 19.305167999999998
#
# number of rings (size 3 to 8) (size 9 to 14) (size 15 to 20)
#    0.000    1.800    4.000    1.800    2.800    1.600 
#    7.200    0.000    4.400    0.000    0.000    0.000 
#    0.000    0.000    0.000    0.000    0.000    0.000 
#
# Total GULP energy -446029.545734 kJ/mol
# GULP energy per Si atom -5575.369322 kJ/mol
# Density = 1.926123 g / cm^3
# Si number density = 19.305168 Si / 1000 Ang^3
#
#
#
# Elastic Constant Matrix: (Units=GPa)
#
#
# Indices 1 2 3 4 5 6 
#
# 1 70.2344 29.9236 62.0627 0.0000 0.0000 0.0000
# 2 29.9236 70.2334 62.0629 0.0000 0.0000 0.0000
# 3 62.0627 62.0629 125.0008 0.0000 0.0000 0.0000
# 4 0.0000 0.0000 0.0000 41.7171 0.0000 0.0000
# 5 0.0000 0.0000 0.0000 0.0000 41.7173 0.0000
# 6 0.0000 0.0000 0.0000 0.0000 0.0000 22.9384
#
#
#
# Elastic Compliance Matrix: (Units=1/GPa)
#
#
# Indices 1 2 3 4 5 6 
#
# 1 0.025381 0.000573 -0.012886 0.000000 0.000000 0.000000
# 2 0.000573 0.025381 -0.012887 0.000000 0.000000 0.000000
# 3 -0.012886 -0.012887 0.020796 0.000000 0.000000 0.000000
# 4 0.000000 0.000000 0.000000 0.023971 0.000000 0.000000
# 5 0.000000 0.000000 0.000000 0.000000 0.023971 0.000000
# 6 0.000000 0.000000 0.000000 0.000000 0.000000 0.043595
#
#
# Mechanical properties :
#
#
# Convention : Reuss Voigt Hill
#
# Bulk Modulus (GPa) = 47.26013 63.72966 55.49490
# Shear Modulus (GPa) = 22.67096 28.70251 25.68674
#
# Velocity S-wave (km/s) = 3.43059 3.86006 3.65165
# Velocity P-wave (km/s) = 6.34237 7.27668 6.82553
#
# Compressibility (1/GPa) = 0.02115948
#
# Stress axis : x y z
#
# Youngs Moduli (GPa) = 39.40021 39.39908 48.08609
#
# Poissons Ratio (x) = -0.02259 0.61964
# Poissons Ratio (y) = -0.02259 0.61966
# Poissons Ratio (z) = 0.50772 0.50772
#
# Static dielectric constant tensor:
#      x y z
#    x 1.699050 0.000000 0.000000 
#    y 0.000000 1.699050 0.000000 
#    z 0.000000 0.000000 1.949870 
# 
# From -- ./inp_files/5444.got.cif
#   From: 2010.05.17/outbox.cif.g08.bks.cpg/sg142_3_cif.got.tgz:5444.got - 2010.05.20 13:39:18.
