data_PCOD9573250
_publ_section_title
;
Structure prediction by ZEFSAII (Michael W. Deem and Ramdas Pophale) SiO2 
 PCOD9573250
Probable space group: I 41/A M D
;
_chemical_formula_sum "Si O2"
_cell_formula_units_Z 112
_cell_length_a 17.448721
_cell_length_b 17.448721
_cell_length_c 18.580475
_cell_angle_alpha 90.000000
_cell_angle_beta 90.000000
_cell_angle_gamma 90.000000
_cell_volume 5656.971741
_symmetry_space_group_name_H-M "I 41/A M D"
_symmetry_group_IT_number 141
_space_group.IT_coordinate_system_code '2'
_symmetry_cell_setting 'tetragonal'
loop_
_space_group_symop_operation_xyz
x,y,z
1/4-y,3/4+x,1/4+z
-x,1/2-y,z
1/4+y,1/4-x,3/4+z
x,-y,-z
-x,1/2+y,-z
1/4+y,3/4+x,1/4-z
1/4-y,1/4-x,3/4-z
-x,-y,-z
3/4+y,1/4-x,3/4-z
x,1/2+y,-z
3/4-y,3/4+x,1/4-z
-x,y,z
x,1/2-y,z
3/4-y,1/4-x,3/4+z
3/4+y,3/4+x,1/4+z
1/2+x,1/2+y,1/2+z
3/4-y,1/4+x,3/4+z
1/2-x,-y,1/2+z
3/4+y,3/4-x,1/4+z
1/2+x,1/2-y,1/2-z
1/2-x,y,1/2-z
3/4+y,1/4+x,3/4-z
3/4-y,3/4-x,1/4-z
1/2-x,1/2-y,1/2-z
1/4+y,3/4-x,1/4-z
1/2+x,y,1/2-z
1/4-y,1/4+x,3/4-z
1/2-x,1/2+y,1/2+z
1/2+x,-y,1/2+z
1/4-y,3/4-x,1/4+z
1/4+y,1/4+x,3/4+z
loop_
_atom_site_type_symbol
_atom_site_label
_atom_site_fract_x
_atom_site_fract_y
_atom_site_fract_z
Si Si1 0.907294 0.750000 0.936156
Si Si2 0.585876 0.612923 0.802027
Si Si3 0.000000 0.586461 0.469723
Si Si4 0.697466 0.382455 0.477443
Si Si5 0.723409 0.973409 0.375000
O O1 0.854840 0.750000 0.864097
O O2 0.876429 0.672375 0.973665
O O3 0.000000 0.750000 0.925036
O O4 0.633201 0.616800 0.875000
O O5 0.500000 0.638166 0.818754
O O6 0.623870 0.673325 0.749080
O O7 0.585757 0.526648 0.775459
O O8 0.000000 0.500000 0.500000
O O9 0.705179 0.441941 0.409351
O O10 0.703214 0.423883 0.554594
#
# Coordination Sequence:
#
# PCOD9573250 Si02
#       5
#    16  32  16  32  16
#     4  12  26  48  66  98 138 183 236 293 347 413
#     4  12  22  37  62 100 145 180 217 263 335 421
#     4  12  26  38  64 106 145 188 223 271 346 430
#     4  11  23  45  67 100 130 180 228 288 353 417
#     4  10  24  42  71  96 131 168 230 290 350 418
#
# _framework density 19.798579
#
# number of rings (size 3 to 8) (size 9 to 14) (size 15 to 20)
#    0.000    0.571    4.286    4.714    4.000    0.000 
#    5.143    1.429    0.000    0.000    0.000    0.000 
#    0.000    0.000    0.000    0.000    0.000    0.000 
#
# Total GULP energy -312294.095726 kJ/mol
# GULP energy per Si atom -5576.680281 kJ/mol
# Density = 1.975352 g / cm^3
# Si number density = 19.798579 Si / 1000 Ang^3
#
#
#
# Elastic Constant Matrix: (Units=GPa)
#
#
# Indices 1 2 3 4 5 6 
#
# 1 77.7006 88.1777 26.5546 0.0000 0.0000 0.0000
# 2 88.1777 77.6988 26.5512 0.0000 0.0000 0.0000
# 3 26.5546 26.5512 95.9676 0.0000 0.0000 0.0000
# 4 0.0000 0.0000 0.0000 -54.7346 0.0000 0.0000
# 5 0.0000 0.0000 0.0000 0.0000 -54.7545 0.0000
# 6 0.0000 0.0000 0.0000 0.0000 0.0000 32.5173
#
#
#
# Elastic Compliance Matrix: (Units=1/GPa)
#
#
# Indices 1 2 3 4 5 6 
#
# 1 -0.044412 0.051026 -0.001828 0.000000 0.000000 0.000000
# 2 0.051026 -0.044412 -0.001832 0.000000 0.000000 0.000000
# 3 -0.001828 -0.001832 0.011433 0.000000 0.000000 0.000000
# 4 0.000000 0.000000 0.000000 -0.018270 0.000000 0.000000
# 5 0.000000 0.000000 0.000000 0.000000 -0.018263 0.000000
# 6 0.000000 0.000000 0.000000 0.000000 0.000000 0.030753
#
#
# Mechanical properties :
#
#
# Convention : Reuss Voigt Hill
#
# Bulk Modulus (GPa) = 57.66570 59.32602 58.49586
# Shear Modulus (GPa) = -29.04909 -8.05545 -18.55227
#
# Velocity S-wave (km/s) = -3.83460 -2.01929 -3.06445
# Velocity P-wave (km/s) = 3.09578 4.95915 4.13382
#
# Compressibility (1/GPa) = 0.01734133
#
# Stress axis : x y z
#
# Youngs Moduli (GPa) = -22.51655 -22.51661 87.46664
#
# Poissons Ratio (x) = 1.14894 0.15993
# Poissons Ratio (y) = 1.14893 0.16023
# Poissons Ratio (z) = -0.04117 -0.04125
#
# Static dielectric constant tensor:
#      x y z
#    x 1.995670 0.000000 0.000000 
#    y 0.000000 1.995740 0.000000 
#    z 0.000000 0.000000 1.714940 
# 
# From -- ./inp_files/7992.got.cif
#   From: 2010.05.17/outbox.cif.g08.bks.cpg/sg141_4_cif.got.tgz:7992.got - 2010.05.20 13:30:51.
