data_PCOD9573701
_publ_section_title
;
Structure prediction by ZEFSAII (Michael W. Deem and Ramdas Pophale) SiO2 
 PCOD9573701
Probable space group: I 41/A C D
;
_chemical_formula_sum "Si O2"
_cell_formula_units_Z 160
_cell_length_a 27.279967
_cell_length_b 27.279967
_cell_length_c 9.577670
_cell_angle_alpha 90.000000
_cell_angle_beta 90.000000
_cell_angle_gamma 90.000000
_cell_volume 7127.669445
_symmetry_space_group_name_H-M "I 41/A C D"
_symmetry_group_IT_number 142
_space_group.IT_coordinate_system_code '2'
_symmetry_cell_setting 'tetragonal'
loop_
_space_group_symop_operation_xyz
x,y,z
1/4-y,3/4+x,1/4+z
-x,1/2-y,z
1/4+y,1/4-x,3/4+z
x,-y,1/2-z
1/2-x,y,-z
3/4+y,1/4+x,1/4-z
1/4-y,1/4-x,1/4-z
-x,-y,-z
3/4+y,1/4-x,3/4-z
x,1/2+y,-z
3/4-y,3/4+x,1/4-z
-x,y,1/2+z
1/2+x,-y,z
1/4-y,3/4-x,3/4+z
3/4+y,3/4+x,3/4+z
1/2+x,1/2+y,1/2+z
3/4-y,1/4+x,3/4+z
1/2-x,-y,1/2+z
3/4+y,3/4-x,1/4+z
1/2+x,1/2-y,-z
-x,1/2+y,1/2-z
1/4+y,3/4+x,3/4-z
3/4-y,3/4-x,3/4-z
1/2-x,1/2-y,1/2-z
1/4+y,3/4-x,1/4-z
1/2+x,y,1/2-z
1/4-y,1/4+x,3/4-z
1/2-x,1/2+y,z
x,1/2-y,1/2+z
3/4-y,1/4-x,1/4+z
1/4+y,1/4+x,1/4+z
loop_
_atom_site_type_symbol
_atom_site_label
_atom_site_fract_x
_atom_site_fract_y
_atom_site_fract_z
Si Si1 0.139718 0.000000 0.750000
Si Si2 0.635343 0.654087 0.352928
Si Si3 0.924515 0.174515 0.625000
Si Si4 0.307170 0.066187 0.032022
Si Si5 0.829116 0.190519 0.968016
Si Si6 0.150106 0.755135 0.295588
O O1 0.171626 0.980653 0.618200
O O2 0.100912 0.956679 0.776507
O O3 0.615152 0.667020 0.504980
O O4 0.676546 0.612429 0.373690
O O5 0.587677 0.630847 0.277407
O O6 0.651788 0.703101 0.280210
O O7 0.906350 0.226303 0.686917
O O8 0.250000 0.060295 0.000000
O O9 0.326418 0.076418 0.875000
O O10 0.827110 0.240139 0.056372
O O11 0.823186 0.205218 0.804293
#
# Coordination Sequence:
#
# PCOD9573701 Si02
#       6
#    16  32  16  32  32  32
#     4  10  26  48  66 102 144 180 242 298 372 442
#     4  10  21  43  66  94 138 183 233 287 374 419
#     4  10  20  40  65  92 138 176 220 282 346 430
#     4  11  26  45  71 101 139 189 238 310 375 451
#     4  10  23  41  69  96 141 185 226 302 356 432
#     4  11  21  40  68 100 130 183 232 284 358 430
#
# _framework density 22.44773
#
# number of rings (size 3 to 8) (size 9 to 14) (size 15 to 20)
#    0.000    1.600    3.000    0.600    4.200    0.800 
#    1.800    2.000    0.000    0.000    0.000    0.000 
#    0.000    0.000    0.000    0.000    0.000    0.000 
#
# Total GULP energy -445750.685273 kJ/mol
# GULP energy per Si atom -5571.883566 kJ/mol
# Density = 2.239664 g / cm^3
# Si number density = 22.447730 Si / 1000 Ang^3
#
#
#
# Elastic Constant Matrix: (Units=GPa)
#
#
# Indices 1 2 3 4 5 6 
#
# 1 111.3106 26.4493 35.3272 0.0000 0.0000 0.0000
# 2 26.4493 111.3106 35.3272 0.0000 0.0000 0.0000
# 3 35.3272 35.3272 107.3505 0.0000 0.0000 0.0000
# 4 0.0000 0.0000 0.0000 37.3942 0.0000 0.0000
# 5 0.0000 0.0000 0.0000 0.0000 37.3942 0.0000
# 6 0.0000 0.0000 0.0000 0.0000 0.0000 22.7335
#
#
#
# Elastic Compliance Matrix: (Units=1/GPa)
#
#
# Indices 1 2 3 4 5 6 
#
# 1 0.010258 -0.001525 -0.002874 0.000000 0.000000 0.000000
# 2 -0.001525 0.010258 -0.002874 0.000000 0.000000 0.000000
# 3 -0.002874 -0.002874 0.011207 0.000000 0.000000 0.000000
# 4 0.000000 0.000000 0.000000 0.026742 0.000000 0.000000
# 5 0.000000 0.000000 0.000000 0.000000 0.026742 0.000000
# 6 0.000000 0.000000 0.000000 0.000000 0.000000 0.043988
#
#
# Mechanical properties :
#
#
# Convention : Reuss Voigt Hill
#
# Bulk Modulus (GPa) = 58.21668 58.24213 58.22940
# Shear Modulus (GPa) = 33.45197 35.02890 34.24043
#
# Velocity S-wave (km/s) = 3.86452 3.95456 3.90980
# Velocity P-wave (km/s) = 6.77520 6.84495 6.81016
#
# Compressibility (1/GPa) = 0.01717721
#
# Stress axis : x y z
#
# Youngs Moduli (GPa) = 97.48067 97.48067 89.23180
#
# Poissons Ratio (x) = 0.14871 0.25644
# Poissons Ratio (y) = 0.14871 0.25644
# Poissons Ratio (z) = 0.28015 0.28015
#
# Static dielectric constant tensor:
#      x y z
#    x 1.845010 0.000000 0.000000 
#    y 0.000000 1.845010 0.000000 
#    z 0.000000 0.000000 2.009730 
# 
# From -- ./inp_files/3890.got.cif
#   From: 2010.05.17/outbox.cif.g08.bks.cpg/sg142_2_cif.got.tgz:3890.got - 2010.05.20 13:39:18.
