data_PCOD9573472
_publ_section_title
;
Structure prediction by ZEFSAII (Michael W. Deem and Ramdas Pophale) SiO2 
 PCOD9573472
Probable space group: I 41/A C D
;
_chemical_formula_sum "Si O2"
_cell_formula_units_Z 240
_cell_length_a 19.948909
_cell_length_b 19.948909
_cell_length_c 29.623123
_cell_angle_alpha 90.000000
_cell_angle_beta 90.000000
_cell_angle_gamma 90.000000
_cell_volume 11788.787526
_symmetry_space_group_name_H-M "I 41/A C D"
_symmetry_group_IT_number 142
_space_group.IT_coordinate_system_code '2'
_symmetry_cell_setting 'tetragonal'
loop_
_space_group_symop_operation_xyz
x,y,z
1/4-y,3/4+x,1/4+z
-x,1/2-y,z
1/4+y,1/4-x,3/4+z
x,-y,1/2-z
1/2-x,y,-z
3/4+y,1/4+x,1/4-z
1/4-y,1/4-x,1/4-z
-x,-y,-z
3/4+y,1/4-x,3/4-z
x,1/2+y,-z
3/4-y,3/4+x,1/4-z
-x,y,1/2+z
1/2+x,-y,z
1/4-y,3/4-x,3/4+z
3/4+y,3/4+x,3/4+z
1/2+x,1/2+y,1/2+z
3/4-y,1/4+x,3/4+z
1/2-x,-y,1/2+z
3/4+y,3/4-x,1/4+z
1/2+x,1/2-y,-z
-x,1/2+y,1/2-z
1/4+y,3/4+x,3/4-z
3/4-y,3/4-x,3/4-z
1/2-x,1/2-y,1/2-z
1/4+y,3/4-x,1/4-z
1/2+x,y,1/2-z
1/4-y,1/4+x,3/4-z
1/2-x,1/2+y,z
x,1/2-y,1/2+z
3/4-y,1/4-x,1/4+z
1/4+y,1/4+x,1/4+z
loop_
_atom_site_type_symbol
_atom_site_label
_atom_site_fract_x
_atom_site_fract_y
_atom_site_fract_z
Si Si1 0.790553 0.599638 0.334569
Si Si2 0.958092 0.889226 0.275541
Si Si3 0.355030 0.785371 0.768703
Si Si4 0.000000 0.750000 0.992708
Si Si5 0.342571 0.439143 0.714042
Si Si6 0.174685 0.641048 0.990267
Si Si7 0.506716 0.520078 0.571858
Si Si8 0.214229 0.640150 0.391440
O O1 0.796708 0.546708 0.375000
O O2 0.730526 0.588511 0.298653
O O3 0.861036 0.594379 0.308417
O O4 0.779437 0.675772 0.350598
O O5 0.980184 0.814073 0.286046
O O6 0.899014 0.893182 0.237915
O O7 0.928406 0.923685 0.319359
O O8 0.028034 0.921539 0.258604
O O9 0.432735 0.765212 0.770545
O O10 0.358545 0.866607 0.771447
O O11 0.320906 0.765087 0.720559
O O12 0.305679 0.750810 0.803810
O O13 0.334361 0.500000 0.750000
O O14 0.371184 0.467215 0.666764
O O15 0.250000 0.618917 0.000000
O O16 0.440193 0.532430 0.599798
O O17 0.175465 0.574536 0.375000
#
# Coordination Sequence:
#
# PCOD9573472 Si02
#       8
#    32  32  32  16  32  32  32  32
#     4  11  22  35  56  84 117 149 186 237 292 350
#     4  10  21  38  59  83 114 150 187 240 294 345
#     4   9  20  35  59  84 115 157 193 237 288 346
#     4  10  18  36  61  87 112 150 202 232 280 355
#     4  10  22  39  59  83 113 150 193 240 291 346
#     4  10  20  35  56  82 110 147 193 235 281 339
#     4  10  21  39  56  83 120 154 191 238 296 348
#     4  11  22  36  58  84 112 146 189 238 291 347
#
# _framework density 20.358328
#
# number of rings (size 3 to 8) (size 9 to 14) (size 15 to 20)
#    0.000    1.867    0.000    4.400    0.000    7.467 
#    0.000    6.333    0.000    0.800    0.000    0.000 
#    0.000    0.000    0.000    0.000    0.000    0.000 
#
# Total GULP energy -669142.348274 kJ/mol
# GULP energy per Si atom -5576.186236 kJ/mol
# Density = 2.031199 g / cm^3
# Si number density = 20.358328 Si / 1000 Ang^3
#
#
#
# Elastic Constant Matrix: (Units=GPa)
#
#
# Indices 1 2 3 4 5 6 
#
# 1 93.1430 8.0970 5.3239 0.0000 0.0000 0.0000
# 2 8.0970 93.1434 5.3238 0.0000 0.0000 0.0000
# 3 5.3239 5.3238 23.9092 0.0000 0.0000 0.0000
# 4 0.0000 0.0000 0.0000 17.8213 0.0000 0.0000
# 5 0.0000 0.0000 0.0000 0.0000 17.8214 0.0000
# 6 0.0000 0.0000 0.0000 0.0000 0.0000 23.7398
#
#
#
# Elastic Compliance Matrix: (Units=1/GPa)
#
#
# Indices 1 2 3 4 5 6 
#
# 1 0.010936 -0.000822 -0.002252 0.000000 0.000000 0.000000
# 2 -0.000822 0.010936 -0.002252 0.000000 0.000000 0.000000
# 3 -0.002252 -0.002252 0.042828 0.000000 0.000000 0.000000
# 4 0.000000 0.000000 0.000000 0.056113 0.000000 0.000000
# 5 0.000000 0.000000 0.000000 0.000000 0.056112 0.000000
# 6 0.000000 0.000000 0.000000 0.000000 0.000000 0.042123
#
#
# Mechanical properties :
#
#
# Convention : Reuss Voigt Hill
#
# Bulk Modulus (GPa) = 18.50209 27.52056 23.01133
# Shear Modulus (GPa) = 20.18429 24.63989 22.41209
#
# Velocity S-wave (km/s) = 3.15215 3.48273 3.32155
# Velocity P-wave (km/s) = 4.72821 5.45160 5.10274
#
# Compressibility (1/GPa) = 0.05404795
#
# Stress axis : x y z
#
# Youngs Moduli (GPa) = 91.43802 91.43842 23.34925
#
# Poissons Ratio (x) = 0.07516 0.05259
# Poissons Ratio (y) = 0.07516 0.05259
# Poissons Ratio (z) = 0.20594 0.20593
#
# Static dielectric constant tensor:
#      x y z
#    x 1.753320 0.000000 0.000000 
#    y 0.000000 1.753320 0.000000 
#    z 0.000000 0.000000 1.705120 
# 
# From -- ./inp_files/11666.got.cif
#   From: 2010.05.17/outbox.cif.g08.bks.cpg/sg142_6_cif.got.tgz:11666.got - 2010.05.20 13:39:18.
