data_PCOD9573870
_publ_section_title
;
Structure prediction by ZEFSAII (Michael W. Deem and Ramdas Pophale) SiO2 
 PCOD9573870
Probable space group: I 41/A C D
;
_chemical_formula_sum "Si O2"
_cell_formula_units_Z 120
_cell_length_a 17.909585
_cell_length_b 17.909585
_cell_length_c 19.477268
_cell_angle_alpha 90.000000
_cell_angle_beta 90.000000
_cell_angle_gamma 90.000000
_cell_volume 6247.396717
_symmetry_space_group_name_H-M "I 41/A C D"
_symmetry_group_IT_number 142
_space_group.IT_coordinate_system_code '2'
_symmetry_cell_setting 'tetragonal'
loop_
_space_group_symop_operation_xyz
x,y,z
1/4-y,3/4+x,1/4+z
-x,1/2-y,z
1/4+y,1/4-x,3/4+z
x,-y,1/2-z
1/2-x,y,-z
3/4+y,1/4+x,1/4-z
1/4-y,1/4-x,1/4-z
-x,-y,-z
3/4+y,1/4-x,3/4-z
x,1/2+y,-z
3/4-y,3/4+x,1/4-z
-x,y,1/2+z
1/2+x,-y,z
1/4-y,3/4-x,3/4+z
3/4+y,3/4+x,3/4+z
1/2+x,1/2+y,1/2+z
3/4-y,1/4+x,3/4+z
1/2-x,-y,1/2+z
3/4+y,3/4-x,1/4+z
1/2+x,1/2-y,-z
-x,1/2+y,1/2-z
1/4+y,3/4+x,3/4-z
3/4-y,3/4-x,3/4-z
1/2-x,1/2-y,1/2-z
1/4+y,3/4-x,1/4-z
1/2+x,y,1/2-z
1/4-y,1/4+x,3/4-z
1/2-x,1/2+y,z
x,1/2-y,1/2+z
3/4-y,1/4-x,1/4+z
1/4+y,1/4+x,1/4+z
loop_
_atom_site_type_symbol
_atom_site_label
_atom_site_fract_x
_atom_site_fract_y
_atom_site_fract_z
Si Si1 0.016291 0.572616 0.456509
Si Si2 0.500000 0.250000 0.125000
Si Si3 0.672208 0.922208 0.625000
Si Si4 0.923236 0.173236 0.625000
Si Si5 0.905326 0.284510 0.494962
Si Si6 0.250000 0.370161 0.000000
O O1 0.089284 0.567374 0.407545
O O2 0.040723 0.643306 0.502253
O O3 0.000000 0.500000 0.500000
O O4 0.942930 0.597632 0.414625
O O5 0.492785 0.320661 0.175885
O O6 0.732297 0.922717 0.564779
O O7 0.920932 0.236771 0.564451
O O8 0.822127 0.317084 0.492471
#
# Coordination Sequence:
#
# PCOD9573870 Si02
#       6
#    32   8  16  16  32  16
#     4  11  21  37  65  95 125 171 219 266 328 388
#     4  12  24  30  60 104 124 154 216 296 312 390
#     4  10  22  41  65  91 132 175 217 265 326 402
#     4  12  19  44  67  91 128 173 213 276 326 387
#     4  11  23  39  64  93 132 165 220 268 337 384
#     4  10  22  40  64  90 128 182 210 268 330 396
#
# _framework density 19.208002
#
# number of rings (size 3 to 8) (size 9 to 14) (size 15 to 20)
#    0.000    1.067    8.000    0.800    3.733    0.000 
#    0.000    5.333    0.000    8.000    0.000    0.000 
#    0.000    0.000    0.000    0.000    0.000    0.000 
#
# Total GULP energy -334067.695139 kJ/mol
# GULP energy per Si atom -5567.794919 kJ/mol
# Density = 1.916428 g / cm^3
# Si number density = 19.208002 Si / 1000 Ang^3
#
#
#
# Elastic Constant Matrix: (Units=GPa)
#
#
# Indices 1 2 3 4 5 6 
#
# 1 92.4567 45.3092 60.9234 0.0000 0.0000 0.0000
# 2 45.3092 92.4567 60.9234 0.0000 0.0000 0.0000
# 3 60.9234 60.9234 153.9528 0.0000 0.0000 0.0000
# 4 0.0000 0.0000 0.0000 40.4110 0.0000 0.0000
# 5 0.0000 0.0000 0.0000 0.0000 40.4110 0.0000
# 6 0.0000 0.0000 0.0000 0.0000 0.0000 15.3274
#
#
#
# Elastic Compliance Matrix: (Units=1/GPa)
#
#
# Indices 1 2 3 4 5 6 
#
# 1 0.016189 -0.005021 -0.004419 0.000000 0.000000 0.000000
# 2 -0.005021 0.016189 -0.004419 0.000000 0.000000 0.000000
# 3 -0.004419 -0.004419 0.009993 0.000000 0.000000 0.000000
# 4 0.000000 0.000000 0.000000 0.024746 0.000000 0.000000
# 5 0.000000 0.000000 0.000000 0.000000 0.024746 0.000000
# 6 0.000000 0.000000 0.000000 0.000000 0.000000 0.065242
#
#
# Mechanical properties :
#
#
# Convention : Reuss Voigt Hill
#
# Bulk Modulus (GPa) = 68.25562 74.79758 71.52660
# Shear Modulus (GPa) = 26.35639 30.67725 28.51682
#
# Velocity S-wave (km/s) = 3.70828 4.00072 3.85727
# Velocity P-wave (km/s) = 7.34488 7.76958 7.56021
#
# Compressibility (1/GPa) = 0.01465081
#
# Stress axis : x y z
#
# Youngs Moduli (GPa) = 61.77181 61.77181 100.06919
#
# Poissons Ratio (x) = 0.31018 0.44222
# Poissons Ratio (y) = 0.31018 0.44222
# Poissons Ratio (z) = 0.27298 0.27298
#
# Static dielectric constant tensor:
#      x y z
#    x 1.683580 0.000000 0.000000 
#    y 0.000000 1.683580 0.000000 
#    z 0.000000 0.000000 1.784930 
# 
# From -- ./inp_files/8746.got.cif
#   From: 2010.05.17/outbox.cif.g08.bks.cpg/sg142_5_cif.got.tgz:8746.got - 2010.05.20 13:39:18.
