data_PCOD9573578
_publ_section_title
;
Structure prediction by ZEFSAII (Michael W. Deem and Ramdas Pophale) SiO2 
 PCOD9573578
Probable space group: I 41/A C D
;
_chemical_formula_sum "Si O2"
_cell_formula_units_Z 176
_cell_length_a 17.674465
_cell_length_b 17.674465
_cell_length_c 26.416865
_cell_angle_alpha 90.000000
_cell_angle_beta 90.000000
_cell_angle_gamma 90.000000
_cell_volume 8252.277626
_symmetry_space_group_name_H-M "I 41/A C D"
_symmetry_group_IT_number 142
_space_group.IT_coordinate_system_code '2'
_symmetry_cell_setting 'tetragonal'
loop_
_space_group_symop_operation_xyz
x,y,z
1/4-y,3/4+x,1/4+z
-x,1/2-y,z
1/4+y,1/4-x,3/4+z
x,-y,1/2-z
1/2-x,y,-z
3/4+y,1/4+x,1/4-z
1/4-y,1/4-x,1/4-z
-x,-y,-z
3/4+y,1/4-x,3/4-z
x,1/2+y,-z
3/4-y,3/4+x,1/4-z
-x,y,1/2+z
1/2+x,-y,z
1/4-y,3/4-x,3/4+z
3/4+y,3/4+x,3/4+z
1/2+x,1/2+y,1/2+z
3/4-y,1/4+x,3/4+z
1/2-x,-y,1/2+z
3/4+y,3/4-x,1/4+z
1/2+x,1/2-y,-z
-x,1/2+y,1/2-z
1/4+y,3/4+x,3/4-z
3/4-y,3/4-x,3/4-z
1/2-x,1/2-y,1/2-z
1/4+y,3/4-x,1/4-z
1/2+x,y,1/2-z
1/4-y,1/4+x,3/4-z
1/2-x,1/2+y,z
x,1/2-y,1/2+z
3/4-y,1/4-x,1/4+z
1/4+y,1/4+x,1/4+z
loop_
_atom_site_type_symbol
_atom_site_label
_atom_site_fract_x
_atom_site_fract_y
_atom_site_fract_z
Si Si1 0.756418 0.920508 0.305703
Si Si2 0.475549 0.052526 0.172232
Si Si3 0.373975 0.417020 0.126211
Si Si4 0.275284 0.320265 0.286014
Si Si5 0.750000 0.631984 0.000000
Si Si6 0.034912 0.096203 0.610604
O O1 0.694793 0.954172 0.343144
O O2 0.717580 0.889004 0.254094
O O3 0.824581 0.976698 0.293539
O O4 0.800867 0.851045 0.331134
O O5 0.556619 0.086844 0.164549
O O6 0.416490 0.094464 0.135983
O O7 0.437572 0.061375 0.226794
O O8 0.481116 0.963023 0.156721
O O9 0.403629 0.461227 0.076594
O O10 0.250000 0.250000 0.250000
O O11 0.342145 0.287056 0.322217
O O12 0.073603 0.176398 0.625000
#
# Coordination Sequence:
#
# PCOD9573578 Si02
#       6
#    32  32  32  32  16  32
#     4  10  20  33  55  89 121 157 205 269 319 383
#     4  10  21  35  57  86 125 163 209 259 321 385
#     4  10  21  38  58  88 127 163 211 265 325 383
#     4   9  18  34  56  85 123 162 206 259 323 380
#     4  12  20  34  60  84 124 164 210 260 332 396
#     4   9  16  31  55  84 114 158 207 251 309 382
#
# _framework density 21.327444
#
# number of rings (size 3 to 8) (size 9 to 14) (size 15 to 20)
#    0.000    2.182    3.636    1.091    0.000    1.091 
#    0.000    0.000    0.000    0.000    0.000    0.000 
#   10.909    0.000    0.000    0.000    0.000    0.000 
#
# Total GULP energy -490085.753187 kJ/mol
# GULP energy per Si atom -5569.156286 kJ/mol
# Density = 2.127890 g / cm^3
# Si number density = 21.327444 Si / 1000 Ang^3
#
#
#
# Elastic Constant Matrix: (Units=GPa)
#
#
# Indices 1 2 3 4 5 6 
#
# 1 58.2528 38.9281 36.6504 0.0000 0.0000 0.0000
# 2 38.9281 58.2514 36.6501 0.0000 0.0000 0.0000
# 3 36.6504 36.6501 86.1594 0.0000 0.0000 0.0000
# 4 0.0000 0.0000 0.0000 33.9904 0.0000 0.0000
# 5 0.0000 0.0000 0.0000 0.0000 33.9905 0.0000
# 6 0.0000 0.0000 0.0000 0.0000 0.0000 18.4383
#
#
#
# Elastic Compliance Matrix: (Units=1/GPa)
#
#
# Indices 1 2 3 4 5 6 
#
# 1 0.033450 -0.018299 -0.006445 0.000000 0.000000 0.000000
# 2 -0.018299 0.033451 -0.006445 0.000000 0.000000 0.000000
# 3 -0.006445 -0.006445 0.017090 0.000000 0.000000 0.000000
# 4 0.000000 0.000000 0.000000 0.029420 0.000000 0.000000
# 5 0.000000 0.000000 0.000000 0.000000 0.029420 0.000000
# 6 0.000000 0.000000 0.000000 0.000000 0.000000 0.054235
#
#
# Mechanical properties :
#
#
# Convention : Reuss Voigt Hill
#
# Bulk Modulus (GPa) = 46.27011 47.45786 46.86399
# Shear Modulus (GPa) = 18.75137 23.31285 21.03211
#
# Velocity S-wave (km/s) = 2.96837 3.30978 3.14371
# Velocity P-wave (km/s) = 5.78710 6.07507 5.93283
#
# Compressibility (1/GPa) = 0.02161222
#
# Stress axis : x y z
#
# Youngs Moduli (GPa) = 29.89551 29.89472 58.51504
#
# Poissons Ratio (x) = 0.54703 0.37713
# Poissons Ratio (y) = 0.54705 0.37714
# Poissons Ratio (z) = 0.19268 0.19268
#
# Static dielectric constant tensor:
#      x y z
#    x 1.791680 0.000000 0.000000 
#    y 0.000000 1.791680 0.000000 
#    z 0.000000 0.000000 1.879490 
# 
# From -- ./inp_files/11412.got.cif
#   From: 2010.05.17/outbox.cif.g08.bks.cpg/sg142_6_cif.got.tgz:11412.got - 2010.05.20 13:39:18.
