data_PCOD9573142
_publ_section_title
;
Structure prediction by ZEFSAII (Michael W. Deem and Ramdas Pophale) SiO2 
 PCOD9573142
Probable space group: I 41/A M D
;
_chemical_formula_sum "Si O2"
_cell_formula_units_Z 160
_cell_length_a 21.120192
_cell_length_b 21.120192
_cell_length_c 17.804403
_cell_angle_alpha 90.000000
_cell_angle_beta 90.000000
_cell_angle_gamma 90.000000
_cell_volume 7941.876693
_symmetry_space_group_name_H-M "I 41/A M D"
_symmetry_group_IT_number 141
_space_group.IT_coordinate_system_code '2'
_symmetry_cell_setting 'tetragonal'
loop_
_space_group_symop_operation_xyz
x,y,z
1/4-y,3/4+x,1/4+z
-x,1/2-y,z
1/4+y,1/4-x,3/4+z
x,-y,-z
-x,1/2+y,-z
1/4+y,3/4+x,1/4-z
1/4-y,1/4-x,3/4-z
-x,-y,-z
3/4+y,1/4-x,3/4-z
x,1/2+y,-z
3/4-y,3/4+x,1/4-z
-x,y,z
x,1/2-y,z
3/4-y,1/4-x,3/4+z
3/4+y,3/4+x,1/4+z
1/2+x,1/2+y,1/2+z
3/4-y,1/4+x,3/4+z
1/2-x,-y,1/2+z
3/4+y,3/4-x,1/4+z
1/2+x,1/2-y,1/2-z
1/2-x,y,1/2-z
3/4+y,1/4+x,3/4-z
3/4-y,3/4-x,1/4-z
1/2-x,1/2-y,1/2-z
1/4+y,3/4-x,1/4-z
1/2+x,y,1/2-z
1/4-y,1/4+x,3/4-z
1/2-x,1/2+y,1/2+z
1/2+x,-y,1/2+z
1/4-y,3/4-x,1/4+z
1/4+y,1/4+x,3/4+z
loop_
_atom_site_type_symbol
_atom_site_label
_atom_site_fract_x
_atom_site_fract_y
_atom_site_fract_z
Si Si1 0.924669 0.453004 0.067214
Si Si2 0.075526 0.389649 0.723082
Si Si3 0.878681 0.521583 0.768952
Si Si4 0.250000 0.401705 0.250000
Si Si5 0.930839 0.180839 0.875000
Si Si6 0.674142 0.678329 0.874883
O O1 0.905365 0.378311 0.064629
O O2 0.901855 0.480631 0.146254
O O3 0.000000 0.455426 0.063806
O O4 0.900883 0.500000 0.000000
O O5 0.113881 0.454794 0.727661
O O6 0.072468 0.368546 0.809546
O O7 0.000000 0.392547 0.697639
O O8 0.809704 0.553665 0.769105
O O9 0.924149 0.560095 0.713174
O O10 0.276399 0.359697 0.179731
O O11 0.926197 0.250000 0.837996
O O12 0.607912 0.642088 0.875000
O O13 0.672251 0.750000 0.848638
#
# Coordination Sequence:
#
# PCOD9573142 Si02
#       6
#    32  32  32  16  16  32
#     4  11  24  41  61  91 129 170 215 268 326 390
#     4  11  22  37  59  86 119 165 212 262 322 383
#     4  11  23  40  62  89 127 165 209 263 318 381
#     4  10  23  42  66  92 121 160 210 258 320 384
#     4   9  18  34  54  78 110 152 206 258 305 366
#     4  10  21  40  65  92 121 157 199 254 316 381
#
# _framework density 20.146373000000001
#
# number of rings (size 3 to 8) (size 9 to 14) (size 15 to 20)
#    0.000    1.500    0.000    5.100    1.400    4.600 
#    5.400    4.000    0.000    4.800    0.000    0.000 
#    0.000    0.000    0.000    0.000    0.000    0.000 
#
# Total GULP energy -445390.910447 kJ/mol
# GULP energy per Si atom -5567.386381 kJ/mol
# Density = 2.010052 g / cm^3
# Si number density = 20.146373 Si / 1000 Ang^3
#
#
#
# Elastic Constant Matrix: (Units=GPa)
#
#
# Indices 1 2 3 4 5 6 
#
# 1 95.3826 55.4264 20.7147 0.0000 0.0000 0.0000
# 2 55.4264 95.3826 20.7147 0.0000 0.0000 0.0000
# 3 20.7147 20.7147 83.4506 0.0000 0.0000 0.0000
# 4 0.0000 0.0000 0.0000 4.7331 0.0000 0.0000
# 5 0.0000 0.0000 0.0000 0.0000 4.7331 0.0000
# 6 0.0000 0.0000 0.0000 0.0000 0.0000 -292.0784
#
#
#
# Elastic Compliance Matrix: (Units=1/GPa)
#
#
# Indices 1 2 3 4 5 6 
#
# 1 0.016072 -0.008956 -0.001766 0.000000 0.000000 0.000000
# 2 -0.008956 0.016072 -0.001766 0.000000 0.000000 0.000000
# 3 -0.001766 -0.001766 0.012860 0.000000 0.000000 0.000000
# 4 0.000000 0.000000 0.000000 0.211277 0.000000 0.000000
# 5 0.000000 0.000000 0.000000 0.000000 0.211277 0.000000
# 6 0.000000 0.000000 0.000000 0.000000 0.000000 -0.003424
#
#
# Mechanical properties :
#
#
# Convention : Reuss Voigt Hill
#
# Bulk Modulus (GPa) = 49.93328 51.99192 50.96260
# Shear Modulus (GPa) = 10.08497 -44.69842 -17.30672
#
# Velocity S-wave (km/s) = 2.23980 -4.71540 -2.93413
# Velocity P-wave (km/s) = 5.61498 1.94513 3.72454
#
# Compressibility (1/GPa) = 0.02002672
#
# Stress axis : x y z
#
# Youngs Moduli (GPa) = 62.22092 62.22092 77.75997
#
# Poissons Ratio (x) = 0.55723 0.13736
# Poissons Ratio (y) = 0.55723 0.13736
# Poissons Ratio (z) = 0.10991 0.10991
#
# Static dielectric constant tensor:
#      x y z
#    x 1.888340 0.000000 0.000000 
#    y 0.000000 1.888340 0.000000 
#    z 0.000000 0.000000 1.716340 
# 
# From -- ./inp_files/8645.got.cif
#   From: 2010.05.17/outbox.cif.g08.bks.cpg/sg141_5_cif.got.tgz:8645.got - 2010.05.20 13:30:51.
