data_PCOD9573779
_publ_section_title
;
Structure prediction by ZEFSAII (Michael W. Deem and Ramdas Pophale) SiO2 
 PCOD9573779
Probable space group: I 41/A C D
;
_chemical_formula_sum "Si O2"
_cell_formula_units_Z 240
_cell_length_a 25.901047
_cell_length_b 25.901047
_cell_length_c 17.925211
_cell_angle_alpha 90.000000
_cell_angle_beta 90.000000
_cell_angle_gamma 90.000000
_cell_volume 12025.382977
_symmetry_space_group_name_H-M "I 41/A C D"
_symmetry_group_IT_number 142
_space_group.IT_coordinate_system_code '2'
_symmetry_cell_setting 'tetragonal'
loop_
_space_group_symop_operation_xyz
x,y,z
1/4-y,3/4+x,1/4+z
-x,1/2-y,z
1/4+y,1/4-x,3/4+z
x,-y,1/2-z
1/2-x,y,-z
3/4+y,1/4+x,1/4-z
1/4-y,1/4-x,1/4-z
-x,-y,-z
3/4+y,1/4-x,3/4-z
x,1/2+y,-z
3/4-y,3/4+x,1/4-z
-x,y,1/2+z
1/2+x,-y,z
1/4-y,3/4-x,3/4+z
3/4+y,3/4+x,3/4+z
1/2+x,1/2+y,1/2+z
3/4-y,1/4+x,3/4+z
1/2-x,-y,1/2+z
3/4+y,3/4-x,1/4+z
1/2+x,1/2-y,-z
-x,1/2+y,1/2-z
1/4+y,3/4+x,3/4-z
3/4-y,3/4-x,3/4-z
1/2-x,1/2-y,1/2-z
1/4+y,3/4-x,1/4-z
1/2+x,y,1/2-z
1/4-y,1/4+x,3/4-z
1/2-x,1/2+y,z
x,1/2-y,1/2+z
3/4-y,1/4-x,1/4+z
1/4+y,1/4+x,1/4+z
loop_
_atom_site_type_symbol
_atom_site_label
_atom_site_fract_x
_atom_site_fract_y
_atom_site_fract_z
Si Si1 0.641376 0.891376 0.125000
Si Si2 0.940862 0.258075 0.053669
Si Si3 0.097344 0.339143 0.773556
Si Si4 0.917472 0.106099 0.184752
Si Si5 0.266003 0.741023 0.624887
Si Si6 0.391205 0.498673 0.163501
Si Si7 0.672207 0.750987 0.277334
Si Si8 0.884938 0.396574 0.424452
O O1 0.617948 0.870371 0.202283
O O2 0.628945 0.950978 0.123036
O O3 0.953399 0.296602 0.125000
O O4 0.903329 0.209809 0.069010
O O5 0.000000 0.250000 0.029835
O O6 0.911581 0.286739 0.988035
O O7 0.119952 0.282154 0.769893
O O8 0.111128 0.361072 0.852511
O O9 0.874025 0.124025 0.125000
O O10 0.949431 0.052836 0.167340
O O11 0.885522 0.104863 0.262230
O O12 0.253433 0.795874 0.585981
O O13 0.298958 0.754981 0.698575
O O14 0.210371 0.725045 0.659640
O O15 0.374543 0.500000 0.250000
O O16 0.370406 0.450923 0.114625
O O17 0.659537 0.691614 0.292713
#
# Coordination Sequence:
#
# PCOD9573779 Si02
#       8
#    16  32  32  32  32  32  32  32
#     4  12  22  40  71  90 118 164 212 284 340 374
#     4  11  21  35  54  83 123 175 220 251 305 391
#     4  12  23  38  60  92 123 167 219 262 324 382
#     4  12  22  38  60  89 131 179 212 262 331 394
#     4  10  21  38  66  89 123 172 217 263 328 390
#     4  11  23  42  67 100 125 163 224 278 327 391
#     4  10  21  40  60  92 127 168 217 269 320 395
#     4  11  26  39  60  96 134 164 215 275 323 400
#
# _framework density 19.957784
#
# number of rings (size 3 to 8) (size 9 to 14) (size 15 to 20)
#    0.000    0.933    6.000    2.400    1.867    1.067 
#    0.000    0.000    0.000    1.600    0.000    0.000 
#    0.000    0.000    0.000    0.000    0.000    0.000 
#
# Total GULP energy -668514.853491 kJ/mol
# GULP energy per Si atom -5570.957112 kJ/mol
# Density = 1.991236 g / cm^3
# Si number density = 19.957784 Si / 1000 Ang^3
#
#
#
# Elastic Constant Matrix: (Units=GPa)
#
#
# Indices 1 2 3 4 5 6 
#
# 1 54.7013 3.2919 19.1005 0.0000 0.0000 0.0000
# 2 3.2919 54.7001 19.1001 0.0000 0.0000 0.0000
# 3 19.1005 19.1001 110.8699 0.0000 0.0000 0.0000
# 4 0.0000 0.0000 0.0000 54.1241 0.0000 0.0000
# 5 0.0000 0.0000 0.0000 0.0000 54.1231 0.0000
# 6 0.0000 0.0000 0.0000 0.0000 0.0000 37.0886
#
#
#
# Elastic Compliance Matrix: (Units=1/GPa)
#
#
# Indices 1 2 3 4 5 6 
#
# 1 0.019451 -0.000001 -0.003351 0.000000 0.000000 0.000000
# 2 -0.000001 0.019452 -0.003351 0.000000 0.000000 0.000000
# 3 -0.003351 -0.003351 0.010174 0.000000 0.000000 0.000000
# 4 0.000000 0.000000 0.000000 0.018476 0.000000 0.000000
# 5 0.000000 0.000000 0.000000 0.000000 0.018476 0.000000
# 6 0.000000 0.000000 0.000000 0.000000 0.000000 0.026962
#
#
# Mechanical properties :
#
#
# Convention : Reuss Voigt Hill
#
# Bulk Modulus (GPa) = 28.03303 33.69514 30.86409
# Shear Modulus (GPa) = 36.15659 40.98575 38.57117
#
# Velocity S-wave (km/s) = 4.26097 4.53661 4.40095
# Velocity P-wave (km/s) = 6.18745 6.66040 6.42827
#
# Compressibility (1/GPa) = 0.03567221
#
# Stress axis : x y z
#
# Youngs Moduli (GPa) = 51.41070 51.40966 98.28827
#
# Poissons Ratio (x) = 0.00003 0.32936
# Poissons Ratio (y) = 0.00003 0.32936
# Poissons Ratio (z) = 0.17227 0.17227
#
# Static dielectric constant tensor:
#      x y z
#    x 1.723430 0.000000 0.000000 
#    y 0.000000 1.723430 0.000000 
#    z 0.000000 0.000000 1.711320 
# 
# From -- ./inp_files/7818.got.cif
#   From: 2010.05.17/outbox.cif.g08.bks.cpg/sg142_4_cif.got.tgz:7818.got - 2010.05.20 13:39:18.
