data_PCOD9573757
_publ_section_title
;
Structure prediction by ZEFSAII (Michael W. Deem and Ramdas Pophale) SiO2 
 PCOD9573757
Probable space group: I 41/A C D
;
_chemical_formula_sum "Si O2"
_cell_formula_units_Z 192
_cell_length_a 21.727934
_cell_length_b 21.727934
_cell_length_c 23.268038
_cell_angle_alpha 90.000000
_cell_angle_beta 90.000000
_cell_angle_gamma 90.000000
_cell_volume 10984.913241
_symmetry_space_group_name_H-M "I 41/A C D"
_symmetry_group_IT_number 142
_space_group.IT_coordinate_system_code '2'
_symmetry_cell_setting 'tetragonal'
loop_
_space_group_symop_operation_xyz
x,y,z
1/4-y,3/4+x,1/4+z
-x,1/2-y,z
1/4+y,1/4-x,3/4+z
x,-y,1/2-z
1/2-x,y,-z
3/4+y,1/4+x,1/4-z
1/4-y,1/4-x,1/4-z
-x,-y,-z
3/4+y,1/4-x,3/4-z
x,1/2+y,-z
3/4-y,3/4+x,1/4-z
-x,y,1/2+z
1/2+x,-y,z
1/4-y,3/4-x,3/4+z
3/4+y,3/4+x,3/4+z
1/2+x,1/2+y,1/2+z
3/4-y,1/4+x,3/4+z
1/2-x,-y,1/2+z
3/4+y,3/4-x,1/4+z
1/2+x,1/2-y,-z
-x,1/2+y,1/2-z
1/4+y,3/4+x,3/4-z
3/4-y,3/4-x,3/4-z
1/2-x,1/2-y,1/2-z
1/4+y,3/4-x,1/4-z
1/2+x,y,1/2-z
1/4-y,1/4+x,3/4-z
1/2-x,1/2+y,z
x,1/2-y,1/2+z
3/4-y,1/4-x,1/4+z
1/4+y,1/4+x,1/4+z
loop_
_atom_site_type_symbol
_atom_site_label
_atom_site_fract_x
_atom_site_fract_y
_atom_site_fract_z
Si Si1 0.754492 0.259361 0.819366
Si Si2 0.857596 0.855397 0.196103
Si Si3 0.479203 0.874353 0.622142
Si Si4 0.556577 0.796649 0.531420
Si Si5 0.122220 0.021131 0.871832
Si Si6 0.305880 0.949258 0.038238
O O1 0.750000 0.250000 0.750000
O O2 0.812885 0.303440 0.828665
O O3 0.692291 0.285306 0.849081
O O4 0.762895 0.194108 0.850494
O O5 0.919265 0.828298 0.224319
O O6 0.870378 0.910643 0.152350
O O7 0.821997 0.887879 0.249148
O O8 0.419251 0.830750 0.625000
O O9 0.526752 0.846377 0.575171
O O10 0.512676 0.861473 0.683464
O O11 0.500000 0.750000 0.520900
O O12 0.140013 0.972054 0.821868
O O13 0.171755 0.002091 0.919531
O O14 0.250000 0.972591 0.000000
#
# Coordination Sequence:
#
# PCOD9573757 Si02
#       6
#    32  32  32  32  32  32
#     4  12  21  36  58  81 117 152 187 233 290 338
#     4  11  21  36  57  85 112 150 190 232 283 334
#     4   9  18  34  57  88 110 142 194 236 279 335
#     4   9  17  33  58  82 111 146 190 236 274 330
#     4  10  21  37  56  85 113 144 199 229 276 346
#     4   9  18  36  62  81 106 147 189 241 274 329
#
# _framework density 17.478518000000001
#
# number of rings (size 3 to 8) (size 9 to 14) (size 15 to 20)
#    0.000    2.000    3.333    2.000    0.000    2.667 
#    9.000    0.000    0.000    3.000    0.000    0.000 
#    0.000    0.000    0.000    0.000    0.000    0.000 
#
# Total GULP energy -535068.279371 kJ/mol
# GULP energy per Si atom -5573.627910 kJ/mol
# Density = 1.743874 g / cm^3
# Si number density = 17.478518 Si / 1000 Ang^3
#
#
#
# Elastic Constant Matrix: (Units=GPa)
#
#
# Indices 1 2 3 4 5 6 
#
# 1 86.6994 47.1388 47.0670 0.0000 0.0000 0.0000
# 2 47.1388 86.7023 47.0681 0.0000 0.0000 0.0000
# 3 47.0670 47.0681 71.8705 0.0000 0.0000 0.0000
# 4 0.0000 0.0000 0.0000 24.6435 0.0000 0.0000
# 5 0.0000 0.0000 0.0000 0.0000 24.6437 0.0000
# 6 0.0000 0.0000 0.0000 0.0000 0.0000 13.1816
#
#
#
# Elastic Compliance Matrix: (Units=1/GPa)
#
#
# Indices 1 2 3 4 5 6 
#
# 1 0.019565 -0.005712 -0.009072 0.000000 0.000000 0.000000
# 2 -0.005712 0.019564 -0.009072 0.000000 0.000000 0.000000
# 3 -0.009072 -0.009072 0.025796 0.000000 0.000000 0.000000
# 4 0.000000 0.000000 0.000000 0.040579 0.000000 0.000000
# 5 0.000000 0.000000 0.000000 0.000000 0.040578 0.000000
# 6 0.000000 0.000000 0.000000 0.000000 0.000000 0.075863
#
#
# Mechanical properties :
#
#
# Convention : Reuss Voigt Hill
#
# Bulk Modulus (GPa) = 58.09415 58.64668 58.37042
# Shear Modulus (GPa) = 18.15578 19.42696 18.79137
#
# Velocity S-wave (km/s) = 3.22646 3.33750 3.28245
# Velocity P-wave (km/s) = 6.86947 6.96263 6.91621
#
# Compressibility (1/GPa) = 0.01721344
#
# Stress axis : x y z
#
# Youngs Moduli (GPa) = 51.11241 51.11377 38.76584
#
# Poissons Ratio (x) = 0.29198 0.35167
# Poissons Ratio (y) = 0.29197 0.35167
# Poissons Ratio (z) = 0.46367 0.46369
#
# Static dielectric constant tensor:
#      x y z
#    x 1.590840 0.000000 0.000000 
#    y 0.000000 1.590840 0.000000 
#    z 0.000000 0.000000 1.610450 
# 
# From -- ./inp_files/10428.got.cif
#   From: 2010.05.17/outbox.cif.g08.bks.cpg/sg142_6_cif.got.tgz:10428.got - 2010.05.20 13:39:18.
