data_PCOD9573112
_publ_section_title
;
Structure prediction by ZEFSAII (Michael W. Deem and Ramdas Pophale) SiO2 
 PCOD9573112
Probable space group: I 41/A M D
;
_chemical_formula_sum "Si O2"
_cell_formula_units_Z 160
_cell_length_a 18.418759
_cell_length_b 18.418759
_cell_length_c 19.263823
_cell_angle_alpha 90.000000
_cell_angle_beta 90.000000
_cell_angle_gamma 90.000000
_cell_volume 6535.265112
_symmetry_space_group_name_H-M "I 41/A M D"
_symmetry_group_IT_number 141
_space_group.IT_coordinate_system_code '2'
_symmetry_cell_setting 'tetragonal'
loop_
_space_group_symop_operation_xyz
x,y,z
1/4-y,3/4+x,1/4+z
-x,1/2-y,z
1/4+y,1/4-x,3/4+z
x,-y,-z
-x,1/2+y,-z
1/4+y,3/4+x,1/4-z
1/4-y,1/4-x,3/4-z
-x,-y,-z
3/4+y,1/4-x,3/4-z
x,1/2+y,-z
3/4-y,3/4+x,1/4-z
-x,y,z
x,1/2-y,z
3/4-y,1/4-x,3/4+z
3/4+y,3/4+x,1/4+z
1/2+x,1/2+y,1/2+z
3/4-y,1/4+x,3/4+z
1/2-x,-y,1/2+z
3/4+y,3/4-x,1/4+z
1/2+x,1/2-y,1/2-z
1/2-x,y,1/2-z
3/4+y,1/4+x,3/4-z
3/4-y,3/4-x,1/4-z
1/2-x,1/2-y,1/2-z
1/4+y,3/4-x,1/4-z
1/2+x,y,1/2-z
1/4-y,1/4+x,3/4-z
1/2-x,1/2+y,1/2+z
1/2+x,-y,1/2+z
1/4-y,3/4-x,1/4+z
1/4+y,1/4+x,3/4+z
loop_
_atom_site_type_symbol
_atom_site_label
_atom_site_fract_x
_atom_site_fract_y
_atom_site_fract_z
Si Si1 0.301937 0.072067 0.811754
Si Si2 0.083034 0.914084 0.491253
Si Si3 0.194832 0.333265 0.900415
Si Si4 0.917695 0.530845 0.702686
Si Si5 0.916378 0.669109 0.907084
O O1 0.250000 0.047232 0.750000
O O2 0.251671 0.111533 0.866208
O O3 0.357244 0.137517 0.792230
O O4 0.352728 0.007772 0.838599
O O5 0.139951 0.862049 0.529694
O O6 0.083538 0.882021 0.412572
O O7 0.000000 0.905566 0.515985
O O8 0.100699 0.000000 0.500000
O O9 0.198434 0.250000 0.875849
O O10 0.118617 0.368617 0.875000
O O11 0.228920 0.330697 0.978540
O O12 0.000000 0.530867 0.674574
O O13 0.909236 0.750000 0.937284
O O14 0.000000 0.657216 0.888217
#
# Coordination Sequence:
#
# PCOD9573112 Si02
#       5
#    32  32  32  32  32
#     4  12  23  38  63  91 126 167 217 265 317 375
#     4  10  21  38  64  96 126 162 208 260 320 386
#     4  11  24  43  63  89 126 171 216 261 318 379
#     4  11  23  41  62  91 130 166 208 263 320 379
#     4  10  21  39  63  93 130 170 215 264 314 375
#
# _framework density 24.482558000000001
#
# number of rings (size 3 to 8) (size 9 to 14) (size 15 to 20)
#    0.000    1.200    4.000    2.400    0.000    3.000 
#    0.000    0.000    0.000    0.000    0.000    1.400 
#    0.000    9.600    0.000    0.000    0.000    0.000 
#
# Total GULP energy -446779.929200 kJ/mol
# GULP energy per Si atom -5584.749115 kJ/mol
# Density = 2.442683 g / cm^3
# Si number density = 24.482558 Si / 1000 Ang^3
#
#
#
# Elastic Constant Matrix: (Units=GPa)
#
#
# Indices 1 2 3 4 5 6 
#
# 1 180.3596 83.9668 24.8943 0.0000 0.0000 0.0000
# 2 83.9668 180.3596 24.8943 0.0000 0.0000 0.0000
# 3 24.8943 24.8943 36.1983 0.0000 0.0000 0.0000
# 4 0.0000 0.0000 0.0000 22.3383 0.0000 0.0000
# 5 0.0000 0.0000 0.0000 0.0000 22.3382 0.0000
# 6 0.0000 0.0000 0.0000 0.0000 0.0000 48.1398
#
#
#
# Elastic Compliance Matrix: (Units=1/GPa)
#
#
# Indices 1 2 3 4 5 6 
#
# 1 0.007360 -0.003014 -0.002989 0.000000 0.000000 0.000000
# 2 -0.003014 0.007360 -0.002989 0.000000 0.000000 0.000000
# 3 -0.002989 -0.002989 0.031737 0.000000 0.000000 0.000000
# 4 0.000000 0.000000 0.000000 0.044766 0.000000 0.000000
# 5 0.000000 0.000000 0.000000 0.000000 0.044766 0.000000
# 6 0.000000 0.000000 0.000000 0.000000 0.000000 0.020773
#
#
# Mechanical properties :
#
#
# Convention : Reuss Voigt Hill
#
# Bulk Modulus (GPa) = 35.12067 73.82538 54.47303
# Shear Modulus (GPa) = 27.13888 36.10741 31.62314
#
# Velocity S-wave (km/s) = 3.33302 3.84451 3.59787
# Velocity P-wave (km/s) = 5.40263 7.06588 6.28948
#
# Compressibility (1/GPa) = 0.02847326
#
# Stress axis : x y z
#
# Youngs Moduli (GPa) = 135.86567 135.86566 31.50921
#
# Poissons Ratio (x) = 0.40950 0.09418
# Poissons Ratio (y) = 0.40950 0.09418
# Poissons Ratio (z) = 0.40610 0.40610
#
# Static dielectric constant tensor:
#      x y z
#    x 1.969220 0.000000 0.000000 
#    y 0.000000 1.969220 0.000000 
#    z 0.000000 0.000000 2.091160 
# 
# From -- ./inp_files/12669.got.cif
#   From: 2010.05.17/outbox.cif.g08.bks.cpg/sg141_7_cif.got.tgz:12669.got - 2010.05.20 13:30:51.
