data_PCOD9573585
_publ_section_title
;
Structure prediction by ZEFSAII (Michael W. Deem and Ramdas Pophale) SiO2 
 PCOD9573585
Probable space group: I 41/A C D
;
_chemical_formula_sum "Si O2"
_cell_formula_units_Z 88
_cell_length_a 23.618916
_cell_length_b 23.618916
_cell_length_c 8.697640
_cell_angle_alpha 90.000000
_cell_angle_beta 90.000000
_cell_angle_gamma 90.000000
_cell_volume 4852.006246
_symmetry_space_group_name_H-M "I 41/A C D"
_symmetry_group_IT_number 142
_space_group.IT_coordinate_system_code '2'
_symmetry_cell_setting 'tetragonal'
loop_
_space_group_symop_operation_xyz
x,y,z
1/4-y,3/4+x,1/4+z
-x,1/2-y,z
1/4+y,1/4-x,3/4+z
x,-y,1/2-z
1/2-x,y,-z
3/4+y,1/4+x,1/4-z
1/4-y,1/4-x,1/4-z
-x,-y,-z
3/4+y,1/4-x,3/4-z
x,1/2+y,-z
3/4-y,3/4+x,1/4-z
-x,y,1/2+z
1/2+x,-y,z
1/4-y,3/4-x,3/4+z
3/4+y,3/4+x,3/4+z
1/2+x,1/2+y,1/2+z
3/4-y,1/4+x,3/4+z
1/2-x,-y,1/2+z
3/4+y,3/4-x,1/4+z
1/2+x,1/2-y,-z
-x,1/2+y,1/2-z
1/4+y,3/4+x,3/4-z
3/4-y,3/4-x,3/4-z
1/2-x,1/2-y,1/2-z
1/4+y,3/4-x,1/4-z
1/2+x,y,1/2-z
1/4-y,1/4+x,3/4-z
1/2-x,1/2+y,z
x,1/2-y,1/2+z
3/4-y,1/4-x,1/4+z
1/4+y,1/4+x,1/4+z
loop_
_atom_site_type_symbol
_atom_site_label
_atom_site_fract_x
_atom_site_fract_y
_atom_site_fract_z
Si Si1 0.300528 0.550528 0.625000
Si Si2 0.500000 0.250000 0.625000
Si Si3 0.489588 0.500000 0.250000
Si Si4 0.071592 0.438094 0.009423
Si Si5 0.437617 0.187617 0.375000
O O1 0.296602 0.500000 0.750000
O O2 0.362494 0.548433 0.543305
O O3 0.449568 0.232651 0.510170
O O4 0.531496 0.529263 0.129364
O O5 0.449433 0.543163 0.342012
O O6 0.059971 0.372723 0.043720
#
# Coordination Sequence:
#
# PCOD9573585 Si02
#       5
#    16   8  16  32  16
#     4  11  24  41  60  87 124 158 200 247 300 357
#     4  10  20  34  56  86 116 154 180 234 292 346
#     4  10  20  38  60  84 112 148 196 236 294 346
#     4  10  21  38  60  85 115 153 191 245 286 348
#     4  10  20  35  56  82 116 146 188 230 286 343
#
# _framework density 18.136828000000001
#
# number of rings (size 3 to 8) (size 9 to 14) (size 15 to 20)
#    0.000    1.818    1.818    2.182    2.545    0.000 
#    0.000    0.000    0.000    0.000    0.000    0.000 
#    0.000    0.000    0.000    0.000    0.000    0.000 
#
# Total GULP energy -245323.830033 kJ/mol
# GULP energy per Si atom -5575.541592 kJ/mol
# Density = 1.809555 g / cm^3
# Si number density = 18.136828 Si / 1000 Ang^3
#
#
#
# Elastic Constant Matrix: (Units=GPa)
#
#
# Indices 1 2 3 4 5 6 
#
# 1 93.9689 59.7458 47.4041 0.0000 0.0000 0.0000
# 2 59.7458 93.9689 47.4041 0.0000 0.0000 0.0000
# 3 47.4041 47.4041 96.7192 0.0000 0.0000 0.0000
# 4 0.0000 0.0000 0.0000 49.1215 0.0000 0.0000
# 5 0.0000 0.0000 0.0000 0.0000 49.1215 0.0000
# 6 0.0000 0.0000 0.0000 0.0000 0.0000 25.2968
#
#
#
# Elastic Compliance Matrix: (Units=1/GPa)
#
#
# Indices 1 2 3 4 5 6 
#
# 1 0.019272 -0.009948 -0.004570 0.000000 0.000000 0.000000
# 2 -0.009948 0.019272 -0.004570 0.000000 0.000000 0.000000
# 3 -0.004570 -0.004570 0.014819 0.000000 0.000000 0.000000
# 4 0.000000 0.000000 0.000000 0.020358 0.000000 0.000000
# 5 0.000000 0.000000 0.000000 0.000000 0.020358 0.000000
# 6 0.000000 0.000000 0.000000 0.000000 0.000000 0.039531
#
#
# Mechanical properties :
#
#
# Convention : Reuss Voigt Hill
#
# Bulk Modulus (GPa) = 65.84413 65.97390 65.90901
# Shear Modulus (GPa) = 28.27295 33.38149 30.82722
#
# Velocity S-wave (km/s) = 3.95254 4.29480 4.12722
# Velocity P-wave (km/s) = 7.56393 7.81335 7.68965
#
# Compressibility (1/GPa) = 0.01518738
#
# Stress axis : x y z
#
# Youngs Moduli (GPa) = 51.88843 51.88843 67.48123
#
# Poissons Ratio (x) = 0.51618 0.30839
# Poissons Ratio (y) = 0.51618 0.30839
# Poissons Ratio (z) = 0.23713 0.23713
#
# Static dielectric constant tensor:
#      x y z
#    x 1.617310 0.000000 0.000000 
#    y 0.000000 1.617310 0.000000 
#    z 0.000000 0.000000 1.650040 
# 
# From -- ./inp_files/1705.got.cif
#   From: 2010.05.17/outbox.cif.g08.bks.cpg/sg142_1_cif.got.tgz:1705.got - 2010.05.20 13:39:18.
