data_PCOD9573508
_publ_section_title
;
Structure prediction by ZEFSAII (Michael W. Deem and Ramdas Pophale) SiO2 
 PCOD9573508
Probable space group: I 41/A C D
;
_chemical_formula_sum "Si O2"
_cell_formula_units_Z 112
_cell_length_a 14.194878
_cell_length_b 14.194878
_cell_length_c 23.765836
_cell_angle_alpha 90.000000
_cell_angle_beta 90.000000
_cell_angle_gamma 90.000000
_cell_volume 4788.686702
_symmetry_space_group_name_H-M "I 41/A C D"
_symmetry_group_IT_number 142
_space_group.IT_coordinate_system_code '2'
_symmetry_cell_setting 'tetragonal'
loop_
_space_group_symop_operation_xyz
x,y,z
1/4-y,3/4+x,1/4+z
-x,1/2-y,z
1/4+y,1/4-x,3/4+z
x,-y,1/2-z
1/2-x,y,-z
3/4+y,1/4+x,1/4-z
1/4-y,1/4-x,1/4-z
-x,-y,-z
3/4+y,1/4-x,3/4-z
x,1/2+y,-z
3/4-y,3/4+x,1/4-z
-x,y,1/2+z
1/2+x,-y,z
1/4-y,3/4-x,3/4+z
3/4+y,3/4+x,3/4+z
1/2+x,1/2+y,1/2+z
3/4-y,1/4+x,3/4+z
1/2-x,-y,1/2+z
3/4+y,3/4-x,1/4+z
1/2+x,1/2-y,-z
-x,1/2+y,1/2-z
1/4+y,3/4+x,3/4-z
3/4-y,3/4-x,3/4-z
1/2-x,1/2-y,1/2-z
1/4+y,3/4-x,1/4-z
1/2+x,y,1/2-z
1/4-y,1/4+x,3/4-z
1/2-x,1/2+y,z
x,1/2-y,1/2+z
3/4-y,1/4-x,1/4+z
1/4+y,1/4+x,1/4+z
loop_
_atom_site_type_symbol
_atom_site_label
_atom_site_fract_x
_atom_site_fract_y
_atom_site_fract_z
Si Si1 0.011022 0.415134 0.296355
Si Si2 0.222195 0.889114 0.731583
Si Si3 0.301182 0.551182 0.125000
Si Si4 0.323807 0.337515 0.166179
O O1 0.994587 0.500000 0.250000
O O2 0.113838 0.371140 0.284568
O O3 0.023743 0.445845 0.362039
O O4 0.925407 0.342046 0.303028
O O5 0.300061 0.886330 0.681507
O O6 0.248387 0.828327 0.785208
O O7 0.222237 0.000000 0.750000
O O8 0.312888 0.444112 0.144492
#
# Coordination Sequence:
#
# PCOD9573508 Si02
#       4
#    32  32  16  32
#     4  10  20  34  58  90 122 167 220 273 334 394
#     4   8  15  29  52  81 115 156 206 263 321 388
#     4   8  14  28  50  76 112 152 198 254 302 368
#     4  10  19  34  57  87 122 161 213 270 326 393
#
# _framework density 23.388459999999998
#
# number of rings (size 3 to 8) (size 9 to 14) (size 15 to 20)
#    0.000    2.857    0.000    4.286    0.000    0.571 
#    0.000    5.714    0.000    6.857    0.000    4.000 
#    0.000    0.000    0.000    0.000    0.000    0.000 
#
# Total GULP energy -311883.424725 kJ/mol
# GULP energy per Si atom -5569.346870 kJ/mol
# Density = 2.333523 g / cm^3
# Si number density = 23.388460 Si / 1000 Ang^3
#
#
#
# Elastic Constant Matrix: (Units=GPa)
#
#
# Indices 1 2 3 4 5 6 
#
# 1 97.0644 17.1497 59.0415 0.0000 0.0000 0.0000
# 2 17.1497 97.0644 59.0415 0.0000 0.0000 0.0000
# 3 59.0415 59.0415 155.7126 0.0000 0.0000 0.0000
# 4 0.0000 0.0000 0.0000 28.1674 0.0000 0.0000
# 5 0.0000 0.0000 0.0000 0.0000 28.1674 0.0000
# 6 0.0000 0.0000 0.0000 0.0000 0.0000 -2.0135
#
#
#
# Elastic Compliance Matrix: (Units=1/GPa)
#
#
# Indices 1 2 3 4 5 6 
#
# 1 0.013457 0.000944 -0.005460 0.000000 0.000000 0.000000
# 2 0.000944 0.013457 -0.005460 0.000000 0.000000 0.000000
# 3 -0.005460 -0.005460 0.010563 0.000000 0.000000 0.000000
# 4 0.000000 0.000000 0.000000 0.035502 0.000000 0.000000
# 5 0.000000 0.000000 0.000000 0.000000 0.035502 0.000000
# 6 0.000000 0.000000 0.000000 0.000000 0.000000 -0.496655
#
#
# Mechanical properties :
#
#
# Convention : Reuss Voigt Hill
#
# Bulk Modulus (GPa) = 57.06757 68.92299 62.99528
# Shear Modulus (GPa) = -13.79772 25.17150 5.68689
#
# Velocity S-wave (km/s) = -2.43150 3.28416 1.56102
# Velocity P-wave (km/s) = 4.07062 6.62674 5.49926
#
# Compressibility (1/GPa) = 0.01752309
#
# Stress axis : x y z
#
# Youngs Moduli (GPa) = 74.31039 74.31039 94.67109
#
# Poissons Ratio (x) = -0.07013 0.51694
# Poissons Ratio (y) = -0.07013 0.51694
# Poissons Ratio (z) = 0.40576 0.40576
#
# Static dielectric constant tensor:
#      x y z
#    x 1.920920 0.000000 0.000000 
#    y 0.000000 1.920920 0.000000 
#    z 0.000000 0.000000 1.989720 
# 
# From -- ./inp_files/9732.got.cif
#   From: 2010.05.17/outbox.cif.g08.bks.cpg/sg142_5_cif.got.tgz:9732.got - 2010.05.20 13:39:18.
