data_PCOD9573173
_publ_section_title
;
Structure prediction by ZEFSAII (Michael W. Deem and Ramdas Pophale) SiO2 
 PCOD9573173
Probable space group: I 41/A M D
;
_chemical_formula_sum "Si O2"
_cell_formula_units_Z 80
_cell_length_a 25.945936
_cell_length_b 25.945936
_cell_length_c 5.539663
_cell_angle_alpha 90.000000
_cell_angle_beta 90.000000
_cell_angle_gamma 90.000000
_cell_volume 3729.254570
_symmetry_space_group_name_H-M "I 41/A M D"
_symmetry_group_IT_number 141
_space_group.IT_coordinate_system_code '2'
_symmetry_cell_setting 'tetragonal'
loop_
_space_group_symop_operation_xyz
x,y,z
1/4-y,3/4+x,1/4+z
-x,1/2-y,z
1/4+y,1/4-x,3/4+z
x,-y,-z
-x,1/2+y,-z
1/4+y,3/4+x,1/4-z
1/4-y,1/4-x,3/4-z
-x,-y,-z
3/4+y,1/4-x,3/4-z
x,1/2+y,-z
3/4-y,3/4+x,1/4-z
-x,y,z
x,1/2-y,z
3/4-y,1/4-x,3/4+z
3/4+y,3/4+x,1/4+z
1/2+x,1/2+y,1/2+z
3/4-y,1/4+x,3/4+z
1/2-x,-y,1/2+z
3/4+y,3/4-x,1/4+z
1/2+x,1/2-y,1/2-z
1/2-x,y,1/2-z
3/4+y,1/4+x,3/4-z
3/4-y,3/4-x,1/4-z
1/2-x,1/2-y,1/2-z
1/4+y,3/4-x,1/4-z
1/2+x,y,1/2-z
1/4-y,1/4+x,3/4-z
1/2-x,1/2+y,1/2+z
1/2+x,-y,1/2+z
1/4-y,3/4-x,1/4+z
1/4+y,1/4+x,3/4+z
loop_
_atom_site_type_symbol
_atom_site_label
_atom_site_fract_x
_atom_site_fract_y
_atom_site_fract_z
Si Si1 0.195491 0.554510 0.625000
Si Si2 0.442391 0.104020 0.865746
Si Si3 0.406320 0.584144 0.631796
O O1 0.190360 0.500000 0.500000
O O2 0.188544 0.599783 0.428744
O O3 0.500000 0.125180 0.846188
O O4 0.430763 0.070730 0.624734
O O5 0.396244 0.145887 0.872775
O O6 0.436915 0.074367 0.120734
#
# Coordination Sequence:
#
# PCOD9573173 Si02
#       3
#    16  32  32
#     4  10  22  38  60  86 114 149 186 236 302 353
#     4   9  16  32  56  77 108 153 186 223 285 329
#     4   9  20  34  53  83 113 143 187 238 272 332
#
# _framework density 21.452010000000001
#
# number of rings (size 3 to 8) (size 9 to 14) (size 15 to 20)
#    0.000    3.200    0.000    1.200    0.000    6.400 
#    0.000    0.000    0.000   97.200    0.000    0.000 
#    0.000    0.000    0.000    0.000    0.000    0.000 
#
# Total GULP energy -222829.108039 kJ/mol
# GULP energy per Si atom -5570.727701 kJ/mol
# Density = 2.140318 g / cm^3
# Si number density = 21.452010 Si / 1000 Ang^3
#
#
#
# Elastic Constant Matrix: (Units=GPa)
#
#
# Indices 1 2 3 4 5 6 
#
# 1 -5.1945 143.5638 31.0437 0.0000 0.0000 0.0000
# 2 143.5638 -5.1978 31.0444 0.0000 0.0000 0.0000
# 3 31.0437 31.0444 229.1710 0.0000 0.0000 0.0000
# 4 0.0000 0.0000 0.0000 7.2918 0.0000 0.0000
# 5 0.0000 0.0000 0.0000 0.0000 7.2901 0.0000
# 6 0.0000 0.0000 0.0000 0.0000 0.0000 3.4767
#
#
#
# Elastic Compliance Matrix: (Units=1/GPa)
#
#
# Indices 1 2 3 4 5 6 
#
# 1 0.000486 0.007209 -0.001042 0.000000 0.000000 0.000000
# 2 0.007209 0.000486 -0.001042 0.000000 0.000000 0.000000
# 3 -0.001042 -0.001042 0.004646 0.000000 0.000000 0.000000
# 4 0.000000 0.000000 0.000000 0.137140 0.000000 0.000000
# 5 0.000000 0.000000 0.000000 0.000000 0.137173 0.000000
# 6 0.000000 0.000000 0.000000 0.000000 0.000000 0.287630
#
#
# Mechanical properties :
#
#
# Convention : Reuss Voigt Hill
#
# Bulk Modulus (GPa) = 63.02705 70.00919 66.51812
# Shear Modulus (GPa) = 8.88728 4.48683 6.68706
#
# Velocity S-wave (km/s) = 2.03761 1.44779 1.76748
# Velocity P-wave (km/s) = 5.91440 5.95826 5.93637
#
# Compressibility (1/GPa) = 0.01586620
#
# Stress axis : x y z
#
# Youngs Moduli (GPa) = 2055.93191 2056.70713 215.24096
#
# Poissons Ratio (x) = -14.82587 0.22436
# Poissons Ratio (y) = -14.82028 0.22435
# Poissons Ratio (z) = 2.14308 2.14379
#
# Static dielectric constant tensor:
#      x y z
#    x 1.770520 0.000000 0.000000 
#    y 0.000000 1.770530 0.000000 
#    z 0.000000 0.000000 1.893870 
# 
# From -- ./inp_files/989.got.cif
#   From: 2010.05.17/outbox.cif.g08.bks.cpg/sg141_1_cif.got.tgz:989.got - 2010.05.20 13:30:51.
