data_PCOD9573947
_publ_section_title
;
Structure prediction by ZEFSAII (Michael W. Deem and Ramdas Pophale) SiO2 
 PCOD9573947
Probable space group: I 41/A C D
;
_chemical_formula_sum "Si O2"
_cell_formula_units_Z 96
_cell_length_a 17.590921
_cell_length_b 17.590921
_cell_length_c 13.995271
_cell_angle_alpha 90.000000
_cell_angle_beta 90.000000
_cell_angle_gamma 90.000000
_cell_volume 4330.703679
_symmetry_space_group_name_H-M "I 41/A C D"
_symmetry_group_IT_number 142
_space_group.IT_coordinate_system_code '2'
_symmetry_cell_setting 'tetragonal'
loop_
_space_group_symop_operation_xyz
x,y,z
1/4-y,3/4+x,1/4+z
-x,1/2-y,z
1/4+y,1/4-x,3/4+z
x,-y,1/2-z
1/2-x,y,-z
3/4+y,1/4+x,1/4-z
1/4-y,1/4-x,1/4-z
-x,-y,-z
3/4+y,1/4-x,3/4-z
x,1/2+y,-z
3/4-y,3/4+x,1/4-z
-x,y,1/2+z
1/2+x,-y,z
1/4-y,3/4-x,3/4+z
3/4+y,3/4+x,3/4+z
1/2+x,1/2+y,1/2+z
3/4-y,1/4+x,3/4+z
1/2-x,-y,1/2+z
3/4+y,3/4-x,1/4+z
1/2+x,1/2-y,-z
-x,1/2+y,1/2-z
1/4+y,3/4+x,3/4-z
3/4-y,3/4-x,3/4-z
1/2-x,1/2-y,1/2-z
1/4+y,3/4-x,1/4-z
1/2+x,y,1/2-z
1/4-y,1/4+x,3/4-z
1/2-x,1/2+y,z
x,1/2-y,1/2+z
3/4-y,1/4-x,1/4+z
1/4+y,1/4+x,1/4+z
loop_
_atom_site_type_symbol
_atom_site_label
_atom_site_fract_x
_atom_site_fract_y
_atom_site_fract_z
Si Si1 0.298234 0.680569 0.294287
Si Si2 0.666986 0.916986 0.625000
Si Si3 0.404635 0.845366 0.625000
Si Si4 0.531290 0.409165 0.240700
O O1 0.250000 0.750000 0.250000
O O2 0.249421 0.613288 0.343850
O O3 0.340791 0.647873 0.204296
O O4 0.352356 0.715188 0.377204
O O5 0.614689 0.898466 0.715806
O O6 0.479550 0.858814 0.689285
O O7 0.510033 0.500000 0.250000
#
# Coordination Sequence:
#
# PCOD9573947 Si02
#       4
#    32  16  16  32
#     4  11  24  46  71 102 151 185 243 304 356 429
#     4  10  22  47  69  94 150 194 222 306 364 408
#     4  12  24  43  81 104 142 196 242 294 372 432
#     4  10  23  44  67 101 144 181 237 302 348 423
#
# _framework density 22.167300000000001
#
# number of rings (size 3 to 8) (size 9 to 14) (size 15 to 20)
#    0.000    1.333    6.667    0.000    4.667    0.667 
#    0.000   21.667    0.000    0.000    0.000    0.000 
#    0.000    0.000    0.000    0.000    0.000    0.000 
#
# Total GULP energy -267626.223724 kJ/mol
# GULP energy per Si atom -5575.546328 kJ/mol
# Density = 2.211685 g / cm^3
# Si number density = 22.167300 Si / 1000 Ang^3
#
#
#
# Elastic Constant Matrix: (Units=GPa)
#
#
# Indices 1 2 3 4 5 6 
#
# 1 43.9782 41.5030 45.5513 0.0000 0.0000 0.0000
# 2 41.5030 43.9786 45.5529 0.0000 0.0000 0.0000
# 3 45.5513 45.5529 215.5816 0.0000 0.0000 0.0000
# 4 0.0000 0.0000 0.0000 46.2447 0.0000 0.0000
# 5 0.0000 0.0000 0.0000 0.0000 46.2445 0.0000
# 6 0.0000 0.0000 0.0000 0.0000 0.0000 26.5440
#
#
#
# Elastic Compliance Matrix: (Units=1/GPa)
#
#
# Indices 1 2 3 4 5 6 
#
# 1 0.209538 -0.194440 -0.003189 0.000000 0.000000 0.000000
# 2 -0.194440 0.209540 -0.003192 0.000000 0.000000 0.000000
# 3 -0.003189 -0.003192 0.005987 0.000000 0.000000 0.000000
# 4 0.000000 0.000000 0.000000 0.021624 0.000000 0.000000
# 5 0.000000 0.000000 0.000000 0.000000 0.021624 0.000000
# 6 0.000000 0.000000 0.000000 0.000000 0.000000 0.037673
#
#
# Mechanical properties :
#
#
# Convention : Reuss Voigt Hill
#
# Bulk Modulus (GPa) = 42.69341 63.19474 52.94407
# Shear Modulus (GPa) = 5.46188 35.20204 20.33196
#
# Velocity S-wave (km/s) = 1.57140 3.98932 3.03182
# Velocity P-wave (km/s) = 4.75330 7.05617 6.01595
#
# Compressibility (1/GPa) = 0.02342282
#
# Stress axis : x y z
#
# Youngs Moduli (GPa) = 4.77240 4.77236 167.03312
#
# Poissons Ratio (x) = 0.92794 0.53259
# Poissons Ratio (y) = 0.92795 0.53319
# Poissons Ratio (z) = 0.01522 0.01523
#
# Static dielectric constant tensor:
#      x y z
#    x 2.021360 0.000000 0.000000 
#    y 0.000000 2.021420 0.000000 
#    z 0.000000 0.000000 1.799670 
# 
# From -- ./inp_files/6958.got.cif
#   From: 2010.05.17/outbox.cif.g08.bks.cpg/sg142_4_cif.got.tgz:6958.got - 2010.05.20 13:39:18.
