data_PCOD9573828
_publ_section_title
;
Structure prediction by ZEFSAII (Michael W. Deem and Ramdas Pophale) SiO2 
 PCOD9573828
Probable space group: I 41/A C D
;
_chemical_formula_sum "Si O2"
_cell_formula_units_Z 184
_cell_length_a 22.961863
_cell_length_b 22.961863
_cell_length_c 17.525512
_cell_angle_alpha 90.000000
_cell_angle_beta 90.000000
_cell_angle_gamma 90.000000
_cell_volume 9240.276297
_symmetry_space_group_name_H-M "I 41/A C D"
_symmetry_group_IT_number 142
_space_group.IT_coordinate_system_code '2'
_symmetry_cell_setting 'tetragonal'
loop_
_space_group_symop_operation_xyz
x,y,z
1/4-y,3/4+x,1/4+z
-x,1/2-y,z
1/4+y,1/4-x,3/4+z
x,-y,1/2-z
1/2-x,y,-z
3/4+y,1/4+x,1/4-z
1/4-y,1/4-x,1/4-z
-x,-y,-z
3/4+y,1/4-x,3/4-z
x,1/2+y,-z
3/4-y,3/4+x,1/4-z
-x,y,1/2+z
1/2+x,-y,z
1/4-y,3/4-x,3/4+z
3/4+y,3/4+x,3/4+z
1/2+x,1/2+y,1/2+z
3/4-y,1/4+x,3/4+z
1/2-x,-y,1/2+z
3/4+y,3/4-x,1/4+z
1/2+x,1/2-y,-z
-x,1/2+y,1/2-z
1/4+y,3/4+x,3/4-z
3/4-y,3/4-x,3/4-z
1/2-x,1/2-y,1/2-z
1/4+y,3/4-x,1/4-z
1/2+x,y,1/2-z
1/4-y,1/4+x,3/4-z
1/2-x,1/2+y,z
x,1/2-y,1/2+z
3/4-y,1/4-x,1/4+z
1/4+y,1/4+x,1/4+z
loop_
_atom_site_type_symbol
_atom_site_label
_atom_site_fract_x
_atom_site_fract_y
_atom_site_fract_z
Si Si1 0.783714 0.000000 0.750000
Si Si2 0.103514 0.709714 0.476002
Si Si3 0.208916 0.335119 0.125509
Si Si4 0.915304 0.593964 0.041237
Si Si5 0.000000 0.250000 0.625000
Si Si6 0.207292 0.232590 0.934093
Si Si7 0.201967 0.064801 0.393469
O O1 0.815327 0.042502 0.809145
O O2 0.741032 0.037346 0.696264
O O3 0.149678 0.676249 0.420974
O O4 0.067081 0.660015 0.520825
O O5 0.057999 0.746725 0.426684
O O6 0.146380 0.747560 0.528308
O O7 0.193805 0.329246 0.214485
O O8 0.255241 0.287429 0.096546
O O9 0.239724 0.396901 0.110746
O O10 0.945460 0.560458 0.110566
O O11 0.848503 0.600723 0.067183
O O12 0.250000 0.206277 0.000000
#
# Coordination Sequence:
#
# PCOD9573828 Si02
#       7
#    16  32  32  32   8  32  32
#     4  10  22  32  54  96 132 158 196 270 326 380
#     4  11  24  43  68  95 129 170 229 284 335 402
#     4  11  21  43  68  96 127 174 228 275 333 409
#     4  12  22  40  65  95 130 174 222 277 337 406
#     4  12  24  44  70 100 132 164 226 292 340 396
#     4  10  25  43  64  94 133 179 224 275 339 416
#     4  11  21  35  62  94 129 165 215 265 328 396
#
# _framework density 19.912825000000002
#
# number of rings (size 3 to 8) (size 9 to 14) (size 15 to 20)
#    0.000    1.043    5.217    1.565    4.870    1.391 
#    0.000    0.000    0.000    0.000    0.000    0.000 
#    0.000    0.000    0.000    0.000    0.000    0.000 
#
# Total GULP energy -513585.283050 kJ/mol
# GULP energy per Si atom -5582.448729 kJ/mol
# Density = 1.986750 g / cm^3
# Si number density = 19.912825 Si / 1000 Ang^3
#
#
#
# Elastic Constant Matrix: (Units=GPa)
#
#
# Indices 1 2 3 4 5 6 
#
# 1 62.9103 36.9919 39.2400 0.0000 0.0000 0.0000
# 2 36.9919 62.9103 39.2400 0.0000 0.0000 0.0000
# 3 39.2400 39.2400 152.9899 0.0000 0.0000 0.0000
# 4 0.0000 0.0000 0.0000 39.9038 0.0000 0.0000
# 5 0.0000 0.0000 0.0000 0.0000 39.9038 0.0000
# 6 0.0000 0.0000 0.0000 0.0000 0.0000 33.7414
#
#
#
# Elastic Compliance Matrix: (Units=1/GPa)
#
#
# Indices 1 2 3 4 5 6 
#
# 1 0.025559 -0.013024 -0.003215 0.000000 0.000000 0.000000
# 2 -0.013024 0.025559 -0.003215 0.000000 0.000000 0.000000
# 3 -0.003215 -0.003215 0.008186 0.000000 0.000000 0.000000
# 4 0.000000 0.000000 0.000000 0.025060 0.000000 0.000000
# 5 0.000000 0.000000 0.000000 0.000000 0.025060 0.000000
# 6 0.000000 0.000000 0.000000 0.000000 0.000000 0.029637
#
#
# Mechanical properties :
#
#
# Convention : Reuss Voigt Hill
#
# Bulk Modulus (GPa) = 49.02927 56.63933 52.83430
# Shear Modulus (GPa) = 27.06095 33.59906 30.33001
#
# Velocity S-wave (km/s) = 3.69042 4.11214 3.90698
# Velocity P-wave (km/s) = 6.54480 7.14504 6.85150
#
# Compressibility (1/GPa) = 0.02039598
#
# Stress axis : x y z
#
# Youngs Moduli (GPa) = 39.12503 39.12503 122.16423
#
# Poissons Ratio (x) = 0.50955 0.39278
# Poissons Ratio (y) = 0.50955 0.39278
# Poissons Ratio (z) = 0.12580 0.12580
#
# Static dielectric constant tensor:
#      x y z
#    x 1.701860 0.000000 0.000000 
#    y 0.000000 1.701860 0.000000 
#    z 0.000000 0.000000 1.742490 
# 
# From -- ./inp_files/7627.got.cif
#   From: 2010.05.17/outbox.cif.g08.bks.cpg/sg142_4_cif.got.tgz:7627.got - 2010.05.20 13:39:18.
