data_PCOD9573104
_publ_section_title
;
Structure prediction by ZEFSAII (Michael W. Deem and Ramdas Pophale) SiO2 
 PCOD9573104
Probable space group: I 41/A M D
;
_chemical_formula_sum "Si O2"
_cell_formula_units_Z 160
_cell_length_a 21.491505
_cell_length_b 21.491505
_cell_length_c 18.754754
_cell_angle_alpha 90.000000
_cell_angle_beta 90.000000
_cell_angle_gamma 90.000000
_cell_volume 8662.535560
_symmetry_space_group_name_H-M "I 41/A M D"
_symmetry_group_IT_number 141
_space_group.IT_coordinate_system_code '2'
_symmetry_cell_setting 'tetragonal'
loop_
_space_group_symop_operation_xyz
x,y,z
1/4-y,3/4+x,1/4+z
-x,1/2-y,z
1/4+y,1/4-x,3/4+z
x,-y,-z
-x,1/2+y,-z
1/4+y,3/4+x,1/4-z
1/4-y,1/4-x,3/4-z
-x,-y,-z
3/4+y,1/4-x,3/4-z
x,1/2+y,-z
3/4-y,3/4+x,1/4-z
-x,y,z
x,1/2-y,z
3/4-y,1/4-x,3/4+z
3/4+y,3/4+x,1/4+z
1/2+x,1/2+y,1/2+z
3/4-y,1/4+x,3/4+z
1/2-x,-y,1/2+z
3/4+y,3/4-x,1/4+z
1/2+x,1/2-y,1/2-z
1/2-x,y,1/2-z
3/4+y,1/4+x,3/4-z
3/4-y,3/4-x,1/4-z
1/2-x,1/2-y,1/2-z
1/4+y,3/4-x,1/4-z
1/2+x,y,1/2-z
1/4-y,1/4+x,3/4-z
1/2-x,1/2+y,1/2+z
1/2+x,-y,1/2+z
1/4-y,3/4-x,1/4+z
1/4+y,1/4+x,3/4+z
loop_
_atom_site_type_symbol
_atom_site_label
_atom_site_fract_x
_atom_site_fract_y
_atom_site_fract_z
Si Si1 0.568406 0.929704 0.029415
Si Si2 0.430321 0.536522 0.574943
Si Si3 0.182936 0.054002 0.289611
Si Si4 0.887721 0.073260 0.689260
Si Si5 0.068291 0.087019 0.840633
O O1 0.500000 0.901086 0.013667
O O2 0.577670 0.934193 0.114336
O O3 0.632361 0.903994 0.993786
O O4 0.566431 0.000000 0.000000
O O5 0.427941 0.500000 0.500000
O O6 0.500000 0.563926 0.581857
O O7 0.375383 0.585621 0.574828
O O8 0.422322 0.484141 0.635145
O O9 0.189461 0.060540 0.375000
O O10 0.250000 0.046047 0.250000
O O11 0.143848 0.990858 0.284223
O O12 0.928640 0.093956 0.755989
O O13 0.121316 0.128685 0.875000
O O14 0.000000 0.105358 0.868025
#
# Coordination Sequence:
#
# PCOD9573104 Si02
#       5
#    32  32  32  32  32
#     4  10  21  39  58  86 127 161 196 253 315 370
#     4  10  21  38  57  83 122 162 196 244 316 366
#     4  11  21  35  57  94 122 153 196 249 311 364
#     4  12  21  36  64  90 115 156 206 256 298 367
#     4  11  24  38  55  82 115 157 199 241 296 359
#
# _framework density 18.470343
#
# number of rings (size 3 to 8) (size 9 to 14) (size 15 to 20)
#    0.000    1.200    6.000    2.400    0.000    0.200 
#    0.000    0.000    0.000    1.800    0.000    0.000 
#    0.000    0.000    0.000    0.000    0.000    0.000 
#
# Total GULP energy -446079.717424 kJ/mol
# GULP energy per Si atom -5575.996468 kJ/mol
# Density = 1.842830 g / cm^3
# Si number density = 18.470343 Si / 1000 Ang^3
#
#
#
# Elastic Constant Matrix: (Units=GPa)
#
#
# Indices 1 2 3 4 5 6 
#
# 1 96.4321 44.6768 16.6821 0.0000 0.0000 0.0000
# 2 44.6768 96.4373 16.6840 0.0000 0.0000 0.0000
# 3 16.6821 16.6840 128.4969 0.0000 0.0000 0.0000
# 4 0.0000 0.0000 0.0000 10.1386 0.0000 0.0000
# 5 0.0000 0.0000 0.0000 0.0000 10.1426 0.0000
# 6 0.0000 0.0000 0.0000 0.0000 0.0000 -0.0470
#
#
#
# Elastic Compliance Matrix: (Units=1/GPa)
#
#
# Indices 1 2 3 4 5 6 
#
# 1 0.013316 -0.006005 -0.000949 0.000000 0.000000 0.000000
# 2 -0.006005 0.013316 -0.000949 0.000000 0.000000 0.000000
# 3 -0.000949 -0.000949 0.008029 0.000000 0.000000 0.000000
# 4 0.000000 0.000000 0.000000 0.098633 0.000000 0.000000
# 5 0.000000 0.000000 0.000000 0.000000 0.098594 0.000000
# 6 0.000000 0.000000 0.000000 0.000000 0.000000-21.293492
#
#
# Mechanical properties :
#
#
# Convention : Reuss Voigt Hill
#
# Bulk Modulus (GPa) = 53.03912 53.05022 53.04467
# Shear Modulus (GPa) = -0.23765 20.26842 10.01539
#
# Velocity S-wave (km/s) = -0.35909 3.31622 2.33113
# Velocity P-wave (km/s) = 5.34848 6.59146 6.00223
#
# Compressibility (1/GPa) = 0.01885401
#
# Stress axis : x y z
#
# Youngs Moduli (GPa) = 75.09645 75.10021 124.55212
#
# Poissons Ratio (x) = 0.45096 0.11821
# Poissons Ratio (y) = 0.45094 0.11824
# Poissons Ratio (z) = 0.07127 0.07129
#
# Static dielectric constant tensor:
#      x y z
#    x 1.644940 0.000000 0.000000 
#    y 0.000000 1.644940 0.000000 
#    z 0.000000 0.000000 1.658190 
# 
# From -- ./inp_files/8607.got.cif
#   From: 2010.05.17/outbox.cif.g08.bks.cpg/sg141_5_cif.got.tgz:8607.got - 2010.05.20 13:30:51.
