data_PCOD9573665
_publ_section_title
;
Structure prediction by ZEFSAII (Michael W. Deem and Ramdas Pophale) SiO2 
 PCOD9573665
Probable space group: I 41/A C D
;
_chemical_formula_sum "Si O2"
_cell_formula_units_Z 160
_cell_length_a 18.512418
_cell_length_b 18.512418
_cell_length_c 23.482870
_cell_angle_alpha 90.000000
_cell_angle_beta 90.000000
_cell_angle_gamma 90.000000
_cell_volume 8047.805459
_symmetry_space_group_name_H-M "I 41/A C D"
_symmetry_group_IT_number 142
_space_group.IT_coordinate_system_code '2'
_symmetry_cell_setting 'tetragonal'
loop_
_space_group_symop_operation_xyz
x,y,z
1/4-y,3/4+x,1/4+z
-x,1/2-y,z
1/4+y,1/4-x,3/4+z
x,-y,1/2-z
1/2-x,y,-z
3/4+y,1/4+x,1/4-z
1/4-y,1/4-x,1/4-z
-x,-y,-z
3/4+y,1/4-x,3/4-z
x,1/2+y,-z
3/4-y,3/4+x,1/4-z
-x,y,1/2+z
1/2+x,-y,z
1/4-y,3/4-x,3/4+z
3/4+y,3/4+x,3/4+z
1/2+x,1/2+y,1/2+z
3/4-y,1/4+x,3/4+z
1/2-x,-y,1/2+z
3/4+y,3/4-x,1/4+z
1/2+x,1/2-y,-z
-x,1/2+y,1/2-z
1/4+y,3/4+x,3/4-z
3/4-y,3/4-x,3/4-z
1/2-x,1/2-y,1/2-z
1/4+y,3/4-x,1/4-z
1/2+x,y,1/2-z
1/4-y,1/4+x,3/4-z
1/2-x,1/2+y,z
x,1/2-y,1/2+z
3/4-y,1/4-x,1/4+z
1/4+y,1/4+x,1/4+z
loop_
_atom_site_type_symbol
_atom_site_label
_atom_site_fract_x
_atom_site_fract_y
_atom_site_fract_z
Si Si1 0.234334 0.895147 0.623295
Si Si2 0.813873 0.711792 0.530959
Si Si3 0.424082 0.711103 0.255732
Si Si4 0.329928 0.818205 0.869932
Si Si5 0.790705 0.756618 0.809953
O O1 0.223515 0.856763 0.561775
O O2 0.150547 0.909757 0.638991
O O3 0.270454 0.833953 0.662796
O O4 0.284374 0.965627 0.625000
O O5 0.750000 0.753327 0.500000
O O6 0.877769 0.688537 0.489759
O O7 0.846651 0.762287 0.579954
O O8 0.500000 0.750000 0.263158
O O9 0.380254 0.702625 0.315643
O O10 0.374008 0.747504 0.207880
O O11 0.247540 0.802076 0.850327
O O12 0.750000 0.750000 0.750000
#
# Coordination Sequence:
#
# PCOD9573665 Si02
#       5
#    32  32  32  32  32
#     4  10  20  38  63  80 113 165 202 240 309 372
#     4  10  21  36  56  87 118 150 203 251 294 363
#     4  10  21  34  62  88 116 159 198 250 310 362
#     4   9  21  37  58  89 120 153 202 259 294 366
#     4   9  19  37  56  86 124 148 194 257 306 355
#
# _framework density 19.881195999999999
#
# number of rings (size 3 to 8) (size 9 to 14) (size 15 to 20)
#    0.000    2.400    0.000    1.200   11.200    0.000 
#    3.600    3.000    0.000    4.800    0.000    0.000 
#    0.000    0.000    0.000    0.000    0.000    0.000 
#
# Total GULP energy -445874.982777 kJ/mol
# GULP energy per Si atom -5573.437285 kJ/mol
# Density = 1.983595 g / cm^3
# Si number density = 19.881196 Si / 1000 Ang^3
#
#
#
# Elastic Constant Matrix: (Units=GPa)
#
#
# Indices 1 2 3 4 5 6 
#
# 1 106.2704 44.2297 15.6835 0.0000 0.0000 0.0000
# 2 44.2297 106.2683 15.6829 0.0000 0.0000 0.0000
# 3 15.6835 15.6829 19.0170 0.0000 0.0000 0.0000
# 4 0.0000 0.0000 0.0000 14.2249 0.0000 0.0000
# 5 0.0000 0.0000 0.0000 0.0000 14.2236 0.0000
# 6 0.0000 0.0000 0.0000 0.0000 0.0000 24.0350
#
#
#
# Elastic Compliance Matrix: (Units=1/GPa)
#
#
# Indices 1 2 3 4 5 6 
#
# 1 0.012071 -0.004048 -0.006617 0.000000 0.000000 0.000000
# 2 -0.004048 0.012071 -0.006617 0.000000 0.000000 0.000000
# 3 -0.006617 -0.006617 0.063499 0.000000 0.000000 0.000000
# 4 0.000000 0.000000 0.000000 0.070299 0.000000 0.000000
# 5 0.000000 0.000000 0.000000 0.000000 0.070306 0.000000
# 6 0.000000 0.000000 0.000000 0.000000 0.000000 0.041606
#
#
# Mechanical properties :
#
#
# Convention : Reuss Voigt Hill
#
# Bulk Modulus (GPa) = 18.84027 42.52754 30.68391
# Shear Modulus (GPa) = 15.52275 20.89402 18.20838
#
# Velocity S-wave (km/s) = 2.79727 3.24534 3.02960
# Velocity P-wave (km/s) = 4.46430 5.95653 5.26356
#
# Compressibility (1/GPa) = 0.05307779
#
# Stress axis : x y z
#
# Youngs Moduli (GPa) = 82.84233 82.84134 15.74834
#
# Poissons Ratio (x) = 0.33530 0.10421
# Poissons Ratio (y) = 0.33531 0.10421
# Poissons Ratio (z) = 0.54819 0.54815
#
# Static dielectric constant tensor:
#      x y z
#    x 1.749700 0.000000 0.000000 
#    y 0.000000 1.749700 0.000000 
#    z 0.000000 0.000000 1.719420 
# 
# From -- ./inp_files/11276.got.cif
#   From: 2010.05.17/outbox.cif.g08.bks.cpg/sg142_6_cif.got.tgz:11276.got - 2010.05.20 13:39:18.
