data_PCOD9573237
_publ_section_title
;
Structure prediction by ZEFSAII (Michael W. Deem and Ramdas Pophale) SiO2 
 PCOD9573237
Probable space group: I 41/A M D
;
_chemical_formula_sum "Si O2"
_cell_formula_units_Z 160
_cell_length_a 25.286998
_cell_length_b 25.286998
_cell_length_c 12.128726
_cell_angle_alpha 90.000000
_cell_angle_beta 90.000000
_cell_angle_gamma 90.000000
_cell_volume 7755.498772
_symmetry_space_group_name_H-M "I 41/A M D"
_symmetry_group_IT_number 141
_space_group.IT_coordinate_system_code '2'
_symmetry_cell_setting 'tetragonal'
loop_
_space_group_symop_operation_xyz
x,y,z
1/4-y,3/4+x,1/4+z
-x,1/2-y,z
1/4+y,1/4-x,3/4+z
x,-y,-z
-x,1/2+y,-z
1/4+y,3/4+x,1/4-z
1/4-y,1/4-x,3/4-z
-x,-y,-z
3/4+y,1/4-x,3/4-z
x,1/2+y,-z
3/4-y,3/4+x,1/4-z
-x,y,z
x,1/2-y,z
3/4-y,1/4-x,3/4+z
3/4+y,3/4+x,1/4+z
1/2+x,1/2+y,1/2+z
3/4-y,1/4+x,3/4+z
1/2-x,-y,1/2+z
3/4+y,3/4-x,1/4+z
1/2+x,1/2-y,1/2-z
1/2-x,y,1/2-z
3/4+y,1/4+x,3/4-z
3/4-y,3/4-x,1/4-z
1/2-x,1/2-y,1/2-z
1/4+y,3/4-x,1/4-z
1/2+x,y,1/2-z
1/4-y,1/4+x,3/4-z
1/2-x,1/2+y,1/2+z
1/2+x,-y,1/2+z
1/4-y,3/4-x,1/4+z
1/4+y,1/4+x,3/4+z
loop_
_atom_site_type_symbol
_atom_site_label
_atom_site_fract_x
_atom_site_fract_y
_atom_site_fract_z
Si Si1 0.296650 0.250000 0.555417
Si Si2 0.094753 0.862077 0.503566
Si Si3 0.169977 0.897483 0.311157
Si Si4 0.690396 0.750000 0.705619
Si Si5 0.884830 0.526201 0.154354
Si Si6 0.061698 0.750000 0.416896
Si Si7 0.000000 0.336213 0.914234
O O1 0.307850 0.250000 0.426017
O O2 0.264454 0.303326 0.581876
O O3 0.354995 0.250000 0.612165
O O4 0.118426 0.868426 0.625000
O O5 0.134151 0.870250 0.401851
O O6 0.073777 0.802484 0.486608
O O7 0.050016 0.906308 0.493105
O O8 0.139611 0.948409 0.264036
O O9 0.227205 0.901329 0.368085
O O10 0.182902 0.866353 0.198274
O O11 0.750000 0.750000 0.750000
O O12 0.089870 0.750000 0.297217
O O13 0.000000 0.750000 0.387700
O O14 0.051173 0.301173 0.875000
#
# Coordination Sequence:
#
# PCOD9573237 Si02
#       7
#    16  32  32  16  32  16  16
#     4  12  23  39  72 101 142 179 218 292 357 417
#     4  12  26  43  68  97 136 185 232 276 338 417
#     4  10  23  44  71 100 136 181 228 295 346 420
#     4  12  27  45  66  98 137 186 228 278 342 410
#     4  10  23  43  74 102 140 174 231 288 366 406
#     4  12  23  40  62  98 141 178 228 271 346 418
#     4  11  22  35  63 105 133 177 228 275 345 420
#
# _framework density 20.630524000000001
#
# number of rings (size 3 to 8) (size 9 to 14) (size 15 to 20)
#    0.000    0.900    4.000    3.000    5.600    2.400 
#    0.000    0.000   30.800    0.000    0.000    0.000 
#    0.000    0.000    0.000    0.000    0.000    0.000 
#
# Total GULP energy -446745.257001 kJ/mol
# GULP energy per Si atom -5584.315713 kJ/mol
# Density = 2.058357 g / cm^3
# Si number density = 20.630524 Si / 1000 Ang^3
#
#
#
# Elastic Constant Matrix: (Units=GPa)
#
#
# Indices 1 2 3 4 5 6 
#
# 1 85.8243 39.3986 34.0605 0.0000 0.0000 0.0000
# 2 39.3986 85.8243 34.0605 0.0000 0.0000 0.0000
# 3 34.0605 34.0605 105.3778 0.0000 0.0000 0.0000
# 4 0.0000 0.0000 0.0000 25.9892 0.0000 0.0000
# 5 0.0000 0.0000 0.0000 0.0000 25.9892 0.0000
# 6 0.0000 0.0000 0.0000 0.0000 0.0000 6.7473
#
#
#
# Elastic Compliance Matrix: (Units=1/GPa)
#
#
# Indices 1 2 3 4 5 6 
#
# 1 0.015615 -0.005925 -0.003132 0.000000 0.000000 0.000000
# 2 -0.005925 0.015615 -0.003132 0.000000 0.000000 0.000000
# 3 -0.003132 -0.003132 0.011514 0.000000 0.000000 0.000000
# 4 0.000000 0.000000 0.000000 0.038477 0.000000 0.000000
# 5 0.000000 0.000000 0.000000 0.000000 0.038477 0.000000
# 6 0.000000 0.000000 0.000000 0.000000 0.000000 0.148208
#
#
# Mechanical properties :
#
#
# Convention : Reuss Voigt Hill
#
# Bulk Modulus (GPa) = 54.44911 54.67394 54.56152
# Shear Modulus (GPa) = 16.75566 23.04560 19.90063
#
# Velocity S-wave (km/s) = 2.85297 3.34588 3.10920
# Velocity P-wave (km/s) = 6.10756 6.44093 6.27646
#
# Compressibility (1/GPa) = 0.01836577
#
# Stress axis : x y z
#
# Youngs Moduli (GPa) = 64.04248 64.04248 86.84903
#
# Poissons Ratio (x) = 0.37946 0.27200
# Poissons Ratio (y) = 0.37946 0.27200
# Poissons Ratio (z) = 0.20057 0.20057
#
# Static dielectric constant tensor:
#      x y z
#    x 1.750940 0.000000 0.000000 
#    y 0.000000 1.750940 0.000000 
#    z 0.000000 0.000000 1.715170 
# 
# From -- ./inp_files/4952.got.cif
#   From: 2010.05.17/outbox.cif.g08.bks.cpg/sg141_3_cif.got.tgz:4952.got - 2010.05.20 13:30:51.
