data_PCOD9573833
_publ_section_title
;
Structure prediction by ZEFSAII (Michael W. Deem and Ramdas Pophale) SiO2 
 PCOD9573833
Probable space group: I 41/A C D
;
_chemical_formula_sum "Si O2"
_cell_formula_units_Z 120
_cell_length_a 18.341250
_cell_length_b 18.341250
_cell_length_c 14.709293
_cell_angle_alpha 90.000000
_cell_angle_beta 90.000000
_cell_angle_gamma 90.000000
_cell_volume 4948.227517
_symmetry_space_group_name_H-M "I 41/A C D"
_symmetry_group_IT_number 142
_space_group.IT_coordinate_system_code '2'
_symmetry_cell_setting 'tetragonal'
loop_
_space_group_symop_operation_xyz
x,y,z
1/4-y,3/4+x,1/4+z
-x,1/2-y,z
1/4+y,1/4-x,3/4+z
x,-y,1/2-z
1/2-x,y,-z
3/4+y,1/4+x,1/4-z
1/4-y,1/4-x,1/4-z
-x,-y,-z
3/4+y,1/4-x,3/4-z
x,1/2+y,-z
3/4-y,3/4+x,1/4-z
-x,y,1/2+z
1/2+x,-y,z
1/4-y,3/4-x,3/4+z
3/4+y,3/4+x,3/4+z
1/2+x,1/2+y,1/2+z
3/4-y,1/4+x,3/4+z
1/2-x,-y,1/2+z
3/4+y,3/4-x,1/4+z
1/2+x,1/2-y,-z
-x,1/2+y,1/2-z
1/4+y,3/4+x,3/4-z
3/4-y,3/4-x,3/4-z
1/2-x,1/2-y,1/2-z
1/4+y,3/4-x,1/4-z
1/2+x,y,1/2-z
1/4-y,1/4+x,3/4-z
1/2-x,1/2+y,z
x,1/2-y,1/2+z
3/4-y,1/4-x,1/4+z
1/4+y,1/4+x,1/4+z
loop_
_atom_site_type_symbol
_atom_site_label
_atom_site_fract_x
_atom_site_fract_y
_atom_site_fract_z
Si Si1 0.500000 0.250000 0.625000
Si Si2 0.974011 0.613183 0.512153
Si Si3 0.669429 0.923895 0.338115
Si Si4 0.805612 0.500000 0.750000
Si Si5 0.736982 0.280603 0.896288
O O1 0.432840 0.262230 0.693747
O O2 0.887348 0.620816 0.530581
O O3 0.984954 0.588251 0.407811
O O4 0.997845 0.547416 0.578440
O O5 0.696585 0.898454 0.436875
O O6 0.617179 0.993320 0.351247
O O7 0.746731 0.946150 0.296320
O O8 0.750000 0.256762 0.000000
#
# Coordination Sequence:
#
# PCOD9573833 Si02
#       5
#     8  32  32  16  32
#     4  12  24  48  74 104 156 194 248 312 374 464
#     4  11  25  44  67 101 143 189 237 299 364 441
#     4  11  20  39  64  97 132 169 229 286 356 426
#     4  10  22  34  64 100 130 168 216 292 354 424
#     4  11  24  44  70  94 136 189 240 296 361 438
#
# _framework density 24.251107000000001
#
# number of rings (size 3 to 8) (size 9 to 14) (size 15 to 20)
#    0.000    1.067    6.667    0.000    1.867    1.067 
#    0.000    2.667    0.000    0.000    0.000    0.000 
#    0.000    0.000    0.000    0.000    0.000    0.000 
#
# Total GULP energy -334777.581173 kJ/mol
# GULP energy per Si atom -5579.626353 kJ/mol
# Density = 2.419591 g / cm^3
# Si number density = 24.251107 Si / 1000 Ang^3
#
#
#
# Elastic Constant Matrix: (Units=GPa)
#
#
# Indices 1 2 3 4 5 6 
#
# 1 54.8905 -1.3155 34.5619 0.0000 0.0000 0.0000
# 2 -1.3155 54.8905 34.5619 0.0000 0.0000 0.0000
# 3 34.5619 34.5619 174.7698 0.0000 0.0000 0.0000
# 4 0.0000 0.0000 0.0000 23.6720 0.0000 0.0000
# 5 0.0000 0.0000 0.0000 0.0000 23.6720 0.0000
# 6 0.0000 0.0000 0.0000 0.0000 0.0000 16.8611
#
#
#
# Elastic Compliance Matrix: (Units=1/GPa)
#
#
# Indices 1 2 3 4 5 6 
#
# 1 0.021425 0.003634 -0.004956 0.000000 0.000000 0.000000
# 2 0.003634 0.021425 -0.004956 0.000000 0.000000 0.000000
# 3 -0.004956 -0.004956 0.007682 0.000000 0.000000 0.000000
# 4 0.000000 0.000000 0.000000 0.042244 0.000000 0.000000
# 5 0.000000 0.000000 0.000000 0.000000 0.042244 0.000000
# 6 0.000000 0.000000 0.000000 0.000000 0.000000 0.059308
#
#
# Mechanical properties :
#
#
# Convention : Reuss Voigt Hill
#
# Bulk Modulus (GPa) = 26.33113 46.68525 36.50819
# Shear Modulus (GPa) = 22.77457 27.29052 25.03254
#
# Velocity S-wave (km/s) = 3.06782 3.35823 3.21631
# Velocity P-wave (km/s) = 4.84045 5.85914 5.37399
#
# Compressibility (1/GPa) = 0.03797786
#
# Stress axis : x y z
#
# Youngs Moduli (GPa) = 46.67338 46.67338 130.17732
#
# Poissons Ratio (x) = -0.16960 0.64511
# Poissons Ratio (y) = -0.16960 0.64511
# Poissons Ratio (z) = 0.23130 0.23130
#
# Static dielectric constant tensor:
#      x y z
#    x 1.966690 0.000000 0.000000 
#    y 0.000000 1.966690 0.000000 
#    z 0.000000 0.000000 2.094070 
# 
# From -- ./inp_files/5059.got.cif
#   From: 2010.05.17/outbox.cif.g08.bks.cpg/sg142_3_cif.got.tgz:5059.got - 2010.05.20 13:39:18.
