data_PCOD9573409
_publ_section_title
;
Structure prediction by ZEFSAII (Michael W. Deem and Ramdas Pophale) SiO2 
 PCOD9573409
Probable space group: I 41/A C D
;
_chemical_formula_sum "Si O2"
_cell_formula_units_Z 112
_cell_length_a 14.240605
_cell_length_b 14.240605
_cell_length_c 23.310806
_cell_angle_alpha 90.000000
_cell_angle_beta 90.000000
_cell_angle_gamma 90.000000
_cell_volume 4727.310958
_symmetry_space_group_name_H-M "I 41/A C D"
_symmetry_group_IT_number 142
_space_group.IT_coordinate_system_code '2'
_symmetry_cell_setting 'tetragonal'
loop_
_space_group_symop_operation_xyz
x,y,z
1/4-y,3/4+x,1/4+z
-x,1/2-y,z
1/4+y,1/4-x,3/4+z
x,-y,1/2-z
1/2-x,y,-z
3/4+y,1/4+x,1/4-z
1/4-y,1/4-x,1/4-z
-x,-y,-z
3/4+y,1/4-x,3/4-z
x,1/2+y,-z
3/4-y,3/4+x,1/4-z
-x,y,1/2+z
1/2+x,-y,z
1/4-y,3/4-x,3/4+z
3/4+y,3/4+x,3/4+z
1/2+x,1/2+y,1/2+z
3/4-y,1/4+x,3/4+z
1/2-x,-y,1/2+z
3/4+y,3/4-x,1/4+z
1/2+x,1/2-y,-z
-x,1/2+y,1/2-z
1/4+y,3/4+x,3/4-z
3/4-y,3/4-x,3/4-z
1/2-x,1/2-y,1/2-z
1/4+y,3/4-x,1/4-z
1/2+x,y,1/2-z
1/4-y,1/4+x,3/4-z
1/2-x,1/2+y,z
x,1/2-y,1/2+z
3/4-y,1/4-x,1/4+z
1/4+y,1/4+x,1/4+z
loop_
_atom_site_type_symbol
_atom_site_label
_atom_site_fract_x
_atom_site_fract_y
_atom_site_fract_z
Si Si1 0.355982 0.446042 0.522617
Si Si2 0.658494 0.591507 0.125000
Si Si3 0.516269 0.476174 0.184160
Si Si4 0.835681 0.307989 0.819176
O O1 0.250000 0.420183 0.500000
O O2 0.334399 0.515289 0.575208
O O3 0.451304 0.390758 0.546363
O O4 0.402245 0.502314 0.469914
O O5 0.562399 0.569213 0.156581
O O6 0.501864 0.500000 0.250000
O O7 0.583116 0.384680 0.185499
O O8 0.442275 0.447872 0.135464
#
# Coordination Sequence:
#
# PCOD9573409 Si02
#       4
#    32  16  32  32
#     4  10  18  35  62 101 136 179 239 279 354 434
#     4  10  16  32  66  88 133 177 222 282 340 420
#     4  11  21  39  62  99 142 187 243 298 360 430
#     4  10  21  35  64  97 138 190 227 298 357 425
#
# _framework density 23.692118000000001
#
# number of rings (size 3 to 8) (size 9 to 14) (size 15 to 20)
#    0.000    1.714    5.714    0.000    0.000    0.571 
#    0.000    7.143    0.000    0.000    0.000    2.000 
#    0.000    0.000    0.000    0.000    0.000    0.000 
#
# Total GULP energy -311747.473675 kJ/mol
# GULP energy per Si atom -5566.919173 kJ/mol
# Density = 2.363819 g / cm^3
# Si number density = 23.692118 Si / 1000 Ang^3
#
#
#
# Elastic Constant Matrix: (Units=GPa)
#
#
# Indices 1 2 3 4 5 6 
#
# 1 101.7993 29.0648 50.9991 0.0000 0.0000 0.0000
# 2 29.0648 101.8001 50.9986 0.0000 0.0000 0.0000
# 3 50.9991 50.9986 243.3524 0.0000 0.0000 0.0000
# 4 0.0000 0.0000 0.0000 -16.4114 0.0000 0.0000
# 5 0.0000 0.0000 0.0000 0.0000 -16.4108 0.0000
# 6 0.0000 0.0000 0.0000 0.0000 0.0000 -67.1623
#
#
#
# Elastic Compliance Matrix: (Units=1/GPa)
#
#
# Indices 1 2 3 4 5 6 
#
# 1 0.011441 -0.002308 -0.001914 0.000000 0.000000 0.000000
# 2 -0.002308 0.011441 -0.001914 0.000000 0.000000 0.000000
# 3 -0.001914 -0.001914 0.004912 0.000000 0.000000 0.000000
# 4 0.000000 0.000000 0.000000 -0.060933 0.000000 0.000000
# 5 0.000000 0.000000 0.000000 0.000000 -0.060935 0.000000
# 6 0.000000 0.000000 0.000000 0.000000 0.000000 -0.014889
#
#
# Mechanical properties :
#
#
# Convention : Reuss Voigt Hill
#
# Bulk Modulus (GPa) = 64.42481 78.78631 71.60556
# Shear Modulus (GPa) = -54.63333 1.06239 -26.78547
#
# Velocity S-wave (km/s) = -4.80726 0.67036 -3.36603
# Velocity P-wave (km/s) = 1.88719 5.82457 3.89642
#
# Compressibility (1/GPa) = 0.01552197
#
# Stress axis : x y z
#
# Youngs Moduli (GPa) = 87.40495 87.40583 203.60317
#
# Poissons Ratio (x) = 0.20170 0.38971
# Poissons Ratio (y) = 0.20170 0.38970
# Poissons Ratio (z) = 0.16730 0.16730
#
# Static dielectric constant tensor:
#      x y z
#    x 1.987870 0.000000 0.000000 
#    y 0.000000 1.987870 0.000000 
#    z 0.000000 0.000000 1.871250 
# 
# From -- ./inp_files/9778.got.cif
#   From: 2010.05.17/outbox.cif.g08.bks.cpg/sg142_5_cif.got.tgz:9778.got - 2010.05.20 13:39:18.
