data_PCOD9573000
_publ_section_title
;
Structure prediction by ZEFSAII (Michael W. Deem and Ramdas Pophale) SiO2 
 PCOD9573000
Probable space group: I 41/A M D
;
_chemical_formula_sum "Si O2"
_cell_formula_units_Z 176
_cell_length_a 17.382231
_cell_length_b 17.382231
_cell_length_c 28.603803
_cell_angle_alpha 90.000000
_cell_angle_beta 90.000000
_cell_angle_gamma 90.000000
_cell_volume 8642.408946
_symmetry_space_group_name_H-M "I 41/A M D"
_symmetry_group_IT_number 141
_space_group.IT_coordinate_system_code '2'
_symmetry_cell_setting 'tetragonal'
loop_
_space_group_symop_operation_xyz
x,y,z
1/4-y,3/4+x,1/4+z
-x,1/2-y,z
1/4+y,1/4-x,3/4+z
x,-y,-z
-x,1/2+y,-z
1/4+y,3/4+x,1/4-z
1/4-y,1/4-x,3/4-z
-x,-y,-z
3/4+y,1/4-x,3/4-z
x,1/2+y,-z
3/4-y,3/4+x,1/4-z
-x,y,z
x,1/2-y,z
3/4-y,1/4-x,3/4+z
3/4+y,3/4+x,1/4+z
1/2+x,1/2+y,1/2+z
3/4-y,1/4+x,3/4+z
1/2-x,-y,1/2+z
3/4+y,3/4-x,1/4+z
1/2+x,1/2-y,1/2-z
1/2-x,y,1/2-z
3/4+y,1/4+x,3/4-z
3/4-y,3/4-x,1/4-z
1/2-x,1/2-y,1/2-z
1/4+y,3/4-x,1/4-z
1/2+x,y,1/2-z
1/4-y,1/4+x,3/4-z
1/2-x,1/2+y,1/2+z
1/2+x,-y,1/2+z
1/4-y,3/4-x,1/4+z
1/4+y,1/4+x,3/4+z
loop_
_atom_site_type_symbol
_atom_site_label
_atom_site_fract_x
_atom_site_fract_y
_atom_site_fract_z
Si Si1 0.406638 0.835435 0.674917
Si Si2 0.912851 0.563713 0.041691
Si Si3 0.911367 0.880026 0.726316
Si Si4 0.175743 0.045701 0.108038
Si Si5 0.408368 0.341633 0.125000
Si Si6 0.691450 0.837361 0.521390
O O1 0.500000 0.845970 0.674082
O O2 0.390625 0.750000 0.655200
O O3 0.379314 0.836777 0.728895
O O4 0.365478 0.904121 0.647771
O O5 0.877775 0.521556 0.086613
O O6 0.000000 0.589548 0.049653
O O7 0.914362 0.500000 0.000000
O O8 0.858785 0.629971 0.021043
O O9 0.877097 0.872413 0.674450
O O10 0.000000 0.852559 0.721132
O O11 0.912540 0.968771 0.740862
O O12 0.185687 0.105932 0.065549
O O13 0.253269 0.003269 0.125000
O O14 0.394313 0.250000 0.126790
O O15 0.668806 0.750000 0.533247
#
# Coordination Sequence:
#
# PCOD9573000 Si02
#       6
#    32  32  32  32  16  32
#     4  10  20  36  60  90 123 160 208 264 318 373
#     4   9  19  37  59  83 111 148 197 251 308 371
#     4   9  18  32  53  80 114 154 195 244 299 353
#     4  11  22  36  58  87 125 165 203 249 314 387
#     4   9  16  28  50  78 108 150 202 244 282 337
#     4  10  21  37  58  84 116 157 208 259 309 363
#
# _framework density 20.364692000000002
#
# number of rings (size 3 to 8) (size 9 to 14) (size 15 to 20)
#    0.000    2.273    0.000    2.727    1.273    3.273 
#    0.000    0.909    0.000    1.091    0.000    0.000 
#    0.000    3.273    0.000    0.000    0.000    0.000 
#
# Total GULP energy -490784.037605 kJ/mol
# GULP energy per Si atom -5577.091336 kJ/mol
# Density = 2.031834 g / cm^3
# Si number density = 20.364692 Si / 1000 Ang^3
#
#
#
# Elastic Constant Matrix: (Units=GPa)
#
#
# Indices 1 2 3 4 5 6 
#
# 1 93.5476 61.7062 59.8496 0.0000 0.0000 0.0000
# 2 61.7062 93.5463 59.8494 0.0000 0.0000 0.0000
# 3 59.8496 59.8494 125.2787 0.0000 0.0000 0.0000
# 4 0.0000 0.0000 0.0000 27.2652 0.0000 0.0000
# 5 0.0000 0.0000 0.0000 0.0000 27.2653 0.0000
# 6 0.0000 0.0000 0.0000 0.0000 0.0000 30.4877
#
#
#
# Elastic Compliance Matrix: (Units=1/GPa)
#
#
# Indices 1 2 3 4 5 6 
#
# 1 0.020801 -0.010605 -0.004871 0.000000 0.000000 0.000000
# 2 -0.010605 0.020802 -0.004871 0.000000 0.000000 0.000000
# 3 -0.004871 -0.004871 0.012637 0.000000 0.000000 0.000000
# 4 0.000000 0.000000 0.000000 0.036677 0.000000 0.000000
# 5 0.000000 0.000000 0.000000 0.000000 0.036677 0.000000
# 6 0.000000 0.000000 0.000000 0.000000 0.000000 0.032800
#
#
# Mechanical properties :
#
#
# Convention : Reuss Voigt Hill
#
# Bulk Modulus (GPa) = 73.82849 75.02033 74.42441
# Shear Modulus (GPa) = 24.31869 25.73482 25.02675
#
# Velocity S-wave (km/s) = 3.45941 3.55871 3.50941
# Velocity P-wave (km/s) = 7.23108 7.33514 7.28330
#
# Compressibility (1/GPa) = 0.01354491
#
# Stress axis : x y z
#
# Youngs Moduli (GPa) = 48.07365 48.07276 79.13526
#
# Poissons Ratio (x) = 0.50980 0.38549
# Poissons Ratio (y) = 0.50981 0.38550
# Poissons Ratio (z) = 0.23418 0.23418
#
# Static dielectric constant tensor:
#      x y z
#    x 1.728060 0.000000 0.000000 
#    y 0.000000 1.728060 0.000000 
#    z 0.000000 0.000000 1.750020 
# 
# From -- ./inp_files/12888.got.cif
#   From: 2010.05.17/outbox.cif.g08.bks.cpg/sg141_7_cif.got.tgz:12888.got - 2010.05.20 13:30:51.
