data_PCOD9573163
_publ_section_title
;
Structure prediction by ZEFSAII (Michael W. Deem and Ramdas Pophale) SiO2 
 PCOD9573163
Probable space group: I 41/A M D
;
_chemical_formula_sum "Si O2"
_cell_formula_units_Z 112
_cell_length_a 19.860281
_cell_length_b 19.860281
_cell_length_c 16.656925
_cell_angle_alpha 90.000000
_cell_angle_beta 90.000000
_cell_angle_gamma 90.000000
_cell_volume 6570.003610
_symmetry_space_group_name_H-M "I 41/A M D"
_symmetry_group_IT_number 141
_space_group.IT_coordinate_system_code '2'
_symmetry_cell_setting 'tetragonal'
loop_
_space_group_symop_operation_xyz
x,y,z
1/4-y,3/4+x,1/4+z
-x,1/2-y,z
1/4+y,1/4-x,3/4+z
x,-y,-z
-x,1/2+y,-z
1/4+y,3/4+x,1/4-z
1/4-y,1/4-x,3/4-z
-x,-y,-z
3/4+y,1/4-x,3/4-z
x,1/2+y,-z
3/4-y,3/4+x,1/4-z
-x,y,z
x,1/2-y,z
3/4-y,1/4-x,3/4+z
3/4+y,3/4+x,1/4+z
1/2+x,1/2+y,1/2+z
3/4-y,1/4+x,3/4+z
1/2-x,-y,1/2+z
3/4+y,3/4-x,1/4+z
1/2+x,1/2-y,1/2-z
1/2-x,y,1/2-z
3/4+y,1/4+x,3/4-z
3/4-y,3/4-x,1/4-z
1/2-x,1/2-y,1/2-z
1/4+y,3/4-x,1/4-z
1/2+x,y,1/2-z
1/4-y,1/4+x,3/4-z
1/2-x,1/2+y,1/2+z
1/2+x,-y,1/2+z
1/4-y,3/4-x,1/4+z
1/4+y,1/4+x,3/4+z
loop_
_atom_site_type_symbol
_atom_site_label
_atom_site_fract_x
_atom_site_fract_y
_atom_site_fract_z
Si Si1 0.195712 0.893262 0.955870
Si Si2 0.788117 0.961884 0.125000
Si Si3 0.079454 0.328429 0.608579
Si Si4 0.920951 0.591195 0.692811
O O1 0.130289 0.853626 0.926068
O O2 0.263318 0.849926 0.945762
O O3 0.202242 0.960743 0.901864
O O4 0.193558 0.917301 0.047943
O O5 0.090379 0.250000 0.630904
O O6 0.122361 0.341871 0.528021
O O7 0.000000 0.337207 0.592127
O O8 0.877958 0.627958 0.625000
O O9 0.000000 0.598030 0.675206
#
# Coordination Sequence:
#
# PCOD9573163 Si02
#       4
#    32  16  32  32
#     4  11  20  40  59  88 115 154 195 244 293 345
#     4  10  22  36  62  85 119 144 192 256 290 332
#     4  10  22  40  60  86 121 156 194 244 297 349
#     4  11  22  36  57  87 122 158 197 235 288 356
#
# _framework density 17.047174999999999
#
# number of rings (size 3 to 8) (size 9 to 14) (size 15 to 20)
#    0.000    1.429    4.286    1.714    0.000    2.571 
#    0.000    8.571    0.000    1.714    0.000    0.000 
#    0.000    0.000    0.000    0.000    0.000    0.000 
#
# Total GULP energy -312714.261641 kJ/mol
# GULP energy per Si atom -5584.183244 kJ/mol
# Density = 1.700838 g / cm^3
# Si number density = 17.047175 Si / 1000 Ang^3
#
#
#
# Elastic Constant Matrix: (Units=GPa)
#
#
# Indices 1 2 3 4 5 6 
#
# 1 89.5859 54.1207 55.5137 0.0000 0.0000 0.0000
# 2 54.1207 89.5869 55.5130 0.0000 0.0000 0.0000
# 3 55.5137 55.5130 90.7831 0.0000 0.0000 0.0000
# 4 0.0000 0.0000 0.0000 22.1311 0.0000 0.0000
# 5 0.0000 0.0000 0.0000 0.0000 22.1314 0.0000
# 6 0.0000 0.0000 0.0000 0.0000 0.0000 34.8066
#
#
#
# Elastic Compliance Matrix: (Units=1/GPa)
#
#
# Indices 1 2 3 4 5 6 
#
# 1 0.020694 -0.007503 -0.008066 0.000000 0.000000 0.000000
# 2 -0.007503 0.020693 -0.008065 0.000000 0.000000 0.000000
# 3 -0.008066 -0.008065 0.020879 0.000000 0.000000 0.000000
# 4 0.000000 0.000000 0.000000 0.045185 0.000000 0.000000
# 5 0.000000 0.000000 0.000000 0.000000 0.045185 0.000000
# 6 0.000000 0.000000 0.000000 0.000000 0.000000 0.028730
#
#
# Mechanical properties :
#
#
# Convention : Reuss Voigt Hill
#
# Bulk Modulus (GPa) = 66.68007 66.69451 66.68729
# Shear Modulus (GPa) = 21.40103 22.80105 22.10104
#
# Velocity S-wave (km/s) = 3.54701 3.66119 3.60455
# Velocity P-wave (km/s) = 7.48164 7.55519 7.51850
#
# Compressibility (1/GPa) = 0.01499698
#
# Stress axis : x y z
#
# Youngs Moduli (GPa) = 48.32432 48.32601 47.89399
#
# Poissons Ratio (x) = 0.36260 0.38631
# Poissons Ratio (y) = 0.36258 0.38628
# Poissons Ratio (z) = 0.38978 0.38976
#
# Static dielectric constant tensor:
#      x y z
#    x 1.560150 0.000000 0.000000 
#    y 0.000000 1.560140 0.000000 
#    z 0.000000 0.000000 1.551740 
# 
# From -- ./inp_files/7904.got.cif
#   From: 2010.05.17/outbox.cif.g08.bks.cpg/sg141_4_cif.got.tgz:7904.got - 2010.05.20 13:30:51.
