data_PCOD9573412
_publ_section_title
;
Structure prediction by ZEFSAII (Michael W. Deem and Ramdas Pophale) SiO2 
 PCOD9573412
Probable space group: I 41/A C D
;
_chemical_formula_sum "Si O2"
_cell_formula_units_Z 96
_cell_length_a 13.944038
_cell_length_b 13.944038
_cell_length_c 23.069018
_cell_angle_alpha 90.000000
_cell_angle_beta 90.000000
_cell_angle_gamma 90.000000
_cell_volume 4485.452100
_symmetry_space_group_name_H-M "I 41/A C D"
_symmetry_group_IT_number 142
_space_group.IT_coordinate_system_code '2'
_symmetry_cell_setting 'tetragonal'
loop_
_space_group_symop_operation_xyz
x,y,z
1/4-y,3/4+x,1/4+z
-x,1/2-y,z
1/4+y,1/4-x,3/4+z
x,-y,1/2-z
1/2-x,y,-z
3/4+y,1/4+x,1/4-z
1/4-y,1/4-x,1/4-z
-x,-y,-z
3/4+y,1/4-x,3/4-z
x,1/2+y,-z
3/4-y,3/4+x,1/4-z
-x,y,1/2+z
1/2+x,-y,z
1/4-y,3/4-x,3/4+z
3/4+y,3/4+x,3/4+z
1/2+x,1/2+y,1/2+z
3/4-y,1/4+x,3/4+z
1/2-x,-y,1/2+z
3/4+y,3/4-x,1/4+z
1/2+x,1/2-y,-z
-x,1/2+y,1/2-z
1/4+y,3/4+x,3/4-z
3/4-y,3/4-x,3/4-z
1/2-x,1/2-y,1/2-z
1/4+y,3/4-x,1/4-z
1/2+x,y,1/2-z
1/4-y,1/4+x,3/4-z
1/2-x,1/2+y,z
x,1/2-y,1/2+z
3/4-y,1/4-x,1/4+z
1/4+y,1/4+x,1/4+z
loop_
_atom_site_type_symbol
_atom_site_label
_atom_site_fract_x
_atom_site_fract_y
_atom_site_fract_z
Si Si1 0.030247 0.539292 0.077705
Si Si2 0.977678 0.862646 0.696718
Si Si3 0.657449 0.109949 0.758665
O O1 0.012394 0.572366 0.143188
O O2 0.930227 0.551626 0.042681
O O3 0.107697 0.614011 0.049885
O O4 0.083245 0.440085 0.065765
O O5 0.042483 0.888471 0.751074
O O6 0.000000 0.750000 0.685152
O O7 0.688176 0.000000 0.750000
#
# Coordination Sequence:
#
# PCOD9573412 Si02
#       3
#    32  32  32
#     4  10  18  36  60  80 112 156 198 231 294 360
#     4  10  16  36  58  77 111 160 190 228 295 355
#     4  10  21  32  55  91 113 143 201 252 276 344
#
# _framework density 21.402525000000001
#
# number of rings (size 3 to 8) (size 9 to 14) (size 15 to 20)
#    0.000    2.000    6.667    0.000    0.000    2.667 
#    0.000    0.000    0.000    0.000    0.000   16.333 
#    0.000    0.000    0.000    0.000    0.000    0.000 
#
# Total GULP energy -267235.737053 kJ/mol
# GULP energy per Si atom -5567.411189 kJ/mol
# Density = 2.135381 g / cm^3
# Si number density = 21.402525 Si / 1000 Ang^3
#
#
#
# Elastic Constant Matrix: (Units=GPa)
#
#
# Indices 1 2 3 4 5 6 
#
# 1 98.6334 24.1332 38.2101 0.0000 0.0000 0.0000
# 2 24.1332 98.6334 38.2101 0.0000 0.0000 0.0000
# 3 38.2101 38.2101 50.2656 0.0000 0.0000 0.0000
# 4 0.0000 0.0000 0.0000 28.3893 0.0000 0.0000
# 5 0.0000 0.0000 0.0000 0.0000 28.3893 0.0000
# 6 0.0000 0.0000 0.0000 0.0000 0.0000 11.3860
#
#
#
# Elastic Compliance Matrix: (Units=1/GPa)
#
#
# Indices 1 2 3 4 5 6 
#
# 1 0.014442 0.001020 -0.011754 0.000000 0.000000 0.000000
# 2 0.001020 0.014442 -0.011754 0.000000 0.000000 0.000000
# 3 -0.011754 -0.011754 0.037764 0.000000 0.000000 0.000000
# 4 0.000000 0.000000 0.000000 0.035224 0.000000 0.000000
# 5 0.000000 0.000000 0.000000 0.000000 0.035224 0.000000
# 6 0.000000 0.000000 0.000000 0.000000 0.000000 0.087827
#
#
# Mechanical properties :
#
#
# Convention : Reuss Voigt Hill
#
# Bulk Modulus (GPa) = 46.14012 49.84880 47.99446
# Shear Modulus (GPa) = 18.04244 23.43154 20.73699
#
# Velocity S-wave (km/s) = 2.90661 3.31237 3.11610
# Velocity P-wave (km/s) = 5.73320 6.16204 5.95148
#
# Compressibility (1/GPa) = 0.02167311
#
# Stress axis : x y z
#
# Youngs Moduli (GPa) = 69.24071 69.24071 26.48050
#
# Poissons Ratio (x) = -0.07060 0.31124
# Poissons Ratio (y) = -0.07060 0.31124
# Poissons Ratio (z) = 0.81383 0.81383
#
# Static dielectric constant tensor:
#      x y z
#    x 1.870620 0.000000 0.000000 
#    y 0.000000 1.870620 0.000000 
#    z 0.000000 0.000000 1.805310 
# 
# From -- ./inp_files/8369.got.cif
#   From: 2010.05.17/outbox.cif.g08.bks.cpg/sg142_5_cif.got.tgz:8369.got - 2010.05.20 13:39:18.
