data_PCOD9573486
_publ_section_title
;
Structure prediction by ZEFSAII (Michael W. Deem and Ramdas Pophale) SiO2 
 PCOD9573486
Probable space group: I 41/A C D
;
_chemical_formula_sum "Si O2"
_cell_formula_units_Z 112
_cell_length_a 19.219647
_cell_length_b 19.219647
_cell_length_c 14.241990
_cell_angle_alpha 90.000000
_cell_angle_beta 90.000000
_cell_angle_gamma 90.000000
_cell_volume 5260.917486
_symmetry_space_group_name_H-M "I 41/A C D"
_symmetry_group_IT_number 142
_space_group.IT_coordinate_system_code '2'
_symmetry_cell_setting 'tetragonal'
loop_
_space_group_symop_operation_xyz
x,y,z
1/4-y,3/4+x,1/4+z
-x,1/2-y,z
1/4+y,1/4-x,3/4+z
x,-y,1/2-z
1/2-x,y,-z
3/4+y,1/4+x,1/4-z
1/4-y,1/4-x,1/4-z
-x,-y,-z
3/4+y,1/4-x,3/4-z
x,1/2+y,-z
3/4-y,3/4+x,1/4-z
-x,y,1/2+z
1/2+x,-y,z
1/4-y,3/4-x,3/4+z
3/4+y,3/4+x,3/4+z
1/2+x,1/2+y,1/2+z
3/4-y,1/4+x,3/4+z
1/2-x,-y,1/2+z
3/4+y,3/4-x,1/4+z
1/2+x,1/2-y,-z
-x,1/2+y,1/2-z
1/4+y,3/4+x,3/4-z
3/4-y,3/4-x,3/4-z
1/2-x,1/2-y,1/2-z
1/4+y,3/4-x,1/4-z
1/2+x,y,1/2-z
1/4-y,1/4+x,3/4-z
1/2-x,1/2+y,z
x,1/2-y,1/2+z
3/4-y,1/4-x,1/4+z
1/4+y,1/4+x,1/4+z
loop_
_atom_site_type_symbol
_atom_site_label
_atom_site_fract_x
_atom_site_fract_y
_atom_site_fract_z
Si Si1 0.733076 0.918201 0.775417
Si Si2 0.860111 0.125442 0.814225
Si Si3 0.376739 0.626739 0.625000
Si Si4 0.667617 0.736155 0.975775
O O1 0.808045 0.882879 0.772647
O O2 0.691548 0.907895 0.870932
O O3 0.688545 0.879790 0.694991
O O4 0.733349 0.000000 0.750000
O O5 0.843081 0.191289 0.880312
O O6 0.939651 0.117948 0.786767
O O7 0.443465 0.618650 0.690272
O O8 0.750000 0.741352 0.000000
#
# Coordination Sequence:
#
# PCOD9573486 Si02
#       4
#    32  32  16  32
#     4  11  18  37  68 103 125 167 224 293 329 396
#     4  11  23  38  69  97 138 170 229 276 344 404
#     4  10  18  40  68  93 126 170 220 271 342 394
#     4  11  23  43  68  97 131 180 220 281 341 408
#
# _framework density 21.289062000000001
#
# number of rings (size 3 to 8) (size 9 to 14) (size 15 to 20)
#    0.000    1.143    5.714    2.571    0.000    1.714 
#    0.000    0.000    6.286    0.000    0.000    0.000 
#    0.000    0.000    0.000    0.000    0.000    0.000 
#
# Total GULP energy -313305.633458 kJ/mol
# GULP energy per Si atom -5594.743455 kJ/mol
# Density = 2.124061 g / cm^3
# Si number density = 21.289062 Si / 1000 Ang^3
#
#
#
# Elastic Constant Matrix: (Units=GPa)
#
#
# Indices 1 2 3 4 5 6 
#
# 1 125.1415 5.0821 2.5721 0.0000 0.0000 0.0000
# 2 5.0821 125.1415 2.5721 0.0000 0.0000 0.0000
# 3 2.5721 2.5721 22.1431 0.0000 0.0000 0.0000
# 4 0.0000 0.0000 0.0000 17.7874 0.0000 0.0000
# 5 0.0000 0.0000 0.0000 0.0000 17.7874 0.0000
# 6 0.0000 0.0000 0.0000 0.0000 0.0000 1.6483
#
#
#
# Elastic Compliance Matrix: (Units=1/GPa)
#
#
# Indices 1 2 3 4 5 6 
#
# 1 0.008022 -0.000307 -0.000896 0.000000 0.000000 0.000000
# 2 -0.000307 0.008022 -0.000896 0.000000 0.000000 0.000000
# 3 -0.000896 -0.000896 0.045369 0.000000 0.000000 0.000000
# 4 0.000000 0.000000 0.000000 0.056219 0.000000 0.000000
# 5 0.000000 0.000000 0.000000 0.000000 0.056219 0.000000
# 6 0.000000 0.000000 0.000000 0.000000 0.000000 0.606694
#
#
# Mechanical properties :
#
#
# Convention : Reuss Voigt Hill
#
# Bulk Modulus (GPa) = 17.47838 32.54206 25.01022
# Shear Modulus (GPa) = 6.22033 24.92462 15.57248
#
# Velocity S-wave (km/s) = 1.71119 3.42537 2.70752
# Velocity P-wave (km/s) = 3.48312 5.56446 4.64194
#
# Compressibility (1/GPa) = 0.05721353
#
# Stress axis : x y z
#
# Youngs Moduli (GPa) = 124.65945 124.65945 22.04153
#
# Poissons Ratio (x) = 0.03831 0.01975
# Poissons Ratio (y) = 0.03831 0.01975
# Poissons Ratio (z) = 0.11171 0.11171
#
# Static dielectric constant tensor:
#      x y z
#    x 1.787570 0.000000 0.000000 
#    y 0.000000 1.787570 0.000000 
#    z 0.000000 0.000000 1.788510 
# 
# From -- ./inp_files/6839.got.cif
#   From: 2010.05.17/outbox.cif.g08.bks.cpg/sg142_4_cif.got.tgz:6839.got - 2010.05.20 13:39:18.
