data_PCOD9573898
_publ_section_title
;
Structure prediction by ZEFSAII (Michael W. Deem and Ramdas Pophale) SiO2 
 PCOD9573898
Probable space group: I 41/A C D
;
_chemical_formula_sum "Si O2"
_cell_formula_units_Z 88
_cell_length_a 17.266393
_cell_length_b 17.266393
_cell_length_c 13.315111
_cell_angle_alpha 90.000000
_cell_angle_beta 90.000000
_cell_angle_gamma 90.000000
_cell_volume 3969.611769
_symmetry_space_group_name_H-M "I 41/A C D"
_symmetry_group_IT_number 142
_space_group.IT_coordinate_system_code '2'
_symmetry_cell_setting 'tetragonal'
loop_
_space_group_symop_operation_xyz
x,y,z
1/4-y,3/4+x,1/4+z
-x,1/2-y,z
1/4+y,1/4-x,3/4+z
x,-y,1/2-z
1/2-x,y,-z
3/4+y,1/4+x,1/4-z
1/4-y,1/4-x,1/4-z
-x,-y,-z
3/4+y,1/4-x,3/4-z
x,1/2+y,-z
3/4-y,3/4+x,1/4-z
-x,y,1/2+z
1/2+x,-y,z
1/4-y,3/4-x,3/4+z
3/4+y,3/4+x,3/4+z
1/2+x,1/2+y,1/2+z
3/4-y,1/4+x,3/4+z
1/2-x,-y,1/2+z
3/4+y,3/4-x,1/4+z
1/2+x,1/2-y,-z
-x,1/2+y,1/2-z
1/4+y,3/4+x,3/4-z
3/4-y,3/4-x,3/4-z
1/2-x,1/2-y,1/2-z
1/4+y,3/4-x,1/4-z
1/2+x,y,1/2-z
1/4-y,1/4+x,3/4-z
1/2-x,1/2+y,z
x,1/2-y,1/2+z
3/4-y,1/4-x,1/4+z
1/4+y,1/4+x,1/4+z
loop_
_atom_site_type_symbol
_atom_site_label
_atom_site_fract_x
_atom_site_fract_y
_atom_site_fract_z
Si Si1 0.615358 0.615491 0.914931
Si Si2 0.937995 0.476875 0.585838
Si Si3 0.500000 0.250000 0.625000
Si Si4 0.955966 0.000000 0.750000
O O1 0.590234 0.554993 0.826717
O O2 0.549151 0.681306 0.927118
O O3 0.621219 0.574488 0.022778
O O4 0.695618 0.650156 0.878099
O O5 0.989986 0.446661 0.678093
O O6 0.000000 0.500000 0.500000
#
# Coordination Sequence:
#
# PCOD9573898 Si02
#       4
#    32  32   8  16
#     4  11  23  44  70 102 139 183 225 290 344 420
#     4  10  22  42  67 100 139 173 233 283 336 417
#     4  12  20  44  74 104 132 174 236 284 354 404
#     4  10  22  42  70  98 140 180 228 290 346 404
#
# _framework density 22.168413000000001
#
# number of rings (size 3 to 8) (size 9 to 14) (size 15 to 20)
#    0.000    1.455    7.273    0.000    0.000    7.273 
#    0.000    7.273    0.000    0.000    0.000    0.000 
#    0.000    0.000    0.000    0.000    0.000    0.000 
#
# Total GULP energy -245496.370823 kJ/mol
# GULP energy per Si atom -5579.462973 kJ/mol
# Density = 2.211796 g / cm^3
# Si number density = 22.168413 Si / 1000 Ang^3
#
#
#
# Elastic Constant Matrix: (Units=GPa)
#
#
# Indices 1 2 3 4 5 6 
#
# 1 90.8517 22.0020 39.5964 0.0000 0.0000 0.0000
# 2 22.0020 90.8517 39.5964 0.0000 0.0000 0.0000
# 3 39.5964 39.5964 167.5623 0.0000 0.0000 0.0000
# 4 0.0000 0.0000 0.0000 28.2873 0.0000 0.0000
# 5 0.0000 0.0000 0.0000 0.0000 28.2873 0.0000
# 6 0.0000 0.0000 0.0000 0.0000 0.0000 45.0729
#
#
#
# Elastic Compliance Matrix: (Units=1/GPa)
#
#
# Indices 1 2 3 4 5 6 
#
# 1 0.012573 -0.001951 -0.002510 0.000000 0.000000 0.000000
# 2 -0.001951 0.012573 -0.002510 0.000000 0.000000 0.000000
# 3 -0.002510 -0.002510 0.007154 0.000000 0.000000 0.000000
# 4 0.000000 0.000000 0.000000 0.035352 0.000000 0.000000
# 5 0.000000 0.000000 0.000000 0.000000 0.035352 0.000000
# 6 0.000000 0.000000 0.000000 0.000000 0.000000 0.022186
#
#
# Mechanical properties :
#
#
# Convention : Reuss Voigt Hill
#
# Bulk Modulus (GPa) = 54.47056 61.29504 57.88280
# Shear Modulus (GPa) = 34.42275 36.86755 35.64515
#
# Velocity S-wave (km/s) = 3.94481 4.08250 4.01424
# Velocity P-wave (km/s) = 6.73597 7.06627 6.90309
#
# Compressibility (1/GPa) = 0.01835854
#
# Stress axis : x y z
#
# Youngs Moduli (GPa) = 79.53265 79.53265 139.77638
#
# Poissons Ratio (x) = 0.15516 0.35086
# Poissons Ratio (y) = 0.15516 0.35086
# Poissons Ratio (z) = 0.19964 0.19964
#
# Static dielectric constant tensor:
#      x y z
#    x 1.993000 0.000000 0.000000 
#    y 0.000000 1.993000 0.000000 
#    z 0.000000 0.000000 1.809770 
# 
# From -- ./inp_files/3113.got.cif
#   From: 2010.05.17/outbox.cif.g08.bks.cpg/sg142_2_cif.got.tgz:3113.got - 2010.05.20 13:39:18.
