data_PCOD9573511
_publ_section_title
;
Structure prediction by ZEFSAII (Michael W. Deem and Ramdas Pophale) SiO2 
 PCOD9573511
Probable space group: I 41/A C D
;
_chemical_formula_sum "Si O2"
_cell_formula_units_Z 72
_cell_length_a 18.069539
_cell_length_b 18.069539
_cell_length_c 10.618688
_cell_angle_alpha 90.000000
_cell_angle_beta 90.000000
_cell_angle_gamma 90.000000
_cell_volume 3467.089127
_symmetry_space_group_name_H-M "I 41/A C D"
_symmetry_group_IT_number 142
_space_group.IT_coordinate_system_code '2'
_symmetry_cell_setting 'tetragonal'
loop_
_space_group_symop_operation_xyz
x,y,z
1/4-y,3/4+x,1/4+z
-x,1/2-y,z
1/4+y,1/4-x,3/4+z
x,-y,1/2-z
1/2-x,y,-z
3/4+y,1/4+x,1/4-z
1/4-y,1/4-x,1/4-z
-x,-y,-z
3/4+y,1/4-x,3/4-z
x,1/2+y,-z
3/4-y,3/4+x,1/4-z
-x,y,1/2+z
1/2+x,-y,z
1/4-y,3/4-x,3/4+z
3/4+y,3/4+x,3/4+z
1/2+x,1/2+y,1/2+z
3/4-y,1/4+x,3/4+z
1/2-x,-y,1/2+z
3/4+y,3/4-x,1/4+z
1/2+x,1/2-y,-z
-x,1/2+y,1/2-z
1/4+y,3/4+x,3/4-z
3/4-y,3/4-x,3/4-z
1/2-x,1/2-y,1/2-z
1/4+y,3/4-x,1/4-z
1/2+x,y,1/2-z
1/4-y,1/4+x,3/4-z
1/2-x,1/2+y,z
x,1/2-y,1/2+z
3/4-y,1/4-x,1/4+z
1/4+y,1/4+x,1/4+z
loop_
_atom_site_type_symbol
_atom_site_label
_atom_site_fract_x
_atom_site_fract_y
_atom_site_fract_z
Si Si1 0.836634 0.843467 0.499016
Si Si2 0.000000 0.750000 0.125000
Si Si3 0.881783 0.170900 0.494023
O O1 0.750000 0.858462 0.500000
O O2 0.875878 0.874123 0.375000
O O3 0.846943 0.753209 0.502443
O O4 0.873536 0.884097 0.619940
O O5 0.968871 0.811534 0.032155
O O6 0.877723 0.127723 0.625000
#
# Coordination Sequence:
#
# PCOD9573511 Si02
#       3
#    32   8  32
#     4  11  24  42  64  97 136 172 218 273 330 392
#     4   8  14  28  52  86 122 152 196 258 310 364
#     4  10  19  34  62  92 124 165 213 264 319 381
#
# _framework density 20.7667
#
# number of rings (size 3 to 8) (size 9 to 14) (size 15 to 20)
#    0.000    1.778    0.000    8.667    0.000    7.111 
#    0.000    4.444    0.000    0.000    0.000    0.000 
#    0.000    0.000    0.000    0.000    0.000    0.000 
#
# Total GULP energy -200456.888944 kJ/mol
# GULP energy per Si atom -5568.246915 kJ/mol
# Density = 2.071943 g / cm^3
# Si number density = 20.766700 Si / 1000 Ang^3
#
#
#
# Elastic Constant Matrix: (Units=GPa)
#
#
# Indices 1 2 3 4 5 6 
#
# 1 97.2775 25.4603 53.9826 0.0000 0.0000 0.0000
# 2 25.4603 97.2803 53.9838 0.0000 0.0000 0.0000
# 3 53.9826 53.9838 199.1233 0.0000 0.0000 0.0000
# 4 0.0000 0.0000 0.0000 16.5209 0.0000 0.0000
# 5 0.0000 0.0000 0.0000 0.0000 16.5198 0.0000
# 6 0.0000 0.0000 0.0000 0.0000 0.0000 6.3464
#
#
#
# Elastic Compliance Matrix: (Units=1/GPa)
#
#
# Indices 1 2 3 4 5 6 
#
# 1 0.012312 -0.001613 -0.002900 0.000000 0.000000 0.000000
# 2 -0.001613 0.012311 -0.002900 0.000000 0.000000 0.000000
# 3 -0.002900 -0.002900 0.006595 0.000000 0.000000 0.000000
# 4 0.000000 0.000000 0.000000 0.060529 0.000000 0.000000
# 5 0.000000 0.000000 0.000000 0.000000 0.060533 0.000000
# 6 0.000000 0.000000 0.000000 0.000000 0.000000 0.157569
#
#
# Mechanical properties :
#
#
# Convention : Reuss Voigt Hill
#
# Bulk Modulus (GPa) = 61.01190 73.39271 67.20231
# Shear Modulus (GPa) = 15.14509 25.22771 20.18640
#
# Velocity S-wave (km/s) = 2.70348 3.48920 3.12116
# Velocity P-wave (km/s) = 6.26007 7.18686 6.73942
#
# Compressibility (1/GPa) = 0.01639024
#
# Stress axis : x y z
#
# Youngs Moduli (GPa) = 81.22479 81.22694 151.63751
#
# Poissons Ratio (x) = 0.13099 0.43982
# Poissons Ratio (y) = 0.13099 0.43982
# Poissons Ratio (z) = 0.23559 0.23560
#
# Static dielectric constant tensor:
#      x y z
#    x 1.779020 0.000000 0.000000 
#    y 0.000000 1.779020 0.000000 
#    z 0.000000 0.000000 1.839390 
# 
# From -- ./inp_files/1376.got.cif
#   From: 2010.05.17/outbox.cif.g08.bks.cpg/sg142_1_cif.got.tgz:1376.got - 2010.05.20 13:39:18.
