data_PCOD9573314
_publ_section_title
;
Structure prediction by ZEFSAII (Michael W. Deem and Ramdas Pophale) SiO2 
 PCOD9573314
Probable space group: I 41/A M D
;
_chemical_formula_sum "Si O2"
_cell_formula_units_Z 160
_cell_length_a 19.726988
_cell_length_b 19.726988
_cell_length_c 19.782327
_cell_angle_alpha 90.000000
_cell_angle_beta 90.000000
_cell_angle_gamma 90.000000
_cell_volume 7698.372780
_symmetry_space_group_name_H-M "I 41/A M D"
_symmetry_group_IT_number 141
_space_group.IT_coordinate_system_code '2'
_symmetry_cell_setting 'tetragonal'
loop_
_space_group_symop_operation_xyz
x,y,z
1/4-y,3/4+x,1/4+z
-x,1/2-y,z
1/4+y,1/4-x,3/4+z
x,-y,-z
-x,1/2+y,-z
1/4+y,3/4+x,1/4-z
1/4-y,1/4-x,3/4-z
-x,-y,-z
3/4+y,1/4-x,3/4-z
x,1/2+y,-z
3/4-y,3/4+x,1/4-z
-x,y,z
x,1/2-y,z
3/4-y,1/4-x,3/4+z
3/4+y,3/4+x,1/4+z
1/2+x,1/2+y,1/2+z
3/4-y,1/4+x,3/4+z
1/2-x,-y,1/2+z
3/4+y,3/4-x,1/4+z
1/2+x,1/2-y,1/2-z
1/2-x,y,1/2-z
3/4+y,1/4+x,3/4-z
3/4-y,3/4-x,1/4-z
1/2-x,1/2-y,1/2-z
1/4+y,3/4-x,1/4-z
1/2+x,y,1/2-z
1/4-y,1/4+x,3/4-z
1/2-x,1/2+y,1/2+z
1/2+x,-y,1/2+z
1/4-y,3/4-x,1/4+z
1/4+y,1/4+x,3/4+z
loop_
_atom_site_type_symbol
_atom_site_label
_atom_site_fract_x
_atom_site_fract_y
_atom_site_fract_z
Si Si1 0.077390 0.332037 0.801554
Si Si2 0.771397 0.250000 0.355968
Si Si3 0.723243 0.108410 0.069513
Si Si4 0.188044 0.378191 0.699920
Si Si5 0.135016 0.750000 0.769555
Si Si6 0.420771 0.101717 0.302794
O O1 0.078082 0.250000 0.802215
O O2 0.104299 0.354299 0.875000
O O3 0.121404 0.359181 0.741659
O O4 0.000000 0.354332 0.794727
O O5 0.764827 0.183226 0.400970
O O6 0.840144 0.250000 0.309489
O O7 0.706089 0.250000 0.308372
O O8 0.677118 0.072883 0.125000
O O9 0.791473 0.065523 0.061576
O O10 0.686257 0.120346 0.998528
O O11 0.250000 0.359202 0.750000
O O12 0.179063 0.342646 0.627323
O O13 0.095948 0.818273 0.792321
O O14 0.500000 0.091394 0.286098
#
# Coordination Sequence:
#
# PCOD9573314 Si02
#       6
#    32  16  32  32  16  32
#     4   9  21  44  72  99 133 180 230 283 347 418
#     4  11  22  46  74 100 141 186 227 277 359 430
#     4  12  27  46  71 102 140 186 233 282 352 431
#     4  12  30  45  69 102 143 185 236 302 354 417
#     4  11  23  44  74 110 139 177 229 297 347 427
#     4  12  27  45  72 104 141 185 233 292 359 422
#
# _framework density 20.783614
#
# number of rings (size 3 to 8) (size 9 to 14) (size 15 to 20)
#    0.000    0.800    5.000    1.500    8.400    1.600 
#    0.000    0.000    0.000    0.000    0.000    0.000 
#    0.000    0.000    0.000    0.000    0.000    0.000 
#
# Total GULP energy -447104.494220 kJ/mol
# GULP energy per Si atom -5588.806178 kJ/mol
# Density = 2.073631 g / cm^3
# Si number density = 20.783614 Si / 1000 Ang^3
#
#
#
# Elastic Constant Matrix: (Units=GPa)
#
#
# Indices 1 2 3 4 5 6 
#
# 1 40.5234 -6.6549 6.6347 0.0000 0.0000 0.0000
# 2 -6.6549 40.5254 6.6327 0.0000 0.0000 0.0000
# 3 6.6347 6.6327 111.9710 0.0000 0.0000 0.0000
# 4 0.0000 0.0000 0.0000 33.2791 0.0000 0.0000
# 5 0.0000 0.0000 0.0000 0.0000 33.2816 0.0000
# 6 0.0000 0.0000 0.0000 0.0000 0.0000 24.5174
#
#
#
# Elastic Compliance Matrix: (Units=1/GPa)
#
#
# Indices 1 2 3 4 5 6 
#
# 1 0.025712 0.004515 -0.001791 0.000000 0.000000 0.000000
# 2 0.004515 0.025710 -0.001791 0.000000 0.000000 0.000000
# 3 -0.001791 -0.001791 0.009143 0.000000 0.000000 0.000000
# 4 0.000000 0.000000 0.000000 0.030049 0.000000 0.000000
# 5 0.000000 0.000000 0.000000 0.000000 0.030047 0.000000
# 6 0.000000 0.000000 0.000000 0.000000 0.000000 0.040787
#
#
# Mechanical properties :
#
#
# Convention : Reuss Voigt Hill
#
# Bulk Modulus (GPa) = 16.01713 22.91608 19.46661
# Shear Modulus (GPa) = 27.71749 30.64278 29.18013
#
# Velocity S-wave (km/s) = 3.65584 3.84392 3.75106
# Velocity P-wave (km/s) = 5.05407 5.54535 5.30540
#
# Compressibility (1/GPa) = 0.06243315
#
# Stress axis : x y z
#
# Youngs Moduli (GPa) = 38.89258 38.89472 109.37249
#
# Poissons Ratio (x) = -0.17563 0.19588
# Poissons Ratio (y) = -0.17562 0.19583
# Poissons Ratio (z) = 0.06966 0.06964
#
# Static dielectric constant tensor:
#      x y z
#    x 1.608240 0.000000 0.000000 
#    y 0.000000 1.608220 0.000000 
#    z 0.000000 0.000000 1.756060 
# 
# From -- ./inp_files/8674.got.cif
#   From: 2010.05.17/outbox.cif.g08.bks.cpg/sg141_5_cif.got.tgz:8674.got - 2010.05.20 13:30:51.
