data_PCOD9573909
_publ_section_title
;
Structure prediction by ZEFSAII (Michael W. Deem and Ramdas Pophale) SiO2 
 PCOD9573909
Probable space group: I 41/A C D
;
_chemical_formula_sum "Si O2"
_cell_formula_units_Z 176
_cell_length_a 27.804376
_cell_length_b 27.804376
_cell_length_c 9.910856
_cell_angle_alpha 90.000000
_cell_angle_beta 90.000000
_cell_angle_gamma 90.000000
_cell_volume 7661.917508
_symmetry_space_group_name_H-M "I 41/A C D"
_symmetry_group_IT_number 142
_space_group.IT_coordinate_system_code '2'
_symmetry_cell_setting 'tetragonal'
loop_
_space_group_symop_operation_xyz
x,y,z
1/4-y,3/4+x,1/4+z
-x,1/2-y,z
1/4+y,1/4-x,3/4+z
x,-y,1/2-z
1/2-x,y,-z
3/4+y,1/4+x,1/4-z
1/4-y,1/4-x,1/4-z
-x,-y,-z
3/4+y,1/4-x,3/4-z
x,1/2+y,-z
3/4-y,3/4+x,1/4-z
-x,y,1/2+z
1/2+x,-y,z
1/4-y,3/4-x,3/4+z
3/4+y,3/4+x,3/4+z
1/2+x,1/2+y,1/2+z
3/4-y,1/4+x,3/4+z
1/2-x,-y,1/2+z
3/4+y,3/4-x,1/4+z
1/2+x,1/2-y,-z
-x,1/2+y,1/2-z
1/4+y,3/4+x,3/4-z
3/4-y,3/4-x,3/4-z
1/2-x,1/2-y,1/2-z
1/4+y,3/4-x,1/4-z
1/2+x,y,1/2-z
1/4-y,1/4+x,3/4-z
1/2-x,1/2+y,z
x,1/2-y,1/2+z
3/4-y,1/4-x,1/4+z
1/4+y,1/4+x,1/4+z
loop_
_atom_site_type_symbol
_atom_site_label
_atom_site_fract_x
_atom_site_fract_y
_atom_site_fract_z
Si Si1 0.440871 0.044398 0.646690
Si Si2 0.924288 0.751830 0.828060
Si Si3 0.180768 0.569233 0.375000
Si Si4 0.982272 0.619509 0.675613
Si Si5 0.372466 0.110569 0.113085
Si Si6 0.110835 0.507340 0.094161
O O1 0.492879 0.069587 0.635096
O O2 0.402817 0.087353 0.686583
O O3 0.422129 0.024014 0.504060
O O4 0.440755 0.000000 0.750000
O O5 0.961496 0.711496 0.875000
O O6 0.910747 0.746632 0.672672
O O7 0.948237 0.801764 0.875000
O O8 0.877530 0.744371 0.918809
O O9 0.160790 0.598047 0.502715
O O10 0.164650 0.515217 0.400856
O O11 0.925864 0.626179 0.652298
O O12 0.383336 0.060871 0.034760
O O13 0.093212 0.500000 0.250000
#
# Coordination Sequence:
#
# PCOD9573909 Si02
#       6
#    32  32  16  32  32  32
#     4  11  26  45  65 105 144 179 230 289 354 415
#     4  11  24  44  68 100 135 178 235 291 343 404
#     4   8  18  38  66  98 123 170 234 284 332 404
#     4  12  27  42  72  98 138 183 232 281 348 417
#     4  10  22  42  70  94 138 185 227 282 350 411
#     4   9  20  40  70  97 132 180 233 283 341 420
#
# _framework density 22.970752000000001
#
# number of rings (size 3 to 8) (size 9 to 14) (size 15 to 20)
#    0.000    1.636    0.000    3.273   11.455    5.091 
#    0.000    4.545    0.000    0.000    0.000    0.000 
#    0.000    0.000    0.000    0.000    0.000    0.000 
#
# Total GULP energy -491290.505719 kJ/mol
# GULP energy per Si atom -5582.846656 kJ/mol
# Density = 2.291847 g / cm^3
# Si number density = 22.970752 Si / 1000 Ang^3
#
#
#
# Elastic Constant Matrix: (Units=GPa)
#
#
# Indices 1 2 3 4 5 6 
#
# 1 95.0799 24.6530 12.8295 0.0000 0.0000 0.0000
# 2 24.6530 95.0773 12.8280 0.0000 0.0000 0.0000
# 3 12.8295 12.8280 63.3927 0.0000 0.0000 0.0000
# 4 0.0000 0.0000 0.0000 120.3085 0.0000 0.0000
# 5 0.0000 0.0000 0.0000 0.0000 120.0999 0.0000
# 6 0.0000 0.0000 0.0000 0.0000 0.0000 37.1827
#
#
#
# Elastic Compliance Matrix: (Units=1/GPa)
#
#
# Indices 1 2 3 4 5 6 
#
# 1 0.011465 -0.002734 -0.001767 0.000000 0.000000 0.000000
# 2 -0.002734 0.011465 -0.001767 0.000000 0.000000 0.000000
# 3 -0.001767 -0.001767 0.016490 0.000000 0.000000 0.000000
# 4 0.000000 0.000000 0.000000 0.008312 0.000000 0.000000
# 5 0.000000 0.000000 0.000000 0.000000 0.008326 0.000000
# 6 0.000000 0.000000 0.000000 0.000000 0.000000 0.026894
#
#
# Mechanical properties :
#
#
# Convention : Reuss Voigt Hill
#
# Bulk Modulus (GPa) = 37.19714 39.35231 38.27473
# Shear Modulus (GPa) = 47.86996 69.06751 58.46874
#
# Velocity S-wave (km/s) = 4.56999 5.48934 5.05063
# Velocity P-wave (km/s) = 6.63888 7.57270 7.12112
#
# Compressibility (1/GPa) = 0.02688379
#
# Stress axis : x y z
#
# Youngs Moduli (GPa) = 87.22288 87.22097 60.64363
#
# Poissons Ratio (x) = 0.23849 0.10715
# Poissons Ratio (y) = 0.23850 0.10714
# Poissons Ratio (z) = 0.15412 0.15409
#
# Static dielectric constant tensor:
#      x y z
#    x 1.932640 0.000000 0.000000 
#    y 0.000000 1.932640 0.000000 
#    z 0.000000 0.000000 1.841660 
# 
# From -- ./inp_files/3960.got.cif
#   From: 2010.05.17/outbox.cif.g08.bks.cpg/sg142_2_cif.got.tgz:3960.got - 2010.05.20 13:39:18.
