data_PCOD9573459
_publ_section_title
;
Structure prediction by ZEFSAII (Michael W. Deem and Ramdas Pophale) SiO2 
 PCOD9573459
Probable space group: I 41/A C D
;
_chemical_formula_sum "Si O2"
_cell_formula_units_Z 112
_cell_length_a 30.877657
_cell_length_b 30.877657
_cell_length_c 5.807939
_cell_angle_alpha 90.000000
_cell_angle_beta 90.000000
_cell_angle_gamma 90.000000
_cell_volume 5537.461549
_symmetry_space_group_name_H-M "I 41/A C D"
_symmetry_group_IT_number 142
_space_group.IT_coordinate_system_code '2'
_symmetry_cell_setting 'tetragonal'
loop_
_space_group_symop_operation_xyz
x,y,z
1/4-y,3/4+x,1/4+z
-x,1/2-y,z
1/4+y,1/4-x,3/4+z
x,-y,1/2-z
1/2-x,y,-z
3/4+y,1/4+x,1/4-z
1/4-y,1/4-x,1/4-z
-x,-y,-z
3/4+y,1/4-x,3/4-z
x,1/2+y,-z
3/4-y,3/4+x,1/4-z
-x,y,1/2+z
1/2+x,-y,z
1/4-y,3/4-x,3/4+z
3/4+y,3/4+x,3/4+z
1/2+x,1/2+y,1/2+z
3/4-y,1/4+x,3/4+z
1/2-x,-y,1/2+z
3/4+y,3/4-x,1/4+z
1/2+x,1/2-y,-z
-x,1/2+y,1/2-z
1/4+y,3/4+x,3/4-z
3/4-y,3/4-x,3/4-z
1/2-x,1/2-y,1/2-z
1/4+y,3/4-x,1/4-z
1/2+x,y,1/2-z
1/4-y,1/4+x,3/4-z
1/2-x,1/2+y,z
x,1/2-y,1/2+z
3/4-y,1/4-x,1/4+z
1/4+y,1/4+x,1/4+z
loop_
_atom_site_type_symbol
_atom_site_label
_atom_site_fract_x
_atom_site_fract_y
_atom_site_fract_z
Si Si1 0.376620 0.733981 0.348615
Si Si2 0.599194 0.000000 0.750000
Si Si3 0.038883 0.541446 0.633859
Si Si4 0.166164 0.147352 0.252485
O O1 0.396092 0.753540 0.591407
O O2 0.329488 0.756579 0.321453
O O3 0.366418 0.682451 0.374854
O O4 0.621636 0.042790 0.643187
O O5 0.568373 0.977117 0.565918
O O6 0.016722 0.500000 0.750000
O O7 0.072699 0.561843 0.810921
O O8 0.138629 0.111372 0.125000
#
# Coordination Sequence:
#
# PCOD9573459 Si02
#       4
#    32  16  32  32
#     4  10  19  33  50  78 109 148 184 211 275 351
#     4  10  18  34  50  74 112 148 180 228 282 354
#     4   9  19  31  52  77 108 144 180 218 281 358
#     4  10  21  33  49  77 114 147 185 231 283 341
#
# _framework density 20.225874000000001
#
# number of rings (size 3 to 8) (size 9 to 14) (size 15 to 20)
#    0.000    2.286    2.857    0.000    2.000    4.571 
#    0.000    0.000    0.000    0.000    0.000    0.000 
#  154.286   54.857    0.000    0.000    0.000    0.000 
#
# Total GULP energy -311783.620174 kJ/mol
# GULP energy per Si atom -5567.564646 kJ/mol
# Density = 2.017984 g / cm^3
# Si number density = 20.225874 Si / 1000 Ang^3
#
#
#
# Elastic Constant Matrix: (Units=GPa)
#
#
# Indices 1 2 3 4 5 6 
#
# 1 50.8272 30.4690 10.5085 0.0000 0.0000 0.0000
# 2 30.4690 50.8273 10.5053 0.0000 0.0000 0.0000
# 3 10.5085 10.5053 94.9378 0.0000 0.0000 0.0000
# 4 0.0000 0.0000 0.0000 26.4804 0.0000 0.0000
# 5 0.0000 0.0000 0.0000 0.0000 26.4821 0.0000
# 6 0.0000 0.0000 0.0000 0.0000 0.0000 36.1473
#
#
#
# Elastic Compliance Matrix: (Units=1/GPa)
#
#
# Indices 1 2 3 4 5 6 
#
# 1 0.030892 -0.018229 -0.001402 0.000000 0.000000 0.000000
# 2 -0.018229 0.030891 -0.001401 0.000000 0.000000 0.000000
# 3 -0.001402 -0.001401 0.010843 0.000000 0.000000 0.000000
# 4 0.000000 0.000000 0.000000 0.037764 0.000000 0.000000
# 5 0.000000 0.000000 0.000000 0.000000 0.037761 0.000000
# 6 0.000000 0.000000 0.000000 0.000000 0.000000 0.027665
#
#
# Mechanical properties :
#
#
# Convention : Reuss Voigt Hill
#
# Bulk Modulus (GPa) = 32.71866 33.28419 33.00142
# Shear Modulus (GPa) = 21.92341 27.49594 24.70967
#
# Velocity S-wave (km/s) = 3.29588 3.69106 3.49905
# Velocity P-wave (km/s) = 5.54035 5.88704 5.71633
#
# Compressibility (1/GPa) = 0.03056360
#
# Stress axis : x y z
#
# Youngs Moduli (GPa) = 32.37111 32.37165 92.22198
#
# Poissons Ratio (x) = 0.59009 0.12932
# Poissons Ratio (y) = 0.59008 0.12916
# Poissons Ratio (z) = 0.04539 0.04534
#
# Static dielectric constant tensor:
#      x y z
#    x 1.715690 0.000000 0.000000 
#    y 0.000000 1.715690 0.000000 
#    z 0.000000 0.000000 1.938290 
# 
# From -- ./inp_files/724.got.cif
#   From: 2010.05.17/outbox.cif.g08.bks.cpg/sg142_1_cif.got.tgz:724.got - 2010.05.20 13:39:18.
