data_PCOD9573726
_publ_section_title
;
Structure prediction by ZEFSAII (Michael W. Deem and Ramdas Pophale) SiO2 
 PCOD9573726
Probable space group: I 41/A C D
;
_chemical_formula_sum "Si O2"
_cell_formula_units_Z 120
_cell_length_a 20.082363
_cell_length_b 20.082363
_cell_length_c 13.110118
_cell_angle_alpha 90.000000
_cell_angle_beta 90.000000
_cell_angle_gamma 90.000000
_cell_volume 5287.327681
_symmetry_space_group_name_H-M "I 41/A C D"
_symmetry_group_IT_number 142
_space_group.IT_coordinate_system_code '2'
_symmetry_cell_setting 'tetragonal'
loop_
_space_group_symop_operation_xyz
x,y,z
1/4-y,3/4+x,1/4+z
-x,1/2-y,z
1/4+y,1/4-x,3/4+z
x,-y,1/2-z
1/2-x,y,-z
3/4+y,1/4+x,1/4-z
1/4-y,1/4-x,1/4-z
-x,-y,-z
3/4+y,1/4-x,3/4-z
x,1/2+y,-z
3/4-y,3/4+x,1/4-z
-x,y,1/2+z
1/2+x,-y,z
1/4-y,3/4-x,3/4+z
3/4+y,3/4+x,3/4+z
1/2+x,1/2+y,1/2+z
3/4-y,1/4+x,3/4+z
1/2-x,-y,1/2+z
3/4+y,3/4-x,1/4+z
1/2+x,1/2-y,-z
-x,1/2+y,1/2-z
1/4+y,3/4+x,3/4-z
3/4-y,3/4-x,3/4-z
1/2-x,1/2-y,1/2-z
1/4+y,3/4-x,1/4-z
1/2+x,y,1/2-z
1/4-y,1/4+x,3/4-z
1/2-x,1/2+y,z
x,1/2-y,1/2+z
3/4-y,1/4-x,1/4+z
1/4+y,1/4+x,1/4+z
loop_
_atom_site_type_symbol
_atom_site_label
_atom_site_fract_x
_atom_site_fract_y
_atom_site_fract_z
Si Si1 0.706543 0.186758 0.788843
Si Si2 0.519961 0.000000 0.750000
Si Si3 0.564191 0.381248 0.648507
Si Si4 0.808981 0.079286 0.737760
Si Si5 0.500000 0.750000 0.875000
O O1 0.750000 0.250000 0.750000
O O2 0.712909 0.189400 0.910548
O O3 0.638867 0.191850 0.724199
O O4 0.741175 0.119346 0.749736
O O5 0.473587 0.943641 0.800830
O O6 0.640074 0.388261 0.682857
O O7 0.531594 0.312725 0.683206
O O8 0.838703 0.088703 0.625000
O O9 0.801288 0.000000 0.750000
#
# Coordination Sequence:
#
# PCOD9573726 Si02
#       5
#    32  16  32  32   8
#     4  10  21  41  68  99 142 189 241 301 371 451
#     4  10  20  42  70 104 142 202 238 310 378 440
#     4  11  22  45  68 103 144 192 253 312 382 455
#     4  12  22  44  73 105 142 191 247 307 381 456
#     4  12  28  44  74 108 144 198 264 312 378 476
#
# _framework density 22.695777
#
# number of rings (size 3 to 8) (size 9 to 14) (size 15 to 20)
#    0.000    1.067    4.000    4.800    0.000    0.000 
#    2.400   10.000    0.000    0.000    0.000    0.000 
#    0.000    0.000    0.000    0.000    0.000    0.000 
#
# Total GULP energy -335248.300687 kJ/mol
# GULP energy per Si atom -5587.471678 kJ/mol
# Density = 2.264412 g / cm^3
# Si number density = 22.695777 Si / 1000 Ang^3
#
#
#
# Elastic Constant Matrix: (Units=GPa)
#
#
# Indices 1 2 3 4 5 6 
#
# 1 106.3715 27.1132 5.0031 0.0000 0.0000 0.0000
# 2 27.1132 106.3715 5.0031 0.0000 0.0000 0.0000
# 3 5.0031 5.0031 124.0428 0.0000 0.0000 0.0000
# 4 0.0000 0.0000 0.0000 17.2354 0.0000 0.0000
# 5 0.0000 0.0000 0.0000 0.0000 17.2354 0.0000
# 6 0.0000 0.0000 0.0000 0.0000 0.0000 34.3926
#
#
#
# Elastic Compliance Matrix: (Units=1/GPa)
#
#
# Indices 1 2 3 4 5 6 
#
# 1 0.010066 -0.002551 -0.000303 0.000000 0.000000 0.000000
# 2 -0.002551 0.010066 -0.000303 0.000000 0.000000 0.000000
# 3 -0.000303 -0.000303 0.008086 0.000000 0.000000 0.000000
# 4 0.000000 0.000000 0.000000 0.058020 0.000000 0.000000
# 5 0.000000 0.000000 0.000000 0.000000 0.058020 0.000000
# 6 0.000000 0.000000 0.000000 0.000000 0.000000 0.029076
#
#
# Mechanical properties :
#
#
# Convention : Reuss Voigt Hill
#
# Bulk Modulus (GPa) = 45.65731 45.66942 45.66336
# Shear Modulus (GPa) = 26.74515 33.75041 30.24778
#
# Velocity S-wave (km/s) = 3.43654 3.86045 3.65464
# Velocity P-wave (km/s) = 5.99226 6.32747 6.16214
#
# Compressibility (1/GPa) = 0.02190230
#
# Stress axis : x y z
#
# Youngs Moduli (GPa) = 99.34830 99.34830 123.66773
#
# Poissons Ratio (x) = 0.25348 0.03748
# Poissons Ratio (y) = 0.25348 0.03748
# Poissons Ratio (z) = 0.03011 0.03011
#
# Static dielectric constant tensor:
#      x y z
#    x 2.022980 0.000000 0.000000 
#    y 0.000000 2.022980 0.000000 
#    z 0.000000 0.000000 1.954760 
# 
# From -- ./inp_files/5023.got.cif
#   From: 2010.05.17/outbox.cif.g08.bks.cpg/sg142_3_cif.got.tgz:5023.got - 2010.05.20 13:39:18.
