data_PCOD9573238
_publ_section_title
;
Structure prediction by ZEFSAII (Michael W. Deem and Ramdas Pophale) SiO2 
 PCOD9573238
Probable space group: I 41/A M D
;
_chemical_formula_sum "Si O2"
_cell_formula_units_Z 132
_cell_length_a 21.838363
_cell_length_b 21.838363
_cell_length_c 13.769039
_cell_angle_alpha 90.000000
_cell_angle_beta 90.000000
_cell_angle_gamma 90.000000
_cell_volume 6566.648822
_symmetry_space_group_name_H-M "I 41/A M D"
_symmetry_group_IT_number 141
_space_group.IT_coordinate_system_code '2'
_symmetry_cell_setting 'tetragonal'
loop_
_space_group_symop_operation_xyz
x,y,z
1/4-y,3/4+x,1/4+z
-x,1/2-y,z
1/4+y,1/4-x,3/4+z
x,-y,-z
-x,1/2+y,-z
1/4+y,3/4+x,1/4-z
1/4-y,1/4-x,3/4-z
-x,-y,-z
3/4+y,1/4-x,3/4-z
x,1/2+y,-z
3/4-y,3/4+x,1/4-z
-x,y,z
x,1/2-y,z
3/4-y,1/4-x,3/4+z
3/4+y,3/4+x,1/4+z
1/2+x,1/2+y,1/2+z
3/4-y,1/4+x,3/4+z
1/2-x,-y,1/2+z
3/4+y,3/4-x,1/4+z
1/2+x,1/2-y,1/2-z
1/2-x,y,1/2-z
3/4+y,1/4+x,3/4-z
3/4-y,3/4-x,1/4-z
1/2-x,1/2-y,1/2-z
1/4+y,3/4-x,1/4-z
1/2+x,y,1/2-z
1/4-y,1/4+x,3/4-z
1/2-x,1/2+y,1/2+z
1/2+x,-y,1/2+z
1/4-y,3/4-x,1/4+z
1/4+y,1/4+x,3/4+z
loop_
_atom_site_type_symbol
_atom_site_label
_atom_site_fract_x
_atom_site_fract_y
_atom_site_fract_z
Si Si1 0.717552 0.866982 0.354113
Si Si2 0.935534 0.433136 0.456130
Si Si3 0.500000 0.250000 0.625000
Si Si4 0.094187 0.586406 0.766301
Si Si5 0.075216 0.750000 0.373785
Si Si6 0.500000 0.878706 0.405346
O O1 0.750000 0.871165 0.250000
O O2 0.677431 0.927431 0.375000
O O3 0.773234 0.853890 0.427578
O O4 0.670950 0.809483 0.355777
O O5 0.938761 0.500000 0.500000
O O6 0.932776 0.429113 0.339559
O O7 0.873195 0.405705 0.495878
O O8 0.000000 0.400838 0.484865
O O9 0.429835 0.250000 0.583355
O O10 0.055492 0.637524 0.825006
O O11 0.096428 0.750000 0.261287
O O12 0.000000 0.750000 0.383569
#
# Coordination Sequence:
#
# PCOD9573238 Si02
#       6
#    32  32   4  32  16  16
#     4  12  27  45  70 100 143 188 235 287 357 429
#     4  10  23  44  67  96 136 181 236 292 348 411
#     4  12  24  48  72 104 140 170 244 300 356 428
#     4  11  24  43  67 103 138 185 234 289 352 425
#     4  12  23  41  73 103 139 179 225 296 368 420
#     4  12  24  46  71 104 137 181 236 297 354 436
#
# _framework density 20.101578
#
# number of rings (size 3 to 8) (size 9 to 14) (size 15 to 20)
#    0.000    0.727    5.455    1.818    3.394    0.970 
#    0.000    0.000    0.000    0.000    0.000    0.000 
#    0.000    0.000    0.000    0.000    0.000    0.000 
#
# Total GULP energy -367907.938991 kJ/mol
# GULP energy per Si atom -5574.362712 kJ/mol
# Density = 2.005583 g / cm^3
# Si number density = 20.101578 Si / 1000 Ang^3
#
#
#
# Elastic Constant Matrix: (Units=GPa)
#
#
# Indices 1 2 3 4 5 6 
#
# 1 176.9094 86.8344 57.8048 0.0000 0.0000 0.0000
# 2 86.8344 176.9094 57.8048 0.0000 0.0000 0.0000
# 3 57.8048 57.8048 72.2110 0.0000 0.0000 0.0000
# 4 0.0000 0.0000 0.0000 29.0929 0.0000 0.0000
# 5 0.0000 0.0000 0.0000 0.0000 29.0929 0.0000
# 6 0.0000 0.0000 0.0000 0.0000 0.0000 85.3869
#
#
#
# Elastic Compliance Matrix: (Units=1/GPa)
#
#
# Indices 1 2 3 4 5 6 
#
# 1 0.008472 -0.002630 -0.004676 0.000000 0.000000 0.000000
# 2 -0.002630 0.008472 -0.004676 0.000000 0.000000 0.000000
# 3 -0.004676 -0.004676 0.021334 0.000000 0.000000 0.000000
# 4 0.000000 0.000000 0.000000 0.034373 0.000000 0.000000
# 5 0.000000 0.000000 0.000000 0.000000 0.034373 0.000000
# 6 0.000000 0.000000 0.000000 0.000000 0.000000 0.011711
#
#
# Mechanical properties :
#
#
# Convention : Reuss Voigt Hill
#
# Bulk Modulus (GPa) = 69.86520 92.32421 81.09471
# Shear Modulus (GPa) = 33.90534 43.62025 38.76279
#
# Velocity S-wave (km/s) = 4.11140 4.66337 4.39606
# Velocity P-wave (km/s) = 7.57428 8.66167 8.13616
#
# Compressibility (1/GPa) = 0.01431328
#
# Stress axis : x y z
#
# Youngs Moduli (GPa) = 118.04256 118.04256 46.87274
#
# Poissons Ratio (x) = 0.31049 0.21917
# Poissons Ratio (y) = 0.31049 0.21917
# Poissons Ratio (z) = 0.55195 0.55195
#
# Static dielectric constant tensor:
#      x y z
#    x 1.707640 0.000000 0.000000 
#    y 0.000000 1.707640 0.000000 
#    z 0.000000 0.000000 1.768170 
# 
# From -- ./inp_files/6310.got.cif
#   From: 2010.05.17/outbox.cif.g08.bks.cpg/sg141_4_cif.got.tgz:6310.got - 2010.05.20 13:30:51.
