data_PCOD9573595
_publ_section_title
;
Structure prediction by ZEFSAII (Michael W. Deem and Ramdas Pophale) SiO2 
 PCOD9573595
Probable space group: I 41/A C D
;
_chemical_formula_sum "Si O2"
_cell_formula_units_Z 128
_cell_length_a 20.746118
_cell_length_b 20.746118
_cell_length_c 16.889708
_cell_angle_alpha 90.000000
_cell_angle_beta 90.000000
_cell_angle_gamma 90.000000
_cell_volume 7269.354173
_symmetry_space_group_name_H-M "I 41/A C D"
_symmetry_group_IT_number 142
_space_group.IT_coordinate_system_code '2'
_symmetry_cell_setting 'tetragonal'
loop_
_space_group_symop_operation_xyz
x,y,z
1/4-y,3/4+x,1/4+z
-x,1/2-y,z
1/4+y,1/4-x,3/4+z
x,-y,1/2-z
1/2-x,y,-z
3/4+y,1/4+x,1/4-z
1/4-y,1/4-x,1/4-z
-x,-y,-z
3/4+y,1/4-x,3/4-z
x,1/2+y,-z
3/4-y,3/4+x,1/4-z
-x,y,1/2+z
1/2+x,-y,z
1/4-y,3/4-x,3/4+z
3/4+y,3/4+x,3/4+z
1/2+x,1/2+y,1/2+z
3/4-y,1/4+x,3/4+z
1/2-x,-y,1/2+z
3/4+y,3/4-x,1/4+z
1/2+x,1/2-y,-z
-x,1/2+y,1/2-z
1/4+y,3/4+x,3/4-z
3/4-y,3/4-x,3/4-z
1/2-x,1/2-y,1/2-z
1/4+y,3/4-x,1/4-z
1/2+x,y,1/2-z
1/4-y,1/4+x,3/4-z
1/2-x,1/2+y,z
x,1/2-y,1/2+z
3/4-y,1/4-x,1/4+z
1/4+y,1/4+x,1/4+z
loop_
_atom_site_type_symbol
_atom_site_label
_atom_site_fract_x
_atom_site_fract_y
_atom_site_fract_z
Si Si1 0.352297 0.322377 0.441618
Si Si2 0.289441 0.566159 0.216164
Si Si3 0.021385 0.851793 0.150422
Si Si4 0.550252 0.012565 0.069791
O O1 0.402795 0.347206 0.375000
O O2 0.332407 0.386949 0.492169
O O3 0.382827 0.274834 0.505676
O O4 0.452117 0.459047 0.359226
O O5 0.263352 0.500000 0.250000
O O6 0.301045 0.551045 0.125000
O O7 0.245880 0.628989 0.219078
O O8 0.047004 0.676628 0.122358
O O9 0.037393 0.917819 0.105856
O O10 0.500000 0.000000 0.000000
#
# Coordination Sequence:
#
# PCOD9573595 Si02
#       4
#    32  32  32  32
#     4   9  18  35  59  80 104 143 186 227 273 334
#     4   9  17  31  53  77 103 138 177 221 273 331
#     4  11  22  37  55  79 111 148 186 228 280 345
#     4  10  20  35  57  82 108 141 186 235 285 345
#
# _framework density 17.608166000000001
#
# number of rings (size 3 to 8) (size 9 to 14) (size 15 to 20)
#    0.000    2.750    0.000    6.750    0.000    0.000 
#    0.000   13.750    0.000    0.000    0.000    0.000 
#    0.000    0.000    0.000    0.000    0.000    0.000 
#
# Total GULP energy -356489.937566 kJ/mol
# GULP energy per Si atom -5570.155274 kJ/mol
# Density = 1.756809 g / cm^3
# Si number density = 17.608166 Si / 1000 Ang^3
#
#
#
# Elastic Constant Matrix: (Units=GPa)
#
#
# Indices 1 2 3 4 5 6 
#
# 1 107.3959 63.9332 60.3503 0.0000 0.0000 0.0000
# 2 63.9332 107.3967 60.3500 0.0000 0.0000 0.0000
# 3 60.3503 60.3500 76.3573 0.0000 0.0000 0.0000
# 4 0.0000 0.0000 0.0000 23.3417 0.0000 0.0000
# 5 0.0000 0.0000 0.0000 0.0000 23.3419 0.0000
# 6 0.0000 0.0000 0.0000 0.0000 0.0000 26.8276
#
#
#
# Elastic Compliance Matrix: (Units=1/GPa)
#
#
# Indices 1 2 3 4 5 6 
#
# 1 0.018089 -0.004919 -0.010409 0.000000 0.000000 0.000000
# 2 -0.004919 0.018089 -0.010409 0.000000 0.000000 0.000000
# 3 -0.010409 -0.010409 0.029550 0.000000 0.000000 0.000000
# 4 0.000000 0.000000 0.000000 0.042842 0.000000 0.000000
# 5 0.000000 0.000000 0.000000 0.000000 0.042841 0.000000
# 6 0.000000 0.000000 0.000000 0.000000 0.000000 0.037275
#
#
# Mechanical properties :
#
#
# Convention : Reuss Voigt Hill
#
# Bulk Modulus (GPa) = 70.15648 73.37965 71.76806
# Shear Modulus (GPa) = 20.41562 21.80335 21.10948
#
# Velocity S-wave (km/s) = 3.40875 3.52270 3.46619
# Velocity P-wave (km/s) = 7.44462 7.63610 7.54097
#
# Compressibility (1/GPa) = 0.01425385
#
# Stress axis : x y z
#
# Youngs Moduli (GPa) = 55.28213 55.28331 33.84115
#
# Poissons Ratio (x) = 0.27195 0.35225
# Poissons Ratio (y) = 0.27194 0.35224
# Poissons Ratio (z) = 0.57543 0.57542
#
# Static dielectric constant tensor:
#      x y z
#    x 1.685520 0.000000 0.000000 
#    y 0.000000 1.685530 0.000000 
#    z 0.000000 0.000000 1.624310 
# 
# From -- ./inp_files/7118.got.cif
#   From: 2010.05.17/outbox.cif.g08.bks.cpg/sg142_4_cif.got.tgz:7118.got - 2010.05.20 13:39:18.
