data_PCOD9573149
_publ_section_title
;
Structure prediction by ZEFSAII (Michael W. Deem and Ramdas Pophale) SiO2 
 PCOD9573149
Probable space group: I 41/A M D
;
_chemical_formula_sum "Si O2"
_cell_formula_units_Z 148
_cell_length_a 29.675446
_cell_length_b 29.675446
_cell_length_c 9.248947
_cell_angle_alpha 90.000000
_cell_angle_beta 90.000000
_cell_angle_gamma 90.000000
_cell_volume 8144.919576
_symmetry_space_group_name_H-M "I 41/A M D"
_symmetry_group_IT_number 141
_space_group.IT_coordinate_system_code '2'
_symmetry_cell_setting 'tetragonal'
loop_
_space_group_symop_operation_xyz
x,y,z
1/4-y,3/4+x,1/4+z
-x,1/2-y,z
1/4+y,1/4-x,3/4+z
x,-y,-z
-x,1/2+y,-z
1/4+y,3/4+x,1/4-z
1/4-y,1/4-x,3/4-z
-x,-y,-z
3/4+y,1/4-x,3/4-z
x,1/2+y,-z
3/4-y,3/4+x,1/4-z
-x,y,z
x,1/2-y,z
3/4-y,1/4-x,3/4+z
3/4+y,3/4+x,1/4+z
1/2+x,1/2+y,1/2+z
3/4-y,1/4+x,3/4+z
1/2-x,-y,1/2+z
3/4+y,3/4-x,1/4+z
1/2+x,1/2-y,1/2-z
1/2-x,y,1/2-z
3/4+y,1/4+x,3/4-z
3/4-y,3/4-x,1/4-z
1/2-x,1/2-y,1/2-z
1/4+y,3/4-x,1/4-z
1/2+x,y,1/2-z
1/4-y,1/4+x,3/4-z
1/2-x,1/2+y,1/2+z
1/2+x,-y,1/2+z
1/4-y,3/4-x,1/4+z
1/4+y,1/4+x,3/4+z
loop_
_atom_site_type_symbol
_atom_site_label
_atom_site_fract_x
_atom_site_fract_y
_atom_site_fract_z
Si Si1 0.049996 0.464377 0.378148
Si Si2 0.232769 0.623766 0.410579
Si Si3 0.876977 0.173674 0.240696
Si Si4 0.351905 0.078266 0.787484
Si Si5 0.000000 0.697493 0.402015
Si Si6 0.000000 0.250000 0.875000
O O1 0.065434 0.500000 0.500000
O O2 0.083654 0.463162 0.244611
O O3 0.048836 0.415630 0.450633
O O4 0.000000 0.478502 0.332323
O O5 0.250000 0.636138 0.250000
O O6 0.193336 0.587864 0.379571
O O7 0.275103 0.608154 0.507636
O O8 0.894091 0.144091 0.375000
O O9 0.855175 0.141837 0.117501
O O10 0.917957 0.206364 0.194175
O O11 0.347251 0.097251 0.625000
O O12 0.000000 0.707125 0.230230
O O13 0.000000 0.750000 0.459082
#
# Coordination Sequence:
#
# PCOD9573149 Si02
#       6
#    32  32  32  32  16   4
#     4  11  22  38  61  92 125 160 206 263 318 379
#     4  10  21  41  64  90 125 166 213 265 320 386
#     4  12  23  38  66  94 122 167 208 261 325 376
#     4  10  22  39  67  89 127 167 215 265 322 387
#     4  10  26  43  65  94 131 165 212 263 315 379
#     4   8  24  52  66  88 132 168 210 264 316 372
#
# _framework density 18.170836999999999
#
# number of rings (size 3 to 8) (size 9 to 14) (size 15 to 20)
#    0.324    1.081    5.405    0.000    3.027    0.432 
#    0.000    0.000   40.432    0.000    0.000    0.000 
#    0.000    0.000    0.000    0.000    0.000    0.000 
#
# Total GULP energy -412270.678439 kJ/mol
# GULP energy per Si atom -5571.225384 kJ/mol
# Density = 1.812948 g / cm^3
# Si number density = 18.170837 Si / 1000 Ang^3
#
#
#
# Elastic Constant Matrix: (Units=GPa)
#
#
# Indices 1 2 3 4 5 6 
#
# 1 121.1400 53.2061 57.6527 0.0000 0.0000 0.0000
# 2 53.2061 121.1400 57.6527 0.0000 0.0000 0.0000
# 3 57.6527 57.6527 75.6397 0.0000 0.0000 0.0000
# 4 0.0000 0.0000 0.0000 25.1895 0.0000 0.0000
# 5 0.0000 0.0000 0.0000 0.0000 25.1895 0.0000
# 6 0.0000 0.0000 0.0000 0.0000 0.0000 23.2580
#
#
#
# Elastic Compliance Matrix: (Units=1/GPa)
#
#
# Indices 1 2 3 4 5 6 
#
# 1 0.013143 -0.001577 -0.008816 0.000000 0.000000 0.000000
# 2 -0.001577 0.013143 -0.008816 0.000000 0.000000 0.000000
# 3 -0.008816 -0.008816 0.026659 0.000000 0.000000 0.000000
# 4 0.000000 0.000000 0.000000 0.039699 0.000000 0.000000
# 5 0.000000 0.000000 0.000000 0.000000 0.039699 0.000000
# 6 0.000000 0.000000 0.000000 0.000000 0.000000 0.042996
#
#
# Mechanical properties :
#
#
# Convention : Reuss Voigt Hill
#
# Bulk Modulus (GPa) = 68.82954 72.77141 70.80047
# Shear Modulus (GPa) = 22.87291 24.68794 23.78042
#
# Velocity S-wave (km/s) = 3.55176 3.69000 3.62154
# Velocity P-wave (km/s) = 7.40145 7.63480 7.51903
#
# Compressibility (1/GPa) = 0.01452865
#
# Stress axis : x y z
#
# Youngs Moduli (GPa) = 76.08554 76.08554 37.51054
#
# Poissons Ratio (x) = 0.11999 0.33068
# Poissons Ratio (y) = 0.11999 0.33068
# Poissons Ratio (z) = 0.67074 0.67074
#
# Static dielectric constant tensor:
#      x y z
#    x 1.640590 0.000000 0.000000 
#    y 0.000000 1.640590 0.000000 
#    z 0.000000 0.000000 1.609930 
# 
# From -- ./inp_files/3255.got.cif
#   From: 2010.05.17/outbox.cif.g08.bks.cpg/sg141_2_cif.got.tgz:3255.got - 2010.05.20 13:30:51.
