data_PCOD9573530
_publ_section_title
;
Structure prediction by ZEFSAII (Michael W. Deem and Ramdas Pophale) SiO2 
 PCOD9573530
Probable space group: I 41/A C D
;
_chemical_formula_sum "Si O2"
_cell_formula_units_Z 240
_cell_length_a 28.229682
_cell_length_b 28.229682
_cell_length_c 16.248953
_cell_angle_alpha 90.000000
_cell_angle_beta 90.000000
_cell_angle_gamma 90.000000
_cell_volume 12949.033500
_symmetry_space_group_name_H-M "I 41/A C D"
_symmetry_group_IT_number 142
_space_group.IT_coordinate_system_code '2'
_symmetry_cell_setting 'tetragonal'
loop_
_space_group_symop_operation_xyz
x,y,z
1/4-y,3/4+x,1/4+z
-x,1/2-y,z
1/4+y,1/4-x,3/4+z
x,-y,1/2-z
1/2-x,y,-z
3/4+y,1/4+x,1/4-z
1/4-y,1/4-x,1/4-z
-x,-y,-z
3/4+y,1/4-x,3/4-z
x,1/2+y,-z
3/4-y,3/4+x,1/4-z
-x,y,1/2+z
1/2+x,-y,z
1/4-y,3/4-x,3/4+z
3/4+y,3/4+x,3/4+z
1/2+x,1/2+y,1/2+z
3/4-y,1/4+x,3/4+z
1/2-x,-y,1/2+z
3/4+y,3/4-x,1/4+z
1/2+x,1/2-y,-z
-x,1/2+y,1/2-z
1/4+y,3/4+x,3/4-z
3/4-y,3/4-x,3/4-z
1/2-x,1/2-y,1/2-z
1/4+y,3/4-x,1/4-z
1/2+x,y,1/2-z
1/4-y,1/4+x,3/4-z
1/2-x,1/2+y,z
x,1/2-y,1/2+z
3/4-y,1/4-x,1/4+z
1/4+y,1/4+x,1/4+z
loop_
_atom_site_type_symbol
_atom_site_label
_atom_site_fract_x
_atom_site_fract_y
_atom_site_fract_z
Si Si1 0.479564 0.400701 0.324071
Si Si2 0.927168 0.859202 0.290120
Si Si3 0.442932 0.806611 0.367717
Si Si4 0.362603 0.374258 0.189097
Si Si5 0.255907 0.248861 0.346520
Si Si6 0.209811 0.670377 0.058654
Si Si7 0.707105 0.337662 0.558727
Si Si8 0.378852 0.628852 0.125000
O O1 0.516565 0.360147 0.305552
O O2 0.506129 0.439563 0.378761
O O3 0.457878 0.428700 0.245476
O O4 0.434090 0.381310 0.369096
O O5 0.900308 0.849693 0.375000
O O6 0.919891 0.819564 0.220634
O O7 0.917957 0.910568 0.248704
O O8 0.500325 0.814614 0.366179
O O9 0.416742 0.846403 0.425941
O O10 0.384889 0.422432 0.153868
O O11 0.315115 0.363574 0.138729
O O12 0.356709 0.384855 0.286616
O O13 0.250000 0.250000 0.250000
O O14 0.238616 0.299907 0.376194
O O15 0.227140 0.210534 0.399998
O O16 0.250000 0.648329 0.000000
O O17 0.750000 0.355880 0.500000
#
# Coordination Sequence:
#
# PCOD9573530 Si02
#       8
#    32  32  32  32  32  32  32  16
#     4  10  19  36  54  82 119 162 201 261 300 363
#     4  11  23  38  59  83 120 169 213 258 309 371
#     4  10  22  38  50  76 120 170 214 254 301 359
#     4  10  22  34  61  84 121 160 198 260 311 373
#     4  11  20  32  61  86 116 158 210 255 322 369
#     4   9  18  36  56  80 119 154 191 252 316 360
#     4  11  21  42  60  87 128 161 204 265 322 375
#     4  10  20  34  55  88 122 154 214 248 310 356
#
# _framework density 18.534203000000002
#
# number of rings (size 3 to 8) (size 9 to 14) (size 15 to 20)
#    0.000    1.733    2.667    2.800    3.733    2.133 
#    0.000    0.000    0.000    0.000    0.000    0.933 
#    2.000    0.000    0.000    0.000    0.000    0.000 
#
# Total GULP energy -668154.186416 kJ/mol
# GULP energy per Si atom -5567.951553 kJ/mol
# Density = 1.849202 g / cm^3
# Si number density = 18.534203 Si / 1000 Ang^3
#
#
#
# Elastic Constant Matrix: (Units=GPa)
#
#
# Indices 1 2 3 4 5 6 
#
# 1 53.6104 36.8036 24.1137 0.0000 0.0000 0.0000
# 2 36.8036 53.6109 24.1138 0.0000 0.0000 0.0000
# 3 24.1137 24.1138 107.8599 0.0000 0.0000 0.0000
# 4 0.0000 0.0000 0.0000 17.8217 0.0000 0.0000
# 5 0.0000 0.0000 0.0000 0.0000 17.8214 0.0000
# 6 0.0000 0.0000 0.0000 0.0000 0.0000 25.8124
#
#
#
# Elastic Compliance Matrix: (Units=1/GPa)
#
#
# Indices 1 2 3 4 5 6 
#
# 1 0.036028 -0.023471 -0.002807 0.000000 0.000000 0.000000
# 2 -0.023471 0.036028 -0.002807 0.000000 0.000000 0.000000
# 3 -0.002807 -0.002807 0.010527 0.000000 0.000000 0.000000
# 4 0.000000 0.000000 0.000000 0.056111 0.000000 0.000000
# 5 0.000000 0.000000 0.000000 0.000000 0.056112 0.000000
# 6 0.000000 0.000000 0.000000 0.000000 0.000000 0.038741
#
#
# Mechanical properties :
#
#
# Convention : Reuss Voigt Hill
#
# Bulk Modulus (GPa) = 40.96321 42.79372 41.87847
# Shear Modulus (GPa) = 16.67467 20.96112 18.81789
#
# Velocity S-wave (km/s) = 3.00270 3.36660 3.18984
# Velocity P-wave (km/s) = 5.84560 6.18475 6.01757
#
# Compressibility (1/GPa) = 0.02441215
#
# Stress axis : x y z
#
# Youngs Moduli (GPa) = 27.75585 27.75614 94.99754
#
# Poissons Ratio (x) = 0.65145 0.26671
# Poissons Ratio (y) = 0.65144 0.26670
# Poissons Ratio (z) = 0.07792 0.07792
#
# Static dielectric constant tensor:
#      x y z
#    x 1.669800 0.000000 0.000000 
#    y 0.000000 1.669800 0.000000 
#    z 0.000000 0.000000 1.738800 
# 
# From -- ./inp_files/5920.got.cif
#   From: 2010.05.17/outbox.cif.g08.bks.cpg/sg142_3_cif.got.tgz:5920.got - 2010.05.20 13:39:18.
