data_PCOD9573093
_publ_section_title
;
Structure prediction by ZEFSAII (Michael W. Deem and Ramdas Pophale) SiO2 
 PCOD9573093
Probable space group: I 41/A M D
;
_chemical_formula_sum "Si O2"
_cell_formula_units_Z 112
_cell_length_a 14.609585
_cell_length_b 14.609585
_cell_length_c 23.962206
_cell_angle_alpha 90.000000
_cell_angle_beta 90.000000
_cell_angle_gamma 90.000000
_cell_volume 5114.492623
_symmetry_space_group_name_H-M "I 41/A M D"
_symmetry_group_IT_number 141
_space_group.IT_coordinate_system_code '2'
_symmetry_cell_setting 'tetragonal'
loop_
_space_group_symop_operation_xyz
x,y,z
1/4-y,3/4+x,1/4+z
-x,1/2-y,z
1/4+y,1/4-x,3/4+z
x,-y,-z
-x,1/2+y,-z
1/4+y,3/4+x,1/4-z
1/4-y,1/4-x,3/4-z
-x,-y,-z
3/4+y,1/4-x,3/4-z
x,1/2+y,-z
3/4-y,3/4+x,1/4-z
-x,y,z
x,1/2-y,z
3/4-y,1/4-x,3/4+z
3/4+y,3/4+x,1/4+z
1/2+x,1/2+y,1/2+z
3/4-y,1/4+x,3/4+z
1/2-x,-y,1/2+z
3/4+y,3/4-x,1/4+z
1/2+x,1/2-y,1/2-z
1/2-x,y,1/2-z
3/4+y,1/4+x,3/4-z
3/4-y,3/4-x,1/4-z
1/2-x,1/2-y,1/2-z
1/4+y,3/4-x,1/4-z
1/2+x,y,1/2-z
1/4-y,1/4+x,3/4-z
1/2-x,1/2+y,1/2+z
1/2+x,-y,1/2+z
1/4-y,3/4-x,1/4+z
1/4+y,1/4+x,3/4+z
loop_
_atom_site_type_symbol
_atom_site_label
_atom_site_fract_x
_atom_site_fract_y
_atom_site_fract_z
Si Si1 0.389213 0.853142 0.815731
Si Si2 0.837263 0.500000 0.000000
Si Si3 0.891965 0.648979 0.910208
Si Si4 0.207200 0.639704 0.450655
O O1 0.357002 0.892999 0.875000
O O2 0.500000 0.848305 0.821526
O O3 0.354325 0.750000 0.808347
O O4 0.372454 0.909263 0.760381
O O5 0.881008 0.576457 0.959771
O O6 0.788168 0.432977 0.954989
O O7 0.849937 0.750000 0.921587
O O8 0.863474 0.608303 0.850529
O O9 0.000000 0.660788 0.904105
O O10 0.228597 0.750000 0.446644
#
# Coordination Sequence:
#
# PCOD9573093 Si02
#       4
#    32  16  32  32
#     4   8  14  27  49  77 112 156 202 243 283 337
#     4  12  23  38  59  92 126 156 200 262 316 372
#     4  10  22  42  66  88 116 160 210 260 318 381
#     4  10  21  37  58  85 122 164 203 250 309 373
#
# _framework density 21.898555000000002
#
# number of rings (size 3 to 8) (size 9 to 14) (size 15 to 20)
#    0.000    2.286    0.000    3.857    0.000    5.714 
#    0.000    5.714    0.000    0.000    0.000   12.000 
#    0.000    6.857    0.000    0.000    0.000    0.000 
#
# Total GULP energy -312222.879660 kJ/mol
# GULP energy per Si atom -5575.408565 kJ/mol
# Density = 2.184871 g / cm^3
# Si number density = 21.898555 Si / 1000 Ang^3
#
#
#
# Elastic Constant Matrix: (Units=GPa)
#
#
# Indices 1 2 3 4 5 6 
#
# 1 63.3249 14.9107 22.0180 0.0000 0.0000 0.0000
# 2 14.9107 63.3257 22.0184 0.0000 0.0000 0.0000
# 3 22.0180 22.0184 136.7682 0.0000 0.0000 0.0000
# 4 0.0000 0.0000 0.0000 -3.4985 0.0000 0.0000
# 5 0.0000 0.0000 0.0000 0.0000 -3.4995 0.0000
# 6 0.0000 0.0000 0.0000 0.0000 0.0000 17.3328
#
#
#
# Elastic Compliance Matrix: (Units=1/GPa)
#
#
# Indices 1 2 3 4 5 6 
#
# 1 0.017355 -0.003300 -0.002263 0.000000 0.000000 0.000000
# 2 -0.003300 0.017355 -0.002263 0.000000 0.000000 0.000000
# 3 -0.002263 -0.002263 0.008040 0.000000 0.000000 0.000000
# 4 0.000000 0.000000 0.000000 -0.285833 0.000000 0.000000
# 5 0.000000 0.000000 0.000000 0.000000 -0.285753 0.000000
# 6 0.000000 0.000000 0.000000 0.000000 0.000000 0.057694
#
#
# Mechanical properties :
#
#
# Convention : Reuss Voigt Hill
#
# Bulk Modulus (GPa) = 36.90031 42.36812 39.63421
# Shear Modulus (GPa) = -11.19927 15.69840 2.24956
#
# Velocity S-wave (km/s) = -2.26390 2.68035 1.01464
# Velocity P-wave (km/s) = 3.17072 5.38224 4.41712
#
# Compressibility (1/GPa) = 0.02710004
#
# Stress axis : x y z
#
# Youngs Moduli (GPa) = 57.61927 57.61997 124.37496
#
# Poissons Ratio (x) = 0.19013 0.28143
# Poissons Ratio (y) = 0.19013 0.28143
# Poissons Ratio (z) = 0.13038 0.13038
#
# Static dielectric constant tensor:
#      x y z
#    x 1.907210 0.000000 0.000000 
#    y 0.000000 1.907210 0.000000 
#    z 0.000000 0.000000 1.802600 
# 
# From -- ./inp_files/11137.got.cif
#   From: 2010.05.17/outbox.cif.g08.bks.cpg/sg141_6_cif.got.tgz:11137.got - 2010.05.20 13:30:51.
