data_PCOD9573670
_publ_section_title
;
Structure prediction by ZEFSAII (Michael W. Deem and Ramdas Pophale) SiO2 
 PCOD9573670
Probable space group: I 41/A C D
;
_chemical_formula_sum "Si O2"
_cell_formula_units_Z 176
_cell_length_a 27.507102
_cell_length_b 27.507102
_cell_length_c 10.568030
_cell_angle_alpha 90.000000
_cell_angle_beta 90.000000
_cell_angle_gamma 90.000000
_cell_volume 7996.201199
_symmetry_space_group_name_H-M "I 41/A C D"
_symmetry_group_IT_number 142
_space_group.IT_coordinate_system_code '2'
_symmetry_cell_setting 'tetragonal'
loop_
_space_group_symop_operation_xyz
x,y,z
1/4-y,3/4+x,1/4+z
-x,1/2-y,z
1/4+y,1/4-x,3/4+z
x,-y,1/2-z
1/2-x,y,-z
3/4+y,1/4+x,1/4-z
1/4-y,1/4-x,1/4-z
-x,-y,-z
3/4+y,1/4-x,3/4-z
x,1/2+y,-z
3/4-y,3/4+x,1/4-z
-x,y,1/2+z
1/2+x,-y,z
1/4-y,3/4-x,3/4+z
3/4+y,3/4+x,3/4+z
1/2+x,1/2+y,1/2+z
3/4-y,1/4+x,3/4+z
1/2-x,-y,1/2+z
3/4+y,3/4-x,1/4+z
1/2+x,1/2-y,-z
-x,1/2+y,1/2-z
1/4+y,3/4+x,3/4-z
3/4-y,3/4-x,3/4-z
1/2-x,1/2-y,1/2-z
1/4+y,3/4-x,1/4-z
1/2+x,y,1/2-z
1/4-y,1/4+x,3/4-z
1/2-x,1/2+y,z
x,1/2-y,1/2+z
3/4-y,1/4-x,1/4+z
1/4+y,1/4+x,1/4+z
loop_
_atom_site_type_symbol
_atom_site_label
_atom_site_fract_x
_atom_site_fract_y
_atom_site_fract_z
Si Si1 0.283822 0.533822 0.125000
Si Si2 0.086554 0.163447 0.125000
Si Si3 0.250000 0.794235 0.500000
Si Si4 0.854142 0.155330 0.232398
Si Si5 0.858995 0.733462 0.557012
Si Si6 0.612479 0.498601 0.994355
Si Si7 0.154390 0.336512 0.848805
O O1 0.276608 0.500000 0.250000
O O2 0.337207 0.521826 0.065297
O O3 0.042528 0.151675 0.224005
O O4 0.134879 0.165446 0.207387
O O5 0.196151 0.769532 0.499924
O O6 0.252606 0.826887 0.375103
O O7 0.893212 0.143212 0.125000
O O8 0.857754 0.206671 0.304808
O O9 0.800861 0.139948 0.188653
O O10 0.864933 0.117435 0.344263
O O11 0.867093 0.790038 0.580619
O O12 0.589664 0.461323 0.093244
#
# Coordination Sequence:
#
# PCOD9573670 Si02
#       7
#    16  16  16  32  32  32  32
#     4  12  25  40  68  94 137 196 255 280 340 429
#     4  10  21  44  66  99 139 166 226 272 338 412
#     4  10  20  38  64  98 130 170 230 270 342 400
#     4  10  25  41  59  97 139 169 218 284 348 399
#     4  10  23  40  70  99 128 179 216 284 336 409
#     4  11  22  40  63  93 134 183 227 282 338 412
#     4  11  23  41  73  96 132 181 226 278 348 411
#
# _framework density 22.010452999999998
#
# number of rings (size 3 to 8) (size 9 to 14) (size 15 to 20)
#    0.000    1.455    2.727    1.636    6.364    5.091 
#    0.000    0.000    0.000   13.091    0.000    0.000 
#    0.000    0.000    0.000    0.000    0.000    0.000 
#
# Total GULP energy -490361.360695 kJ/mol
# GULP energy per Si atom -5572.288190 kJ/mol
# Density = 2.196036 g / cm^3
# Si number density = 22.010453 Si / 1000 Ang^3
#
#
#
# Elastic Constant Matrix: (Units=GPa)
#
#
# Indices 1 2 3 4 5 6 
#
# 1 -114.1738 227.4903 14.9316 0.0000 0.0000 0.0000
# 2 227.4903 -114.1793 14.9236 0.0000 0.0000 0.0000
# 3 14.9316 14.9236 53.5045 0.0000 0.0000 0.0000
# 4 0.0000 0.0000 0.0000 109.8022 0.0000 0.0000
# 5 0.0000 0.0000 0.0000 0.0000 109.7734 0.0000
# 6 0.0000 0.0000 0.0000 0.0000 0.0000 9.1313
#
#
#
# Elastic Compliance Matrix: (Units=1/GPa)
#
#
# Indices 1 2 3 4 5 6 
#
# 1 0.003299 0.006226 -0.002657 0.000000 0.000000 0.000000
# 2 0.006226 0.003299 -0.002658 0.000000 0.000000 0.000000
# 3 -0.002657 -0.002658 0.020173 0.000000 0.000000 0.000000
# 4 0.000000 0.000000 0.000000 0.009107 0.000000 0.000000
# 5 0.000000 0.000000 0.000000 0.000000 0.009110 0.000000
# 6 0.000000 0.000000 0.000000 0.000000 0.000000 0.109513
#
#
# Mechanical properties :
#
#
# Convention : Reuss Voigt Hill
#
# Bulk Modulus (GPa) = 34.97321 37.76027 36.36674
# Shear Modulus (GPa) = 30.82418 16.92844 23.87631
#
# Velocity S-wave (km/s) = 3.74630 2.77629 3.29716
# Velocity P-wave (km/s) = 5.88531 5.24117 5.57256
#
# Compressibility (1/GPa) = 0.02859331
#
# Stress axis : x y z
#
# Youngs Moduli (GPa) = 303.10184 303.10442 49.57148
#
# Poissons Ratio (x) = -1.88714 0.13173
# Poissons Ratio (y) = -1.88712 0.13175
# Poissons Ratio (z) = 0.80543 0.80557
#
# Static dielectric constant tensor:
#      x y z
#    x 1.808700 0.000000 0.000000 
#    y 0.000000 1.808700 0.000000 
#    z 0.000000 0.000000 1.893940 
# 
# From -- ./inp_files/4041.got.cif
#   From: 2010.05.17/outbox.cif.g08.bks.cpg/sg142_3_cif.got.tgz:4041.got - 2010.05.20 13:39:18.
