data_PCOD9573778
_publ_section_title
;
Structure prediction by ZEFSAII (Michael W. Deem and Ramdas Pophale) SiO2 
 PCOD9573778
Probable space group: I 41/A C D
;
_chemical_formula_sum "Si O2"
_cell_formula_units_Z 96
_cell_length_a 13.224925
_cell_length_b 13.224925
_cell_length_c 19.749437
_cell_angle_alpha 90.000000
_cell_angle_beta 90.000000
_cell_angle_gamma 90.000000
_cell_volume 3454.149697
_symmetry_space_group_name_H-M "I 41/A C D"
_symmetry_group_IT_number 142
_space_group.IT_coordinate_system_code '2'
_symmetry_cell_setting 'tetragonal'
loop_
_space_group_symop_operation_xyz
x,y,z
1/4-y,3/4+x,1/4+z
-x,1/2-y,z
1/4+y,1/4-x,3/4+z
x,-y,1/2-z
1/2-x,y,-z
3/4+y,1/4+x,1/4-z
1/4-y,1/4-x,1/4-z
-x,-y,-z
3/4+y,1/4-x,3/4-z
x,1/2+y,-z
3/4-y,3/4+x,1/4-z
-x,y,1/2+z
1/2+x,-y,z
1/4-y,3/4-x,3/4+z
3/4+y,3/4+x,3/4+z
1/2+x,1/2+y,1/2+z
3/4-y,1/4+x,3/4+z
1/2-x,-y,1/2+z
3/4+y,3/4-x,1/4+z
1/2+x,1/2-y,-z
-x,1/2+y,1/2-z
1/4+y,3/4+x,3/4-z
3/4-y,3/4-x,3/4-z
1/2-x,1/2-y,1/2-z
1/4+y,3/4-x,1/4-z
1/2+x,y,1/2-z
1/4-y,1/4+x,3/4-z
1/2-x,1/2+y,z
x,1/2-y,1/2+z
3/4-y,1/4-x,1/4+z
1/4+y,1/4+x,1/4+z
loop_
_atom_site_type_symbol
_atom_site_label
_atom_site_fract_x
_atom_site_fract_y
_atom_site_fract_z
Si Si1 0.948109 0.115937 0.260283
Si Si2 0.033008 0.046434 0.572000
Si Si3 0.115952 0.416114 0.852700
O O1 0.907727 0.179819 0.197942
O O2 0.900931 0.157661 0.330614
O O3 0.064357 0.111812 0.281369
O O4 0.913404 0.000000 0.250000
O O5 0.133254 0.981276 0.591828
O O6 0.942067 0.019710 0.624499
O O7 0.000000 0.000000 0.500000
#
# Coordination Sequence:
#
# PCOD9573778 Si02
#       3
#    32  32  32
#     4  10  21  38  64  94 131 180 227 281 347 408
#     4   9  19  36  62  94 130 179 225 277 342 402
#     4   9  20  37  59  93 130 170 224 273 328 408
#
# _framework density 27.792656000000001
#
# number of rings (size 3 to 8) (size 9 to 14) (size 15 to 20)
#    0.000    2.667    0.000    0.000    0.000   29.333 
#    0.000    3.333    0.000    6.000    0.000   56.000 
#    0.000    0.000    0.000    0.000    0.000    0.000 
#
# Total GULP energy -267650.082384 kJ/mol
# GULP energy per Si atom -5576.043383 kJ/mol
# Density = 2.772940 g / cm^3
# Si number density = 27.792656 Si / 1000 Ang^3
#
#
#
# Elastic Constant Matrix: (Units=GPa)
#
#
# Indices 1 2 3 4 5 6 
#
# 1 128.6003 81.7173 55.7020 0.0000 0.0000 0.0000
# 2 81.7173 128.6003 55.7020 0.0000 0.0000 0.0000
# 3 55.7020 55.7020 169.6937 0.0000 0.0000 0.0000
# 4 0.0000 0.0000 0.0000 55.4383 0.0000 0.0000
# 5 0.0000 0.0000 0.0000 0.0000 55.4383 0.0000
# 6 0.0000 0.0000 0.0000 0.0000 0.0000 48.7042
#
#
#
# Elastic Compliance Matrix: (Units=1/GPa)
#
#
# Indices 1 2 3 4 5 6 
#
# 1 0.013543 -0.007787 -0.001889 0.000000 0.000000 0.000000
# 2 -0.007787 0.013543 -0.001889 0.000000 0.000000 0.000000
# 3 -0.001889 -0.001889 0.007133 0.000000 0.000000 0.000000
# 4 0.000000 0.000000 0.000000 0.018038 0.000000 0.000000
# 5 0.000000 0.000000 0.000000 0.000000 0.018038 0.000000
# 6 0.000000 0.000000 0.000000 0.000000 0.000000 0.020532
#
#
# Mechanical properties :
#
#
# Convention : Reuss Voigt Hill
#
# Bulk Modulus (GPa) = 90.19401 90.34856 90.27128
# Shear Modulus (GPa) = 42.49768 47.50105 44.99936
#
# Velocity S-wave (km/s) = 3.91461 4.13864 4.02818
# Velocity P-wave (km/s) = 7.27703 7.44422 7.36110
#
# Compressibility (1/GPa) = 0.01108721
#
# Stress axis : x y z
#
# Youngs Moduli (GPa) = 73.84124 73.84124 140.18871
#
# Poissons Ratio (x) = 0.57501 0.26485
# Poissons Ratio (y) = 0.57501 0.26485
# Poissons Ratio (z) = 0.13950 0.13950
#
# Static dielectric constant tensor:
#      x y z
#    x 2.391040 0.000000 0.000000 
#    y 0.000000 2.391040 0.000000 
#    z 0.000000 0.000000 2.108030 
# 
# From -- ./inp_files/8524.got.cif
#   From: 2010.05.17/outbox.cif.g08.bks.cpg/sg142_5_cif.got.tgz:8524.got - 2010.05.20 13:39:18.
