data_PCOD9573597
_publ_section_title
;
Structure prediction by ZEFSAII (Michael W. Deem and Ramdas Pophale) SiO2 
 PCOD9573597
Probable space group: I 41/A C D
;
_chemical_formula_sum "Si O2"
_cell_formula_units_Z 160
_cell_length_a 20.917968
_cell_length_b 20.917968
_cell_length_c 15.973685
_cell_angle_alpha 90.000000
_cell_angle_beta 90.000000
_cell_angle_gamma 90.000000
_cell_volume 6989.467736
_symmetry_space_group_name_H-M "I 41/A C D"
_symmetry_group_IT_number 142
_space_group.IT_coordinate_system_code '2'
_symmetry_cell_setting 'tetragonal'
loop_
_space_group_symop_operation_xyz
x,y,z
1/4-y,3/4+x,1/4+z
-x,1/2-y,z
1/4+y,1/4-x,3/4+z
x,-y,1/2-z
1/2-x,y,-z
3/4+y,1/4+x,1/4-z
1/4-y,1/4-x,1/4-z
-x,-y,-z
3/4+y,1/4-x,3/4-z
x,1/2+y,-z
3/4-y,3/4+x,1/4-z
-x,y,1/2+z
1/2+x,-y,z
1/4-y,3/4-x,3/4+z
3/4+y,3/4+x,3/4+z
1/2+x,1/2+y,1/2+z
3/4-y,1/4+x,3/4+z
1/2-x,-y,1/2+z
3/4+y,3/4-x,1/4+z
1/2+x,1/2-y,-z
-x,1/2+y,1/2-z
1/4+y,3/4+x,3/4-z
3/4-y,3/4-x,3/4-z
1/2-x,1/2-y,1/2-z
1/4+y,3/4-x,1/4-z
1/2+x,y,1/2-z
1/4-y,1/4+x,3/4-z
1/2-x,1/2+y,z
x,1/2-y,1/2+z
3/4-y,1/4-x,1/4+z
1/4+y,1/4+x,1/4+z
loop_
_atom_site_type_symbol
_atom_site_label
_atom_site_fract_x
_atom_site_fract_y
_atom_site_fract_z
Si Si1 0.809768 0.486195 0.937490
Si Si2 0.483915 0.987927 0.347668
Si Si3 0.627888 0.297678 0.311701
Si Si4 0.115670 0.046149 0.428997
Si Si5 0.472292 0.847201 0.407455
O O1 0.796357 0.546357 0.875000
O O2 0.810319 0.425572 0.878565
O O3 0.750000 0.482294 0.000000
O O4 0.867156 0.492959 0.001795
O O5 0.464835 0.053734 0.394276
O O6 0.455375 0.081028 0.123574
O O7 0.473212 0.000000 0.250000
O O8 0.557690 0.976773 0.372501
O O9 0.576781 0.326781 0.375000
O O10 0.644705 0.348185 0.238517
O O11 0.603034 0.238162 0.256481
O O12 0.538233 0.825421 0.359846
#
# Coordination Sequence:
#
# PCOD9573597 Si02
#       5
#    32  32  32  32  32
#     4   9  18  33  53  83 123 162 205 258 323 394
#     4  11  24  41  61  93 127 164 216 272 328 385
#     4  11  24  41  63  93 126 166 218 271 328 393
#     4  10  20  35  57  87 122 165 210 259 320 387
#     4  10  22  44  69  95 131 175 220 272 327 387
#
# _framework density 22.891587000000001
#
# number of rings (size 3 to 8) (size 9 to 14) (size 15 to 20)
#    0.000    1.800    0.000    4.800    0.000    8.000 
#    0.000    9.000    0.000    0.000    0.000    7.000 
#    0.000    0.000    0.000    0.000    0.000    0.000 
#
# Total GULP energy -446779.200533 kJ/mol
# GULP energy per Si atom -5584.740007 kJ/mol
# Density = 2.283948 g / cm^3
# Si number density = 22.891587 Si / 1000 Ang^3
#
#
#
# Elastic Constant Matrix: (Units=GPa)
#
#
# Indices 1 2 3 4 5 6 
#
# 1 77.1502 37.2164 39.6151 0.0000 0.0000 0.0000
# 2 37.2164 77.1502 39.6151 0.0000 0.0000 0.0000
# 3 39.6151 39.6151 129.5462 0.0000 0.0000 0.0000
# 4 0.0000 0.0000 0.0000 38.4243 0.0000 0.0000
# 5 0.0000 0.0000 0.0000 0.0000 38.4243 0.0000
# 6 0.0000 0.0000 0.0000 0.0000 0.0000 16.1930
#
#
#
# Elastic Compliance Matrix: (Units=1/GPa)
#
#
# Indices 1 2 3 4 5 6 
#
# 1 0.018068 -0.006974 -0.003393 0.000000 0.000000 0.000000
# 2 -0.006974 0.018068 -0.003393 0.000000 0.000000 0.000000
# 3 -0.003393 -0.003393 0.009794 0.000000 0.000000 0.000000
# 4 0.000000 0.000000 0.000000 0.026025 0.000000 0.000000
# 5 0.000000 0.000000 0.000000 0.000000 0.026025 0.000000
# 6 0.000000 0.000000 0.000000 0.000000 0.000000 0.061755
#
#
# Mechanical properties :
#
#
# Convention : Reuss Voigt Hill
#
# Bulk Modulus (GPa) = 54.31220 57.41555 55.86388
# Shear Modulus (GPa) = 25.85445 29.76830 27.81137
#
# Velocity S-wave (km/s) = 3.36435 3.61002 3.48935
# Velocity P-wave (km/s) = 6.23451 6.52015 6.37893
#
# Compressibility (1/GPa) = 0.01841207
#
# Stress axis : x y z
#
# Youngs Moduli (GPa) = 55.34710 55.34710 102.10184
#
# Poissons Ratio (x) = 0.38597 0.34639
# Poissons Ratio (y) = 0.38597 0.34639
# Poissons Ratio (z) = 0.18777 0.18777
#
# Static dielectric constant tensor:
#      x y z
#    x 1.901560 0.000000 0.000000 
#    y 0.000000 1.901560 0.000000 
#    z 0.000000 0.000000 1.823640 
# 
# From -- ./inp_files/5458.got.cif
#   From: 2010.05.17/outbox.cif.g08.bks.cpg/sg142_3_cif.got.tgz:5458.got - 2010.05.20 13:39:18.
