data_PCOD9573322
_publ_section_title
;
Structure prediction by ZEFSAII (Michael W. Deem and Ramdas Pophale) SiO2 
 PCOD9573322
Probable space group: I 41/A M D
;
_chemical_formula_sum "Si O2"
_cell_formula_units_Z 176
_cell_length_a 26.016072
_cell_length_b 26.016072
_cell_length_c 11.714138
_cell_angle_alpha 90.000000
_cell_angle_beta 90.000000
_cell_angle_gamma 90.000000
_cell_volume 7928.550334
_symmetry_space_group_name_H-M "I 41/A M D"
_symmetry_group_IT_number 141
_space_group.IT_coordinate_system_code '2'
_symmetry_cell_setting 'tetragonal'
loop_
_space_group_symop_operation_xyz
x,y,z
1/4-y,3/4+x,1/4+z
-x,1/2-y,z
1/4+y,1/4-x,3/4+z
x,-y,-z
-x,1/2+y,-z
1/4+y,3/4+x,1/4-z
1/4-y,1/4-x,3/4-z
-x,-y,-z
3/4+y,1/4-x,3/4-z
x,1/2+y,-z
3/4-y,3/4+x,1/4-z
-x,y,z
x,1/2-y,z
3/4-y,1/4-x,3/4+z
3/4+y,3/4+x,1/4+z
1/2+x,1/2+y,1/2+z
3/4-y,1/4+x,3/4+z
1/2-x,-y,1/2+z
3/4+y,3/4-x,1/4+z
1/2+x,1/2-y,1/2-z
1/2-x,y,1/2-z
3/4+y,1/4+x,3/4-z
3/4-y,3/4-x,1/4-z
1/2-x,1/2-y,1/2-z
1/4+y,3/4-x,1/4-z
1/2+x,y,1/2-z
1/4-y,1/4+x,3/4-z
1/2-x,1/2+y,1/2+z
1/2+x,-y,1/2+z
1/4-y,3/4-x,1/4+z
1/4+y,1/4+x,3/4+z
loop_
_atom_site_type_symbol
_atom_site_label
_atom_site_fract_x
_atom_site_fract_y
_atom_site_fract_z
Si Si1 0.407125 0.500000 0.000000
Si Si2 0.173368 0.998787 0.869690
Si Si3 0.356187 0.308769 0.862006
Si Si4 0.121595 0.065325 0.297935
Si Si5 0.647418 0.194435 0.372085
Si Si6 0.169548 0.661786 0.113873
O O1 0.377720 0.480571 0.111739
O O2 0.435293 0.552424 0.042368
O O3 0.231147 0.018854 0.875000
O O4 0.134424 0.042474 0.825504
O O5 0.164038 0.947964 0.798624
O O6 0.157114 0.000000 0.000000
O O7 0.375183 0.250000 0.862983
O O8 0.399942 0.353340 0.877660
O O9 0.324727 0.316311 0.742410
O O10 0.320641 0.320468 0.972543
O O11 0.135852 0.114149 0.375000
O O12 0.624703 0.250000 0.341772
O O13 0.667725 0.196324 0.502621
O O14 0.113562 0.636439 0.125000
#
# Coordination Sequence:
#
# PCOD9573322 Si02
#       6
#    16  32  32  32  32  32
#     4  12  25  44  66  96 134 184 226 278 349 420
#     4  11  23  40  65  95 135 178 228 284 344 417
#     4  11  24  45  70  98 136 181 230 292 351 413
#     4  12  26  45  68  97 140 181 228 285 347 416
#     4  11  23  42  69 102 136 177 229 287 353 425
#     4   9  19  39  65  95 132 170 215 275 343 407
#
# _framework density 22.198257999999999
#
# number of rings (size 3 to 8) (size 9 to 14) (size 15 to 20)
#    0.000    1.091    5.455    0.818    2.545    2.545 
#    0.000    0.909    0.000    3.273    0.000    0.000 
#    0.000    0.000    0.000    0.000    0.000    0.000 
#
# Total GULP energy -489933.126702 kJ/mol
# GULP energy per Si atom -5567.421894 kJ/mol
# Density = 2.214773 g / cm^3
# Si number density = 22.198258 Si / 1000 Ang^3
#
#
#
# Elastic Constant Matrix: (Units=GPa)
#
#
# Indices 1 2 3 4 5 6 
#
# 1 66.4967 15.0508 31.3884 0.0000 0.0000 0.0000
# 2 15.0508 66.4950 31.3883 0.0000 0.0000 0.0000
# 3 31.3884 31.3883 150.6879 0.0000 0.0000 0.0000
# 4 0.0000 0.0000 0.0000 10.5213 0.0000 0.0000
# 5 0.0000 0.0000 0.0000 0.0000 10.5227 0.0000
# 6 0.0000 0.0000 0.0000 0.0000 0.0000 13.4548
#
#
#
# Elastic Compliance Matrix: (Units=1/GPa)
#
#
# Indices 1 2 3 4 5 6 
#
# 1 0.017021 -0.002417 -0.003042 0.000000 0.000000 0.000000
# 2 -0.002417 0.017022 -0.003042 0.000000 0.000000 0.000000
# 3 -0.003042 -0.003042 0.007904 0.000000 0.000000 0.000000
# 4 0.000000 0.000000 0.000000 0.095046 0.000000 0.000000
# 5 0.000000 0.000000 0.000000 0.000000 0.095033 0.000000
# 6 0.000000 0.000000 0.000000 0.000000 0.000000 0.074323
#
#
# Mechanical properties :
#
#
# Convention : Reuss Voigt Hill
#
# Bulk Modulus (GPa) = 40.08886 48.81495 44.45190
# Shear Modulus (GPa) = 15.07544 20.62322 17.84933
#
# Velocity S-wave (km/s) = 2.60883 3.05133 2.83872
# Velocity P-wave (km/s) = 5.21281 5.86961 5.55093
#
# Compressibility (1/GPa) = 0.02494459
#
# Stress axis : x y z
#
# Youngs Moduli (GPa) = 58.74986 58.74822 126.52434
#
# Poissons Ratio (x) = 0.14197 0.38491
# Poissons Ratio (y) = 0.14198 0.38492
# Poissons Ratio (z) = 0.17873 0.17873
#
# Static dielectric constant tensor:
#      x y z
#    x 1.872750 0.000000 0.000000 
#    y 0.000000 1.872740 0.000000 
#    z 0.000000 0.000000 1.923800 
# 
# From -- ./inp_files/5048.got.cif
#   From: 2010.05.17/outbox.cif.g08.bks.cpg/sg141_3_cif.got.tgz:5048.got - 2010.05.20 13:30:51.
