data_PCOD9573352
_publ_section_title
;
Structure prediction by ZEFSAII (Michael W. Deem and Ramdas Pophale) SiO2 
 PCOD9573352
Probable space group: I 41/A M D
;
_chemical_formula_sum "Si O2"
_cell_formula_units_Z 128
_cell_length_a 19.995215
_cell_length_b 19.995215
_cell_length_c 14.862871
_cell_angle_alpha 90.000000
_cell_angle_beta 90.000000
_cell_angle_gamma 90.000000
_cell_volume 5942.303987
_symmetry_space_group_name_H-M "I 41/A M D"
_symmetry_group_IT_number 141
_space_group.IT_coordinate_system_code '2'
_symmetry_cell_setting 'tetragonal'
loop_
_space_group_symop_operation_xyz
x,y,z
1/4-y,3/4+x,1/4+z
-x,1/2-y,z
1/4+y,1/4-x,3/4+z
x,-y,-z
-x,1/2+y,-z
1/4+y,3/4+x,1/4-z
1/4-y,1/4-x,3/4-z
-x,-y,-z
3/4+y,1/4-x,3/4-z
x,1/2+y,-z
3/4-y,3/4+x,1/4-z
-x,y,z
x,1/2-y,z
3/4-y,1/4-x,3/4+z
3/4+y,3/4+x,1/4+z
1/2+x,1/2+y,1/2+z
3/4-y,1/4+x,3/4+z
1/2-x,-y,1/2+z
3/4+y,3/4-x,1/4+z
1/2+x,1/2-y,1/2-z
1/2-x,y,1/2-z
3/4+y,1/4+x,3/4-z
3/4-y,3/4-x,1/4-z
1/2-x,1/2-y,1/2-z
1/4+y,3/4-x,1/4-z
1/2+x,y,1/2-z
1/4-y,1/4+x,3/4-z
1/2-x,1/2+y,1/2+z
1/2+x,-y,1/2+z
1/4-y,3/4-x,1/4+z
1/4+y,1/4+x,3/4+z
loop_
_atom_site_type_symbol
_atom_site_label
_atom_site_fract_x
_atom_site_fract_y
_atom_site_fract_z
Si Si1 0.310868 0.250000 0.317595
Si Si2 0.867586 0.882415 0.125000
Si Si3 0.187806 0.250000 0.818330
Si Si4 0.177093 0.970306 0.280031
Si Si5 0.000000 0.472592 0.242970
Si Si6 0.647140 0.888884 0.038675
O O1 0.250000 0.250000 0.250000
O O2 0.270025 0.250000 0.415312
O O3 0.352583 0.316940 0.291291
O O4 0.934232 0.891814 0.066227
O O5 0.865740 0.942868 0.196319
O O6 0.250000 0.250000 0.750000
O O7 0.224127 0.250000 0.913690
O O8 0.250000 0.949999 0.250000
O O9 0.162824 0.928916 0.369050
O O10 0.173672 0.050746 0.281163
O O11 0.936450 0.423466 0.226923
#
# Coordination Sequence:
#
# PCOD9573352 Si02
#       6
#    16  16  16  32  16  32
#     4  12  28  47  72 109 148 195 252 321 398 464
#     4  12  22  37  64  98 144 188 242 293 374 446
#     4  12  24  41  66 103 144 191 238 303 369 446
#     4  12  21  39  69 104 137 190 254 314 368 448
#     4  12  24  47  72 103 154 192 249 321 379 468
#     4  12  24  44  73 105 148 194 250 320 390 461
#
# _framework density 21.540465999999999
#
# number of rings (size 3 to 8) (size 9 to 14) (size 15 to 20)
#    0.000    0.000    7.500    3.000    0.000    1.750 
#    0.000    0.000    0.000    7.500    0.000    0.000 
#    0.000    0.000    0.000    0.000    0.000    0.000 
#
# Total GULP energy -356405.731873 kJ/mol
# GULP energy per Si atom -5568.839561 kJ/mol
# Density = 2.149144 g / cm^3
# Si number density = 21.540466 Si / 1000 Ang^3
#
#
#
# Elastic Constant Matrix: (Units=GPa)
#
#
# Indices 1 2 3 4 5 6 
#
# 1 155.1810 33.9249 22.0585 0.0000 0.0000 0.0000
# 2 33.9249 155.1806 22.0585 0.0000 0.0000 0.0000
# 3 22.0585 22.0585 117.2734 0.0000 0.0000 0.0000
# 4 0.0000 0.0000 0.0000 18.5757 0.0000 0.0000
# 5 0.0000 0.0000 0.0000 0.0000 18.5755 0.0000
# 6 0.0000 0.0000 0.0000 0.0000 0.0000 40.3166
#
#
#
# Elastic Compliance Matrix: (Units=1/GPa)
#
#
# Indices 1 2 3 4 5 6 
#
# 1 0.006889 -0.001358 -0.001040 0.000000 0.000000 0.000000
# 2 -0.001358 0.006889 -0.001040 0.000000 0.000000 0.000000
# 3 -0.001040 -0.001040 0.008918 0.000000 0.000000 0.000000
# 4 0.000000 0.000000 0.000000 0.053834 0.000000 0.000000
# 5 0.000000 0.000000 0.000000 0.000000 0.053834 0.000000
# 6 0.000000 0.000000 0.000000 0.000000 0.000000 0.024804
#
#
# Mechanical properties :
#
#
# Convention : Reuss Voigt Hill
#
# Bulk Modulus (GPa) = 63.21630 64.85766 64.03698
# Shear Modulus (GPa) = 29.88317 38.79977 34.34147
#
# Velocity S-wave (km/s) = 3.72869 4.24872 3.99717
# Velocity P-wave (km/s) = 6.92452 7.36504 7.14817
#
# Compressibility (1/GPa) = 0.01581870
#
# Stress axis : x y z
#
# Youngs Moduli (GPa) = 145.16164 145.16121 112.12733
#
# Poissons Ratio (x) = 0.19715 0.11665
# Poissons Ratio (y) = 0.19715 0.11665
# Poissons Ratio (z) = 0.15101 0.15101
#
# Static dielectric constant tensor:
#      x y z
#    x 2.305190 0.000000 0.000000 
#    y 0.000000 2.305100 0.000000 
#    z 0.000000 0.000000 1.436720 
# 
# From -- ./inp_files/6320.got.cif
#   From: 2010.05.17/outbox.cif.g08.bks.cpg/sg141_4_cif.got.tgz:6320.got - 2010.05.20 13:30:51.
