data_PCOD9573033
_publ_section_title
;
Structure prediction by ZEFSAII (Michael W. Deem and Ramdas Pophale) SiO2 
 PCOD9573033
Probable space group: I 41/A M D
;
_chemical_formula_sum "Si O2"
_cell_formula_units_Z 136
_cell_length_a 17.409164
_cell_length_b 17.409164
_cell_length_c 18.867431
_cell_angle_alpha 90.000000
_cell_angle_beta 90.000000
_cell_angle_gamma 90.000000
_cell_volume 5718.321954
_symmetry_space_group_name_H-M "I 41/A M D"
_symmetry_group_IT_number 141
_space_group.IT_coordinate_system_code '2'
_symmetry_cell_setting 'tetragonal'
loop_
_space_group_symop_operation_xyz
x,y,z
1/4-y,3/4+x,1/4+z
-x,1/2-y,z
1/4+y,1/4-x,3/4+z
x,-y,-z
-x,1/2+y,-z
1/4+y,3/4+x,1/4-z
1/4-y,1/4-x,3/4-z
-x,-y,-z
3/4+y,1/4-x,3/4-z
x,1/2+y,-z
3/4-y,3/4+x,1/4-z
-x,y,z
x,1/2-y,z
3/4-y,1/4-x,3/4+z
3/4+y,3/4+x,1/4+z
1/2+x,1/2+y,1/2+z
3/4-y,1/4+x,3/4+z
1/2-x,-y,1/2+z
3/4+y,3/4-x,1/4+z
1/2+x,1/2-y,1/2-z
1/2-x,y,1/2-z
3/4+y,1/4+x,3/4-z
3/4-y,3/4-x,1/4-z
1/2-x,1/2-y,1/2-z
1/4+y,3/4-x,1/4-z
1/2+x,y,1/2-z
1/4-y,1/4+x,3/4-z
1/2-x,1/2+y,1/2+z
1/2+x,-y,1/2+z
1/4-y,3/4-x,1/4+z
1/4+y,1/4+x,3/4+z
loop_
_atom_site_type_symbol
_atom_site_label
_atom_site_fract_x
_atom_site_fract_y
_atom_site_fract_z
Si Si1 0.083193 0.540665 0.639857
Si Si2 0.412993 0.661214 0.486361
Si Si3 0.111460 0.876239 0.400839
Si Si4 0.000000 0.250000 0.540491
Si Si5 0.237246 0.086735 0.970474
O O1 0.149330 0.600671 0.625000
O O2 0.083463 0.464244 0.591987
O O3 0.103821 0.507702 0.716812
O O4 0.000000 0.577768 0.636935
O O5 0.500000 0.643101 0.466356
O O6 0.397108 0.750000 0.467018
O O7 0.405632 0.656358 0.572304
O O8 0.351006 0.603455 0.455147
O O9 0.067609 0.818084 0.452669
O O10 0.202372 0.889564 0.410677
O O11 0.248076 0.000000 0.000000
#
# Coordination Sequence:
#
# PCOD9573033 Si02
#       5
#    32  32  32   8  32
#     4  11  23  43  59  85 128 164 201 253 312 365
#     4  10  20  38  61  90 126 160 202 259 309 367
#     4  11  20  38  61  91 119 163 211 253 300 357
#     4  12  20  36  66  92 119 168 224 251 286 372
#     4  11  23  37  61  89 121 160 207 259 312 363
#
# _framework density 23.783200000000001
#
# number of rings (size 3 to 8) (size 9 to 14) (size 15 to 20)
#    0.000    1.176    5.882    2.118    3.294    0.706 
#    2.118    1.765    0.000    0.000    0.000    0.000 
#    0.000   19.294    0.000    0.000    0.000    0.000 
#
# Total GULP energy -379122.960559 kJ/mol
# GULP energy per Si atom -5575.337655 kJ/mol
# Density = 2.372907 g / cm^3
# Si number density = 23.783200 Si / 1000 Ang^3
#
#
#
# Elastic Constant Matrix: (Units=GPa)
#
#
# Indices 1 2 3 4 5 6 
#
# 1 165.3833 72.0517 11.6312 0.0000 0.0000 0.0000
# 2 72.0517 165.3888 11.6303 0.0000 0.0000 0.0000
# 3 11.6312 11.6303 26.1458 0.0000 0.0000 0.0000
# 4 0.0000 0.0000 0.0000 5.0783 0.0000 0.0000
# 5 0.0000 0.0000 0.0000 0.0000 5.0755 0.0000
# 6 0.0000 0.0000 0.0000 0.0000 0.0000 40.3929
#
#
#
# Elastic Compliance Matrix: (Units=1/GPa)
#
#
# Indices 1 2 3 4 5 6 
#
# 1 0.007559 -0.003155 -0.001959 0.000000 0.000000 0.000000
# 2 -0.003155 0.007559 -0.001959 0.000000 0.000000 0.000000
# 3 -0.001959 -0.001959 0.039990 0.000000 0.000000 0.000000
# 4 0.000000 0.000000 0.000000 0.196917 0.000000 0.000000
# 5 0.000000 0.000000 0.000000 0.000000 0.197026 0.000000
# 6 0.000000 0.000000 0.000000 0.000000 0.000000 0.024757
#
#
# Mechanical properties :
#
#
# Convention : Reuss Voigt Hill
#
# Bulk Modulus (GPa) = 24.41324 60.83827 42.62576
# Shear Modulus (GPa) = 9.96795 27.54964 18.75880
#
# Velocity S-wave (km/s) = 2.04946 3.40717 2.81150
# Velocity P-wave (km/s) = 3.98592 6.41204 5.33863
#
# Compressibility (1/GPa) = 0.04096138
#
# Stress axis : x y z
#
# Youngs Moduli (GPa) = 132.29251 132.29772 25.00635
#
# Poissons Ratio (x) = 0.41744 0.04899
# Poissons Ratio (y) = 0.41742 0.04898
# Poissons Ratio (z) = 0.25918 0.25912
#
# Static dielectric constant tensor:
#      x y z
#    x 1.917660 0.000000 0.000000 
#    y 0.000000 1.917660 0.000000 
#    z 0.000000 0.000000 1.991450 
# 
# From -- ./inp_files/10116.got.cif
#   From: 2010.05.17/outbox.cif.g08.bks.cpg/sg141_6_cif.got.tgz:10116.got - 2010.05.20 13:30:51.
