data_PCOD9573874
_publ_section_title
;
Structure prediction by ZEFSAII (Michael W. Deem and Ramdas Pophale) SiO2 
 PCOD9573874
Probable space group: I 41/A C D
;
_chemical_formula_sum "Si O2"
_cell_formula_units_Z 160
_cell_length_a 24.591569
_cell_length_b 24.591569
_cell_length_c 12.608287
_cell_angle_alpha 90.000000
_cell_angle_beta 90.000000
_cell_angle_gamma 90.000000
_cell_volume 7624.801874
_symmetry_space_group_name_H-M "I 41/A C D"
_symmetry_group_IT_number 142
_space_group.IT_coordinate_system_code '2'
_symmetry_cell_setting 'tetragonal'
loop_
_space_group_symop_operation_xyz
x,y,z
1/4-y,3/4+x,1/4+z
-x,1/2-y,z
1/4+y,1/4-x,3/4+z
x,-y,1/2-z
1/2-x,y,-z
3/4+y,1/4+x,1/4-z
1/4-y,1/4-x,1/4-z
-x,-y,-z
3/4+y,1/4-x,3/4-z
x,1/2+y,-z
3/4-y,3/4+x,1/4-z
-x,y,1/2+z
1/2+x,-y,z
1/4-y,3/4-x,3/4+z
3/4+y,3/4+x,3/4+z
1/2+x,1/2+y,1/2+z
3/4-y,1/4+x,3/4+z
1/2-x,-y,1/2+z
3/4+y,3/4-x,1/4+z
1/2+x,1/2-y,-z
-x,1/2+y,1/2-z
1/4+y,3/4+x,3/4-z
3/4-y,3/4-x,3/4-z
1/2-x,1/2-y,1/2-z
1/4+y,3/4-x,1/4-z
1/2+x,y,1/2-z
1/4-y,1/4+x,3/4-z
1/2-x,1/2+y,z
x,1/2-y,1/2+z
3/4-y,1/4-x,1/4+z
1/4+y,1/4+x,1/4+z
loop_
_atom_site_type_symbol
_atom_site_label
_atom_site_fract_x
_atom_site_fract_y
_atom_site_fract_z
Si Si1 0.056560 0.193441 0.125000
Si Si2 0.250000 0.564629 0.000000
Si Si3 0.881424 0.200954 0.054942
Si Si4 0.942439 0.889120 0.062084
Si Si5 0.363144 0.484237 0.477879
Si Si6 0.698124 0.287743 0.274314
O O1 0.074804 0.252032 0.080633
O O2 0.093484 0.181394 0.226109
O O3 0.302798 0.527129 0.976003
O O4 0.265360 0.601627 0.101309
O O5 0.900285 0.150285 0.125000
O O6 0.823848 0.218923 0.105905
O O7 0.877061 0.185865 0.933199
O O8 0.901686 0.937126 0.026059
O O9 0.006649 0.903774 0.047170
O O10 0.399874 0.537217 0.501302
O O11 0.750000 0.250000 0.250000
#
# Coordination Sequence:
#
# PCOD9573874 Si02
#       6
#    16  16  32  32  32  32
#     4  10  23  42  66  98 138 184 226 282 356 434
#     4  10  22  40  66  98 136 182 236 286 370 416
#     4  11  25  42  65 106 139 180 230 293 373 422
#     4  10  23  42  72  99 139 187 240 291 357 436
#     4  10  22  41  65 100 137 183 238 296 354 429
#     4   9  22  43  65  97 133 187 235 290 348 419
#
# _framework density 20.984152000000002
#
# number of rings (size 3 to 8) (size 9 to 14) (size 15 to 20)
#    0.000    2.000    0.000    1.500    8.400    8.000 
#    3.600    0.000    0.000    0.000    0.000    0.000 
#    0.000    0.000    0.000    0.000    0.000    0.000 
#
# Total GULP energy -445615.502004 kJ/mol
# GULP energy per Si atom -5570.193775 kJ/mol
# Density = 2.093639 g / cm^3
# Si number density = 20.984152 Si / 1000 Ang^3
#
#
#
# Elastic Constant Matrix: (Units=GPa)
#
#
# Indices 1 2 3 4 5 6 
#
# 1 92.8341 74.6041 56.1413 0.0000 0.0000 0.0000
# 2 74.6041 92.8349 56.1428 0.0000 0.0000 0.0000
# 3 56.1413 56.1428 198.3721 0.0000 0.0000 0.0000
# 4 0.0000 0.0000 0.0000 27.8646 0.0000 0.0000
# 5 0.0000 0.0000 0.0000 0.0000 27.8662 0.0000
# 6 0.0000 0.0000 0.0000 0.0000 0.0000 34.2673
#
#
#
# Elastic Compliance Matrix: (Units=1/GPa)
#
#
# Indices 1 2 3 4 5 6 
#
# 1 0.031112 -0.023741 -0.002086 0.000000 0.000000 0.000000
# 2 -0.023741 0.031112 -0.002086 0.000000 0.000000 0.000000
# 3 -0.002086 -0.002086 0.006222 0.000000 0.000000 0.000000
# 4 0.000000 0.000000 0.000000 0.035888 0.000000 0.000000
# 5 0.000000 0.000000 0.000000 0.000000 0.035886 0.000000
# 6 0.000000 0.000000 0.000000 0.000000 0.000000 0.029182
#
#
# Mechanical properties :
#
#
# Convention : Reuss Voigt Hill
#
# Bulk Modulus (GPa) = 79.24064 84.20193 81.72129
# Shear Modulus (GPa) = 21.79256 31.14314 26.46785
#
# Velocity S-wave (km/s) = 3.22611 3.85662 3.55537
# Velocity P-wave (km/s) = 7.19174 7.74886 7.47549
#
# Compressibility (1/GPa) = 0.01261979
#
# Stress axis : x y z
#
# Youngs Moduli (GPa) = 32.14155 32.14151 160.72328
#
# Poissons Ratio (x) = 0.76307 0.33526
# Poissons Ratio (y) = 0.76307 0.33533
# Poissons Ratio (z) = 0.06705 0.06706
#
# Static dielectric constant tensor:
#      x y z
#    x 1.838710 0.000000 0.000000 
#    y 0.000000 1.838710 0.000000 
#    z 0.000000 0.000000 1.730530 
# 
# From -- ./inp_files/3908.got.cif
#   From: 2010.05.17/outbox.cif.g08.bks.cpg/sg142_2_cif.got.tgz:3908.got - 2010.05.20 13:39:18.
