data_PCOD9573470
_publ_section_title
;
Structure prediction by ZEFSAII (Michael W. Deem and Ramdas Pophale) SiO2 
 PCOD9573470
Probable space group: I 41/A C D
;
_chemical_formula_sum "Si O2"
_cell_formula_units_Z 160
_cell_length_a 25.763764
_cell_length_b 25.763764
_cell_length_c 13.487571
_cell_angle_alpha 90.000000
_cell_angle_beta 90.000000
_cell_angle_gamma 90.000000
_cell_volume 8952.665712
_symmetry_space_group_name_H-M "I 41/A C D"
_symmetry_group_IT_number 142
_space_group.IT_coordinate_system_code '2'
_symmetry_cell_setting 'tetragonal'
loop_
_space_group_symop_operation_xyz
x,y,z
1/4-y,3/4+x,1/4+z
-x,1/2-y,z
1/4+y,1/4-x,3/4+z
x,-y,1/2-z
1/2-x,y,-z
3/4+y,1/4+x,1/4-z
1/4-y,1/4-x,1/4-z
-x,-y,-z
3/4+y,1/4-x,3/4-z
x,1/2+y,-z
3/4-y,3/4+x,1/4-z
-x,y,1/2+z
1/2+x,-y,z
1/4-y,3/4-x,3/4+z
3/4+y,3/4+x,3/4+z
1/2+x,1/2+y,1/2+z
3/4-y,1/4+x,3/4+z
1/2-x,-y,1/2+z
3/4+y,3/4-x,1/4+z
1/2+x,1/2-y,-z
-x,1/2+y,1/2-z
1/4+y,3/4+x,3/4-z
3/4-y,3/4-x,3/4-z
1/2-x,1/2-y,1/2-z
1/4+y,3/4-x,1/4-z
1/2+x,y,1/2-z
1/4-y,1/4+x,3/4-z
1/2-x,1/2+y,z
x,1/2-y,1/2+z
3/4-y,1/4-x,1/4+z
1/4+y,1/4+x,1/4+z
loop_
_atom_site_type_symbol
_atom_site_label
_atom_site_fract_x
_atom_site_fract_y
_atom_site_fract_z
Si Si1 0.961423 0.500000 0.750000
Si Si2 0.927707 0.720846 0.169206
Si Si3 0.416718 0.434265 0.568986
Si Si4 0.682366 0.301058 0.907482
Si Si5 0.160406 0.557578 0.764673
Si Si6 0.439487 0.189487 0.875000
O O1 0.930457 0.527482 0.659549
O O2 0.998825 0.542569 0.801718
O O3 0.933499 0.777602 0.123526
O O4 0.871447 0.694522 0.161551
O O5 0.943684 0.726887 0.283345
O O6 0.437091 0.449373 0.457288
O O7 0.354535 0.427126 0.556687
O O8 0.696150 0.348192 0.980864
O O9 0.619974 0.302808 0.908553
O O10 0.182234 0.500000 0.750000
O O11 0.174980 0.575021 0.875000
#
# Coordination Sequence:
#
# PCOD9573470 Si02
#       6
#    16  32  32  32  32  16
#     4  12  22  34  60  90 120 150 192 268 326 324
#     4  10  20  33  55  81 113 156 188 229 291 356
#     4  10  22  37  55  87 122 147 202 253 296 371
#     4  10  18  35  62  83 107 157 198 241 288 375
#     4  10  19  38  62  83 104 150 207 241 283 361
#     4  10  18  37  54  78 118 140 196 238 274 358
#
# _framework density 17.871770999999999
#
# number of rings (size 3 to 8) (size 9 to 14) (size 15 to 20)
#    0.000    1.800    6.000    1.800    0.000    1.600 
#    1.800    0.000    0.000    9.600    0.000    0.000 
#    0.000    0.000    0.000    0.000    0.000    0.000 
#
# Total GULP energy -445484.557074 kJ/mol
# GULP energy per Si atom -5568.556963 kJ/mol
# Density = 1.783109 g / cm^3
# Si number density = 17.871771 Si / 1000 Ang^3
#
#
#
# Elastic Constant Matrix: (Units=GPa)
#
#
# Indices 1 2 3 4 5 6 
#
# 1 101.2308 31.5738 33.1437 0.0000 0.0000 0.0000
# 2 31.5738 101.2308 33.1434 0.0000 0.0000 0.0000
# 3 33.1437 33.1434 82.0571 0.0000 0.0000 0.0000
# 4 0.0000 0.0000 0.0000 15.3588 0.0000 0.0000
# 5 0.0000 0.0000 0.0000 0.0000 15.3588 0.0000
# 6 0.0000 0.0000 0.0000 0.0000 0.0000 17.6758
#
#
#
# Elastic Compliance Matrix: (Units=1/GPa)
#
#
# Indices 1 2 3 4 5 6 
#
# 1 0.011894 -0.002462 -0.003809 0.000000 0.000000 0.000000
# 2 -0.002462 0.011894 -0.003809 0.000000 0.000000 0.000000
# 3 -0.003809 -0.003809 0.015264 0.000000 0.000000 0.000000
# 4 0.000000 0.000000 0.000000 0.065109 0.000000 0.000000
# 5 0.000000 0.000000 0.000000 0.000000 0.065109 0.000000
# 6 0.000000 0.000000 0.000000 0.000000 0.000000 0.056575
#
#
# Mechanical properties :
#
#
# Convention : Reuss Voigt Hill
#
# Bulk Modulus (GPa) = 52.94104 53.36007 53.15056
# Shear Modulus (GPa) = 19.81744 22.12252 20.96998
#
# Velocity S-wave (km/s) = 3.33358 3.52212 3.42915
# Velocity P-wave (km/s) = 6.67113 6.81634 6.74413
#
# Compressibility (1/GPa) = 0.01888894
#
# Stress axis : x y z
#
# Youngs Moduli (GPa) = 84.07837 84.07865 65.51411
#
# Poissons Ratio (x) = 0.20704 0.24957
# Poissons Ratio (y) = 0.20704 0.24956
# Poissons Ratio (z) = 0.32029 0.32028
#
# Static dielectric constant tensor:
#      x y z
#    x 1.652100 0.000000 0.000000 
#    y 0.000000 1.652090 0.000000 
#    z 0.000000 0.000000 1.641070 
# 
# From -- ./inp_files/3912.got.cif
#   From: 2010.05.17/outbox.cif.g08.bks.cpg/sg142_2_cif.got.tgz:3912.got - 2010.05.20 13:39:18.
