data_PCOD9573903
_publ_section_title
;
Structure prediction by ZEFSAII (Michael W. Deem and Ramdas Pophale) SiO2 
 PCOD9573903
Probable space group: I 41/A C D
;
_chemical_formula_sum "Si O2"
_cell_formula_units_Z 176
_cell_length_a 25.835947
_cell_length_b 25.835947
_cell_length_c 11.520281
_cell_angle_alpha 90.000000
_cell_angle_beta 90.000000
_cell_angle_gamma 90.000000
_cell_volume 7689.743300
_symmetry_space_group_name_H-M "I 41/A C D"
_symmetry_group_IT_number 142
_space_group.IT_coordinate_system_code '2'
_symmetry_cell_setting 'tetragonal'
loop_
_space_group_symop_operation_xyz
x,y,z
1/4-y,3/4+x,1/4+z
-x,1/2-y,z
1/4+y,1/4-x,3/4+z
x,-y,1/2-z
1/2-x,y,-z
3/4+y,1/4+x,1/4-z
1/4-y,1/4-x,1/4-z
-x,-y,-z
3/4+y,1/4-x,3/4-z
x,1/2+y,-z
3/4-y,3/4+x,1/4-z
-x,y,1/2+z
1/2+x,-y,z
1/4-y,3/4-x,3/4+z
3/4+y,3/4+x,3/4+z
1/2+x,1/2+y,1/2+z
3/4-y,1/4+x,3/4+z
1/2-x,-y,1/2+z
3/4+y,3/4-x,1/4+z
1/2+x,1/2-y,-z
-x,1/2+y,1/2-z
1/4+y,3/4+x,3/4-z
3/4-y,3/4-x,3/4-z
1/2-x,1/2-y,1/2-z
1/4+y,3/4-x,1/4-z
1/2+x,y,1/2-z
1/4-y,1/4+x,3/4-z
1/2-x,1/2+y,z
x,1/2-y,1/2+z
3/4-y,1/4-x,1/4+z
1/4+y,1/4+x,1/4+z
loop_
_atom_site_type_symbol
_atom_site_label
_atom_site_fract_x
_atom_site_fract_y
_atom_site_fract_z
Si Si1 0.287842 0.962159 0.125000
Si Si2 0.859321 0.759271 0.365392
Si Si3 0.806164 0.851107 0.485923
Si Si4 0.908343 0.956215 0.836414
Si Si5 0.085612 0.755309 0.615879
Si Si6 0.344076 0.939653 0.458958
O O1 0.339987 0.953803 0.198302
O O2 0.229489 0.952082 0.171978
O O3 0.836227 0.815744 0.396443
O O4 0.823149 0.708683 0.369050
O O5 0.891941 0.749109 0.485009
O O6 0.881070 0.761915 0.234119
O O7 0.750000 0.825331 0.500000
O O8 0.827080 0.863099 0.613702
O O9 0.863768 0.925347 0.764885
O O10 0.926634 0.000000 0.750000
O O11 0.875915 0.973989 0.948237
O O12 0.053043 0.703523 0.636143
#
# Coordination Sequence:
#
# PCOD9573903 Si02
#       6
#    16  32  32  32  32  32
#     4  10  22  42  70 100 135 190 248 300 353 428
#     4  12  26  43  76 104 147 189 244 303 388 458
#     4  10  23  42  66 101 143 188 243 302 365 448
#     4  11  25  42  66 103 148 193 240 305 376 453
#     4  11  27  48  72 104 137 183 246 318 375 449
#     4  10  23  43  69 100 145 193 251 306 373 437
#
# _framework density 22.887630999999999
#
# number of rings (size 3 to 8) (size 9 to 14) (size 15 to 20)
#    0.000    1.273    0.000    3.818   10.182    8.000 
#    0.000    6.364    0.000    0.000    0.000    0.000 
#    0.000    0.000    0.000    0.000    0.000    0.000 
#
# Total GULP energy -490052.997928 kJ/mol
# GULP energy per Si atom -5568.784067 kJ/mol
# Density = 2.283554 g / cm^3
# Si number density = 22.887631 Si / 1000 Ang^3
#
#
#
# Elastic Constant Matrix: (Units=GPa)
#
#
# Indices 1 2 3 4 5 6 
#
# 1 74.9112 8.2570 9.5822 0.0000 0.0000 0.0000
# 2 8.2570 74.9131 9.5814 0.0000 0.0000 0.0000
# 3 9.5822 9.5814 43.4583 0.0000 0.0000 0.0000
# 4 0.0000 0.0000 0.0000 42.8152 0.0000 0.0000
# 5 0.0000 0.0000 0.0000 0.0000 42.8148 0.0000
# 6 0.0000 0.0000 0.0000 0.0000 0.0000 61.5362
#
#
#
# Elastic Compliance Matrix: (Units=1/GPa)
#
#
# Indices 1 2 3 4 5 6 
#
# 1 0.013835 -0.001168 -0.002793 0.000000 0.000000 0.000000
# 2 -0.001168 0.013835 -0.002793 0.000000 0.000000 0.000000
# 3 -0.002793 -0.002793 0.024242 0.000000 0.000000 0.000000
# 4 0.000000 0.000000 0.000000 0.023356 0.000000 0.000000
# 5 0.000000 0.000000 0.000000 0.000000 0.023356 0.000000
# 6 0.000000 0.000000 0.000000 0.000000 0.000000 0.016251
#
#
# Mechanical properties :
#
#
# Convention : Reuss Voigt Hill
#
# Bulk Modulus (GPa) = 26.03829 27.56932 26.80380
# Shear Modulus (GPa) = 35.41482 40.49071 37.95277
#
# Velocity S-wave (km/s) = 3.93788 4.21064 4.07654
# Velocity P-wave (km/s) = 5.66367 5.97587 5.82186
#
# Compressibility (1/GPa) = 0.03840498
#
# Stress axis : x y z
#
# Youngs Moduli (GPa) = 72.27981 72.28201 41.25044
#
# Poissons Ratio (x) = 0.08440 0.11522
# Poissons Ratio (y) = 0.08440 0.11520
# Poissons Ratio (z) = 0.20188 0.20186
#
# Static dielectric constant tensor:
#      x y z
#    x 1.824250 0.000000 0.000000 
#    y 0.000000 1.824210 0.000000 
#    z 0.000000 0.000000 2.057660 
# 
# From -- ./inp_files/3964.got.cif
#   From: 2010.05.17/outbox.cif.g08.bks.cpg/sg142_2_cif.got.tgz:3964.got - 2010.05.20 13:39:18.
