data_PCOD9573553
_publ_section_title
;
Structure prediction by ZEFSAII (Michael W. Deem and Ramdas Pophale) SiO2 
 PCOD9573553
Probable space group: I 41/A C D
;
_chemical_formula_sum "Si O2"
_cell_formula_units_Z 128
_cell_length_a 17.577544
_cell_length_b 17.577544
_cell_length_c 20.012338
_cell_angle_alpha 90.000000
_cell_angle_beta 90.000000
_cell_angle_gamma 90.000000
_cell_volume 6183.213134
_symmetry_space_group_name_H-M "I 41/A C D"
_symmetry_group_IT_number 142
_space_group.IT_coordinate_system_code '2'
_symmetry_cell_setting 'tetragonal'
loop_
_space_group_symop_operation_xyz
x,y,z
1/4-y,3/4+x,1/4+z
-x,1/2-y,z
1/4+y,1/4-x,3/4+z
x,-y,1/2-z
1/2-x,y,-z
3/4+y,1/4+x,1/4-z
1/4-y,1/4-x,1/4-z
-x,-y,-z
3/4+y,1/4-x,3/4-z
x,1/2+y,-z
3/4-y,3/4+x,1/4-z
-x,y,1/2+z
1/2+x,-y,z
1/4-y,3/4-x,3/4+z
3/4+y,3/4+x,3/4+z
1/2+x,1/2+y,1/2+z
3/4-y,1/4+x,3/4+z
1/2-x,-y,1/2+z
3/4+y,3/4-x,1/4+z
1/2+x,1/2-y,-z
-x,1/2+y,1/2-z
1/4+y,3/4+x,3/4-z
3/4-y,3/4-x,3/4-z
1/2-x,1/2-y,1/2-z
1/4+y,3/4-x,1/4-z
1/2+x,y,1/2-z
1/4-y,1/4+x,3/4-z
1/2-x,1/2+y,z
x,1/2-y,1/2+z
3/4-y,1/4-x,1/4+z
1/4+y,1/4+x,1/4+z
loop_
_atom_site_type_symbol
_atom_site_label
_atom_site_fract_x
_atom_site_fract_y
_atom_site_fract_z
Si Si1 0.803137 0.215405 0.808566
Si Si2 0.786796 0.538843 0.568966
Si Si3 0.570507 0.803921 0.217625
Si Si4 0.700002 0.304311 0.899052
O O1 0.750000 0.250000 0.750000
O O2 0.890177 0.227739 0.785169
O O3 0.766983 0.247226 0.876922
O O4 0.799553 0.125007 0.808202
O O5 0.750000 0.513730 0.500000
O O6 0.773173 0.476828 0.625000
O O7 0.742708 0.615332 0.591945
O O8 0.500000 0.750000 0.201098
O O9 0.638768 0.800617 0.162302
O O10 0.544976 0.893012 0.212489
#
# Coordination Sequence:
#
# PCOD9573553 Si02
#       4
#    32  32  32  32
#     4  10  22  39  63  98 136 179 236 289 341 437
#     4  12  22  43  73  98 140 191 232 295 363 420
#     4  10  19  38  69  96 135 186 224 292 363 429
#     4  10  19  39  63  97 133 176 235 284 353 424
#
# _framework density 20.70121
#
# number of rings (size 3 to 8) (size 9 to 14) (size 15 to 20)
#    0.000    1.500    5.000    3.000    0.000    4.000 
#    4.500    1.250    0.000    0.000    0.000    0.000 
#    0.000    0.000    0.000    0.000    0.000    0.000 
#
# Total GULP energy -356298.283114 kJ/mol
# GULP energy per Si atom -5567.160674 kJ/mol
# Density = 2.065409 g / cm^3
# Si number density = 20.701210 Si / 1000 Ang^3
#
#
#
# Elastic Constant Matrix: (Units=GPa)
#
#
# Indices 1 2 3 4 5 6 
#
# 1 99.8717 46.5333 36.0004 0.0000 0.0000 0.0000
# 2 46.5333 99.8723 36.0029 0.0000 0.0000 0.0000
# 3 36.0004 36.0029 56.3278 0.0000 0.0000 0.0000
# 4 0.0000 0.0000 0.0000 -47.3733 0.0000 0.0000
# 5 0.0000 0.0000 0.0000 0.0000 -47.2532 0.0000
# 6 0.0000 0.0000 0.0000 0.0000 0.0000 39.4980
#
#
#
# Elastic Compliance Matrix: (Units=1/GPa)
#
#
# Indices 1 2 3 4 5 6 
#
# 1 0.014355 -0.004393 -0.006366 0.000000 0.000000 0.000000
# 2 -0.004393 0.014355 -0.006368 0.000000 0.000000 0.000000
# 3 -0.006366 -0.006368 0.025892 0.000000 0.000000 0.000000
# 4 0.000000 0.000000 0.000000 -0.021109 0.000000 0.000000
# 5 0.000000 0.000000 0.000000 0.000000 -0.021163 0.000000
# 6 0.000000 0.000000 0.000000 0.000000 0.000000 0.025318
#
#
# Mechanical properties :
#
#
# Convention : Reuss Voigt Hill
#
# Bulk Modulus (GPa) = 49.14595 54.79390 51.96992
# Shear Modulus (GPa) = 63.54472 -1.85666 30.84403
#
# Velocity S-wave (km/s) = 5.54642 -0.94807 3.86419
# Velocity P-wave (km/s) = 8.05042 5.03269 6.71331
#
# Compressibility (1/GPa) = 0.02034756
#
# Stress axis : x y z
#
# Youngs Moduli (GPa) = 69.66389 69.66153 38.62190
#
# Poissons Ratio (x) = 0.30604 0.24588
# Poissons Ratio (y) = 0.30605 0.24593
# Poissons Ratio (z) = 0.44351 0.44357
#
# Static dielectric constant tensor:
#      x y z
#    x 1.911470 0.000000 0.000000 
#    y 0.000000 1.911440 0.000000 
#    z 0.000000 0.000000 1.781240 
# 
# From -- ./inp_files/9961.got.cif
#   From: 2010.05.17/outbox.cif.g08.bks.cpg/sg142_5_cif.got.tgz:9961.got - 2010.05.20 13:39:18.
