data_PCOD9573355
_publ_section_title
;
Structure prediction by ZEFSAII (Michael W. Deem and Ramdas Pophale) SiO2 
 PCOD9573355
Probable space group: I 41/A M D
;
_chemical_formula_sum "Si O2"
_cell_formula_units_Z 136
_cell_length_a 23.270625
_cell_length_b 23.270625
_cell_length_c 11.503187
_cell_angle_alpha 90.000000
_cell_angle_beta 90.000000
_cell_angle_gamma 90.000000
_cell_volume 6229.228691
_symmetry_space_group_name_H-M "I 41/A M D"
_symmetry_group_IT_number 141
_space_group.IT_coordinate_system_code '2'
_symmetry_cell_setting 'tetragonal'
loop_
_space_group_symop_operation_xyz
x,y,z
1/4-y,3/4+x,1/4+z
-x,1/2-y,z
1/4+y,1/4-x,3/4+z
x,-y,-z
-x,1/2+y,-z
1/4+y,3/4+x,1/4-z
1/4-y,1/4-x,3/4-z
-x,-y,-z
3/4+y,1/4-x,3/4-z
x,1/2+y,-z
3/4-y,3/4+x,1/4-z
-x,y,z
x,1/2-y,z
3/4-y,1/4-x,3/4+z
3/4+y,3/4+x,1/4+z
1/2+x,1/2+y,1/2+z
3/4-y,1/4+x,3/4+z
1/2-x,-y,1/2+z
3/4+y,3/4-x,1/4+z
1/2+x,1/2-y,1/2-z
1/2-x,y,1/2-z
3/4+y,1/4+x,3/4-z
3/4-y,3/4-x,1/4-z
1/2-x,1/2-y,1/2-z
1/4+y,3/4-x,1/4-z
1/2+x,y,1/2-z
1/4-y,1/4+x,3/4-z
1/2-x,1/2+y,1/2+z
1/2+x,-y,1/2+z
1/4-y,3/4-x,1/4+z
1/4+y,1/4+x,3/4+z
loop_
_atom_site_type_symbol
_atom_site_label
_atom_site_fract_x
_atom_site_fract_y
_atom_site_fract_z
Si Si1 0.827181 0.750000 0.018773
Si Si2 0.118819 0.631182 0.625000
Si Si3 0.000000 0.869258 0.490222
Si Si4 0.500000 0.750000 0.624166
Si Si5 0.122079 0.430162 0.136055
Si Si6 0.876092 0.446797 0.797054
Si Si7 0.370028 0.750000 0.222156
O O1 0.791749 0.692838 0.031653
O O2 0.865808 0.750000 0.136763
O O3 0.853832 0.750000 0.889980
O O4 0.057151 0.620926 0.564071
O O5 0.121717 0.586307 0.729183
O O6 0.000000 0.803207 0.458513
O O7 0.500000 0.811688 0.557896
O O8 0.141165 0.496681 0.133735
O O9 0.059265 0.410277 0.080009
O O10 0.174626 0.397037 0.074972
O O11 0.857743 0.392258 0.875000
#
# Coordination Sequence:
#
# PCOD9573355 Si02
#       7
#    16  16  16   8  32  32  16
#     4  12  25  45  77 106 147 179 252 321 376 454
#     4  12  24  47  70 104 154 188 248 298 378 455
#     4  12  24  43  70 110 147 197 233 305 377 467
#     4  12  22  40  70 108 152 179 231 296 382 450
#     4  12  27  48  74 108 150 201 253 307 375 453
#     4  12  26  50  75 109 146 196 256 314 379 446
#     4  12  24  46  76 116 148 196 243 320 394 450
#
# _framework density 21.832557999999999
#
# number of rings (size 3 to 8) (size 9 to 14) (size 15 to 20)
#    0.000    0.000    7.059    2.824    0.000    2.353 
#    6.353    1.176    0.000    0.000    0.000    0.000 
#    0.000    0.000    0.000    0.000    0.000    0.000 
#
# Total GULP energy -379023.191889 kJ/mol
# GULP energy per Si atom -5573.870469 kJ/mol
# Density = 2.178287 g / cm^3
# Si number density = 21.832558 Si / 1000 Ang^3
#
#
#
# Elastic Constant Matrix: (Units=GPa)
#
#
# Indices 1 2 3 4 5 6 
#
# 1 68.3321 12.0252 20.7652 0.0000 0.0000 0.0000
# 2 12.0252 68.3382 20.7631 0.0000 0.0000 0.0000
# 3 20.7652 20.7631 163.9643 0.0000 0.0000 0.0000
# 4 0.0000 0.0000 0.0000 160.8741 0.0000 0.0000
# 5 0.0000 0.0000 0.0000 0.0000 160.9595 0.0000
# 6 0.0000 0.0000 0.0000 0.0000 0.0000 55.2258
#
#
#
# Elastic Compliance Matrix: (Units=1/GPa)
#
#
# Indices 1 2 3 4 5 6 
#
# 1 0.015538 -0.002222 -0.001686 0.000000 0.000000 0.000000
# 2 -0.002222 0.015536 -0.001686 0.000000 0.000000 0.000000
# 3 -0.001686 -0.001686 0.006526 0.000000 0.000000 0.000000
# 4 0.000000 0.000000 0.000000 0.006216 0.000000 0.000000
# 5 0.000000 0.000000 0.000000 0.000000 0.006213 0.000000
# 6 0.000000 0.000000 0.000000 0.000000 0.000000 0.018107
#
#
# Mechanical properties :
#
#
# Convention : Reuss Voigt Hill
#
# Bulk Modulus (GPa) = 37.86195 45.30464 41.58330
# Shear Modulus (GPa) = 56.73512 91.88394 74.30953
#
# Velocity S-wave (km/s) = 5.10322 6.49439 5.84038
# Velocity P-wave (km/s) = 7.21827 8.77680 8.03541
#
# Compressibility (1/GPa) = 0.02641174
#
# Stress axis : x y z
#
# Youngs Moduli (GPa) = 64.35880 64.36525 153.23391
#
# Poissons Ratio (x) = 0.14300 0.25842
# Poissons Ratio (y) = 0.14299 0.25836
# Poissons Ratio (z) = 0.10854 0.10852
#
# Static dielectric constant tensor:
#      x y z
#    x 1.836020 0.000000 0.000000 
#    y 0.000000 1.836020 0.000000 
#    z 0.000000 0.000000 1.850890 
# 
# From -- ./inp_files/4711.got.cif
#   From: 2010.05.17/outbox.cif.g08.bks.cpg/sg141_3_cif.got.tgz:4711.got - 2010.05.20 13:30:51.
