data_PCOD9573557
_publ_section_title
;
Structure prediction by ZEFSAII (Michael W. Deem and Ramdas Pophale) SiO2 
 PCOD9573557
Probable space group: I 41/A C D
;
_chemical_formula_sum "Si O2"
_cell_formula_units_Z 216
_cell_length_a 29.274755
_cell_length_b 29.274755
_cell_length_c 12.240391
_cell_angle_alpha 90.000000
_cell_angle_beta 90.000000
_cell_angle_gamma 90.000000
_cell_volume 10490.153162
_symmetry_space_group_name_H-M "I 41/A C D"
_symmetry_group_IT_number 142
_space_group.IT_coordinate_system_code '2'
_symmetry_cell_setting 'tetragonal'
loop_
_space_group_symop_operation_xyz
x,y,z
1/4-y,3/4+x,1/4+z
-x,1/2-y,z
1/4+y,1/4-x,3/4+z
x,-y,1/2-z
1/2-x,y,-z
3/4+y,1/4+x,1/4-z
1/4-y,1/4-x,1/4-z
-x,-y,-z
3/4+y,1/4-x,3/4-z
x,1/2+y,-z
3/4-y,3/4+x,1/4-z
-x,y,1/2+z
1/2+x,-y,z
1/4-y,3/4-x,3/4+z
3/4+y,3/4+x,3/4+z
1/2+x,1/2+y,1/2+z
3/4-y,1/4+x,3/4+z
1/2-x,-y,1/2+z
3/4+y,3/4-x,1/4+z
1/2+x,1/2-y,-z
-x,1/2+y,1/2-z
1/4+y,3/4+x,3/4-z
3/4-y,3/4-x,3/4-z
1/2-x,1/2-y,1/2-z
1/4+y,3/4-x,1/4-z
1/2+x,y,1/2-z
1/4-y,1/4+x,3/4-z
1/2-x,1/2+y,z
x,1/2-y,1/2+z
3/4-y,1/4-x,1/4+z
1/4+y,1/4+x,1/4+z
loop_
_atom_site_type_symbol
_atom_site_label
_atom_site_fract_x
_atom_site_fract_y
_atom_site_fract_z
Si Si1 0.406496 0.760874 0.753456
Si Si2 0.972976 0.894783 0.318167
Si Si3 0.068972 0.975528 0.960116
Si Si4 0.000000 0.250000 0.125000
Si Si5 0.285225 0.752887 0.902804
Si Si6 0.250000 0.533995 0.500000
Si Si7 0.347590 0.577725 0.501441
Si Si8 0.090716 0.341195 0.924458
O O1 0.372137 0.760997 0.651392
O O2 0.456715 0.754063 0.704150
O O3 0.396246 0.712356 0.812321
O O4 0.404191 0.806853 0.822909
O O5 0.944230 0.934504 0.377470
O O6 0.993585 0.916796 0.210446
O O7 0.940030 0.854935 0.278212
O O8 0.051619 0.021155 0.900386
O O9 0.120759 0.967690 0.994475
O O10 0.035706 0.969382 0.062833
O O11 0.250000 0.743054 0.000000
O O12 0.260389 0.510389 0.625000
O O13 0.295517 0.564021 0.476570
O O14 0.346301 0.596301 0.625000
O O15 0.375051 0.615356 0.429683
#
# Coordination Sequence:
#
# PCOD9573557 Si02
#       8
#    32  32  32   8  32  16  32  32
#     4  12  24  38  58  86 129 184 240 286 348 398
#     4  11  20  37  59  88 127 172 230 281 335 402
#     4  10  19  39  64  98 134 173 216 277 354 421
#     4  12  24  42  56  84 134 196 252 290 328 424
#     4   9  21  36  62 100 136 171 215 275 354 428
#     4  10  26  52  84 112 144 188 246 306 382 478
#     4  11  22  43  73 104 130 174 233 301 364 434
#     4  12  23  40  63  92 130 182 236 298 342 409
#
# _framework density 20.590738000000002
#
# number of rings (size 3 to 8) (size 9 to 14) (size 15 to 20)
#    0.000    1.185    4.444    1.778    0.000    2.370 
#    2.667    0.000    1.630    0.000    0.000    0.000 
#    0.000    0.000    0.000    0.000    0.000    0.000 
#
# Total GULP energy -602488.036525 kJ/mol
# GULP energy per Si atom -5578.592931 kJ/mol
# Density = 2.054387 g / cm^3
# Si number density = 20.590738 Si / 1000 Ang^3
#
#
#
# Elastic Constant Matrix: (Units=GPa)
#
#
# Indices 1 2 3 4 5 6 
#
# 1 107.6337 60.2228 57.7531 0.0000 0.0000 0.0000
# 2 60.2228 107.6337 57.7531 0.0000 0.0000 0.0000
# 3 57.7531 57.7531 104.8791 0.0000 0.0000 0.0000
# 4 0.0000 0.0000 0.0000 28.6939 0.0000 0.0000
# 5 0.0000 0.0000 0.0000 0.0000 28.6939 0.0000
# 6 0.0000 0.0000 0.0000 0.0000 0.0000 26.8085
#
#
#
# Elastic Compliance Matrix: (Units=1/GPa)
#
#
# Indices 1 2 3 4 5 6 
#
# 1 0.015342 -0.005750 -0.005282 0.000000 0.000000 0.000000
# 2 -0.005750 0.015342 -0.005282 0.000000 0.000000 0.000000
# 3 -0.005282 -0.005282 0.015352 0.000000 0.000000 0.000000
# 4 0.000000 0.000000 0.000000 0.034851 0.000000 0.000000
# 5 0.000000 0.000000 0.000000 0.000000 0.034851 0.000000
# 6 0.000000 0.000000 0.000000 0.000000 0.000000 0.037302
#
#
# Mechanical properties :
#
#
# Convention : Reuss Voigt Hill
#
# Bulk Modulus (GPa) = 74.58134 74.62272 74.60203
# Shear Modulus (GPa) = 26.29685 26.46711 26.38198
#
# Velocity S-wave (km/s) = 3.57756 3.58912 3.58334
# Velocity P-wave (km/s) = 7.30511 7.31405 7.30958
#
# Compressibility (1/GPa) = 0.01340818
#
# Stress axis : x y z
#
# Youngs Moduli (GPa) = 65.17978 65.17978 65.13784
#
# Poissons Ratio (x) = 0.37478 0.34406
# Poissons Ratio (y) = 0.37478 0.34406
# Poissons Ratio (z) = 0.34428 0.34428
#
# Static dielectric constant tensor:
#      x y z
#    x 1.781880 0.000000 0.000000 
#    y 0.000000 1.781880 0.000000 
#    z 0.000000 0.000000 1.789080 
# 
# From -- ./inp_files/4243.got.cif
#   From: 2010.05.17/outbox.cif.g08.bks.cpg/sg142_3_cif.got.tgz:4243.got - 2010.05.20 13:39:18.
