data_PCOD9573025
_publ_section_title
;
Structure prediction by ZEFSAII (Michael W. Deem and Ramdas Pophale) SiO2 
 PCOD9573025
Probable space group: I 41/A M D
;
_chemical_formula_sum "Si O2"
_cell_formula_units_Z 176
_cell_length_a 29.339361
_cell_length_b 29.339361
_cell_length_c 11.074410
_cell_angle_alpha 90.000000
_cell_angle_beta 90.000000
_cell_angle_gamma 90.000000
_cell_volume 9532.831130
_symmetry_space_group_name_H-M "I 41/A M D"
_symmetry_group_IT_number 141
_space_group.IT_coordinate_system_code '2'
_symmetry_cell_setting 'tetragonal'
loop_
_space_group_symop_operation_xyz
x,y,z
1/4-y,3/4+x,1/4+z
-x,1/2-y,z
1/4+y,1/4-x,3/4+z
x,-y,-z
-x,1/2+y,-z
1/4+y,3/4+x,1/4-z
1/4-y,1/4-x,3/4-z
-x,-y,-z
3/4+y,1/4-x,3/4-z
x,1/2+y,-z
3/4-y,3/4+x,1/4-z
-x,y,z
x,1/2-y,z
3/4-y,1/4-x,3/4+z
3/4+y,3/4+x,1/4+z
1/2+x,1/2+y,1/2+z
3/4-y,1/4+x,3/4+z
1/2-x,-y,1/2+z
3/4+y,3/4-x,1/4+z
1/2+x,1/2-y,1/2-z
1/2-x,y,1/2-z
3/4+y,1/4+x,3/4-z
3/4-y,3/4-x,1/4-z
1/2-x,1/2-y,1/2-z
1/4+y,3/4-x,1/4-z
1/2+x,y,1/2-z
1/4-y,1/4+x,3/4-z
1/2-x,1/2+y,1/2+z
1/2+x,-y,1/2+z
1/4-y,3/4-x,1/4+z
1/4+y,1/4+x,3/4+z
loop_
_atom_site_type_symbol
_atom_site_label
_atom_site_fract_x
_atom_site_fract_y
_atom_site_fract_z
Si Si1 0.555360 0.801680 0.738779
Si Si2 0.634173 0.471871 0.769528
Si Si3 0.632958 0.195922 0.817531
Si Si4 0.553979 0.984608 0.638173
Si Si5 0.629784 0.120216 0.625000
Si Si6 0.799987 0.950608 0.489087
O O1 0.500000 0.800084 0.735317
O O2 0.571682 0.750000 0.716249
O O3 0.570016 0.839379 0.644034
O O4 0.566443 0.816443 0.875000
O O5 0.583800 0.491516 0.741995
O O6 0.634367 0.422410 0.712282
O O7 0.665322 0.510538 0.703640
O O8 0.658058 0.461823 0.899459
O O9 0.629412 0.250000 0.794609
O O10 0.680150 0.188621 0.888701
O O11 0.633747 0.167270 0.696121
O O12 0.500000 0.994065 0.651675
O O13 0.566643 0.000000 0.500000
O O14 0.814321 0.935680 0.625000
O O15 0.776696 0.000000 0.500000
#
# Coordination Sequence:
#
# PCOD9573025 Si02
#       6
#    32  32  32  32  16  32
#     4   8  15  32  59  86 112 147 192 243 300 356
#     4  11  22  36  60  87 116 151 199 251 301 360
#     4  10  21  37  55  84 123 162 203 245 296 359
#     4  10  20  38  58  80 117 167 208 244 289 358
#     4  12  24  32  54  89 114 154 202 240 292 368
#     4   9  21  39  59  85 116 152 183 241 313 366
#
# _framework density 18.462510999999999
#
# number of rings (size 3 to 8) (size 9 to 14) (size 15 to 20)
#    0.000    2.182    1.818    1.636    3.818    0.727 
#    0.000    9.091    0.000    4.909    0.000    0.000 
#    0.000    0.000    0.000    0.000    0.000    0.000 
#
# Total GULP energy -489913.263897 kJ/mol
# GULP energy per Si atom -5567.196181 kJ/mol
# Density = 1.842049 g / cm^3
# Si number density = 18.462511 Si / 1000 Ang^3
#
#
#
# Elastic Constant Matrix: (Units=GPa)
#
#
# Indices 1 2 3 4 5 6 
#
# 1 73.7404 30.1217 41.9566 0.0000 0.0000 0.0000
# 2 30.1217 73.7403 41.9565 0.0000 0.0000 0.0000
# 3 41.9566 41.9565 91.5157 0.0000 0.0000 0.0000
# 4 0.0000 0.0000 0.0000 31.6633 0.0000 0.0000
# 5 0.0000 0.0000 0.0000 0.0000 31.6631 0.0000
# 6 0.0000 0.0000 0.0000 0.0000 0.0000 24.6652
#
#
#
# Elastic Compliance Matrix: (Units=1/GPa)
#
#
# Indices 1 2 3 4 5 6 
#
# 1 0.019109 -0.003817 -0.007011 0.000000 0.000000 0.000000
# 2 -0.003817 0.019109 -0.007011 0.000000 0.000000 0.000000
# 3 -0.007011 -0.007011 0.017356 0.000000 0.000000 0.000000
# 4 0.000000 0.000000 0.000000 0.031582 0.000000 0.000000
# 5 0.000000 0.000000 0.000000 0.000000 0.031582 0.000000
# 6 0.000000 0.000000 0.000000 0.000000 0.000000 0.040543
#
#
# Mechanical properties :
#
#
# Convention : Reuss Voigt Hill
#
# Bulk Modulus (GPa) = 50.25989 51.89625 51.07807
# Shear Modulus (GPa) = 24.80256 25.92909 25.36583
#
# Velocity S-wave (km/s) = 3.66922 3.75162 3.71065
# Velocity P-wave (km/s) = 6.72552 6.85100 6.78855
#
# Compressibility (1/GPa) = 0.01989658
#
# Stress axis : x y z
#
# Youngs Moduli (GPa) = 52.33051 52.33054 57.61781
#
# Poissons Ratio (x) = 0.19973 0.40397
# Poissons Ratio (y) = 0.19973 0.40396
# Poissons Ratio (z) = 0.36690 0.36689
#
# Static dielectric constant tensor:
#      x y z
#    x 1.643430 0.000000 0.000000 
#    y 0.000000 1.643430 0.000000 
#    z 0.000000 0.000000 1.688240 
# 
# From -- ./inp_files/5056.got.cif
#   From: 2010.05.17/outbox.cif.g08.bks.cpg/sg141_3_cif.got.tgz:5056.got - 2010.05.20 13:30:51.
