data_PCOD9573195
_publ_section_title
;
Structure prediction by ZEFSAII (Michael W. Deem and Ramdas Pophale) SiO2 
 PCOD9573195
Probable space group: I 41/A M D
;
_chemical_formula_sum "Si O2"
_cell_formula_units_Z 64
_cell_length_a 10.885287
_cell_length_b 10.885287
_cell_length_c 26.126911
_cell_angle_alpha 90.000000
_cell_angle_beta 90.000000
_cell_angle_gamma 90.000000
_cell_volume 3095.763917
_symmetry_space_group_name_H-M "I 41/A M D"
_symmetry_group_IT_number 141
_space_group.IT_coordinate_system_code '2'
_symmetry_cell_setting 'tetragonal'
loop_
_space_group_symop_operation_xyz
x,y,z
1/4-y,3/4+x,1/4+z
-x,1/2-y,z
1/4+y,1/4-x,3/4+z
x,-y,-z
-x,1/2+y,-z
1/4+y,3/4+x,1/4-z
1/4-y,1/4-x,3/4-z
-x,-y,-z
3/4+y,1/4-x,3/4-z
x,1/2+y,-z
3/4-y,3/4+x,1/4-z
-x,y,z
x,1/2-y,z
3/4-y,1/4-x,3/4+z
3/4+y,3/4+x,1/4+z
1/2+x,1/2+y,1/2+z
3/4-y,1/4+x,3/4+z
1/2-x,-y,1/2+z
3/4+y,3/4-x,1/4+z
1/2+x,1/2-y,1/2-z
1/2-x,y,1/2-z
3/4+y,1/4+x,3/4-z
3/4-y,3/4-x,1/4-z
1/2-x,1/2-y,1/2-z
1/4+y,3/4-x,1/4-z
1/2+x,y,1/2-z
1/4-y,1/4+x,3/4-z
1/2-x,1/2+y,1/2+z
1/2+x,-y,1/2+z
1/4-y,3/4-x,1/4+z
1/4+y,1/4+x,3/4+z
loop_
_atom_site_type_symbol
_atom_site_label
_atom_site_fract_x
_atom_site_fract_y
_atom_site_fract_z
Si Si1 0.703393 0.546608 0.875000
Si Si2 0.000000 0.106787 0.458382
Si Si3 0.859406 0.895131 0.287412
O O1 0.668655 0.635965 0.828795
O O2 0.830920 0.570381 0.903529
O O3 0.000000 0.250000 0.475507
O O4 0.000000 0.000000 0.500000
O O5 0.865675 0.750000 0.278593
O O6 0.750000 0.942593 0.250000
O O7 0.000000 0.942398 0.278538
#
# Coordination Sequence:
#
# PCOD9573195 Si02
#       3
#    16  16  32
#     4  12  21  40  62  87 128 164 214 282 330 415
#     4  12  24  40  64  92 130 172 218 278 342 408
#     4  10  22  40  63  91 129 174 223 281 344 414
#
# _framework density 20.673413
#
# number of rings (size 3 to 8) (size 9 to 14) (size 15 to 20)
#    0.000    1.000    5.000    1.500    0.000    4.000 
#    0.000    0.000    0.000    0.000    0.000    0.000 
#    0.000    0.000    0.000    0.000    0.000    0.000 
#
# Total GULP energy -178266.404006 kJ/mol
# GULP energy per Si atom -5570.825125 kJ/mol
# Density = 2.062636 g / cm^3
# Si number density = 20.673413 Si / 1000 Ang^3
#
#
#
# Elastic Constant Matrix: (Units=GPa)
#
#
# Indices 1 2 3 4 5 6 
#
# 1 93.4031 48.4417 65.1272 0.0000 0.0000 0.0000
# 2 48.4417 93.4031 65.1265 0.0000 0.0000 0.0000
# 3 65.1272 65.1265 120.5345 0.0000 0.0000 0.0000
# 4 0.0000 0.0000 0.0000 34.8468 0.0000 0.0000
# 5 0.0000 0.0000 0.0000 0.0000 34.8477 0.0000
# 6 0.0000 0.0000 0.0000 0.0000 0.0000 22.9811
#
#
#
# Elastic Compliance Matrix: (Units=1/GPa)
#
#
# Indices 1 2 3 4 5 6 
#
# 1 0.018117 -0.004124 -0.007561 0.000000 0.000000 0.000000
# 2 -0.004124 0.018117 -0.007560 0.000000 0.000000 0.000000
# 3 -0.007561 -0.007560 0.016466 0.000000 0.000000 0.000000
# 4 0.000000 0.000000 0.000000 0.028697 0.000000 0.000000
# 5 0.000000 0.000000 0.000000 0.000000 0.028696 0.000000
# 6 0.000000 0.000000 0.000000 0.000000 0.000000 0.043514
#
#
# Mechanical properties :
#
#
# Convention : Reuss Voigt Hill
#
# Bulk Modulus (GPa) = 70.37361 73.85907 72.11634
# Shear Modulus (GPa) = 25.40203 27.11149 26.25676
#
# Velocity S-wave (km/s) = 3.50913 3.62528 3.56768
# Velocity P-wave (km/s) = 7.10867 7.30258 7.20628
#
# Compressibility (1/GPa) = 0.01420987
#
# Stress axis : x y z
#
# Youngs Moduli (GPa) = 55.19663 55.19729 60.72961
#
# Poissons Ratio (x) = 0.22765 0.45915
# Poissons Ratio (y) = 0.22765 0.45913
# Poissons Ratio (z) = 0.41732 0.41731
#
# Static dielectric constant tensor:
#      x y z
#    x 3.699020 0.000000 0.000000 
#    y 0.000000 3.697780 0.000000 
#    z 0.000000 0.000000 1.688940 
# 
# From -- ./inp_files/9452.got.cif
#   From: 2010.05.17/outbox.cif.g08.bks.cpg/sg141_5_cif.got.tgz:9452.got - 2010.05.20 13:30:51.
