data_PCOD9573023
_publ_section_title
;
Structure prediction by ZEFSAII (Michael W. Deem and Ramdas Pophale) SiO2 
 PCOD9573023
Probable space group: I 41/A M D
;
_chemical_formula_sum "Si O2"
_cell_formula_units_Z 176
_cell_length_a 17.537349
_cell_length_b 17.537349
_cell_length_c 32.713244
_cell_angle_alpha 90.000000
_cell_angle_beta 90.000000
_cell_angle_gamma 90.000000
_cell_volume 10061.239852
_symmetry_space_group_name_H-M "I 41/A M D"
_symmetry_group_IT_number 141
_space_group.IT_coordinate_system_code '2'
_symmetry_cell_setting 'tetragonal'
loop_
_space_group_symop_operation_xyz
x,y,z
1/4-y,3/4+x,1/4+z
-x,1/2-y,z
1/4+y,1/4-x,3/4+z
x,-y,-z
-x,1/2+y,-z
1/4+y,3/4+x,1/4-z
1/4-y,1/4-x,3/4-z
-x,-y,-z
3/4+y,1/4-x,3/4-z
x,1/2+y,-z
3/4-y,3/4+x,1/4-z
-x,y,z
x,1/2-y,z
3/4-y,1/4-x,3/4+z
3/4+y,3/4+x,1/4+z
1/2+x,1/2+y,1/2+z
3/4-y,1/4+x,3/4+z
1/2-x,-y,1/2+z
3/4+y,3/4-x,1/4+z
1/2+x,1/2-y,1/2-z
1/2-x,y,1/2-z
3/4+y,1/4+x,3/4-z
3/4-y,3/4-x,1/4-z
1/2-x,1/2-y,1/2-z
1/4+y,3/4-x,1/4-z
1/2+x,y,1/2-z
1/4-y,1/4+x,3/4-z
1/2-x,1/2+y,1/2+z
1/2+x,-y,1/2+z
1/4-y,3/4-x,1/4+z
1/4+y,1/4+x,3/4+z
loop_
_atom_site_type_symbol
_atom_site_label
_atom_site_fract_x
_atom_site_fract_y
_atom_site_fract_z
Si Si1 0.804568 0.836066 0.646485
Si Si2 0.169325 0.121358 0.087969
Si Si3 0.587905 0.970143 0.652409
Si Si4 0.000000 0.157000 0.715687
Si Si5 0.776042 0.006373 0.548775
Si Si6 0.120036 0.129965 0.875000
Si Si7 0.413185 0.250000 0.556067
O O1 0.814015 0.750000 0.661416
O O2 0.879621 0.870380 0.625000
O O3 0.739322 0.838952 0.611637
O O4 0.776990 0.896410 0.680827
O O5 0.109773 0.100207 0.123776
O O6 0.127803 0.175746 0.056154
O O7 0.208295 0.046429 0.067360
O O8 0.500000 0.969390 0.666877
O O9 0.655506 0.979667 0.685823
O O10 0.599848 0.041946 0.622226
O O11 0.000000 0.124648 0.762252
O O12 0.000000 0.250000 0.712034
O O13 0.776603 0.000000 0.500000
O O14 0.072449 0.151740 0.835046
O O15 0.500000 0.250000 0.544362
#
# Coordination Sequence:
#
# PCOD9573023 Si02
#       7
#    32  32  32  16  32  16  16
#     4   9  18  36  60  84 113 154 192 233 297 355
#     4  10  20  38  57  81 118 150 191 245 291 352
#     4  11  21  36  60  82 110 155 201 238 294 355
#     4  11  24  36  56  86 114 147 192 247 300 344
#     4  10  22  37  57  88 119 153 198 245 298 362
#     4  12  19  34  54  74 104 152 191 226 278 342
#     4  11  22  36  52  80 111 149 192 233 287 342
#
# _framework density 17.492872999999999
#
# number of rings (size 3 to 8) (size 9 to 14) (size 15 to 20)
#    0.000    1.636    4.545    1.636    2.545    0.545 
#    0.000    0.000    0.000    4.364    0.000    0.000 
#    0.000    0.000    0.000    0.000    0.000    0.000 
#
# Total GULP energy -490043.112364 kJ/mol
# GULP energy per Si atom -5568.671731 kJ/mol
# Density = 1.745306 g / cm^3
# Si number density = 17.492873 Si / 1000 Ang^3
#
#
#
# Elastic Constant Matrix: (Units=GPa)
#
#
# Indices 1 2 3 4 5 6 
#
# 1 110.8728 42.8169 44.7378 0.0000 0.0000 0.0000
# 2 42.8169 110.8733 44.7381 0.0000 0.0000 0.0000
# 3 44.7378 44.7381 125.4209 0.0000 0.0000 0.0000
# 4 0.0000 0.0000 0.0000 19.8197 0.0000 0.0000
# 5 0.0000 0.0000 0.0000 0.0000 19.8169 0.0000
# 6 0.0000 0.0000 0.0000 0.0000 0.0000 17.6863
#
#
#
# Elastic Compliance Matrix: (Units=1/GPa)
#
#
# Indices 1 2 3 4 5 6 
#
# 1 0.011453 -0.003241 -0.002929 0.000000 0.000000 0.000000
# 2 -0.003241 0.011453 -0.002929 0.000000 0.000000 0.000000
# 3 -0.002929 -0.002929 0.010063 0.000000 0.000000 0.000000
# 4 0.000000 0.000000 0.000000 0.050455 0.000000 0.000000
# 5 0.000000 0.000000 0.000000 0.000000 0.050462 0.000000
# 6 0.000000 0.000000 0.000000 0.000000 0.000000 0.056541
#
#
# Mechanical properties :
#
#
# Convention : Reuss Voigt Hill
#
# Bulk Modulus (GPa) = 67.70535 67.97253 67.83894
# Shear Modulus (GPa) = 23.41389 25.78952 24.60170
#
# Velocity S-wave (km/s) = 3.66250 3.84381 3.75425
# Velocity P-wave (km/s) = 7.52820 7.65777 7.59326
#
# Compressibility (1/GPa) = 0.01476988
#
# Stress axis : x y z
#
# Youngs Moduli (GPa) = 87.31437 87.31464 99.37515
#
# Poissons Ratio (x) = 0.28298 0.29109
# Poissons Ratio (y) = 0.28298 0.29109
# Poissons Ratio (z) = 0.25576 0.25577
#
# Static dielectric constant tensor:
#      x y z
#    x 1.633000 0.000000 0.000000 
#    y 0.000000 1.632990 0.000000 
#    z 0.000000 0.000000 1.603830 
# 
# From -- ./inp_files/14418.got.cif
#   From: 2010.05.17/outbox.cif.g08.bks.cpg/sg141_8_cif.got.tgz:14418.got - 2010.05.20 13:30:51.
