data_PCOD9573849
_publ_section_title
;
Structure prediction by ZEFSAII (Michael W. Deem and Ramdas Pophale) SiO2 
 PCOD9573849
Probable space group: I 41/A C D
;
_chemical_formula_sum "Si O2"
_cell_formula_units_Z 160
_cell_length_a 18.393323
_cell_length_b 18.393323
_cell_length_c 26.589844
_cell_angle_alpha 90.000000
_cell_angle_beta 90.000000
_cell_angle_gamma 90.000000
_cell_volume 8995.725284
_symmetry_space_group_name_H-M "I 41/A C D"
_symmetry_group_IT_number 142
_space_group.IT_coordinate_system_code '2'
_symmetry_cell_setting 'tetragonal'
loop_
_space_group_symop_operation_xyz
x,y,z
1/4-y,3/4+x,1/4+z
-x,1/2-y,z
1/4+y,1/4-x,3/4+z
x,-y,1/2-z
1/2-x,y,-z
3/4+y,1/4+x,1/4-z
1/4-y,1/4-x,1/4-z
-x,-y,-z
3/4+y,1/4-x,3/4-z
x,1/2+y,-z
3/4-y,3/4+x,1/4-z
-x,y,1/2+z
1/2+x,-y,z
1/4-y,3/4-x,3/4+z
3/4+y,3/4+x,3/4+z
1/2+x,1/2+y,1/2+z
3/4-y,1/4+x,3/4+z
1/2-x,-y,1/2+z
3/4+y,3/4-x,1/4+z
1/2+x,1/2-y,-z
-x,1/2+y,1/2-z
1/4+y,3/4+x,3/4-z
3/4-y,3/4-x,3/4-z
1/2-x,1/2-y,1/2-z
1/4+y,3/4-x,1/4-z
1/2+x,y,1/2-z
1/4-y,1/4+x,3/4-z
1/2-x,1/2+y,z
x,1/2-y,1/2+z
3/4-y,1/4-x,1/4+z
1/4+y,1/4+x,1/4+z
loop_
_atom_site_type_symbol
_atom_site_label
_atom_site_fract_x
_atom_site_fract_y
_atom_site_fract_z
Si Si1 0.769613 0.874219 0.856887
Si Si2 0.066110 0.803077 0.202483
Si Si3 0.850518 0.488398 0.889007
Si Si4 0.173762 0.256282 0.888179
Si Si5 0.579554 0.036365 0.502669
O O1 0.739813 0.795575 0.872212
O O2 0.766266 0.875249 0.796505
O O3 0.848296 0.901705 0.875000
O O4 0.712756 0.929047 0.882694
O O5 0.030607 0.877407 0.182078
O O6 0.114414 0.767441 0.156979
O O7 0.126527 0.818505 0.244298
O O8 0.000000 0.750000 0.215751
O O9 0.815162 0.565162 0.875000
O O10 0.881591 0.486793 0.945546
O O11 0.915069 0.458893 0.853565
O O12 0.500000 0.000000 0.500000
#
# Coordination Sequence:
#
# PCOD9573849 Si02
#       5
#    32  32  32  32  32
#     4  11  22  38  62  87 126 158 196 254 314 367
#     4  11  18  32  65  94 118 148 212 261 296 356
#     4  10  22  38  63  92 124 159 203 254 311 369
#     4  11  17  36  62  93 118 157 201 256 303 354
#     4  11  22  38  64  90 121 163 208 252 316 368
#
# _framework density 17.786225999999999
#
# number of rings (size 3 to 8) (size 9 to 14) (size 15 to 20)
#    0.000    1.200   10.000    0.000    0.000    3.200 
#    0.000    2.000    4.400    0.000    0.000    0.000 
#    0.000    0.000    0.000    0.000    0.000    0.000 
#
# Total GULP energy -445812.155393 kJ/mol
# GULP energy per Si atom -5572.651942 kJ/mol
# Density = 1.774574 g / cm^3
# Si number density = 17.786226 Si / 1000 Ang^3
#
#
#
# Elastic Constant Matrix: (Units=GPa)
#
#
# Indices 1 2 3 4 5 6 
#
# 1 46.7112 8.8132 4.3017 0.0000 0.0000 0.0000
# 2 8.8132 46.7101 4.2998 0.0000 0.0000 0.0000
# 3 4.3017 4.2998 64.0813 0.0000 0.0000 0.0000
# 4 0.0000 0.0000 0.0000 24.9097 0.0000 0.0000
# 5 0.0000 0.0000 0.0000 0.0000 24.9091 0.0000
# 6 0.0000 0.0000 0.0000 0.0000 0.0000 56.7801
#
#
#
# Elastic Compliance Matrix: (Units=1/GPa)
#
#
# Indices 1 2 3 4 5 6 
#
# 1 0.022293 -0.004094 -0.001222 0.000000 0.000000 0.000000
# 2 -0.004094 0.022293 -0.001221 0.000000 0.000000 0.000000
# 3 -0.001222 -0.001221 0.015769 0.000000 0.000000 0.000000
# 4 0.000000 0.000000 0.000000 0.040145 0.000000 0.000000
# 5 0.000000 0.000000 0.000000 0.000000 0.040146 0.000000
# 6 0.000000 0.000000 0.000000 0.000000 0.000000 0.017612
#
#
# Mechanical properties :
#
#
# Convention : Reuss Voigt Hill
#
# Bulk Modulus (GPa) = 21.14954 21.37023 21.25989
# Shear Modulus (GPa) = 26.72475 30.65897 28.69186
#
# Velocity S-wave (km/s) = 3.88048 4.15631 4.02076
# Velocity P-wave (km/s) = 5.65635 5.92236 5.79088
#
# Compressibility (1/GPa) = 0.04728235
#
# Stress axis : x y z
#
# Youngs Moduli (GPa) = 44.85701 44.85620 63.41501
#
# Poissons Ratio (x) = 0.18363 0.07748
# Poissons Ratio (y) = 0.18363 0.07743
# Poissons Ratio (z) = 0.05481 0.05477
#
# Static dielectric constant tensor:
#      x y z
#    x 1.629680 0.000000 0.000000 
#    y 0.000000 1.629680 0.000000 
#    z 0.000000 0.000000 1.619210 
# 
# From -- ./inp_files/11284.got.cif
#   From: 2010.05.17/outbox.cif.g08.bks.cpg/sg142_6_cif.got.tgz:11284.got - 2010.05.20 13:39:18.
