data_PCOD9573360
_publ_section_title
;
Structure prediction by ZEFSAII (Michael W. Deem and Ramdas Pophale) SiO2 
 PCOD9573360
Probable space group: I 41/A M D
;
_chemical_formula_sum "Si O2"
_cell_formula_units_Z 160
_cell_length_a 19.719939
_cell_length_b 19.719939
_cell_length_c 19.433117
_cell_angle_alpha 90.000000
_cell_angle_beta 90.000000
_cell_angle_gamma 90.000000
_cell_volume 7557.072693
_symmetry_space_group_name_H-M "I 41/A M D"
_symmetry_group_IT_number 141
_space_group.IT_coordinate_system_code '2'
_symmetry_cell_setting 'tetragonal'
loop_
_space_group_symop_operation_xyz
x,y,z
1/4-y,3/4+x,1/4+z
-x,1/2-y,z
1/4+y,1/4-x,3/4+z
x,-y,-z
-x,1/2+y,-z
1/4+y,3/4+x,1/4-z
1/4-y,1/4-x,3/4-z
-x,-y,-z
3/4+y,1/4-x,3/4-z
x,1/2+y,-z
3/4-y,3/4+x,1/4-z
-x,y,z
x,1/2-y,z
3/4-y,1/4-x,3/4+z
3/4+y,3/4+x,1/4+z
1/2+x,1/2+y,1/2+z
3/4-y,1/4+x,3/4+z
1/2-x,-y,1/2+z
3/4+y,3/4-x,1/4+z
1/2+x,1/2-y,1/2-z
1/2-x,y,1/2-z
3/4+y,1/4+x,3/4-z
3/4-y,3/4-x,1/4-z
1/2-x,1/2-y,1/2-z
1/4+y,3/4-x,1/4-z
1/2+x,y,1/2-z
1/4-y,1/4+x,3/4-z
1/2-x,1/2+y,1/2+z
1/2+x,-y,1/2+z
1/4-y,3/4-x,1/4+z
1/4+y,1/4+x,3/4+z
loop_
_atom_site_type_symbol
_atom_site_label
_atom_site_fract_x
_atom_site_fract_y
_atom_site_fract_z
Si Si1 0.500000 0.355493 0.012780
Si Si2 0.422332 0.004463 0.801184
Si Si3 0.120243 0.370243 0.375000
Si Si4 0.500000 0.329679 0.466915
Si Si5 0.368708 0.484314 0.656117
Si Si6 0.880179 0.855195 0.860374
Si Si7 0.699492 0.250000 0.684400
O O1 0.441530 0.365840 0.072032
O O2 0.440203 0.346654 0.953607
O O3 0.500000 0.987390 0.780648
O O4 0.385806 0.938938 0.831594
O O5 0.383235 0.034408 0.735412
O O6 0.423779 0.059880 0.861023
O O7 0.500000 0.250000 0.480729
O O8 0.435394 0.348617 0.420383
O O9 0.500000 0.374232 0.535114
O O10 0.302942 0.447059 0.625000
O O11 0.367501 0.565968 0.655704
O O12 0.433247 0.462498 0.610616
O O13 0.750000 0.250000 0.750000
#
# Coordination Sequence:
#
# PCOD9573360 Si02
#       7
#    16  32  16  16  32  32  16
#     4  12  26  50  73 115 148 204 255 323 385 459
#     4  12  26  49  72 108 153 202 253 324 391 457
#     4  12  28  45  76 106 154 204 264 314 387 466
#     4  12  24  44  77 110 144 196 260 321 384 468
#     4  12  27  47  76 109 151 200 256 320 384 465
#     4  12  26  47  78 105 151 202 255 318 395 460
#     4  12  24  46  74 103 148 199 252 308 391 468
#
# _framework density 21.172219999999999
#
# number of rings (size 3 to 8) (size 9 to 14) (size 15 to 20)
#    0.000    0.000    8.000    1.200    1.400    3.400 
#    1.800    0.000    0.000    0.000    0.000    0.000 
#    0.000    0.000    0.000    0.000    0.000    0.000 
#
# Total GULP energy -445710.292413 kJ/mol
# GULP energy per Si atom -5571.378655 kJ/mol
# Density = 2.112403 g / cm^3
# Si number density = 21.172220 Si / 1000 Ang^3
#
#
#
# Elastic Constant Matrix: (Units=GPa)
#
#
# Indices 1 2 3 4 5 6 
#
# 1 125.8377 -10.8056 18.0109 0.0000 0.0000 0.0000
# 2 -10.8056 125.8358 18.0103 0.0000 0.0000 0.0000
# 3 18.0109 18.0103 100.1557 0.0000 0.0000 0.0000
# 4 0.0000 0.0000 0.0000 68.2790 0.0000 0.0000
# 5 0.0000 0.0000 0.0000 0.0000 68.2818 0.0000
# 6 0.0000 0.0000 0.0000 0.0000 0.0000 22.7892
#
#
#
# Elastic Compliance Matrix: (Units=1/GPa)
#
#
# Indices 1 2 3 4 5 6 
#
# 1 0.008265 0.000947 -0.001657 0.000000 0.000000 0.000000
# 2 0.000947 0.008265 -0.001657 0.000000 0.000000 0.000000
# 3 -0.001657 -0.001657 0.010580 0.000000 0.000000 0.000000
# 4 0.000000 0.000000 0.000000 0.014646 0.000000 0.000000
# 5 0.000000 0.000000 0.000000 0.000000 0.014645 0.000000
# 6 0.000000 0.000000 0.000000 0.000000 0.000000 0.043880
#
#
# Mechanical properties :
#
#
# Convention : Reuss Voigt Hill
#
# Bulk Modulus (GPa) = 44.68661 44.69559 44.69110
# Shear Modulus (GPa) = 44.45469 53.64424 49.04947
#
# Velocity S-wave (km/s) = 4.58719 5.03906 4.81842
# Velocity P-wave (km/s) = 7.01487 7.41704 7.21876
#
# Compressibility (1/GPa) = 0.02237807
#
# Stress axis : x y z
#
# Youngs Moduli (GPa) = 120.98994 120.98825 94.51580
#
# Poissons Ratio (x) = -0.11456 0.15657
# Poissons Ratio (y) = -0.11456 0.15657
# Poissons Ratio (z) = 0.20043 0.20042
#
# Static dielectric constant tensor:
#      x y z
#    x 1.628290 0.000000 0.000000 
#    y 0.000000 1.628290 0.000000 
#    z 0.000000 0.000000 1.722280 
# 
# From -- ./inp_files/8701.got.cif
#   From: 2010.05.17/outbox.cif.g08.bks.cpg/sg141_5_cif.got.tgz:8701.got - 2010.05.20 13:30:51.
