data_PCOD9573708
_publ_section_title
;
Structure prediction by ZEFSAII (Michael W. Deem and Ramdas Pophale) SiO2 
 PCOD9573708
Probable space group: I 41/A C D
;
_chemical_formula_sum "Si O2"
_cell_formula_units_Z 160
_cell_length_a 18.083170
_cell_length_b 18.083170
_cell_length_c 21.821866
_cell_angle_alpha 90.000000
_cell_angle_beta 90.000000
_cell_angle_gamma 90.000000
_cell_volume 7135.772817
_symmetry_space_group_name_H-M "I 41/A C D"
_symmetry_group_IT_number 142
_space_group.IT_coordinate_system_code '2'
_symmetry_cell_setting 'tetragonal'
loop_
_space_group_symop_operation_xyz
x,y,z
1/4-y,3/4+x,1/4+z
-x,1/2-y,z
1/4+y,1/4-x,3/4+z
x,-y,1/2-z
1/2-x,y,-z
3/4+y,1/4+x,1/4-z
1/4-y,1/4-x,1/4-z
-x,-y,-z
3/4+y,1/4-x,3/4-z
x,1/2+y,-z
3/4-y,3/4+x,1/4-z
-x,y,1/2+z
1/2+x,-y,z
1/4-y,3/4-x,3/4+z
3/4+y,3/4+x,3/4+z
1/2+x,1/2+y,1/2+z
3/4-y,1/4+x,3/4+z
1/2-x,-y,1/2+z
3/4+y,3/4-x,1/4+z
1/2+x,1/2-y,-z
-x,1/2+y,1/2-z
1/4+y,3/4+x,3/4-z
3/4-y,3/4-x,3/4-z
1/2-x,1/2-y,1/2-z
1/4+y,3/4-x,1/4-z
1/2+x,y,1/2-z
1/4-y,1/4+x,3/4-z
1/2-x,1/2+y,z
x,1/2-y,1/2+z
3/4-y,1/4-x,1/4+z
1/4+y,1/4+x,1/4+z
loop_
_atom_site_type_symbol
_atom_site_label
_atom_site_fract_x
_atom_site_fract_y
_atom_site_fract_z
Si Si1 0.698172 0.318103 0.267268
Si Si2 0.025699 0.333794 0.450349
Si Si3 0.716582 0.927919 0.836046
Si Si4 0.062509 0.972758 0.639795
Si Si5 0.805821 0.669603 0.546467
O O1 0.750000 0.250000 0.250000
O O2 0.619201 0.288596 0.243244
O O3 0.730399 0.386821 0.228149
O O4 0.713502 0.323531 0.339052
O O5 0.038876 0.395002 0.395729
O O6 0.109651 0.328399 0.476779
O O7 0.000000 0.250000 0.436671
O O8 0.775061 0.974940 0.875000
O O9 0.640402 0.970293 0.826741
O O10 0.694792 0.867080 0.886747
O O11 0.997758 0.981272 0.687798
O O12 0.750000 0.629664 0.500000
#
# Coordination Sequence:
#
# PCOD9573708 Si02
#       5
#    32  32  32  32  32
#     4  10  20  41  64  91 131 163 213 272 329 379
#     4  10  21  38  68  96 118 163 216 274 322 379
#     4  11  24  39  65  94 126 176 213 267 327 399
#     4  10  23  42  63  95 128 170 216 270 326 389
#     4  11  24  38  63  98 132 166 220 272 326 395
#
# _framework density 22.422239000000001
#
# number of rings (size 3 to 8) (size 9 to 14) (size 15 to 20)
#    0.000    1.600    4.000    1.200   11.200    0.000 
#    7.200    0.000    0.000    1.200    0.000    0.000 
#    0.000    0.000    0.000    0.000    0.000    0.000 
#
# Total GULP energy -445676.089968 kJ/mol
# GULP energy per Si atom -5570.951125 kJ/mol
# Density = 2.237120 g / cm^3
# Si number density = 22.422239 Si / 1000 Ang^3
#
#
#
# Elastic Constant Matrix: (Units=GPa)
#
#
# Indices 1 2 3 4 5 6 
#
# 1 88.6039 20.0261 15.3339 0.0000 0.0000 0.0000
# 2 20.0261 88.6003 15.3293 0.0000 0.0000 0.0000
# 3 15.3339 15.3293 62.0741 0.0000 0.0000 0.0000
# 4 0.0000 0.0000 0.0000 6.4834 0.0000 0.0000
# 5 0.0000 0.0000 0.0000 0.0000 6.4828 0.0000
# 6 0.0000 0.0000 0.0000 0.0000 0.0000 20.4710
#
#
#
# Elastic Compliance Matrix: (Units=1/GPa)
#
#
# Indices 1 2 3 4 5 6 
#
# 1 0.012239 -0.002343 -0.002445 0.000000 0.000000 0.000000
# 2 -0.002343 0.012239 -0.002444 0.000000 0.000000 0.000000
# 3 -0.002445 -0.002444 0.017317 0.000000 0.000000 0.000000
# 4 0.000000 0.000000 0.000000 0.154241 0.000000 0.000000
# 5 0.000000 0.000000 0.000000 0.000000 0.154253 0.000000
# 6 0.000000 0.000000 0.000000 0.000000 0.000000 0.048850
#
#
# Mechanical properties :
#
#
# Convention : Reuss Voigt Hill
#
# Bulk Modulus (GPa) = 36.58724 37.85077 37.21900
# Shear Modulus (GPa) = 11.82837 19.26005 15.54421
#
# Velocity S-wave (km/s) = 2.29929 2.93400 2.63582
# Velocity P-wave (km/s) = 4.83754 5.32873 5.08906
#
# Compressibility (1/GPa) = 0.02733193
#
# Stress axis : x y z
#
# Youngs Moduli (GPa) = 81.70669 81.70546 57.74633
#
# Poissons Ratio (x) = 0.19147 0.14117
# Poissons Ratio (y) = 0.19147 0.14111
# Poissons Ratio (z) = 0.19974 0.19966
#
# Static dielectric constant tensor:
#      x y z
#    x 1.913450 0.000000 0.000000 
#    y 0.000000 1.913450 0.000000 
#    z 0.000000 0.000000 1.888010 
# 
# From -- ./inp_files/11275.got.cif
#   From: 2010.05.17/outbox.cif.g08.bks.cpg/sg142_6_cif.got.tgz:11275.got - 2010.05.20 13:39:18.
