data_PCOD9573414
_publ_section_title
;
Structure prediction by ZEFSAII (Michael W. Deem and Ramdas Pophale) SiO2 
 PCOD9573414
Probable space group: I 41/A C D
;
_chemical_formula_sum "Si O2"
_cell_formula_units_Z 112
_cell_length_a 13.022437
_cell_length_b 13.022437
_cell_length_c 25.731451
_cell_angle_alpha 90.000000
_cell_angle_beta 90.000000
_cell_angle_gamma 90.000000
_cell_volume 4363.638923
_symmetry_space_group_name_H-M "I 41/A C D"
_symmetry_group_IT_number 142
_space_group.IT_coordinate_system_code '2'
_symmetry_cell_setting 'tetragonal'
loop_
_space_group_symop_operation_xyz
x,y,z
1/4-y,3/4+x,1/4+z
-x,1/2-y,z
1/4+y,1/4-x,3/4+z
x,-y,1/2-z
1/2-x,y,-z
3/4+y,1/4+x,1/4-z
1/4-y,1/4-x,1/4-z
-x,-y,-z
3/4+y,1/4-x,3/4-z
x,1/2+y,-z
3/4-y,3/4+x,1/4-z
-x,y,1/2+z
1/2+x,-y,z
1/4-y,3/4-x,3/4+z
3/4+y,3/4+x,3/4+z
1/2+x,1/2+y,1/2+z
3/4-y,1/4+x,3/4+z
1/2-x,-y,1/2+z
3/4+y,3/4-x,1/4+z
1/2+x,1/2-y,-z
-x,1/2+y,1/2-z
1/4+y,3/4+x,3/4-z
3/4-y,3/4-x,3/4-z
1/2-x,1/2-y,1/2-z
1/4+y,3/4-x,1/4-z
1/2+x,y,1/2-z
1/4-y,1/4+x,3/4-z
1/2-x,1/2+y,z
x,1/2-y,1/2+z
3/4-y,1/4-x,1/4+z
1/4+y,1/4+x,1/4+z
loop_
_atom_site_type_symbol
_atom_site_label
_atom_site_fract_x
_atom_site_fract_y
_atom_site_fract_z
Si Si1 0.636528 0.196655 0.104691
Si Si2 0.866138 0.389601 0.504535
Si Si3 0.750000 0.086587 0.500000
Si Si4 0.984481 0.103791 0.665564
O O1 0.601270 0.315239 0.100770
O O2 0.758714 0.201744 0.110279
O O3 0.599997 0.132071 0.054041
O O4 0.750000 0.345824 0.500000
O O5 0.842078 0.507727 0.516622
O O6 0.912673 0.319701 0.549208
O O7 0.800435 0.152765 0.545501
O O8 0.920111 0.170111 0.625000
#
# Coordination Sequence:
#
# PCOD9573414 Si02
#       4
#    32  32  16  32
#     4  10  19  35  58  85 119 156 201 253 302 368
#     4   8  18  34  53  88 122 147 201 264 292 360
#     4  10  16  36  60  86 124 154 206 264 298 362
#     4  11  20  34  62  92 117 163 212 250 311 376
#
# _framework density 25.666653
#
# number of rings (size 3 to 8) (size 9 to 14) (size 15 to 20)
#    0.857    1.429    4.286    1.714    0.000    0.000 
#    0.000    1.429    6.286    0.000    0.000    0.000 
#    0.000    0.000    0.000    0.000    0.000    0.000 
#
# Total GULP energy -312201.158928 kJ/mol
# GULP energy per Si atom -5575.020695 kJ/mol
# Density = 2.560823 g / cm^3
# Si number density = 25.666653 Si / 1000 Ang^3
#
#
#
# Elastic Constant Matrix: (Units=GPa)
#
#
# Indices 1 2 3 4 5 6 
#
# 1 98.2104 12.0713 47.8115 0.0000 0.0000 0.0000
# 2 12.0713 98.2104 47.8115 0.0000 0.0000 0.0000
# 3 47.8115 47.8115 85.6647 0.0000 0.0000 0.0000
# 4 0.0000 0.0000 0.0000 38.0911 0.0000 0.0000
# 5 0.0000 0.0000 0.0000 0.0000 38.0911 0.0000
# 6 0.0000 0.0000 0.0000 0.0000 0.0000 50.5740
#
#
#
# Elastic Compliance Matrix: (Units=1/GPa)
#
#
# Indices 1 2 3 4 5 6 
#
# 1 0.014590 0.002981 -0.009807 0.000000 0.000000 0.000000
# 2 0.002981 0.014590 -0.009807 0.000000 0.000000 0.000000
# 3 -0.009807 -0.009807 0.022620 0.000000 0.000000 0.000000
# 4 0.000000 0.000000 0.000000 0.026253 0.000000 0.000000
# 5 0.000000 0.000000 0.000000 0.000000 0.026253 0.000000
# 6 0.000000 0.000000 0.000000 0.000000 0.000000 0.019773
#
#
# Mechanical properties :
#
#
# Convention : Reuss Voigt Hill
#
# Bulk Modulus (GPa) = 53.95191 55.27492 54.61341
# Shear Modulus (GPa) = 30.57681 36.97731 33.77706
#
# Velocity S-wave (km/s) = 3.45527 3.79974 3.63159
# Velocity P-wave (km/s) = 6.08148 6.39008 6.23769
#
# Compressibility (1/GPa) = 0.01853503
#
# Stress axis : x y z
#
# Youngs Moduli (GPa) = 68.53991 68.53991 44.20826
#
# Poissons Ratio (x) = -0.20431 0.43354
# Poissons Ratio (y) = -0.20431 0.43354
# Poissons Ratio (z) = 0.67216 0.67216
#
# Static dielectric constant tensor:
#      x y z
#    x 2.049740 0.000000 0.000000 
#    y 0.000000 2.049740 0.000000 
#    z 0.000000 0.000000 2.215470 
# 
# From -- ./inp_files/11116.got.cif
#   From: 2010.05.17/outbox.cif.g08.bks.cpg/sg142_6_cif.got.tgz:11116.got - 2010.05.20 13:39:18.
