data_PCOD9573583
_publ_section_title
;
Structure prediction by ZEFSAII (Michael W. Deem and Ramdas Pophale) SiO2 
 PCOD9573583
Probable space group: I 41/A C D
;
_chemical_formula_sum "Si O2"
_cell_formula_units_Z 80
_cell_length_a 17.853489
_cell_length_b 17.853489
_cell_length_c 12.205070
_cell_angle_alpha 90.000000
_cell_angle_beta 90.000000
_cell_angle_gamma 90.000000
_cell_volume 3890.330295
_symmetry_space_group_name_H-M "I 41/A C D"
_symmetry_group_IT_number 142
_space_group.IT_coordinate_system_code '2'
_symmetry_cell_setting 'tetragonal'
loop_
_space_group_symop_operation_xyz
x,y,z
1/4-y,3/4+x,1/4+z
-x,1/2-y,z
1/4+y,1/4-x,3/4+z
x,-y,1/2-z
1/2-x,y,-z
3/4+y,1/4+x,1/4-z
1/4-y,1/4-x,1/4-z
-x,-y,-z
3/4+y,1/4-x,3/4-z
x,1/2+y,-z
3/4-y,3/4+x,1/4-z
-x,y,1/2+z
1/2+x,-y,z
1/4-y,3/4-x,3/4+z
3/4+y,3/4+x,3/4+z
1/2+x,1/2+y,1/2+z
3/4-y,1/4+x,3/4+z
1/2-x,-y,1/2+z
3/4+y,3/4-x,1/4+z
1/2+x,1/2-y,-z
-x,1/2+y,1/2-z
1/4+y,3/4+x,3/4-z
3/4-y,3/4-x,3/4-z
1/2-x,1/2-y,1/2-z
1/4+y,3/4-x,1/4-z
1/2+x,y,1/2-z
1/4-y,1/4+x,3/4-z
1/2-x,1/2+y,z
x,1/2-y,1/2+z
3/4-y,1/4-x,1/4+z
1/4+y,1/4+x,1/4+z
loop_
_atom_site_type_symbol
_atom_site_label
_atom_site_fract_x
_atom_site_fract_y
_atom_site_fract_z
Si Si1 0.584804 0.165197 0.875000
Si Si2 0.576038 0.136927 0.485461
Si Si3 0.174558 0.274019 0.945292
O O1 0.592647 0.245035 0.814884
O O2 0.586462 0.103829 0.780788
O O3 0.625046 0.124955 0.375000
O O4 0.558889 0.073169 0.574492
O O5 0.613178 0.207105 0.549471
O O6 0.250000 0.244160 0.000000
#
# Coordination Sequence:
#
# PCOD9573583 Si02
#       3
#    16  32  32
#     4  10  21  34  60  86 112 146 196 260 304 347
#     4  10  20  34  56  84 117 151 193 256 308 350
#     4  11  21  35  59  87 117 153 200 248 310 371
#
# _framework density 20.563806
#
# number of rings (size 3 to 8) (size 9 to 14) (size 15 to 20)
#    0.000    1.600    4.000    5.400    0.000    6.400 
#    0.000    0.000    0.000    2.400    0.000    0.000 
#    0.000    0.000    0.000    0.000    0.000    0.000 
#
# Total GULP energy -222763.538595 kJ/mol
# GULP energy per Si atom -5569.088465 kJ/mol
# Density = 2.051700 g / cm^3
# Si number density = 20.563806 Si / 1000 Ang^3
#
#
#
# Elastic Constant Matrix: (Units=GPa)
#
#
# Indices 1 2 3 4 5 6 
#
# 1 31.9147 3.3476 26.6131 0.0000 0.0000 0.0000
# 2 3.3476 31.9160 26.6122 0.0000 0.0000 0.0000
# 3 26.6131 26.6122 155.5370 0.0000 0.0000 0.0000
# 4 0.0000 0.0000 0.0000 20.0812 0.0000 0.0000
# 5 0.0000 0.0000 0.0000 0.0000 20.0807 0.0000
# 6 0.0000 0.0000 0.0000 0.0000 0.0000 5.8666
#
#
#
# Elastic Compliance Matrix: (Units=1/GPa)
#
#
# Indices 1 2 3 4 5 6 
#
# 1 0.036619 0.001614 -0.006542 0.000000 0.000000 0.000000
# 2 0.001614 0.036617 -0.006541 0.000000 0.000000 0.000000
# 3 -0.006542 -0.006541 0.008668 0.000000 0.000000 0.000000
# 4 0.000000 0.000000 0.000000 0.049798 0.000000 0.000000
# 5 0.000000 0.000000 0.000000 0.000000 0.049799 0.000000
# 6 0.000000 0.000000 0.000000 0.000000 0.000000 0.170455
#
#
# Mechanical properties :
#
#
# Convention : Reuss Voigt Hill
#
# Bulk Modulus (GPa) = 16.95899 36.94595 26.95247
# Shear Modulus (GPa) = 12.67265 20.05871 16.36568
#
# Velocity S-wave (km/s) = 2.48515 3.12659 2.82414
# Velocity P-wave (km/s) = 4.06196 5.57132 4.87540
#
# Compressibility (1/GPa) = 0.05896578
#
# Stress axis : x y z
#
# Youngs Moduli (GPa) = 27.30792 27.30959 115.36843
#
# Poissons Ratio (x) = -0.04407 0.75472
# Poissons Ratio (y) = -0.04407 0.75466
# Poissons Ratio (z) = 0.17864 0.17864
#
# Static dielectric constant tensor:
#      x y z
#    x 1.769660 0.000000 0.000000 
#    y 0.000000 1.769660 0.000000 
#    z 0.000000 0.000000 1.845770 
# 
# From -- ./inp_files/3058.got.cif
#   From: 2010.05.17/outbox.cif.g08.bks.cpg/sg142_2_cif.got.tgz:3058.got - 2010.05.20 13:39:18.
