data_PCOD9573192
_publ_section_title
;
Structure prediction by ZEFSAII (Michael W. Deem and Ramdas Pophale) SiO2 
 PCOD9573192
Probable space group: I 41/A M D
;
_chemical_formula_sum "Si O2"
_cell_formula_units_Z 96
_cell_length_a 14.254030
_cell_length_b 14.254030
_cell_length_c 20.802655
_cell_angle_alpha 90.000000
_cell_angle_beta 90.000000
_cell_angle_gamma 90.000000
_cell_volume 4226.628758
_symmetry_space_group_name_H-M "I 41/A M D"
_symmetry_group_IT_number 141
_space_group.IT_coordinate_system_code '2'
_symmetry_cell_setting 'tetragonal'
loop_
_space_group_symop_operation_xyz
x,y,z
1/4-y,3/4+x,1/4+z
-x,1/2-y,z
1/4+y,1/4-x,3/4+z
x,-y,-z
-x,1/2+y,-z
1/4+y,3/4+x,1/4-z
1/4-y,1/4-x,3/4-z
-x,-y,-z
3/4+y,1/4-x,3/4-z
x,1/2+y,-z
3/4-y,3/4+x,1/4-z
-x,y,z
x,1/2-y,z
3/4-y,1/4-x,3/4+z
3/4+y,3/4+x,1/4+z
1/2+x,1/2+y,1/2+z
3/4-y,1/4+x,3/4+z
1/2-x,-y,1/2+z
3/4+y,3/4-x,1/4+z
1/2+x,1/2-y,1/2-z
1/2-x,y,1/2-z
3/4+y,1/4+x,3/4-z
3/4-y,3/4-x,1/4-z
1/2-x,1/2-y,1/2-z
1/4+y,3/4-x,1/4-z
1/2+x,y,1/2-z
1/4-y,1/4+x,3/4-z
1/2-x,1/2+y,1/2+z
1/2+x,-y,1/2+z
1/4-y,3/4-x,1/4+z
1/4+y,1/4+x,3/4+z
loop_
_atom_site_type_symbol
_atom_site_label
_atom_site_fract_x
_atom_site_fract_y
_atom_site_fract_z
Si Si1 0.266300 0.862773 0.324617
Si Si2 0.113639 0.854579 0.831092
Si Si3 0.889256 0.635429 0.693304
O O1 0.339342 0.910659 0.375000
O O2 0.284485 0.750000 0.324885
O O3 0.250000 0.890266 0.250000
O O4 0.167602 0.883020 0.358681
O O5 0.151868 0.750000 0.838264
O O6 0.146400 0.895855 0.762756
O O7 0.000000 0.848524 0.826294
O O8 0.850660 0.600660 0.625000
O O9 0.882872 0.750000 0.694964
O O10 0.000000 0.613556 0.691396
#
# Coordination Sequence:
#
# PCOD9573192 Si02
#       3
#    32  32  32
#     4  10  22  40  62  89 123 165 214 270 332 399
#     4   8  14  27  50  80 112 147 191 245 305 368
#     4   7   9  15  32  63 102 137 167 204 257 328
#
# _framework density 22.713137
#
# number of rings (size 3 to 8) (size 9 to 14) (size 15 to 20)
#    0.000    3.667    0.000    3.000    0.000    1.667 
#    0.000    5.000    0.000    1.000    0.000    0.000 
#    0.000    0.667    0.000    0.000    0.000    0.000 
#
# Total GULP energy -267494.387837 kJ/mol
# GULP energy per Si atom -5572.799747 kJ/mol
# Density = 2.266144 g / cm^3
# Si number density = 22.713137 Si / 1000 Ang^3
#
#
#
# Elastic Constant Matrix: (Units=GPa)
#
#
# Indices 1 2 3 4 5 6 
#
# 1 84.8404 24.2685 56.8461 0.0000 0.0000 0.0000
# 2 24.2685 84.8419 56.8460 0.0000 0.0000 0.0000
# 3 56.8461 56.8460 317.0852 0.0000 0.0000 0.0000
# 4 0.0000 0.0000 0.0000 7.3157 0.0000 0.0000
# 5 0.0000 0.0000 0.0000 0.0000 7.3148 0.0000
# 6 0.0000 0.0000 0.0000 0.0000 0.0000 14.4487
#
#
#
# Elastic Compliance Matrix: (Units=1/GPa)
#
#
# Indices 1 2 3 4 5 6 
#
# 1 0.013890 -0.002619 -0.002021 0.000000 0.000000 0.000000
# 2 -0.002619 0.013890 -0.002021 0.000000 0.000000 0.000000
# 3 -0.002021 -0.002021 0.003878 0.000000 0.000000 0.000000
# 4 0.000000 0.000000 0.000000 0.136693 0.000000 0.000000
# 5 0.000000 0.000000 0.000000 0.000000 0.136710 0.000000
# 6 0.000000 0.000000 0.000000 0.000000 0.000000 0.069210
#
#
# Mechanical properties :
#
#
# Convention : Reuss Voigt Hill
#
# Bulk Modulus (GPa) = 54.53450 84.74320 69.63885
# Shear Modulus (GPa) = 12.69990 29.06963 20.88477
#
# Velocity S-wave (km/s) = 2.36719 3.58139 3.03562
# Velocity P-wave (km/s) = 5.61548 7.38194 6.55846
#
# Compressibility (1/GPa) = 0.01833702
#
# Stress axis : x y z
#
# Youngs Moduli (GPa) = 71.99459 71.99603 257.85176
#
# Poissons Ratio (x) = 0.18858 0.52101
# Poissons Ratio (y) = 0.18858 0.52099
# Poissons Ratio (z) = 0.14547 0.14547
#
# Static dielectric constant tensor:
#      x y z
#    x 1.872610 0.000000 0.000000 
#    y 0.000000 1.872620 0.000000 
#    z 0.000000 0.000000 1.900790 
# 
# From -- ./inp_files/7649.got.cif
#   From: 2010.05.17/outbox.cif.g08.bks.cpg/sg141_4_cif.got.tgz:7649.got - 2010.05.20 13:30:51.
