data_PCOD9573269
_publ_section_title
;
Structure prediction by ZEFSAII (Michael W. Deem and Ramdas Pophale) SiO2 
 PCOD9573269
Probable space group: I 41/A M D
;
_chemical_formula_sum "Si O2"
_cell_formula_units_Z 96
_cell_length_a 20.356683
_cell_length_b 20.356683
_cell_length_c 11.749961
_cell_angle_alpha 90.000000
_cell_angle_beta 90.000000
_cell_angle_gamma 90.000000
_cell_volume 4869.119716
_symmetry_space_group_name_H-M "I 41/A M D"
_symmetry_group_IT_number 141
_space_group.IT_coordinate_system_code '2'
_symmetry_cell_setting 'tetragonal'
loop_
_space_group_symop_operation_xyz
x,y,z
1/4-y,3/4+x,1/4+z
-x,1/2-y,z
1/4+y,1/4-x,3/4+z
x,-y,-z
-x,1/2+y,-z
1/4+y,3/4+x,1/4-z
1/4-y,1/4-x,3/4-z
-x,-y,-z
3/4+y,1/4-x,3/4-z
x,1/2+y,-z
3/4-y,3/4+x,1/4-z
-x,y,z
x,1/2-y,z
3/4-y,1/4-x,3/4+z
3/4+y,3/4+x,1/4+z
1/2+x,1/2+y,1/2+z
3/4-y,1/4+x,3/4+z
1/2-x,-y,1/2+z
3/4+y,3/4-x,1/4+z
1/2+x,1/2-y,1/2-z
1/2-x,y,1/2-z
3/4+y,1/4+x,3/4-z
3/4-y,3/4-x,1/4-z
1/2-x,1/2-y,1/2-z
1/4+y,3/4-x,1/4-z
1/2+x,y,1/2-z
1/4-y,1/4+x,3/4-z
1/2-x,1/2+y,1/2+z
1/2+x,-y,1/2+z
1/4-y,3/4-x,1/4+z
1/4+y,1/4+x,3/4+z
loop_
_atom_site_type_symbol
_atom_site_label
_atom_site_fract_x
_atom_site_fract_y
_atom_site_fract_z
Si Si1 0.600108 0.500000 0.000000
Si Si2 0.576863 0.363360 0.000775
Si Si3 0.500000 0.606542 0.620199
Si Si4 0.888203 0.250000 0.880219
Si Si5 0.500000 0.485600 0.793662
O O1 0.625747 0.574034 0.000967
O O2 0.560197 0.498445 0.880123
O O3 0.581601 0.331601 0.125000
O O4 0.500000 0.382770 0.985332
O O5 0.599907 0.312289 0.907431
O O6 0.500000 0.596580 0.486306
O O7 0.500000 0.541227 0.696581
O O8 0.936732 0.186732 0.875000
O O9 0.835824 0.250000 0.983565
#
# Coordination Sequence:
#
# PCOD9573269 Si02
#       5
#    16  32  16  16  16
#     4  11  20  36  60  86 122 154 188 245 306 357
#     4  12  20  34  57  94 121 146 193 248 301 347
#     4  12  24  36  62  90 120 158 192 244 303 358
#     4  11  26  41  57  86 120 160 199 243 294 349
#     4  11  20  40  56  85 119 158 192 236 297 358
#
# _framework density 19.716090999999999
#
# number of rings (size 3 to 8) (size 9 to 14) (size 15 to 20)
#    0.000    0.500    8.333    3.000    4.667    0.000 
#    0.000    0.000    0.000    2.000    0.000    0.000 
#    0.000    0.000    0.000    0.000    0.000    0.000 
#
# Total GULP energy -267424.248885 kJ/mol
# GULP energy per Si atom -5571.338518 kJ/mol
# Density = 1.967122 g / cm^3
# Si number density = 19.716091 Si / 1000 Ang^3
#
#
#
# Elastic Constant Matrix: (Units=GPa)
#
#
# Indices 1 2 3 4 5 6 
#
# 1 95.5954 4.7612 20.3158 0.0000 0.0000 0.0000
# 2 4.7612 95.5954 20.3158 0.0000 0.0000 0.0000
# 3 20.3158 20.3158 145.8286 0.0000 0.0000 0.0000
# 4 0.0000 0.0000 0.0000 28.2912 0.0000 0.0000
# 5 0.0000 0.0000 0.0000 0.0000 28.2912 0.0000
# 6 0.0000 0.0000 0.0000 0.0000 0.0000 -27.4139
#
#
#
# Elastic Compliance Matrix: (Units=1/GPa)
#
#
# Indices 1 2 3 4 5 6 
#
# 1 0.010785 -0.000224 -0.001471 0.000000 0.000000 0.000000
# 2 -0.000224 0.010785 -0.001471 0.000000 0.000000 0.000000
# 3 -0.001471 -0.001471 0.007267 0.000000 0.000000 0.000000
# 4 0.000000 0.000000 0.000000 0.035347 0.000000 0.000000
# 5 0.000000 0.000000 0.000000 0.000000 0.035347 0.000000
# 6 0.000000 0.000000 0.000000 0.000000 0.000000 -0.036478
#
#
# Mechanical properties :
#
#
# Convention : Reuss Voigt Hill
#
# Bulk Modulus (GPa) = 44.43883 47.53387 45.98635
# Shear Modulus (GPa) = 65.03098 25.27549 45.15324
#
# Velocity S-wave (km/s) = 5.74938 3.58435 4.79077
# Velocity P-wave (km/s) = 8.16468 6.42585 7.34689
#
# Compressibility (1/GPa) = 0.02250284
#
# Stress axis : x y z
#
# Youngs Moduli (GPa) = 92.72498 92.72498 137.60333
#
# Poissons Ratio (x) = 0.02082 0.20244
# Poissons Ratio (y) = 0.02082 0.20244
# Poissons Ratio (z) = 0.13641 0.13641
#
# Static dielectric constant tensor:
#      x y z
#    x 1.750280 0.000000 0.000000 
#    y 0.000000 1.750280 0.000000 
#    z 0.000000 0.000000 1.670450 
# 
# From -- ./inp_files/4292.got.cif
#   From: 2010.05.17/outbox.cif.g08.bks.cpg/sg141_3_cif.got.tgz:4292.got - 2010.05.20 13:30:51.
