data_PCOD9573334
_publ_section_title
;
Structure prediction by ZEFSAII (Michael W. Deem and Ramdas Pophale) SiO2 
 PCOD9573334
Probable space group: I 41/A M D
;
_chemical_formula_sum "Si O2"
_cell_formula_units_Z 80
_cell_length_a 28.826211
_cell_length_b 28.826211
_cell_length_c 4.932924
_cell_angle_alpha 90.000000
_cell_angle_beta 90.000000
_cell_angle_gamma 90.000000
_cell_volume 4099.015371
_symmetry_space_group_name_H-M "I 41/A M D"
_symmetry_group_IT_number 141
_space_group.IT_coordinate_system_code '2'
_symmetry_cell_setting 'tetragonal'
loop_
_space_group_symop_operation_xyz
x,y,z
1/4-y,3/4+x,1/4+z
-x,1/2-y,z
1/4+y,1/4-x,3/4+z
x,-y,-z
-x,1/2+y,-z
1/4+y,3/4+x,1/4-z
1/4-y,1/4-x,3/4-z
-x,-y,-z
3/4+y,1/4-x,3/4-z
x,1/2+y,-z
3/4-y,3/4+x,1/4-z
-x,y,z
x,1/2-y,z
3/4-y,1/4-x,3/4+z
3/4+y,3/4+x,1/4+z
1/2+x,1/2+y,1/2+z
3/4-y,1/4+x,3/4+z
1/2-x,-y,1/2+z
3/4+y,3/4-x,1/4+z
1/2+x,1/2-y,1/2-z
1/2-x,y,1/2-z
3/4+y,1/4+x,3/4-z
3/4-y,3/4-x,1/4-z
1/2-x,1/2-y,1/2-z
1/4+y,3/4-x,1/4-z
1/2+x,y,1/2-z
1/4-y,1/4+x,3/4-z
1/2-x,1/2+y,1/2+z
1/2+x,-y,1/2+z
1/4-y,3/4-x,1/4+z
1/4+y,1/4+x,3/4+z
loop_
_atom_site_type_symbol
_atom_site_label
_atom_site_fract_x
_atom_site_fract_y
_atom_site_fract_z
Si Si1 0.610026 0.417125 0.931356
Si Si2 0.553404 0.945899 0.573626
Si Si3 0.199048 0.050953 0.875000
O O1 0.582250 0.415820 0.647182
O O2 0.658556 0.440768 0.845087
O O3 0.623698 0.373698 0.125000
O O4 0.577281 0.444528 0.134821
O O5 0.500000 0.930608 0.582362
O O6 0.554899 0.000000 0.500000
O O7 0.250000 0.055815 0.750000
#
# Coordination Sequence:
#
# PCOD9573334 Si02
#       3
#    32  32  16
#     4  12  24  42  62  89 128 169 216 265 320 373
#     4  11  24  41  65  91 122 167 221 276 331 383
#     4  12  30  40  60  88 134 188 233 258 300 372
#
# _framework density 19.51688
#
# number of rings (size 3 to 8) (size 9 to 14) (size 15 to 20)
#    0.000    0.400    4.000    3.600    8.400    3.200 
#    0.000    0.000    0.000    0.000    0.000    0.000 
#    0.000   56.000    0.000    0.000    0.000    0.000 
#
# Total GULP energy -223350.743842 kJ/mol
# GULP energy per Si atom -5583.768596 kJ/mol
# Density = 1.947246 g / cm^3
# Si number density = 19.516880 Si / 1000 Ang^3
#
#
#
# Elastic Constant Matrix: (Units=GPa)
#
#
# Indices 1 2 3 4 5 6 
#
# 1 109.4743 19.5529 44.9998 0.0000 0.0000 0.0000
# 2 19.5529 109.4683 45.0006 0.0000 0.0000 0.0000
# 3 44.9998 45.0006 156.2734 0.0000 0.0000 0.0000
# 4 0.0000 0.0000 0.0000 4.3447 0.0000 0.0000
# 5 0.0000 0.0000 0.0000 0.0000 4.3459 0.0000
# 6 0.0000 0.0000 0.0000 0.0000 0.0000 7.2107
#
#
#
# Elastic Compliance Matrix: (Units=1/GPa)
#
#
# Indices 1 2 3 4 5 6 
#
# 1 0.010410 -0.000711 -0.002793 0.000000 0.000000 0.000000
# 2 -0.000711 0.010410 -0.002793 0.000000 0.000000 0.000000
# 3 -0.002793 -0.002793 0.008007 0.000000 0.000000 0.000000
# 4 0.000000 0.000000 0.000000 0.230166 0.000000 0.000000
# 5 0.000000 0.000000 0.000000 0.000000 0.230101 0.000000
# 6 0.000000 0.000000 0.000000 0.000000 0.000000 0.138683
#
#
# Mechanical properties :
#
#
# Convention : Reuss Voigt Hill
#
# Bulk Modulus (GPa) = 61.60111 66.03585 63.81848
# Shear Modulus (GPa) = 7.74255 20.89111 14.31683
#
# Velocity S-wave (km/s) = 1.99392 3.27527 2.71137
# Velocity P-wave (km/s) = 6.07721 6.94348 6.52473
#
# Compressibility (1/GPa) = 0.01623347
#
# Stress axis : x y z
#
# Youngs Moduli (GPa) = 96.06571 96.05933 124.88367
#
# Poissons Ratio (x) = 0.06833 0.34876
# Poissons Ratio (y) = 0.06833 0.34879
# Poissons Ratio (z) = 0.26828 0.26829
#
# Static dielectric constant tensor:
#      x y z
#    x 1.712130 0.000000 0.000000 
#    y 0.000000 1.712140 0.000000 
#    z 0.000000 0.000000 1.703700 
# 
# From -- ./inp_files/1098.got.cif
#   From: 2010.05.17/outbox.cif.g08.bks.cpg/sg141_1_cif.got.tgz:1098.got - 2010.05.20 13:30:51.
