data_PCOD9573711
_publ_section_title
;
Structure prediction by ZEFSAII (Michael W. Deem and Ramdas Pophale) SiO2 
 PCOD9573711
Probable space group: I 41/A C D
;
_chemical_formula_sum "Si O2"
_cell_formula_units_Z 96
_cell_length_a 13.369010
_cell_length_b 13.369010
_cell_length_c 21.266253
_cell_angle_alpha 90.000000
_cell_angle_beta 90.000000
_cell_angle_gamma 90.000000
_cell_volume 3800.926509
_symmetry_space_group_name_H-M "I 41/A C D"
_symmetry_group_IT_number 142
_space_group.IT_coordinate_system_code '2'
_symmetry_cell_setting 'tetragonal'
loop_
_space_group_symop_operation_xyz
x,y,z
1/4-y,3/4+x,1/4+z
-x,1/2-y,z
1/4+y,1/4-x,3/4+z
x,-y,1/2-z
1/2-x,y,-z
3/4+y,1/4+x,1/4-z
1/4-y,1/4-x,1/4-z
-x,-y,-z
3/4+y,1/4-x,3/4-z
x,1/2+y,-z
3/4-y,3/4+x,1/4-z
-x,y,1/2+z
1/2+x,-y,z
1/4-y,3/4-x,3/4+z
3/4+y,3/4+x,3/4+z
1/2+x,1/2+y,1/2+z
3/4-y,1/4+x,3/4+z
1/2-x,-y,1/2+z
3/4+y,3/4-x,1/4+z
1/2+x,1/2-y,-z
-x,1/2+y,1/2-z
1/4+y,3/4+x,3/4-z
3/4-y,3/4-x,3/4-z
1/2-x,1/2-y,1/2-z
1/4+y,3/4-x,1/4-z
1/2+x,y,1/2-z
1/4-y,1/4+x,3/4-z
1/2-x,1/2+y,z
x,1/2-y,1/2+z
3/4-y,1/4-x,1/4+z
1/4+y,1/4+x,1/4+z
loop_
_atom_site_type_symbol
_atom_site_label
_atom_site_fract_x
_atom_site_fract_y
_atom_site_fract_z
Si Si1 0.588871 0.306661 0.248595
Si Si2 0.705955 0.699730 0.430657
Si Si3 0.763571 0.659643 0.173774
O O1 0.500000 0.250000 0.285208
O O2 0.527824 0.365054 0.194739
O O3 0.664803 0.373180 0.289148
O O4 0.661902 0.224241 0.218375
O O5 0.750000 0.685458 0.500000
O O6 0.677374 0.590407 0.404846
O O7 0.768021 0.761812 0.379826
#
# Coordination Sequence:
#
# PCOD9573711 Si02
#       3
#    32  32  32
#     4   9  20  39  67  93 131 176 220 275 353 405
#     4  11  22  38  67  98 131 187 233 281 361 415
#     4  10  20  41  66  96 133 176 229 290 336 427
#
# _framework density 25.257000000000001
#
# number of rings (size 3 to 8) (size 9 to 14) (size 15 to 20)
#    0.000    2.000    3.333    0.000    0.000    2.667 
#    0.000   20.000    0.000    0.000    0.000    0.000 
#    0.000    0.000    0.000    0.000    0.000    0.000 
#
# Total GULP energy -267786.597478 kJ/mol
# GULP energy per Si atom -5578.887447 kJ/mol
# Density = 2.519951 g / cm^3
# Si number density = 25.257000 Si / 1000 Ang^3
#
#
#
# Elastic Constant Matrix: (Units=GPa)
#
#
# Indices 1 2 3 4 5 6 
#
# 1 83.8300 11.2884 21.4164 0.0000 0.0000 0.0000
# 2 11.2884 83.8300 21.4164 0.0000 0.0000 0.0000
# 3 21.4164 21.4164 64.6953 0.0000 0.0000 0.0000
# 4 0.0000 0.0000 0.0000 22.5554 0.0000 0.0000
# 5 0.0000 0.0000 0.0000 0.0000 22.5554 0.0000
# 6 0.0000 0.0000 0.0000 0.0000 0.0000 12.3484
#
#
#
# Elastic Compliance Matrix: (Units=1/GPa)
#
#
# Indices 1 2 3 4 5 6 
#
# 1 0.013070 -0.000715 -0.004090 0.000000 0.000000 0.000000
# 2 -0.000715 0.013070 -0.004090 0.000000 0.000000 0.000000
# 3 -0.004090 -0.004090 0.018165 0.000000 0.000000 0.000000
# 4 0.000000 0.000000 0.000000 0.044335 0.000000 0.000000
# 5 0.000000 0.000000 0.000000 0.000000 0.044335 0.000000
# 6 0.000000 0.000000 0.000000 0.000000 0.000000 0.080982
#
#
# Mechanical properties :
#
#
# Convention : Reuss Voigt Hill
#
# Bulk Modulus (GPa) = 37.71436 37.84420 37.77928
# Shear Modulus (GPa) = 20.78257 23.37412 22.07835
#
# Velocity S-wave (km/s) = 2.87164 3.04542 2.95981
# Velocity P-wave (km/s) = 5.09507 5.23281 5.16440
#
# Compressibility (1/GPa) = 0.02651510
#
# Stress axis : x y z
#
# Youngs Moduli (GPa) = 76.51070 76.51070 55.05127
#
# Poissons Ratio (x) = 0.05471 0.22516
# Poissons Ratio (y) = 0.05471 0.22516
# Poissons Ratio (z) = 0.31292 0.31292
#
# Static dielectric constant tensor:
#      x y z
#    x 2.033170 0.000000 0.000000 
#    y 0.000000 2.033170 0.000000 
#    z 0.000000 0.000000 2.034650 
# 
# From -- ./inp_files/8376.got.cif
#   From: 2010.05.17/outbox.cif.g08.bks.cpg/sg142_5_cif.got.tgz:8376.got - 2010.05.20 13:39:18.
