data_PCOD9573852
_publ_section_title
;
Structure prediction by ZEFSAII (Michael W. Deem and Ramdas Pophale) SiO2 
 PCOD9573852
Probable space group: I 41/A C D
;
_chemical_formula_sum "Si O2"
_cell_formula_units_Z 136
_cell_length_a 16.750869
_cell_length_b 16.750869
_cell_length_c 22.008680
_cell_angle_alpha 90.000000
_cell_angle_beta 90.000000
_cell_angle_gamma 90.000000
_cell_volume 6175.451005
_symmetry_space_group_name_H-M "I 41/A C D"
_symmetry_group_IT_number 142
_space_group.IT_coordinate_system_code '2'
_symmetry_cell_setting 'tetragonal'
loop_
_space_group_symop_operation_xyz
x,y,z
1/4-y,3/4+x,1/4+z
-x,1/2-y,z
1/4+y,1/4-x,3/4+z
x,-y,1/2-z
1/2-x,y,-z
3/4+y,1/4+x,1/4-z
1/4-y,1/4-x,1/4-z
-x,-y,-z
3/4+y,1/4-x,3/4-z
x,1/2+y,-z
3/4-y,3/4+x,1/4-z
-x,y,1/2+z
1/2+x,-y,z
1/4-y,3/4-x,3/4+z
3/4+y,3/4+x,3/4+z
1/2+x,1/2+y,1/2+z
3/4-y,1/4+x,3/4+z
1/2-x,-y,1/2+z
3/4+y,3/4-x,1/4+z
1/2+x,1/2-y,-z
-x,1/2+y,1/2-z
1/4+y,3/4+x,3/4-z
3/4-y,3/4-x,3/4-z
1/2-x,1/2-y,1/2-z
1/4+y,3/4-x,1/4-z
1/2+x,y,1/2-z
1/4-y,1/4+x,3/4-z
1/2-x,1/2+y,z
x,1/2-y,1/2+z
3/4-y,1/4-x,1/4+z
1/4+y,1/4+x,1/4+z
loop_
_atom_site_type_symbol
_atom_site_label
_atom_site_fract_x
_atom_site_fract_y
_atom_site_fract_z
Si Si1 0.386910 0.988021 0.530227
Si Si2 0.403653 0.846348 0.625000
Si Si3 0.500000 0.750000 0.375000
Si Si4 0.331319 0.500000 0.750000
Si Si5 0.294019 0.769533 0.059203
Si Si6 0.033467 0.421830 0.420938
O O1 0.400688 0.916412 0.575913
O O2 0.394407 0.953723 0.462275
O O3 0.302383 0.027120 0.542770
O O4 0.454477 0.054408 0.541202
O O5 0.480574 0.875215 0.664412
O O6 0.533911 0.672664 0.410282
O O7 0.390920 0.441195 0.785395
O O8 0.224358 0.776835 0.109822
O O9 0.250000 0.729151 0.000000
#
# Coordination Sequence:
#
# PCOD9573852 Si02
#       6
#    32  16   8  16  32  32
#     4  10  23  40  62  94 126 169 216 278 335 410
#     4  10  22  40  68  93 128 175 218 280 338 420
#     4  12  24  36  72  90 128 176 220 284 342 420
#     4  10  22  38  66  92 130 168 220 278 340 412
#     4   9  22  41  62  95 130 170 223 282 346 422
#     4  10  23  41  60  91 128 166 222 270 340 409
#
# _framework density 22.022683000000001
#
# number of rings (size 3 to 8) (size 9 to 14) (size 15 to 20)
#    0.706    1.412    0.000    1.412    4.941    4.706 
#    0.000    0.000    0.000   13.412    0.000    0.000 
#    0.000    0.000    0.000    0.000    0.000    0.000 
#
# Total GULP energy -378776.191035 kJ/mol
# GULP energy per Si atom -5570.238103 kJ/mol
# Density = 2.197256 g / cm^3
# Si number density = 22.022683 Si / 1000 Ang^3
#
#
#
# Elastic Constant Matrix: (Units=GPa)
#
#
# Indices 1 2 3 4 5 6 
#
# 1 67.0780 -18.3153 11.4354 0.0000 0.0000 0.0000
# 2 -18.3153 67.0815 11.4330 0.0000 0.0000 0.0000
# 3 11.4354 11.4330 102.3530 0.0000 0.0000 0.0000
# 4 0.0000 0.0000 0.0000 -4.0826 0.0000 0.0000
# 5 0.0000 0.0000 0.0000 0.0000 -4.0834 0.0000
# 6 0.0000 0.0000 0.0000 0.0000 0.0000 30.0131
#
#
#
# Elastic Compliance Matrix: (Units=1/GPa)
#
#
# Indices 1 2 3 4 5 6 
#
# 1 0.016676 0.004965 -0.002418 0.000000 0.000000 0.000000
# 2 0.004965 0.016675 -0.002417 0.000000 0.000000 0.000000
# 3 -0.002418 -0.002417 0.010310 0.000000 0.000000 0.000000
# 4 0.000000 0.000000 0.000000 -0.244944 0.000000 0.000000
# 5 0.000000 0.000000 0.000000 0.000000 -0.244891 0.000000
# 6 0.000000 0.000000 0.000000 0.000000 0.000000 0.033319
#
#
# Mechanical properties :
#
#
# Convention : Reuss Voigt Hill
#
# Bulk Modulus (GPa) = 22.76812 27.29097 25.02955
# Shear Modulus (GPa) = -12.54785 19.83336 3.64276
#
# Velocity S-wave (km/s) = -2.38957 3.00424 1.28751
# Velocity P-wave (km/s) = 1.65756 4.94500 3.68785
#
# Compressibility (1/GPa) = 0.04392106
#
# Stress axis : x y z
#
# Youngs Moduli (GPa) = 59.96679 59.97050 96.99079
#
# Poissons Ratio (x) = -0.29776 0.23450
# Poissons Ratio (y) = -0.29774 0.23446
# Poissons Ratio (z) = 0.14498 0.14497
#
# Static dielectric constant tensor:
#      x y z
#    x 1.845650 0.000000 0.000000 
#    y 0.000000 1.845650 0.000000 
#    z 0.000000 0.000000 1.925520 
# 
# From -- ./inp_files/8837.got.cif
#   From: 2010.05.17/outbox.cif.g08.bks.cpg/sg142_5_cif.got.tgz:8837.got - 2010.05.20 13:39:18.
