data_PCOD9573060
_publ_section_title
;
Structure prediction by ZEFSAII (Michael W. Deem and Ramdas Pophale) SiO2 
 PCOD9573060
Probable space group: I 41/A M D
;
_chemical_formula_sum "Si O2"
_cell_formula_units_Z 128
_cell_length_a 20.404291
_cell_length_b 20.404291
_cell_length_c 18.325171
_cell_angle_alpha 90.000000
_cell_angle_beta 90.000000
_cell_angle_gamma 90.000000
_cell_volume 7629.411740
_symmetry_space_group_name_H-M "I 41/A M D"
_symmetry_group_IT_number 141
_space_group.IT_coordinate_system_code '2'
_symmetry_cell_setting 'tetragonal'
loop_
_space_group_symop_operation_xyz
x,y,z
1/4-y,3/4+x,1/4+z
-x,1/2-y,z
1/4+y,1/4-x,3/4+z
x,-y,-z
-x,1/2+y,-z
1/4+y,3/4+x,1/4-z
1/4-y,1/4-x,3/4-z
-x,-y,-z
3/4+y,1/4-x,3/4-z
x,1/2+y,-z
3/4-y,3/4+x,1/4-z
-x,y,z
x,1/2-y,z
3/4-y,1/4-x,3/4+z
3/4+y,3/4+x,1/4+z
1/2+x,1/2+y,1/2+z
3/4-y,1/4+x,3/4+z
1/2-x,-y,1/2+z
3/4+y,3/4-x,1/4+z
1/2+x,1/2-y,1/2-z
1/2-x,y,1/2-z
3/4+y,1/4+x,3/4-z
3/4-y,3/4-x,1/4-z
1/2-x,1/2-y,1/2-z
1/4+y,3/4-x,1/4-z
1/2+x,y,1/2-z
1/4-y,1/4+x,3/4-z
1/2-x,1/2+y,1/2+z
1/2+x,-y,1/2+z
1/4-y,3/4-x,1/4+z
1/4+y,1/4+x,3/4+z
loop_
_atom_site_type_symbol
_atom_site_label
_atom_site_fract_x
_atom_site_fract_y
_atom_site_fract_z
Si Si1 0.684686 0.672664 0.381754
Si Si2 0.878505 0.018471 0.711197
Si Si3 0.347433 0.000000 0.500000
Si Si4 0.000000 0.094665 0.457394
Si Si5 0.699226 0.750000 0.636307
Si Si6 0.369191 0.619191 0.875000
O O1 0.615623 0.634378 0.375000
O O2 0.676523 0.750000 0.378175
O O3 0.723935 0.654445 0.455908
O O4 0.723690 0.643079 0.313961
O O5 0.807771 0.052961 0.715843
O O6 0.934166 0.054009 0.661950
O O7 0.870694 0.946233 0.675602
O O8 0.000000 0.098180 0.544595
O O9 0.067168 0.122431 0.425851
O O10 0.000000 0.020603 0.424918
#
# Coordination Sequence:
#
# PCOD9573060 Si02
#       6
#    32  32  16  16  16  16
#     4  10  21  39  59  85 115 152 189 239 292 348
#     4  10  21  35  56  85 118 148 190 242 294 350
#     4  10  23  34  58  89 114 146 190 246 296 343
#     4   9  20  35  54  80 108 154 192 231 283 339
#     4   9  18  36  54  79 114 151 184 228 290 353
#     4  10  22  35  56  82 116 156 195 236 288 346
#
# _framework density 16.777177999999999
#
# number of rings (size 3 to 8) (size 9 to 14) (size 15 to 20)
#    0.000    2.250    1.250    0.375    8.750    2.500 
#    0.000    0.000    0.000    0.000    3.250    0.000 
#    0.000    0.000    0.000    0.000    0.000    0.000 
#
# Total GULP energy -356489.616143 kJ/mol
# GULP energy per Si atom -5570.150252 kJ/mol
# Density = 1.673899 g / cm^3
# Si number density = 16.777178 Si / 1000 Ang^3
#
#
#
# Elastic Constant Matrix: (Units=GPa)
#
#
# Indices 1 2 3 4 5 6 
#
# 1 132.3647 72.5367 77.8739 0.0000 0.0000 0.0000
# 2 72.5367 132.3647 77.8678 0.0000 0.0000 0.0000
# 3 77.8739 77.8678 142.3505 0.0000 0.0000 0.0000
# 4 0.0000 0.0000 0.0000 12.9782 0.0000 0.0000
# 5 0.0000 0.0000 0.0000 0.0000 12.9785 0.0000
# 6 0.0000 0.0000 0.0000 0.0000 0.0000 5.1323
#
#
#
# Elastic Compliance Matrix: (Units=1/GPa)
#
#
# Indices 1 2 3 4 5 6 
#
# 1 0.012535 -0.004180 -0.004570 0.000000 0.000000 0.000000
# 2 -0.004180 0.012534 -0.004569 0.000000 0.000000 0.000000
# 3 -0.004570 -0.004569 0.012025 0.000000 0.000000 0.000000
# 4 0.000000 0.000000 0.000000 0.077052 0.000000 0.000000
# 5 0.000000 0.000000 0.000000 0.000000 0.077051 0.000000
# 6 0.000000 0.000000 0.000000 0.000000 0.000000 0.194846
#
#
# Mechanical properties :
#
#
# Convention : Reuss Voigt Hill
#
# Bulk Modulus (GPa) = 95.66683 95.95964 95.81324
# Shear Modulus (GPa) = 12.01443 18.13789 15.07616
#
# Velocity S-wave (km/s) = 2.67894 3.29158 3.00094
# Velocity P-wave (km/s) = 8.16791 8.47152 8.32110
#
# Compressibility (1/GPa) = 0.01045294
#
# Stress axis : x y z
#
# Youngs Moduli (GPa) = 79.77862 79.78450 83.16232
#
# Poissons Ratio (x) = 0.33353 0.38009
# Poissons Ratio (y) = 0.33350 0.37999
# Poissons Ratio (z) = 0.36463 0.36456
#
# Static dielectric constant tensor:
#      x y z
#    x 1.558040 0.000000 0.000000 
#    y 0.000000 1.558040 0.000000 
#    z 0.000000 0.000000 1.569370 
# 
# From -- ./inp_files/6321.got.cif
#   From: 2010.05.17/outbox.cif.g08.bks.cpg/sg141_4_cif.got.tgz:6321.got - 2010.05.20 13:30:51.
