data_PCOD9573940
_publ_section_title
;
Structure prediction by ZEFSAII (Michael W. Deem and Ramdas Pophale) SiO2 
 PCOD9573940
Probable space group: I 41/A C D
;
_chemical_formula_sum "Si O2"
_cell_formula_units_Z 120
_cell_length_a 24.238373
_cell_length_b 24.238373
_cell_length_c 9.916288
_cell_angle_alpha 90.000000
_cell_angle_beta 90.000000
_cell_angle_gamma 90.000000
_cell_volume 5825.806564
_symmetry_space_group_name_H-M "I 41/A C D"
_symmetry_group_IT_number 142
_space_group.IT_coordinate_system_code '2'
_symmetry_cell_setting 'tetragonal'
loop_
_space_group_symop_operation_xyz
x,y,z
1/4-y,3/4+x,1/4+z
-x,1/2-y,z
1/4+y,1/4-x,3/4+z
x,-y,1/2-z
1/2-x,y,-z
3/4+y,1/4+x,1/4-z
1/4-y,1/4-x,1/4-z
-x,-y,-z
3/4+y,1/4-x,3/4-z
x,1/2+y,-z
3/4-y,3/4+x,1/4-z
-x,y,1/2+z
1/2+x,-y,z
1/4-y,3/4-x,3/4+z
3/4+y,3/4+x,3/4+z
1/2+x,1/2+y,1/2+z
3/4-y,1/4+x,3/4+z
1/2-x,-y,1/2+z
3/4+y,3/4-x,1/4+z
1/2+x,1/2-y,-z
-x,1/2+y,1/2-z
1/4+y,3/4+x,3/4-z
3/4-y,3/4-x,3/4-z
1/2-x,1/2-y,1/2-z
1/4+y,3/4-x,1/4-z
1/2+x,y,1/2-z
1/4-y,1/4+x,3/4-z
1/2-x,1/2+y,z
x,1/2-y,1/2+z
3/4-y,1/4-x,1/4+z
1/4+y,1/4+x,1/4+z
loop_
_atom_site_type_symbol
_atom_site_label
_atom_site_fract_x
_atom_site_fract_y
_atom_site_fract_z
Si Si1 0.333058 0.254989 0.693198
Si Si2 0.249123 0.834875 0.159018
Si Si3 0.288716 0.538716 0.625000
Si Si4 0.975800 0.352228 0.184485
Si Si5 0.500000 0.250000 0.625000
O O1 0.288883 0.297446 0.751378
O O2 0.310575 0.191570 0.698527
O O3 0.348429 0.271800 0.541627
O O4 0.382566 0.259490 0.800758
O O5 0.271971 0.897920 0.165118
O O6 0.250000 0.821708 0.000000
O O7 0.275443 0.500000 0.750000
O O8 0.997647 0.302036 0.275191
O O9 0.917419 0.332582 0.125000
#
# Coordination Sequence:
#
# PCOD9573940 Si02
#       5
#    32  32  16  32   8
#     4  11  24  43  69 104 136 182 242 290 356 424
#     4  10  22  45  76  99 134 181 237 297 356 429
#     4  10  24  48  68 100 135 180 232 301 366 426
#     4  12  25  40  63  98 144 186 233 290 344 425
#     4  12  26  40  58  92 146 192 238 272 338 436
#
# _framework density 20.598006000000002
#
# number of rings (size 3 to 8) (size 9 to 14) (size 15 to 20)
#    0.000    1.067    5.333    0.400    0.000    6.400 
#    7.200    0.000    0.000    0.000    0.000    0.000 
#    0.000    0.000    0.000    0.000    0.000    0.000 
#
# Total GULP energy -334019.427791 kJ/mol
# GULP energy per Si atom -5566.990463 kJ/mol
# Density = 2.055112 g / cm^3
# Si number density = 20.598006 Si / 1000 Ang^3
#
#
#
# Elastic Constant Matrix: (Units=GPa)
#
#
# Indices 1 2 3 4 5 6 
#
# 1 84.0958 67.0573 50.3036 0.0000 0.0000 0.0000
# 2 67.0573 84.0934 50.3001 0.0000 0.0000 0.0000
# 3 50.3036 50.3001 126.5863 0.0000 0.0000 0.0000
# 4 0.0000 0.0000 0.0000 22.1299 0.0000 0.0000
# 5 0.0000 0.0000 0.0000 0.0000 22.1332 0.0000
# 6 0.0000 0.0000 0.0000 0.0000 0.0000 20.4637
#
#
#
# Elastic Compliance Matrix: (Units=1/GPa)
#
#
# Indices 1 2 3 4 5 6 
#
# 1 0.033845 -0.024850 -0.003575 0.000000 0.000000 0.000000
# 2 -0.024850 0.033845 -0.003573 0.000000 0.000000 0.000000
# 3 -0.003575 -0.003573 0.010740 0.000000 0.000000 0.000000
# 4 0.000000 0.000000 0.000000 0.045188 0.000000 0.000000
# 5 0.000000 0.000000 0.000000 0.000000 0.045181 0.000000
# 6 0.000000 0.000000 0.000000 0.000000 0.000000 0.048867
#
#
# Mechanical properties :
#
#
# Convention : Reuss Voigt Hill
#
# Bulk Modulus (GPa) = 69.28618 70.01084 69.64851
# Shear Modulus (GPa) = 17.45362 21.41964 19.43663
#
# Velocity S-wave (km/s) = 2.91408 3.22823 3.07517
# Velocity P-wave (km/s) = 6.71065 6.92519 6.81876
#
# Compressibility (1/GPa) = 0.01443289
#
# Stress axis : x y z
#
# Youngs Moduli (GPa) = 29.54663 29.54681 93.10632
#
# Poissons Ratio (x) = 0.73423 0.33287
# Poissons Ratio (y) = 0.73423 0.33271
# Poissons Ratio (z) = 0.10563 0.10558
#
# Static dielectric constant tensor:
#      x y z
#    x 1.812830 0.000000 0.000000 
#    y 0.000000 1.812840 0.000000 
#    z 0.000000 0.000000 1.751990 
# 
# From -- ./inp_files/1892.got.cif
#   From: 2010.05.17/outbox.cif.g08.bks.cpg/sg142_1_cif.got.tgz:1892.got - 2010.05.20 13:39:18.
