data_PCOD9573983
_publ_section_title
;
Structure prediction by ZEFSAII (Michael W. Deem and Ramdas Pophale) SiO2 
 PCOD9573983
Probable space group: I 41/A C D
;
_chemical_formula_sum "Si O2"
_cell_formula_units_Z 104
_cell_length_a 14.722257
_cell_length_b 14.722257
_cell_length_c 17.811907
_cell_angle_alpha 90.000000
_cell_angle_beta 90.000000
_cell_angle_gamma 90.000000
_cell_volume 3860.639132
_symmetry_space_group_name_H-M "I 41/A C D"
_symmetry_group_IT_number 142
_space_group.IT_coordinate_system_code '2'
_symmetry_cell_setting 'tetragonal'
loop_
_space_group_symop_operation_xyz
x,y,z
1/4-y,3/4+x,1/4+z
-x,1/2-y,z
1/4+y,1/4-x,3/4+z
x,-y,1/2-z
1/2-x,y,-z
3/4+y,1/4+x,1/4-z
1/4-y,1/4-x,1/4-z
-x,-y,-z
3/4+y,1/4-x,3/4-z
x,1/2+y,-z
3/4-y,3/4+x,1/4-z
-x,y,1/2+z
1/2+x,-y,z
1/4-y,3/4-x,3/4+z
3/4+y,3/4+x,3/4+z
1/2+x,1/2+y,1/2+z
3/4-y,1/4+x,3/4+z
1/2-x,-y,1/2+z
3/4+y,3/4-x,1/4+z
1/2+x,1/2-y,-z
-x,1/2+y,1/2-z
1/4+y,3/4+x,3/4-z
3/4-y,3/4-x,3/4-z
1/2-x,1/2-y,1/2-z
1/4+y,3/4-x,1/4-z
1/2+x,y,1/2-z
1/4-y,1/4+x,3/4-z
1/2-x,1/2+y,z
x,1/2-y,1/2+z
3/4-y,1/4-x,1/4+z
1/4+y,1/4+x,1/4+z
loop_
_atom_site_type_symbol
_atom_site_label
_atom_site_fract_x
_atom_site_fract_y
_atom_site_fract_z
Si Si1 0.000000 0.750000 0.625000
Si Si2 0.288807 0.108154 0.250201
Si Si3 0.985751 0.047644 0.618267
Si Si4 0.134546 0.753630 0.517046
O O1 0.941225 0.694905 0.565836
O O2 0.286193 0.166807 0.327331
O O3 0.221239 0.158957 0.193045
O O4 0.393733 0.119441 0.224825
O O5 0.269379 0.000000 0.250000
O O6 0.981703 0.128537 0.678788
O O7 0.973395 0.971158 0.682333
#
# Coordination Sequence:
#
# PCOD9573983 Si02
#       4
#     8  32  32  32
#     4  12  24  44  70 104 148 216 242 332 408 476
#     4  11  22  42  75 104 150 202 253 324 409 475
#     4  10  23  43  69 111 145 191 262 330 385 487
#     4  11  22  42  71 101 149 194 259 320 401 478
#
# _framework density 26.938542999999999
#
# number of rings (size 3 to 8) (size 9 to 14) (size 15 to 20)
#    0.000    1.231    6.154    0.923    0.000    0.000 
#    0.000   15.385    0.000    0.000    0.000    0.000 
#    0.000    0.000    0.000    0.000    0.000    0.000 
#
# Total GULP energy -290177.511547 kJ/mol
# GULP energy per Si atom -5580.336761 kJ/mol
# Density = 2.687723 g / cm^3
# Si number density = 26.938543 Si / 1000 Ang^3
#
#
#
# Elastic Constant Matrix: (Units=GPa)
#
#
# Indices 1 2 3 4 5 6 
#
# 1 106.2932 26.7577 70.1230 0.0000 0.0000 0.0000
# 2 26.7577 106.2932 70.1230 0.0000 0.0000 0.0000
# 3 70.1230 70.1230 279.6225 0.0000 0.0000 0.0000
# 4 0.0000 0.0000 0.0000 -397.5035 -0.0001 0.0000
# 5 0.0000 0.0000 0.0000 -0.0001 -397.5036 0.0000
# 6 0.0000 0.0000 0.0000 0.0000 0.0000 23.2348
#
#
#
# Elastic Compliance Matrix: (Units=1/GPa)
#
#
# Indices 1 2 3 4 5 6 
#
# 1 0.011395 -0.001178 -0.002562 0.000000 0.000000 0.000000
# 2 -0.001178 0.011395 -0.002562 0.000000 0.000000 0.000000
# 3 -0.002562 -0.002562 0.004861 0.000000 0.000000 0.000000
# 4 0.000000 0.000000 0.000000 -0.002516 0.000000 0.000000
# 5 0.000000 0.000000 0.000000 0.000000 -0.002516 0.000000
# 6 0.000000 0.000000 0.000000 0.000000 0.000000 0.043039
#
#
# Mechanical properties :
#
#
# Convention : Reuss Voigt Hill
#
# Bulk Modulus (GPa) = 66.46259 91.80180 79.13220
# Shear Modulus (GPa) = 60.03962 -132.67412 -36.31725
#
# Velocity S-wave (km/s) = 4.72610 -7.02550 -3.67570
# Velocity P-wave (km/s) = 7.38287 5.62653 3.38001
#
# Compressibility (1/GPa) = 0.01504606
#
# Stress axis : x y z
#
# Youngs Moduli (GPa) = 87.75955 87.75955 205.70746
#
# Poissons Ratio (x) = 0.10340 0.52704
# Poissons Ratio (y) = 0.10340 0.52704
# Poissons Ratio (z) = 0.22485 0.22485
#
# Static dielectric constant tensor:
#      x y z
#    x 16.702270 0.000000 0.000000 
#    y 0.000000 16.702270 0.000000 
#    z 0.000000 0.000000 9.399500 
# 
# From -- ./inp_files/6682.got.cif
#   From: 2010.05.17/outbox.cif.g08.bks.cpg/sg142_4_cif.got.tgz:6682.got - 2010.05.20 13:39:18.
