data_PCOD9573208
_publ_section_title
;
Structure prediction by ZEFSAII (Michael W. Deem and Ramdas Pophale) SiO2 
 PCOD9573208
Probable space group: I 41/A M D
;
_chemical_formula_sum "Si O2"
_cell_formula_units_Z 160
_cell_length_a 26.821999
_cell_length_b 26.821999
_cell_length_c 9.451884
_cell_angle_alpha 90.000000
_cell_angle_beta 90.000000
_cell_angle_gamma 90.000000
_cell_volume 6799.870893
_symmetry_space_group_name_H-M "I 41/A M D"
_symmetry_group_IT_number 141
_space_group.IT_coordinate_system_code '2'
_symmetry_cell_setting 'tetragonal'
loop_
_space_group_symop_operation_xyz
x,y,z
1/4-y,3/4+x,1/4+z
-x,1/2-y,z
1/4+y,1/4-x,3/4+z
x,-y,-z
-x,1/2+y,-z
1/4+y,3/4+x,1/4-z
1/4-y,1/4-x,3/4-z
-x,-y,-z
3/4+y,1/4-x,3/4-z
x,1/2+y,-z
3/4-y,3/4+x,1/4-z
-x,y,z
x,1/2-y,z
3/4-y,1/4-x,3/4+z
3/4+y,3/4+x,1/4+z
1/2+x,1/2+y,1/2+z
3/4-y,1/4+x,3/4+z
1/2-x,-y,1/2+z
3/4+y,3/4-x,1/4+z
1/2+x,1/2-y,1/2-z
1/2-x,y,1/2-z
3/4+y,1/4+x,3/4-z
3/4-y,3/4-x,1/4-z
1/2-x,1/2-y,1/2-z
1/4+y,3/4-x,1/4-z
1/2+x,y,1/2-z
1/4-y,1/4+x,3/4-z
1/2-x,1/2+y,1/2+z
1/2+x,-y,1/2+z
1/4-y,3/4-x,1/4+z
1/4+y,1/4+x,3/4+z
loop_
_atom_site_type_symbol
_atom_site_label
_atom_site_fract_x
_atom_site_fract_y
_atom_site_fract_z
Si Si1 0.098272 0.022290 0.358248
Si Si2 0.647563 0.551617 0.566539
Si Si3 0.410295 0.430042 0.695908
Si Si4 0.500000 0.083181 0.085231
Si Si5 0.500000 0.163984 0.318285
Si Si6 0.392629 0.250000 0.603599
Si Si7 0.570846 0.250000 0.333089
O O1 0.133703 0.045215 0.232850
O O2 0.053117 0.055892 0.413803
O O3 0.124478 0.000000 0.500000
O O4 0.070229 0.977574 0.277542
O O5 0.671978 0.500000 0.500000
O O6 0.598902 0.555595 0.467244
O O7 0.671305 0.605539 0.521696
O O8 0.449011 0.385594 0.690828
O O9 0.500000 0.114873 0.228395
O O10 0.500000 0.122246 0.958536
O O11 0.500000 0.150481 0.481595
O O12 0.546251 0.199407 0.280864
O O13 0.439187 0.250000 0.500055
#
# Coordination Sequence:
#
# PCOD9573208 Si02
#       7
#    32  32  32  16  16  16  16
#     4  11  23  41  64  99 135 179 237 302 360 438
#     4   9  21  41  68  98 140 192 236 294 361 446
#     4  10  22  41  67 103 143 178 233 296 383 440
#     4  12  24  42  68  89 134 186 235 290 370 431
#     4  11  26  45  64  97 134 184 243 282 349 444
#     4  12  23  37  71 105 140 176 229 307 366 438
#     4  11  26  44  61  95 137 186 227 293 350 436
#
# _framework density 23.529858999999998
#
# number of rings (size 3 to 8) (size 9 to 14) (size 15 to 20)
#    0.000    1.400    0.000    4.500    8.400    2.400 
#    3.600    4.000    0.000   18.000    0.000    0.000 
#    0.000    0.000    0.000    0.000    0.000    0.000 
#
# Total GULP energy -445962.899324 kJ/mol
# GULP energy per Si atom -5574.536242 kJ/mol
# Density = 2.347630 g / cm^3
# Si number density = 23.529859 Si / 1000 Ang^3
#
#
#
# Elastic Constant Matrix: (Units=GPa)
#
#
# Indices 1 2 3 4 5 6 
#
# 1 84.5644 41.3209 29.5127 0.0000 0.0000 0.0000
# 2 41.3209 84.5644 29.5127 0.0000 0.0000 0.0000
# 3 29.5127 29.5127 193.8382 0.0000 0.0000 0.0000
# 4 0.0000 0.0000 0.0000 32.4058 0.0000 0.0000
# 5 0.0000 0.0000 0.0000 0.0000 32.4058 0.0000
# 6 0.0000 0.0000 0.0000 0.0000 0.0000 -4.1412
#
#
#
# Elastic Compliance Matrix: (Units=1/GPa)
#
#
# Indices 1 2 3 4 5 6 
#
# 1 0.015840 -0.007285 -0.001302 0.000000 0.000000 0.000000
# 2 -0.007285 0.015840 -0.001302 0.000000 0.000000 0.000000
# 3 -0.001302 -0.001302 0.005556 0.000000 0.000000 0.000000
# 4 0.000000 0.000000 0.000000 0.030859 0.000000 0.000000
# 5 0.000000 0.000000 0.000000 0.000000 0.030859 0.000000
# 6 0.000000 0.000000 0.000000 0.000000 0.000000 -0.241474
#
#
# Mechanical properties :
#
#
# Convention : Reuss Voigt Hill
#
# Bulk Modulus (GPa) = 57.29141 62.62884 59.96012
# Shear Modulus (GPa) = -42.76304 29.64213 -6.56046
#
# Velocity S-wave (km/s) = -4.26772 3.55317 -1.67158
# Velocity P-wave (km/s) = 0.34162 6.59605 4.67036
#
# Compressibility (1/GPa) = 0.01745462
#
# Stress axis : x y z
#
# Youngs Moduli (GPa) = 63.13275 63.13275 180.00027
#
# Poissons Ratio (x) = 0.45993 0.23444
# Poissons Ratio (y) = 0.45993 0.23444
# Poissons Ratio (z) = 0.08223 0.08223
#
# Static dielectric constant tensor:
#      x y z
#    x 1.955560 0.000000 0.000000 
#    y 0.000000 1.955560 0.000000 
#    z 0.000000 0.000000 1.922890 
# 
# From -- ./inp_files/3359.got.cif
#   From: 2010.05.17/outbox.cif.g08.bks.cpg/sg141_2_cif.got.tgz:3359.got - 2010.05.20 13:30:51.
