data_PCOD9573673
_publ_section_title
;
Structure prediction by ZEFSAII (Michael W. Deem and Ramdas Pophale) SiO2 
 PCOD9573673
Probable space group: I 41/A C D
;
_chemical_formula_sum "Si O2"
_cell_formula_units_Z 160
_cell_length_a 20.853425
_cell_length_b 20.853425
_cell_length_c 16.998939
_cell_angle_alpha 90.000000
_cell_angle_beta 90.000000
_cell_angle_gamma 90.000000
_cell_volume 7392.249290
_symmetry_space_group_name_H-M "I 41/A C D"
_symmetry_group_IT_number 142
_space_group.IT_coordinate_system_code '2'
_symmetry_cell_setting 'tetragonal'
loop_
_space_group_symop_operation_xyz
x,y,z
1/4-y,3/4+x,1/4+z
-x,1/2-y,z
1/4+y,1/4-x,3/4+z
x,-y,1/2-z
1/2-x,y,-z
3/4+y,1/4+x,1/4-z
1/4-y,1/4-x,1/4-z
-x,-y,-z
3/4+y,1/4-x,3/4-z
x,1/2+y,-z
3/4-y,3/4+x,1/4-z
-x,y,1/2+z
1/2+x,-y,z
1/4-y,3/4-x,3/4+z
3/4+y,3/4+x,3/4+z
1/2+x,1/2+y,1/2+z
3/4-y,1/4+x,3/4+z
1/2-x,-y,1/2+z
3/4+y,3/4-x,1/4+z
1/2+x,1/2-y,-z
-x,1/2+y,1/2-z
1/4+y,3/4+x,3/4-z
3/4-y,3/4-x,3/4-z
1/2-x,1/2-y,1/2-z
1/4+y,3/4-x,1/4-z
1/2+x,y,1/2-z
1/4-y,1/4+x,3/4-z
1/2-x,1/2+y,z
x,1/2-y,1/2+z
3/4-y,1/4-x,1/4+z
1/4+y,1/4+x,1/4+z
loop_
_atom_site_type_symbol
_atom_site_label
_atom_site_fract_x
_atom_site_fract_y
_atom_site_fract_z
Si Si1 0.409328 0.082911 0.313675
Si Si2 0.869621 0.438885 0.857291
Si Si3 0.817507 0.245534 0.796778
Si Si4 0.737069 0.149299 0.593170
Si Si5 0.036320 0.611824 0.889761
O O1 0.382523 0.132523 0.375000
O O2 0.384726 0.093845 0.226228
O O3 0.485617 0.087634 0.324332
O O4 0.381746 0.014020 0.341062
O O5 0.925399 0.421061 0.917855
O O6 0.800591 0.416351 0.887504
O O7 0.750000 0.250000 0.750000
O O8 0.809505 0.295846 0.868114
O O9 0.865393 0.250150 0.723436
O O10 0.750000 0.154568 0.500000
O O11 0.804679 0.160579 0.637319
O O12 0.072268 0.677733 0.875000
#
# Coordination Sequence:
#
# PCOD9573673 Si02
#       5
#    32  32  32  32  32
#     4  11  24  44  66  95 137 184 231 281 359 428
#     4  11  23  40  68  95 133 184 224 288 354 425
#     4  10  20  38  65  94 131 173 226 279 345 412
#     4  11  22  40  66  96 135 176 234 286 354 416
#     4  11  23  41  70  98 135 177 233 293 351 425
#
# _framework density 21.644290999999999
#
# number of rings (size 3 to 8) (size 9 to 14) (size 15 to 20)
#    0.000    1.200    4.000    3.600    2.800    1.200 
#    3.600    0.000    0.000    3.000    0.000    0.000 
#    0.000    0.000    0.000    0.000    0.000    0.000 
#
# Total GULP energy -446339.295349 kJ/mol
# GULP energy per Si atom -5579.241192 kJ/mol
# Density = 2.159503 g / cm^3
# Si number density = 21.644291 Si / 1000 Ang^3
#
#
#
# Elastic Constant Matrix: (Units=GPa)
#
#
# Indices 1 2 3 4 5 6 
#
# 1 61.0363 62.2811 36.9689 0.0000 0.0000 0.0000
# 2 62.2811 61.0294 36.9698 0.0000 0.0000 0.0000
# 3 36.9689 36.9698 152.6628 0.0000 0.0000 0.0000
# 4 0.0000 0.0000 0.0000 28.4641 0.0000 0.0000
# 5 0.0000 0.0000 0.0000 0.0000 28.4631 0.0000
# 6 0.0000 0.0000 0.0000 0.0000 0.0000 -17.0186
#
#
#
# Elastic Compliance Matrix: (Units=1/GPa)
#
#
# Indices 1 2 3 4 5 6 
#
# 1 -0.395803 0.405318 -0.002306 0.000000 0.000000 0.000000
# 2 0.405318 -0.395859 -0.002288 0.000000 0.000000 0.000000
# 3 -0.002306 -0.002288 0.007663 0.000000 0.000000 0.000000
# 4 0.000000 0.000000 0.000000 0.035132 0.000000 0.000000
# 5 0.000000 0.000000 0.000000 0.000000 0.035133 0.000000
# 6 0.000000 0.000000 0.000000 0.000000 0.000000 -0.058759
#
#
# Mechanical properties :
#
#
# Convention : Reuss Voigt Hill
#
# Bulk Modulus (GPa) = 57.31537 60.79645 59.05591
# Shear Modulus (GPa) = -3.18853 17.21565 7.01356
#
# Velocity S-wave (km/s) = -1.21505 2.82332 1.80206
# Velocity P-wave (km/s) = 4.95677 6.22721 5.62795
#
# Compressibility (1/GPa) = 0.01744733
#
# Stress axis : x y z
#
# Youngs Moduli (GPa) = -2.52651 -2.52615 130.49608
#
# Poissons Ratio (x) = 1.02389 0.30098
# Poissons Ratio (y) = 1.02404 0.29862
# Poissons Ratio (z) = -0.00583 -0.00578
#
# Static dielectric constant tensor:
#      x y z
#    x 1.834900 0.000000 0.000000 
#    y 0.000000 1.834910 0.000000 
#    z 0.000000 0.000000 1.824430 
# 
# From -- ./inp_files/7372.got.cif
#   From: 2010.05.17/outbox.cif.g08.bks.cpg/sg142_4_cif.got.tgz:7372.got - 2010.05.20 13:39:18.
