data_PCOD9573523
_publ_section_title
;
Structure prediction by ZEFSAII (Michael W. Deem and Ramdas Pophale) SiO2 
 PCOD9573523
Probable space group: I 41/A C D
;
_chemical_formula_sum "Si O2"
_cell_formula_units_Z 128
_cell_length_a 20.727612
_cell_length_b 20.727612
_cell_length_c 12.799402
_cell_angle_alpha 90.000000
_cell_angle_beta 90.000000
_cell_angle_gamma 90.000000
_cell_volume 5499.056989
_symmetry_space_group_name_H-M "I 41/A C D"
_symmetry_group_IT_number 142
_space_group.IT_coordinate_system_code '2'
_symmetry_cell_setting 'tetragonal'
loop_
_space_group_symop_operation_xyz
x,y,z
1/4-y,3/4+x,1/4+z
-x,1/2-y,z
1/4+y,1/4-x,3/4+z
x,-y,1/2-z
1/2-x,y,-z
3/4+y,1/4+x,1/4-z
1/4-y,1/4-x,1/4-z
-x,-y,-z
3/4+y,1/4-x,3/4-z
x,1/2+y,-z
3/4-y,3/4+x,1/4-z
-x,y,1/2+z
1/2+x,-y,z
1/4-y,3/4-x,3/4+z
3/4+y,3/4+x,3/4+z
1/2+x,1/2+y,1/2+z
3/4-y,1/4+x,3/4+z
1/2-x,-y,1/2+z
3/4+y,3/4-x,1/4+z
1/2+x,1/2-y,-z
-x,1/2+y,1/2-z
1/4+y,3/4+x,3/4-z
3/4-y,3/4-x,3/4-z
1/2-x,1/2-y,1/2-z
1/4+y,3/4-x,1/4-z
1/2+x,y,1/2-z
1/4-y,1/4+x,3/4-z
1/2-x,1/2+y,z
x,1/2-y,1/2+z
3/4-y,1/4-x,1/4+z
1/4+y,1/4+x,1/4+z
loop_
_atom_site_type_symbol
_atom_site_label
_atom_site_fract_x
_atom_site_fract_y
_atom_site_fract_z
Si Si1 0.403082 0.153082 0.875000
Si Si2 0.446680 0.469975 0.641214
Si Si3 0.056693 0.173053 0.907996
Si Si4 0.089229 0.502295 0.917923
Si Si5 0.236232 0.513769 0.875000
O O1 0.441647 0.166747 0.770713
O O2 0.329428 0.166984 0.846022
O O3 0.427340 0.500000 0.750000
O O4 0.422815 0.396737 0.630435
O O5 0.418144 0.508618 0.542178
O O6 0.525330 0.471426 0.632696
O O7 0.076349 0.229613 0.831123
O O8 0.160414 0.491586 0.872244
O O9 0.256810 0.500000 0.750000
#
# Coordination Sequence:
#
# PCOD9573523 Si02
#       5
#    16  32  32  32  16
#     4   9  18  37  56  77 114 152 192 232 284 357
#     4  10  19  35  60  88 117 151 197 246 290 348
#     4  10  21  34  53  81 113 153 189 229 286 344
#     4   9  20  37  60  86 116 159 197 237 299 360
#     4  11  24  42  64  89 122 163 204 251 306 363
#
# _framework density 23.276717000000001
#
# number of rings (size 3 to 8) (size 9 to 14) (size 15 to 20)
#    0.000    2.250    0.000    2.250    0.000    7.000 
#    0.000    0.000    0.000    4.500    0.000    0.000 
#    0.000    0.000    0.000    0.000    0.000    0.000 
#
# Total GULP energy -356722.133939 kJ/mol
# GULP energy per Si atom -5573.783343 kJ/mol
# Density = 2.322374 g / cm^3
# Si number density = 23.276717 Si / 1000 Ang^3
#
#
#
# Elastic Constant Matrix: (Units=GPa)
#
#
# Indices 1 2 3 4 5 6 
#
# 1 48.9775 -2.5219 25.6981 0.0000 0.0000 0.0000
# 2 -2.5219 48.9780 25.6982 0.0000 0.0000 0.0000
# 3 25.6981 25.6982 196.6565 0.0000 0.0000 0.0000
# 4 0.0000 0.0000 0.0000 20.4647 0.0000 0.0000
# 5 0.0000 0.0000 0.0000 0.0000 20.4645 0.0000
# 6 0.0000 0.0000 0.0000 0.0000 0.0000 17.4085
#
#
#
# Elastic Compliance Matrix: (Units=1/GPa)
#
#
# Indices 1 2 3 4 5 6 
#
# 1 0.022291 0.002873 -0.003288 0.000000 0.000000 0.000000
# 2 0.002873 0.022291 -0.003288 0.000000 0.000000 0.000000
# 3 -0.003288 -0.003288 0.005944 0.000000 0.000000 0.000000
# 4 0.000000 0.000000 0.000000 0.048865 0.000000 0.000000
# 5 0.000000 0.000000 0.000000 0.000000 0.048865 0.000000
# 6 0.000000 0.000000 0.000000 0.000000 0.000000 0.057443
#
#
# Mechanical properties :
#
#
# Convention : Reuss Voigt Hill
#
# Bulk Modulus (GPa) = 23.19174 43.59566 33.39370
# Shear Modulus (GPa) = 21.98008 28.05004 25.01506
#
# Velocity S-wave (km/s) = 3.07627 3.47518 3.28179
# Velocity P-wave (km/s) = 4.75427 5.90529 5.36076
#
# Compressibility (1/GPa) = 0.04311880
#
# Stress axis : x y z
#
# Youngs Moduli (GPa) = 44.86155 44.86199 168.22543
#
# Poissons Ratio (x) = -0.12889 0.55318
# Poissons Ratio (y) = -0.12889 0.55317
# Poissons Ratio (z) = 0.14752 0.14752
#
# Static dielectric constant tensor:
#      x y z
#    x 1.913500 0.000000 0.000000 
#    y 0.000000 1.913490 0.000000 
#    z 0.000000 0.000000 1.976820 
# 
# From -- ./inp_files/3493.got.cif
#   From: 2010.05.17/outbox.cif.g08.bks.cpg/sg142_2_cif.got.tgz:3493.got - 2010.05.20 13:39:18.
