data_PCOD9573692
_publ_section_title
;
Structure prediction by ZEFSAII (Michael W. Deem and Ramdas Pophale) SiO2 
 PCOD9573692
Probable space group: I 41/A C D
;
_chemical_formula_sum "Si O2"
_cell_formula_units_Z 144
_cell_length_a 21.107895
_cell_length_b 21.107895
_cell_length_c 17.403601
_cell_angle_alpha 90.000000
_cell_angle_beta 90.000000
_cell_angle_gamma 90.000000
_cell_volume 7754.056626
_symmetry_space_group_name_H-M "I 41/A C D"
_symmetry_group_IT_number 142
_space_group.IT_coordinate_system_code '2'
_symmetry_cell_setting 'tetragonal'
loop_
_space_group_symop_operation_xyz
x,y,z
1/4-y,3/4+x,1/4+z
-x,1/2-y,z
1/4+y,1/4-x,3/4+z
x,-y,1/2-z
1/2-x,y,-z
3/4+y,1/4+x,1/4-z
1/4-y,1/4-x,1/4-z
-x,-y,-z
3/4+y,1/4-x,3/4-z
x,1/2+y,-z
3/4-y,3/4+x,1/4-z
-x,y,1/2+z
1/2+x,-y,z
1/4-y,3/4-x,3/4+z
3/4+y,3/4+x,3/4+z
1/2+x,1/2+y,1/2+z
3/4-y,1/4+x,3/4+z
1/2-x,-y,1/2+z
3/4+y,3/4-x,1/4+z
1/2+x,1/2-y,-z
-x,1/2+y,1/2-z
1/4+y,3/4+x,3/4-z
3/4-y,3/4-x,3/4-z
1/2-x,1/2-y,1/2-z
1/4+y,3/4-x,1/4-z
1/2+x,y,1/2-z
1/4-y,1/4+x,3/4-z
1/2-x,1/2+y,z
x,1/2-y,1/2+z
3/4-y,1/4-x,1/4+z
1/4+y,1/4+x,1/4+z
loop_
_atom_site_type_symbol
_atom_site_label
_atom_site_fract_x
_atom_site_fract_y
_atom_site_fract_z
Si Si1 0.250000 0.456523 0.500000
Si Si2 0.696012 0.915928 0.845735
Si Si3 0.522284 0.562332 0.955307
Si Si4 0.049130 0.193974 0.532911
Si Si5 0.186934 0.195026 0.451775
O O1 0.204054 0.501209 0.549057
O O2 0.210689 0.418393 0.436380
O O3 0.696620 0.844960 0.816747
O O4 0.627983 0.944628 0.824383
O O5 0.484233 0.568868 0.876343
O O6 0.500000 0.500000 0.000000
O O7 0.520269 0.627108 0.004375
O O8 0.055502 0.194499 0.625000
O O9 0.120057 0.201374 0.497454
O O10 0.000000 0.250000 0.510605
O O11 0.250000 0.213051 0.500000
#
# Coordination Sequence:
#
# PCOD9573692 Si02
#       5
#    16  32  32  32  32
#     4  10  20  40  62  88 126 158 208 252 322 366
#     4  10  22  39  62  90 122 166 203 259 313 374
#     4  11  24  40  63  95 127 163 212 264 317 384
#     4  10  24  44  65  92 127 172 215 264 325 383
#     4  11  23  40  66  92 127 169 215 263 317 390
#
# _framework density 18.570924999999999
#
# number of rings (size 3 to 8) (size 9 to 14) (size 15 to 20)
#    0.000    1.556    1.111    2.667    7.778    1.778 
#    0.000    2.222    0.000    0.000    0.000    0.000 
#    0.000    0.000    0.000    0.000    0.000    0.000 
#
# Total GULP energy -402016.849996 kJ/mol
# GULP energy per Si atom -5583.567361 kJ/mol
# Density = 1.852866 g / cm^3
# Si number density = 18.570925 Si / 1000 Ang^3
#
#
#
# Elastic Constant Matrix: (Units=GPa)
#
#
# Indices 1 2 3 4 5 6 
#
# 1 89.4054 69.2259 55.3668 0.0000 0.0000 0.0000
# 2 69.2259 89.4055 55.3671 0.0000 0.0000 0.0000
# 3 55.3668 55.3671 128.8364 0.0000 0.0000 0.0000
# 4 0.0000 0.0000 0.0000 37.7886 0.0000 0.0000
# 5 0.0000 0.0000 0.0000 0.0000 37.7891 0.0000
# 6 0.0000 0.0000 0.0000 0.0000 0.0000 29.8587
#
#
#
# Elastic Compliance Matrix: (Units=1/GPa)
#
#
# Indices 1 2 3 4 5 6 
#
# 1 0.029280 -0.020275 -0.003870 0.000000 0.000000 0.000000
# 2 -0.020275 0.029280 -0.003870 0.000000 0.000000 0.000000
# 3 -0.003870 -0.003870 0.011088 0.000000 0.000000 0.000000
# 4 0.000000 0.000000 0.000000 0.026463 0.000000 0.000000
# 5 0.000000 0.000000 0.000000 0.000000 0.026463 0.000000
# 6 0.000000 0.000000 0.000000 0.000000 0.000000 0.033491
#
#
# Mechanical properties :
#
#
# Convention : Reuss Voigt Hill
#
# Bulk Modulus (GPa) = 73.42827 74.17410 73.80118
# Shear Modulus (GPa) = 23.08029 29.59978 26.34003
#
# Velocity S-wave (km/s) = 3.52919 3.99667 3.77018
# Velocity P-wave (km/s) = 7.49881 7.83106 7.66673
#
# Compressibility (1/GPa) = 0.01361873
#
# Stress axis : x y z
#
# Youngs Moduli (GPa) = 34.15264 34.15257 90.18704
#
# Poissons Ratio (x) = 0.69244 0.34902
# Poissons Ratio (y) = 0.69244 0.34904
# Poissons Ratio (z) = 0.13217 0.13217
#
# Static dielectric constant tensor:
#      x y z
#    x 1.692380 0.000000 0.000000 
#    y 0.000000 1.692390 0.000000 
#    z 0.000000 0.000000 1.620550 
# 
# From -- ./inp_files/7294.got.cif
#   From: 2010.05.17/outbox.cif.g08.bks.cpg/sg142_4_cif.got.tgz:7294.got - 2010.05.20 13:39:18.
