data_PCOD9573611
_publ_section_title
;
Structure prediction by ZEFSAII (Michael W. Deem and Ramdas Pophale) SiO2 
 PCOD9573611
Probable space group: I 41/A C D
;
_chemical_formula_sum "Si O2"
_cell_formula_units_Z 112
_cell_length_a 13.145283
_cell_length_b 13.145283
_cell_length_c 27.735084
_cell_angle_alpha 90.000000
_cell_angle_beta 90.000000
_cell_angle_gamma 90.000000
_cell_volume 4792.579946
_symmetry_space_group_name_H-M "I 41/A C D"
_symmetry_group_IT_number 142
_space_group.IT_coordinate_system_code '2'
_symmetry_cell_setting 'tetragonal'
loop_
_space_group_symop_operation_xyz
x,y,z
1/4-y,3/4+x,1/4+z
-x,1/2-y,z
1/4+y,1/4-x,3/4+z
x,-y,1/2-z
1/2-x,y,-z
3/4+y,1/4+x,1/4-z
1/4-y,1/4-x,1/4-z
-x,-y,-z
3/4+y,1/4-x,3/4-z
x,1/2+y,-z
3/4-y,3/4+x,1/4-z
-x,y,1/2+z
1/2+x,-y,z
1/4-y,3/4-x,3/4+z
3/4+y,3/4+x,3/4+z
1/2+x,1/2+y,1/2+z
3/4-y,1/4+x,3/4+z
1/2-x,-y,1/2+z
3/4+y,3/4-x,1/4+z
1/2+x,1/2-y,-z
-x,1/2+y,1/2-z
1/4+y,3/4+x,3/4-z
3/4-y,3/4-x,3/4-z
1/2-x,1/2-y,1/2-z
1/4+y,3/4-x,1/4-z
1/2+x,y,1/2-z
1/4-y,1/4+x,3/4-z
1/2-x,1/2+y,z
x,1/2-y,1/2+z
3/4-y,1/4-x,1/4+z
1/4+y,1/4+x,1/4+z
loop_
_atom_site_type_symbol
_atom_site_label
_atom_site_fract_x
_atom_site_fract_y
_atom_site_fract_z
Si Si1 0.664001 0.874132 0.068195
Si Si2 0.196253 0.108392 0.355858
Si Si3 0.937081 0.925309 0.555361
Si Si4 0.000000 0.250000 0.732900
O O1 0.636310 0.886310 0.125000
O O2 0.785811 0.879046 0.070598
O O3 0.598960 0.782531 0.047643
O O4 0.629223 0.977088 0.041030
O O5 0.221624 0.211221 0.329103
O O6 0.126812 0.129439 0.402421
O O7 0.292458 0.042458 0.375000
O O8 0.966772 0.845139 0.515386
#
# Coordination Sequence:
#
# PCOD9573611 Si02
#       4
#    32  32  32  16
#     4   9  22  40  56  81 119 159 196 237 297 368
#     4   9  20  39  60  83 116 159 197 238 297 367
#     4  10  20  36  59  86 115 150 199 247 293 348
#     4  12  21  35  58  86 118 148 192 253 293 334
#
# _framework density 23.369458000000002
#
# number of rings (size 3 to 8) (size 9 to 14) (size 15 to 20)
#    0.000    2.857    0.000    3.000    0.000    5.714 
#    0.000    5.714    0.000    0.000    0.000    0.000 
#    0.000    0.000    0.000    0.000    0.000    0.000 
#
# Total GULP energy -313100.447638 kJ/mol
# GULP energy per Si atom -5591.079422 kJ/mol
# Density = 2.331627 g / cm^3
# Si number density = 23.369458 Si / 1000 Ang^3
#
#
#
# Elastic Constant Matrix: (Units=GPa)
#
#
# Indices 1 2 3 4 5 6 
#
# 1 45.0619 8.8195 16.8942 0.0000 0.0000 0.0000
# 2 8.8195 45.0619 16.8942 0.0000 0.0000 0.0000
# 3 16.8942 16.8942 46.9568 0.0000 0.0000 0.0000
# 4 0.0000 0.0000 0.0000 19.0789 0.0000 0.0000
# 5 0.0000 0.0000 0.0000 0.0000 19.0789 0.0000
# 6 0.0000 0.0000 0.0000 0.0000 0.0000 23.3901
#
#
#
# Elastic Compliance Matrix: (Units=1/GPa)
#
#
# Indices 1 2 3 4 5 6 
#
# 1 0.025779 -0.001813 -0.008623 0.000000 0.000000 0.000000
# 2 -0.001813 0.025779 -0.008623 0.000000 0.000000 0.000000
# 3 -0.008623 -0.008623 0.027501 0.000000 0.000000 0.000000
# 4 0.000000 0.000000 0.000000 0.052414 0.000000 0.000000
# 5 0.000000 0.000000 0.000000 0.000000 0.052414 0.000000
# 6 0.000000 0.000000 0.000000 0.000000 0.000000 0.042753
#
#
# Mechanical properties :
#
#
# Convention : Reuss Voigt Hill
#
# Bulk Modulus (GPa) = 24.42425 24.69960 24.56192
# Shear Modulus (GPa) = 17.95950 18.60777 18.28363
#
# Velocity S-wave (km/s) = 2.77520 2.82484 2.80013
# Velocity P-wave (km/s) = 4.55445 4.60779 4.58120
#
# Compressibility (1/GPa) = 0.04094292
#
# Stress axis : x y z
#
# Youngs Moduli (GPa) = 38.79085 38.79085 36.36257
#
# Poissons Ratio (x) = 0.07032 0.31355
# Poissons Ratio (y) = 0.07032 0.31355
# Poissons Ratio (z) = 0.33448 0.33448
#
# Static dielectric constant tensor:
#      x y z
#    x 1.888220 0.000000 0.000000 
#    y 0.000000 1.888220 0.000000 
#    z 0.000000 0.000000 1.915280 
# 
# From -- ./inp_files/12221.got.cif
#   From: 2010.05.17/outbox.cif.g08.bks.cpg/sg142_7_cif.got.tgz:12221.got - 2010.05.20 13:39:18.
