data_PCOD9573703
_publ_section_title
;
Structure prediction by ZEFSAII (Michael W. Deem and Ramdas Pophale) SiO2 
 PCOD9573703
Probable space group: I 41/A C D
;
_chemical_formula_sum "Si O2"
_cell_formula_units_Z 136
_cell_length_a 22.598791
_cell_length_b 22.598791
_cell_length_c 10.949078
_cell_angle_alpha 90.000000
_cell_angle_beta 90.000000
_cell_angle_gamma 90.000000
_cell_volume 5591.752763
_symmetry_space_group_name_H-M "I 41/A C D"
_symmetry_group_IT_number 142
_space_group.IT_coordinate_system_code '2'
_symmetry_cell_setting 'tetragonal'
loop_
_space_group_symop_operation_xyz
x,y,z
1/4-y,3/4+x,1/4+z
-x,1/2-y,z
1/4+y,1/4-x,3/4+z
x,-y,1/2-z
1/2-x,y,-z
3/4+y,1/4+x,1/4-z
1/4-y,1/4-x,1/4-z
-x,-y,-z
3/4+y,1/4-x,3/4-z
x,1/2+y,-z
3/4-y,3/4+x,1/4-z
-x,y,1/2+z
1/2+x,-y,z
1/4-y,3/4-x,3/4+z
3/4+y,3/4+x,3/4+z
1/2+x,1/2+y,1/2+z
3/4-y,1/4+x,3/4+z
1/2-x,-y,1/2+z
3/4+y,3/4-x,1/4+z
1/2+x,1/2-y,-z
-x,1/2+y,1/2-z
1/4+y,3/4+x,3/4-z
3/4-y,3/4-x,3/4-z
1/2-x,1/2-y,1/2-z
1/4+y,3/4-x,1/4-z
1/2+x,y,1/2-z
1/4-y,1/4+x,3/4-z
1/2-x,1/2+y,z
x,1/2-y,1/2+z
3/4-y,1/4-x,1/4+z
1/4+y,1/4+x,1/4+z
loop_
_atom_site_type_symbol
_atom_site_label
_atom_site_fract_x
_atom_site_fract_y
_atom_site_fract_z
Si Si1 0.267352 0.870394 0.375486
Si Si2 0.873809 0.285554 0.874271
Si Si3 0.318837 0.257515 0.369566
Si Si4 0.125867 0.466919 0.130477
Si Si5 0.500000 0.750000 0.375000
O O1 0.250000 0.902213 0.500000
O O2 0.334993 0.846263 0.371736
O O3 0.227002 0.810963 0.377490
O O4 0.253996 0.898018 0.244748
O O5 0.847808 0.244884 0.764864
O O6 0.942709 0.290448 0.839965
O O7 0.862475 0.264495 0.014209
O O8 0.285954 0.194891 0.381517
O O9 0.146827 0.500000 0.250000
O O10 0.150911 0.400911 0.125000
#
# Coordination Sequence:
#
# PCOD9573703 Si02
#       5
#    32  32  32  32   8
#     4   9  19  42  66  91 115 163 227 271 295 355
#     4  10  22  35  57  83 128 176 208 252 308 390
#     4  10  20  40  66  88 116 165 231 269 291 355
#     4  11  22  37  64  95 120 151 202 265 332 379
#     4  12  28  38  52  94 156 182 196 242 360 418
#
# _framework density 24.321534
#
# number of rings (size 3 to 8) (size 9 to 14) (size 15 to 20)
#    0.000    1.882    0.000    6.353    6.588    1.882 
#    0.000    2.353    0.000    0.000    0.000    0.000 
#    0.000    0.000    0.000    0.000    0.000    0.000 
#
# Total GULP energy -379093.534286 kJ/mol
# GULP energy per Si atom -5574.904916 kJ/mol
# Density = 2.426618 g / cm^3
# Si number density = 24.321534 Si / 1000 Ang^3
#
#
#
# Elastic Constant Matrix: (Units=GPa)
#
#
# Indices 1 2 3 4 5 6 
#
# 1 78.6802 6.0548 12.5166 0.0000 0.0000 0.0000
# 2 6.0548 78.6802 12.5166 0.0000 0.0000 0.0000
# 3 12.5166 12.5166 203.2257 0.0000 0.0000 0.0000
# 4 0.0000 0.0000 0.0000 3.4177 0.0000 0.0000
# 5 0.0000 0.0000 0.0000 0.0000 3.4177 0.0000
# 6 0.0000 0.0000 0.0000 0.0000 0.0000 14.3525
#
#
#
# Elastic Compliance Matrix: (Units=1/GPa)
#
#
# Indices 1 2 3 4 5 6 
#
# 1 0.012895 -0.000875 -0.000740 0.000000 0.000000 0.000000
# 2 -0.000875 0.012895 -0.000740 0.000000 0.000000 0.000000
# 3 -0.000740 -0.000740 0.005012 0.000000 0.000000 0.000000
# 4 0.000000 0.000000 0.000000 0.292594 0.000000 0.000000
# 5 0.000000 0.000000 0.000000 0.000000 0.292594 0.000000
# 6 0.000000 0.000000 0.000000 0.000000 0.000000 0.069674
#
#
# Mechanical properties :
#
#
# Convention : Reuss Voigt Hill
#
# Bulk Modulus (GPa) = 38.32743 46.97357 42.65050
# Shear Modulus (GPa) = 7.15234 26.20411 16.67823
#
# Velocity S-wave (km/s) = 1.71672 3.28594 2.62150
# Velocity P-wave (km/s) = 4.44099 5.80965 5.17080
#
# Compressibility (1/GPa) = 0.02609097
#
# Stress axis : x y z
#
# Youngs Moduli (GPa) = 77.55092 77.55092 199.52789
#
# Poissons Ratio (x) = 0.06782 0.14772
# Poissons Ratio (y) = 0.06782 0.14772
# Poissons Ratio (z) = 0.05741 0.05741
#
# Static dielectric constant tensor:
#      x y z
#    x 1.992800 0.000000 0.000000 
#    y 0.000000 1.992800 0.000000 
#    z 0.000000 0.000000 2.012420 
# 
# From -- ./inp_files/3564.got.cif
#   From: 2010.05.17/outbox.cif.g08.bks.cpg/sg142_2_cif.got.tgz:3564.got - 2010.05.20 13:39:18.
