data_PCOD9573386
_publ_section_title
;
Structure prediction by ZEFSAII (Michael W. Deem and Ramdas Pophale) SiO2 
 PCOD9573386
Probable space group: I 41/A M D
;
_chemical_formula_sum "Si O2"
_cell_formula_units_Z 80
_cell_length_a 24.000000
_cell_length_b 24.000000
_cell_length_c 15.000000
_cell_angle_alpha 90.000000
_cell_angle_beta 90.000000
_cell_angle_gamma 90.000000
_cell_volume 8640.000000
_symmetry_space_group_name_H-M "I 41/A M D"
_symmetry_group_IT_number 141
_space_group.IT_coordinate_system_code '2'
_symmetry_cell_setting 'tetragonal'
loop_
_space_group_symop_operation_xyz
x,y,z
1/4-y,3/4+x,1/4+z
-x,1/2-y,z
1/4+y,1/4-x,3/4+z
x,-y,-z
-x,1/2+y,-z
1/4+y,3/4+x,1/4-z
1/4-y,1/4-x,3/4-z
-x,-y,-z
3/4+y,1/4-x,3/4-z
x,1/2+y,-z
3/4-y,3/4+x,1/4-z
-x,y,z
x,1/2-y,z
3/4-y,1/4-x,3/4+z
3/4+y,3/4+x,1/4+z
1/2+x,1/2+y,1/2+z
3/4-y,1/4+x,3/4+z
1/2-x,-y,1/2+z
3/4+y,3/4-x,1/4+z
1/2+x,1/2-y,1/2-z
1/2-x,y,1/2-z
3/4+y,1/4+x,3/4-z
3/4-y,3/4-x,1/4-z
1/2-x,1/2-y,1/2-z
1/4+y,3/4-x,1/4-z
1/2+x,y,1/2-z
1/4-y,1/4+x,3/4-z
1/2-x,1/2+y,1/2+z
1/2+x,-y,1/2+z
1/4-y,3/4-x,1/4+z
1/4+y,1/4+x,3/4+z
loop_
_atom_site_type_symbol
_atom_site_label
_atom_site_fract_x
_atom_site_fract_y
_atom_site_fract_z
Si Si1 0.144474 0.514775 0.602916
Si Si2 0.358660 0.816665 0.440120
Si Si3 0.859584 0.683728 0.685335
Si Si4 0.737213 0.684364 0.144448
Si Si5 0.640834 0.122239 0.377663
O O1 0.149053 0.500000 0.500000
O O2 0.195736 0.554265 0.625000
O O3 0.089231 0.552793 0.611438
O O4 0.143889 0.455118 0.648412
O O5 0.399231 0.850770 0.375000
O O6 0.365963 0.750000 0.432803
O O7 0.294164 0.828285 0.410097
O O8 0.373395 0.838041 0.539325
O O9 0.909410 0.659410 0.625000
O O10 0.859801 0.750000 0.691873
O O11 0.861789 0.655329 0.783574
O O12 0.724088 0.750000 0.130234
O O13 0.750000 0.676870 0.250000
O O14 0.683613 0.646447 0.121709
#
# Coordination Sequence:
#
# PCOD9573386 Si02
#       5
#    32  32  32  32  32
#     4   9  21  37  56  86 123 157 197 251 307 361
#     4  11  24  41  63  93 127 165 209 257 314 377
#     4  10  23  43  63  89 126 165 208 259 310 364
#     4  10  22  41  62  88 126 164 202 254 313 373
#     4  11  23  39  65  94 120 163 213 254 309 377
#
# _framework density 9.2592590000000001
#
# number of rings (size 3 to 8) (size 9 to 14) (size 15 to 20)
#    0.000    1.800    2.000    0.600    8.400    7.200 
#    0.000    0.000    0.000    3.600    0.000    0.000 
#    0.000    0.000    0.000    0.000    0.000    0.000 
#
# Total GULP energy -446429.424335 kJ/mol
# GULP energy per Si atom -5580.367804 kJ/mol
# Density = 0.923818 g / cm^3
# Si number density = 9.259259 Si / 1000 Ang^3
#
#
#
# Elastic Constant Matrix: (Units=GPa)
#
#
# Indices 1 2 3 4 5 6 
#
# 1 146.7303 101.4085 42.0384 0.0000 0.0000 0.0000
# 2 101.4085 146.7341 42.0328 0.0000 0.0000 0.0000
# 3 42.0384 42.0328 64.2554 0.0000 0.0000 0.0000
# 4 0.0000 0.0000 0.0000 24.3425 0.0000 0.0000
# 5 0.0000 0.0000 0.0000 0.0000 24.3413 0.0000
# 6 0.0000 0.0000 0.0000 0.0000 0.0000 20.7690
#
#
#
# Elastic Compliance Matrix: (Units=1/GPa)
#
#
# Indices 1 2 3 4 5 6 
#
# 1 0.013621 -0.008443 -0.003389 0.000000 0.000000 0.000000
# 2 -0.008443 0.013620 -0.003386 0.000000 0.000000 0.000000
# 3 -0.003389 -0.003386 0.019995 0.000000 0.000000 0.000000
# 4 0.000000 0.000000 0.000000 0.041080 0.000000 0.000000
# 5 0.000000 0.000000 0.000000 0.000000 0.041082 0.000000
# 6 0.000000 0.000000 0.000000 0.000000 0.000000 0.048149
#
#
# Mechanical properties :
#
#
# Convention : Reuss Voigt Hill
#
# Bulk Modulus (GPa) = 59.51968 80.96434 70.24201
# Shear Modulus (GPa) = 23.41021 25.37323 24.39172
#
# Velocity S-wave (km/s) = 3.55935 3.70558 3.63320
# Velocity P-wave (km/s) = 7.00731 7.88188 7.45743
#
# Compressibility (1/GPa) = 0.01680116
#
# Stress axis : x y z
#
# Youngs Moduli (GPa) = 73.41524 73.42208 50.01356
#
# Poissons Ratio (x) = 0.61990 0.16947
# Poissons Ratio (y) = 0.61984 0.16933
# Poissons Ratio (z) = 0.24877 0.24859
#
# Static dielectric constant tensor:
#      x y z
#    x 1.649820 0.000000 0.000000 
#    y 0.000000 1.649840 0.000000 
#    z 0.000000 0.000000 1.668460 
# 
# From -- ./inp_files/6610.got.cif
#   From: 2010.05.17/outbox.ucp.g08.bks.cvg/sg141_4_cif.got.tgz:6610.got - 2010.06.11 11:43:24.
