data_PCOD9573783
_publ_section_title
;
Structure prediction by ZEFSAII (Michael W. Deem and Ramdas Pophale) SiO2 
 PCOD9573783
Probable space group: I 41/A C D
;
_chemical_formula_sum "Si O2"
_cell_formula_units_Z 160
_cell_length_a 23.008451
_cell_length_b 23.008451
_cell_length_c 15.067925
_cell_angle_alpha 90.000000
_cell_angle_beta 90.000000
_cell_angle_gamma 90.000000
_cell_volume 7976.790997
_symmetry_space_group_name_H-M "I 41/A C D"
_symmetry_group_IT_number 142
_space_group.IT_coordinate_system_code '2'
_symmetry_cell_setting 'tetragonal'
loop_
_space_group_symop_operation_xyz
x,y,z
1/4-y,3/4+x,1/4+z
-x,1/2-y,z
1/4+y,1/4-x,3/4+z
x,-y,1/2-z
1/2-x,y,-z
3/4+y,1/4+x,1/4-z
1/4-y,1/4-x,1/4-z
-x,-y,-z
3/4+y,1/4-x,3/4-z
x,1/2+y,-z
3/4-y,3/4+x,1/4-z
-x,y,1/2+z
1/2+x,-y,z
1/4-y,3/4-x,3/4+z
3/4+y,3/4+x,3/4+z
1/2+x,1/2+y,1/2+z
3/4-y,1/4+x,3/4+z
1/2-x,-y,1/2+z
3/4+y,3/4-x,1/4+z
1/2+x,1/2-y,-z
-x,1/2+y,1/2-z
1/4+y,3/4+x,3/4-z
3/4-y,3/4-x,3/4-z
1/2-x,1/2-y,1/2-z
1/4+y,3/4-x,1/4-z
1/2+x,y,1/2-z
1/4-y,1/4+x,3/4-z
1/2-x,1/2+y,z
x,1/2-y,1/2+z
3/4-y,1/4-x,1/4+z
1/4+y,1/4+x,1/4+z
loop_
_atom_site_type_symbol
_atom_site_label
_atom_site_fract_x
_atom_site_fract_y
_atom_site_fract_z
Si Si1 0.405976 0.264207 0.114200
Si Si2 0.533233 0.438985 0.500373
Si Si3 0.978315 0.359906 0.666305
Si Si4 0.888365 0.861636 0.875000
Si Si5 0.863483 0.988259 0.936532
Si Si6 0.250000 0.051960 0.000000
O O1 0.441342 0.204087 0.098944
O O2 0.356092 0.249096 0.184401
O O3 0.384712 0.288859 0.019403
O O4 0.500000 0.500000 0.500000
O O5 0.538740 0.409980 0.403608
O O6 0.594713 0.459832 0.537991
O O7 0.948337 0.301664 0.625000
O O8 0.048291 0.362045 0.668824
O O9 0.886839 0.921046 0.933888
O O10 0.841606 0.997776 0.836547
O O11 0.807560 0.986307 0.999079
#
# Coordination Sequence:
#
# PCOD9573783 Si02
#       6
#    32  32  32  16  32  16
#     4  11  26  45  72 101 137 187 227 280 353 430
#     4  12  26  43  67 105 138 178 227 293 352 410
#     4  12  24  45  69 102 138 177 227 283 351 420
#     4  10  21  38  72  96 130 176 218 286 328 405
#     4  10  22  41  68  98 133 179 236 280 338 407
#     4   8  20  42  66  94 120 188 232 280 322 414
#
# _framework density 20.058191000000001
#
# number of rings (size 3 to 8) (size 9 to 14) (size 15 to 20)
#    0.000    1.400    4.000    1.500    8.400    0.800 
#    3.600    0.000    0.000    0.000    0.000    0.000 
#    0.000    0.000    0.000    0.000    0.000    0.000 
#
# Total GULP energy -446153.260651 kJ/mol
# GULP energy per Si atom -5576.915758 kJ/mol
# Density = 2.001254 g / cm^3
# Si number density = 20.058191 Si / 1000 Ang^3
#
#
#
# Elastic Constant Matrix: (Units=GPa)
#
#
# Indices 1 2 3 4 5 6 
#
# 1 97.3533 30.2886 47.7215 0.0000 0.0000 0.0000
# 2 30.2886 97.3529 47.7200 0.0000 0.0000 0.0000
# 3 47.7215 47.7200 116.4375 0.0000 0.0000 0.0000
# 4 0.0000 0.0000 0.0000 19.2849 0.0000 0.0000
# 5 0.0000 0.0000 0.0000 0.0000 19.2849 0.0000
# 6 0.0000 0.0000 0.0000 0.0000 0.0000 36.6899
#
#
#
# Elastic Compliance Matrix: (Units=1/GPa)
#
#
# Indices 1 2 3 4 5 6 
#
# 1 0.013104 -0.001807 -0.004630 0.000000 0.000000 0.000000
# 2 -0.001807 0.013104 -0.004629 0.000000 0.000000 0.000000
# 3 -0.004630 -0.004629 0.012383 0.000000 0.000000 0.000000
# 4 0.000000 0.000000 0.000000 0.051854 0.000000 0.000000
# 5 0.000000 0.000000 0.000000 0.000000 0.051854 0.000000
# 6 0.000000 0.000000 0.000000 0.000000 0.000000 0.027255
#
#
# Mechanical properties :
#
#
# Convention : Reuss Voigt Hill
#
# Bulk Modulus (GPa) = 60.76471 62.51156 61.63813
# Shear Modulus (GPa) = 25.35850 27.41285 26.38567
#
# Velocity S-wave (km/s) = 3.55948 3.70086 3.63086
# Velocity P-wave (km/s) = 6.87410 7.03523 6.95513
#
# Compressibility (1/GPa) = 0.01645692
#
# Stress axis : x y z
#
# Youngs Moduli (GPa) = 76.31462 76.31546 80.75522
#
# Poissons Ratio (x) = 0.13794 0.37388
# Poissons Ratio (y) = 0.13793 0.37386
# Poissons Ratio (z) = 0.35332 0.35330
#
# Static dielectric constant tensor:
#      x y z
#    x 1.748960 0.000000 0.000000 
#    y 0.000000 1.748960 0.000000 
#    z 0.000000 0.000000 1.714380 
# 
# From -- ./inp_files/5493.got.cif
#   From: 2010.05.17/outbox.cif.g08.bks.cpg/sg142_3_cif.got.tgz:5493.got - 2010.05.20 13:39:18.
