data_PCOD9573636
_publ_section_title
;
Structure prediction by ZEFSAII (Michael W. Deem and Ramdas Pophale) SiO2 
 PCOD9573636
Probable space group: I 41/A C D
;
_chemical_formula_sum "Si O2"
_cell_formula_units_Z 96
_cell_length_a 18.851996
_cell_length_b 18.851996
_cell_length_c 11.675086
_cell_angle_alpha 90.000000
_cell_angle_beta 90.000000
_cell_angle_gamma 90.000000
_cell_volume 4149.299333
_symmetry_space_group_name_H-M "I 41/A C D"
_symmetry_group_IT_number 142
_space_group.IT_coordinate_system_code '2'
_symmetry_cell_setting 'tetragonal'
loop_
_space_group_symop_operation_xyz
x,y,z
1/4-y,3/4+x,1/4+z
-x,1/2-y,z
1/4+y,1/4-x,3/4+z
x,-y,1/2-z
1/2-x,y,-z
3/4+y,1/4+x,1/4-z
1/4-y,1/4-x,1/4-z
-x,-y,-z
3/4+y,1/4-x,3/4-z
x,1/2+y,-z
3/4-y,3/4+x,1/4-z
-x,y,1/2+z
1/2+x,-y,z
1/4-y,3/4-x,3/4+z
3/4+y,3/4+x,3/4+z
1/2+x,1/2+y,1/2+z
3/4-y,1/4+x,3/4+z
1/2-x,-y,1/2+z
3/4+y,3/4-x,1/4+z
1/2+x,1/2-y,-z
-x,1/2+y,1/2-z
1/4+y,3/4+x,3/4-z
3/4-y,3/4-x,3/4-z
1/2-x,1/2-y,1/2-z
1/4+y,3/4-x,1/4-z
1/2+x,y,1/2-z
1/4-y,1/4+x,3/4-z
1/2-x,1/2+y,z
x,1/2-y,1/2+z
3/4-y,1/4-x,1/4+z
1/4+y,1/4+x,1/4+z
loop_
_atom_site_type_symbol
_atom_site_label
_atom_site_fract_x
_atom_site_fract_y
_atom_site_fract_z
Si Si1 0.199212 0.641846 0.295510
Si Si2 0.009101 0.915791 0.273668
Si Si3 0.863577 0.145319 0.833272
O O1 0.173108 0.576893 0.375000
O O2 0.167009 0.711125 0.360893
O O3 0.168775 0.628548 0.171263
O O4 0.283263 0.645651 0.290746
O O5 0.962202 0.883815 0.168934
O O6 0.079198 0.869121 0.263931
O O7 0.020635 0.000000 0.250000
#
# Coordination Sequence:
#
# PCOD9573636 Si02
#       3
#    32  32  32
#     4   9  19  38  61  86 118 153 198 257 309 367
#     4   9  20  36  56  84 115 152 194 244 302 361
#     4  10  20  37  59  83 118 157 197 247 309 372
#
# _framework density 23.136436
#
# number of rings (size 3 to 8) (size 9 to 14) (size 15 to 20)
#    0.000    2.667    0.000    3.000    0.000    8.667 
#    0.000    5.000    0.000   18.000    0.000    0.000 
#    0.000    0.000    0.000    0.000    0.000    0.000 
#
# Total GULP energy -268240.748133 kJ/mol
# GULP energy per Si atom -5588.348919 kJ/mol
# Density = 2.308378 g / cm^3
# Si number density = 23.136436 Si / 1000 Ang^3
#
#
#
# Elastic Constant Matrix: (Units=GPa)
#
#
# Indices 1 2 3 4 5 6 
#
# 1 -462.7941 646.0455 48.7659 0.0000 0.0000 0.0000
# 2 646.0455 -462.6758 48.8110 0.0000 0.0000 0.0000
# 3 48.7659 48.8110 82.0516 0.0000 0.0000 0.0000
# 4 0.0000 0.0000 0.0000 14.5831 0.0000 0.0000
# 5 0.0000 0.0000 0.0000 0.0000 14.5812 0.0000
# 6 0.0000 0.0000 0.0000 0.0000 0.0000 20.6813
#
#
#
# Elastic Compliance Matrix: (Units=1/GPa)
#
#
# Indices 1 2 3 4 5 6 
#
# 1 0.003540 0.004442 -0.004746 0.000000 0.000000 0.000000
# 2 0.004442 0.003540 -0.004746 0.000000 0.000000 0.000000
# 3 -0.004746 -0.004746 0.017831 0.000000 0.000000 0.000000
# 4 0.000000 0.000000 0.000000 0.068573 0.000000 0.000000
# 5 0.000000 0.000000 0.000000 0.000000 0.068581 0.000000
# 6 0.000000 0.000000 0.000000 0.000000 0.000000 0.048353
#
#
# Mechanical properties :
#
#
# Convention : Reuss Voigt Hill
#
# Bulk Modulus (GPa) = 67.51807 71.53628 69.52718
# Shear Modulus (GPa) = 22.17744 -95.83358 -36.82807
#
# Velocity S-wave (km/s) = 3.09941 -6.44290 -3.99404
# Velocity P-wave (km/s) = 6.48493 4.93574 2.97429
#
# Compressibility (1/GPa) = 0.01481085
#
# Stress axis : x y z
#
# Youngs Moduli (GPa) = 282.52244 282.48525 56.08133
#
# Poissons Ratio (x) = -1.25471 0.26616
# Poissons Ratio (y) = -1.25487 0.26615
# Poissons Ratio (z) = 1.34083 1.34059
#
# Static dielectric constant tensor:
#      x y z
#    x 1.889570 0.000000 0.000000 
#    y 0.000000 1.889570 0.000000 
#    z 0.000000 0.000000 1.975460 
# 
# From -- ./inp_files/3150.got.cif
#   From: 2010.05.17/outbox.cif.g08.bks.cpg/sg142_2_cif.got.tgz:3150.got - 2010.05.20 13:39:18.
