data_PCOD9573084
_publ_section_title
;
Structure prediction by ZEFSAII (Michael W. Deem and Ramdas Pophale) SiO2 
 PCOD9573084
Probable space group: I 41/A M D
;
_chemical_formula_sum "Si O2"
_cell_formula_units_Z 160
_cell_length_a 20.106925
_cell_length_b 20.106925
_cell_length_c 18.657417
_cell_angle_alpha 90.000000
_cell_angle_beta 90.000000
_cell_angle_gamma 90.000000
_cell_volume 7542.977882
_symmetry_space_group_name_H-M "I 41/A M D"
_symmetry_group_IT_number 141
_space_group.IT_coordinate_system_code '2'
_symmetry_cell_setting 'tetragonal'
loop_
_space_group_symop_operation_xyz
x,y,z
1/4-y,3/4+x,1/4+z
-x,1/2-y,z
1/4+y,1/4-x,3/4+z
x,-y,-z
-x,1/2+y,-z
1/4+y,3/4+x,1/4-z
1/4-y,1/4-x,3/4-z
-x,-y,-z
3/4+y,1/4-x,3/4-z
x,1/2+y,-z
3/4-y,3/4+x,1/4-z
-x,y,z
x,1/2-y,z
3/4-y,1/4-x,3/4+z
3/4+y,3/4+x,1/4+z
1/2+x,1/2+y,1/2+z
3/4-y,1/4+x,3/4+z
1/2-x,-y,1/2+z
3/4+y,3/4-x,1/4+z
1/2+x,1/2-y,1/2-z
1/2-x,y,1/2-z
3/4+y,1/4+x,3/4-z
3/4-y,3/4-x,1/4-z
1/2-x,1/2-y,1/2-z
1/4+y,3/4-x,1/4-z
1/2+x,y,1/2-z
1/4-y,1/4+x,3/4-z
1/2-x,1/2+y,1/2+z
1/2+x,-y,1/2+z
1/4-y,3/4-x,1/4+z
1/4+y,1/4+x,3/4+z
loop_
_atom_site_type_symbol
_atom_site_label
_atom_site_fract_x
_atom_site_fract_y
_atom_site_fract_z
Si Si1 0.881364 0.824863 0.202407
Si Si2 0.672022 0.825552 0.737650
Si Si3 0.606061 0.075415 0.823646
Si Si4 0.638348 0.502786 0.393960
Si Si5 0.807946 0.326245 0.498801
O O1 0.888288 0.750000 0.228067
O O2 0.914658 0.835342 0.125000
O O3 0.913260 0.875095 0.259582
O O4 0.803162 0.841303 0.187852
O O5 0.660685 0.750000 0.762480
O O6 0.750000 0.841462 0.750000
O O7 0.656828 0.830642 0.652410
O O8 0.624595 0.881424 0.770478
O O9 0.686254 0.081958 0.821879
O O10 0.582801 0.001279 0.807799
O O11 0.699991 0.550010 0.375000
O O12 0.600796 0.476219 0.323185
O O13 0.829395 0.250000 0.505995
#
# Coordination Sequence:
#
# PCOD9573084 Si02
#       5
#    32  32  32  32  32
#     4  11  23  39  59  92 139 179 220 265 319 393
#     4  10  25  46  68  94 126 165 216 276 339 401
#     4  11  23  38  65  95 128 167 217 268 331 391
#     4  10  21  36  60  94 130 171 219 271 320 376
#     4  11  23  39  65  96 131 171 213 267 325 393
#
# _framework density 21.211781999999999
#
# number of rings (size 3 to 8) (size 9 to 14) (size 15 to 20)
#    0.000    1.400    4.000    1.800    5.600    6.200 
#    0.000    0.000    0.000    0.000    0.000    2.800 
#    0.000    0.000    0.000    0.000    0.000    0.000 
#
# Total GULP energy -447020.321161 kJ/mol
# GULP energy per Si atom -5587.754015 kJ/mol
# Density = 2.116350 g / cm^3
# Si number density = 21.211782 Si / 1000 Ang^3
#
#
#
# Elastic Constant Matrix: (Units=GPa)
#
#
# Indices 1 2 3 4 5 6 
#
# 1 106.6683 41.6198 -14.4149 0.0000 0.0000 0.0000
# 2 41.6198 106.6756 -14.4133 0.0000 0.0000 0.0000
# 3 -14.4149 -14.4133 23.6611 0.0000 0.0000 0.0000
# 4 0.0000 0.0000 0.0000 6.0458 0.0000 0.0000
# 5 0.0000 0.0000 0.0000 0.0000 6.0465 0.0000
# 6 0.0000 0.0000 0.0000 0.0000 0.0000 10.2150
#
#
#
# Elastic Compliance Matrix: (Units=1/GPa)
#
#
# Indices 1 2 3 4 5 6 
#
# 1 0.011511 -0.003861 0.004661 0.000000 0.000000 0.000000
# 2 -0.003861 0.011510 0.004659 0.000000 0.000000 0.000000
# 3 0.004661 0.004659 0.047941 0.000000 0.000000 0.000000
# 4 0.000000 0.000000 0.000000 0.165405 0.000000 0.000000
# 5 0.000000 0.000000 0.000000 0.000000 0.165385 0.000000
# 6 0.000000 0.000000 0.000000 0.000000 0.000000 0.097895
#
#
# Mechanical properties :
#
#
# Convention : Reuss Voigt Hill
#
# Bulk Modulus (GPa) = 12.21309 29.17646 20.69477
# Shear Modulus (GPa) = 9.68947 19.40902 14.54925
#
# Velocity S-wave (km/s) = 2.13960 3.02820 2.62182
# Velocity P-wave (km/s) = 3.44587 5.10013 4.35232
#
# Compressibility (1/GPa) = 0.08187938
#
# Stress axis : x y z
#
# Youngs Moduli (GPa) = 86.87060 86.87889 20.85898
#
# Poissons Ratio (x) = 0.33548 -0.09722
# Poissons Ratio (y) = 0.33545 -0.09718
# Poissons Ratio (z) = -0.40489 -0.40477
#
# Static dielectric constant tensor:
#      x y z
#    x 1.752800 0.000000 0.000000 
#    y 0.000000 1.752800 0.000000 
#    z 0.000000 0.000000 1.813140 
# 
# From -- ./inp_files/8566.got.cif
#   From: 2010.05.17/outbox.cif.g08.bks.cpg/sg141_5_cif.got.tgz:8566.got - 2010.05.20 13:30:51.
