data_PCOD9573105
_publ_section_title
;
Structure prediction by ZEFSAII (Michael W. Deem and Ramdas Pophale) SiO2 
 PCOD9573105
Probable space group: I 41/A M D
;
_chemical_formula_sum "Si O2"
_cell_formula_units_Z 144
_cell_length_a 17.696034
_cell_length_b 17.696034
_cell_length_c 23.204326
_cell_angle_alpha 90.000000
_cell_angle_beta 90.000000
_cell_angle_gamma 90.000000
_cell_volume 7266.425854
_symmetry_space_group_name_H-M "I 41/A M D"
_symmetry_group_IT_number 141
_space_group.IT_coordinate_system_code '2'
_symmetry_cell_setting 'tetragonal'
loop_
_space_group_symop_operation_xyz
x,y,z
1/4-y,3/4+x,1/4+z
-x,1/2-y,z
1/4+y,1/4-x,3/4+z
x,-y,-z
-x,1/2+y,-z
1/4+y,3/4+x,1/4-z
1/4-y,1/4-x,3/4-z
-x,-y,-z
3/4+y,1/4-x,3/4-z
x,1/2+y,-z
3/4-y,3/4+x,1/4-z
-x,y,z
x,1/2-y,z
3/4-y,1/4-x,3/4+z
3/4+y,3/4+x,1/4+z
1/2+x,1/2+y,1/2+z
3/4-y,1/4+x,3/4+z
1/2-x,-y,1/2+z
3/4+y,3/4-x,1/4+z
1/2+x,1/2-y,1/2-z
1/2-x,y,1/2-z
3/4+y,1/4+x,3/4-z
3/4-y,3/4-x,1/4-z
1/2-x,1/2-y,1/2-z
1/4+y,3/4-x,1/4-z
1/2+x,y,1/2-z
1/4-y,1/4+x,3/4-z
1/2-x,1/2+y,1/2+z
1/2+x,-y,1/2+z
1/4-y,3/4-x,1/4+z
1/4+y,1/4+x,3/4+z
loop_
_atom_site_type_symbol
_atom_site_label
_atom_site_fract_x
_atom_site_fract_y
_atom_site_fract_z
Si Si1 0.590184 0.659817 0.875000
Si Si2 0.910321 0.069297 0.920196
Si Si3 0.915093 0.405421 0.730378
Si Si4 0.911203 0.414475 0.258425
Si Si5 0.408155 0.904668 0.628777
O O1 0.500000 0.647042 0.878188
O O2 0.626562 0.629069 0.934029
O O3 0.880315 0.130315 0.875000
O O4 0.000000 0.067854 0.923293
O O5 0.886163 0.987653 0.895680
O O6 0.879761 0.098585 0.981107
O O7 0.908076 0.495399 0.734591
O O8 0.904469 0.376416 0.665627
O O9 0.000000 0.385107 0.751355
O O10 0.881448 0.395215 0.194697
O O11 0.000000 0.392488 0.257024
O O12 0.500000 0.900823 0.627858
#
# Coordination Sequence:
#
# PCOD9573105 Si02
#       5
#    16  32  32  32  32
#     4   9  18  36  64  88 106 140 190 238 285 342
#     4  11  21  36  57  83 114 151 193 232 273 327
#     4  11  22  37  56  82 117 152 190 236 282 333
#     4   9  19  38  58  81 115 148 181 232 292 338
#     4  10  21  38  58  81 115 154 187 230 286 337
#
# _framework density 19.817170000000001
#
# number of rings (size 3 to 8) (size 9 to 14) (size 15 to 20)
#    0.000    1.889    2.222    2.000    0.000    5.556 
#    2.000    3.333    0.000    4.000    0.000    0.000 
#    0.000    0.000    0.000    0.000    0.000    0.000 
#
# Total GULP energy -401749.487530 kJ/mol
# GULP energy per Si atom -5579.853993 kJ/mol
# Density = 1.977206 g / cm^3
# Si number density = 19.817170 Si / 1000 Ang^3
#
#
#
# Elastic Constant Matrix: (Units=GPa)
#
#
# Indices 1 2 3 4 5 6 
#
# 1 27.1398 -2.9188 15.8098 0.0000 0.0000 0.0000
# 2 -2.9188 27.1406 15.8099 0.0000 0.0000 0.0000
# 3 15.8098 15.8099 147.9916 0.0000 0.0000 0.0000
# 4 0.0000 0.0000 0.0000 125.6964 0.0000 0.0000
# 5 0.0000 0.0000 0.0000 0.0000 125.6996 0.0000
# 6 0.0000 0.0000 0.0000 0.0000 0.0000 15.9954
#
#
#
# Elastic Compliance Matrix: (Units=1/GPa)
#
#
# Indices 1 2 3 4 5 6 
#
# 1 0.040623 0.007354 -0.005125 0.000000 0.000000 0.000000
# 2 0.007354 0.040622 -0.005125 0.000000 0.000000 0.000000
# 3 -0.005125 -0.005125 0.007852 0.000000 0.000000 0.000000
# 4 0.000000 0.000000 0.000000 0.007956 0.000000 0.000000
# 5 0.000000 0.000000 0.000000 0.000000 0.007955 0.000000
# 6 0.000000 0.000000 0.000000 0.000000 0.000000 0.062518
#
#
# Mechanical properties :
#
#
# Convention : Reuss Voigt Hill
#
# Bulk Modulus (GPa) = 12.00419 28.85266 20.42842
# Shear Modulus (GPa) = 24.86493 65.04969 44.95731
#
# Velocity S-wave (km/s) = 3.54604 5.73552 4.76815
# Velocity P-wave (km/s) = 4.77875 7.64543 6.37531
#
# Compressibility (1/GPa) = 0.08330423
#
# Stress axis : x y z
#
# Youngs Moduli (GPa) = 24.61666 24.61741 127.35261
#
# Poissons Ratio (x) = -0.18105 0.65273
# Poissons Ratio (y) = -0.18104 0.65272
# Poissons Ratio (z) = 0.12617 0.12617
#
# Static dielectric constant tensor:
#      x y z
#    x 1.686530 0.000000 0.000000 
#    y 0.000000 1.686530 0.000000 
#    z 0.000000 0.000000 1.731650 
# 
# From -- ./inp_files/11444.got.cif
#   From: 2010.05.17/outbox.cif.g08.bks.cpg/sg141_6_cif.got.tgz:11444.got - 2010.05.20 13:30:51.
