data_PCOD9573683
_publ_section_title
;
Structure prediction by ZEFSAII (Michael W. Deem and Ramdas Pophale) SiO2 
 PCOD9573683
Probable space group: I 41/A C D
;
_chemical_formula_sum "Si O2"
_cell_formula_units_Z 128
_cell_length_a 24.845700
_cell_length_b 24.845700
_cell_length_c 9.433729
_cell_angle_alpha 90.000000
_cell_angle_beta 90.000000
_cell_angle_gamma 90.000000
_cell_volume 5823.524009
_symmetry_space_group_name_H-M "I 41/A C D"
_symmetry_group_IT_number 142
_space_group.IT_coordinate_system_code '2'
_symmetry_cell_setting 'tetragonal'
loop_
_space_group_symop_operation_xyz
x,y,z
1/4-y,3/4+x,1/4+z
-x,1/2-y,z
1/4+y,1/4-x,3/4+z
x,-y,1/2-z
1/2-x,y,-z
3/4+y,1/4+x,1/4-z
1/4-y,1/4-x,1/4-z
-x,-y,-z
3/4+y,1/4-x,3/4-z
x,1/2+y,-z
3/4-y,3/4+x,1/4-z
-x,y,1/2+z
1/2+x,-y,z
1/4-y,3/4-x,3/4+z
3/4+y,3/4+x,3/4+z
1/2+x,1/2+y,1/2+z
3/4-y,1/4+x,3/4+z
1/2-x,-y,1/2+z
3/4+y,3/4-x,1/4+z
1/2+x,1/2-y,-z
-x,1/2+y,1/2-z
1/4+y,3/4+x,3/4-z
3/4-y,3/4-x,3/4-z
1/2-x,1/2-y,1/2-z
1/4+y,3/4-x,1/4-z
1/2+x,y,1/2-z
1/4-y,1/4+x,3/4-z
1/2-x,1/2+y,z
x,1/2-y,1/2+z
3/4-y,1/4-x,1/4+z
1/4+y,1/4+x,1/4+z
loop_
_atom_site_type_symbol
_atom_site_label
_atom_site_fract_x
_atom_site_fract_y
_atom_site_fract_z
Si Si1 0.372804 0.185726 0.548026
Si Si2 0.376505 0.459463 0.880806
Si Si3 0.120245 0.804220 0.493324
Si Si4 0.947073 0.533368 0.457504
O O1 0.337878 0.167223 0.414446
O O2 0.413458 0.141869 0.612605
O O3 0.398513 0.242995 0.513054
O O4 0.329715 0.194432 0.673419
O O5 0.378750 0.500000 0.750000
O O6 0.318578 0.431423 0.875000
O O7 0.396852 0.493034 0.016046
O O8 0.085057 0.835057 0.375000
O O9 0.182493 0.802803 0.438531
O O10 0.000000 0.500000 0.500000
#
# Coordination Sequence:
#
# PCOD9573683 Si02
#       4
#    32  32  32  32
#     4  10  22  38  60  94 129 166 219 268 328 403
#     4  10  22  41  63  91 123 163 219 268 328 393
#     4  10  22  39  60  93 132 169 220 270 330 406
#     4  10  20  39  64  89 120 169 220 268 324 394
#
# _framework density 21.979818999999999
#
# number of rings (size 3 to 8) (size 9 to 14) (size 15 to 20)
#    0.000    2.000    2.500    0.000    3.500    0.500 
#    0.000   10.000    0.000    0.000    0.000    0.000 
#    0.000    0.000    0.000    0.000    0.000    0.000 
#
# Total GULP energy -357215.305989 kJ/mol
# GULP energy per Si atom -5581.489156 kJ/mol
# Density = 2.192979 g / cm^3
# Si number density = 21.979819 Si / 1000 Ang^3
#
#
#
# Elastic Constant Matrix: (Units=GPa)
#
#
# Indices 1 2 3 4 5 6 
#
# 1 72.3306 105.0908 44.4410 0.0000 0.0000 0.0000
# 2 105.0908 72.3043 44.4369 0.0000 0.0000 0.0000
# 3 44.4410 44.4369 95.0315 0.0000 0.0000 0.0000
# 4 0.0000 0.0000 0.0000 27.8150 0.0000 0.0000
# 5 0.0000 0.0000 0.0000 0.0000 27.8163 0.0000
# 6 0.0000 0.0000 0.0000 0.0000 0.0000 49.4345
#
#
#
# Elastic Compliance Matrix: (Units=1/GPa)
#
#
# Indices 1 2 3 4 5 6 
#
# 1 -0.011573 0.018937 -0.003443 0.000000 0.000000 0.000000
# 2 0.018937 -0.011578 -0.003442 0.000000 0.000000 0.000000
# 3 -0.003443 -0.003442 0.013742 0.000000 0.000000 0.000000
# 4 0.000000 0.000000 0.000000 0.035952 0.000000 0.000000
# 5 0.000000 0.000000 0.000000 0.000000 0.035950 0.000000
# 6 0.000000 0.000000 0.000000 0.000000 0.000000 0.020229
#
#
# Mechanical properties :
#
#
# Convention : Reuss Voigt Hill
#
# Bulk Modulus (GPa) = 68.04790 69.73378 68.89084
# Shear Modulus (GPa) = 78.72117 24.05968 51.39042
#
# Velocity S-wave (km/s) = 5.99107 3.31210 4.84061
# Velocity P-wave (km/s) = 8.88165 6.81336 7.91535
#
# Compressibility (1/GPa) = 0.01469553
#
# Stress axis : x y z
#
# Youngs Moduli (GPa) = -86.40656 -86.36895 72.76849
#
# Poissons Ratio (x) = 1.63556 0.25053
# Poissons Ratio (y) = 1.63628 0.25045
# Poissons Ratio (z) = -0.29748 -0.29726
#
# Static dielectric constant tensor:
#      x y z
#    x 1.834020 0.000000 0.000000 
#    y 0.000000 1.834020 0.000000 
#    z 0.000000 0.000000 1.882010 
# 
# From -- ./inp_files/3460.got.cif
#   From: 2010.05.17/outbox.cif.g08.bks.cpg/sg142_2_cif.got.tgz:3460.got - 2010.05.20 13:39:18.
