data_PCOD9573546
_publ_section_title
;
Structure prediction by ZEFSAII (Michael W. Deem and Ramdas Pophale) SiO2 
 PCOD9573546
Probable space group: I 41/A C D
;
_chemical_formula_sum "Si O2"
_cell_formula_units_Z 136
_cell_length_a 17.649110
_cell_length_b 17.649110
_cell_length_c 18.766808
_cell_angle_alpha 90.000000
_cell_angle_beta 90.000000
_cell_angle_gamma 90.000000
_cell_volume 5845.693363
_symmetry_space_group_name_H-M "I 41/A C D"
_symmetry_group_IT_number 142
_space_group.IT_coordinate_system_code '2'
_symmetry_cell_setting 'tetragonal'
loop_
_space_group_symop_operation_xyz
x,y,z
1/4-y,3/4+x,1/4+z
-x,1/2-y,z
1/4+y,1/4-x,3/4+z
x,-y,1/2-z
1/2-x,y,-z
3/4+y,1/4+x,1/4-z
1/4-y,1/4-x,1/4-z
-x,-y,-z
3/4+y,1/4-x,3/4-z
x,1/2+y,-z
3/4-y,3/4+x,1/4-z
-x,y,1/2+z
1/2+x,-y,z
1/4-y,3/4-x,3/4+z
3/4+y,3/4+x,3/4+z
1/2+x,1/2+y,1/2+z
3/4-y,1/4+x,3/4+z
1/2-x,-y,1/2+z
3/4+y,3/4-x,1/4+z
1/2+x,1/2-y,-z
-x,1/2+y,1/2-z
1/4+y,3/4+x,3/4-z
3/4-y,3/4-x,3/4-z
1/2-x,1/2-y,1/2-z
1/4+y,3/4-x,1/4-z
1/2+x,y,1/2-z
1/4-y,1/4+x,3/4-z
1/2-x,1/2+y,z
x,1/2-y,1/2+z
3/4-y,1/4-x,1/4+z
1/4+y,1/4+x,1/4+z
loop_
_atom_site_type_symbol
_atom_site_label
_atom_site_fract_x
_atom_site_fract_y
_atom_site_fract_z
Si Si1 0.714608 0.842922 0.610958
Si Si2 0.123861 0.108150 0.784442
Si Si3 0.500000 0.750000 0.625000
Si Si4 0.990743 0.607947 0.477265
Si Si5 0.302169 0.924312 0.709346
O O1 0.675499 0.925499 0.625000
O O2 0.668985 0.827526 0.536666
O O3 0.803125 0.845015 0.595538
O O4 0.701482 0.784430 0.674934
O O5 0.125145 0.198721 0.789693
O O6 0.212024 0.083744 0.778933
O O7 0.570258 0.744934 0.676531
O O8 0.903705 0.588015 0.488195
O O9 0.319054 0.930947 0.625000
O O10 0.328559 0.000000 0.750000
#
# Coordination Sequence:
#
# PCOD9573546 Si02
#       5
#    32  32   8  32  32
#     4   9  17  35  66  98 136 186 234 289 355 425
#     4  10  19  37  68  98 133 186 236 292 353 432
#     4  12  20  44  60  92 154 188 240 304 362 440
#     4  11  23  42  66 100 145 198 244 291 374 438
#     4  12  26  44  70 107 147 183 244 310 354 439
#
# _framework density 23.264990000000001
#
# number of rings (size 3 to 8) (size 9 to 14) (size 15 to 20)
#    0.000    1.412    7.059    1.412    3.294    0.000 
#    8.471    0.000    0.000    0.000    0.000    0.000 
#    0.000    0.000    0.000    0.000    0.000    0.000 
#
# Total GULP energy -379547.686734 kJ/mol
# GULP energy per Si atom -5581.583628 kJ/mol
# Density = 2.321204 g / cm^3
# Si number density = 23.264990 Si / 1000 Ang^3
#
#
#
# Elastic Constant Matrix: (Units=GPa)
#
#
# Indices 1 2 3 4 5 6 
#
# 1 156.5591 13.8140 27.3463 0.0000 0.0000 0.0000
# 2 13.8140 156.5594 27.3464 0.0000 0.0000 0.0000
# 3 27.3463 27.3464 75.2400 0.0000 0.0000 0.0000
# 4 0.0000 0.0000 0.0000 29.4556 0.0000 0.0000
# 5 0.0000 0.0000 0.0000 0.0000 29.4556 0.0000
# 6 0.0000 0.0000 0.0000 0.0000 0.0000 29.2762
#
#
#
# Elastic Compliance Matrix: (Units=1/GPa)
#
#
# Indices 1 2 3 4 5 6 
#
# 1 0.006825 -0.000180 -0.002415 0.000000 0.000000 0.000000
# 2 -0.000180 0.006825 -0.002415 0.000000 0.000000 0.000000
# 3 -0.002415 -0.002415 0.015046 0.000000 0.000000 0.000000
# 4 0.000000 0.000000 0.000000 0.033949 0.000000 0.000000
# 5 0.000000 0.000000 0.000000 0.000000 0.033949 0.000000
# 6 0.000000 0.000000 0.000000 0.000000 0.000000 0.034157
#
#
# Mechanical properties :
#
#
# Convention : Reuss Voigt Hill
#
# Bulk Modulus (GPa) = 53.54591 58.37466 55.96029
# Shear Modulus (GPa) = 34.01384 38.96093 36.48738
#
# Velocity S-wave (km/s) = 3.82778 4.09670 3.96452
# Velocity P-wave (km/s) = 6.52698 6.89369 6.71284
#
# Compressibility (1/GPa) = 0.01867556
#
# Stress axis : x y z
#
# Youngs Moduli (GPa) = 146.51756 146.51774 66.46136
#
# Poissons Ratio (x) = 0.02643 0.16051
# Poissons Ratio (y) = 0.02643 0.16051
# Poissons Ratio (z) = 0.35385 0.35385
#
# Static dielectric constant tensor:
#      x y z
#    x 1.890380 0.000000 0.000000 
#    y 0.000000 1.890380 0.000000 
#    z 0.000000 0.000000 2.006720 
# 
# From -- ./inp_files/8766.got.cif
#   From: 2010.05.17/outbox.cif.g08.bks.cpg/sg142_5_cif.got.tgz:8766.got - 2010.05.20 13:39:18.
