data_PCOD9573251
_publ_section_title
;
Structure prediction by ZEFSAII (Michael W. Deem and Ramdas Pophale) SiO2 
 PCOD9573251
Probable space group: I 41/A M D
;
_chemical_formula_sum "Si O2"
_cell_formula_units_Z 160
_cell_length_a 20.446470
_cell_length_b 20.446470
_cell_length_c 18.265915
_cell_angle_alpha 90.000000
_cell_angle_beta 90.000000
_cell_angle_gamma 90.000000
_cell_volume 7636.214367
_symmetry_space_group_name_H-M "I 41/A M D"
_symmetry_group_IT_number 141
_space_group.IT_coordinate_system_code '2'
_symmetry_cell_setting 'tetragonal'
loop_
_space_group_symop_operation_xyz
x,y,z
1/4-y,3/4+x,1/4+z
-x,1/2-y,z
1/4+y,1/4-x,3/4+z
x,-y,-z
-x,1/2+y,-z
1/4+y,3/4+x,1/4-z
1/4-y,1/4-x,3/4-z
-x,-y,-z
3/4+y,1/4-x,3/4-z
x,1/2+y,-z
3/4-y,3/4+x,1/4-z
-x,y,z
x,1/2-y,z
3/4-y,1/4-x,3/4+z
3/4+y,3/4+x,1/4+z
1/2+x,1/2+y,1/2+z
3/4-y,1/4+x,3/4+z
1/2-x,-y,1/2+z
3/4+y,3/4-x,1/4+z
1/2+x,1/2-y,1/2-z
1/2-x,y,1/2-z
3/4+y,1/4+x,3/4-z
3/4-y,3/4-x,1/4-z
1/2-x,1/2-y,1/2-z
1/4+y,3/4-x,1/4-z
1/2+x,y,1/2-z
1/4-y,1/4+x,3/4-z
1/2-x,1/2+y,1/2+z
1/2+x,-y,1/2+z
1/4-y,3/4-x,1/4+z
1/4+y,1/4+x,3/4+z
loop_
_atom_site_type_symbol
_atom_site_label
_atom_site_fract_x
_atom_site_fract_y
_atom_site_fract_z
Si Si1 0.925903 0.671491 0.539437
Si Si2 0.740738 0.586869 0.665742
Si Si3 0.677913 0.823484 0.223916
Si Si4 0.183209 0.823808 0.959799
Si Si5 0.302260 0.145064 0.940075
O O1 0.910113 0.660113 0.625000
O O2 0.927526 0.750000 0.530522
O O3 0.868054 0.646203 0.488750
O O4 0.000000 0.646881 0.524424
O O5 0.800589 0.550589 0.625000
O O6 0.750000 0.608120 0.750000
O O7 0.713839 0.644101 0.613599
O O8 0.680422 0.536292 0.672519
O O9 0.665603 0.750000 0.252729
O O10 0.750000 0.844930 0.250000
O O11 0.621148 0.875781 0.238608
O O12 0.682373 0.821185 0.136115
O O13 0.160143 0.750000 0.946736
O O14 0.242682 0.824110 0.016817
#
# Coordination Sequence:
#
# PCOD9573251 Si02
#       5
#    32  32  32  32  32
#     4   9  19  36  59  91 135 186 227 262 320 400
#     4  11  24  42  65  93 129 180 226 270 327 393
#     4  10  24  45  69  96 127 173 227 280 344 416
#     4  11  25  41  66 102 135 172 219 280 341 399
#     4  11  23  38  67  94 131 171 221 276 335 394
#
# _framework density 20.952791000000001
#
# number of rings (size 3 to 8) (size 9 to 14) (size 15 to 20)
#    0.000    1.600    2.000    2.400    8.400    4.000 
#    0.000    0.000    0.000    0.000    0.000    2.800 
#    0.000    0.000    0.000    0.000    0.000    0.000 
#
# Total GULP energy -446737.085340 kJ/mol
# GULP energy per Si atom -5584.213567 kJ/mol
# Density = 2.090510 g / cm^3
# Si number density = 20.952791 Si / 1000 Ang^3
#
#
#
# Elastic Constant Matrix: (Units=GPa)
#
#
# Indices 1 2 3 4 5 6 
#
# 1 127.3665 70.6523 26.7879 0.0000 0.0000 0.0000
# 2 70.6523 127.3665 26.7879 0.0000 0.0000 0.0000
# 3 26.7879 26.7879 51.0356 0.0000 0.0000 0.0000
# 4 0.0000 0.0000 0.0000 42.2237 0.0000 0.0000
# 5 0.0000 0.0000 0.0000 0.0000 42.2237 0.0000
# 6 0.0000 0.0000 0.0000 0.0000 0.0000 21.6621
#
#
#
# Elastic Compliance Matrix: (Units=1/GPa)
#
#
# Indices 1 2 3 4 5 6 
#
# 1 0.011759 -0.005873 -0.003089 0.000000 0.000000 0.000000
# 2 -0.005873 0.011759 -0.003089 0.000000 0.000000 0.000000
# 3 -0.003089 -0.003089 0.022837 0.000000 0.000000 0.000000
# 4 0.000000 0.000000 0.000000 0.023683 0.000000 0.000000
# 5 0.000000 0.000000 0.000000 0.000000 0.023683 0.000000
# 6 0.000000 0.000000 0.000000 0.000000 0.000000 0.046164
#
#
# Mechanical properties :
#
#
# Convention : Reuss Voigt Hill
#
# Bulk Modulus (GPa) = 44.94089 61.58054 53.26072
# Shear Modulus (GPa) = 29.17034 33.32462 31.24748
#
# Velocity S-wave (km/s) = 3.73526 3.99239 3.86596
# Velocity P-wave (km/s) = 6.33230 7.12082 6.73811
#
# Compressibility (1/GPa) = 0.02225145
#
# Stress axis : x y z
#
# Youngs Moduli (GPa) = 85.04069 85.04069 43.78786
#
# Poissons Ratio (x) = 0.49946 0.13528
# Poissons Ratio (y) = 0.49946 0.13528
# Poissons Ratio (z) = 0.26273 0.26273
#
# Static dielectric constant tensor:
#      x y z
#    x 1.784110 0.000000 0.000000 
#    y 0.000000 1.784110 0.000000 
#    z 0.000000 0.000000 1.780210 
# 
# From -- ./inp_files/8598.got.cif
#   From: 2010.05.17/outbox.cif.g08.bks.cpg/sg141_5_cif.got.tgz:8598.got - 2010.05.20 13:30:51.
