data_PCOD9573544
_publ_section_title
;
Structure prediction by ZEFSAII (Michael W. Deem and Ramdas Pophale) SiO2 
 PCOD9573544
Probable space group: I 41/A C D
;
_chemical_formula_sum "Si O2"
_cell_formula_units_Z 144
_cell_length_a 18.138188
_cell_length_b 18.138188
_cell_length_c 21.093879
_cell_angle_alpha 90.000000
_cell_angle_beta 90.000000
_cell_angle_gamma 90.000000
_cell_volume 6939.756757
_symmetry_space_group_name_H-M "I 41/A C D"
_symmetry_group_IT_number 142
_space_group.IT_coordinate_system_code '2'
_symmetry_cell_setting 'tetragonal'
loop_
_space_group_symop_operation_xyz
x,y,z
1/4-y,3/4+x,1/4+z
-x,1/2-y,z
1/4+y,1/4-x,3/4+z
x,-y,1/2-z
1/2-x,y,-z
3/4+y,1/4+x,1/4-z
1/4-y,1/4-x,1/4-z
-x,-y,-z
3/4+y,1/4-x,3/4-z
x,1/2+y,-z
3/4-y,3/4+x,1/4-z
-x,y,1/2+z
1/2+x,-y,z
1/4-y,3/4-x,3/4+z
3/4+y,3/4+x,3/4+z
1/2+x,1/2+y,1/2+z
3/4-y,1/4+x,3/4+z
1/2-x,-y,1/2+z
3/4+y,3/4-x,1/4+z
1/2+x,1/2-y,-z
-x,1/2+y,1/2-z
1/4+y,3/4+x,3/4-z
3/4-y,3/4-x,3/4-z
1/2-x,1/2-y,1/2-z
1/4+y,3/4-x,1/4-z
1/2+x,y,1/2-z
1/4-y,1/4+x,3/4-z
1/2-x,1/2+y,z
x,1/2-y,1/2+z
3/4-y,1/4-x,1/4+z
1/4+y,1/4+x,1/4+z
loop_
_atom_site_type_symbol
_atom_site_label
_atom_site_fract_x
_atom_site_fract_y
_atom_site_fract_z
Si Si1 0.966252 0.520387 0.433196
Si Si2 0.402663 0.384997 0.281650
Si Si3 0.306856 0.800174 0.058043
Si Si4 0.205548 0.110934 0.906531
Si Si5 0.308076 0.058076 0.375000
O O1 0.928107 0.600291 0.441913
O O2 0.903841 0.462962 0.409580
O O3 0.000000 0.500000 0.500000
O O4 0.024007 0.522367 0.375280
O O5 0.489308 0.380247 0.296274
O O6 0.373528 0.462459 0.313027
O O7 0.393092 0.397941 0.206739
O O8 0.326167 0.884817 0.068904
O O9 0.250000 0.792036 0.000000
O O10 0.186825 0.026230 0.896814
#
# Coordination Sequence:
#
# PCOD9573544 Si02
#       5
#    32  32  32  32  16
#     4  11  21  39  65  98 131 183 236 273 352 428
#     4  10  19  40  66  88 134 185 219 267 359 419
#     4  11  23  40  60  94 141 174 218 284 358 410
#     4  10  19  37  62  97 132 168 219 298 337 393
#     4  12  24  34  65 108 130 163 234 302 340 412
#
# _framework density 20.750005999999999
#
# number of rings (size 3 to 8) (size 9 to 14) (size 15 to 20)
#    0.000    1.333    6.667    3.333    3.111    1.778 
#    0.000    2.222    0.000    0.000    0.000    0.000 
#    0.000    0.000    0.000    0.000    0.000    0.000 
#
# Total GULP energy -401912.837208 kJ/mol
# GULP energy per Si atom -5582.122739 kJ/mol
# Density = 2.070278 g / cm^3
# Si number density = 20.750006 Si / 1000 Ang^3
#
#
#
# Elastic Constant Matrix: (Units=GPa)
#
#
# Indices 1 2 3 4 5 6 
#
# 1 98.0684 15.7179 43.1650 0.0000 0.0000 0.0000
# 2 15.7179 98.0684 43.1650 0.0000 0.0000 0.0000
# 3 43.1650 43.1650 157.2658 0.0000 0.0000 0.0000
# 4 0.0000 0.0000 0.0000 24.7890 0.0000 0.0000
# 5 0.0000 0.0000 0.0000 0.0000 24.7890 0.0000
# 6 0.0000 0.0000 0.0000 0.0000 0.0000 10.6126
#
#
#
# Elastic Compliance Matrix: (Units=1/GPa)
#
#
# Indices 1 2 3 4 5 6 
#
# 1 0.011622 -0.000522 -0.003047 0.000000 0.000000 0.000000
# 2 -0.000522 0.011622 -0.003047 0.000000 0.000000 0.000000
# 3 -0.003047 -0.003047 0.008031 0.000000 0.000000 0.000000
# 4 0.000000 0.000000 0.000000 0.040340 0.000000 0.000000
# 5 0.000000 0.000000 0.000000 0.000000 0.040340 0.000000
# 6 0.000000 0.000000 0.000000 0.000000 0.000000 0.094228
#
#
# Mechanical properties :
#
#
# Convention : Reuss Voigt Hill
#
# Bulk Modulus (GPa) = 55.41882 61.94427 58.68155
# Shear Modulus (GPa) = 22.18010 28.79511 25.48761
#
# Velocity S-wave (km/s) = 3.27298 3.72925 3.50854
# Velocity P-wave (km/s) = 6.40695 6.96136 6.68990
#
# Compressibility (1/GPa) = 0.01804441
#
# Stress axis : x y z
#
# Youngs Moduli (GPa) = 86.04710 86.04710 124.51647
#
# Poissons Ratio (x) = 0.04489 0.37935
# Poissons Ratio (y) = 0.04489 0.37935
# Poissons Ratio (z) = 0.26215 0.26215
#
# Static dielectric constant tensor:
#      x y z
#    x 1.771890 0.000000 0.000000 
#    y 0.000000 1.771890 0.000000 
#    z 0.000000 0.000000 1.789630 
# 
# From -- ./inp_files/8998.got.cif
#   From: 2010.05.17/outbox.cif.g08.bks.cpg/sg142_5_cif.got.tgz:8998.got - 2010.05.20 13:39:18.
