data_PCOD9573797
_publ_section_title
;
Structure prediction by ZEFSAII (Michael W. Deem and Ramdas Pophale) SiO2 
 PCOD9573797
Probable space group: I 41/A C D
;
_chemical_formula_sum "Si O2"
_cell_formula_units_Z 160
_cell_length_a 26.098468
_cell_length_b 26.098468
_cell_length_c 12.104526
_cell_angle_alpha 90.000000
_cell_angle_beta 90.000000
_cell_angle_gamma 90.000000
_cell_volume 8244.756181
_symmetry_space_group_name_H-M "I 41/A C D"
_symmetry_group_IT_number 142
_space_group.IT_coordinate_system_code '2'
_symmetry_cell_setting 'tetragonal'
loop_
_space_group_symop_operation_xyz
x,y,z
1/4-y,3/4+x,1/4+z
-x,1/2-y,z
1/4+y,1/4-x,3/4+z
x,-y,1/2-z
1/2-x,y,-z
3/4+y,1/4+x,1/4-z
1/4-y,1/4-x,1/4-z
-x,-y,-z
3/4+y,1/4-x,3/4-z
x,1/2+y,-z
3/4-y,3/4+x,1/4-z
-x,y,1/2+z
1/2+x,-y,z
1/4-y,3/4-x,3/4+z
3/4+y,3/4+x,3/4+z
1/2+x,1/2+y,1/2+z
3/4-y,1/4+x,3/4+z
1/2-x,-y,1/2+z
3/4+y,3/4-x,1/4+z
1/2+x,1/2-y,-z
-x,1/2+y,1/2-z
1/4+y,3/4+x,3/4-z
3/4-y,3/4-x,3/4-z
1/2-x,1/2-y,1/2-z
1/4+y,3/4-x,1/4-z
1/2+x,y,1/2-z
1/4-y,1/4+x,3/4-z
1/2-x,1/2+y,z
x,1/2-y,1/2+z
3/4-y,1/4-x,1/4+z
1/4+y,1/4+x,1/4+z
loop_
_atom_site_type_symbol
_atom_site_label
_atom_site_fract_x
_atom_site_fract_y
_atom_site_fract_z
Si Si1 0.156844 0.000000 0.750000
Si Si2 0.646391 0.655204 0.299242
Si Si3 0.860218 0.110218 0.625000
Si Si4 0.198463 0.932857 0.571812
Si Si5 0.834837 0.177834 0.046345
Si Si6 0.311089 0.794360 0.503665
O O1 0.189760 0.017830 0.854050
O O2 0.118039 0.044705 0.717391
O O3 0.688739 0.613240 0.340675
O O4 0.590558 0.627982 0.292256
O O5 0.651158 0.674320 0.174981
O O6 0.658811 0.698296 0.388139
O O7 0.845421 0.075216 0.520021
O O8 0.916928 0.092453 0.664657
O O9 0.250000 0.931641 0.500000
O O10 0.814327 0.234542 0.029487
O O11 0.250000 0.808602 0.500000
#
# Coordination Sequence:
#
# PCOD9573797 Si02
#       6
#    16  32  16  32  32  32
#     4  10  22  38  60  88 120 162 224 266 300 378
#     4   9  21  39  61  86 132 158 203 274 327 382
#     4  10  22  40  62  89 136 160 216 282 324 393
#     4  10  22  41  57  83 127 178 214 258 325 390
#     4  10  21  40  63  92 125 166 211 274 325 379
#     4  11  23  40  67 100 124 174 222 271 335 394
#
# _framework density 19.406274
#
# number of rings (size 3 to 8) (size 9 to 14) (size 15 to 20)
#    0.000    2.000    1.000    2.400    5.600    5.600 
#    3.600    0.000    0.000    7.800    0.000    0.000 
#    0.000    0.000    0.000    0.000    0.000    0.000 
#
# Total GULP energy -445402.866227 kJ/mol
# GULP energy per Si atom -5567.535828 kJ/mol
# Density = 1.936210 g / cm^3
# Si number density = 19.406274 Si / 1000 Ang^3
#
#
#
# Elastic Constant Matrix: (Units=GPa)
#
#
# Indices 1 2 3 4 5 6 
#
# 1 73.5580 71.7056 41.9412 0.0000 0.0000 0.0000
# 2 71.7056 73.5580 41.9412 0.0000 0.0000 0.0000
# 3 41.9412 41.9412 103.5851 0.0000 0.0000 0.0000
# 4 0.0000 0.0000 0.0000 28.6921 0.0000 0.0000
# 5 0.0000 0.0000 0.0000 0.0000 28.6921 0.0000
# 6 0.0000 0.0000 0.0000 0.0000 0.0000 56.0339
#
#
#
# Elastic Compliance Matrix: (Units=1/GPa)
#
#
# Indices 1 2 3 4 5 6 
#
# 1 0.274410 -0.265426 -0.003638 0.000000 0.000000 0.000000
# 2 -0.265426 0.274410 -0.003638 0.000000 0.000000 0.000000
# 3 -0.003638 -0.003638 0.012600 0.000000 0.000000 0.000000
# 4 0.000000 0.000000 0.000000 0.034853 0.000000 0.000000
# 5 0.000000 0.000000 0.000000 0.000000 0.034853 0.000000
# 6 0.000000 0.000000 0.000000 0.000000 0.000000 0.017846
#
#
# Mechanical properties :
#
#
# Convention : Reuss Voigt Hill
#
# Bulk Modulus (GPa) = 62.43069 62.43078 62.43074
# Shear Modulus (GPa) = 4.16766 29.02447 16.59606
#
# Velocity S-wave (km/s) = 1.46705 3.87152 2.92754
# Velocity P-wave (km/s) = 5.92536 7.22670 6.60814
#
# Compressibility (1/GPa) = 0.01601776
#
# Stress axis : x y z
#
# Youngs Moduli (GPa) = 3.64418 3.64418 79.36613
#
# Poissons Ratio (x) = 0.96726 0.28872
# Poissons Ratio (y) = 0.96726 0.28872
# Poissons Ratio (z) = 0.01326 0.01326
#
# Static dielectric constant tensor:
#      x y z
#    x 1.725420 0.000000 0.000000 
#    y 0.000000 1.725420 0.000000 
#    z 0.000000 0.000000 1.718560 
# 
# From -- ./inp_files/3891.got.cif
#   From: 2010.05.17/outbox.cif.g08.bks.cpg/sg142_2_cif.got.tgz:3891.got - 2010.05.20 13:39:18.
