data_PCOD9573162
_publ_section_title
;
Structure prediction by ZEFSAII (Michael W. Deem and Ramdas Pophale) SiO2 
 PCOD9573162
Probable space group: I 41/A M D
;
_chemical_formula_sum "Si O2"
_cell_formula_units_Z 176
_cell_length_a 18.026523
_cell_length_b 18.026523
_cell_length_c 28.270514
_cell_angle_alpha 90.000000
_cell_angle_beta 90.000000
_cell_angle_gamma 90.000000
_cell_volume 9186.659902
_symmetry_space_group_name_H-M "I 41/A M D"
_symmetry_group_IT_number 141
_space_group.IT_coordinate_system_code '2'
_symmetry_cell_setting 'tetragonal'
loop_
_space_group_symop_operation_xyz
x,y,z
1/4-y,3/4+x,1/4+z
-x,1/2-y,z
1/4+y,1/4-x,3/4+z
x,-y,-z
-x,1/2+y,-z
1/4+y,3/4+x,1/4-z
1/4-y,1/4-x,3/4-z
-x,-y,-z
3/4+y,1/4-x,3/4-z
x,1/2+y,-z
3/4-y,3/4+x,1/4-z
-x,y,z
x,1/2-y,z
3/4-y,1/4-x,3/4+z
3/4+y,3/4+x,1/4+z
1/2+x,1/2+y,1/2+z
3/4-y,1/4+x,3/4+z
1/2-x,-y,1/2+z
3/4+y,3/4-x,1/4+z
1/2+x,1/2-y,1/2-z
1/2-x,y,1/2-z
3/4+y,1/4+x,3/4-z
3/4-y,3/4-x,1/4-z
1/2-x,1/2-y,1/2-z
1/4+y,3/4-x,1/4-z
1/2+x,y,1/2-z
1/4-y,1/4+x,3/4-z
1/2-x,1/2+y,1/2+z
1/2+x,-y,1/2+z
1/4-y,3/4-x,1/4+z
1/4+y,1/4+x,3/4+z
loop_
_atom_site_type_symbol
_atom_site_label
_atom_site_fract_x
_atom_site_fract_y
_atom_site_fract_z
Si Si1 0.793596 0.334032 0.885434
Si Si2 0.640126 0.920763 0.974454
Si Si3 0.852489 0.594682 0.917164
Si Si4 0.191136 0.558865 0.625000
Si Si5 0.785963 0.662981 0.002297
Si Si6 0.000000 0.336030 0.628750
Si Si7 0.000000 0.836354 0.484547
O O1 0.856003 0.393998 0.875000
O O2 0.820218 0.250000 0.878597
O O3 0.720672 0.345876 0.853027
O O4 0.778807 0.344777 0.941386
O O5 0.634439 0.932945 0.918274
O O6 0.707648 0.864382 0.982540
O O7 0.569951 0.881248 0.996606
O O8 0.654546 0.000000 0.000000
O O9 0.772306 0.569482 0.897304
O O10 0.875834 0.674250 0.896102
O O11 0.843912 0.610948 0.973484
O O12 0.800374 0.750000 0.992126
O O13 0.000000 0.250000 0.644647
O O14 0.000000 0.337207 0.572093
O O15 0.000000 0.750000 0.499724
#
# Coordination Sequence:
#
# PCOD9573162 Si02
#       7
#    32  32  32  16  32  16  16
#     4  11  24  43  68  95 129 171 215 265 324 393
#     4  11  22  37  60  89 118 161 214 264 312 380
#     4  11  21  40  64  96 127 167 213 266 324 384
#     4  10  22  36  59  90 121 162 208 260 310 378
#     4  10  22  41  64  91 129 166 207 264 330 384
#     4  11  22  37  63  93 125 160 212 273 323 376
#     4  11  23  39  55  81 127 171 211 263 324 382
#
# _framework density 19.158214000000001
#
# number of rings (size 3 to 8) (size 9 to 14) (size 15 to 20)
#    0.000    1.273    1.818    4.636    2.545    3.818 
#    3.273    2.727    0.000    0.000    0.000    0.000 
#    0.000    0.000    0.000    0.000    0.000    0.000 
#
# Total GULP energy -491034.650360 kJ/mol
# GULP energy per Si atom -5579.939209 kJ/mol
# Density = 1.911461 g / cm^3
# Si number density = 19.158214 Si / 1000 Ang^3
#
#
#
# Elastic Constant Matrix: (Units=GPa)
#
#
# Indices 1 2 3 4 5 6 
#
# 1 61.5899 18.7341 9.2295 0.0000 0.0000 0.0000
# 2 18.7341 61.5903 9.2268 0.0000 0.0000 0.0000
# 3 9.2295 9.2268 64.3171 0.0000 0.0000 0.0000
# 4 0.0000 0.0000 0.0000 29.8054 0.0000 0.0000
# 5 0.0000 0.0000 0.0000 0.0000 29.8064 0.0000
# 6 0.0000 0.0000 0.0000 0.0000 0.0000 11.1407
#
#
#
# Elastic Compliance Matrix: (Units=1/GPa)
#
#
# Indices 1 2 3 4 5 6 
#
# 1 0.018104 -0.005230 -0.001848 0.000000 0.000000 0.000000
# 2 -0.005230 0.018104 -0.001847 0.000000 0.000000 0.000000
# 3 -0.001848 -0.001847 0.016078 0.000000 0.000000 0.000000
# 4 0.000000 0.000000 0.000000 0.033551 0.000000 0.000000
# 5 0.000000 0.000000 0.000000 0.000000 0.033550 0.000000
# 6 0.000000 0.000000 0.000000 0.000000 0.000000 0.089761
#
#
# Mechanical properties :
#
#
# Convention : Reuss Voigt Hill
#
# Bulk Modulus (GPa) = 29.03820 29.09755 29.06787
# Shear Modulus (GPa) = 20.96654 24.17097 22.56876
#
# Velocity S-wave (km/s) = 3.31174 3.55583 3.43595
# Velocity P-wave (km/s) = 5.46017 5.66388 5.56296
#
# Compressibility (1/GPa) = 0.03443740
#
# Stress axis : x y z
#
# Youngs Moduli (GPa) = 55.23598 55.23706 62.19673
#
# Poissons Ratio (x) = 0.28889 0.11492
# Poissons Ratio (y) = 0.28888 0.11485
# Poissons Ratio (z) = 0.10206 0.10200
#
# Static dielectric constant tensor:
#      x y z
#    x 1.696160 0.000000 0.000000 
#    y 0.000000 1.696180 0.000000 
#    z 0.000000 0.000000 1.725560 
# 
# From -- ./inp_files/12941.got.cif
#   From: 2010.05.17/outbox.cif.g08.bks.cpg/sg141_7_cif.got.tgz:12941.got - 2010.05.20 13:30:51.
