data_PCOD9573017
_publ_section_title
;
Structure prediction by ZEFSAII (Michael W. Deem and Ramdas Pophale) SiO2 
 PCOD9573017
Probable space group: I 41/A M D
;
_chemical_formula_sum "Si O2"
_cell_formula_units_Z 144
_cell_length_a 20.295263
_cell_length_b 20.295263
_cell_length_c 17.576244
_cell_angle_alpha 90.000000
_cell_angle_beta 90.000000
_cell_angle_gamma 90.000000
_cell_volume 7239.614482
_symmetry_space_group_name_H-M "I 41/A M D"
_symmetry_group_IT_number 141
_space_group.IT_coordinate_system_code '2'
_symmetry_cell_setting 'tetragonal'
loop_
_space_group_symop_operation_xyz
x,y,z
1/4-y,3/4+x,1/4+z
-x,1/2-y,z
1/4+y,1/4-x,3/4+z
x,-y,-z
-x,1/2+y,-z
1/4+y,3/4+x,1/4-z
1/4-y,1/4-x,3/4-z
-x,-y,-z
3/4+y,1/4-x,3/4-z
x,1/2+y,-z
3/4-y,3/4+x,1/4-z
-x,y,z
x,1/2-y,z
3/4-y,1/4-x,3/4+z
3/4+y,3/4+x,1/4+z
1/2+x,1/2+y,1/2+z
3/4-y,1/4+x,3/4+z
1/2-x,-y,1/2+z
3/4+y,3/4-x,1/4+z
1/2+x,1/2-y,1/2-z
1/2-x,y,1/2-z
3/4+y,1/4+x,3/4-z
3/4-y,3/4-x,1/4-z
1/2-x,1/2-y,1/2-z
1/4+y,3/4-x,1/4-z
1/2+x,y,1/2-z
1/4-y,1/4+x,3/4-z
1/2-x,1/2+y,1/2+z
1/2+x,-y,1/2+z
1/4-y,3/4-x,1/4+z
1/4+y,1/4+x,3/4+z
loop_
_atom_site_type_symbol
_atom_site_label
_atom_site_fract_x
_atom_site_fract_y
_atom_site_fract_z
Si Si1 0.819492 0.643441 0.715495
Si Si2 0.862667 0.750000 0.315470
Si Si3 0.729843 0.640320 0.940067
Si Si4 0.133664 0.826373 0.871671
Si Si5 0.500000 0.640238 0.388855
Si Si6 0.750886 0.250000 0.935607
O O1 0.750000 0.663694 0.750000
O O2 0.826964 0.563893 0.711339
O O3 0.815397 0.668931 0.629227
O O4 0.870009 0.666286 0.779932
O O5 0.900302 0.815864 0.342049
O O6 0.862747 0.750000 0.224559
O O7 0.793072 0.750000 0.359550
O O8 0.803142 0.633609 0.905041
O O9 0.734212 0.687134 0.012365
O O10 0.147039 0.750000 0.889673
O O11 0.563318 0.686683 0.375000
O O12 0.500000 0.577785 0.333873
#
# Coordination Sequence:
#
# PCOD9573017 Si02
#       6
#    32  16  32  32  16  16
#     4   9  20  37  59  94 126 166 208 255 306 376
#     4  12  25  43  64  95 125 162 211 274 317 385
#     4  10  20  37  62  89 126 164 210 250 310 384
#     4  11  22  36  63  92 128 165 214 256 315 378
#     4  11  27  46  69  92 124 163 221 274 328 386
#     4  12  22  42  65  92 125 170 204 265 326 377
#
# _framework density 19.890561999999999
#
# number of rings (size 3 to 8) (size 9 to 14) (size 15 to 20)
#    0.000    1.444    3.333    2.000    4.667    1.333 
#    0.000    4.444    0.000    0.000    0.000    0.000 
#    0.000    0.000    0.000    0.000    0.000    0.000 
#
# Total GULP energy -401290.180595 kJ/mol
# GULP energy per Si atom -5573.474730 kJ/mol
# Density = 1.984529 g / cm^3
# Si number density = 19.890562 Si / 1000 Ang^3
#
#
#
# Elastic Constant Matrix: (Units=GPa)
#
#
# Indices 1 2 3 4 5 6 
#
# 1 85.3441 20.7748 28.6844 0.0000 0.0000 0.0000
# 2 20.7748 85.3444 28.6838 0.0000 0.0000 0.0000
# 3 28.6844 28.6838 133.5989 0.0000 0.0000 0.0000
# 4 0.0000 0.0000 0.0000 23.9520 0.0000 0.0000
# 5 0.0000 0.0000 0.0000 0.0000 23.9510 0.0000
# 6 0.0000 0.0000 0.0000 0.0000 0.0000 18.3123
#
#
#
# Elastic Compliance Matrix: (Units=1/GPa)
#
#
# Indices 1 2 3 4 5 6 
#
# 1 0.013074 -0.002413 -0.002289 0.000000 0.000000 0.000000
# 2 -0.002413 0.013074 -0.002289 0.000000 0.000000 0.000000
# 3 -0.002289 -0.002289 0.008468 0.000000 0.000000 0.000000
# 4 0.000000 0.000000 0.000000 0.041750 0.000000 0.000000
# 5 0.000000 0.000000 0.000000 0.000000 0.041752 0.000000
# 6 0.000000 0.000000 0.000000 0.000000 0.000000 0.054608
#
#
# Mechanical properties :
#
#
# Convention : Reuss Voigt Hill
#
# Bulk Modulus (GPa) = 48.46394 51.17480 49.81937
# Shear Modulus (GPa) = 25.82831 28.31936 27.07384
#
# Velocity S-wave (km/s) = 3.60741 3.77737 3.69337
# Velocity P-wave (km/s) = 6.46292 6.69393 6.57944
#
# Compressibility (1/GPa) = 0.02063390
#
# Stress axis : x y z
#
# Youngs Moduli (GPa) = 76.48755 76.48809 118.09221
#
# Poissons Ratio (x) = 0.18458 0.27031
# Poissons Ratio (y) = 0.18458 0.27030
# Poissons Ratio (z) = 0.17508 0.17507
#
# Static dielectric constant tensor:
#      x y z
#    x 1.699300 0.000000 0.000000 
#    y 0.000000 1.699300 0.000000 
#    z 0.000000 0.000000 1.771280 
# 
# From -- ./inp_files/8484.got.cif
#   From: 2010.05.17/outbox.cif.g08.bks.cpg/sg141_5_cif.got.tgz:8484.got - 2010.05.20 13:30:51.
