data_PCOD9573908
_publ_section_title
;
Structure prediction by ZEFSAII (Michael W. Deem and Ramdas Pophale) SiO2 
 PCOD9573908
Probable space group: I 41/A C D
;
_chemical_formula_sum "Si O2"
_cell_formula_units_Z 160
_cell_length_a 28.880092
_cell_length_b 28.880092
_cell_length_c 9.490038
_cell_angle_alpha 90.000000
_cell_angle_beta 90.000000
_cell_angle_gamma 90.000000
_cell_volume 7915.258379
_symmetry_space_group_name_H-M "I 41/A C D"
_symmetry_group_IT_number 142
_space_group.IT_coordinate_system_code '2'
_symmetry_cell_setting 'tetragonal'
loop_
_space_group_symop_operation_xyz
x,y,z
1/4-y,3/4+x,1/4+z
-x,1/2-y,z
1/4+y,1/4-x,3/4+z
x,-y,1/2-z
1/2-x,y,-z
3/4+y,1/4+x,1/4-z
1/4-y,1/4-x,1/4-z
-x,-y,-z
3/4+y,1/4-x,3/4-z
x,1/2+y,-z
3/4-y,3/4+x,1/4-z
-x,y,1/2+z
1/2+x,-y,z
1/4-y,3/4-x,3/4+z
3/4+y,3/4+x,3/4+z
1/2+x,1/2+y,1/2+z
3/4-y,1/4+x,3/4+z
1/2-x,-y,1/2+z
3/4+y,3/4-x,1/4+z
1/2+x,1/2-y,-z
-x,1/2+y,1/2-z
1/4+y,3/4+x,3/4-z
3/4-y,3/4-x,3/4-z
1/2-x,1/2-y,1/2-z
1/4+y,3/4-x,1/4-z
1/2+x,y,1/2-z
1/4-y,1/4+x,3/4-z
1/2-x,1/2+y,z
x,1/2-y,1/2+z
3/4-y,1/4-x,1/4+z
1/4+y,1/4+x,1/4+z
loop_
_atom_site_type_symbol
_atom_site_label
_atom_site_fract_x
_atom_site_fract_y
_atom_site_fract_z
Si Si1 0.323412 0.305777 0.156023
Si Si2 0.335643 0.585643 0.625000
Si Si3 0.869772 0.651279 0.629058
Si Si4 0.694849 0.720590 0.532911
Si Si5 0.445910 0.282280 0.714330
Si Si6 0.750000 0.630559 0.000000
O O1 0.366734 0.340405 0.180597
O O2 0.311479 0.280024 0.300015
O O3 0.328106 0.266437 0.036009
O O4 0.280692 0.337222 0.101972
O O5 0.370201 0.596252 0.497245
O O6 0.347503 0.534370 0.667899
O O7 0.832637 0.675809 0.527900
O O8 0.897402 0.692543 0.705022
O O9 0.750000 0.719796 0.500000
O O10 0.443870 0.231226 0.647490
O O11 0.463909 0.286092 0.875000
#
# Coordination Sequence:
#
# PCOD9573908 Si02
#       6
#    32  16  32  32  32  16
#     4  11  25  41  66  98 134 175 223 277 339 399
#     4  10  22  42  70  93 128 168 214 276 340 416
#     4  11  24  39  65  93 133 171 224 275 340 398
#     4  12  25  41  66  96 134 174 228 282 337 406
#     4  11  23  39  59  88 130 180 229 273 321 388
#     4  10  22  44  70  96 130 170 220 274 346 410
#
# _framework density 20.214123000000001
#
# number of rings (size 3 to 8) (size 9 to 14) (size 15 to 20)
#    0.000    1.000    2.000    4.800    5.600    6.400 
#    0.000    0.000   17.600    0.000    0.000    0.000 
#    0.000    0.000    0.000    0.000    0.000    0.000 
#
# Total GULP energy -446997.764480 kJ/mol
# GULP energy per Si atom -5587.472056 kJ/mol
# Density = 2.016811 g / cm^3
# Si number density = 20.214123 Si / 1000 Ang^3
#
#
#
# Elastic Constant Matrix: (Units=GPa)
#
#
# Indices 1 2 3 4 5 6 
#
# 1 109.3310 24.9378 19.4603 0.0000 0.0000 0.0000
# 2 24.9378 109.3307 19.4601 0.0000 0.0000 0.0000
# 3 19.4603 19.4601 102.4775 0.0000 0.0000 0.0000
# 4 0.0000 0.0000 0.0000 11.7583 0.0000 0.0000
# 5 0.0000 0.0000 0.0000 0.0000 11.7578 0.0000
# 6 0.0000 0.0000 0.0000 0.0000 0.0000 31.0386
#
#
#
# Elastic Compliance Matrix: (Units=1/GPa)
#
#
# Indices 1 2 3 4 5 6 
#
# 1 0.009865 -0.001984 -0.001497 0.000000 0.000000 0.000000
# 2 -0.001984 0.009865 -0.001497 0.000000 0.000000 0.000000
# 3 -0.001497 -0.001497 0.010327 0.000000 0.000000 0.000000
# 4 0.000000 0.000000 0.000000 0.085047 0.000000 0.000000
# 5 0.000000 0.000000 0.000000 0.000000 0.085050 0.000000
# 6 0.000000 0.000000 0.000000 0.000000 0.000000 0.032218
#
#
# Mechanical properties :
#
#
# Convention : Reuss Voigt Hill
#
# Bulk Modulus (GPa) = 49.74358 49.87285 49.80821
# Shear Modulus (GPa) = 20.07811 28.06299 24.07055
#
# Velocity S-wave (km/s) = 3.15504 3.73001 3.45451
# Velocity P-wave (km/s) = 6.15907 6.57849 6.37223
#
# Compressibility (1/GPa) = 0.02010310
#
# Stress axis : x y z
#
# Youngs Moduli (GPa) = 101.36383 101.36365 96.83655
#
# Poissons Ratio (x) = 0.20109 0.14494
# Poissons Ratio (y) = 0.20109 0.14493
# Poissons Ratio (z) = 0.15171 0.15171
#
# Static dielectric constant tensor:
#      x y z
#    x 1.753140 0.000000 0.000000 
#    y 0.000000 1.753140 0.000000 
#    z 0.000000 0.000000 1.692750 
# 
# From -- ./inp_files/2210.got.cif
#   From: 2010.05.17/outbox.cif.g08.bks.cpg/sg142_2_cif.got.tgz:2210.got - 2010.05.20 13:39:18.
