data_PCOD9573498
_publ_section_title
;
Structure prediction by ZEFSAII (Michael W. Deem and Ramdas Pophale) SiO2 
 PCOD9573498
Probable space group: I 41/A C D
;
_chemical_formula_sum "Si O2"
_cell_formula_units_Z 176
_cell_length_a 25.919779
_cell_length_b 25.919779
_cell_length_c 13.136214
_cell_angle_alpha 90.000000
_cell_angle_beta 90.000000
_cell_angle_gamma 90.000000
_cell_volume 8825.367589
_symmetry_space_group_name_H-M "I 41/A C D"
_symmetry_group_IT_number 142
_space_group.IT_coordinate_system_code '2'
_symmetry_cell_setting 'tetragonal'
loop_
_space_group_symop_operation_xyz
x,y,z
1/4-y,3/4+x,1/4+z
-x,1/2-y,z
1/4+y,1/4-x,3/4+z
x,-y,1/2-z
1/2-x,y,-z
3/4+y,1/4+x,1/4-z
1/4-y,1/4-x,1/4-z
-x,-y,-z
3/4+y,1/4-x,3/4-z
x,1/2+y,-z
3/4-y,3/4+x,1/4-z
-x,y,1/2+z
1/2+x,-y,z
1/4-y,3/4-x,3/4+z
3/4+y,3/4+x,3/4+z
1/2+x,1/2+y,1/2+z
3/4-y,1/4+x,3/4+z
1/2-x,-y,1/2+z
3/4+y,3/4-x,1/4+z
1/2+x,1/2-y,-z
-x,1/2+y,1/2-z
1/4+y,3/4+x,3/4-z
3/4-y,3/4-x,3/4-z
1/2-x,1/2-y,1/2-z
1/4+y,3/4-x,1/4-z
1/2+x,y,1/2-z
1/4-y,1/4+x,3/4-z
1/2-x,1/2+y,z
x,1/2-y,1/2+z
3/4-y,1/4-x,1/4+z
1/4+y,1/4+x,1/4+z
loop_
_atom_site_type_symbol
_atom_site_label
_atom_site_fract_x
_atom_site_fract_y
_atom_site_fract_z
Si Si1 0.616735 0.705170 0.420291
Si Si2 0.602205 0.955529 0.819877
Si Si3 0.750000 0.345495 0.000000
Si Si4 0.148817 0.100765 0.004065
Si Si5 0.269215 0.738576 0.861064
Si Si6 0.903978 0.685507 0.988171
O O1 0.614660 0.651913 0.483348
O O2 0.673950 0.714591 0.374038
O O3 0.581360 0.696152 0.322031
O O4 0.605307 0.754095 0.490578
O O5 0.544785 0.976256 0.840946
O O6 0.594678 0.899856 0.764568
O O7 0.627809 0.000000 0.750000
O O8 0.627597 0.943725 0.930172
O O9 0.795263 0.381979 0.963875
O O10 0.767452 0.304052 0.085654
O O11 0.156173 0.093828 0.125000
O O12 0.250000 0.750000 0.750000
O O13 0.921882 0.671882 0.875000
#
# Coordination Sequence:
#
# PCOD9573498 Si02
#       6
#    32  32  16  32  32  32
#     4   9  22  37  55  90 124 157 216 252 310 397
#     4  10  21  38  60  97 124 155 217 269 324 395
#     4  10  20  36  58  90 120 154 212 254 318 386
#     4  10  21  40  62  86 124 165 204 269 325 386
#     4  10  19  32  60  91 119 155 202 267 324 374
#     4  10  22  39  59  86 129 165 205 267 322 389
#
# _framework density 19.942512000000001
#
# number of rings (size 3 to 8) (size 9 to 14) (size 15 to 20)
#    0.000    2.182    0.909    1.091    2.545    4.727 
#    3.273    0.909    2.000    0.000    0.000    0.000 
#    0.000    0.000    0.000    0.000    0.000    0.000 
#
# Total GULP energy -490247.511987 kJ/mol
# GULP energy per Si atom -5570.994454 kJ/mol
# Density = 1.989712 g / cm^3
# Si number density = 19.942512 Si / 1000 Ang^3
#
#
#
# Elastic Constant Matrix: (Units=GPa)
#
#
# Indices 1 2 3 4 5 6 
#
# 1 50.7893 31.0833 40.7931 0.0000 0.0000 0.0000
# 2 31.0833 50.7896 40.7936 0.0000 0.0000 0.0000
# 3 40.7931 40.7936 129.0868 0.0000 0.0000 0.0000
# 4 0.0000 0.0000 0.0000 29.3467 0.0000 0.0000
# 5 0.0000 0.0000 0.0000 0.0000 29.3466 0.0000
# 6 0.0000 0.0000 0.0000 0.0000 0.0000 8.1006
#
#
#
# Elastic Compliance Matrix: (Units=1/GPa)
#
#
# Indices 1 2 3 4 5 6 
#
# 1 0.034287 -0.016459 -0.005634 0.000000 0.000000 0.000000
# 2 -0.016459 0.034287 -0.005634 0.000000 0.000000 0.000000
# 3 -0.005634 -0.005634 0.011308 0.000000 0.000000 0.000000
# 4 0.000000 0.000000 0.000000 0.034075 0.000000 0.000000
# 5 0.000000 0.000000 0.000000 0.000000 0.034076 0.000000
# 6 0.000000 0.000000 0.000000 0.000000 0.000000 0.123448
#
#
# Mechanical properties :
#
#
# Convention : Reuss Voigt Hill
#
# Bulk Modulus (GPa) = 40.93616 50.66733 45.80174
# Shear Modulus (GPa) = 14.92199 21.22517 18.07358
#
# Velocity S-wave (km/s) = 2.73838 3.26593 3.01372
# Velocity P-wave (km/s) = 5.52901 6.29949 5.92678
#
# Compressibility (1/GPa) = 0.02442828
#
# Stress axis : x y z
#
# Youngs Moduli (GPa) = 29.16562 29.16561 88.43598
#
# Poissons Ratio (x) = 0.48002 0.49824
# Poissons Ratio (y) = 0.48002 0.49826
# Poissons Ratio (z) = 0.16432 0.16432
#
# Static dielectric constant tensor:
#      x y z
#    x 1.752570 0.000000 0.000000 
#    y 0.000000 1.752570 0.000000 
#    z 0.000000 0.000000 2.021880 
# 
# From -- ./inp_files/3986.got.cif
#   From: 2010.05.17/outbox.cif.g08.bks.cpg/sg142_2_cif.got.tgz:3986.got - 2010.05.20 13:39:18.
