data_PCOD9573039
_publ_section_title
;
Structure prediction by ZEFSAII (Michael W. Deem and Ramdas Pophale) SiO2 
 PCOD9573039
Probable space group: I 41/A M D
;
_chemical_formula_sum "Si O2"
_cell_formula_units_Z 120
_cell_length_a 19.054448
_cell_length_b 19.054448
_cell_length_c 14.868906
_cell_angle_alpha 90.000000
_cell_angle_beta 90.000000
_cell_angle_gamma 90.000000
_cell_volume 5398.483269
_symmetry_space_group_name_H-M "I 41/A M D"
_symmetry_group_IT_number 141
_space_group.IT_coordinate_system_code '2'
_symmetry_cell_setting 'tetragonal'
loop_
_space_group_symop_operation_xyz
x,y,z
1/4-y,3/4+x,1/4+z
-x,1/2-y,z
1/4+y,1/4-x,3/4+z
x,-y,-z
-x,1/2+y,-z
1/4+y,3/4+x,1/4-z
1/4-y,1/4-x,3/4-z
-x,-y,-z
3/4+y,1/4-x,3/4-z
x,1/2+y,-z
3/4-y,3/4+x,1/4-z
-x,y,z
x,1/2-y,z
3/4-y,1/4-x,3/4+z
3/4+y,3/4+x,1/4+z
1/2+x,1/2+y,1/2+z
3/4-y,1/4+x,3/4+z
1/2-x,-y,1/2+z
3/4+y,3/4-x,1/4+z
1/2+x,1/2-y,1/2-z
1/2-x,y,1/2-z
3/4+y,1/4+x,3/4-z
3/4-y,3/4-x,1/4-z
1/2-x,1/2-y,1/2-z
1/4+y,3/4-x,1/4-z
1/2+x,y,1/2-z
1/4-y,1/4+x,3/4-z
1/2-x,1/2+y,1/2+z
1/2+x,-y,1/2+z
1/4-y,3/4-x,1/4+z
1/4+y,1/4+x,3/4+z
loop_
_atom_site_type_symbol
_atom_site_label
_atom_site_fract_x
_atom_site_fract_y
_atom_site_fract_z
Si Si1 0.750000 0.940471 0.250000
Si Si2 0.500000 0.750000 0.725945
Si Si3 0.103970 0.011676 0.684338
Si Si4 0.358479 0.250000 0.096222
Si Si5 0.500000 0.597735 0.063056
Si Si6 0.425139 0.072195 0.622939
O O1 0.812387 0.982831 0.299708
O O2 0.783034 0.886449 0.179198
O O3 0.500000 0.818764 0.791446
O O4 0.569695 0.750000 0.664528
O O5 0.074780 0.045515 0.775651
O O6 0.067909 0.056489 0.603286
O O7 0.070022 0.934776 0.680020
O O8 0.353727 0.250000 0.204727
O O9 0.403098 0.153098 0.625000
O O10 0.500000 0.060395 0.579924
#
# Coordination Sequence:
#
# PCOD9573039 Si02
#       6
#    16   8  32  16  16  32
#     4  10  23  40  68 103 140 188 242 280 354 433
#     4  12  29  48  76 106 135 178 243 296 364 442
#     4  10  22  42  70  98 142 181 233 288 357 425
#     4  11  23  47  79 100 140 182 233 311 362 437
#     4  11  23  45  73 108 135 185 242 290 370 425
#     4  10  20  39  60  94 137 181 234 287 337 414
#
# _framework density 22.228463999999999
#
# number of rings (size 3 to 8) (size 9 to 14) (size 15 to 20)
#    0.000    1.600    2.667    3.200    3.733    0.267 
#    9.600    8.000    0.000    0.000    0.000    0.000 
#    0.000    0.000    0.000    0.000    0.000    0.000 
#
# Total GULP energy -334717.812727 kJ/mol
# GULP energy per Si atom -5578.630212 kJ/mol
# Density = 2.217787 g / cm^3
# Si number density = 22.228464 Si / 1000 Ang^3
#
#
#
# Elastic Constant Matrix: (Units=GPa)
#
#
# Indices 1 2 3 4 5 6 
#
# 1 151.0786 90.3465 30.5174 0.0000 0.0000 0.0000
# 2 90.3465 151.0786 30.5174 0.0000 0.0000 0.0000
# 3 30.5174 30.5174 81.7476 0.0000 0.0000 0.0000
# 4 0.0000 0.0000 0.0000 22.6536 0.0000 0.0000
# 5 0.0000 0.0000 0.0000 0.0000 22.6536 0.0000
# 6 0.0000 0.0000 0.0000 0.0000 0.0000 28.0086
#
#
#
# Elastic Compliance Matrix: (Units=1/GPa)
#
#
# Indices 1 2 3 4 5 6 
#
# 1 0.010520 -0.005946 -0.001707 0.000000 0.000000 0.000000
# 2 -0.005946 0.010520 -0.001707 0.000000 0.000000 0.000000
# 3 -0.001707 -0.001707 0.013508 0.000000 0.000000 0.000000
# 4 0.000000 0.000000 0.000000 0.044143 0.000000 0.000000
# 5 0.000000 0.000000 0.000000 0.000000 0.044143 0.000000
# 6 0.000000 0.000000 0.000000 0.000000 0.000000 0.035703
#
#
# Mechanical properties :
#
#
# Convention : Reuss Voigt Hill
#
# Bulk Modulus (GPa) = 63.18987 76.29637 69.74312
# Shear Modulus (GPa) = 27.39224 30.16472 28.77848
#
# Velocity S-wave (km/s) = 3.51423 3.68779 3.60205
# Velocity P-wave (km/s) = 6.70489 7.24785 6.98165
#
# Compressibility (1/GPa) = 0.01582532
#
# Stress axis : x y z
#
# Youngs Moduli (GPa) = 95.05935 95.05935 74.03242
#
# Poissons Ratio (x) = 0.56522 0.12641
# Poissons Ratio (y) = 0.56522 0.12641
# Poissons Ratio (z) = 0.16231 0.16231
#
# Static dielectric constant tensor:
#      x y z
#    x 1.890740 0.000000 0.000000 
#    y 0.000000 1.890740 0.000000 
#    z 0.000000 0.000000 1.827150 
# 
# From -- ./inp_files/6198.got.cif
#   From: 2010.05.17/outbox.cif.g08.bks.cpg/sg141_4_cif.got.tgz:6198.got - 2010.05.20 13:30:51.
