data_PCOD9573928
_publ_section_title
;
Structure prediction by ZEFSAII (Michael W. Deem and Ramdas Pophale) SiO2 
 PCOD9573928
Probable space group: I 41/A C D
;
_chemical_formula_sum "Si O2"
_cell_formula_units_Z 80
_cell_length_a 18.250052
_cell_length_b 18.250052
_cell_length_c 10.895117
_cell_angle_alpha 90.000000
_cell_angle_beta 90.000000
_cell_angle_gamma 90.000000
_cell_volume 3628.775585
_symmetry_space_group_name_H-M "I 41/A C D"
_symmetry_group_IT_number 142
_space_group.IT_coordinate_system_code '2'
_symmetry_cell_setting 'tetragonal'
loop_
_space_group_symop_operation_xyz
x,y,z
1/4-y,3/4+x,1/4+z
-x,1/2-y,z
1/4+y,1/4-x,3/4+z
x,-y,1/2-z
1/2-x,y,-z
3/4+y,1/4+x,1/4-z
1/4-y,1/4-x,1/4-z
-x,-y,-z
3/4+y,1/4-x,3/4-z
x,1/2+y,-z
3/4-y,3/4+x,1/4-z
-x,y,1/2+z
1/2+x,-y,z
1/4-y,3/4-x,3/4+z
3/4+y,3/4+x,3/4+z
1/2+x,1/2+y,1/2+z
3/4-y,1/4+x,3/4+z
1/2-x,-y,1/2+z
3/4+y,3/4-x,1/4+z
1/2+x,1/2-y,-z
-x,1/2+y,1/2-z
1/4+y,3/4+x,3/4-z
3/4-y,3/4-x,3/4-z
1/2-x,1/2-y,1/2-z
1/4+y,3/4-x,1/4-z
1/2+x,y,1/2-z
1/4-y,1/4+x,3/4-z
1/2-x,1/2+y,z
x,1/2-y,1/2+z
3/4-y,1/4-x,1/4+z
1/4+y,1/4+x,1/4+z
loop_
_atom_site_type_symbol
_atom_site_label
_atom_site_fract_x
_atom_site_fract_y
_atom_site_fract_z
Si Si1 0.948400 0.920943 0.877300
Si Si2 0.123189 0.747964 0.124414
Si Si3 0.712295 0.462295 0.875000
O O1 0.910433 0.839568 0.875000
O O2 0.989497 0.920998 0.748151
O O3 0.876053 0.971683 0.883882
O O4 0.993272 0.920148 0.002373
O O5 0.071419 0.819264 0.110508
O O6 0.737927 0.500000 0.750000
#
# Coordination Sequence:
#
# PCOD9573928 Si02
#       3
#    32  32  16
#     4   8  17  30  53  83 112 142 185 228 266 337
#     4   9  14  26  51  88 127 154 166 201 282 363
#     4  10  22  44  61  72 100 152 213 248 268 314
#
# _framework density 22.046002000000001
#
# number of rings (size 3 to 8) (size 9 to 14) (size 15 to 20)
#    1.200    2.000    0.000    1.200    0.000    4.800 
#    0.000    6.000    0.000    0.000    0.000    0.000 
#    0.000    0.000    0.000    0.000    0.000    0.000 
#
# Total GULP energy -222997.826874 kJ/mol
# GULP energy per Si atom -5574.945672 kJ/mol
# Density = 2.199582 g / cm^3
# Si number density = 22.046002 Si / 1000 Ang^3
#
#
#
# Elastic Constant Matrix: (Units=GPa)
#
#
# Indices 1 2 3 4 5 6 
#
# 1 85.0260 23.1567 67.5682 0.0000 0.0000 0.0000
# 2 23.1567 85.0277 67.5676 0.0000 0.0000 0.0000
# 3 67.5682 67.5676 284.8688 0.0000 0.0000 0.0000
# 4 0.0000 0.0000 0.0000 -51.4216 0.0000 0.0000
# 5 0.0000 0.0000 0.0000 0.0000 -51.4256 0.0000
# 6 0.0000 0.0000 0.0000 0.0000 0.0000 9.5748
#
#
#
# Elastic Compliance Matrix: (Units=1/GPa)
#
#
# Indices 1 2 3 4 5 6 
#
# 1 0.014649 -0.001514 -0.003116 0.000000 0.000000 0.000000
# 2 -0.001514 0.014649 -0.003115 0.000000 0.000000 0.000000
# 3 -0.003116 -0.003115 0.004988 0.000000 0.000000 0.000000
# 4 0.000000 0.000000 0.000000 -0.019447 0.000000 0.000000
# 5 0.000000 0.000000 0.000000 0.000000 -0.019446 0.000000
# 6 0.000000 0.000000 0.000000 0.000000 0.000000 0.104441
#
#
# Mechanical properties :
#
#
# Convention : Reuss Voigt Hill
#
# Bulk Modulus (GPa) = 53.20079 85.72306 69.46192
# Shear Modulus (GPa) = 41.12166 1.12084 21.12125
#
# Velocity S-wave (km/s) = 4.32356 0.71380 3.09860
# Velocity P-wave (km/s) = 7.00773 6.29662 6.66167
#
# Compressibility (1/GPa) = 0.01879671
#
# Stress axis : x y z
#
# Youngs Moduli (GPa) = 68.26263 68.26458 200.46740
#
# Poissons Ratio (x) = 0.10334 0.62458
# Poissons Ratio (y) = 0.10334 0.62455
# Poissons Ratio (z) = 0.21268 0.21268
#
# Static dielectric constant tensor:
#      x y z
#    x 1.823100 0.000000 0.000000 
#    y 0.000000 1.823090 0.000000 
#    z 0.000000 0.000000 1.819170 
# 
# From -- ./inp_files/1477.got.cif
#   From: 2010.05.17/outbox.cif.g08.bks.cpg/sg142_1_cif.got.tgz:1477.got - 2010.05.20 13:39:18.
