data_PCOD9573176
_publ_section_title
;
Structure prediction by ZEFSAII (Michael W. Deem and Ramdas Pophale) SiO2 
 PCOD9573176
Probable space group: I 41/A M D
;
_chemical_formula_sum "Si O2"
_cell_formula_units_Z 176
_cell_length_a 17.221657
_cell_length_b 17.221657
_cell_length_c 29.271412
_cell_angle_alpha 90.000000
_cell_angle_beta 90.000000
_cell_angle_gamma 90.000000
_cell_volume 8681.475480
_symmetry_space_group_name_H-M "I 41/A M D"
_symmetry_group_IT_number 141
_space_group.IT_coordinate_system_code '2'
_symmetry_cell_setting 'tetragonal'
loop_
_space_group_symop_operation_xyz
x,y,z
1/4-y,3/4+x,1/4+z
-x,1/2-y,z
1/4+y,1/4-x,3/4+z
x,-y,-z
-x,1/2+y,-z
1/4+y,3/4+x,1/4-z
1/4-y,1/4-x,3/4-z
-x,-y,-z
3/4+y,1/4-x,3/4-z
x,1/2+y,-z
3/4-y,3/4+x,1/4-z
-x,y,z
x,1/2-y,z
3/4-y,1/4-x,3/4+z
3/4+y,3/4+x,1/4+z
1/2+x,1/2+y,1/2+z
3/4-y,1/4+x,3/4+z
1/2-x,-y,1/2+z
3/4+y,3/4-x,1/4+z
1/2+x,1/2-y,1/2-z
1/2-x,y,1/2-z
3/4+y,1/4+x,3/4-z
3/4-y,3/4-x,1/4-z
1/2-x,1/2-y,1/2-z
1/4+y,3/4-x,1/4-z
1/2+x,y,1/2-z
1/4-y,1/4+x,3/4-z
1/2-x,1/2+y,1/2+z
1/2+x,-y,1/2+z
1/4-y,3/4-x,1/4+z
1/4+y,1/4+x,3/4+z
loop_
_atom_site_type_symbol
_atom_site_label
_atom_site_fract_x
_atom_site_fract_y
_atom_site_fract_z
Si Si1 0.589339 0.382964 0.712565
Si Si2 0.590189 0.557115 0.845771
Si Si3 0.339627 0.603821 0.654196
Si Si4 0.163378 0.750000 0.270156
Si Si5 0.218090 0.585807 0.498624
Si Si6 0.674226 0.575775 0.375000
Si Si7 0.910031 0.750000 0.365680
O O1 0.500000 0.369192 0.700696
O O2 0.618680 0.324513 0.750728
O O3 0.601816 0.469493 0.731520
O O4 0.644401 0.376930 0.668593
O O5 0.620751 0.629250 0.875000
O O6 0.500000 0.561478 0.834605
O O7 0.606222 0.480225 0.876386
O O8 0.639922 0.555168 0.799238
O O9 0.328958 0.596717 0.709000
O O10 0.339141 0.514712 0.635835
O O11 0.421420 0.643772 0.643483
O O12 0.250000 0.750000 0.250000
O O13 0.151331 0.750000 0.324130
O O14 0.256284 0.500000 0.500000
O O15 0.000000 0.750000 0.349571
#
# Coordination Sequence:
#
# PCOD9573176 Si02
#       7
#    32  32  32  16  32  16  16
#     4  11  23  36  60  95 131 173 224 278 339 401
#     4  12  24  44  71 102 138 182 230 290 352 419
#     4  11  23  44  68 100 134 180 235 279 347 418
#     4  12  24  42  60  88 132 182 230 280 341 409
#     4  11  22  43  72  98 127 172 234 282 336 418
#     4  10  22  38  63  92 133 180 230 276 332 408
#     4  12  26  42  68  98 140 176 222 295 351 407
#
# _framework density 20.273052
#
# number of rings (size 3 to 8) (size 9 to 14) (size 15 to 20)
#    0.000    0.727    2.727    5.727    7.636    0.182 
#    0.000    2.727    0.000    0.000    0.000    0.000 
#    0.000    0.000    0.000    0.000    0.000    0.000 
#
# Total GULP energy -491956.293257 kJ/mol
# GULP energy per Si atom -5590.412423 kJ/mol
# Density = 2.022691 g / cm^3
# Si number density = 20.273052 Si / 1000 Ang^3
#
#
#
# Elastic Constant Matrix: (Units=GPa)
#
#
# Indices 1 2 3 4 5 6 
#
# 1 82.3965 15.8469 10.1739 0.0000 0.0000 0.0000
# 2 15.8469 82.3937 10.1734 0.0000 0.0000 0.0000
# 3 10.1739 10.1734 103.4242 0.0000 0.0000 0.0000
# 4 0.0000 0.0000 0.0000 -14.3283 0.0000 0.0000
# 5 0.0000 0.0000 0.0000 0.0000 -14.3423 0.0000
# 6 0.0000 0.0000 0.0000 0.0000 0.0000 -21.9943
#
#
#
# Elastic Compliance Matrix: (Units=1/GPa)
#
#
# Indices 1 2 3 4 5 6 
#
# 1 0.012708 -0.002318 -0.001022 0.000000 0.000000 0.000000
# 2 -0.002318 0.012709 -0.001022 0.000000 0.000000 0.000000
# 3 -0.001022 -0.001022 0.009870 0.000000 0.000000 0.000000
# 4 0.000000 0.000000 0.000000 -0.069792 0.000000 0.000000
# 5 0.000000 0.000000 0.000000 0.000000 -0.069724 0.000000
# 6 0.000000 0.000000 0.000000 0.000000 0.000000 -0.045466
#
#
# Mechanical properties :
#
#
# Convention : Reuss Voigt Hill
#
# Bulk Modulus (GPa) = 37.64658 37.84477 37.74567
# Shear Modulus (GPa) = -37.84555 5.33503 -16.25526
#
# Velocity S-wave (km/s) = -4.32532 1.62398 -2.83471
# Velocity P-wave (km/s) = 2.51684 4.71428 2.81868
#
# Compressibility (1/GPa) = 0.02656284
#
# Stress axis : x y z
#
# Youngs Moduli (GPa) = 78.68778 78.68516 101.31713
#
# Poissons Ratio (x) = 0.18239 0.10356
# Poissons Ratio (y) = 0.18240 0.10356
# Poissons Ratio (z) = 0.08043 0.08042
#
# Static dielectric constant tensor:
#      x y z
#    x 1.673200 0.000000 0.000000 
#    y 0.000000 1.673180 0.000000 
#    z 0.000000 0.000000 1.763680 
# 
# From -- ./inp_files/12974.got.cif
#   From: 2010.05.17/outbox.cif.g08.bks.cpg/sg141_7_cif.got.tgz:12974.got - 2010.05.20 13:30:51.
