data_PCOD9573981
_publ_section_title
;
Structure prediction by ZEFSAII (Michael W. Deem and Ramdas Pophale) SiO2 
 PCOD9573981
Probable space group: I 41/A C D
;
_chemical_formula_sum "Si O2"
_cell_formula_units_Z 112
_cell_length_a 17.285738
_cell_length_b 17.285738
_cell_length_c 17.051480
_cell_angle_alpha 90.000000
_cell_angle_beta 90.000000
_cell_angle_gamma 90.000000
_cell_volume 5094.926606
_symmetry_space_group_name_H-M "I 41/A C D"
_symmetry_group_IT_number 142
_space_group.IT_coordinate_system_code '2'
_symmetry_cell_setting 'tetragonal'
loop_
_space_group_symop_operation_xyz
x,y,z
1/4-y,3/4+x,1/4+z
-x,1/2-y,z
1/4+y,1/4-x,3/4+z
x,-y,1/2-z
1/2-x,y,-z
3/4+y,1/4+x,1/4-z
1/4-y,1/4-x,1/4-z
-x,-y,-z
3/4+y,1/4-x,3/4-z
x,1/2+y,-z
3/4-y,3/4+x,1/4-z
-x,y,1/2+z
1/2+x,-y,z
1/4-y,3/4-x,3/4+z
3/4+y,3/4+x,3/4+z
1/2+x,1/2+y,1/2+z
3/4-y,1/4+x,3/4+z
1/2-x,-y,1/2+z
3/4+y,3/4-x,1/4+z
1/2+x,1/2-y,-z
-x,1/2+y,1/2-z
1/4+y,3/4+x,3/4-z
3/4-y,3/4-x,3/4-z
1/2-x,1/2-y,1/2-z
1/4+y,3/4-x,1/4-z
1/2+x,y,1/2-z
1/4-y,1/4+x,3/4-z
1/2-x,1/2+y,z
x,1/2-y,1/2+z
3/4-y,1/4-x,1/4+z
1/4+y,1/4+x,1/4+z
loop_
_atom_site_type_symbol
_atom_site_label
_atom_site_fract_x
_atom_site_fract_y
_atom_site_fract_z
Si Si1 0.740108 0.588399 0.240051
Si Si2 0.610651 0.860651 0.625000
Si Si3 0.523630 0.158735 0.723561
Si Si4 0.672697 0.142047 0.612580
O O1 0.708546 0.500000 0.250000
O O2 0.686119 0.635320 0.179932
O O3 0.820991 0.579917 0.196758
O O4 0.741800 0.629046 0.325208
O O5 0.540755 0.856739 0.685705
O O6 0.500000 0.250000 0.714714
O O7 0.600140 0.145028 0.672209
O O8 0.465709 0.094389 0.690382
#
# Coordination Sequence:
#
# PCOD9573981 Si02
#       4
#    32  16  32  32
#     4  11  22  44  67 102 137 184 229 300 344 418
#     4  10  23  42  74  90 136 188 229 276 368 408
#     4  11  22  45  64 101 137 180 227 298 341 427
#     4  11  22  42  71  93 145 178 231 289 360 408
#
# _framework density 21.982651000000001
#
# number of rings (size 3 to 8) (size 9 to 14) (size 15 to 20)
#    0.000    1.143    5.714    0.429    0.000    1.143 
#    5.143    2.857    0.000    0.000    0.000    0.000 
#    0.000    0.000    0.000    0.000    0.000    0.000 
#
# Total GULP energy -312569.678296 kJ/mol
# GULP energy per Si atom -5581.601398 kJ/mol
# Density = 2.193262 g / cm^3
# Si number density = 21.982651 Si / 1000 Ang^3
#
#
#
# Elastic Constant Matrix: (Units=GPa)
#
#
# Indices 1 2 3 4 5 6 
#
# 1 28.1067 1.3081 40.2518 0.0000 0.0000 0.0000
# 2 1.3081 28.1067 40.2518 0.0000 0.0000 0.0000
# 3 40.2518 40.2518 177.8399 0.0000 0.0000 0.0000
# 4 0.0000 0.0000 0.0000 44.6311 0.0000 0.0000
# 5 0.0000 0.0000 0.0000 0.0000 44.6311 0.0000
# 6 0.0000 0.0000 0.0000 0.0000 0.0000 17.5902
#
#
#
# Elastic Compliance Matrix: (Units=1/GPa)
#
#
# Indices 1 2 3 4 5 6 
#
# 1 0.063325 0.026010 -0.020220 0.000000 0.000000 0.000000
# 2 0.026010 0.063325 -0.020220 0.000000 0.000000 0.000000
# 3 -0.020220 -0.020220 0.014776 0.000000 0.000000 0.000000
# 4 0.000000 0.000000 0.000000 0.022406 0.000000 0.000000
# 5 0.000000 0.000000 0.000000 0.000000 0.022406 0.000000
# 6 0.000000 0.000000 0.000000 0.000000 0.000000 0.056850
#
#
# Mechanical properties :
#
#
# Convention : Reuss Voigt Hill
#
# Bulk Modulus (GPa) = 8.88367 44.18633 26.53500
# Shear Modulus (GPa) = 16.15668 31.51990 23.83829
#
# Velocity S-wave (km/s) = 2.71398 3.79073 3.29662
# Velocity P-wave (km/s) = 3.72437 6.26927 5.15629
#
# Compressibility (1/GPa) = 0.11256615
#
# Stress axis : x y z
#
# Youngs Moduli (GPa) = 15.79156 15.79156 67.67731
#
# Poissons Ratio (x) = -0.41073 1.36842
# Poissons Ratio (y) = -0.41073 1.36842
# Poissons Ratio (z) = 0.31930 0.31930
#
# Static dielectric constant tensor:
#      x y z
#    x 1.817070 0.000000 0.000000 
#    y 0.000000 1.817070 0.000000 
#    z 0.000000 0.000000 1.810670 
# 
# From -- ./inp_files/6838.got.cif
#   From: 2010.05.17/outbox.cif.g08.bks.cpg/sg142_4_cif.got.tgz:6838.got - 2010.05.20 13:39:18.
