data_PCOD9573935
_publ_section_title
;
Structure prediction by ZEFSAII (Michael W. Deem and Ramdas Pophale) SiO2 
 PCOD9573935
Probable space group: I 41/A C D
;
_chemical_formula_sum "Si O2"
_cell_formula_units_Z 216
_cell_length_a 28.258424
_cell_length_b 28.258424
_cell_length_c 12.816323
_cell_angle_alpha 90.000000
_cell_angle_beta 90.000000
_cell_angle_gamma 90.000000
_cell_volume 10234.327690
_symmetry_space_group_name_H-M "I 41/A C D"
_symmetry_group_IT_number 142
_space_group.IT_coordinate_system_code '2'
_symmetry_cell_setting 'tetragonal'
loop_
_space_group_symop_operation_xyz
x,y,z
1/4-y,3/4+x,1/4+z
-x,1/2-y,z
1/4+y,1/4-x,3/4+z
x,-y,1/2-z
1/2-x,y,-z
3/4+y,1/4+x,1/4-z
1/4-y,1/4-x,1/4-z
-x,-y,-z
3/4+y,1/4-x,3/4-z
x,1/2+y,-z
3/4-y,3/4+x,1/4-z
-x,y,1/2+z
1/2+x,-y,z
1/4-y,3/4-x,3/4+z
3/4+y,3/4+x,3/4+z
1/2+x,1/2+y,1/2+z
3/4-y,1/4+x,3/4+z
1/2-x,-y,1/2+z
3/4+y,3/4-x,1/4+z
1/2+x,1/2-y,-z
-x,1/2+y,1/2-z
1/4+y,3/4+x,3/4-z
3/4-y,3/4-x,3/4-z
1/2-x,1/2-y,1/2-z
1/4+y,3/4-x,1/4-z
1/2+x,y,1/2-z
1/4-y,1/4+x,3/4-z
1/2-x,1/2+y,z
x,1/2-y,1/2+z
3/4-y,1/4-x,1/4+z
1/4+y,1/4+x,1/4+z
loop_
_atom_site_type_symbol
_atom_site_label
_atom_site_fract_x
_atom_site_fract_y
_atom_site_fract_z
Si Si1 0.581664 0.219346 0.782843
Si Si2 0.288108 0.038108 0.375000
Si Si3 0.500000 0.250000 0.125000
Si Si4 0.367579 0.157687 0.128418
Si Si5 0.535386 0.968747 0.352191
Si Si6 0.272933 0.317460 0.202627
Si Si7 0.337012 0.551488 0.844416
Si Si8 0.874746 0.318040 0.206309
O O1 0.551596 0.198405 0.875000
O O2 0.544812 0.236064 0.695192
O O3 0.616657 0.179387 0.738237
O O4 0.609793 0.265380 0.820386
O O5 0.321337 0.049851 0.276566
O O6 0.233019 0.048653 0.350771
O O7 0.334301 0.197664 0.077945
O O8 0.341646 0.106749 0.127548
O O9 0.415348 0.148457 0.064329
O O10 0.480462 0.974662 0.384419
O O11 0.545454 0.000000 0.250000
O O12 0.563255 0.982005 0.460110
O O13 0.277212 0.363078 0.128065
O O14 0.319353 0.319224 0.275084
O O15 0.894058 0.355943 0.125000
#
# Coordination Sequence:
#
# PCOD9573935 Si02
#       8
#    32  16   8  32  32  32  32  32
#     4  12  25  40  63  97 136 188 235 285 345 408
#     4  10  22  44  72 106 128 173 232 298 380 435
#     4  12  22  44  60  94 140 180 250 288 332 414
#     4  11  24  44  65  99 138 176 235 288 351 431
#     4  11  23  43  68 100 136 191 233 297 368 444
#     4  10  23  43  66 102 143 177 241 299 363 443
#     4  10  23  44  72 101 140 177 228 305 366 444
#     4  11  22  42  65  92 134 185 231 290 348 413
#
# _framework density 21.105440000000002
#
# number of rings (size 3 to 8) (size 9 to 14) (size 15 to 20)
#    0.000    1.185    2.963    2.889    3.111    0.000 
#    8.000    0.000   16.296    0.000    0.000    0.000 
#    0.000    0.000    0.000    0.000    0.000    0.000 
#
# Total GULP energy -602798.576758 kJ/mol
# GULP energy per Si atom -5581.468303 kJ/mol
# Density = 2.105740 g / cm^3
# Si number density = 21.105440 Si / 1000 Ang^3
#
#
#
# Elastic Constant Matrix: (Units=GPa)
#
#
# Indices 1 2 3 4 5 6 
#
# 1 67.5257 41.3698 18.7432 0.0000 0.0000 0.0000
# 2 41.3698 67.5297 18.7381 0.0000 0.0000 0.0000
# 3 18.7432 18.7381 61.0147 0.0000 0.0000 0.0000
# 4 0.0000 0.0000 0.0000 25.3886 0.0000 0.0000
# 5 0.0000 0.0000 0.0000 0.0000 25.3776 0.0000
# 6 0.0000 0.0000 0.0000 0.0000 0.0000 32.8101
#
#
#
# Elastic Compliance Matrix: (Units=1/GPa)
#
#
# Indices 1 2 3 4 5 6 
#
# 1 0.024250 -0.013980 -0.003156 0.000000 0.000000 0.000000
# 2 -0.013980 0.024248 -0.003152 0.000000 0.000000 0.000000
# 3 -0.003156 -0.003152 0.018327 0.000000 0.000000 0.000000
# 4 0.000000 0.000000 0.000000 0.039388 0.000000 0.000000
# 5 0.000000 0.000000 0.000000 0.000000 0.039405 0.000000
# 6 0.000000 0.000000 0.000000 0.000000 0.000000 0.030478
#
#
# Mechanical properties :
#
#
# Convention : Reuss Voigt Hill
#
# Bulk Modulus (GPa) = 38.09799 39.30805 38.70302
# Shear Modulus (GPa) = 22.18063 24.52986 23.35525
#
# Velocity S-wave (km/s) = 3.24534 3.41288 3.33017
# Velocity P-wave (km/s) = 5.66864 5.84768 5.75886
#
# Compressibility (1/GPa) = 0.02624810
#
# Stress axis : x y z
#
# Youngs Moduli (GPa) = 41.23660 41.24135 54.56432
#
# Poissons Ratio (x) = 0.57657 0.17221
# Poissons Ratio (y) = 0.57650 0.17198
# Poissons Ratio (z) = 0.13014 0.12999
#
# Static dielectric constant tensor:
#      x y z
#    x 1.752340 0.000000 0.000000 
#    y 0.000000 1.752310 0.000000 
#    z 0.000000 0.000000 1.769840 
# 
# From -- ./inp_files/4236.got.cif
#   From: 2010.05.17/outbox.cif.g08.bks.cpg/sg142_3_cif.got.tgz:4236.got - 2010.05.20 13:39:18.
