data_PCOD9573946
_publ_section_title
;
Structure prediction by ZEFSAII (Michael W. Deem and Ramdas Pophale) SiO2 
 PCOD9573946
Probable space group: I 41/A C D
;
_chemical_formula_sum "Si O2"
_cell_formula_units_Z 112
_cell_length_a 15.181601
_cell_length_b 15.181601
_cell_length_c 20.346275
_cell_angle_alpha 90.000000
_cell_angle_beta 90.000000
_cell_angle_gamma 90.000000
_cell_volume 4689.429990
_symmetry_space_group_name_H-M "I 41/A C D"
_symmetry_group_IT_number 142
_space_group.IT_coordinate_system_code '2'
_symmetry_cell_setting 'tetragonal'
loop_
_space_group_symop_operation_xyz
x,y,z
1/4-y,3/4+x,1/4+z
-x,1/2-y,z
1/4+y,1/4-x,3/4+z
x,-y,1/2-z
1/2-x,y,-z
3/4+y,1/4+x,1/4-z
1/4-y,1/4-x,1/4-z
-x,-y,-z
3/4+y,1/4-x,3/4-z
x,1/2+y,-z
3/4-y,3/4+x,1/4-z
-x,y,1/2+z
1/2+x,-y,z
1/4-y,3/4-x,3/4+z
3/4+y,3/4+x,3/4+z
1/2+x,1/2+y,1/2+z
3/4-y,1/4+x,3/4+z
1/2-x,-y,1/2+z
3/4+y,3/4-x,1/4+z
1/2+x,1/2-y,-z
-x,1/2+y,1/2-z
1/4+y,3/4+x,3/4-z
3/4-y,3/4-x,3/4-z
1/2-x,1/2-y,1/2-z
1/4+y,3/4-x,1/4-z
1/2+x,y,1/2-z
1/4-y,1/4+x,3/4-z
1/2-x,1/2+y,z
x,1/2-y,1/2+z
3/4-y,1/4-x,1/4+z
1/4+y,1/4+x,1/4+z
loop_
_atom_site_type_symbol
_atom_site_label
_atom_site_fract_x
_atom_site_fract_y
_atom_site_fract_z
Si Si1 0.749395 0.500000 0.750000
Si Si2 0.589843 0.442840 0.422309
Si Si3 0.633571 0.150263 0.302080
Si Si4 0.068090 0.859262 0.594139
O O1 0.807812 0.421816 0.721589
O O2 0.685443 0.557330 0.702510
O O3 0.612449 0.362449 0.375000
O O4 0.598930 0.541488 0.392764
O O5 0.491956 0.436751 0.449707
O O6 0.594365 0.155636 0.375000
O O7 0.584496 0.155606 0.231142
O O8 0.106064 0.786585 0.643387
#
# Coordination Sequence:
#
# PCOD9573946 Si02
#       4
#    16  32  32  32
#     4  10  22  46  76 108 150 206 254 318 378 460
#     4  11  26  42  75 111 151 198 262 310 377 470
#     4  11  26  47  76 112 153 199 258 322 382 457
#     4  10  24  46  73 106 150 202 256 314 380 460
#
# _framework density 23.883499
#
# number of rings (size 3 to 8) (size 9 to 14) (size 15 to 20)
#    0.000    1.429    0.000    4.286   16.000    5.143 
#    0.000    0.000    0.000    0.000    0.000    0.000 
#    0.000    0.000    0.000    0.000    0.000    0.000 
#
# Total GULP energy -312064.197120 kJ/mol
# GULP energy per Si atom -5572.574949 kJ/mol
# Density = 2.382914 g / cm^3
# Si number density = 23.883499 Si / 1000 Ang^3
#
#
#
# Elastic Constant Matrix: (Units=GPa)
#
#
# Indices 1 2 3 4 5 6 
#
# 1 89.4203 38.3190 34.0661 0.0000 0.0000 0.0000
# 2 38.3190 89.4178 34.0645 0.0000 0.0000 0.0000
# 3 34.0661 34.0645 133.3009 0.0000 0.0000 0.0000
# 4 0.0000 0.0000 0.0000 30.7485 0.0000 0.0000
# 5 0.0000 0.0000 0.0000 0.0000 30.7479 0.0000
# 6 0.0000 0.0000 0.0000 0.0000 0.0000 26.1996
#
#
#
# Elastic Compliance Matrix: (Units=1/GPa)
#
#
# Indices 1 2 3 4 5 6 
#
# 1 0.014317 -0.005253 -0.002316 0.000000 0.000000 0.000000
# 2 -0.005253 0.014317 -0.002316 0.000000 0.000000 0.000000
# 3 -0.002316 -0.002316 0.008686 0.000000 0.000000 0.000000
# 4 0.000000 0.000000 0.000000 0.032522 0.000000 0.000000
# 5 0.000000 0.000000 0.000000 0.000000 0.032523 0.000000
# 6 0.000000 0.000000 0.000000 0.000000 0.000000 0.038169
#
#
# Mechanical properties :
#
#
# Convention : Reuss Voigt Hill
#
# Bulk Modulus (GPa) = 56.98538 58.33758 57.66148
# Shear Modulus (GPa) = 30.09288 31.25184 30.67236
#
# Velocity S-wave (km/s) = 3.55348 3.62126 3.58753
# Velocity P-wave (km/s) = 6.38340 6.47793 6.43084
#
# Compressibility (1/GPa) = 0.01754836
#
# Stress axis : x y z
#
# Youngs Moduli (GPa) = 69.84926 69.84773 115.13181
#
# Poissons Ratio (x) = 0.36689 0.26669
# Poissons Ratio (y) = 0.36690 0.26667
# Poissons Ratio (z) = 0.16180 0.16178
#
# Static dielectric constant tensor:
#      x y z
#    x 1.916570 0.000000 0.000000 
#    y 0.000000 1.916570 0.000000 
#    z 0.000000 0.000000 2.047860 
# 
# From -- ./inp_files/6866.got.cif
#   From: 2010.05.17/outbox.cif.g08.bks.cpg/sg142_4_cif.got.tgz:6866.got - 2010.05.20 13:39:18.
