data_PCOD9573602
_publ_section_title
;
Structure prediction by ZEFSAII (Michael W. Deem and Ramdas Pophale) SiO2 
 PCOD9573602
Probable space group: I 41/A C D
;
_chemical_formula_sum "Si O2"
_cell_formula_units_Z 160
_cell_length_a 29.161319
_cell_length_b 29.161319
_cell_length_c 8.353644
_cell_angle_alpha 90.000000
_cell_angle_beta 90.000000
_cell_angle_gamma 90.000000
_cell_volume 7103.792885
_symmetry_space_group_name_H-M "I 41/A C D"
_symmetry_group_IT_number 142
_space_group.IT_coordinate_system_code '2'
_symmetry_cell_setting 'tetragonal'
loop_
_space_group_symop_operation_xyz
x,y,z
1/4-y,3/4+x,1/4+z
-x,1/2-y,z
1/4+y,1/4-x,3/4+z
x,-y,1/2-z
1/2-x,y,-z
3/4+y,1/4+x,1/4-z
1/4-y,1/4-x,1/4-z
-x,-y,-z
3/4+y,1/4-x,3/4-z
x,1/2+y,-z
3/4-y,3/4+x,1/4-z
-x,y,1/2+z
1/2+x,-y,z
1/4-y,3/4-x,3/4+z
3/4+y,3/4+x,3/4+z
1/2+x,1/2+y,1/2+z
3/4-y,1/4+x,3/4+z
1/2-x,-y,1/2+z
3/4+y,3/4-x,1/4+z
1/2+x,1/2-y,-z
-x,1/2+y,1/2-z
1/4+y,3/4+x,3/4-z
3/4-y,3/4-x,3/4-z
1/2-x,1/2-y,1/2-z
1/4+y,3/4-x,1/4-z
1/2+x,y,1/2-z
1/4-y,1/4+x,3/4-z
1/2-x,1/2+y,z
x,1/2-y,1/2+z
3/4-y,1/4-x,1/4+z
1/4+y,1/4+x,1/4+z
loop_
_atom_site_type_symbol
_atom_site_label
_atom_site_fract_x
_atom_site_fract_y
_atom_site_fract_z
Si Si1 0.416417 0.593657 0.060977
Si Si2 0.750000 0.267516 0.500000
Si Si3 0.322798 0.572798 0.625000
Si Si4 0.181033 0.698087 0.138906
Si Si5 0.424380 0.913034 0.210732
Si Si6 0.862077 0.498499 0.419814
O O1 0.379888 0.629888 0.125000
O O2 0.451628 0.589800 0.209045
O O3 0.389998 0.544670 0.043944
O O4 0.437770 0.605038 0.886749
O O5 0.720817 0.236514 0.622908
O O6 0.712087 0.301788 0.434095
O O7 0.329881 0.619712 0.522822
O O8 0.273095 0.579218 0.699998
O O9 0.144507 0.690715 0.285222
O O10 0.208728 0.650114 0.141927
O O11 0.836944 0.500000 0.250000
#
# Coordination Sequence:
#
# PCOD9573602 Si02
#       6
#    32  16  16  32  32  32
#     4  11  21  36  58  84 108 158 202 242 307 353
#     4  12  22  36  58  90 116 156 198 248 318 364
#     4  10  20  36  50  82 106 148 203 242 302 346
#     4  10  21  36  51  82 120 142 191 250 289 363
#     4  11  22  32  55  78 112 150 190 240 295 360
#     4   9  17  34  54  74 109 148 188 247 283 342
#
# _framework density 22.523178999999999
#
# number of rings (size 3 to 8) (size 9 to 14) (size 15 to 20)
#    0.000    1.600    3.000    6.600    2.800    0.000 
#    0.000    0.000    0.000    0.000   96.200    0.000 
#    0.000    0.000    0.000    0.900    9.200    2.000 
#
# Total GULP energy -445357.556692 kJ/mol
# GULP energy per Si atom -5566.969459 kJ/mol
# Density = 2.247192 g / cm^3
# Si number density = 22.523179 Si / 1000 Ang^3
#
#
#
# Elastic Constant Matrix: (Units=GPa)
#
#
# Indices 1 2 3 4 5 6 
#
# 1 36.6830 13.2930 10.5687 0.0000 0.0000 0.0000
# 2 13.2930 36.6830 10.5687 0.0000 0.0000 0.0000
# 3 10.5687 10.5687 185.4742 0.0000 0.0000 0.0000
# 4 0.0000 0.0000 0.0000 23.9662 0.0000 0.0000
# 5 0.0000 0.0000 0.0000 0.0000 23.9662 0.0000
# 6 0.0000 0.0000 0.0000 0.0000 0.0000 22.4569
#
#
#
# Elastic Compliance Matrix: (Units=1/GPa)
#
#
# Indices 1 2 3 4 5 6 
#
# 1 0.031629 -0.011125 -0.001168 0.000000 0.000000 0.000000
# 2 -0.011125 0.031629 -0.001168 0.000000 0.000000 0.000000
# 3 -0.001168 -0.001168 0.005525 0.000000 0.000000 0.000000
# 4 0.000000 0.000000 0.000000 0.041725 0.000000 0.000000
# 5 0.000000 0.000000 0.000000 0.000000 0.041725 0.000000
# 6 0.000000 0.000000 0.000000 0.000000 0.000000 0.044530
#
#
# Mechanical properties :
#
#
# Convention : Reuss Voigt Hill
#
# Bulk Modulus (GPa) = 23.88980 36.41121 30.15051
# Shear Modulus (GPa) = 21.04038 29.03850 25.03944
#
# Velocity S-wave (km/s) = 3.05973 3.59454 3.33786
# Velocity P-wave (km/s) = 4.80753 5.78177 5.31701
#
# Compressibility (1/GPa) = 0.04185887
#
# Stress axis : x y z
#
# Youngs Moduli (GPa) = 31.61703 31.61703 181.00413
#
# Poissons Ratio (x) = 0.35173 0.21148
# Poissons Ratio (y) = 0.35173 0.21148
# Poissons Ratio (z) = 0.03694 0.03694
#
# Static dielectric constant tensor:
#      x y z
#    x 1.848370 0.000000 0.000000 
#    y 0.000000 1.848370 0.000000 
#    z 0.000000 0.000000 2.316980 
# 
# From -- ./inp_files/2247.got.cif
#   From: 2010.05.17/outbox.cif.g08.bks.cpg/sg142_2_cif.got.tgz:2247.got - 2010.05.20 13:39:18.
