data_PCOD9573420
_publ_section_title
;
Structure prediction by ZEFSAII (Michael W. Deem and Ramdas Pophale) SiO2 
 PCOD9573420
Probable space group: I 41/A C D
;
_chemical_formula_sum "Si O2"
_cell_formula_units_Z 184
_cell_length_a 22.803678
_cell_length_b 22.803678
_cell_length_c 17.153103
_cell_angle_alpha 90.000000
_cell_angle_beta 90.000000
_cell_angle_gamma 90.000000
_cell_volume 8919.746159
_symmetry_space_group_name_H-M "I 41/A C D"
_symmetry_group_IT_number 142
_space_group.IT_coordinate_system_code '2'
_symmetry_cell_setting 'tetragonal'
loop_
_space_group_symop_operation_xyz
x,y,z
1/4-y,3/4+x,1/4+z
-x,1/2-y,z
1/4+y,1/4-x,3/4+z
x,-y,1/2-z
1/2-x,y,-z
3/4+y,1/4+x,1/4-z
1/4-y,1/4-x,1/4-z
-x,-y,-z
3/4+y,1/4-x,3/4-z
x,1/2+y,-z
3/4-y,3/4+x,1/4-z
-x,y,1/2+z
1/2+x,-y,z
1/4-y,3/4-x,3/4+z
3/4+y,3/4+x,3/4+z
1/2+x,1/2+y,1/2+z
3/4-y,1/4+x,3/4+z
1/2-x,-y,1/2+z
3/4+y,3/4-x,1/4+z
1/2+x,1/2-y,-z
-x,1/2+y,1/2-z
1/4+y,3/4+x,3/4-z
3/4-y,3/4-x,3/4-z
1/2-x,1/2-y,1/2-z
1/4+y,3/4-x,1/4-z
1/2+x,y,1/2-z
1/4-y,1/4+x,3/4-z
1/2-x,1/2+y,z
x,1/2-y,1/2+z
3/4-y,1/4-x,1/4+z
1/4+y,1/4+x,1/4+z
loop_
_atom_site_type_symbol
_atom_site_label
_atom_site_fract_x
_atom_site_fract_y
_atom_site_fract_z
Si Si1 0.660389 0.160350 0.989652
Si Si2 0.763679 0.513679 0.375000
Si Si3 0.500000 0.750000 0.875000
Si Si4 0.539296 0.946953 0.575312
Si Si5 0.978529 0.535450 0.177382
Si Si6 0.614987 0.214370 0.689320
Si Si7 0.662875 0.977646 0.509710
O O1 0.663548 0.183783 0.901020
O O2 0.696489 0.206666 0.040837
O O3 0.596040 0.159913 0.026354
O O4 0.679234 0.092151 0.992408
O O5 0.756260 0.571507 0.323011
O O6 0.706744 0.508367 0.430175
O O7 0.560325 0.744298 0.828286
O O8 0.513075 0.905208 0.509614
O O9 0.595983 0.978777 0.537579
O O10 0.490840 0.989829 0.608918
O O11 0.949704 0.500000 0.250000
O O12 0.953302 0.593690 0.136367
#
# Coordination Sequence:
#
# PCOD9573420 Si02
#       7
#    32  16   8  32  32  32  32
#     4  10  19  35  61  88 112 151 206 251 304 361
#     4  10  18  24  48  78 112 139 178 235 302 336
#     4  12  24  40  62  88 132 168 206 248 324 388
#     4  10  20  36  62  89 109 155 210 256 299 356
#     4  10  21  36  64  89 117 155 207 257 304 372
#     4  11  21  39  60  90 123 158 202 257 315 371
#     4  10  17  29  46  79 111 140 186 244 290 347
#
# _framework density 20.62839
#
# number of rings (size 3 to 8) (size 9 to 14) (size 15 to 20)
#    0.000    1.739    3.478    3.130    4.870    0.000 
#    0.000    1.739   22.957    0.000    0.000    0.000 
#    0.000    0.000    0.000    0.000    0.000    0.000 
#
# Total GULP energy -513297.289853 kJ/mol
# GULP energy per Si atom -5579.318368 kJ/mol
# Density = 2.058144 g / cm^3
# Si number density = 20.628390 Si / 1000 Ang^3
#
#
#
# Elastic Constant Matrix: (Units=GPa)
#
#
# Indices 1 2 3 4 5 6 
#
# 1 43.4672 7.5261 34.8748 0.0000 0.0000 0.0000
# 2 7.5261 43.4672 34.8748 0.0000 0.0000 0.0000
# 3 34.8748 34.8748 122.7423 0.0000 0.0000 0.0000
# 4 0.0000 0.0000 0.0000 32.4450 0.0000 0.0000
# 5 0.0000 0.0000 0.0000 0.0000 32.4450 0.0000
# 6 0.0000 0.0000 0.0000 0.0000 0.0000 10.1112
#
#
#
# Elastic Compliance Matrix: (Units=1/GPa)
#
#
# Indices 1 2 3 4 5 6 
#
# 1 0.029950 0.002127 -0.009114 0.000000 0.000000 0.000000
# 2 0.002127 0.029950 -0.009114 0.000000 0.000000 0.000000
# 3 -0.009114 -0.009114 0.013326 0.000000 0.000000 0.000000
# 4 0.000000 0.000000 0.000000 0.030821 0.000000 0.000000
# 5 0.000000 0.000000 0.000000 0.000000 0.030821 0.000000
# 6 0.000000 0.000000 0.000000 0.000000 0.000000 0.098901
#
#
# Mechanical properties :
#
#
# Convention : Reuss Voigt Hill
#
# Bulk Modulus (GPa) = 24.37613 40.46977 32.42295
# Shear Modulus (GPa) = 17.87972 23.82696 20.85334
#
# Velocity S-wave (km/s) = 2.94726 3.40230 3.18292
# Velocity P-wave (km/s) = 4.83986 5.92413 5.40923
#
# Compressibility (1/GPa) = 0.04102373
#
# Stress axis : x y z
#
# Youngs Moduli (GPa) = 33.38908 33.38908 75.03997
#
# Poissons Ratio (x) = -0.07101 0.68391
# Poissons Ratio (y) = -0.07101 0.68391
# Poissons Ratio (z) = 0.30431 0.30431
#
# Static dielectric constant tensor:
#      x y z
#    x 1.778790 0.000000 0.000000 
#    y 0.000000 1.778790 0.000000 
#    z 0.000000 0.000000 1.790840 
# 
# From -- ./inp_files/7657.got.cif
#   From: 2010.05.17/outbox.cif.g08.bks.cpg/sg142_4_cif.got.tgz:7657.got - 2010.05.20 13:39:18.
