data_PCOD9573594
_publ_section_title
;
Structure prediction by ZEFSAII (Michael W. Deem and Ramdas Pophale) SiO2 
 PCOD9573594
Probable space group: I 41/A C D
;
_chemical_formula_sum "Si O2"
_cell_formula_units_Z 160
_cell_length_a 22.450840
_cell_length_b 22.450840
_cell_length_c 13.430910
_cell_angle_alpha 90.000000
_cell_angle_beta 90.000000
_cell_angle_gamma 90.000000
_cell_volume 6769.718787
_symmetry_space_group_name_H-M "I 41/A C D"
_symmetry_group_IT_number 142
_space_group.IT_coordinate_system_code '2'
_symmetry_cell_setting 'tetragonal'
loop_
_space_group_symop_operation_xyz
x,y,z
1/4-y,3/4+x,1/4+z
-x,1/2-y,z
1/4+y,1/4-x,3/4+z
x,-y,1/2-z
1/2-x,y,-z
3/4+y,1/4+x,1/4-z
1/4-y,1/4-x,1/4-z
-x,-y,-z
3/4+y,1/4-x,3/4-z
x,1/2+y,-z
3/4-y,3/4+x,1/4-z
-x,y,1/2+z
1/2+x,-y,z
1/4-y,3/4-x,3/4+z
3/4+y,3/4+x,3/4+z
1/2+x,1/2+y,1/2+z
3/4-y,1/4+x,3/4+z
1/2-x,-y,1/2+z
3/4+y,3/4-x,1/4+z
1/2+x,1/2-y,-z
-x,1/2+y,1/2-z
1/4+y,3/4+x,3/4-z
3/4-y,3/4-x,3/4-z
1/2-x,1/2-y,1/2-z
1/4+y,3/4-x,1/4-z
1/2+x,y,1/2-z
1/4-y,1/4+x,3/4-z
1/2-x,1/2+y,z
x,1/2-y,1/2+z
3/4-y,1/4-x,1/4+z
1/4+y,1/4+x,1/4+z
loop_
_atom_site_type_symbol
_atom_site_label
_atom_site_fract_x
_atom_site_fract_y
_atom_site_fract_z
Si Si1 0.027503 0.589958 0.063487
Si Si2 0.264589 0.926729 0.884300
Si Si3 0.645149 0.879515 0.014671
Si Si4 0.319650 0.256409 0.980227
Si Si5 0.203803 0.823059 0.789791
O O1 0.073329 0.627961 0.999552
O O2 0.050163 0.522541 0.039500
O O3 0.035663 0.604360 0.178694
O O4 0.956285 0.582125 0.050202
O O5 0.327764 0.916094 0.827544
O O6 0.216692 0.891015 0.814053
O O7 0.244955 0.994955 0.875000
O O8 0.250000 0.907305 0.000000
O O9 0.656313 0.906313 0.125000
O O10 0.672356 0.814041 0.020963
O O11 0.330908 0.290542 0.879005
O O12 0.250000 0.267150 0.000000
#
# Coordination Sequence:
#
# PCOD9573594 Si02
#       5
#    32  32  32  32  32
#     4   9  18  33  58  86 114 147 201 262 308 351
#     4  11  26  41  57  86 133 174 204 245 321 403
#     4  11  22  39  64  95 122 159 215 269 311 369
#     4  10  20  34  61  90 120 159 206 258 312 371
#     4   9  17  36  57  81 113 153 206 254 294 356
#
# _framework density 23.634658999999999
#
# number of rings (size 3 to 8) (size 9 to 14) (size 15 to 20)
#    0.000    2.000    2.000    3.000    5.600    1.600 
#    0.000    0.000    0.000    0.600    0.000    2.800 
#    0.000    0.000    0.000    0.000    0.000    0.000 
#
# Total GULP energy -445346.091632 kJ/mol
# GULP energy per Si atom -5566.826145 kJ/mol
# Density = 2.358087 g / cm^3
# Si number density = 23.634659 Si / 1000 Ang^3
#
#
#
# Elastic Constant Matrix: (Units=GPa)
#
#
# Indices 1 2 3 4 5 6 
#
# 1 51.5638 22.7263 -0.7760 0.0000 0.0000 0.0000
# 2 22.7263 51.5638 -0.7760 0.0000 0.0000 0.0000
# 3 -0.7760 -0.7760 85.3906 0.0000 0.0000 0.0000
# 4 0.0000 0.0000 0.0000 18.7605 0.0000 0.0000
# 5 0.0000 0.0000 0.0000 0.0000 18.7605 0.0000
# 6 0.0000 0.0000 0.0000 0.0000 0.0000 16.6802
#
#
#
# Elastic Compliance Matrix: (Units=1/GPa)
#
#
# Indices 1 2 3 4 5 6 
#
# 1 0.024070 -0.010607 0.000122 0.000000 0.000000 0.000000
# 2 -0.010607 0.024070 0.000122 0.000000 0.000000 0.000000
# 3 0.000122 0.000122 0.011713 0.000000 0.000000 0.000000
# 4 0.000000 0.000000 0.000000 0.053303 0.000000 0.000000
# 5 0.000000 0.000000 0.000000 0.000000 0.053303 0.000000
# 6 0.000000 0.000000 0.000000 0.000000 0.000000 0.059951
#
#
# Mechanical properties :
#
#
# Convention : Reuss Voigt Hill
#
# Bulk Modulus (GPa) = 25.55641 25.65185 25.60413
# Shear Modulus (GPa) = 19.21752 21.99650 20.60701
#
# Velocity S-wave (km/s) = 2.85460 3.05403 2.95600
# Velocity P-wave (km/s) = 4.65849 4.82837 4.74419
#
# Compressibility (1/GPa) = 0.03912913
#
# Stress axis : x y z
#
# Youngs Moduli (GPa) = 41.54513 41.54513 85.37436
#
# Poissons Ratio (x) = 0.44067 -0.01045
# Poissons Ratio (y) = 0.44067 -0.01045
# Poissons Ratio (z) = -0.00508 -0.00508
#
# Static dielectric constant tensor:
#      x y z
#    x 1.944890 0.000000 0.000000 
#    y 0.000000 1.944890 0.000000 
#    z 0.000000 0.000000 2.104520 
# 
# From -- ./inp_files/5433.got.cif
#   From: 2010.05.17/outbox.cif.g08.bks.cpg/sg142_3_cif.got.tgz:5433.got - 2010.05.20 13:39:18.
