data_PCOD9573698
_publ_section_title
;
Structure prediction by ZEFSAII (Michael W. Deem and Ramdas Pophale) SiO2 
 PCOD9573698
Probable space group: I 41/A C D
;
_chemical_formula_sum "Si O2"
_cell_formula_units_Z 136
_cell_length_a 20.798385
_cell_length_b 20.798385
_cell_length_c 14.641879
_cell_angle_alpha 90.000000
_cell_angle_beta 90.000000
_cell_angle_gamma 90.000000
_cell_volume 6333.678869
_symmetry_space_group_name_H-M "I 41/A C D"
_symmetry_group_IT_number 142
_space_group.IT_coordinate_system_code '2'
_symmetry_cell_setting 'tetragonal'
loop_
_space_group_symop_operation_xyz
x,y,z
1/4-y,3/4+x,1/4+z
-x,1/2-y,z
1/4+y,1/4-x,3/4+z
x,-y,1/2-z
1/2-x,y,-z
3/4+y,1/4+x,1/4-z
1/4-y,1/4-x,1/4-z
-x,-y,-z
3/4+y,1/4-x,3/4-z
x,1/2+y,-z
3/4-y,3/4+x,1/4-z
-x,y,1/2+z
1/2+x,-y,z
1/4-y,3/4-x,3/4+z
3/4+y,3/4+x,3/4+z
1/2+x,1/2+y,1/2+z
3/4-y,1/4+x,3/4+z
1/2-x,-y,1/2+z
3/4+y,3/4-x,1/4+z
1/2+x,1/2-y,-z
-x,1/2+y,1/2-z
1/4+y,3/4+x,3/4-z
3/4-y,3/4-x,3/4-z
1/2-x,1/2-y,1/2-z
1/4+y,3/4-x,1/4-z
1/2+x,y,1/2-z
1/4-y,1/4+x,3/4-z
1/2-x,1/2+y,z
x,1/2-y,1/2+z
3/4-y,1/4-x,1/4+z
1/4+y,1/4+x,1/4+z
loop_
_atom_site_type_symbol
_atom_site_label
_atom_site_fract_x
_atom_site_fract_y
_atom_site_fract_z
Si Si1 0.971545 0.426436 0.320710
Si Si2 0.688808 0.835488 0.119416
Si Si3 0.854388 0.895613 0.375000
Si Si4 0.500000 0.250000 0.375000
Si Si5 0.593433 0.000000 0.750000
Si Si6 0.873507 0.766700 0.260985
O O1 0.948003 0.406284 0.220338
O O2 0.924206 0.485277 0.351038
O O3 0.974099 0.376721 0.402720
O O4 0.042977 0.455178 0.305335
O O5 0.655233 0.905233 0.125000
O O6 0.673324 0.790929 0.206635
O O7 0.791867 0.887465 0.435241
O O8 0.854169 0.833385 0.309325
O O9 0.500208 0.309974 0.442078
#
# Coordination Sequence:
#
# PCOD9573698 Si02
#       6
#    32  32  16   8  16  32
#     4  10  22  41  67  94 126 189 214 248 360 404
#     4  10  20  40  63  98 130 161 228 271 307 410
#     4  11  22  41  64  91 130 170 224 275 328 405
#     4  10  24  40  62 106 138 152 216 284 328 392
#     4  10  22  42  68  92 124 170 230 264 326 416
#     4  11  21  41  65  94 134 172 207 274 336 400
#
# _framework density 21.472511000000001
#
# number of rings (size 3 to 8) (size 9 to 14) (size 15 to 20)
#    0.000    1.882    5.882    0.706    0.000    1.882 
#    0.000    1.176    2.588    1.412    3.059    0.000 
#    0.000    0.000    0.000    0.000    0.000    0.000 
#
# Total GULP energy -379819.548591 kJ/mol
# GULP energy per Si atom -5585.581597 kJ/mol
# Density = 2.142364 g / cm^3
# Si number density = 21.472511 Si / 1000 Ang^3
#
#
#
# Elastic Constant Matrix: (Units=GPa)
#
#
# Indices 1 2 3 4 5 6 
#
# 1 35.5627 60.9511 25.7968 0.0000 0.0000 0.0000
# 2 60.9511 35.5647 25.7962 0.0000 0.0000 0.0000
# 3 25.7968 25.7962 117.2220 0.0000 0.0000 0.0000
# 4 0.0000 0.0000 0.0000 14.7492 0.0000 0.0000
# 5 0.0000 0.0000 0.0000 0.0000 14.7487 0.0000
# 6 0.0000 0.0000 0.0000 0.0000 0.0000 25.8091
#
#
#
# Elastic Compliance Matrix: (Units=1/GPa)
#
#
# Indices 1 2 3 4 5 6 
#
# 1 -0.013824 0.025566 -0.002584 0.000000 0.000000 0.000000
# 2 0.025566 -0.013823 -0.002584 0.000000 0.000000 0.000000
# 3 -0.002584 -0.002584 0.009668 0.000000 0.000000 0.000000
# 4 0.000000 0.000000 0.000000 0.067800 0.000000 0.000000
# 5 0.000000 0.000000 0.000000 0.000000 0.067803 0.000000
# 6 0.000000 0.000000 0.000000 0.000000 0.000000 0.038746
#
#
# Mechanical properties :
#
#
# Convention : Reuss Voigt Hill
#
# Bulk Modulus (GPa) = 43.82762 45.93751 44.88256
# Shear Modulus (GPa) = 40.59096 16.11507 28.35302
#
# Velocity S-wave (km/s) = 4.35255 2.74249 3.63772
# Velocity P-wave (km/s) = 6.76129 5.60967 6.21222
#
# Compressibility (1/GPa) = 0.02281666
#
# Stress axis : x y z
#
# Youngs Moduli (GPa) = -72.33758 -72.34306 103.43216
#
# Poissons Ratio (x) = 1.84952 0.26726
# Poissons Ratio (y) = 1.84938 0.26730
# Poissons Ratio (z) = -0.18691 -0.18696
#
# Static dielectric constant tensor:
#      x y z
#    x 1.798500 0.000000 0.000000 
#    y 0.000000 1.798500 0.000000 
#    z 0.000000 0.000000 1.779920 
# 
# From -- ./inp_files/5341.got.cif
#   From: 2010.05.17/outbox.cif.g08.bks.cpg/sg142_3_cif.got.tgz:5341.got - 2010.05.20 13:39:18.
