data_PCOD9573346
_publ_section_title
;
Structure prediction by ZEFSAII (Michael W. Deem and Ramdas Pophale) SiO2 
 PCOD9573346
Probable space group: I 41/A M D
;
_chemical_formula_sum "Si O2"
_cell_formula_units_Z 128
_cell_length_a 19.639674
_cell_length_b 19.639674
_cell_length_c 14.178039
_cell_angle_alpha 90.000000
_cell_angle_beta 90.000000
_cell_angle_gamma 90.000000
_cell_volume 5468.707760
_symmetry_space_group_name_H-M "I 41/A M D"
_symmetry_group_IT_number 141
_space_group.IT_coordinate_system_code '2'
_symmetry_cell_setting 'tetragonal'
loop_
_space_group_symop_operation_xyz
x,y,z
1/4-y,3/4+x,1/4+z
-x,1/2-y,z
1/4+y,1/4-x,3/4+z
x,-y,-z
-x,1/2+y,-z
1/4+y,3/4+x,1/4-z
1/4-y,1/4-x,3/4-z
-x,-y,-z
3/4+y,1/4-x,3/4-z
x,1/2+y,-z
3/4-y,3/4+x,1/4-z
-x,y,z
x,1/2-y,z
3/4-y,1/4-x,3/4+z
3/4+y,3/4+x,1/4+z
1/2+x,1/2+y,1/2+z
3/4-y,1/4+x,3/4+z
1/2-x,-y,1/2+z
3/4+y,3/4-x,1/4+z
1/2+x,1/2-y,1/2-z
1/2-x,y,1/2-z
3/4+y,1/4+x,3/4-z
3/4-y,3/4-x,1/4-z
1/2-x,1/2-y,1/2-z
1/4+y,3/4-x,1/4-z
1/2+x,y,1/2-z
1/4-y,1/4+x,3/4-z
1/2-x,1/2+y,1/2+z
1/2+x,-y,1/2+z
1/4-y,3/4-x,1/4+z
1/4+y,1/4+x,3/4+z
loop_
_atom_site_type_symbol
_atom_site_label
_atom_site_fract_x
_atom_site_fract_y
_atom_site_fract_z
Si Si1 0.581201 0.750000 0.220237
Si Si2 0.274960 0.612728 0.446268
Si Si3 0.863962 0.876807 0.869132
Si Si4 0.802401 0.750000 0.161083
Si Si5 0.422106 0.926578 0.942335
O O1 0.500000 0.750000 0.216920
O O2 0.615670 0.683672 0.174402
O O3 0.616609 0.750000 0.321603
O O4 0.308589 0.558589 0.375000
O O5 0.195145 0.604067 0.440823
O O6 0.306525 0.617468 0.549958
O O7 0.287733 0.684139 0.398014
O O8 0.866911 0.821646 0.787453
O O9 0.750000 0.750000 0.250000
O O10 0.366531 0.883470 0.875000
O O11 0.500000 0.934256 0.899752
O O12 0.405370 0.000000 0.000000
#
# Coordination Sequence:
#
# PCOD9573346 Si02
#       5
#    16  32  32  16  32
#     4  12  26  46  70 109 147 199 267 316 380 476
#     4  12  24  42  72 106 154 204 254 323 406 488
#     4  12  26  46  73 109 152 203 258 324 397 474
#     4  12  22  46  66 105 157 204 255 326 400 464
#     4  11  27  52  80 115 156 207 271 338 411 487
#
# _framework density 23.405895000000001
#
# number of rings (size 3 to 8) (size 9 to 14) (size 15 to 20)
#    0.000    0.250    5.000    3.000    5.250    3.250 
#    2.250    0.000    0.000    0.000    0.000    0.000 
#    0.000    0.000    0.000    0.000    0.000    0.000 
#
# Total GULP energy -356309.937580 kJ/mol
# GULP energy per Si atom -5567.342775 kJ/mol
# Density = 2.335262 g / cm^3
# Si number density = 23.405895 Si / 1000 Ang^3
#
#
#
# Elastic Constant Matrix: (Units=GPa)
#
#
# Indices 1 2 3 4 5 6 
#
# 1 166.3391 40.3975 55.8550 0.0000 0.0000 0.0000
# 2 40.3975 166.3390 55.8556 0.0000 0.0000 0.0000
# 3 55.8550 55.8556 150.4405 0.0000 0.0000 0.0000
# 4 0.0000 0.0000 0.0000 -277.3788 0.0000 0.0000
# 5 0.0000 0.0000 0.0000 0.0000 -277.5172 0.0000
# 6 0.0000 0.0000 0.0000 0.0000 0.0000 26.5234
#
#
#
# Elastic Compliance Matrix: (Units=1/GPa)
#
#
# Indices 1 2 3 4 5 6 
#
# 1 0.006996 -0.000945 -0.002247 0.000000 0.000000 0.000000
# 2 -0.000945 0.006996 -0.002247 0.000000 0.000000 0.000000
# 3 -0.002247 -0.002247 0.008315 0.000000 0.000000 0.000000
# 4 0.000000 0.000000 0.000000 -0.003605 0.000000 0.000000
# 5 0.000000 0.000000 0.000000 0.000000 -0.003603 0.000000
# 6 0.000000 0.000000 0.000000 0.000000 0.000000 0.037703
#
#
# Mechanical properties :
#
#
# Convention : Reuss Voigt Hill
#
# Bulk Modulus (GPa) = 87.48147 87.48162 87.48154
# Shear Modulus (GPa) = 74.08887 -83.60715 -4.75914
#
# Velocity S-wave (km/s) = 5.63229 -5.98315 -1.42749
# Velocity P-wave (km/s) = 8.93050 3.20527 5.89407
#
# Compressibility (1/GPa) = 0.01143099
#
# Stress axis : x y z
#
# Youngs Moduli (GPa) = 142.94695 142.94638 120.25902
#
# Poissons Ratio (x) = 0.13502 0.27017
# Poissons Ratio (y) = 0.13502 0.27018
# Poissons Ratio (z) = 0.32114 0.32115
#
# Static dielectric constant tensor:
#      x y z
#    x 1.640790 0.000000 0.000000 
#    y 0.000000 1.640740 0.000000 
#    z 0.000000 0.000000 1.995250 
# 
# From -- ./inp_files/6246.got.cif
#   From: 2010.05.17/outbox.cif.g08.bks.cpg/sg141_4_cif.got.tgz:6246.got - 2010.05.20 13:30:51.
