data_PCOD9573704
_publ_section_title
;
Structure prediction by ZEFSAII (Michael W. Deem and Ramdas Pophale) SiO2 
 PCOD9573704
Probable space group: I 41/A C D
;
_chemical_formula_sum "Si O2"
_cell_formula_units_Z 160
_cell_length_a 28.998042
_cell_length_b 28.998042
_cell_length_c 9.802482
_cell_angle_alpha 90.000000
_cell_angle_beta 90.000000
_cell_angle_gamma 90.000000
_cell_volume 8242.774191
_symmetry_space_group_name_H-M "I 41/A C D"
_symmetry_group_IT_number 142
_space_group.IT_coordinate_system_code '2'
_symmetry_cell_setting 'tetragonal'
loop_
_space_group_symop_operation_xyz
x,y,z
1/4-y,3/4+x,1/4+z
-x,1/2-y,z
1/4+y,1/4-x,3/4+z
x,-y,1/2-z
1/2-x,y,-z
3/4+y,1/4+x,1/4-z
1/4-y,1/4-x,1/4-z
-x,-y,-z
3/4+y,1/4-x,3/4-z
x,1/2+y,-z
3/4-y,3/4+x,1/4-z
-x,y,1/2+z
1/2+x,-y,z
1/4-y,3/4-x,3/4+z
3/4+y,3/4+x,3/4+z
1/2+x,1/2+y,1/2+z
3/4-y,1/4+x,3/4+z
1/2-x,-y,1/2+z
3/4+y,3/4-x,1/4+z
1/2+x,1/2-y,-z
-x,1/2+y,1/2-z
1/4+y,3/4+x,3/4-z
3/4-y,3/4-x,3/4-z
1/2-x,1/2-y,1/2-z
1/4+y,3/4-x,1/4-z
1/2+x,y,1/2-z
1/4-y,1/4+x,3/4-z
1/2-x,1/2+y,z
x,1/2-y,1/2+z
3/4-y,1/4-x,1/4+z
1/4+y,1/4+x,1/4+z
loop_
_atom_site_type_symbol
_atom_site_label
_atom_site_fract_x
_atom_site_fract_y
_atom_site_fract_z
Si Si1 0.954402 0.933454 0.686007
Si Si2 0.675391 0.425391 0.875000
Si Si3 0.257742 0.870285 0.271830
Si Si4 0.383600 0.630294 0.906833
Si Si5 0.652364 0.402364 0.375000
Si Si6 0.455246 0.064628 0.007306
O O1 0.913938 0.965686 0.625059
O O2 0.933075 0.882224 0.667074
O O3 0.963370 0.941418 0.845686
O O4 0.999441 0.941475 0.595935
O O5 0.727603 0.410137 0.845082
O O6 0.646913 0.404339 0.748469
O O7 0.295386 0.892288 0.171696
O O8 0.221413 0.835162 0.202313
O O9 0.378465 0.612283 0.753561
O O10 0.432268 0.614545 0.966717
#
# Coordination Sequence:
#
# PCOD9573704 Si02
#       6
#    32  16  32  32  16  32
#     4  11  22  39  65  95 122 161 204 261 312 380
#     4  10  20  40  68  75 120 179 208 250 316 374
#     4  10  22  41  63  91 126 167 217 260 315 361
#     4  10  21  42  60  88 126 168 195 249 328 376
#     4  10  24  36  64  85 124 163 214 272 298 354
#     4  11  23  38  66  93 123 160 209 256 316 377
#
# _framework density 19.410941000000001
#
# number of rings (size 3 to 8) (size 9 to 14) (size 15 to 20)
#    0.000    1.600    4.000    1.200    8.400    3.200 
#    0.000    0.000    8.800   12.600    0.000    2.800 
#    0.000    0.000    0.000    0.000    0.000    0.000 
#
# Total GULP energy -446467.238795 kJ/mol
# GULP energy per Si atom -5580.840485 kJ/mol
# Density = 1.936676 g / cm^3
# Si number density = 19.410941 Si / 1000 Ang^3
#
#
#
# Elastic Constant Matrix: (Units=GPa)
#
#
# Indices 1 2 3 4 5 6 
#
# 1 71.7080 87.3825 48.4555 0.0000 0.0000 0.0000
# 2 87.3825 71.7080 48.4555 0.0000 0.0000 0.0000
# 3 48.4555 48.4555 143.9670 0.0000 0.0000 0.0000
# 4 0.0000 0.0000 0.0000 32.3574 0.0000 0.0000
# 5 0.0000 0.0000 0.0000 0.0000 32.3574 0.0000
# 6 0.0000 0.0000 0.0000 0.0000 0.0000 24.5281
#
#
#
# Elastic Compliance Matrix: (Units=1/GPa)
#
#
# Indices 1 2 3 4 5 6 
#
# 1 -0.027946 0.035852 -0.002661 0.000000 0.000000 0.000000
# 2 0.035852 -0.027946 -0.002661 0.000000 0.000000 0.000000
# 3 -0.002661 -0.002661 0.008737 0.000000 0.000000 0.000000
# 4 0.000000 0.000000 0.000000 0.030905 0.000000 0.000000
# 5 0.000000 0.000000 0.000000 0.000000 0.030905 0.000000
# 6 0.000000 0.000000 0.000000 0.000000 0.000000 0.040770
#
#
# Mechanical properties :
#
#
# Convention : Reuss Voigt Hill
#
# Bulk Modulus (GPa) = 71.91047 72.88556 72.39801
# Shear Modulus (GPa) = -5004.29299 24.72121 -2489.78589
#
# Velocity S-wave (km/s) = -50.82987 3.57258 -35.85326
# Velocity P-wave (km/s) = 58.37614 7.39243 40.94585
#
# Compressibility (1/GPa) = 0.01390618
#
# Stress axis : x y z
#
# Youngs Moduli (GPa) = -35.78378 -35.78378 114.45001
#
# Poissons Ratio (x) = 1.28294 0.30458
# Poissons Ratio (y) = 1.28294 0.30458
# Poissons Ratio (z) = -0.09523 -0.09523
#
# Static dielectric constant tensor:
#      x y z
#    x 1.735140 0.000000 0.000000 
#    y 0.000000 1.735140 0.000000 
#    z 0.000000 0.000000 1.745880 
# 
# From -- ./inp_files/2254.got.cif
#   From: 2010.05.17/outbox.cif.g08.bks.cpg/sg142_2_cif.got.tgz:2254.got - 2010.05.20 13:39:18.
