data_PCOD9573749
_publ_section_title
;
Structure prediction by ZEFSAII (Michael W. Deem and Ramdas Pophale) SiO2 
 PCOD9573749
Probable space group: I 41/A C D
;
_chemical_formula_sum "Si O2"
_cell_formula_units_Z 216
_cell_length_a 25.861551
_cell_length_b 25.861551
_cell_length_c 16.546564
_cell_angle_alpha 90.000000
_cell_angle_beta 90.000000
_cell_angle_gamma 90.000000
_cell_volume 11066.669958
_symmetry_space_group_name_H-M "I 41/A C D"
_symmetry_group_IT_number 142
_space_group.IT_coordinate_system_code '2'
_symmetry_cell_setting 'tetragonal'
loop_
_space_group_symop_operation_xyz
x,y,z
1/4-y,3/4+x,1/4+z
-x,1/2-y,z
1/4+y,1/4-x,3/4+z
x,-y,1/2-z
1/2-x,y,-z
3/4+y,1/4+x,1/4-z
1/4-y,1/4-x,1/4-z
-x,-y,-z
3/4+y,1/4-x,3/4-z
x,1/2+y,-z
3/4-y,3/4+x,1/4-z
-x,y,1/2+z
1/2+x,-y,z
1/4-y,3/4-x,3/4+z
3/4+y,3/4+x,3/4+z
1/2+x,1/2+y,1/2+z
3/4-y,1/4+x,3/4+z
1/2-x,-y,1/2+z
3/4+y,3/4-x,1/4+z
1/2+x,1/2-y,-z
-x,1/2+y,1/2-z
1/4+y,3/4+x,3/4-z
3/4-y,3/4-x,3/4-z
1/2-x,1/2-y,1/2-z
1/4+y,3/4-x,1/4-z
1/2+x,y,1/2-z
1/4-y,1/4+x,3/4-z
1/2-x,1/2+y,z
x,1/2-y,1/2+z
3/4-y,1/4-x,1/4+z
1/4+y,1/4+x,1/4+z
loop_
_atom_site_type_symbol
_atom_site_label
_atom_site_fract_x
_atom_site_fract_y
_atom_site_fract_z
Si Si1 0.300950 0.526638 0.834314
Si Si2 0.853899 0.674741 0.238709
Si Si3 0.255186 0.619121 0.256423
Si Si4 0.822332 0.286670 0.737502
Si Si5 0.060288 0.310288 0.625000
Si Si6 0.883059 0.790951 0.415106
Si Si7 0.000000 0.750000 0.125000
Si Si8 0.912120 0.328497 0.427695
O O1 0.317795 0.500000 0.750000
O O2 0.252331 0.497670 0.875000
O O3 0.278282 0.581425 0.801879
O O4 0.343661 0.516610 0.904586
O O5 0.813133 0.632999 0.270908
O O6 0.823097 0.728910 0.226930
O O7 0.899150 0.682247 0.303196
O O8 0.882697 0.661493 0.155301
O O9 0.223793 0.672745 0.259321
O O10 0.836014 0.277824 0.642920
O O11 0.869991 0.314135 0.783924
O O12 0.073999 0.253974 0.591376
O O13 0.908528 0.841473 0.375000
O O14 0.872970 0.803559 0.507533
O O15 0.959966 0.711612 0.080480
#
# Coordination Sequence:
#
# PCOD9573749 Si02
#       8
#    32  32  32  32  16  32   8  32
#     4   9  21  40  65  91 107 138 195 258 320 365
#     4  11  23  37  58  86 122 167 200 248 302 368
#     4  11  22  40  65  85 119 153 198 260 311 377
#     4  10  22  38  55  89 124 161 202 243 309 361
#     4  10  21  36  52  84 120 158 204 238 292 346
#     4   9  20  33  56  84 123 159 199 240 291 348
#     4  12  20  32  58  84 128 160 214 256 260 362
#     4  11  21  35  59  90 121 166 210 246 295 357
#
# _framework density 19.518068
#
# number of rings (size 3 to 8) (size 9 to 14) (size 15 to 20)
#    0.000    1.778    1.481    2.444    5.185    6.519 
#    0.000    0.000    0.000    0.000    0.000    0.000 
#    0.000    0.000    0.000    0.000    0.000    0.000 
#
# Total GULP energy -601391.083371 kJ/mol
# GULP energy per Si atom -5568.435957 kJ/mol
# Density = 1.947364 g / cm^3
# Si number density = 19.518068 Si / 1000 Ang^3
#
#
#
# Elastic Constant Matrix: (Units=GPa)
#
#
# Indices 1 2 3 4 5 6 
#
# 1 42.8290 15.5968 13.2864 0.0000 0.0000 0.0000
# 2 15.5968 42.8261 13.2861 0.0000 0.0000 0.0000
# 3 13.2864 13.2861 83.9666 0.0000 0.0000 0.0000
# 4 0.0000 0.0000 0.0000 7.7062 0.0000 0.0000
# 5 0.0000 0.0000 0.0000 0.0000 7.7064 0.0000
# 6 0.0000 0.0000 0.0000 0.0000 0.0000 29.8766
#
#
#
# Elastic Compliance Matrix: (Units=1/GPa)
#
#
# Indices 1 2 3 4 5 6 
#
# 1 0.027582 -0.009140 -0.002918 0.000000 0.000000 0.000000
# 2 -0.009140 0.027584 -0.002918 0.000000 0.000000 0.000000
# 3 -0.002918 -0.002918 0.012833 0.000000 0.000000 0.000000
# 4 0.000000 0.000000 0.000000 0.129766 0.000000 0.000000
# 5 0.000000 0.000000 0.000000 0.000000 0.129761 0.000000
# 6 0.000000 0.000000 0.000000 0.000000 0.000000 0.033471
#
#
# Mechanical properties :
#
#
# Convention : Reuss Voigt Hill
#
# Bulk Modulus (GPa) = 26.28356 28.21779 27.25068
# Shear Modulus (GPa) = 12.38749 17.55469 14.97109
#
# Velocity S-wave (km/s) = 2.52199 3.00227 2.77255
# Velocity P-wave (km/s) = 4.68787 5.14847 4.92356
#
# Compressibility (1/GPa) = 0.03804660
#
# Stress axis : x y z
#
# Youngs Moduli (GPa) = 36.25503 36.25257 77.92382
#
# Poissons Ratio (x) = 0.33134 0.22740
# Poissons Ratio (y) = 0.33137 0.22742
# Poissons Ratio (z) = 0.10580 0.10580
#
# Static dielectric constant tensor:
#      x y z
#    x 1.706600 0.000000 0.000000 
#    y 0.000000 1.706600 0.000000 
#    z 0.000000 0.000000 1.537040 
# 
# From -- ./inp_files/5796.got.cif
#   From: 2010.05.17/outbox.cif.g08.bks.cpg/sg142_3_cif.got.tgz:5796.got - 2010.05.20 13:39:18.
