data_PCOD9573354
_publ_section_title
;
Structure prediction by ZEFSAII (Michael W. Deem and Ramdas Pophale) SiO2 
 PCOD9573354
Probable space group: I 41/A M D
;
_chemical_formula_sum "Si O2"
_cell_formula_units_Z 96
_cell_length_a 31.628361
_cell_length_b 31.628361
_cell_length_c 5.066969
_cell_angle_alpha 90.000000
_cell_angle_beta 90.000000
_cell_angle_gamma 90.000000
_cell_volume 5068.758752
_symmetry_space_group_name_H-M "I 41/A M D"
_symmetry_group_IT_number 141
_space_group.IT_coordinate_system_code '2'
_symmetry_cell_setting 'tetragonal'
loop_
_space_group_symop_operation_xyz
x,y,z
1/4-y,3/4+x,1/4+z
-x,1/2-y,z
1/4+y,1/4-x,3/4+z
x,-y,-z
-x,1/2+y,-z
1/4+y,3/4+x,1/4-z
1/4-y,1/4-x,3/4-z
-x,-y,-z
3/4+y,1/4-x,3/4-z
x,1/2+y,-z
3/4-y,3/4+x,1/4-z
-x,y,z
x,1/2-y,z
3/4-y,1/4-x,3/4+z
3/4+y,3/4+x,1/4+z
1/2+x,1/2+y,1/2+z
3/4-y,1/4+x,3/4+z
1/2-x,-y,1/2+z
3/4+y,3/4-x,1/4+z
1/2+x,1/2-y,1/2-z
1/2-x,y,1/2-z
3/4+y,1/4+x,3/4-z
3/4-y,3/4-x,1/4-z
1/2-x,1/2-y,1/2-z
1/4+y,3/4-x,1/4-z
1/2+x,y,1/2-z
1/4-y,1/4+x,3/4-z
1/2-x,1/2+y,1/2+z
1/2+x,-y,1/2+z
1/4-y,3/4-x,1/4+z
1/4+y,1/4+x,3/4+z
loop_
_atom_site_type_symbol
_atom_site_label
_atom_site_fract_x
_atom_site_fract_y
_atom_site_fract_z
Si Si1 0.090525 0.840525 0.625000
Si Si2 0.816331 0.250000 0.934904
Si Si3 0.867824 0.382177 0.875000
Si Si4 0.500000 0.876504 0.825360
Si Si5 0.221660 0.342557 0.985643
O O1 0.118372 0.853893 0.373547
O O2 0.100229 0.791327 0.651228
O O3 0.833369 0.250000 0.232672
O O4 0.854604 0.250000 0.721363
O O5 0.791416 0.205871 0.914348
O O6 0.821038 0.370345 0.976760
O O7 0.250000 0.359389 0.750000
O O8 0.250000 0.343044 0.250000
#
# Coordination Sequence:
#
# PCOD9573354 Si02
#       5
#    16  16  16  16  32
#     4  12  22  41  62  90 129 180 224 257 312 375
#     4  12  22  41  62  99 131 164 209 275 326 379
#     4  12  24  44  66  89 133 170 208 267 328 395
#     4  12  22  38  64  90 129 178 225 260 308 376
#     4  12  24  41  66  98 129 167 211 263 328 393
#
# _framework density 18.939549
#
# number of rings (size 3 to 8) (size 9 to 14) (size 15 to 20)
#    0.000    0.000    6.667    5.000    0.000    0.333 
#    0.000    0.000    0.000    6.000    0.000    0.000 
#    0.000    0.000    0.000    0.000    0.000    0.000 
#
# Total GULP energy -268060.262521 kJ/mol
# GULP energy per Si atom -5584.588803 kJ/mol
# Density = 1.889644 g / cm^3
# Si number density = 18.939549 Si / 1000 Ang^3
#
#
#
# Elastic Constant Matrix: (Units=GPa)
#
#
# Indices 1 2 3 4 5 6 
#
# 1 154.3250 -3.2333 5.2889 0.0000 0.0000 0.0000
# 2 -3.2333 154.3400 5.2893 0.0000 0.0000 0.0000
# 3 5.2889 5.2893 72.5247 0.0000 0.0000 0.0000
# 4 0.0000 0.0000 0.0000 35.0393 0.0000 0.0000
# 5 0.0000 0.0000 0.0000 0.0000 35.0371 0.0000
# 6 0.0000 0.0000 0.0000 0.0000 0.0000 33.6091
#
#
#
# Elastic Compliance Matrix: (Units=1/GPa)
#
#
# Indices 1 2 3 4 5 6 
#
# 1 0.006500 0.000153 -0.000485 0.000000 0.000000 0.000000
# 2 0.000153 0.006499 -0.000485 0.000000 0.000000 0.000000
# 3 -0.000485 -0.000485 0.013859 0.000000 0.000000 0.000000
# 4 0.000000 0.000000 0.000000 0.028539 0.000000 0.000000
# 5 0.000000 0.000000 0.000000 0.000000 0.028541 0.000000
# 6 0.000000 0.000000 0.000000 0.000000 0.000000 0.029754
#
#
# Mechanical properties :
#
#
# Convention : Reuss Voigt Hill
#
# Bulk Modulus (GPa) = 39.64649 43.98661 41.81655
# Shear Modulus (GPa) = 40.40899 45.66008 43.03454
#
# Velocity S-wave (km/s) = 4.62408 4.91535 4.77194
# Velocity P-wave (km/s) = 7.03478 7.44912 7.24491
#
# Compressibility (1/GPa) = 0.02522291
#
# Stress axis : x y z
#
# Youngs Moduli (GPa) = 153.85426 153.86917 72.15443
#
# Poissons Ratio (x) = -0.02351 0.03500
# Poissons Ratio (y) = -0.02351 0.03500
# Poissons Ratio (z) = 0.07464 0.07465
#
# Static dielectric constant tensor:
#      x y z
#    x 2.113160 0.000000 0.000000 
#    y 0.000000 2.113260 0.000000 
#    z 0.000000 0.000000 1.656780 
# 
# From -- ./inp_files/1223.got.cif
#   From: 2010.05.17/outbox.cif.g08.bks.cpg/sg141_1_cif.got.tgz:1223.got - 2010.05.20 13:30:51.
