data_PCOD9573436
_publ_section_title
;
Structure prediction by ZEFSAII (Michael W. Deem and Ramdas Pophale) SiO2 
 PCOD9573436
Probable space group: I 41/A C D
;
_chemical_formula_sum "Si O2"
_cell_formula_units_Z 160
_cell_length_a 23.102199
_cell_length_b 23.102199
_cell_length_c 11.648815
_cell_angle_alpha 90.000000
_cell_angle_beta 90.000000
_cell_angle_gamma 90.000000
_cell_volume 6217.107676
_symmetry_space_group_name_H-M "I 41/A C D"
_symmetry_group_IT_number 142
_space_group.IT_coordinate_system_code '2'
_symmetry_cell_setting 'tetragonal'
loop_
_space_group_symop_operation_xyz
x,y,z
1/4-y,3/4+x,1/4+z
-x,1/2-y,z
1/4+y,1/4-x,3/4+z
x,-y,1/2-z
1/2-x,y,-z
3/4+y,1/4+x,1/4-z
1/4-y,1/4-x,1/4-z
-x,-y,-z
3/4+y,1/4-x,3/4-z
x,1/2+y,-z
3/4-y,3/4+x,1/4-z
-x,y,1/2+z
1/2+x,-y,z
1/4-y,3/4-x,3/4+z
3/4+y,3/4+x,3/4+z
1/2+x,1/2+y,1/2+z
3/4-y,1/4+x,3/4+z
1/2-x,-y,1/2+z
3/4+y,3/4-x,1/4+z
1/2+x,1/2-y,-z
-x,1/2+y,1/2-z
1/4+y,3/4+x,3/4-z
3/4-y,3/4-x,3/4-z
1/2-x,1/2-y,1/2-z
1/4+y,3/4-x,1/4-z
1/2+x,y,1/2-z
1/4-y,1/4+x,3/4-z
1/2-x,1/2+y,z
x,1/2-y,1/2+z
3/4-y,1/4-x,1/4+z
1/4+y,1/4+x,1/4+z
loop_
_atom_site_type_symbol
_atom_site_label
_atom_site_fract_x
_atom_site_fract_y
_atom_site_fract_z
Si Si1 0.325901 0.575901 0.625000
Si Si2 0.512364 0.845911 0.881176
Si Si3 0.933430 0.094703 0.573215
Si Si4 0.314308 0.178911 0.468773
Si Si5 0.402936 0.500000 0.250000
Si Si6 0.191288 0.915395 0.148074
O O1 0.324950 0.651432 0.652555
O O2 0.318802 0.506381 0.576993
O O3 0.562438 0.797026 0.889827
O O4 0.531869 0.888149 0.778002
O O5 0.513125 0.881780 0.999782
O O6 0.899251 0.149251 0.625000
O O7 0.890591 0.071690 0.475040
O O8 0.937857 0.043828 0.666950
O O9 0.250000 0.198587 0.500000
O O10 0.313044 0.110035 0.518223
O O11 0.358258 0.539214 0.322889
#
# Coordination Sequence:
#
# PCOD9573436 Si02
#       6
#    16  32  32  32  16  32
#     4  10  18  28  52  89 126 176 226 273 346 434
#     4  10  22  45  72  95 127 181 248 309 359 435
#     4   9  19  36  58  94 136 170 230 292 358 422
#     4   9  19  36  59  87 129 170 218 283 357 434
#     4  10  18  28  56  94 138 180 218 296 352 438
#     4   9  18  27  52  86 131 176 225 271 343 436
#
# _framework density 25.735440000000001
#
# number of rings (size 3 to 8) (size 9 to 14) (size 15 to 20)
#    0.000    2.600    0.000    1.200    8.400    0.000 
#    3.600    1.000   28.600   21.600    0.000    0.000 
#    0.000    0.000    0.000    0.000    0.000    0.000 
#
# Total GULP energy -446186.447138 kJ/mol
# GULP energy per Si atom -5577.330589 kJ/mol
# Density = 2.567686 g / cm^3
# Si number density = 25.735440 Si / 1000 Ang^3
#
#
#
# Elastic Constant Matrix: (Units=GPa)
#
#
# Indices 1 2 3 4 5 6 
#
# 1 137.0369 77.8536 46.1348 0.0000 0.0000 0.0000
# 2 77.8536 137.0369 46.1348 0.0000 0.0000 0.0000
# 3 46.1348 46.1348 111.3242 0.0000 0.0000 0.0000
# 4 0.0000 0.0000 0.0000 31.4151 0.0000 0.0000
# 5 0.0000 0.0000 0.0000 0.0000 31.4151 0.0000
# 6 0.0000 0.0000 0.0000 0.0000 0.0000 31.8281
#
#
#
# Elastic Compliance Matrix: (Units=1/GPa)
#
#
# Indices 1 2 3 4 5 6 
#
# 1 0.011279 -0.005618 -0.002346 0.000000 0.000000 0.000000
# 2 -0.005618 0.011279 -0.002346 0.000000 0.000000 0.000000
# 3 -0.002346 -0.002346 0.010927 0.000000 0.000000 0.000000
# 4 0.000000 0.000000 0.000000 0.031832 0.000000 0.000000
# 5 0.000000 0.000000 0.000000 0.000000 0.031832 0.000000
# 6 0.000000 0.000000 0.000000 0.000000 0.000000 0.031419
#
#
# Mechanical properties :
#
#
# Convention : Reuss Voigt Hill
#
# Bulk Modulus (GPa) = 77.73003 80.62716 79.17859
# Shear Modulus (GPa) = 32.57859 33.28333 32.93096
#
# Velocity S-wave (km/s) = 3.56181 3.60013 3.58102
# Velocity P-wave (km/s) = 6.86909 6.97700 6.92326
#
# Compressibility (1/GPa) = 0.01286504
#
# Stress axis : x y z
#
# Youngs Moduli (GPa) = 88.66236 88.66236 91.51487
#
# Poissons Ratio (x) = 0.49810 0.21469
# Poissons Ratio (y) = 0.49810 0.21469
# Poissons Ratio (z) = 0.20800 0.20800
#
# Static dielectric constant tensor:
#      x y z
#    x 2.040670 0.000000 0.000000 
#    y 0.000000 2.040670 0.000000 
#    z 0.000000 0.000000 2.220360 
# 
# From -- ./inp_files/5514.got.cif
#   From: 2010.05.17/outbox.cif.g08.bks.cpg/sg142_3_cif.got.tgz:5514.got - 2010.05.20 13:39:18.
