data_PCOD9573456
_publ_section_title
;
Structure prediction by ZEFSAII (Michael W. Deem and Ramdas Pophale) SiO2 
 PCOD9573456
Probable space group: I 41/A C D
;
_chemical_formula_sum "Si O2"
_cell_formula_units_Z 160
_cell_length_a 23.604972
_cell_length_b 23.604972
_cell_length_c 14.614434
_cell_angle_alpha 90.000000
_cell_angle_beta 90.000000
_cell_angle_gamma 90.000000
_cell_volume 8143.085214
_symmetry_space_group_name_H-M "I 41/A C D"
_symmetry_group_IT_number 142
_space_group.IT_coordinate_system_code '2'
_symmetry_cell_setting 'tetragonal'
loop_
_space_group_symop_operation_xyz
x,y,z
1/4-y,3/4+x,1/4+z
-x,1/2-y,z
1/4+y,1/4-x,3/4+z
x,-y,1/2-z
1/2-x,y,-z
3/4+y,1/4+x,1/4-z
1/4-y,1/4-x,1/4-z
-x,-y,-z
3/4+y,1/4-x,3/4-z
x,1/2+y,-z
3/4-y,3/4+x,1/4-z
-x,y,1/2+z
1/2+x,-y,z
1/4-y,3/4-x,3/4+z
3/4+y,3/4+x,3/4+z
1/2+x,1/2+y,1/2+z
3/4-y,1/4+x,3/4+z
1/2-x,-y,1/2+z
3/4+y,3/4-x,1/4+z
1/2+x,1/2-y,-z
-x,1/2+y,1/2-z
1/4+y,3/4+x,3/4-z
3/4-y,3/4-x,3/4-z
1/2-x,1/2-y,1/2-z
1/4+y,3/4-x,1/4-z
1/2+x,y,1/2-z
1/4-y,1/4+x,3/4-z
1/2-x,1/2+y,z
x,1/2-y,1/2+z
3/4-y,1/4-x,1/4+z
1/4+y,1/4+x,1/4+z
loop_
_atom_site_type_symbol
_atom_site_label
_atom_site_fract_x
_atom_site_fract_y
_atom_site_fract_z
Si Si1 0.940726 0.116557 0.676998
Si Si2 0.025007 0.978971 0.852181
Si Si3 0.647258 0.016848 0.354020
Si Si4 0.196545 0.819444 0.711681
Si Si5 0.043124 0.664625 0.625339
O O1 0.924156 0.174156 0.625000
O O2 0.897842 0.068493 0.638519
O O3 0.935966 0.132330 0.783221
O O4 0.999081 0.084007 0.660923
O O5 0.040514 0.000000 0.750000
O O6 0.067805 0.971668 0.936276
O O7 0.978316 0.022291 0.896955
O O8 0.708033 0.041968 0.375000
O O9 0.643166 0.000000 0.250000
O O10 0.628027 0.965401 0.416605
O O11 0.129946 0.806744 0.704834
O O12 0.073094 0.725735 0.617452
#
# Coordination Sequence:
#
# PCOD9573456 Si02
#       5
#    32  32  32  32  32
#     4  10  18  34  57  83 117 152 208 250 300 351
#     4  10  18  33  57  84 116 154 201 260 291 365
#     4  10  19  36  64  95 115 146 198 260 304 372
#     4  10  19  36  58  86 118 154 205 250 308 354
#     4  11  22  36  54  84 125 167 209 251 295 359
#
# _framework density 19.648571
#
# number of rings (size 3 to 8) (size 9 to 14) (size 15 to 20)
#    0.000    1.800    4.000    2.400    0.000    1.600 
#    0.000    7.000    0.000    3.600    0.000    0.000 
#    0.000    0.000    0.000    0.000    0.000    0.000 
#
# Total GULP energy -445389.781426 kJ/mol
# GULP energy per Si atom -5567.372268 kJ/mol
# Density = 1.960385 g / cm^3
# Si number density = 19.648571 Si / 1000 Ang^3
#
#
#
# Elastic Constant Matrix: (Units=GPa)
#
#
# Indices 1 2 3 4 5 6 
#
# 1 63.0274 34.1546 15.4866 0.0000 0.0000 0.0000
# 2 34.1546 63.0289 15.4861 0.0000 0.0000 0.0000
# 3 15.4866 15.4861 116.1755 0.0000 0.0000 0.0000
# 4 0.0000 0.0000 0.0000 16.0478 0.0000 0.0000
# 5 0.0000 0.0000 0.0000 0.0000 16.0509 0.0000
# 6 0.0000 0.0000 0.0000 0.0000 0.0000 0.1107
#
#
#
# Elastic Compliance Matrix: (Units=1/GPa)
#
#
# Indices 1 2 3 4 5 6 
#
# 1 0.022690 -0.011944 -0.001433 0.000000 0.000000 0.000000
# 2 -0.011944 0.022690 -0.001432 0.000000 0.000000 0.000000
# 3 -0.001433 -0.001432 0.008990 0.000000 0.000000 0.000000
# 4 0.000000 0.000000 0.000000 0.062314 0.000000 0.000000
# 5 0.000000 0.000000 0.000000 0.000000 0.062302 0.000000
# 6 0.000000 0.000000 0.000000 0.000000 0.000000 9.037224
#
#
# Mechanical properties :
#
#
# Convention : Reuss Voigt Hill
#
# Bulk Modulus (GPa) = 40.40013 41.38740 40.89376
# Shear Modulus (GPa) = 0.54030 18.24884 9.39457
#
# Velocity S-wave (km/s) = 0.52496 3.05087 2.18899
# Velocity P-wave (km/s) = 4.57968 5.78964 5.21983
#
# Compressibility (1/GPa) = 0.02475239
#
# Stress axis : x y z
#
# Youngs Moduli (GPa) = 44.07144 44.07258 111.23993
#
# Poissons Ratio (x) = 0.52639 0.15936
# Poissons Ratio (y) = 0.52638 0.15934
# Poissons Ratio (z) = 0.06314 0.06313
#
# Static dielectric constant tensor:
#      x y z
#    x 1.770940 0.000000 0.000000 
#    y 0.000000 1.770930 0.000000 
#    z 0.000000 0.000000 1.705840 
# 
# From -- ./inp_files/5384.got.cif
#   From: 2010.05.17/outbox.cif.g08.bks.cpg/sg142_3_cif.got.tgz:5384.got - 2010.05.20 13:39:18.
