data_PCOD9573239
_publ_section_title
;
Structure prediction by ZEFSAII (Michael W. Deem and Ramdas Pophale) SiO2 
 PCOD9573239
Probable space group: I 41/A M D
;
_chemical_formula_sum "Si O2"
_cell_formula_units_Z 96
_cell_length_a 18.479033
_cell_length_b 18.479033
_cell_length_c 11.230842
_cell_angle_alpha 90.000000
_cell_angle_beta 90.000000
_cell_angle_gamma 90.000000
_cell_volume 3835.047960
_symmetry_space_group_name_H-M "I 41/A M D"
_symmetry_group_IT_number 141
_space_group.IT_coordinate_system_code '2'
_symmetry_cell_setting 'tetragonal'
loop_
_space_group_symop_operation_xyz
x,y,z
1/4-y,3/4+x,1/4+z
-x,1/2-y,z
1/4+y,1/4-x,3/4+z
x,-y,-z
-x,1/2+y,-z
1/4+y,3/4+x,1/4-z
1/4-y,1/4-x,3/4-z
-x,-y,-z
3/4+y,1/4-x,3/4-z
x,1/2+y,-z
3/4-y,3/4+x,1/4-z
-x,y,z
x,1/2-y,z
3/4-y,1/4-x,3/4+z
3/4+y,3/4+x,1/4+z
1/2+x,1/2+y,1/2+z
3/4-y,1/4+x,3/4+z
1/2-x,-y,1/2+z
3/4+y,3/4-x,1/4+z
1/2+x,1/2-y,1/2-z
1/2-x,y,1/2-z
3/4+y,1/4+x,3/4-z
3/4-y,3/4-x,1/4-z
1/2-x,1/2-y,1/2-z
1/4+y,3/4-x,1/4-z
1/2+x,y,1/2-z
1/4-y,1/4+x,3/4-z
1/2-x,1/2+y,1/2+z
1/2+x,-y,1/2+z
1/4-y,3/4-x,1/4+z
1/4+y,1/4+x,3/4+z
loop_
_atom_site_type_symbol
_atom_site_label
_atom_site_fract_x
_atom_site_fract_y
_atom_site_fract_z
Si Si1 0.086847 0.455282 0.381627
Si Si2 0.080423 0.162508 0.742039
Si Si3 0.777460 0.836803 0.375955
O O1 0.104750 0.500000 0.500000
O O2 0.131232 0.381232 0.375000
O O3 0.108839 0.496038 0.257855
O O4 0.000000 0.443991 0.379040
O O5 0.107537 0.142464 0.875000
O O6 0.075530 0.250000 0.752352
O O7 0.136679 0.150402 0.637788
O O8 0.000000 0.133722 0.719207
O O9 0.763924 0.750000 0.370921
O O10 0.750000 0.867263 0.250000
#
# Coordination Sequence:
#
# PCOD9573239 Si02
#       3
#    32  32  32
#     4  10  23  44  68  97 137 180 224 282 349 416
#     4   8  14  25  44  76 116 153 196 254 314 375
#     4   9  18  33  54  82 119 164 209 255 315 385
#
# _framework density 25.032281000000001
#
# number of rings (size 3 to 8) (size 9 to 14) (size 15 to 20)
#    0.000    3.000    0.000    1.000    0.000    4.333 
#    0.000   11.667    0.000    0.000    0.000    0.000 
#    0.000    0.000    0.000    0.000    0.000    0.000 
#
# Total GULP energy -268166.568481 kJ/mol
# GULP energy per Si atom -5586.803510 kJ/mol
# Density = 2.497531 g / cm^3
# Si number density = 25.032281 Si / 1000 Ang^3
#
#
#
# Elastic Constant Matrix: (Units=GPa)
#
#
# Indices 1 2 3 4 5 6 
#
# 1 67.5756 28.6443 50.2071 0.0000 0.0000 0.0000
# 2 28.6443 67.5753 50.2069 0.0000 0.0000 0.0000
# 3 50.2071 50.2069 262.9539 0.0000 0.0000 0.0000
# 4 0.0000 0.0000 0.0000 28.2310 0.0000 0.0000
# 5 0.0000 0.0000 0.0000 0.0000 28.2310 0.0000
# 6 0.0000 0.0000 0.0000 0.0000 0.0000 23.1890
#
#
#
# Elastic Compliance Matrix: (Units=1/GPa)
#
#
# Indices 1 2 3 4 5 6 
#
# 1 0.019333 -0.006354 -0.002478 0.000000 0.000000 0.000000
# 2 -0.006354 0.019333 -0.002478 0.000000 0.000000 0.000000
# 3 -0.002478 -0.002478 0.004749 0.000000 0.000000 0.000000
# 4 0.000000 0.000000 0.000000 0.035422 0.000000 0.000000
# 5 0.000000 0.000000 0.000000 0.000000 0.035422 0.000000
# 6 0.000000 0.000000 0.000000 0.000000 0.000000 0.043124
#
#
# Mechanical properties :
#
#
# Convention : Reuss Voigt Hill
#
# Bulk Modulus (GPa) = 48.08896 72.91346 60.50121
# Shear Modulus (GPa) = 26.74737 33.86663 30.30700
#
# Velocity S-wave (km/s) = 3.27236 3.68219 3.48331
# Velocity P-wave (km/s) = 5.79053 6.87525 6.35607
#
# Compressibility (1/GPa) = 0.02079479
#
# Stress axis : x y z
#
# Youngs Moduli (GPa) = 51.72592 51.72570 210.55839
#
# Poissons Ratio (x) = 0.32865 0.52180
# Poissons Ratio (y) = 0.32865 0.52179
# Poissons Ratio (z) = 0.12818 0.12818
#
# Static dielectric constant tensor:
#      x y z
#    x 2.006860 0.000000 0.000000 
#    y 0.000000 2.006870 0.000000 
#    z 0.000000 0.000000 2.006720 
# 
# From -- ./inp_files/4215.got.cif
#   From: 2010.05.17/outbox.cif.g08.bks.cpg/sg141_3_cif.got.tgz:4215.got - 2010.05.20 13:30:51.
