data_PCOD9573343
_publ_section_title
;
Structure prediction by ZEFSAII (Michael W. Deem and Ramdas Pophale) SiO2 
 PCOD9573343
Probable space group: I 41/A M D
;
_chemical_formula_sum "Si O2"
_cell_formula_units_Z 40
_cell_length_a 10.195906
_cell_length_b 10.195906
_cell_length_c 14.208413
_cell_angle_alpha 90.000000
_cell_angle_beta 90.000000
_cell_angle_gamma 90.000000
_cell_volume 1477.056874
_symmetry_space_group_name_H-M "I 41/A M D"
_symmetry_group_IT_number 141
_space_group.IT_coordinate_system_code '2'
_symmetry_cell_setting 'tetragonal'
loop_
_space_group_symop_operation_xyz
x,y,z
1/4-y,3/4+x,1/4+z
-x,1/2-y,z
1/4+y,1/4-x,3/4+z
x,-y,-z
-x,1/2+y,-z
1/4+y,3/4+x,1/4-z
1/4-y,1/4-x,3/4-z
-x,-y,-z
3/4+y,1/4-x,3/4-z
x,1/2+y,-z
3/4-y,3/4+x,1/4-z
-x,y,z
x,1/2-y,z
3/4-y,1/4-x,3/4+z
3/4+y,3/4+x,1/4+z
1/2+x,1/2+y,1/2+z
3/4-y,1/4+x,3/4+z
1/2-x,-y,1/2+z
3/4+y,3/4-x,1/4+z
1/2+x,1/2-y,1/2-z
1/2-x,y,1/2-z
3/4+y,1/4+x,3/4-z
3/4-y,3/4-x,1/4-z
1/2-x,1/2-y,1/2-z
1/4+y,3/4-x,1/4-z
1/2+x,y,1/2-z
1/4-y,1/4+x,3/4-z
1/2-x,1/2+y,1/2+z
1/2+x,-y,1/2+z
1/4-y,3/4-x,1/4+z
1/4+y,1/4+x,3/4+z
loop_
_atom_site_type_symbol
_atom_site_label
_atom_site_fract_x
_atom_site_fract_y
_atom_site_fract_z
Si Si1 0.000000 0.465784 0.610247
Si Si2 0.000000 0.965785 0.889753
Si Si3 0.500000 0.750000 0.875000
Si Si4 0.500000 0.750000 0.375000
O O1 0.000000 0.500000 0.500000
O O2 0.127472 0.377472 0.625000
O O3 0.000000 0.602891 0.667798
O O4 0.000000 0.102891 0.832202
O O5 0.000000 0.000000 0.000000
#
# Coordination Sequence:
#
# PCOD9573343 Si02
#       4
#    16  16   4   4
#     4  11  26  47  74 111 158 212 269 330 410 494
#     4  11  26  47  74 111 158 212 269 330 410 494
#     4  12  24  40  74 108 152 204 272 334 388 464
#     4  12  24  40  74 108 152 204 272 334 388 464
#
# _framework density 27.080877999999998
#
# number of rings (size 3 to 8) (size 9 to 14) (size 15 to 20)
#    0.000    0.800    0.000    7.200    0.000   19.200 
#    0.000    0.000    0.000    0.000    0.000    0.000 
#    0.000    0.000    0.000    0.000    0.000    0.000 
#
# Total GULP energy -112031.260288 kJ/mol
# GULP energy per Si atom -5601.563014 kJ/mol
# Density = 2.701924 g / cm^3
# Si number density = 27.080878 Si / 1000 Ang^3
#
#
#
# Elastic Constant Matrix: (Units=GPa)
#
#
# Indices 1 2 3 4 5 6 
#
# 1 288.1951 125.0438 37.2311 0.0000 0.0000 0.0000
# 2 125.0438 288.1951 37.2311 0.0000 0.0000 0.0000
# 3 37.2311 37.2311 127.6434 0.0000 0.0000 0.0000
# 4 0.0000 0.0000 0.0000 53.8084 0.0000 0.0000
# 5 0.0000 0.0000 0.0000 0.0000 53.8084 0.0000
# 6 0.0000 0.0000 0.0000 0.0000 0.0000 62.6377
#
#
#
# Elastic Compliance Matrix: (Units=1/GPa)
#
#
# Indices 1 2 3 4 5 6 
#
# 1 0.004342 -0.001788 -0.000745 0.000000 0.000000 0.000000
# 2 -0.001788 0.004342 -0.000745 0.000000 0.000000 0.000000
# 3 -0.000745 -0.000745 0.008269 0.000000 0.000000 0.000000
# 4 0.000000 0.000000 0.000000 0.018584 0.000000 0.000000
# 5 0.000000 0.000000 0.000000 0.000000 0.018584 0.000000
# 6 0.000000 0.000000 0.000000 0.000000 0.000000 0.015965
#
#
# Mechanical properties :
#
#
# Convention : Reuss Voigt Hill
#
# Bulk Modulus (GPa) = 96.17930 122.56059 109.36994
# Shear Modulus (GPa) = 62.41657 67.68609 65.05133
#
# Velocity S-wave (km/s) = 4.80606 5.00483 4.90645
# Velocity P-wave (km/s) = 8.14803 8.87430 8.51891
#
# Compressibility (1/GPa) = 0.01039725
#
# Stress axis : x y z
#
# Youngs Moduli (GPa) = 230.32372 230.32372 120.93464
#
# Poissons Ratio (x) = 0.41172 0.09010
# Poissons Ratio (y) = 0.41172 0.09010
# Poissons Ratio (z) = 0.17159 0.17159
#
# Static dielectric constant tensor:
#      x y z
#    x 2.073350 0.000000 0.000000 
#    y 0.000000 2.073350 0.000000 
#    z 0.000000 0.000000 2.266910 
# 
# From -- ./inp_files/5370.got.cif
#   From: 2010.05.17/outbox.cif.g08.bks.cpg/sg141_3_cif.got.tgz:5370.got - 2010.05.20 13:30:51.
