data_PCOD9573380
_publ_section_title
;
Structure prediction by ZEFSAII (Michael W. Deem and Ramdas Pophale) SiO2 
 PCOD9573380
Probable space group: I 41/A M D
;
_chemical_formula_sum "Si O2"
_cell_formula_units_Z 80
_cell_length_a 27.000000
_cell_length_b 27.000000
_cell_length_c 12.000000
_cell_angle_alpha 90.000000
_cell_angle_beta 90.000000
_cell_angle_gamma 90.000000
_cell_volume 8748.000000
_symmetry_space_group_name_H-M "I 41/A M D"
_symmetry_group_IT_number 141
_space_group.IT_coordinate_system_code '2'
_symmetry_cell_setting 'tetragonal'
loop_
_space_group_symop_operation_xyz
x,y,z
1/4-y,3/4+x,1/4+z
-x,1/2-y,z
1/4+y,1/4-x,3/4+z
x,-y,-z
-x,1/2+y,-z
1/4+y,3/4+x,1/4-z
1/4-y,1/4-x,3/4-z
-x,-y,-z
3/4+y,1/4-x,3/4-z
x,1/2+y,-z
3/4-y,3/4+x,1/4-z
-x,y,z
x,1/2-y,z
3/4-y,1/4-x,3/4+z
3/4+y,3/4+x,1/4+z
1/2+x,1/2+y,1/2+z
3/4-y,1/4+x,3/4+z
1/2-x,-y,1/2+z
3/4+y,3/4-x,1/4+z
1/2+x,1/2-y,1/2-z
1/2-x,y,1/2-z
3/4+y,1/4+x,3/4-z
3/4-y,3/4-x,1/4-z
1/2-x,1/2-y,1/2-z
1/4+y,3/4-x,1/4-z
1/2+x,y,1/2-z
1/4-y,1/4+x,3/4-z
1/2-x,1/2+y,1/2+z
1/2+x,-y,1/2+z
1/4-y,3/4-x,1/4+z
1/4+y,1/4+x,3/4+z
loop_
_atom_site_type_symbol
_atom_site_label
_atom_site_fract_x
_atom_site_fract_y
_atom_site_fract_z
Si Si1 0.174754 0.357702 0.095161
Si Si2 0.226678 0.691906 0.549155
Si Si3 0.363490 0.308629 0.630889
Si Si4 0.799851 0.637457 0.318064
Si Si5 0.626925 0.307024 0.194923
O O1 0.231161 0.340291 0.110761
O O2 0.160443 0.415662 0.091829
O O3 0.140016 0.333868 0.189545
O O4 0.162573 0.333682 0.975392
O O5 0.242166 0.750000 0.536661
O O6 0.215007 0.666651 0.430114
O O7 0.176834 0.691488 0.621286
O O8 0.362362 0.250000 0.624811
O O9 0.418473 0.331528 0.625000
O O10 0.334403 0.327779 0.740032
O O11 0.750000 0.625484 0.250000
O O12 0.585283 0.335283 0.125000
O O13 0.613743 0.250000 0.215550
#
# Coordination Sequence:
#
# PCOD9573380 Si02
#       5
#    32  32  32  32  32
#     4  11  22  39  62  89 123 157 206 260 309 362
#     4  11  22  38  66  92 117 163 212 255 308 370
#     4  10  21  35  55  85 118 156 198 246 301 362
#     4  11  22  37  62  90 127 160 201 253 310 373
#     4  11  23  41  64  91 124 162 208 261 313 372
#
# _framework density 9.1449470000000002
#
# number of rings (size 3 to 8) (size 9 to 14) (size 15 to 20)
#    0.000    1.200    4.000    3.000    0.000    2.800 
#    0.000    0.000    4.400    2.400    0.000    0.000 
#    0.000    0.000    0.000    0.000    0.000    0.000 
#
# Total GULP energy -446713.339328 kJ/mol
# GULP energy per Si atom -5583.916742 kJ/mol
# Density = 0.912413 g / cm^3
# Si number density = 9.144947 Si / 1000 Ang^3
#
#
#
# Elastic Constant Matrix: (Units=GPa)
#
#
# Indices 1 2 3 4 5 6 
#
# 1 88.9152 37.5657 -4.4914 0.0000 0.0000 0.0000
# 2 37.5657 88.9155 -4.4934 0.0000 0.0000 0.0000
# 3 -4.4914 -4.4934 64.6909 0.0000 0.0000 0.0000
# 4 0.0000 0.0000 0.0000 23.2272 0.0000 0.0000
# 5 0.0000 0.0000 0.0000 0.0000 23.2271 0.0000
# 6 0.0000 0.0000 0.0000 0.0000 0.0000 24.2800
#
#
#
# Elastic Compliance Matrix: (Units=1/GPa)
#
#
# Indices 1 2 3 4 5 6 
#
# 1 0.013710 -0.005764 0.000551 0.000000 0.000000 0.000000
# 2 -0.005764 0.013710 0.000552 0.000000 0.000000 0.000000
# 3 0.000551 0.000552 0.015535 0.000000 0.000000 0.000000
# 4 0.000000 0.000000 0.000000 0.043053 0.000000 0.000000
# 5 0.000000 0.000000 0.000000 0.000000 0.043053 0.000000
# 6 0.000000 0.000000 0.000000 0.000000 0.000000 0.041186
#
#
# Mechanical properties :
#
#
# Convention : Reuss Voigt Hill
#
# Bulk Modulus (GPa) = 29.73281 33.29815 31.51548
# Shear Modulus (GPa) = 26.20826 28.40958 27.30892
#
# Velocity S-wave (km/s) = 3.78952 3.94546 3.86828
# Velocity P-wave (km/s) = 5.95307 6.24506 6.10081
#
# Compressibility (1/GPa) = 0.03363288
#
# Stress axis : x y z
#
# Youngs Moduli (GPa) = 72.93989 72.93994 64.37180
#
# Poissons Ratio (x) = 0.42045 -0.03550
# Poissons Ratio (y) = 0.42045 -0.03554
# Poissons Ratio (z) = -0.04022 -0.04027
#
# Static dielectric constant tensor:
#      x y z
#    x 1.635510 0.000000 0.000000 
#    y 0.000000 1.635510 0.000000 
#    z 0.000000 0.000000 1.625510 
# 
# From -- ./inp_files/4864.got.cif
#   From: 2010.05.17/outbox.ucp.g08.bks.cvg/sg141_3_cif.got.tgz:4864.got - 2010.06.11 11:43:24.
