data_PCOD9573087
_publ_section_title
;
Structure prediction by ZEFSAII (Michael W. Deem and Ramdas Pophale) SiO2 
 PCOD9573087
Probable space group: I 41/A M D
;
_chemical_formula_sum "Si O2"
_cell_formula_units_Z 176
_cell_length_a 26.443511
_cell_length_b 26.443511
_cell_length_c 14.946230
_cell_angle_alpha 90.000000
_cell_angle_beta 90.000000
_cell_angle_gamma 90.000000
_cell_volume 10451.289939
_symmetry_space_group_name_H-M "I 41/A M D"
_symmetry_group_IT_number 141
_space_group.IT_coordinate_system_code '2'
_symmetry_cell_setting 'tetragonal'
loop_
_space_group_symop_operation_xyz
x,y,z
1/4-y,3/4+x,1/4+z
-x,1/2-y,z
1/4+y,1/4-x,3/4+z
x,-y,-z
-x,1/2+y,-z
1/4+y,3/4+x,1/4-z
1/4-y,1/4-x,3/4-z
-x,-y,-z
3/4+y,1/4-x,3/4-z
x,1/2+y,-z
3/4-y,3/4+x,1/4-z
-x,y,z
x,1/2-y,z
3/4-y,1/4-x,3/4+z
3/4+y,3/4+x,1/4+z
1/2+x,1/2+y,1/2+z
3/4-y,1/4+x,3/4+z
1/2-x,-y,1/2+z
3/4+y,3/4-x,1/4+z
1/2+x,1/2-y,1/2-z
1/2-x,y,1/2-z
3/4+y,1/4+x,3/4-z
3/4-y,3/4-x,1/4-z
1/2-x,1/2-y,1/2-z
1/4+y,3/4-x,1/4-z
1/2+x,y,1/2-z
1/4-y,1/4+x,3/4-z
1/2-x,1/2+y,1/2+z
1/2+x,-y,1/2+z
1/4-y,3/4-x,1/4+z
1/4+y,1/4+x,3/4+z
loop_
_atom_site_type_symbol
_atom_site_label
_atom_site_fract_x
_atom_site_fract_y
_atom_site_fract_z
Si Si1 0.793880 0.601334 0.547213
Si Si2 0.558947 0.489547 0.893819
Si Si3 0.186356 0.059498 0.980028
Si Si4 0.940472 0.310594 0.677931
Si Si5 0.939761 0.310240 0.875000
Si Si6 0.872392 0.391049 0.614825
O O1 0.815417 0.565417 0.625000
O O2 0.778954 0.655572 0.590145
O O3 0.742622 0.577684 0.507383
O O4 0.835746 0.603960 0.469963
O O5 0.500000 0.490058 0.866162
O O6 0.585810 0.435428 0.881303
O O7 0.561050 0.500000 0.000000
O O8 0.179181 0.070819 0.875000
O O9 0.148547 0.088364 0.046739
O O10 0.182430 0.000000 0.000000
O O11 0.936190 0.250000 0.673798
O O12 0.924159 0.329079 0.777807
O O13 0.903263 0.339104 0.612194
O O14 0.000000 0.322614 0.665095
O O15 0.931749 0.250000 0.872812
#
# Coordination Sequence:
#
# PCOD9573087 Si02
#       6
#    32  32  32  32  16  32
#     4  11  22  36  56  83 109 144 186 229 279 325
#     4  10  21  37  56  80 111 145 184 232 278 327
#     4  11  22  36  55  81 113 145 178 226 273 332
#     4   9  18  34  56  80 107 142 187 235 277 324
#     4   7  12  26  48  72  96 128 172 220 266 308
#     4  11  22  34  58  83 111 146 187 224 276 338
#
# _framework density 16.840026000000002
#
# number of rings (size 3 to 8) (size 9 to 14) (size 15 to 20)
#    0.000    1.909    3.636    2.182    3.818    0.727 
#    0.000    0.000    0.000    0.545    0.000    1.273 
#    0.000    0.000    0.000    0.000    0.000    0.000 
#
# Total GULP energy -490467.907360 kJ/mol
# GULP energy per Si atom -5573.498947 kJ/mol
# Density = 1.680170 g / cm^3
# Si number density = 16.840026 Si / 1000 Ang^3
#
#
#
# Elastic Constant Matrix: (Units=GPa)
#
#
# Indices 1 2 3 4 5 6 
#
# 1 84.1188 43.1020 30.9041 0.0000 0.0000 0.0000
# 2 43.1020 84.1173 30.9036 0.0000 0.0000 0.0000
# 3 30.9041 30.9036 94.3962 0.0000 0.0000 0.0000
# 4 0.0000 0.0000 0.0000 20.5236 0.0000 0.0000
# 5 0.0000 0.0000 0.0000 0.0000 20.5239 0.0000
# 6 0.0000 0.0000 0.0000 0.0000 0.0000 23.3346
#
#
#
# Elastic Compliance Matrix: (Units=1/GPa)
#
#
# Indices 1 2 3 4 5 6 
#
# 1 0.016864 -0.007517 -0.003060 0.000000 0.000000 0.000000
# 2 -0.007517 0.016864 -0.003060 0.000000 0.000000 0.000000
# 3 -0.003060 -0.003060 0.012597 0.000000 0.000000 0.000000
# 4 0.000000 0.000000 0.000000 0.048724 0.000000 0.000000
# 5 0.000000 0.000000 0.000000 0.000000 0.048724 0.000000
# 6 0.000000 0.000000 0.000000 0.000000 0.000000 0.042855
#
#
# Mechanical properties :
#
#
# Convention : Reuss Voigt Hill
#
# Bulk Modulus (GPa) = 52.49038 52.49464 52.49251
# Shear Modulus (GPa) = 22.70123 23.39126 23.04625
#
# Velocity S-wave (km/s) = 3.67557 3.73101 3.70339
# Velocity P-wave (km/s) = 7.01789 7.05697 7.03745
#
# Compressibility (1/GPa) = 0.01905111
#
# Stress axis : x y z
#
# Youngs Moduli (GPa) = 59.29872 59.29781 79.38212
#
# Poissons Ratio (x) = 0.44573 0.24292
# Poissons Ratio (y) = 0.44574 0.24291
# Poissons Ratio (z) = 0.18146 0.18146
#
# Static dielectric constant tensor:
#      x y z
#    x 1.554570 0.000000 0.000000 
#    y 0.000000 1.554570 0.000000 
#    z 0.000000 0.000000 1.593230 
# 
# From -- ./inp_files/6825.got.cif
#   From: 2010.05.17/outbox.cif.g08.bks.cpg/sg141_4_cif.got.tgz:6825.got - 2010.05.20 13:30:51.
