data_PCOD9573816
_publ_section_title
;
Structure prediction by ZEFSAII (Michael W. Deem and Ramdas Pophale) SiO2 
 PCOD9573816
Probable space group: I 41/A C D
;
_chemical_formula_sum "Si O2"
_cell_formula_units_Z 104
_cell_length_a 14.156935
_cell_length_b 14.156935
_cell_length_c 19.959785
_cell_angle_alpha 90.000000
_cell_angle_beta 90.000000
_cell_angle_gamma 90.000000
_cell_volume 4000.316329
_symmetry_space_group_name_H-M "I 41/A C D"
_symmetry_group_IT_number 142
_space_group.IT_coordinate_system_code '2'
_symmetry_cell_setting 'tetragonal'
loop_
_space_group_symop_operation_xyz
x,y,z
1/4-y,3/4+x,1/4+z
-x,1/2-y,z
1/4+y,1/4-x,3/4+z
x,-y,1/2-z
1/2-x,y,-z
3/4+y,1/4+x,1/4-z
1/4-y,1/4-x,1/4-z
-x,-y,-z
3/4+y,1/4-x,3/4-z
x,1/2+y,-z
3/4-y,3/4+x,1/4-z
-x,y,1/2+z
1/2+x,-y,z
1/4-y,3/4-x,3/4+z
3/4+y,3/4+x,3/4+z
1/2+x,1/2+y,1/2+z
3/4-y,1/4+x,3/4+z
1/2-x,-y,1/2+z
3/4+y,3/4-x,1/4+z
1/2+x,1/2-y,-z
-x,1/2+y,1/2-z
1/4+y,3/4+x,3/4-z
3/4-y,3/4-x,3/4-z
1/2-x,1/2-y,1/2-z
1/4+y,3/4-x,1/4-z
1/2+x,y,1/2-z
1/4-y,1/4+x,3/4-z
1/2-x,1/2+y,z
x,1/2-y,1/2+z
3/4-y,1/4-x,1/4+z
1/4+y,1/4+x,1/4+z
loop_
_atom_site_type_symbol
_atom_site_label
_atom_site_fract_x
_atom_site_fract_y
_atom_site_fract_z
Si Si1 0.038222 0.063627 0.108042
Si Si2 0.876062 0.600497 0.049143
Si Si3 0.324036 0.425965 0.875000
Si Si4 0.750000 0.752447 0.000000
Si Si5 0.500000 0.250000 0.125000
O O1 0.088369 0.161631 0.125000
O O2 0.928074 0.070825 0.092053
O O3 0.085871 0.006310 0.047645
O O4 0.053302 0.004845 0.178378
O O5 0.774824 0.577604 0.085252
O O6 0.840311 0.683324 0.999589
O O7 0.959304 0.659580 0.085495
#
# Coordination Sequence:
#
# PCOD9573816 Si02
#       5
#    32  32  16  16   8
#     4  11  23  44  69 101 148 185 236 311 369 441
#     4  11  22  43  71 104 146 187 253 303 360 461
#     4  10  21  42  66 101 142 184 236 316 348 433
#     4  10  24  44  70 112 140 192 260 288 382 462
#     4  12  20  44  76  96 146 208 224 308 368 436
#
# _framework density 25.997941999999998
#
# number of rings (size 3 to 8) (size 9 to 14) (size 15 to 20)
#    0.000    1.231    7.692    0.462    0.000    1.231 
#   11.077    6.154    0.000    0.000    0.000    0.000 
#    0.000    0.000    0.000    0.000    0.000    0.000 
#
# Total GULP energy -289498.060304 kJ/mol
# GULP energy per Si atom -5567.270390 kJ/mol
# Density = 2.593877 g / cm^3
# Si number density = 25.997942 Si / 1000 Ang^3
#
#
#
# Elastic Constant Matrix: (Units=GPa)
#
#
# Indices 1 2 3 4 5 6 
#
# 1 102.8195 6.2985 -9.6936 0.0000 0.0000 0.0000
# 2 6.2985 102.8143 -9.6938 0.0000 0.0000 0.0000
# 3 -9.6936 -9.6938 63.1890 0.0000 0.0000 0.0000
# 4 0.0000 0.0000 0.0000 29.4049 0.0000 0.0000
# 5 0.0000 0.0000 0.0000 0.0000 29.4050 0.0000
# 6 0.0000 0.0000 0.0000 0.0000 0.0000 60.2400
#
#
#
# Elastic Compliance Matrix: (Units=1/GPa)
#
#
# Indices 1 2 3 4 5 6 
#
# 1 0.009891 -0.000470 0.001445 0.000000 0.000000 0.000000
# 2 -0.000470 0.009891 0.001445 0.000000 0.000000 0.000000
# 3 0.001445 0.001445 0.016269 0.000000 0.000000 0.000000
# 4 0.000000 0.000000 0.000000 0.034008 0.000000 0.000000
# 5 0.000000 0.000000 0.000000 0.000000 0.034008 0.000000
# 6 0.000000 0.000000 0.000000 0.000000 0.000000 0.016600
#
#
# Mechanical properties :
#
#
# Convention : Reuss Voigt Hill
#
# Bulk Modulus (GPa) = 24.45402 26.96057 25.70730
# Shear Modulus (GPa) = 38.62312 42.60411 40.61361
#
# Velocity S-wave (km/s) = 3.85856 4.05254 3.95674
# Velocity P-wave (km/s) = 5.41090 5.68245 5.54834
#
# Compressibility (1/GPa) = 0.04089307
#
# Stress axis : x y z
#
# Youngs Moduli (GPa) = 101.10403 101.09874 61.46665
#
# Poissons Ratio (x) = 0.04748 -0.08884
# Poissons Ratio (y) = 0.04748 -0.08884
# Poissons Ratio (z) = -0.14612 -0.14613
#
# Static dielectric constant tensor:
#      x y z
#    x 1.979470 0.000000 0.000000 
#    y 0.000000 1.979470 0.000000 
#    z 0.000000 0.000000 2.535310 
# 
# From -- ./inp_files/12234.got.cif
#   From: 2010.05.17/outbox.cif.g08.bks.cpg/sg142_7_cif.got.tgz:12234.got - 2010.05.20 13:39:18.
