data_PCOD9573381
_publ_section_title
;
Structure prediction by ZEFSAII (Michael W. Deem and Ramdas Pophale) SiO2 
 PCOD9573381
Probable space group: I 41/A M D
;
_chemical_formula_sum "Si O2"
_cell_formula_units_Z 88
_cell_length_a 18.000000
_cell_length_b 18.000000
_cell_length_c 27.000000
_cell_angle_alpha 90.000000
_cell_angle_beta 90.000000
_cell_angle_gamma 90.000000
_cell_volume 8748.000000
_symmetry_space_group_name_H-M "I 41/A M D"
_symmetry_group_IT_number 141
_space_group.IT_coordinate_system_code '2'
_symmetry_cell_setting 'tetragonal'
loop_
_space_group_symop_operation_xyz
x,y,z
1/4-y,3/4+x,1/4+z
-x,1/2-y,z
1/4+y,1/4-x,3/4+z
x,-y,-z
-x,1/2+y,-z
1/4+y,3/4+x,1/4-z
1/4-y,1/4-x,3/4-z
-x,-y,-z
3/4+y,1/4-x,3/4-z
x,1/2+y,-z
3/4-y,3/4+x,1/4-z
-x,y,z
x,1/2-y,z
3/4-y,1/4-x,3/4+z
3/4+y,3/4+x,1/4+z
1/2+x,1/2+y,1/2+z
3/4-y,1/4+x,3/4+z
1/2-x,-y,1/2+z
3/4+y,3/4-x,1/4+z
1/2+x,1/2-y,1/2-z
1/2-x,y,1/2-z
3/4+y,1/4+x,3/4-z
3/4-y,3/4-x,1/4-z
1/2-x,1/2-y,1/2-z
1/4+y,3/4-x,1/4-z
1/2+x,y,1/2-z
1/4-y,1/4+x,3/4-z
1/2-x,1/2+y,1/2+z
1/2+x,-y,1/2+z
1/4-y,3/4-x,1/4+z
1/4+y,1/4+x,3/4+z
loop_
_atom_site_type_symbol
_atom_site_label
_atom_site_fract_x
_atom_site_fract_y
_atom_site_fract_z
Si Si1 0.818216 0.165939 0.839174
Si Si2 0.919079 0.876054 0.572145
Si Si3 0.887136 0.009885 0.282394
Si Si4 0.803355 0.331070 0.575341
Si Si5 0.250000 0.427674 0.750000
Si Si6 0.795582 0.331977 0.141843
O O1 0.838534 0.250000 0.825772
O O2 0.879187 0.129187 0.875000
O O3 0.747483 0.167198 0.875775
O O4 0.796032 0.121639 0.789395
O O5 0.914406 0.835595 0.625000
O O6 0.847228 0.852374 0.542052
O O7 0.000000 0.864014 0.549272
O O8 0.909771 0.963298 0.585163
O O9 0.913393 0.003944 0.225097
O O10 0.803146 0.981573 0.280699
O O11 0.915677 0.967346 0.331778
O O12 0.840943 0.250000 0.573578
O O13 0.858443 0.399678 0.583956
O O14 0.823643 0.250000 0.154046
#
# Coordination Sequence:
#
# PCOD9573381 Si02
#       6
#    32  32  32  32  16  32
#     4  11  24  42  66  94 127 159 202 258 311 373
#     4   9  20  36  58  88 122 162 210 257 305 359
#     4  11  21  36  63  90 122 163 208 260 310 372
#     4  11  23  39  60  89 121 160 205 255 313 371
#     4  12  21  38  67  96 120 160 216 258 311 370
#     4  10  21  39  59  85 123 164 209 257 310 372
#
# _framework density 10.059442000000001
#
# number of rings (size 3 to 8) (size 9 to 14) (size 15 to 20)
#    0.000    1.455    3.636    1.909    0.000    2.182 
#    0.000    2.273    0.000    0.000    0.000    0.000 
#    0.000    0.000    0.000    0.000    0.000    0.000 
#
# Total GULP energy -490489.177348 kJ/mol
# GULP energy per Si atom -5573.740652 kJ/mol
# Density = 1.003655 g / cm^3
# Si number density = 10.059442 Si / 1000 Ang^3
#
#
#
# Elastic Constant Matrix: (Units=GPa)
#
#
# Indices 1 2 3 4 5 6 
#
# 1 67.9012 34.1933 -2.5329 0.0000 0.0000 0.0000
# 2 34.1933 67.9014 -2.5331 0.0000 0.0000 0.0000
# 3 -2.5329 -2.5331 71.5123 0.0000 0.0000 0.0000
# 4 0.0000 0.0000 0.0000 15.3951 0.0000 0.0000
# 5 0.0000 0.0000 0.0000 0.0000 15.3952 0.0000
# 6 0.0000 0.0000 0.0000 0.0000 0.0000 3.0118
#
#
#
# Elastic Compliance Matrix: (Units=1/GPa)
#
#
# Indices 1 2 3 4 5 6 
#
# 1 0.019739 -0.009927 0.000348 0.000000 0.000000 0.000000
# 2 -0.009927 0.019739 0.000348 0.000000 0.000000 0.000000
# 3 0.000348 0.000348 0.014008 0.000000 0.000000 0.000000
# 4 0.000000 0.000000 0.000000 0.064956 0.000000 0.000000
# 5 0.000000 0.000000 0.000000 0.000000 0.064955 0.000000
# 6 0.000000 0.000000 0.000000 0.000000 0.000000 0.332025
#
#
# Mechanical properties :
#
#
# Convention : Reuss Voigt Hill
#
# Bulk Modulus (GPa) = 28.55298 29.50770 29.03034
# Shear Modulus (GPa) = 9.16487 18.63960 13.90224
#
# Velocity S-wave (km/s) = 2.13664 3.04710 2.63155
# Velocity P-wave (km/s) = 4.50665 5.20368 4.86766
#
# Compressibility (1/GPa) = 0.03502262
#
# Stress axis : x y z
#
# Youngs Moduli (GPa) = 50.66023 50.66042 71.38659
#
# Poissons Ratio (x) = 0.50292 -0.02481
# Poissons Ratio (y) = 0.50292 -0.02481
# Poissons Ratio (z) = -0.01761 -0.01761
#
# Static dielectric constant tensor:
#      x y z
#    x 1.744210 0.000000 0.000000 
#    y 0.000000 1.744210 0.000000 
#    z 0.000000 0.000000 1.706720 
# 
# From -- ./inp_files/12912.got.cif
#   From: 2010.05.17/outbox.ucp.g08.bks.cvg/sg141_7_cif.got.tgz:12912.got - 2010.06.11 11:43:24.
