data_PCOD9573953
_publ_section_title
;
Structure prediction by ZEFSAII (Michael W. Deem and Ramdas Pophale) SiO2 
 PCOD9573953
Probable space group: I 41/A C D
;
_chemical_formula_sum "Si O2"
_cell_formula_units_Z 176
_cell_length_a 16.760694
_cell_length_b 16.760694
_cell_length_c 28.478193
_cell_angle_alpha 90.000000
_cell_angle_beta 90.000000
_cell_angle_gamma 90.000000
_cell_volume 8000.118565
_symmetry_space_group_name_H-M "I 41/A C D"
_symmetry_group_IT_number 142
_space_group.IT_coordinate_system_code '2'
_symmetry_cell_setting 'tetragonal'
loop_
_space_group_symop_operation_xyz
x,y,z
1/4-y,3/4+x,1/4+z
-x,1/2-y,z
1/4+y,1/4-x,3/4+z
x,-y,1/2-z
1/2-x,y,-z
3/4+y,1/4+x,1/4-z
1/4-y,1/4-x,1/4-z
-x,-y,-z
3/4+y,1/4-x,3/4-z
x,1/2+y,-z
3/4-y,3/4+x,1/4-z
-x,y,1/2+z
1/2+x,-y,z
1/4-y,3/4-x,3/4+z
3/4+y,3/4+x,3/4+z
1/2+x,1/2+y,1/2+z
3/4-y,1/4+x,3/4+z
1/2-x,-y,1/2+z
3/4+y,3/4-x,1/4+z
1/2+x,1/2-y,-z
-x,1/2+y,1/2-z
1/4+y,3/4+x,3/4-z
3/4-y,3/4-x,3/4-z
1/2-x,1/2-y,1/2-z
1/4+y,3/4-x,1/4-z
1/2+x,y,1/2-z
1/4-y,1/4+x,3/4-z
1/2-x,1/2+y,z
x,1/2-y,1/2+z
3/4-y,1/4-x,1/4+z
1/4+y,1/4+x,1/4+z
loop_
_atom_site_type_symbol
_atom_site_label
_atom_site_fract_x
_atom_site_fract_y
_atom_site_fract_z
Si Si1 0.381262 0.009446 0.659625
Si Si2 0.254971 0.380811 0.116397
Si Si3 0.813702 0.727345 0.037318
Si Si4 0.772170 0.000000 0.750000
Si Si5 0.905658 0.912303 0.498500
Si Si6 0.983900 0.977469 0.923596
O O1 0.319406 0.052411 0.625804
O O2 0.446061 0.073546 0.679554
O O3 0.328698 0.980579 0.704557
O O4 0.432426 0.954618 0.623007
O O5 0.168730 0.418730 0.125000
O O6 0.267731 0.340763 0.066663
O O7 0.271190 0.310950 0.152766
O O8 0.883363 0.677907 0.012758
O O9 0.750000 0.757247 0.000000
O O10 0.715654 0.924165 0.736936
O O11 0.973987 0.914003 0.458376
O O12 0.938939 0.960535 0.543204
#
# Coordination Sequence:
#
# PCOD9573953 Si02
#       6
#    32  32  32  16  32  32
#     4  11  23  38  59 100 129 166 212 281 318 396
#     4  11  21  40  65  92 123 169 218 266 322 389
#     4  11  21  37  61  94 130 160 208 271 330 380
#     4  12  22  38  70  92 126 166 228 268 328 382
#     4  11  21  39  65  93 124 170 211 275 321 396
#     4  10  23  37  60  95 131 159 219 265 331 379
#
# _framework density 21.999673999999999
#
# number of rings (size 3 to 8) (size 9 to 14) (size 15 to 20)
#    0.000    1.091    5.455    2.182    0.000    0.000 
#    0.000    0.909    0.000    0.000    4.727    0.000 
#    0.000    0.000    0.000    0.000    0.000    0.000 
#
# Total GULP energy -490352.267902 kJ/mol
# GULP energy per Si atom -5572.184863 kJ/mol
# Density = 2.194960 g / cm^3
# Si number density = 21.999674 Si / 1000 Ang^3
#
#
#
# Elastic Constant Matrix: (Units=GPa)
#
#
# Indices 1 2 3 4 5 6 
#
# 1 71.1221 25.4274 20.2426 0.0000 0.0000 0.0000
# 2 25.4274 71.1221 20.2426 0.0000 0.0000 0.0000
# 3 20.2426 20.2426 100.9600 0.0000 0.0000 0.0000
# 4 0.0000 0.0000 0.0000 36.2921 0.0000 0.0000
# 5 0.0000 0.0000 0.0000 0.0000 36.2921 0.0000
# 6 0.0000 0.0000 0.0000 0.0000 0.0000 5.7845
#
#
#
# Elastic Compliance Matrix: (Units=1/GPa)
#
#
# Indices 1 2 3 4 5 6 
#
# 1 0.016596 -0.005288 -0.002267 0.000000 0.000000 0.000000
# 2 -0.005288 0.016596 -0.002267 0.000000 0.000000 0.000000
# 3 -0.002267 -0.002267 0.010814 0.000000 0.000000 0.000000
# 4 0.000000 0.000000 0.000000 0.027554 0.000000 0.000000
# 5 0.000000 0.000000 0.000000 0.000000 0.027554 0.000000
# 6 0.000000 0.000000 0.000000 0.000000 0.000000 0.172874
#
#
# Mechanical properties :
#
#
# Convention : Reuss Voigt Hill
#
# Bulk Modulus (GPa) = 41.04896 41.66994 41.35945
# Shear Modulus (GPa) = 16.68027 27.49318 22.08673
#
# Velocity S-wave (km/s) = 2.75654 3.53896 3.17197
# Velocity P-wave (km/s) = 5.36943 5.97338 5.67944
#
# Compressibility (1/GPa) = 0.02436115
#
# Stress axis : x y z
#
# Youngs Moduli (GPa) = 60.25456 60.25456 92.47191
#
# Poissons Ratio (x) = 0.31864 0.20966
# Poissons Ratio (y) = 0.31864 0.20966
# Poissons Ratio (z) = 0.13661 0.13661
#
# Static dielectric constant tensor:
#      x y z
#    x 1.815560 0.000000 0.000000 
#    y 0.000000 1.815560 0.000000 
#    z 0.000000 0.000000 1.951100 
# 
# From -- ./inp_files/12555.got.cif
#   From: 2010.05.17/outbox.cif.g08.bks.cpg/sg142_7_cif.got.tgz:12555.got - 2010.05.20 13:39:18.
