data_PCOD9573466
_publ_section_title
;
Structure prediction by ZEFSAII (Michael W. Deem and Ramdas Pophale) SiO2 
 PCOD9573466
Probable space group: I 41/A C D
;
_chemical_formula_sum "Si O2"
_cell_formula_units_Z 160
_cell_length_a 21.512778
_cell_length_b 21.512778
_cell_length_c 17.485410
_cell_angle_alpha 90.000000
_cell_angle_beta 90.000000
_cell_angle_gamma 90.000000
_cell_volume 8092.241056
_symmetry_space_group_name_H-M "I 41/A C D"
_symmetry_group_IT_number 142
_space_group.IT_coordinate_system_code '2'
_symmetry_cell_setting 'tetragonal'
loop_
_space_group_symop_operation_xyz
x,y,z
1/4-y,3/4+x,1/4+z
-x,1/2-y,z
1/4+y,1/4-x,3/4+z
x,-y,1/2-z
1/2-x,y,-z
3/4+y,1/4+x,1/4-z
1/4-y,1/4-x,1/4-z
-x,-y,-z
3/4+y,1/4-x,3/4-z
x,1/2+y,-z
3/4-y,3/4+x,1/4-z
-x,y,1/2+z
1/2+x,-y,z
1/4-y,3/4-x,3/4+z
3/4+y,3/4+x,3/4+z
1/2+x,1/2+y,1/2+z
3/4-y,1/4+x,3/4+z
1/2-x,-y,1/2+z
3/4+y,3/4-x,1/4+z
1/2+x,1/2-y,-z
-x,1/2+y,1/2-z
1/4+y,3/4+x,3/4-z
3/4-y,3/4-x,3/4-z
1/2-x,1/2-y,1/2-z
1/4+y,3/4-x,1/4-z
1/2+x,y,1/2-z
1/4-y,1/4+x,3/4-z
1/2-x,1/2+y,z
x,1/2-y,1/2+z
3/4-y,1/4-x,1/4+z
1/4+y,1/4+x,1/4+z
loop_
_atom_site_type_symbol
_atom_site_label
_atom_site_fract_x
_atom_site_fract_y
_atom_site_fract_z
Si Si1 0.630449 0.974213 0.423190
Si Si2 0.003654 0.648951 0.386595
Si Si3 0.818449 0.251049 0.787567
Si Si4 0.363703 0.564395 0.939362
Si Si5 0.810004 0.173436 0.545692
O O1 0.568262 0.931133 0.423298
O O2 0.682847 0.933785 0.381269
O O3 0.643389 0.003652 0.506282
O O4 0.612626 0.032633 0.369395
O O5 0.952856 0.702856 0.375000
O O6 0.981586 0.598788 0.324929
O O7 0.070625 0.679376 0.375000
O O8 0.998853 0.618498 0.469863
O O9 0.750000 0.250000 0.750000
O O10 0.821721 0.186232 0.833061
O O11 0.345656 0.623577 0.993089
O O12 0.750000 0.195273 0.500000
#
# Coordination Sequence:
#
# PCOD9573466 Si02
#       5
#    32  32  32  32  32
#     4  10  20  35  61  92 115 167 204 267 300 375
#     4  11  20  35  57  87 122 155 202 258 318 373
#     4  10  19  36  58  80 120 162 205 249 308 373
#     4  10  19  35  61  88 121 157 217 249 308 375
#     4  10  18  34  61  89 112 159 213 247 305 383
#
# _framework density 19.772026
#
# number of rings (size 3 to 8) (size 9 to 14) (size 15 to 20)
#    0.000    1.800    6.000    0.600    0.000    0.000 
#    7.200    0.000    0.000   33.600    0.000    0.000 
#    0.000    0.000    0.000    0.000    0.000    0.000 
#
# Total GULP energy -446048.665259 kJ/mol
# GULP energy per Si atom -5575.608316 kJ/mol
# Density = 1.972702 g / cm^3
# Si number density = 19.772026 Si / 1000 Ang^3
#
#
#
# Elastic Constant Matrix: (Units=GPa)
#
#
# Indices 1 2 3 4 5 6 
#
# 1 79.2181 50.3980 28.7806 0.0000 0.0000 0.0000
# 2 50.3980 79.2197 28.7812 0.0000 0.0000 0.0000
# 3 28.7806 28.7812 54.8471 0.0000 0.0000 0.0000
# 4 0.0000 0.0000 0.0000 29.9195 0.0000 0.0000
# 5 0.0000 0.0000 0.0000 0.0000 29.9181 0.0000
# 6 0.0000 0.0000 0.0000 0.0000 0.0000 42.8794
#
#
#
# Elastic Compliance Matrix: (Units=1/GPa)
#
#
# Indices 1 2 3 4 5 6 
#
# 1 0.022378 -0.012319 -0.005278 0.000000 0.000000 0.000000
# 2 -0.012319 0.022378 -0.005279 0.000000 0.000000 0.000000
# 3 -0.005278 -0.005279 0.023772 0.000000 0.000000 0.000000
# 4 0.000000 0.000000 0.000000 0.033423 0.000000 0.000000
# 5 0.000000 0.000000 0.000000 0.000000 0.033425 0.000000
# 6 0.000000 0.000000 0.000000 0.000000 0.000000 0.023321
#
#
# Mechanical properties :
#
#
# Convention : Reuss Voigt Hill
#
# Bulk Modulus (GPa) = 43.90484 47.68940 45.79712
# Shear Modulus (GPa) = 23.58027 27.56507 25.57267
#
# Velocity S-wave (km/s) = 3.45716 3.73788 3.60026
# Velocity P-wave (km/s) = 6.17978 6.54224 6.36359
#
# Compressibility (1/GPa) = 0.02277653
#
# Stress axis : x y z
#
# Youngs Moduli (GPa) = 44.68612 44.68677 42.06571
#
# Poissons Ratio (x) = 0.55049 0.22204
# Poissons Ratio (y) = 0.55049 0.22205
# Poissons Ratio (z) = 0.23587 0.23589
#
# Static dielectric constant tensor:
#      x y z
#    x 1.731160 0.000000 0.000000 
#    y 0.000000 1.731160 0.000000 
#    z 0.000000 0.000000 1.726830 
# 
# From -- ./inp_files/7352.got.cif
#   From: 2010.05.17/outbox.cif.g08.bks.cpg/sg142_4_cif.got.tgz:7352.got - 2010.05.20 13:39:18.
