data_PCOD9573884
_publ_section_title
;
Structure prediction by ZEFSAII (Michael W. Deem and Ramdas Pophale) SiO2 
 PCOD9573884
Probable space group: I 41/A C D
;
_chemical_formula_sum "Si O2"
_cell_formula_units_Z 112
_cell_length_a 13.706274
_cell_length_b 13.706274
_cell_length_c 27.848920
_cell_angle_alpha 90.000000
_cell_angle_beta 90.000000
_cell_angle_gamma 90.000000
_cell_volume 5231.752332
_symmetry_space_group_name_H-M "I 41/A C D"
_symmetry_group_IT_number 142
_space_group.IT_coordinate_system_code '2'
_symmetry_cell_setting 'tetragonal'
loop_
_space_group_symop_operation_xyz
x,y,z
1/4-y,3/4+x,1/4+z
-x,1/2-y,z
1/4+y,1/4-x,3/4+z
x,-y,1/2-z
1/2-x,y,-z
3/4+y,1/4+x,1/4-z
1/4-y,1/4-x,1/4-z
-x,-y,-z
3/4+y,1/4-x,3/4-z
x,1/2+y,-z
3/4-y,3/4+x,1/4-z
-x,y,1/2+z
1/2+x,-y,z
1/4-y,3/4-x,3/4+z
3/4+y,3/4+x,3/4+z
1/2+x,1/2+y,1/2+z
3/4-y,1/4+x,3/4+z
1/2-x,-y,1/2+z
3/4+y,3/4-x,1/4+z
1/2+x,1/2-y,-z
-x,1/2+y,1/2-z
1/4+y,3/4+x,3/4-z
3/4-y,3/4-x,3/4-z
1/2-x,1/2-y,1/2-z
1/4+y,3/4-x,1/4-z
1/2+x,y,1/2-z
1/4-y,1/4+x,3/4-z
1/2-x,1/2+y,z
x,1/2-y,1/2+z
3/4-y,1/4-x,1/4+z
1/4+y,1/4+x,1/4+z
loop_
_atom_site_type_symbol
_atom_site_label
_atom_site_fract_x
_atom_site_fract_y
_atom_site_fract_z
Si Si1 0.670538 0.113818 0.744966
Si Si2 0.185234 0.654813 0.667452
Si Si3 0.500000 0.750000 0.783540
Si Si4 0.904101 0.985551 0.890583
O O1 0.743475 0.142901 0.787511
O O2 0.570368 0.175897 0.745098
O O3 0.729661 0.134048 0.695316
O O4 0.648205 0.000000 0.750000
O O5 0.079732 0.694512 0.684146
O O6 0.236315 0.733369 0.632826
O O7 0.162751 0.554139 0.642208
O O8 0.872392 0.877609 0.875000
#
# Coordination Sequence:
#
# PCOD9573884 Si02
#       4
#    32  32  16  32
#     4  11  23  43  65  97 137 172 226 284 343 405
#     4  11  23  43  65  99 130 175 232 271 338 417
#     4  10  22  41  66  95 128 176 228 273 336 411
#     4  11  21  40  65  92 129 173 218 281 333 403
#
# _framework density 21.407741999999999
#
# number of rings (size 3 to 8) (size 9 to 14) (size 15 to 20)
#    0.000    1.143    2.857    6.857    0.000    2.286 
#   15.429    0.000    0.000    0.000    0.000    0.000 
#    0.000    0.000    0.000    0.000    0.000    0.000 
#
# Total GULP energy -312950.086942 kJ/mol
# GULP energy per Si atom -5588.394410 kJ/mol
# Density = 2.135902 g / cm^3
# Si number density = 21.407742 Si / 1000 Ang^3
#
#
#
# Elastic Constant Matrix: (Units=GPa)
#
#
# Indices 1 2 3 4 5 6 
#
# 1 65.5482 72.0449 17.0456 0.0000 0.0000 0.0000
# 2 72.0449 65.5529 17.0442 0.0000 0.0000 0.0000
# 3 17.0456 17.0442 48.3987 0.0000 0.0000 0.0000
# 4 0.0000 0.0000 0.0000 45.1362 0.0000 0.0000
# 5 0.0000 0.0000 0.0000 0.0000 45.1295 0.0000
# 6 0.0000 0.0000 0.0000 0.0000 0.0000 37.7777
#
#
#
# Elastic Compliance Matrix: (Units=1/GPa)
#
#
# Indices 1 2 3 4 5 6 
#
# 1 -0.073012 0.080971 -0.002801 0.000000 0.000000 0.000000
# 2 0.080971 -0.073005 -0.002808 0.000000 0.000000 0.000000
# 3 -0.002801 -0.002808 0.022637 0.000000 0.000000 0.000000
# 4 0.000000 0.000000 0.000000 0.022155 0.000000 0.000000
# 5 0.000000 0.000000 0.000000 0.000000 0.022158 0.000000
# 6 0.000000 0.000000 0.000000 0.000000 0.000000 0.026471
#
#
# Mechanical properties :
#
#
# Convention : Reuss Voigt Hill
#
# Bulk Modulus (GPa) = 36.56981 43.52993 40.04987
# Shear Modulus (GPa) = -25.74583 30.49968 2.37693
#
# Velocity S-wave (km/s) = -3.47167 3.77862 1.05486
# Velocity P-wave (km/s) = 1.02449 6.27815 4.49804
#
# Compressibility (1/GPa) = 0.02734496
#
# Stress axis : x y z
#
# Youngs Moduli (GPa) = -13.69638 -13.69767 44.17578
#
# Poissons Ratio (x) = 1.10911 0.12373
# Poissons Ratio (y) = 1.10901 0.12403
# Poissons Ratio (z) = -0.03836 -0.03846
#
# Static dielectric constant tensor:
#      x y z
#    x 1.785780 0.000000 0.000000 
#    y 0.000000 1.785780 0.000000 
#    z 0.000000 0.000000 1.770610 
# 
# From -- ./inp_files/12214.got.cif
#   From: 2010.05.17/outbox.cif.g08.bks.cpg/sg142_7_cif.got.tgz:12214.got - 2010.05.20 13:39:18.
