data_PCOD9573274
_publ_section_title
;
Structure prediction by ZEFSAII (Michael W. Deem and Ramdas Pophale) SiO2 
 PCOD9573274
Probable space group: I 41/A M D
;
_chemical_formula_sum "Si O2"
_cell_formula_units_Z 112
_cell_length_a 18.434619
_cell_length_b 18.434619
_cell_length_c 17.821565
_cell_angle_alpha 90.000000
_cell_angle_beta 90.000000
_cell_angle_gamma 90.000000
_cell_volume 6056.394708
_symmetry_space_group_name_H-M "I 41/A M D"
_symmetry_group_IT_number 141
_space_group.IT_coordinate_system_code '2'
_symmetry_cell_setting 'tetragonal'
loop_
_space_group_symop_operation_xyz
x,y,z
1/4-y,3/4+x,1/4+z
-x,1/2-y,z
1/4+y,1/4-x,3/4+z
x,-y,-z
-x,1/2+y,-z
1/4+y,3/4+x,1/4-z
1/4-y,1/4-x,3/4-z
-x,-y,-z
3/4+y,1/4-x,3/4-z
x,1/2+y,-z
3/4-y,3/4+x,1/4-z
-x,y,z
x,1/2-y,z
3/4-y,1/4-x,3/4+z
3/4+y,3/4+x,1/4+z
1/2+x,1/2+y,1/2+z
3/4-y,1/4+x,3/4+z
1/2-x,-y,1/2+z
3/4+y,3/4-x,1/4+z
1/2+x,1/2-y,1/2-z
1/2-x,y,1/2-z
3/4+y,1/4+x,3/4-z
3/4-y,3/4-x,1/4-z
1/2-x,1/2-y,1/2-z
1/4+y,3/4-x,1/4-z
1/2+x,y,1/2-z
1/4-y,1/4+x,3/4-z
1/2-x,1/2+y,1/2+z
1/2+x,-y,1/2+z
1/4-y,3/4-x,1/4+z
1/4+y,1/4+x,3/4+z
loop_
_atom_site_type_symbol
_atom_site_label
_atom_site_fract_x
_atom_site_fract_y
_atom_site_fract_z
Si Si1 0.669680 0.572527 0.755878
Si Si2 0.414579 0.335422 0.125000
Si Si3 0.688336 0.911296 0.169909
Si Si4 0.656897 0.664987 0.306887
O O1 0.750000 0.605420 0.750000
O O2 0.615547 0.620078 0.804291
O O3 0.649491 0.570711 0.668481
O O4 0.679086 0.494161 0.799109
O O5 0.402081 0.250000 0.134611
O O6 0.636622 0.863250 0.223773
O O7 0.770630 0.882184 0.179006
O O8 0.603354 0.646647 0.375000
O O9 0.672855 0.750000 0.305386
#
# Coordination Sequence:
#
# PCOD9573274 Si02
#       4
#    32  16  32  32
#     4  12  20  39  71  98 127 161 215 275 313 377
#     4  11  28  48  64  94 138 172 205 268 342 390
#     4  11  20  38  63  98 126 156 219 276 313 368
#     4  11  22  37  59  89 131 174 210 262 330 379
#
# _framework density 18.492850000000001
#
# number of rings (size 3 to 8) (size 9 to 14) (size 15 to 20)
#    0.000    0.714    8.571    1.714    0.000    3.143 
#    0.000    1.429    0.000    0.000    0.000    0.000 
#    0.000    0.000    0.000    0.000    0.000    0.000 
#
# Total GULP energy -311911.986318 kJ/mol
# GULP energy per Si atom -5569.856899 kJ/mol
# Density = 1.845076 g / cm^3
# Si number density = 18.492850 Si / 1000 Ang^3
#
#
#
# Elastic Constant Matrix: (Units=GPa)
#
#
# Indices 1 2 3 4 5 6 
#
# 1 93.9609 66.0326 56.5327 0.0000 0.0000 0.0000
# 2 66.0326 93.9580 56.5314 0.0000 0.0000 0.0000
# 3 56.5327 56.5314 206.5581 0.0000 0.0000 0.0000
# 4 0.0000 0.0000 0.0000 18.8138 0.0000 0.0000
# 5 0.0000 0.0000 0.0000 0.0000 18.8138 0.0000
# 6 0.0000 0.0000 0.0000 0.0000 0.0000 19.6568
#
#
#
# Elastic Compliance Matrix: (Units=1/GPa)
#
#
# Indices 1 2 3 4 5 6 
#
# 1 0.021778 -0.014029 -0.002121 0.000000 0.000000 0.000000
# 2 -0.014029 0.021779 -0.002121 0.000000 0.000000 0.000000
# 3 -0.002121 -0.002121 0.006002 0.000000 0.000000 0.000000
# 4 0.000000 0.000000 0.000000 0.053153 0.000000 0.000000
# 5 0.000000 0.000000 0.000000 0.000000 0.053153 0.000000
# 6 0.000000 0.000000 0.000000 0.000000 0.000000 0.050873
#
#
# Mechanical properties :
#
#
# Convention : Reuss Voigt Hill
#
# Bulk Modulus (GPa) = 76.82262 83.63006 80.22634
# Shear Modulus (GPa) = 20.19238 25.81556 23.00397
#
# Velocity S-wave (km/s) = 3.30798 3.74033 3.53078
# Velocity P-wave (km/s) = 7.49815 7.99841 7.75232
#
# Compressibility (1/GPa) = 0.01301700
#
# Stress axis : x y z
#
# Youngs Moduli (GPa) = 45.91756 45.91627 166.60768
#
# Poissons Ratio (x) = 0.64418 0.35335
# Poissons Ratio (y) = 0.64420 0.35334
# Poissons Ratio (z) = 0.09738 0.09738
#
# Static dielectric constant tensor:
#      x y z
#    x 1.647840 0.000000 0.000000 
#    y 0.000000 1.647840 0.000000 
#    z 0.000000 0.000000 2.969870 
# 
# From -- ./inp_files/7937.got.cif
#   From: 2010.05.17/outbox.cif.g08.bks.cpg/sg141_4_cif.got.tgz:7937.got - 2010.05.20 13:30:51.
