data_PCOD9573574
_publ_section_title
;
Structure prediction by ZEFSAII (Michael W. Deem and Ramdas Pophale) SiO2 
 PCOD9573574
Probable space group: I 41/A C D
;
_chemical_formula_sum "Si O2"
_cell_formula_units_Z 112
_cell_length_a 30.528682
_cell_length_b 30.528682
_cell_length_c 5.275083
_cell_angle_alpha 90.000000
_cell_angle_beta 90.000000
_cell_angle_gamma 90.000000
_cell_volume 4916.379596
_symmetry_space_group_name_H-M "I 41/A C D"
_symmetry_group_IT_number 142
_space_group.IT_coordinate_system_code '2'
_symmetry_cell_setting 'tetragonal'
loop_
_space_group_symop_operation_xyz
x,y,z
1/4-y,3/4+x,1/4+z
-x,1/2-y,z
1/4+y,1/4-x,3/4+z
x,-y,1/2-z
1/2-x,y,-z
3/4+y,1/4+x,1/4-z
1/4-y,1/4-x,1/4-z
-x,-y,-z
3/4+y,1/4-x,3/4-z
x,1/2+y,-z
3/4-y,3/4+x,1/4-z
-x,y,1/2+z
1/2+x,-y,z
1/4-y,3/4-x,3/4+z
3/4+y,3/4+x,3/4+z
1/2+x,1/2+y,1/2+z
3/4-y,1/4+x,3/4+z
1/2-x,-y,1/2+z
3/4+y,3/4-x,1/4+z
1/2+x,1/2-y,-z
-x,1/2+y,1/2-z
1/4+y,3/4+x,3/4-z
3/4-y,3/4-x,3/4-z
1/2-x,1/2-y,1/2-z
1/4+y,3/4-x,1/4-z
1/2+x,y,1/2-z
1/4-y,1/4+x,3/4-z
1/2-x,1/2+y,z
x,1/2-y,1/2+z
3/4-y,1/4-x,1/4+z
1/4+y,1/4+x,1/4+z
loop_
_atom_site_type_symbol
_atom_site_label
_atom_site_fract_x
_atom_site_fract_y
_atom_site_fract_z
Si Si1 0.670715 0.877570 0.867430
Si Si2 0.250000 0.933022 0.500000
Si Si3 0.315770 0.226254 0.189517
Si Si4 0.418416 0.228675 0.273090
O O1 0.641834 0.891834 0.625000
O O2 0.683123 0.825884 0.869350
O O3 0.645348 0.895348 0.125000
O O4 0.717671 0.902117 0.840239
O O5 0.215495 0.965495 0.375000
O O6 0.297952 0.245003 0.455600
O O7 0.367326 0.235166 0.233768
O O8 0.430791 0.180791 0.375000
O O9 0.435836 0.258297 0.500635
#
# Coordination Sequence:
#
# PCOD9573574 Si02
#       4
#    32  16  32  32
#     4  11  23  40  67  98 132 175 222 270 328 400
#     4  10  22  42  70 104 138 170 208 266 334 402
#     4  10  21  38  58  85 122 166 218 268 317 374
#     4  10  20  31  46  68 100 143 191 248 307 363
#
# _framework density 22.780991
#
# number of rings (size 3 to 8) (size 9 to 14) (size 15 to 20)
#    0.000    1.714    0.000    4.286    0.000    9.714 
#    0.000    1.429    0.000    0.000    0.000    0.000 
#    0.000    0.000    0.000    0.000    0.000    0.000 
#
# Total GULP energy -311872.068133 kJ/mol
# GULP energy per Si atom -5569.144074 kJ/mol
# Density = 2.272914 g / cm^3
# Si number density = 22.780991 Si / 1000 Ang^3
#
#
#
# Elastic Constant Matrix: (Units=GPa)
#
#
# Indices 1 2 3 4 5 6 
#
# 1 163.6278 -0.3196 76.3702 0.0000 0.0000 0.0000
# 2 -0.3196 163.6278 76.3702 0.0000 0.0000 0.0000
# 3 76.3702 76.3702 163.0659 0.0000 0.0000 0.0000
# 4 0.0000 0.0000 0.0000 3.7726 0.0000 0.0000
# 5 0.0000 0.0000 0.0000 0.0000 3.7726 0.0000
# 6 0.0000 0.0000 0.0000 0.0000 0.0000 39.3186
#
#
#
# Elastic Compliance Matrix: (Units=1/GPa)
#
#
# Indices 1 2 3 4 5 6 
#
# 1 0.008498 0.002398 -0.005103 0.000000 0.000000 0.000000
# 2 0.002398 0.008498 -0.005103 0.000000 0.000000 0.000000
# 3 -0.005103 -0.005103 0.010913 0.000000 0.000000 0.000000
# 4 0.000000 0.000000 0.000000 0.265066 0.000000 0.000000
# 5 0.000000 0.000000 0.000000 0.000000 0.265066 0.000000
# 6 0.000000 0.000000 0.000000 0.000000 0.000000 0.025433
#
#
# Mechanical properties :
#
#
# Convention : Reuss Voigt Hill
#
# Bulk Modulus (GPa) = 81.35054 88.35146 84.85100
# Shear Modulus (GPa) = 8.28929 31.89947 20.09438
#
# Velocity S-wave (km/s) = 1.90960 3.74607 2.97318
# Velocity P-wave (km/s) = 6.37569 7.58801 7.00812
#
# Compressibility (1/GPa) = 0.01229248
#
# Stress axis : x y z
#
# Youngs Moduli (GPa) = 117.67554 117.67554 91.63755
#
# Poissons Ratio (x) = -0.28224 0.46765
# Poissons Ratio (y) = -0.28224 0.46765
# Poissons Ratio (z) = 0.60052 0.60052
#
# Static dielectric constant tensor:
#      x y z
#    x 1.910970 0.000000 0.000000 
#    y 0.000000 1.910970 0.000000 
#    z 0.000000 0.000000 1.745270 
# 
# From -- ./inp_files/745.got.cif
#   From: 2010.05.17/outbox.cif.g08.bks.cpg/sg142_1_cif.got.tgz:745.got - 2010.05.20 13:39:18.
