data_PCOD9573913
_publ_section_title
;
Structure prediction by ZEFSAII (Michael W. Deem and Ramdas Pophale) SiO2 
 PCOD9573913
Probable space group: I 41/A C D
;
_chemical_formula_sum "Si O2"
_cell_formula_units_Z 88
_cell_length_a 13.546884
_cell_length_b 13.546884
_cell_length_c 21.965632
_cell_angle_alpha 90.000000
_cell_angle_beta 90.000000
_cell_angle_gamma 90.000000
_cell_volume 4031.090306
_symmetry_space_group_name_H-M "I 41/A C D"
_symmetry_group_IT_number 142
_space_group.IT_coordinate_system_code '2'
_symmetry_cell_setting 'tetragonal'
loop_
_space_group_symop_operation_xyz
x,y,z
1/4-y,3/4+x,1/4+z
-x,1/2-y,z
1/4+y,1/4-x,3/4+z
x,-y,1/2-z
1/2-x,y,-z
3/4+y,1/4+x,1/4-z
1/4-y,1/4-x,1/4-z
-x,-y,-z
3/4+y,1/4-x,3/4-z
x,1/2+y,-z
3/4-y,3/4+x,1/4-z
-x,y,1/2+z
1/2+x,-y,z
1/4-y,3/4-x,3/4+z
3/4+y,3/4+x,3/4+z
1/2+x,1/2+y,1/2+z
3/4-y,1/4+x,3/4+z
1/2-x,-y,1/2+z
3/4+y,3/4-x,1/4+z
1/2+x,1/2-y,-z
-x,1/2+y,1/2-z
1/4+y,3/4+x,3/4-z
3/4-y,3/4-x,3/4-z
1/2-x,1/2-y,1/2-z
1/4+y,3/4-x,1/4-z
1/2+x,y,1/2-z
1/4-y,1/4+x,3/4-z
1/2-x,1/2+y,z
x,1/2-y,1/2+z
3/4-y,1/4-x,1/4+z
1/4+y,1/4+x,1/4+z
loop_
_atom_site_type_symbol
_atom_site_label
_atom_site_fract_x
_atom_site_fract_y
_atom_site_fract_z
Si Si1 0.750000 0.478308 0.500000
Si Si2 0.611904 0.331791 0.739580
Si Si3 0.882170 0.162647 0.056338
Si Si4 0.000000 0.750000 0.625000
O O1 0.656468 0.549797 0.501235
O O2 0.717601 0.401186 0.447714
O O3 0.519624 0.377685 0.776539
O O4 0.631903 0.223988 0.768103
O O5 0.573198 0.310072 0.670695
O O6 0.916571 0.166571 0.125000
#
# Coordination Sequence:
#
# PCOD9573913 Si02
#       4
#    16  32  32   8
#     4  12  24  36  62  96 122 154 208 258 314 372
#     4  10  22  43  63  90 125 167 208 259 315 374
#     4  10  23  42  61  87 125 166 209 256 312 376
#     4   8  20  44  66  84 128 172 204 254 316 376
#
# _framework density 21.830321999999999
#
# number of rings (size 3 to 8) (size 9 to 14) (size 15 to 20)
#    0.000    2.182    0.000    4.364    0.000   11.636 
#    0.000    0.000    0.000    0.000    0.000    0.000 
#    0.000    0.000    0.000    0.000    0.000    0.000 
#
# Total GULP energy -245283.725340 kJ/mol
# GULP energy per Si atom -5574.630121 kJ/mol
# Density = 2.178064 g / cm^3
# Si number density = 21.830322 Si / 1000 Ang^3
#
#
#
# Elastic Constant Matrix: (Units=GPa)
#
#
# Indices 1 2 3 4 5 6 
#
# 1 94.5924 71.4489 39.6114 0.0000 0.0000 0.0000
# 2 71.4489 94.5924 39.6114 0.0000 0.0000 0.0000
# 3 39.6114 39.6114 157.2245 0.0000 0.0000 0.0000
# 4 0.0000 0.0000 0.0000 -2.6314 0.0000 0.0000
# 5 0.0000 0.0000 0.0000 0.0000 -2.6314 0.0000
# 6 0.0000 0.0000 0.0000 0.0000 0.0000 70.7650
#
#
#
# Elastic Compliance Matrix: (Units=1/GPa)
#
#
# Indices 1 2 3 4 5 6 
#
# 1 0.025027 -0.018182 -0.001725 0.000000 0.000000 0.000000
# 2 -0.018182 0.025027 -0.001725 0.000000 0.000000 0.000000
# 3 -0.001725 -0.001725 0.007229 0.000000 0.000000 0.000000
# 4 0.000000 0.000000 0.000000 -0.380032 0.000000 0.000000
# 5 0.000000 0.000000 0.000000 0.000000 -0.380032 0.000000
# 6 0.000000 0.000000 0.000000 0.000000 0.000000 0.014131
#
#
# Mechanical properties :
#
#
# Convention : Reuss Voigt Hill
#
# Bulk Modulus (GPa) = 71.31814 71.97251 71.64532
# Shear Modulus (GPa) = -7.80379 26.14964 9.17292
#
# Velocity S-wave (km/s) = -1.89275 3.46476 2.05208
# Velocity P-wave (km/s) = 5.28806 7.00334 6.20525
#
# Compressibility (1/GPa) = 0.01402168
#
# Stress axis : x y z
#
# Youngs Moduli (GPa) = 39.95674 39.95674 138.32480
#
# Poissons Ratio (x) = 0.72648 0.23856
# Poissons Ratio (y) = 0.72648 0.23856
# Poissons Ratio (z) = 0.06891 0.06891
#
# Static dielectric constant tensor:
#      x y z
#    x 1.893870 0.000000 0.000000 
#    y 0.000000 1.893870 0.000000 
#    z 0.000000 0.000000 1.779160 
# 
# From -- ./inp_files/8274.got.cif
#   From: 2010.05.17/outbox.cif.g08.bks.cpg/sg142_5_cif.got.tgz:8274.got - 2010.05.20 13:39:18.
