data_PCOD9573925
_publ_section_title
;
Structure prediction by ZEFSAII (Michael W. Deem and Ramdas Pophale) SiO2 
 PCOD9573925
Probable space group: I 41/A C D
;
_chemical_formula_sum "Si O2"
_cell_formula_units_Z 112
_cell_length_a 14.758606
_cell_length_b 14.758606
_cell_length_c 21.198548
_cell_angle_alpha 90.000000
_cell_angle_beta 90.000000
_cell_angle_gamma 90.000000
_cell_volume 4617.392493
_symmetry_space_group_name_H-M "I 41/A C D"
_symmetry_group_IT_number 142
_space_group.IT_coordinate_system_code '2'
_symmetry_cell_setting 'tetragonal'
loop_
_space_group_symop_operation_xyz
x,y,z
1/4-y,3/4+x,1/4+z
-x,1/2-y,z
1/4+y,1/4-x,3/4+z
x,-y,1/2-z
1/2-x,y,-z
3/4+y,1/4+x,1/4-z
1/4-y,1/4-x,1/4-z
-x,-y,-z
3/4+y,1/4-x,3/4-z
x,1/2+y,-z
3/4-y,3/4+x,1/4-z
-x,y,1/2+z
1/2+x,-y,z
1/4-y,3/4-x,3/4+z
3/4+y,3/4+x,3/4+z
1/2+x,1/2+y,1/2+z
3/4-y,1/4+x,3/4+z
1/2-x,-y,1/2+z
3/4+y,3/4-x,1/4+z
1/2+x,1/2-y,-z
-x,1/2+y,1/2-z
1/4+y,3/4+x,3/4-z
3/4-y,3/4-x,3/4-z
1/2-x,1/2-y,1/2-z
1/4+y,3/4-x,1/4-z
1/2+x,y,1/2-z
1/4-y,1/4+x,3/4-z
1/2-x,1/2+y,z
x,1/2-y,1/2+z
3/4-y,1/4-x,1/4+z
1/4+y,1/4+x,1/4+z
loop_
_atom_site_type_symbol
_atom_site_label
_atom_site_fract_x
_atom_site_fract_y
_atom_site_fract_z
Si Si1 0.672171 0.358162 0.069927
Si Si2 0.486036 0.359099 0.472024
Si Si3 0.350342 0.399659 0.375000
Si Si4 0.392192 0.584724 0.791468
O O1 0.677078 0.250113 0.055715
O O2 0.773833 0.399351 0.070780
O O3 0.588204 0.382785 0.025250
O O4 0.646261 0.389258 0.140511
O O5 0.500000 0.250000 0.464153
O O6 0.448251 0.402626 0.408496
O O7 0.582264 0.386685 0.497324
O O8 0.362482 0.500000 0.750000
#
# Coordination Sequence:
#
# PCOD9573925 Si02
#       4
#    32  32  16  32
#     4  11  23  45  70 102 151 197 247 310 390 457
#     4  10  22  43  73 101 144 198 249 308 385 454
#     4  12  25  42  70 112 152 195 252 322 372 462
#     4  11  23  44  75 106 142 205 257 307 391 468
#
# _framework density 24.256115000000001
#
# number of rings (size 3 to 8) (size 9 to 14) (size 15 to 20)
#    0.000    1.143    2.857    4.714    0.000    3.429 
#    5.143    0.000    0.000    0.000    0.000    0.000 
#    0.000    0.000    0.000    0.000    0.000    0.000 
#
# Total GULP energy -312662.537950 kJ/mol
# GULP energy per Si atom -5583.259606 kJ/mol
# Density = 2.420091 g / cm^3
# Si number density = 24.256115 Si / 1000 Ang^3
#
#
#
# Elastic Constant Matrix: (Units=GPa)
#
#
# Indices 1 2 3 4 5 6 
#
# 1 128.0071 46.4493 47.1375 0.0000 0.0000 0.0000
# 2 46.4493 128.0076 47.1369 0.0000 0.0000 0.0000
# 3 47.1375 47.1369 99.3642 0.0000 0.0000 0.0000
# 4 0.0000 0.0000 0.0000 11.1967 0.0000 0.0000
# 5 0.0000 0.0000 0.0000 0.0000 11.1981 0.0000
# 6 0.0000 0.0000 0.0000 0.0000 0.0000 18.3411
#
#
#
# Elastic Compliance Matrix: (Units=1/GPa)
#
#
# Indices 1 2 3 4 5 6 
#
# 1 0.009985 -0.002277 -0.003657 0.000000 0.000000 0.000000
# 2 -0.002277 0.009985 -0.003657 0.000000 0.000000 0.000000
# 3 -0.003657 -0.003657 0.013533 0.000000 0.000000 0.000000
# 4 0.000000 0.000000 0.000000 0.089312 0.000000 0.000000
# 5 0.000000 0.000000 0.000000 0.000000 0.089301 0.000000
# 6 0.000000 0.000000 0.000000 0.000000 0.000000 0.054522
#
#
# Mechanical properties :
#
#
# Convention : Reuss Voigt Hill
#
# Bulk Modulus (GPa) = 69.81788 70.75846 70.28817
# Shear Modulus (GPa) = 17.20627 22.45753 19.83190
#
# Velocity S-wave (km/s) = 2.66627 3.04608 2.86248
# Velocity P-wave (km/s) = 6.19070 6.45029 6.32182
#
# Compressibility (1/GPa) = 0.01432298
#
# Stress axis : x y z
#
# Youngs Moduli (GPa) = 100.15329 100.15435 73.89185
#
# Poissons Ratio (x) = 0.22801 0.27020
# Poissons Ratio (y) = 0.22801 0.27019
# Poissons Ratio (z) = 0.36623 0.36622
#
# Static dielectric constant tensor:
#      x y z
#    x 1.975360 0.000000 0.000000 
#    y 0.000000 1.975360 0.000000 
#    z 0.000000 0.000000 1.930360 
# 
# From -- ./inp_files/11113.got.cif
#   From: 2010.05.17/outbox.cif.g08.bks.cpg/sg142_6_cif.got.tgz:11113.got - 2010.05.20 13:39:18.
