data_PCOD9573312
_publ_section_title
;
Structure prediction by ZEFSAII (Michael W. Deem and Ramdas Pophale) SiO2 
 PCOD9573312
Probable space group: I 41/A M D
;
_chemical_formula_sum "Si O2"
_cell_formula_units_Z 176
_cell_length_a 18.160722
_cell_length_b 18.160722
_cell_length_c 27.097725
_cell_angle_alpha 90.000000
_cell_angle_beta 90.000000
_cell_angle_gamma 90.000000
_cell_volume 8937.150097
_symmetry_space_group_name_H-M "I 41/A M D"
_symmetry_group_IT_number 141
_space_group.IT_coordinate_system_code '2'
_symmetry_cell_setting 'tetragonal'
loop_
_space_group_symop_operation_xyz
x,y,z
1/4-y,3/4+x,1/4+z
-x,1/2-y,z
1/4+y,1/4-x,3/4+z
x,-y,-z
-x,1/2+y,-z
1/4+y,3/4+x,1/4-z
1/4-y,1/4-x,3/4-z
-x,-y,-z
3/4+y,1/4-x,3/4-z
x,1/2+y,-z
3/4-y,3/4+x,1/4-z
-x,y,z
x,1/2-y,z
3/4-y,1/4-x,3/4+z
3/4+y,3/4+x,1/4+z
1/2+x,1/2+y,1/2+z
3/4-y,1/4+x,3/4+z
1/2-x,-y,1/2+z
3/4+y,3/4-x,1/4+z
1/2+x,1/2-y,1/2-z
1/2-x,y,1/2-z
3/4+y,1/4+x,3/4-z
3/4-y,3/4-x,1/4-z
1/2-x,1/2-y,1/2-z
1/4+y,3/4-x,1/4-z
1/2+x,y,1/2-z
1/4-y,1/4+x,3/4-z
1/2-x,1/2+y,1/2+z
1/2+x,-y,1/2+z
1/4-y,3/4-x,1/4+z
1/4+y,1/4+x,3/4+z
loop_
_atom_site_type_symbol
_atom_site_label
_atom_site_fract_x
_atom_site_fract_y
_atom_site_fract_z
Si Si1 0.823886 0.941295 0.816603
Si Si2 0.835190 0.663200 0.257533
Si Si3 0.652337 0.057602 0.201673
Si Si4 0.834277 0.663244 0.082098
Si Si5 0.086716 0.663285 0.625000
Si Si6 0.337964 0.836630 0.594203
O O1 0.737018 0.959159 0.812802
O O2 0.851148 0.932580 0.760352
O O3 0.833918 0.870466 0.851102
O O4 0.868890 0.008727 0.839812
O O5 0.839310 0.750000 0.247422
O O6 0.750000 0.639937 0.250000
O O7 0.884848 0.618733 0.219013
O O8 0.866337 0.645121 0.311463
O O9 0.627163 0.129519 0.172365
O O10 0.602966 0.990479 0.182038
O O11 0.890288 0.640288 0.125000
O O12 0.821492 0.750000 0.081327
O O13 0.100023 0.750000 0.620980
O O14 0.353929 0.750000 0.593768
#
# Coordination Sequence:
#
# PCOD9573312 Si02
#       6
#    32  32  32  32  16  32
#     4  11  24  41  69 100 130 173 231 284 329 395
#     4  11  24  43  67  94 129 175 226 277 337 411
#     4  11  22  41  69  97 131 178 226 277 328 404
#     4  12  25  41  65  96 133 173 221 279 338 403
#     4  11  24  42  68 102 140 178 221 282 348 406
#     4  12  24  41  66  98 136 176 222 276 341 408
#
# _framework density 19.693079000000001
#
# number of rings (size 3 to 8) (size 9 to 14) (size 15 to 20)
#    0.000    0.636    3.636    4.909    0.000    6.000 
#    0.000    1.818    0.000    0.000    0.000    0.000 
#    0.000    0.000    0.000    0.000    0.000    0.000 
#
# Total GULP energy -492393.345525 kJ/mol
# GULP energy per Si atom -5595.378926 kJ/mol
# Density = 1.964826 g / cm^3
# Si number density = 19.693079 Si / 1000 Ang^3
#
#
#
# Elastic Constant Matrix: (Units=GPa)
#
#
# Indices 1 2 3 4 5 6 
#
# 1 111.6817 50.0956 32.5644 0.0000 0.0000 0.0000
# 2 50.0956 111.6830 32.5641 0.0000 0.0000 0.0000
# 3 32.5644 32.5641 100.4524 0.0000 0.0000 0.0000
# 4 0.0000 0.0000 0.0000 22.0694 0.0000 0.0000
# 5 0.0000 0.0000 0.0000 0.0000 22.0700 0.0000
# 6 0.0000 0.0000 0.0000 0.0000 0.0000 17.6445
#
#
#
# Elastic Compliance Matrix: (Units=1/GPa)
#
#
# Indices 1 2 3 4 5 6 
#
# 1 0.011673 -0.004564 -0.002305 0.000000 0.000000 0.000000
# 2 -0.004564 0.011673 -0.002305 0.000000 0.000000 0.000000
# 3 -0.002305 -0.002305 0.011449 0.000000 0.000000 0.000000
# 4 0.000000 0.000000 0.000000 0.045312 0.000000 0.000000
# 5 0.000000 0.000000 0.000000 0.000000 0.045310 0.000000
# 6 0.000000 0.000000 0.000000 0.000000 0.000000 0.056675
#
#
# Mechanical properties :
#
#
# Convention : Reuss Voigt Hill
#
# Bulk Modulus (GPa) = 60.79413 61.58504 61.18958
# Shear Modulus (GPa) = 24.28106 26.26299 25.27202
#
# Velocity S-wave (km/s) = 3.51518 3.65583 3.58620
# Velocity P-wave (km/s) = 6.88572 7.01145 6.94887
#
# Compressibility (1/GPa) = 0.01644896
#
# Stress axis : x y z
#
# Youngs Moduli (GPa) = 85.66580 85.66709 87.34265
#
# Poissons Ratio (x) = 0.39099 0.20129
# Poissons Ratio (y) = 0.39099 0.20129
# Poissons Ratio (z) = 0.19743 0.19742
#
# Static dielectric constant tensor:
#      x y z
#    x 1.677030 0.000000 0.000000 
#    y 0.000000 1.677020 0.000000 
#    z 0.000000 0.000000 1.690750 
# 
# From -- ./inp_files/12861.got.cif
#   From: 2010.05.17/outbox.cif.g08.bks.cpg/sg141_7_cif.got.tgz:12861.got - 2010.05.20 13:30:51.
