data_PCOD9573967
_publ_section_title
;
Structure prediction by ZEFSAII (Michael W. Deem and Ramdas Pophale) SiO2 
 PCOD9573967
Probable space group: I 41/A C D
;
_chemical_formula_sum "Si O2"
_cell_formula_units_Z 120
_cell_length_a 23.655958
_cell_length_b 23.655958
_cell_length_c 9.325717
_cell_angle_alpha 90.000000
_cell_angle_beta 90.000000
_cell_angle_gamma 90.000000
_cell_volume 5218.711790
_symmetry_space_group_name_H-M "I 41/A C D"
_symmetry_group_IT_number 142
_space_group.IT_coordinate_system_code '2'
_symmetry_cell_setting 'tetragonal'
loop_
_space_group_symop_operation_xyz
x,y,z
1/4-y,3/4+x,1/4+z
-x,1/2-y,z
1/4+y,1/4-x,3/4+z
x,-y,1/2-z
1/2-x,y,-z
3/4+y,1/4+x,1/4-z
1/4-y,1/4-x,1/4-z
-x,-y,-z
3/4+y,1/4-x,3/4-z
x,1/2+y,-z
3/4-y,3/4+x,1/4-z
-x,y,1/2+z
1/2+x,-y,z
1/4-y,3/4-x,3/4+z
3/4+y,3/4+x,3/4+z
1/2+x,1/2+y,1/2+z
3/4-y,1/4+x,3/4+z
1/2-x,-y,1/2+z
3/4+y,3/4-x,1/4+z
1/2+x,1/2-y,-z
-x,1/2+y,1/2-z
1/4+y,3/4+x,3/4-z
3/4-y,3/4-x,3/4-z
1/2-x,1/2-y,1/2-z
1/4+y,3/4-x,1/4-z
1/2+x,y,1/2-z
1/4-y,1/4+x,3/4-z
1/2-x,1/2+y,z
x,1/2-y,1/2+z
3/4-y,1/4-x,1/4+z
1/4+y,1/4+x,1/4+z
loop_
_atom_site_type_symbol
_atom_site_label
_atom_site_fract_x
_atom_site_fract_y
_atom_site_fract_z
Si Si1 0.000000 0.750000 0.625000
Si Si2 0.619335 0.068581 0.495100
Si Si3 0.890603 0.804492 0.108975
Si Si4 0.999179 0.079428 0.112459
Si Si5 0.906849 0.000000 0.250000
O O1 0.053165 0.783374 0.688211
O O2 0.666050 0.083951 0.375000
O O3 0.609158 0.129354 0.573622
O O4 0.559351 0.049851 0.423691
O O5 0.630066 0.023020 0.618167
O O6 0.842746 0.781755 0.213797
O O7 0.881359 0.773227 0.957113
O O8 0.951128 0.048102 0.201714
#
# Coordination Sequence:
#
# PCOD9573967 Si02
#       5
#     8  32  32  32  16
#     4  12  20  34  56  86 132 206 192 242 304 390
#     4  10  23  41  57  93 134 170 232 281 325 403
#     4  11  23  37  58  91 140 174 227 256 311 405
#     4  11  22  40  60  94 130 181 223 265 319 405
#     4  12  22  40  68  86 132 186 218 280 350 388
#
# _framework density 22.994181000000001
#
# number of rings (size 3 to 8) (size 9 to 14) (size 15 to 20)
#    0.000    1.067    5.333    0.800    0.000    5.333 
#    0.000    0.000    0.000    0.000    0.000    0.000 
#   32.000    2.133    0.000    0.000    0.000    0.000 
#
# Total GULP energy -334410.730160 kJ/mol
# GULP energy per Si atom -5573.512169 kJ/mol
# Density = 2.294184 g / cm^3
# Si number density = 22.994181 Si / 1000 Ang^3
#
#
#
# Elastic Constant Matrix: (Units=GPa)
#
#
# Indices 1 2 3 4 5 6 
#
# 1 38.7302 30.6273 31.4075 0.0000 0.0000 0.0000
# 2 30.6273 38.7316 31.4075 0.0000 0.0000 0.0000
# 3 31.4075 31.4075 116.3935 0.0000 0.0000 0.0000
# 4 0.0000 0.0000 0.0000 9.2884 0.0000 0.0000
# 5 0.0000 0.0000 0.0000 0.0000 9.2885 0.0000
# 6 0.0000 0.0000 0.0000 0.0000 0.0000 14.1205
#
#
#
# Elastic Compliance Matrix: (Units=1/GPa)
#
#
# Indices 1 2 3 4 5 6 
#
# 1 0.071243 -0.052160 -0.005149 0.000000 0.000000 0.000000
# 2 -0.052160 0.071240 -0.005148 0.000000 0.000000 0.000000
# 3 -0.005149 -0.005148 0.011370 0.000000 0.000000 0.000000
# 4 0.000000 0.000000 0.000000 0.107661 0.000000 0.000000
# 5 0.000000 0.000000 0.000000 0.000000 0.107660 0.000000
# 6 0.000000 0.000000 0.000000 0.000000 0.000000 0.070819
#
#
# Mechanical properties :
#
#
# Convention : Reuss Voigt Hill
#
# Bulk Modulus (GPa) = 34.55781 42.30442 38.43112
# Shear Modulus (GPa) = 8.70240 13.23369 10.96804
#
# Velocity S-wave (km/s) = 1.94752 2.40161 2.18638
# Velocity P-wave (km/s) = 4.48538 5.11157 4.80868
#
# Compressibility (1/GPa) = 0.02893702
#
# Stress axis : x y z
#
# Youngs Moduli (GPa) = 14.03645 14.03713 87.94899
#
# Poissons Ratio (x) = 0.73218 0.45287
# Poissons Ratio (y) = 0.73215 0.45279
# Poissons Ratio (z) = 0.07228 0.07227
#
# Static dielectric constant tensor:
#      x y z
#    x 1.876260 0.000000 0.000000 
#    y 0.000000 1.876260 0.000000 
#    z 0.000000 0.000000 1.965010 
# 
# From -- ./inp_files/1881.got.cif
#   From: 2010.05.17/outbox.cif.g08.bks.cpg/sg142_1_cif.got.tgz:1881.got - 2010.05.20 13:39:18.
