data_PCOD9573965
_publ_section_title
;
Structure prediction by ZEFSAII (Michael W. Deem and Ramdas Pophale) SiO2 
 PCOD9573965
Probable space group: I 41/A C D
;
_chemical_formula_sum "Si O2"
_cell_formula_units_Z 96
_cell_length_a 12.178588
_cell_length_b 12.178588
_cell_length_c 22.970072
_cell_angle_alpha 90.000000
_cell_angle_beta 90.000000
_cell_angle_gamma 90.000000
_cell_volume 3406.875269
_symmetry_space_group_name_H-M "I 41/A C D"
_symmetry_group_IT_number 142
_space_group.IT_coordinate_system_code '2'
_symmetry_cell_setting 'tetragonal'
loop_
_space_group_symop_operation_xyz
x,y,z
1/4-y,3/4+x,1/4+z
-x,1/2-y,z
1/4+y,1/4-x,3/4+z
x,-y,1/2-z
1/2-x,y,-z
3/4+y,1/4+x,1/4-z
1/4-y,1/4-x,1/4-z
-x,-y,-z
3/4+y,1/4-x,3/4-z
x,1/2+y,-z
3/4-y,3/4+x,1/4-z
-x,y,1/2+z
1/2+x,-y,z
1/4-y,3/4-x,3/4+z
3/4+y,3/4+x,3/4+z
1/2+x,1/2+y,1/2+z
3/4-y,1/4+x,3/4+z
1/2-x,-y,1/2+z
3/4+y,3/4-x,1/4+z
1/2+x,1/2-y,-z
-x,1/2+y,1/2-z
1/4+y,3/4+x,3/4-z
3/4-y,3/4-x,3/4-z
1/2-x,1/2-y,1/2-z
1/4+y,3/4-x,1/4-z
1/2+x,y,1/2-z
1/4-y,1/4+x,3/4-z
1/2-x,1/2+y,z
x,1/2-y,1/2+z
3/4-y,1/4-x,1/4+z
1/4+y,1/4+x,1/4+z
loop_
_atom_site_type_symbol
_atom_site_label
_atom_site_fract_x
_atom_site_fract_y
_atom_site_fract_z
Si Si1 0.388843 0.944448 0.809855
Si Si2 0.604149 0.131183 0.741279
Si Si3 0.223419 0.238737 0.662577
O O1 0.486940 0.863654 0.790225
O O2 0.296819 0.872702 0.841443
O O3 0.447221 0.031488 0.852164
O O4 0.351767 0.000000 0.750000
O O5 0.701676 0.180655 0.702123
O O6 0.619345 0.197180 0.801598
O O7 0.616721 0.000000 0.750000
#
# Coordination Sequence:
#
# PCOD9573965 Si02
#       3
#    32  32  32
#     4  11  23  41  70 102 131 186 227 277 353 413
#     4  10  23  40  66 102 133 177 225 279 343 405
#     4  11  22  44  68  99 138 176 229 284 338 420
#
# _framework density 28.178312999999999
#
# number of rings (size 3 to 8) (size 9 to 14) (size 15 to 20)
#    0.000    1.333    3.333    2.000    0.000    5.333 
#    6.000    5.000    0.000   16.000    0.000    0.000 
#    0.000    0.000    0.000    0.000    0.000    0.000 
#
# Total GULP energy -269289.705472 kJ/mol
# GULP energy per Si atom -5610.202197 kJ/mol
# Density = 2.811418 g / cm^3
# Si number density = 28.178313 Si / 1000 Ang^3
#
#
#
# Elastic Constant Matrix: (Units=GPa)
#
#
# Indices 1 2 3 4 5 6 
#
# 1 119.4604 20.7033 21.5167 0.0000 0.0000 0.0000
# 2 20.7033 119.4604 21.5167 0.0000 0.0000 0.0000
# 3 21.5167 21.5167 143.0970 0.0000 0.0000 0.0000
# 4 0.0000 0.0000 0.0000 39.3776 0.0000 0.0000
# 5 0.0000 0.0000 0.0000 0.0000 39.3776 0.0000
# 6 0.0000 0.0000 0.0000 0.0000 0.0000 62.1530
#
#
#
# Elastic Compliance Matrix: (Units=1/GPa)
#
#
# Indices 1 2 3 4 5 6 
#
# 1 0.008803 -0.001323 -0.001125 0.000000 0.000000 0.000000
# 2 -0.001323 0.008803 -0.001125 0.000000 0.000000 0.000000
# 3 -0.001125 -0.001125 0.007326 0.000000 0.000000 0.000000
# 4 0.000000 0.000000 0.000000 0.025395 0.000000 0.000000
# 5 0.000000 0.000000 0.000000 0.000000 0.025395 0.000000
# 6 0.000000 0.000000 0.000000 0.000000 0.000000 0.016089
#
#
# Mechanical properties :
#
#
# Convention : Reuss Voigt Hill
#
# Bulk Modulus (GPa) = 56.21975 56.61014 56.41495
# Shear Modulus (GPa) = 47.67094 49.40039 48.53566
#
# Velocity S-wave (km/s) = 4.11756 4.19159 4.15474
# Velocity P-wave (km/s) = 6.52691 6.59996 6.56353
#
# Compressibility (1/GPa) = 0.01778734
#
# Stress axis : x y z
#
# Youngs Moduli (GPa) = 113.59976 113.59976 136.49090
#
# Poissons Ratio (x) = 0.15029 0.15351
# Poissons Ratio (y) = 0.15029 0.15351
# Poissons Ratio (z) = 0.12777 0.12777
#
# Static dielectric constant tensor:
#      x y z
#    x 2.212130 0.000000 0.000000 
#    y 0.000000 2.212130 0.000000 
#    z 0.000000 0.000000 2.295010 
# 
# From -- ./inp_files/8353.got.cif
#   From: 2010.05.17/outbox.cif.g08.bks.cpg/sg142_5_cif.got.tgz:8353.got - 2010.05.20 13:39:18.
