data_PCOD9573424
_publ_section_title
;
Structure prediction by ZEFSAII (Michael W. Deem and Ramdas Pophale) SiO2 
 PCOD9573424
Probable space group: I 41/A C D
;
_chemical_formula_sum "Si O2"
_cell_formula_units_Z 160
_cell_length_a 29.182765
_cell_length_b 29.182765
_cell_length_c 8.209403
_cell_angle_alpha 90.000000
_cell_angle_beta 90.000000
_cell_angle_gamma 90.000000
_cell_volume 6991.404851
_symmetry_space_group_name_H-M "I 41/A C D"
_symmetry_group_IT_number 142
_space_group.IT_coordinate_system_code '2'
_symmetry_cell_setting 'tetragonal'
loop_
_space_group_symop_operation_xyz
x,y,z
1/4-y,3/4+x,1/4+z
-x,1/2-y,z
1/4+y,1/4-x,3/4+z
x,-y,1/2-z
1/2-x,y,-z
3/4+y,1/4+x,1/4-z
1/4-y,1/4-x,1/4-z
-x,-y,-z
3/4+y,1/4-x,3/4-z
x,1/2+y,-z
3/4-y,3/4+x,1/4-z
-x,y,1/2+z
1/2+x,-y,z
1/4-y,3/4-x,3/4+z
3/4+y,3/4+x,3/4+z
1/2+x,1/2+y,1/2+z
3/4-y,1/4+x,3/4+z
1/2-x,-y,1/2+z
3/4+y,3/4-x,1/4+z
1/2+x,1/2-y,-z
-x,1/2+y,1/2-z
1/4+y,3/4+x,3/4-z
3/4-y,3/4-x,3/4-z
1/2-x,1/2-y,1/2-z
1/4+y,3/4-x,1/4-z
1/2+x,y,1/2-z
1/4-y,1/4+x,3/4-z
1/2-x,1/2+y,z
x,1/2-y,1/2+z
3/4-y,1/4-x,1/4+z
1/4+y,1/4+x,1/4+z
loop_
_atom_site_type_symbol
_atom_site_label
_atom_site_fract_x
_atom_site_fract_y
_atom_site_fract_z
Si Si1 0.654945 0.707402 0.392435
Si Si2 0.117676 0.056457 0.603912
Si Si3 0.484575 0.189247 0.534238
Si Si4 0.880981 0.869020 0.875000
Si Si5 0.036732 0.000000 0.250000
Si Si6 0.711411 0.648201 0.790566
O O1 0.672688 0.667211 0.275399
O O2 0.615097 0.734682 0.301256
O O3 0.628850 0.679194 0.535360
O O4 0.701715 0.734394 0.438110
O O5 0.159010 0.090991 0.625000
O O6 0.089707 0.048604 0.771530
O O7 0.134061 0.006095 0.549864
O O8 0.535516 0.207782 0.566499
O O9 0.457795 0.207795 0.375000
O O10 0.836657 0.872706 0.760946
O O11 0.065632 0.979122 0.403931
#
# Coordination Sequence:
#
# PCOD9573424 Si02
#       6
#    32  32  32  16  16  32
#     4  10  20  35  64  92 126 167 223 270 334 395
#     4  10  17  31  50  78 113 158 215 264 331 393
#     4  11  25  44  68  99 138 177 224 281 330 404
#     4  10  18  30  54  81 112 162 208 262 324 402
#     4   8  18  36  56  96 122 168 214 278 334 400
#     4   9  18  29  49  74 119 155 208 274 320 403
#
# _framework density 22.885242000000002
#
# number of rings (size 3 to 8) (size 9 to 14) (size 15 to 20)
#    0.000    2.200    2.000    1.800    2.800    0.000 
#    0.000    0.000    8.800    1.200    5.200    0.000 
#    0.000    0.000    0.000    0.000    0.000    0.000 
#
# Total GULP energy -445551.030410 kJ/mol
# GULP energy per Si atom -5569.387880 kJ/mol
# Density = 2.283315 g / cm^3
# Si number density = 22.885242 Si / 1000 Ang^3
#
#
#
# Elastic Constant Matrix: (Units=GPa)
#
#
# Indices 1 2 3 4 5 6 
#
# 1 114.0211 34.7888 13.8477 0.0000 0.0000 0.0000
# 2 34.7888 114.0234 13.8494 0.0000 0.0000 0.0000
# 3 13.8477 13.8494 96.8800 0.0000 0.0000 0.0000
# 4 0.0000 0.0000 0.0000 9.7266 0.0000 0.0000
# 5 0.0000 0.0000 0.0000 0.0000 9.7265 0.0000
# 6 0.0000 0.0000 0.0000 0.0000 0.0000 7.0210
#
#
#
# Elastic Compliance Matrix: (Units=1/GPa)
#
#
# Indices 1 2 3 4 5 6 
#
# 1 0.009762 -0.002859 -0.000987 0.000000 0.000000 0.000000
# 2 -0.002859 0.009762 -0.000987 0.000000 0.000000 0.000000
# 3 -0.000987 -0.000987 0.010604 0.000000 0.000000 0.000000
# 4 0.000000 0.000000 0.000000 0.102811 0.000000 0.000000
# 5 0.000000 0.000000 0.000000 0.000000 0.102812 0.000000
# 6 0.000000 0.000000 0.000000 0.000000 0.000000 0.142430
#
#
# Mechanical properties :
#
#
# Convention : Reuss Voigt Hill
#
# Bulk Modulus (GPa) = 48.86623 49.98848 49.42736
# Shear Modulus (GPa) = 12.66887 22.79071 17.72979
#
# Velocity S-wave (km/s) = 2.35539 3.15916 2.78641
# Velocity P-wave (km/s) = 5.36621 5.93276 5.65658
#
# Compressibility (1/GPa) = 0.02046403
#
# Stress axis : x y z
#
# Youngs Moduli (GPa) = 102.43432 102.43603 94.30252
#
# Poissons Ratio (x) = 0.29283 0.09305
# Poissons Ratio (y) = 0.29283 0.09307
# Poissons Ratio (z) = 0.10108 0.10110
#
# Static dielectric constant tensor:
#      x y z
#    x 1.846860 0.000000 0.000000 
#    y 0.000000 1.846870 0.000000 
#    z 0.000000 0.000000 1.540420 
# 
# From -- ./inp_files/2257.got.cif
#   From: 2010.05.17/outbox.cif.g08.bks.cpg/sg142_2_cif.got.tgz:2257.got - 2010.05.20 13:39:18.
