data_PCOD9573844
_publ_section_title
;
Structure prediction by ZEFSAII (Michael W. Deem and Ramdas Pophale) SiO2 
 PCOD9573844
Probable space group: I 41/A C D
;
_chemical_formula_sum "Si O2"
_cell_formula_units_Z 176
_cell_length_a 23.917765
_cell_length_b 23.917765
_cell_length_c 16.345237
_cell_angle_alpha 90.000000
_cell_angle_beta 90.000000
_cell_angle_gamma 90.000000
_cell_volume 9350.447821
_symmetry_space_group_name_H-M "I 41/A C D"
_symmetry_group_IT_number 142
_space_group.IT_coordinate_system_code '2'
_symmetry_cell_setting 'tetragonal'
loop_
_space_group_symop_operation_xyz
x,y,z
1/4-y,3/4+x,1/4+z
-x,1/2-y,z
1/4+y,1/4-x,3/4+z
x,-y,1/2-z
1/2-x,y,-z
3/4+y,1/4+x,1/4-z
1/4-y,1/4-x,1/4-z
-x,-y,-z
3/4+y,1/4-x,3/4-z
x,1/2+y,-z
3/4-y,3/4+x,1/4-z
-x,y,1/2+z
1/2+x,-y,z
1/4-y,3/4-x,3/4+z
3/4+y,3/4+x,3/4+z
1/2+x,1/2+y,1/2+z
3/4-y,1/4+x,3/4+z
1/2-x,-y,1/2+z
3/4+y,3/4-x,1/4+z
1/2+x,1/2-y,-z
-x,1/2+y,1/2-z
1/4+y,3/4+x,3/4-z
3/4-y,3/4-x,3/4-z
1/2-x,1/2-y,1/2-z
1/4+y,3/4-x,1/4-z
1/2+x,y,1/2-z
1/4-y,1/4+x,3/4-z
1/2-x,1/2+y,z
x,1/2-y,1/2+z
3/4-y,1/4-x,1/4+z
1/4+y,1/4+x,1/4+z
loop_
_atom_site_type_symbol
_atom_site_label
_atom_site_fract_x
_atom_site_fract_y
_atom_site_fract_z
Si Si1 0.130366 0.847087 0.783856
Si Si2 0.192514 0.714346 0.959877
Si Si3 0.240102 0.794525 0.820869
Si Si4 0.096156 0.346156 0.625000
Si Si5 0.353549 0.800802 0.911561
Si Si6 0.565944 0.264015 0.727147
O O1 0.109301 0.859301 0.875000
O O2 0.196991 0.840557 0.787878
O O3 0.103680 0.890469 0.720950
O O4 0.102653 0.789648 0.752388
O O5 0.209569 0.762771 0.895742
O O6 0.157303 0.668853 0.909564
O O7 0.250000 0.692836 0.000000
O O8 0.158061 0.746259 0.031534
O O9 0.250000 0.750000 0.750000
O O10 0.300600 0.811458 0.853537
O O11 0.056926 0.328770 0.549791
O O12 0.407788 0.788983 0.855963
O O13 0.500000 0.250000 0.724640
#
# Coordination Sequence:
#
# PCOD9573844 Si02
#       6
#    32  32  32  16  32  32
#     4  12  23  39  60  92 129 174 218 275 330 389
#     4  10  22  38  59  84 127 173 221 270 332 408
#     4  11  21  43  60  85 135 172 221 270 332 406
#     4  12  21  40  56  88 130 176 218 268 340 394
#     4  11  24  38  59  91 130 180 221 270 331 408
#     4  12  25  35  57  93 140 172 207 254 332 419
#
# _framework density 18.822628999999999
#
# number of rings (size 3 to 8) (size 9 to 14) (size 15 to 20)
#    0.000    0.727    5.455    2.455    5.091    0.000 
#    0.000    0.000    0.000    0.000    0.000    0.000 
#   65.455    0.000    0.000    0.000    0.000    0.000 
#
# Total GULP energy -491812.079919 kJ/mol
# GULP energy per Si atom -5588.773635 kJ/mol
# Density = 1.877979 g / cm^3
# Si number density = 18.822629 Si / 1000 Ang^3
#
#
#
# Elastic Constant Matrix: (Units=GPa)
#
#
# Indices 1 2 3 4 5 6 
#
# 1 100.5318 40.0253 46.0109 0.0000 0.0000 0.0000
# 2 40.0253 100.5318 46.0109 0.0000 0.0000 0.0000
# 3 46.0109 46.0109 133.4817 0.0000 0.0000 0.0000
# 4 0.0000 0.0000 0.0000 28.1211 0.0000 0.0000
# 5 0.0000 0.0000 0.0000 0.0000 28.1211 0.0000
# 6 0.0000 0.0000 0.0000 0.0000 0.0000 20.7451
#
#
#
# Elastic Compliance Matrix: (Units=1/GPa)
#
#
# Indices 1 2 3 4 5 6 
#
# 1 0.012858 -0.003670 -0.003167 0.000000 0.000000 0.000000
# 2 -0.003670 0.012858 -0.003167 0.000000 0.000000 0.000000
# 3 -0.003167 -0.003167 0.009675 0.000000 0.000000 0.000000
# 4 0.000000 0.000000 0.000000 0.035560 0.000000 0.000000
# 5 0.000000 0.000000 0.000000 0.000000 0.035560 0.000000
# 6 0.000000 0.000000 0.000000 0.000000 0.000000 0.048204
#
#
# Mechanical properties :
#
#
# Convention : Reuss Voigt Hill
#
# Bulk Modulus (GPa) = 65.00804 66.51550 65.76177
# Shear Modulus (GPa) = 27.80089 28.89736 28.34912
#
# Velocity S-wave (km/s) = 3.84734 3.92247 3.88509
# Velocity P-wave (km/s) = 7.37212 7.47858 7.42554
#
# Compressibility (1/GPa) = 0.01538271
#
# Stress axis : x y z
#
# Youngs Moduli (GPa) = 77.77516 77.77516 103.35873
#
# Poissons Ratio (x) = 0.28540 0.32735
# Poissons Ratio (y) = 0.28540 0.32735
# Poissons Ratio (z) = 0.24632 0.24632
#
# Static dielectric constant tensor:
#      x y z
#    x 1.682220 0.000000 0.000000 
#    y 0.000000 1.682220 0.000000 
#    z 0.000000 0.000000 1.678550 
# 
# From -- ./inp_files/5579.got.cif
#   From: 2010.05.17/outbox.cif.g08.bks.cpg/sg142_3_cif.got.tgz:5579.got - 2010.05.20 13:39:18.
