data_PCOD9573720
_publ_section_title
;
Structure prediction by ZEFSAII (Michael W. Deem and Ramdas Pophale) SiO2 
 PCOD9573720
Probable space group: I 41/A C D
;
_chemical_formula_sum "Si O2"
_cell_formula_units_Z 160
_cell_length_a 21.110699
_cell_length_b 21.110699
_cell_length_c 17.879162
_cell_angle_alpha 90.000000
_cell_angle_beta 90.000000
_cell_angle_gamma 90.000000
_cell_volume 7968.056163
_symmetry_space_group_name_H-M "I 41/A C D"
_symmetry_group_IT_number 142
_space_group.IT_coordinate_system_code '2'
_symmetry_cell_setting 'tetragonal'
loop_
_space_group_symop_operation_xyz
x,y,z
1/4-y,3/4+x,1/4+z
-x,1/2-y,z
1/4+y,1/4-x,3/4+z
x,-y,1/2-z
1/2-x,y,-z
3/4+y,1/4+x,1/4-z
1/4-y,1/4-x,1/4-z
-x,-y,-z
3/4+y,1/4-x,3/4-z
x,1/2+y,-z
3/4-y,3/4+x,1/4-z
-x,y,1/2+z
1/2+x,-y,z
1/4-y,3/4-x,3/4+z
3/4+y,3/4+x,3/4+z
1/2+x,1/2+y,1/2+z
3/4-y,1/4+x,3/4+z
1/2-x,-y,1/2+z
3/4+y,3/4-x,1/4+z
1/2+x,1/2-y,-z
-x,1/2+y,1/2-z
1/4+y,3/4+x,3/4-z
3/4-y,3/4-x,3/4-z
1/2-x,1/2-y,1/2-z
1/4+y,3/4-x,1/4-z
1/2+x,y,1/2-z
1/4-y,1/4+x,3/4-z
1/2-x,1/2+y,z
x,1/2-y,1/2+z
3/4-y,1/4-x,1/4+z
1/4+y,1/4+x,1/4+z
loop_
_atom_site_type_symbol
_atom_site_label
_atom_site_fract_x
_atom_site_fract_y
_atom_site_fract_z
Si Si1 0.287517 0.770122 0.574068
Si Si2 0.330321 0.192707 0.176892
Si Si3 0.194589 0.846879 0.847697
Si Si4 0.660918 0.660993 0.834758
Si Si5 0.316029 0.906772 0.543269
O O1 0.250000 0.749257 0.500000
O O2 0.235923 0.796973 0.633092
O O3 0.329618 0.714920 0.607985
O O4 0.325931 0.831832 0.552038
O O5 0.317094 0.166860 0.260109
O O6 0.356038 0.265235 0.177383
O O7 0.373711 0.142818 0.131338
O O8 0.159195 0.909195 0.875000
O O9 0.268868 0.844882 0.870294
O O10 0.675275 0.624867 0.757306
O O11 0.250000 0.917571 0.500000
O O12 0.313243 0.936758 0.625000
#
# Coordination Sequence:
#
# PCOD9573720 Si02
#       5
#    32  32  32  32  32
#     4  10  20  42  66  89 128 180 213 252 336 395
#     4  11  23  44  65  95 133 178 214 268 338 387
#     4  11  26  41  66  96 132 169 217 275 329 393
#     4  11  24  42  67  96 135 173 218 271 326 401
#     4  11  21  38  67  98 127 170 222 269 326 395
#
# _framework density 20.080179000000001
#
# number of rings (size 3 to 8) (size 9 to 14) (size 15 to 20)
#    0.000    1.200    4.000    4.800    5.600    1.200 
#    0.000    0.000    0.000    4.200    0.000    0.000 
#    0.000    0.000    0.000    0.000    0.000    0.000 
#
# Total GULP energy -446366.570998 kJ/mol
# GULP energy per Si atom -5579.582137 kJ/mol
# Density = 2.003448 g / cm^3
# Si number density = 20.080179 Si / 1000 Ang^3
#
#
#
# Elastic Constant Matrix: (Units=GPa)
#
#
# Indices 1 2 3 4 5 6 
#
# 1 87.9790 49.0761 29.0129 0.0000 0.0000 0.0000
# 2 49.0761 87.9777 29.0109 0.0000 0.0000 0.0000
# 3 29.0129 29.0109 105.5607 0.0000 0.0000 0.0000
# 4 0.0000 0.0000 0.0000 27.9578 0.0000 0.0000
# 5 0.0000 0.0000 0.0000 0.0000 27.9578 0.0000
# 6 0.0000 0.0000 0.0000 0.0000 0.0000 2.1328
#
#
#
# Elastic Compliance Matrix: (Units=1/GPa)
#
#
# Indices 1 2 3 4 5 6 
#
# 1 0.016981 -0.008724 -0.002270 0.000000 0.000000 0.000000
# 2 -0.008724 0.016981 -0.002269 0.000000 0.000000 0.000000
# 3 -0.002270 -0.002269 0.010721 0.000000 0.000000 0.000000
# 4 0.000000 0.000000 0.000000 0.035768 0.000000 0.000000
# 5 0.000000 0.000000 0.000000 0.000000 0.035768 0.000000
# 6 0.000000 0.000000 0.000000 0.000000 0.000000 0.468868
#
#
# Mechanical properties :
#
#
# Convention : Reuss Voigt Hill
#
# Bulk Modulus (GPa) = 55.07379 55.07968 55.07673
# Shear Modulus (GPa) = 8.09499 23.23751 15.66625
#
# Velocity S-wave (km/s) = 2.01000 3.40551 2.79621
# Velocity P-wave (km/s) = 5.73352 6.55383 6.15735
#
# Compressibility (1/GPa) = 0.01815746
#
# Stress axis : x y z
#
# Youngs Moduli (GPa) = 58.88847 58.88829 93.27813
#
# Poissons Ratio (x) = 0.51375 0.21170
# Poissons Ratio (y) = 0.51375 0.21166
# Poissons Ratio (z) = 0.13365 0.13362
#
# Static dielectric constant tensor:
#      x y z
#    x 1.722350 0.000000 0.000000 
#    y 0.000000 1.722350 0.000000 
#    z 0.000000 0.000000 1.839840 
# 
# From -- ./inp_files/7357.got.cif
#   From: 2010.05.17/outbox.cif.g08.bks.cpg/sg142_4_cif.got.tgz:7357.got - 2010.05.20 13:39:18.
