data_PCOD9573410
_publ_section_title
;
Structure prediction by ZEFSAII (Michael W. Deem and Ramdas Pophale) SiO2 
 PCOD9573410
Probable space group: I 41/A C D
;
_chemical_formula_sum "Si O2"
_cell_formula_units_Z 176
_cell_length_a 14.809197
_cell_length_b 14.809197
_cell_length_c 31.842370
_cell_angle_alpha 90.000000
_cell_angle_beta 90.000000
_cell_angle_gamma 90.000000
_cell_volume 6983.423905
_symmetry_space_group_name_H-M "I 41/A C D"
_symmetry_group_IT_number 142
_space_group.IT_coordinate_system_code '2'
_symmetry_cell_setting 'tetragonal'
loop_
_space_group_symop_operation_xyz
x,y,z
1/4-y,3/4+x,1/4+z
-x,1/2-y,z
1/4+y,1/4-x,3/4+z
x,-y,1/2-z
1/2-x,y,-z
3/4+y,1/4+x,1/4-z
1/4-y,1/4-x,1/4-z
-x,-y,-z
3/4+y,1/4-x,3/4-z
x,1/2+y,-z
3/4-y,3/4+x,1/4-z
-x,y,1/2+z
1/2+x,-y,z
1/4-y,3/4-x,3/4+z
3/4+y,3/4+x,3/4+z
1/2+x,1/2+y,1/2+z
3/4-y,1/4+x,3/4+z
1/2-x,-y,1/2+z
3/4+y,3/4-x,1/4+z
1/2+x,1/2-y,-z
-x,1/2+y,1/2-z
1/4+y,3/4+x,3/4-z
3/4-y,3/4-x,3/4-z
1/2-x,1/2-y,1/2-z
1/4+y,3/4-x,1/4-z
1/2+x,y,1/2-z
1/4-y,1/4+x,3/4-z
1/2-x,1/2+y,z
x,1/2-y,1/2+z
3/4-y,1/4-x,1/4+z
1/4+y,1/4+x,1/4+z
loop_
_atom_site_type_symbol
_atom_site_label
_atom_site_fract_x
_atom_site_fract_y
_atom_site_fract_z
Si Si1 0.444356 0.027336 0.107519
Si Si2 0.074840 0.132952 0.811927
Si Si3 0.460164 0.884224 0.176126
Si Si4 0.750000 0.145815 0.000000
Si Si5 0.413246 0.629246 0.965850
Si Si6 0.143663 0.193115 0.186166
O O1 0.421765 0.949993 0.140995
O O2 0.538527 0.987414 0.087761
O O3 0.433921 0.113234 0.138493
O O4 0.385901 0.049014 0.066010
O O5 0.972101 0.112498 0.795170
O O6 0.142803 0.067672 0.785649
O O7 0.097385 0.234607 0.799141
O O8 0.566596 0.871871 0.167999
O O9 0.407912 0.790055 0.180941
O O10 0.448121 0.931256 0.220317
O O11 0.418726 0.600620 0.014376
#
# Coordination Sequence:
#
# PCOD9573410 Si02
#       6
#    32  32  32  16  32  32
#     4  11  23  31  57  92 124 146 187 247 305 339
#     4  10  20  37  62  88 115 151 200 245 287 343
#     4  10  20  37  62  88 115 151 200 245 287 343
#     4  10  16  34  62  94 106 150 194 246 288 344
#     4  11  20  39  61  90 115 151 202 249 286 339
#     4  11  20  39  61  90 115 151 202 249 286 339
#
# _framework density 25.202535999999998
#
# number of rings (size 3 to 8) (size 9 to 14) (size 15 to 20)
#    0.000    1.455    3.636    3.818    0.000    2.909 
#    0.000    0.000    0.000   39.273    0.000    0.000 
#    0.000    0.000    0.000    0.000    0.000    0.000 
#
# Total GULP energy -490276.669548 kJ/mol
# GULP energy per Si atom -5571.325790 kJ/mol
# Density = 2.514517 g / cm^3
# Si number density = 25.202536 Si / 1000 Ang^3
#
#
#
# Elastic Constant Matrix: (Units=GPa)
#
#
# Indices 1 2 3 4 5 6 
#
# 1 51.8156 -11.6215 7.0812 0.0000 0.0000 0.0000
# 2 -11.6215 51.8156 7.0812 0.0000 0.0000 0.0000
# 3 7.0812 7.0812 179.9624 0.0000 0.0000 0.0000
# 4 0.0000 0.0000 0.0000 32.7801 0.0000 0.0000
# 5 0.0000 0.0000 0.0000 0.0000 32.7801 0.0000
# 6 0.0000 0.0000 0.0000 0.0000 0.0000 11.6182
#
#
#
# Elastic Compliance Matrix: (Units=1/GPa)
#
#
# Indices 1 2 3 4 5 6 
#
# 1 0.020496 0.004733 -0.000993 0.000000 0.000000 0.000000
# 2 0.004733 0.020496 -0.000993 0.000000 0.000000 0.000000
# 3 -0.000993 -0.000993 0.005635 0.000000 0.000000 0.000000
# 4 0.000000 0.000000 0.000000 0.030506 0.000000 0.000000
# 5 0.000000 0.000000 0.000000 0.000000 0.030506 0.000000
# 6 0.000000 0.000000 0.000000 0.000000 0.000000 0.086072
#
#
# Mechanical properties :
#
#
# Convention : Reuss Voigt Hill
#
# Bulk Modulus (GPa) = 19.18570 32.07503 25.63036
# Shear Modulus (GPa) = 24.32009 34.17253 29.24631
#
# Velocity S-wave (km/s) = 3.10979 3.68627 3.41023
# Velocity P-wave (km/s) = 4.53029 5.55632 5.06933
#
# Compressibility (1/GPa) = 0.05212217
#
# Stress axis : x y z
#
# Youngs Moduli (GPa) = 48.78912 48.78912 177.46737
#
# Poissons Ratio (x) = -0.23091 0.17618
# Poissons Ratio (y) = -0.23091 0.17618
# Poissons Ratio (z) = 0.04843 0.04843
#
# Static dielectric constant tensor:
#      x y z
#    x 2.092800 0.000000 0.000000 
#    y 0.000000 2.092800 0.000000 
#    z 0.000000 0.000000 2.041750 
# 
# From -- ./inp_files/12546.got.cif
#   From: 2010.05.17/outbox.cif.g08.bks.cpg/sg142_7_cif.got.tgz:12546.got - 2010.05.20 13:39:18.
