data_PCOD9573014
_publ_section_title
;
Structure prediction by ZEFSAII (Michael W. Deem and Ramdas Pophale) SiO2 
 PCOD9573014
Probable space group: I 41/A M D
;
_chemical_formula_sum "Si O2"
_cell_formula_units_Z 240
_cell_length_a 21.391258
_cell_length_b 21.391258
_cell_length_c 26.754511
_cell_angle_alpha 90.000000
_cell_angle_beta 90.000000
_cell_angle_gamma 90.000000
_cell_volume 12242.487499
_symmetry_space_group_name_H-M "I 41/A M D"
_symmetry_group_IT_number 141
_space_group.IT_coordinate_system_code '2'
_symmetry_cell_setting 'tetragonal'
loop_
_space_group_symop_operation_xyz
x,y,z
1/4-y,3/4+x,1/4+z
-x,1/2-y,z
1/4+y,1/4-x,3/4+z
x,-y,-z
-x,1/2+y,-z
1/4+y,3/4+x,1/4-z
1/4-y,1/4-x,3/4-z
-x,-y,-z
3/4+y,1/4-x,3/4-z
x,1/2+y,-z
3/4-y,3/4+x,1/4-z
-x,y,z
x,1/2-y,z
3/4-y,1/4-x,3/4+z
3/4+y,3/4+x,1/4+z
1/2+x,1/2+y,1/2+z
3/4-y,1/4+x,3/4+z
1/2-x,-y,1/2+z
3/4+y,3/4-x,1/4+z
1/2+x,1/2-y,1/2-z
1/2-x,y,1/2-z
3/4+y,1/4+x,3/4-z
3/4-y,3/4-x,1/4-z
1/2-x,1/2-y,1/2-z
1/4+y,3/4-x,1/4-z
1/2+x,y,1/2-z
1/4-y,1/4+x,3/4-z
1/2-x,1/2+y,1/2+z
1/2+x,-y,1/2+z
1/4-y,3/4-x,1/4+z
1/4+y,1/4+x,3/4+z
loop_
_atom_site_type_symbol
_atom_site_label
_atom_site_fract_x
_atom_site_fract_y
_atom_site_fract_z
Si Si1 0.320261 0.108943 0.748337
Si Si2 0.826312 0.176370 0.853943
Si Si3 0.185488 0.678307 0.351936
Si Si4 0.573648 0.872103 0.771264
Si Si5 0.568242 0.489534 0.872086
Si Si6 0.606135 0.319297 0.330976
Si Si7 0.639042 0.389042 0.125000
Si Si8 0.733063 0.179685 0.495645
O O1 0.250000 0.081245 0.750000
O O2 0.321555 0.161829 0.705525
O O3 0.330185 0.137175 0.803421
O O4 0.374153 0.059760 0.734853
O O5 0.839785 0.250000 0.862865
O O6 0.879368 0.129368 0.875000
O O7 0.755001 0.161705 0.872641
O O8 0.191513 0.750000 0.335571
O O9 0.128455 0.673629 0.390731
O O10 0.500000 0.865265 0.778448
O O11 0.595705 0.826860 0.727734
O O12 0.606408 0.865603 0.824488
O O13 0.584038 0.943214 0.751626
O O14 0.500000 0.520525 0.880638
O O15 0.572944 0.429179 0.905976
O O16 0.622970 0.538380 0.879823
O O17 0.568315 0.470148 0.814073
O O18 0.583953 0.250000 0.347440
O O19 0.720899 0.250000 0.515782
#
# Coordination Sequence:
#
# PCOD9573014 Si02
#       8
#    32  32  32  32  32  32  16  32
#     4  10  20  37  61  91 117 156 204 254 295 355
#     4  10  23  41  60  88 125 165 206 253 304 359
#     4  10  21  39  62  88 120 160 201 252 310 356
#     4  10  23  40  59  85 118 157 199 246 297 356
#     4   9  19  38  61  86 118 154 191 244 306 354
#     4  11  23  40  60  90 126 157 197 253 308 363
#     4  10  20  40  62  87 112 160 200 238 291 366
#     4   9  18  37  60  83 118 160 201 244 299 363
#
# _framework density 19.603860000000001
#
# number of rings (size 3 to 8) (size 9 to 14) (size 15 to 20)
#    0.000    2.133    1.333    2.000    1.867    4.933 
#    6.000    1.333    0.000    4.200    0.000    0.000 
#    0.000    0.000    0.000    0.000    0.000    0.000 
#
# Total GULP energy -669436.185817 kJ/mol
# GULP energy per Si atom -5578.634882 kJ/mol
# Density = 1.955924 g / cm^3
# Si number density = 19.603860 Si / 1000 Ang^3
#
#
#
# Elastic Constant Matrix: (Units=GPa)
#
#
# Indices 1 2 3 4 5 6 
#
# 1 134.4064 20.8814 22.9817 0.0000 0.0000 0.0000
# 2 20.8814 134.4064 22.9817 0.0000 0.0000 0.0000
# 3 22.9817 22.9817 64.3870 0.0000 0.0000 0.0000
# 4 0.0000 0.0000 0.0000 22.8288 0.0000 0.0000
# 5 0.0000 0.0000 0.0000 0.0000 22.8288 0.0000
# 6 0.0000 0.0000 0.0000 0.0000 0.0000 7.6611
#
#
#
# Elastic Compliance Matrix: (Units=1/GPa)
#
#
# Indices 1 2 3 4 5 6 
#
# 1 0.008004 -0.000804 -0.002570 0.000000 0.000000 0.000000
# 2 -0.000804 0.008004 -0.002570 0.000000 0.000000 0.000000
# 3 -0.002570 -0.002570 0.017366 0.000000 0.000000 0.000000
# 4 0.000000 0.000000 0.000000 0.043804 0.000000 0.000000
# 5 0.000000 0.000000 0.000000 0.000000 0.043804 0.000000
# 6 0.000000 0.000000 0.000000 0.000000 0.000000 0.130530
#
#
# Mechanical properties :
#
#
# Convention : Reuss Voigt Hill
#
# Bulk Modulus (GPa) = 46.54125 51.87661 49.20893
# Shear Modulus (GPa) = 18.47992 28.42073 23.45033
#
# Velocity S-wave (km/s) = 3.07362 3.81169 3.46238
# Velocity P-wave (km/s) = 6.03230 6.77435 6.41407
#
# Compressibility (1/GPa) = 0.02148632
#
# Stress axis : x y z
#
# Youngs Moduli (GPa) = 124.92984 124.92984 57.58468
#
# Poissons Ratio (x) = 0.10046 0.14799
# Poissons Ratio (y) = 0.10046 0.14799
# Poissons Ratio (z) = 0.32107 0.32107
#
# Static dielectric constant tensor:
#      x y z
#    x 1.694260 0.000000 0.000000 
#    y 0.000000 1.694260 0.000000 
#    z 0.000000 0.000000 1.705700 
# 
# From -- ./inp_files/13170.got.cif
#   From: 2010.05.17/outbox.cif.g08.bks.cpg/sg141_7_cif.got.tgz:13170.got - 2010.05.20 13:30:51.
