data_PCOD9573911
_publ_section_title
;
Structure prediction by ZEFSAII (Michael W. Deem and Ramdas Pophale) SiO2 
 PCOD9573911
Probable space group: I 41/A C D
;
_chemical_formula_sum "Si O2"
_cell_formula_units_Z 120
_cell_length_a 18.540982
_cell_length_b 18.540982
_cell_length_c 16.327176
_cell_angle_alpha 90.000000
_cell_angle_beta 90.000000
_cell_angle_gamma 90.000000
_cell_volume 5612.760860
_symmetry_space_group_name_H-M "I 41/A C D"
_symmetry_group_IT_number 142
_space_group.IT_coordinate_system_code '2'
_symmetry_cell_setting 'tetragonal'
loop_
_space_group_symop_operation_xyz
x,y,z
1/4-y,3/4+x,1/4+z
-x,1/2-y,z
1/4+y,1/4-x,3/4+z
x,-y,1/2-z
1/2-x,y,-z
3/4+y,1/4+x,1/4-z
1/4-y,1/4-x,1/4-z
-x,-y,-z
3/4+y,1/4-x,3/4-z
x,1/2+y,-z
3/4-y,3/4+x,1/4-z
-x,y,1/2+z
1/2+x,-y,z
1/4-y,3/4-x,3/4+z
3/4+y,3/4+x,3/4+z
1/2+x,1/2+y,1/2+z
3/4-y,1/4+x,3/4+z
1/2-x,-y,1/2+z
3/4+y,3/4-x,1/4+z
1/2+x,1/2-y,-z
-x,1/2+y,1/2-z
1/4+y,3/4+x,3/4-z
3/4-y,3/4-x,3/4-z
1/2-x,1/2-y,1/2-z
1/4+y,3/4-x,1/4-z
1/2+x,y,1/2-z
1/4-y,1/4+x,3/4-z
1/2-x,1/2+y,z
x,1/2-y,1/2+z
3/4-y,1/4-x,1/4+z
1/4+y,1/4+x,1/4+z
loop_
_atom_site_type_symbol
_atom_site_label
_atom_site_fract_x
_atom_site_fract_y
_atom_site_fract_z
Si Si1 0.250000 0.790268 0.000000
Si Si2 0.000000 0.250000 0.375000
Si Si3 0.227681 0.802003 0.822378
Si Si4 0.703923 0.435563 0.081171
Si Si5 0.601783 0.632632 0.960276
O O1 0.266077 0.761617 0.090867
O O2 0.179360 0.836206 0.018395
O O3 0.951940 0.307405 0.425129
O O4 0.250000 0.750000 0.750000
O O5 0.273487 0.877046 0.815813
O O6 0.147972 0.822324 0.794988
O O7 0.756423 0.493578 0.125000
O O8 0.678471 0.370967 0.141605
O O9 0.750000 0.413574 0.000000
#
# Coordination Sequence:
#
# PCOD9573911 Si02
#       5
#    16   8  32  32  32
#     4  10  22  42  76  96 132 192 246 302 366 428
#     4  12  28  48  66 108 156 214 244 304 370 456
#     4  11  22  40  66 103 139 187 240 297 370 439
#     4  11  21  40  71 111 140 180 240 311 371 432
#     4  11  22  44  70 101 148 195 245 298 374 447
#
# _framework density 21.379852
#
# number of rings (size 3 to 8) (size 9 to 14) (size 15 to 20)
#    0.000    1.067    2.667    7.200    1.867    0.000 
#    9.600    2.667    0.000    0.000    0.000    0.000 
#    0.000    0.000    0.000    0.000    0.000    0.000 
#
# Total GULP energy -334232.611284 kJ/mol
# GULP energy per Si atom -5570.543521 kJ/mol
# Density = 2.133119 g / cm^3
# Si number density = 21.379852 Si / 1000 Ang^3
#
#
#
# Elastic Constant Matrix: (Units=GPa)
#
#
# Indices 1 2 3 4 5 6 
#
# 1 -120.0232 257.7289 58.6349 0.0000 0.0000 0.0000
# 2 257.7289 -120.0179 58.6467 0.0000 0.0000 0.0000
# 3 58.6349 58.6467 198.9402 0.0000 0.0000 0.0000
# 4 0.0000 0.0000 0.0000 26.5410 0.0000 0.0000
# 5 0.0000 0.0000 0.0000 0.0000 26.5384 0.0000
# 6 0.0000 0.0000 0.0000 0.0000 0.0000 -68.9398
#
#
#
# Elastic Compliance Matrix: (Units=1/GPa)
#
#
# Indices 1 2 3 4 5 6 
#
# 1 0.003524 0.006172 -0.002858 0.000000 0.000000 0.000000
# 2 0.006172 0.003524 -0.002858 0.000000 0.000000 0.000000
# 3 -0.002858 -0.002858 0.006712 0.000000 0.000000 0.000000
# 4 0.000000 0.000000 0.000000 0.037678 0.000000 0.000000
# 5 0.000000 0.000000 0.000000 0.000000 0.037681 0.000000
# 6 0.000000 0.000000 0.000000 0.000000 0.000000 -0.014505
#
#
# Mechanical properties :
#
#
# Convention : Reuss Voigt Hill
#
# Bulk Modulus (GPa) = 68.16110 78.76888 73.46499
# Shear Modulus (GPa) = 63.61921 -30.91282 16.35319
#
# Velocity S-wave (km/s) = 5.46088 -3.80661 2.76866
# Velocity P-wave (km/s) = 8.46828 4.19550 6.68259
#
# Compressibility (1/GPa) = 0.01467112
#
# Stress axis : x y z
#
# Youngs Moduli (GPa) = 283.74593 283.74941 148.99787
#
# Poissons Ratio (x) = -1.75116 0.42585
# Poissons Ratio (y) = -1.75114 0.42582
# Poissons Ratio (z) = 0.81096 0.81093
#
# Static dielectric constant tensor:
#      x y z
#    x 1.901590 0.000000 0.000000 
#    y 0.000000 1.901570 0.000000 
#    z 0.000000 0.000000 1.839790 
# 
# From -- ./inp_files/5075.got.cif
#   From: 2010.05.17/outbox.cif.g08.bks.cpg/sg142_3_cif.got.tgz:5075.got - 2010.05.20 13:39:18.
