data_PCOD9573923
_publ_section_title
;
Structure prediction by ZEFSAII (Michael W. Deem and Ramdas Pophale) SiO2 
 PCOD9573923
Probable space group: I 41/A C D
;
_chemical_formula_sum "Si O2"
_cell_formula_units_Z 96
_cell_length_a 13.421154
_cell_length_b 13.421154
_cell_length_c 21.680545
_cell_angle_alpha 90.000000
_cell_angle_beta 90.000000
_cell_angle_gamma 90.000000
_cell_volume 3905.259653
_symmetry_space_group_name_H-M "I 41/A C D"
_symmetry_group_IT_number 142
_space_group.IT_coordinate_system_code '2'
_symmetry_cell_setting 'tetragonal'
loop_
_space_group_symop_operation_xyz
x,y,z
1/4-y,3/4+x,1/4+z
-x,1/2-y,z
1/4+y,1/4-x,3/4+z
x,-y,1/2-z
1/2-x,y,-z
3/4+y,1/4+x,1/4-z
1/4-y,1/4-x,1/4-z
-x,-y,-z
3/4+y,1/4-x,3/4-z
x,1/2+y,-z
3/4-y,3/4+x,1/4-z
-x,y,1/2+z
1/2+x,-y,z
1/4-y,3/4-x,3/4+z
3/4+y,3/4+x,3/4+z
1/2+x,1/2+y,1/2+z
3/4-y,1/4+x,3/4+z
1/2-x,-y,1/2+z
3/4+y,3/4-x,1/4+z
1/2+x,1/2-y,-z
-x,1/2+y,1/2-z
1/4+y,3/4+x,3/4-z
3/4-y,3/4-x,3/4-z
1/2-x,1/2-y,1/2-z
1/4+y,3/4-x,1/4-z
1/2+x,y,1/2-z
1/4-y,1/4+x,3/4-z
1/2-x,1/2+y,z
x,1/2-y,1/2+z
3/4-y,1/4-x,1/4+z
1/4+y,1/4+x,1/4+z
loop_
_atom_site_type_symbol
_atom_site_label
_atom_site_fract_x
_atom_site_fract_y
_atom_site_fract_z
Si Si1 0.190852 0.610424 0.116617
Si Si2 0.120130 0.249916 0.280667
Si Si3 0.992350 0.593767 0.889518
O O1 0.270002 0.520002 0.125000
O O2 0.146208 0.649996 0.181314
O O3 0.255622 0.709455 0.099851
O O4 0.099788 0.599057 0.069176
O O5 0.166356 0.249166 0.212835
O O6 0.000000 0.250000 0.274572
O O7 0.882389 0.632389 0.875000
O O8 0.067808 0.682193 0.875000
#
# Coordination Sequence:
#
# PCOD9573923 Si02
#       3
#    32  32  32
#     4  11  25  43  73 110 149 197 257 307 366 453
#     4  12  22  48  77 104 152 204 242 311 385 445
#     4  10  22  43  71 106 150 190 242 305 369 441
#
# _framework density 24.582232000000001
#
# number of rings (size 3 to 8) (size 9 to 14) (size 15 to 20)
#    0.000    1.000    6.667    1.000    0.000    6.667 
#    0.000    3.333    0.000    0.000    0.000    0.000 
#    0.000    0.000    0.000    0.000    0.000    0.000 
#
# Total GULP energy -268063.409663 kJ/mol
# GULP energy per Si atom -5584.654368 kJ/mol
# Density = 2.452628 g / cm^3
# Si number density = 24.582232 Si / 1000 Ang^3
#
#
#
# Elastic Constant Matrix: (Units=GPa)
#
#
# Indices 1 2 3 4 5 6 
#
# 1 145.3735 85.4587 61.8214 0.0000 0.0000 0.0000
# 2 85.4587 145.3735 61.8225 0.0000 0.0000 0.0000
# 3 61.8214 61.8225 168.1549 0.0000 0.0000 0.0000
# 4 0.0000 0.0000 0.0000 30.3564 0.0000 0.0000
# 5 0.0000 0.0000 0.0000 0.0000 30.3559 0.0000
# 6 0.0000 0.0000 0.0000 0.0000 0.0000 96.9627
#
#
#
# Elastic Compliance Matrix: (Units=1/GPa)
#
#
# Indices 1 2 3 4 5 6 
#
# 1 0.011042 -0.005648 -0.001983 0.000000 0.000000 0.000000
# 2 -0.005648 0.011042 -0.001983 0.000000 0.000000 0.000000
# 3 -0.001983 -0.001983 0.007405 0.000000 0.000000 0.000000
# 4 0.000000 0.000000 0.000000 0.032942 0.000000 0.000000
# 5 0.000000 0.000000 0.000000 0.000000 0.032943 0.000000
# 6 0.000000 0.000000 0.000000 0.000000 0.000000 0.010313
#
#
# Mechanical properties :
#
#
# Convention : Reuss Voigt Hill
#
# Bulk Modulus (GPa) = 97.45582 97.45633 97.45607
# Shear Modulus (GPa) = 38.95990 48.18830 43.57410
#
# Velocity S-wave (km/s) = 3.98537 4.43232 4.21478
# Velocity P-wave (km/s) = 7.80439 8.11942 7.96346
#
# Compressibility (1/GPa) = 0.01026106
#
# Stress axis : x y z
#
# Youngs Moduli (GPa) = 90.56014 90.55957 135.04031
#
# Poissons Ratio (x) = 0.51147 0.26781
# Poissons Ratio (y) = 0.51148 0.26783
# Poissons Ratio (z) = 0.17960 0.17961
#
# Static dielectric constant tensor:
#      x y z
#    x 2.062360 0.000000 0.000000 
#    y 0.000000 2.062360 0.000000 
#    z 0.000000 0.000000 1.880150 
# 
# From -- ./inp_files/8406.got.cif
#   From: 2010.05.17/outbox.cif.g08.bks.cpg/sg142_5_cif.got.tgz:8406.got - 2010.05.20 13:39:18.
