data_PCOD9573367
_publ_section_title
;
Structure prediction by ZEFSAII (Michael W. Deem and Ramdas Pophale) SiO2 
 PCOD9573367
Probable space group: I 41/A M D
;
_chemical_formula_sum "Si O2"
_cell_formula_units_Z 96
_cell_length_a 26.171966
_cell_length_b 26.171966
_cell_length_c 6.858586
_cell_angle_alpha 90.000000
_cell_angle_beta 90.000000
_cell_angle_gamma 90.000000
_cell_volume 4697.938027
_symmetry_space_group_name_H-M "I 41/A M D"
_symmetry_group_IT_number 141
_space_group.IT_coordinate_system_code '2'
_symmetry_cell_setting 'tetragonal'
loop_
_space_group_symop_operation_xyz
x,y,z
1/4-y,3/4+x,1/4+z
-x,1/2-y,z
1/4+y,1/4-x,3/4+z
x,-y,-z
-x,1/2+y,-z
1/4+y,3/4+x,1/4-z
1/4-y,1/4-x,3/4-z
-x,-y,-z
3/4+y,1/4-x,3/4-z
x,1/2+y,-z
3/4-y,3/4+x,1/4-z
-x,y,z
x,1/2-y,z
3/4-y,1/4-x,3/4+z
3/4+y,3/4+x,1/4+z
1/2+x,1/2+y,1/2+z
3/4-y,1/4+x,3/4+z
1/2-x,-y,1/2+z
3/4+y,3/4-x,1/4+z
1/2+x,1/2-y,1/2-z
1/2-x,y,1/2-z
3/4+y,1/4+x,3/4-z
3/4-y,3/4-x,1/4-z
1/2-x,1/2-y,1/2-z
1/4+y,3/4-x,1/4-z
1/2+x,y,1/2-z
1/4-y,1/4+x,3/4-z
1/2-x,1/2+y,1/2+z
1/2+x,-y,1/2+z
1/4-y,3/4-x,1/4+z
1/4+y,1/4+x,3/4+z
loop_
_atom_site_type_symbol
_atom_site_label
_atom_site_fract_x
_atom_site_fract_y
_atom_site_fract_z
Si Si1 0.441379 0.402307 0.324361
Si Si2 0.058550 0.877826 0.357649
Si Si3 0.259941 0.688054 0.527590
O O1 0.500000 0.402184 0.389847
O O2 0.412180 0.354172 0.413253
O O3 0.420049 0.460308 0.342100
O O4 0.442088 0.392130 0.089293
O O5 0.071737 0.930308 0.244589
O O6 0.000000 0.861280 0.313954
O O7 0.255964 0.750000 0.523376
O O8 0.250000 0.670992 0.750000
#
# Coordination Sequence:
#
# PCOD9573367 Si02
#       3
#    32  32  32
#     4   8  12  16  21  28  37  49  65  86 110 130
#     4   8  12  16  21  28  37  49  65  86 110 130
#     4   7  10  16  22  26  34  48  64  82 105 129
#
# _framework density 20.434497
#
# number of rings (size 3 to 8) (size 9 to 14) (size 15 to 20)
#    0.000    4.333    0.000    4.000    0.000    0.667 
#    0.000    3.333    0.000    0.000    0.000    0.000 
#    0.000    0.000    0.000    0.000    0.000    0.000 
#
# Total GULP energy -267419.630285 kJ/mol
# GULP energy per Si atom -5571.242298 kJ/mol
# Density = 2.038799 g / cm^3
# Si number density = 20.434497 Si / 1000 Ang^3
#
#
#
# Elastic Constant Matrix: (Units=GPa)
#
#
# Indices 1 2 3 4 5 6 
#
# 1 146.8026 106.6521 22.3410 0.0000 0.0000 0.0000
# 2 106.6521 146.8026 22.3410 0.0000 0.0000 0.0000
# 3 22.3410 22.3410 86.8740 0.0000 0.0000 0.0000
# 4 0.0000 0.0000 0.0000 21.1505 0.0000 0.0000
# 5 0.0000 0.0000 0.0000 0.0000 21.1505 0.0000
# 6 0.0000 0.0000 0.0000 0.0000 0.0000 -5.5175
#
#
#
# Elastic Compliance Matrix: (Units=1/GPa)
#
#
# Indices 1 2 3 4 5 6 
#
# 1 0.014520 -0.010387 -0.001063 0.000000 0.000000 0.000000
# 2 -0.010387 0.014520 -0.001063 0.000000 0.000000 0.000000
# 3 -0.001063 -0.001063 0.012058 0.000000 0.000000 0.000000
# 4 0.000000 0.000000 0.000000 0.047280 0.000000 0.000000
# 5 0.000000 0.000000 0.000000 0.000000 0.047280 0.000000
# 6 0.000000 0.000000 0.000000 0.000000 0.000000 -0.181242
#
#
# Mechanical properties :
#
#
# Convention : Reuss Voigt Hill
#
# Bulk Modulus (GPa) = 62.22017 75.90525 69.06271
# Shear Modulus (GPa) = -328.89385 22.63305 -153.13040
#
# Velocity S-wave (km/s) = -12.70038 3.33166 -8.66602
# Velocity P-wave (km/s) = 13.58498 7.21292 8.14019
#
# Compressibility (1/GPa) = 0.01607196
#
# Stress axis : x y z
#
# Youngs Moduli (GPa) = 68.87259 68.87259 82.93551
#
# Poissons Ratio (x) = 0.71536 0.08815
# Poissons Ratio (y) = 0.71536 0.08815
# Poissons Ratio (z) = 0.07320 0.07320
#
# Static dielectric constant tensor:
#      x y z
#    x 1.704790 0.000000 0.000000 
#    y 0.000000 1.704790 0.000000 
#    z 0.000000 0.000000 1.889930 
# 
# From -- ./inp_files/2651.got.cif
#   From: 2010.05.17/outbox.cif.g08.bks.cpg/sg141_2_cif.got.tgz:2651.got - 2010.05.20 13:30:51.
