data_PCOD9573390
_publ_section_title
;
Structure prediction by ZEFSAII (Michael W. Deem and Ramdas Pophale) SiO2 
 PCOD9573390
Probable space group: I 41/A M D
;
_chemical_formula_sum "Si O2"
_cell_formula_units_Z 80
_cell_length_a 24.000000
_cell_length_b 24.000000
_cell_length_c 15.000000
_cell_angle_alpha 90.000000
_cell_angle_beta 90.000000
_cell_angle_gamma 90.000000
_cell_volume 8640.000000
_symmetry_space_group_name_H-M "I 41/A M D"
_symmetry_group_IT_number 141
_space_group.IT_coordinate_system_code '2'
_symmetry_cell_setting 'tetragonal'
loop_
_space_group_symop_operation_xyz
x,y,z
1/4-y,3/4+x,1/4+z
-x,1/2-y,z
1/4+y,1/4-x,3/4+z
x,-y,-z
-x,1/2+y,-z
1/4+y,3/4+x,1/4-z
1/4-y,1/4-x,3/4-z
-x,-y,-z
3/4+y,1/4-x,3/4-z
x,1/2+y,-z
3/4-y,3/4+x,1/4-z
-x,y,z
x,1/2-y,z
3/4-y,1/4-x,3/4+z
3/4+y,3/4+x,1/4+z
1/2+x,1/2+y,1/2+z
3/4-y,1/4+x,3/4+z
1/2-x,-y,1/2+z
3/4+y,3/4-x,1/4+z
1/2+x,1/2-y,1/2-z
1/2-x,y,1/2-z
3/4+y,1/4+x,3/4-z
3/4-y,3/4-x,1/4-z
1/2-x,1/2-y,1/2-z
1/4+y,3/4-x,1/4-z
1/2+x,y,1/2-z
1/4-y,1/4+x,3/4-z
1/2-x,1/2+y,1/2+z
1/2+x,-y,1/2+z
1/4-y,3/4-x,1/4+z
1/4+y,1/4+x,3/4+z
loop_
_atom_site_type_symbol
_atom_site_label
_atom_site_fract_x
_atom_site_fract_y
_atom_site_fract_z
Si Si1 0.146859 0.130193 0.118228
Si Si2 0.250255 0.594950 0.356422
Si Si3 0.377805 0.317040 0.037318
Si Si4 0.565427 0.494756 0.763401
Si Si5 0.565496 0.815625 0.268998
O O1 0.165747 0.065570 0.125085
O O2 0.108676 0.143817 0.205133
O O3 0.201899 0.165271 0.090970
O O4 0.104518 0.143398 0.036598
O O5 0.250000 0.608523 0.250000
O O6 0.293133 0.543133 0.375000
O O7 0.264930 0.645172 0.425858
O O8 0.389962 0.250000 0.023728
O O9 0.409148 0.340853 0.125000
O O10 0.309867 0.321309 0.042317
O O11 0.500000 0.485338 0.742408
O O12 0.500000 0.828353 0.248731
O O13 0.574252 0.750000 0.249176
O O14 0.573199 0.823199 0.375000
#
# Coordination Sequence:
#
# PCOD9573390 Si02
#       5
#    32  32  32  32  32
#     4  11  22  39  65  94 132 167 215 274 327 388
#     4  11  23  42  64  94 133 172 223 269 318 389
#     4  10  24  45  66  92 125 166 219 272 327 387
#     4  10  23  42  63  95 130 166 213 265 332 395
#     4   9  19  35  57  91 133 174 215 259 320 398
#
# _framework density 9.2592590000000001
#
# number of rings (size 3 to 8) (size 9 to 14) (size 15 to 20)
#    0.000    1.800    2.000    1.800    2.800    4.600 
#    0.000    2.000    0.000    0.000    0.000    0.000 
#    0.000    0.000    0.000    0.000    0.000    0.000 
#
# Total GULP energy -446313.710704 kJ/mol
# GULP energy per Si atom -5578.921384 kJ/mol
# Density = 0.923818 g / cm^3
# Si number density = 9.259259 Si / 1000 Ang^3
#
#
#
# Elastic Constant Matrix: (Units=GPa)
#
#
# Indices 1 2 3 4 5 6 
#
# 1 111.6731 61.6221 48.5022 0.0000 0.0000 0.0000
# 2 61.6221 111.6732 48.5032 0.0000 0.0000 0.0000
# 3 48.5022 48.5032 106.5836 0.0000 0.0000 0.0000
# 4 0.0000 0.0000 0.0000 35.9030 0.0000 0.0000
# 5 0.0000 0.0000 0.0000 0.0000 35.9032 0.0000
# 6 0.0000 0.0000 0.0000 0.0000 0.0000 37.9487
#
#
#
# Elastic Compliance Matrix: (Units=1/GPa)
#
#
# Indices 1 2 3 4 5 6 
#
# 1 0.013861 -0.006118 -0.003523 0.000000 0.000000 0.000000
# 2 -0.006118 0.013861 -0.003524 0.000000 0.000000 0.000000
# 3 -0.003523 -0.003524 0.012589 0.000000 0.000000 0.000000
# 4 0.000000 0.000000 0.000000 0.027853 0.000000 0.000000
# 5 0.000000 0.000000 0.000000 0.000000 0.027853 0.000000
# 6 0.000000 0.000000 0.000000 0.000000 0.000000 0.026351
#
#
# Mechanical properties :
#
#
# Convention : Reuss Voigt Hill
#
# Bulk Modulus (GPa) = 71.52658 71.90944 71.71801
# Shear Modulus (GPa) = 32.60311 33.37113 32.98712
#
# Velocity S-wave (km/s) = 4.20046 4.24965 4.22513
# Velocity P-wave (km/s) = 7.88881 7.93692 7.91291
#
# Compressibility (1/GPa) = 0.01398082
#
# Stress axis : x y z
#
# Youngs Moduli (GPa) = 72.14405 72.14328 79.43326
#
# Poissons Ratio (x) = 0.44140 0.27987
# Poissons Ratio (y) = 0.44140 0.27990
# Poissons Ratio (z) = 0.25419 0.25421
#
# Static dielectric constant tensor:
#      x y z
#    x 1.647460 0.000000 0.000000 
#    y 0.000000 1.647460 0.000000 
#    z 0.000000 0.000000 1.638220 
# 
# From -- ./inp_files/6590.got.cif
#   From: 2010.05.17/outbox.ucp.g08.bks.cvg/sg141_4_cif.got.tgz:6590.got - 2010.06.11 11:43:24.
