data_PCOD9573646
_publ_section_title
;
Structure prediction by ZEFSAII (Michael W. Deem and Ramdas Pophale) SiO2 
 PCOD9573646
Probable space group: I 41/A C D
;
_chemical_formula_sum "Si O2"
_cell_formula_units_Z 64
_cell_length_a 16.095189
_cell_length_b 16.095189
_cell_length_c 9.250321
_cell_angle_alpha 90.000000
_cell_angle_beta 90.000000
_cell_angle_gamma 90.000000
_cell_volume 2396.342914
_symmetry_space_group_name_H-M "I 41/A C D"
_symmetry_group_IT_number 142
_space_group.IT_coordinate_system_code '2'
_symmetry_cell_setting 'tetragonal'
loop_
_space_group_symop_operation_xyz
x,y,z
1/4-y,3/4+x,1/4+z
-x,1/2-y,z
1/4+y,1/4-x,3/4+z
x,-y,1/2-z
1/2-x,y,-z
3/4+y,1/4+x,1/4-z
1/4-y,1/4-x,1/4-z
-x,-y,-z
3/4+y,1/4-x,3/4-z
x,1/2+y,-z
3/4-y,3/4+x,1/4-z
-x,y,1/2+z
1/2+x,-y,z
1/4-y,3/4-x,3/4+z
3/4+y,3/4+x,3/4+z
1/2+x,1/2+y,1/2+z
3/4-y,1/4+x,3/4+z
1/2-x,-y,1/2+z
3/4+y,3/4-x,1/4+z
1/2+x,1/2-y,-z
-x,1/2+y,1/2-z
1/4+y,3/4+x,3/4-z
3/4-y,3/4-x,3/4-z
1/2-x,1/2-y,1/2-z
1/4+y,3/4-x,1/4-z
1/2+x,y,1/2-z
1/4-y,1/4+x,3/4-z
1/2-x,1/2+y,z
x,1/2-y,1/2+z
3/4-y,1/4-x,1/4+z
1/4+y,1/4+x,1/4+z
loop_
_atom_site_type_symbol
_atom_site_label
_atom_site_fract_x
_atom_site_fract_y
_atom_site_fract_z
Si Si1 0.073924 0.354687 0.872504
Si Si2 0.388788 0.995100 0.090220
O O1 0.090385 0.265105 0.950130
O O2 0.160136 0.370858 0.789092
O O3 0.067295 0.432172 0.981106
O O4 0.301800 0.948201 0.125000
O O5 0.428612 0.000000 0.250000
#
# Coordination Sequence:
#
# PCOD9573646 Si02
#       2
#    32  32
#     4  10  20  37  66 102 139 183 236 300 359 422
#     4   9  19  39  62  91 135 185 237 290 348 426
#
# _framework density 26.707362
#
# number of rings (size 3 to 8) (size 9 to 14) (size 15 to 20)
#    0.000    2.500    0.000    1.500    0.000    0.000 
#    0.000   67.500    0.000   12.000    0.000    0.000 
#    0.000    0.000    0.000    0.000    0.000    0.000 
#
# Total GULP energy -178329.226822 kJ/mol
# GULP energy per Si atom -5572.788338 kJ/mol
# Density = 2.664657 g / cm^3
# Si number density = 26.707362 Si / 1000 Ang^3
#
#
#
# Elastic Constant Matrix: (Units=GPa)
#
#
# Indices 1 2 3 4 5 6 
#
# 1 213.0367 15.8251 25.0706 0.0000 0.0000 0.0000
# 2 15.8251 213.0373 25.0711 0.0000 0.0000 0.0000
# 3 25.0706 25.0711 95.8274 0.0000 0.0000 0.0000
# 4 0.0000 0.0000 0.0000 11.9819 0.0000 0.0000
# 5 0.0000 0.0000 0.0000 0.0000 11.9819 0.0000
# 6 0.0000 0.0000 0.0000 0.0000 0.0000 39.4320
#
#
#
# Elastic Compliance Matrix: (Units=1/GPa)
#
#
# Indices 1 2 3 4 5 6 
#
# 1 0.004853 -0.000218 -0.001213 0.000000 0.000000 0.000000
# 2 -0.000218 0.004853 -0.001213 0.000000 0.000000 0.000000
# 3 -0.001213 -0.001213 0.011070 0.000000 0.000000 0.000000
# 4 0.000000 0.000000 0.000000 0.083459 0.000000 0.000000
# 5 0.000000 0.000000 0.000000 0.000000 0.083459 0.000000
# 6 0.000000 0.000000 0.000000 0.000000 0.000000 0.025360
#
#
# Mechanical properties :
#
#
# Convention : Reuss Voigt Hill
#
# Bulk Modulus (GPa) = 64.55965 72.64833 68.60399
# Shear Modulus (GPa) = 22.37099 43.07480 32.72290
#
# Velocity S-wave (km/s) = 2.89733 4.02038 3.50414
# Velocity P-wave (km/s) = 5.95132 6.98655 6.48961
#
# Compressibility (1/GPa) = 0.01548955
#
# Stress axis : x y z
#
# Youngs Moduli (GPa) = 206.06188 206.06218 90.33456
#
# Poissons Ratio (x) = 0.04488 0.10954
# Poissons Ratio (y) = 0.04488 0.10955
# Poissons Ratio (z) = 0.24988 0.24989
#
# Static dielectric constant tensor:
#      x y z
#    x 2.206390 0.000000 0.000000 
#    y 0.000000 2.206400 0.000000 
#    z 0.000000 0.000000 2.132900 
# 
# From -- ./inp_files/2858.got.cif
#   From: 2010.05.17/outbox.cif.g08.bks.cpg/sg142_2_cif.got.tgz:2858.got - 2010.05.20 13:39:18.
