data_PCOD9573124
_publ_section_title
;
Structure prediction by ZEFSAII (Michael W. Deem and Ramdas Pophale) SiO2 
 PCOD9573124
Probable space group: I 41/A M D
;
_chemical_formula_sum "Si O2"
_cell_formula_units_Z 192
_cell_length_a 17.149234
_cell_length_b 17.149234
_cell_length_c 30.311000
_cell_angle_alpha 90.000000
_cell_angle_beta 90.000000
_cell_angle_gamma 90.000000
_cell_volume 8914.350730
_symmetry_space_group_name_H-M "I 41/A M D"
_symmetry_group_IT_number 141
_space_group.IT_coordinate_system_code '2'
_symmetry_cell_setting 'tetragonal'
loop_
_space_group_symop_operation_xyz
x,y,z
1/4-y,3/4+x,1/4+z
-x,1/2-y,z
1/4+y,1/4-x,3/4+z
x,-y,-z
-x,1/2+y,-z
1/4+y,3/4+x,1/4-z
1/4-y,1/4-x,3/4-z
-x,-y,-z
3/4+y,1/4-x,3/4-z
x,1/2+y,-z
3/4-y,3/4+x,1/4-z
-x,y,z
x,1/2-y,z
3/4-y,1/4-x,3/4+z
3/4+y,3/4+x,1/4+z
1/2+x,1/2+y,1/2+z
3/4-y,1/4+x,3/4+z
1/2-x,-y,1/2+z
3/4+y,3/4-x,1/4+z
1/2+x,1/2-y,1/2-z
1/2-x,y,1/2-z
3/4+y,1/4+x,3/4-z
3/4-y,3/4-x,1/4-z
1/2-x,1/2-y,1/2-z
1/4+y,3/4-x,1/4-z
1/2+x,y,1/2-z
1/4-y,1/4+x,3/4-z
1/2-x,1/2+y,1/2+z
1/2+x,-y,1/2+z
1/4-y,3/4-x,1/4+z
1/4+y,1/4+x,3/4+z
loop_
_atom_site_type_symbol
_atom_site_label
_atom_site_fract_x
_atom_site_fract_y
_atom_site_fract_z
Si Si1 0.092329 0.573245 0.032433
Si Si2 0.410096 0.921803 0.049451
Si Si3 0.409357 0.565562 0.216882
Si Si4 0.405136 0.655136 0.375000
Si Si5 0.594755 0.835545 0.135522
Si Si6 0.344090 0.410064 0.039579
Si Si7 0.410174 0.160174 0.125000
O O1 0.116065 0.599311 0.082666
O O2 0.000000 0.564279 0.035209
O O3 0.118865 0.500000 0.000000
O O4 0.118232 0.646646 0.002936
O O5 0.500000 0.943878 0.058289
O O6 0.385061 0.860853 0.086278
O O7 0.359196 0.999952 0.051103
O O8 0.402844 0.890139 0.000031
O O9 0.500000 0.544197 0.213270
O O10 0.380467 0.600243 0.170450
O O11 0.359269 0.490526 0.228608
O O12 0.395175 0.750000 0.383586
O O13 0.500000 0.832606 0.138122
O O14 0.625433 0.750000 0.146698
O O15 0.358210 0.360870 0.083261
O O16 0.500000 0.148267 0.112405
#
# Coordination Sequence:
#
# PCOD9573124 Si02
#       7
#    32  32  32  16  32  32  16
#     4  10  22  41  66  97 133 172 219 277 339 403
#     4  10  21  39  63  88 121 165 208 260 321 390
#     4  11  23  39  62  89 124 166 213 266 322 389
#     4   9  18  38  69 100 132 176 229 280 337 412
#     4   9  19  37  61  88 117 155 206 260 316 380
#     4  11  22  37  58  87 123 159 204 256 319 394
#     4  11  22  36  57  84 118 160 207 260 313 374
#
# _framework density 21.538305000000001
#
# number of rings (size 3 to 8) (size 9 to 14) (size 15 to 20)
#    0.000    1.833    0.000    4.500    2.333    4.333 
#    3.000    2.500    0.000    0.000    0.000    0.000 
#    0.000    0.000    0.000    0.000    0.000    0.000 
#
# Total GULP energy -535392.395877 kJ/mol
# GULP energy per Si atom -5577.004124 kJ/mol
# Density = 2.148928 g / cm^3
# Si number density = 21.538305 Si / 1000 Ang^3
#
#
#
# Elastic Constant Matrix: (Units=GPa)
#
#
# Indices 1 2 3 4 5 6 
#
# 1 29.9438 40.5196 18.1471 0.0000 0.0000 0.0000
# 2 40.5196 29.9438 18.1471 0.0000 0.0000 0.0000
# 3 18.1471 18.1471 94.6915 0.0000 0.0000 0.0000
# 4 0.0000 0.0000 0.0000 29.6729 0.0000 0.0000
# 5 0.0000 0.0000 0.0000 0.0000 29.6729 0.0000
# 6 0.0000 0.0000 0.0000 0.0000 0.0000 27.3512
#
#
#
# Elastic Compliance Matrix: (Units=1/GPa)
#
#
# Indices 1 2 3 4 5 6 
#
# 1 -0.039405 0.055151 -0.003018 0.000000 0.000000 0.000000
# 2 0.055151 -0.039405 -0.003018 0.000000 0.000000 0.000000
# 3 -0.003018 -0.003018 0.011717 0.000000 0.000000 0.000000
# 4 0.000000 0.000000 0.000000 0.033701 0.000000 0.000000
# 5 0.000000 0.000000 0.000000 0.000000 0.033701 0.000000
# 6 0.000000 0.000000 0.000000 0.000000 0.000000 0.036561
#
#
# Mechanical properties :
#
#
# Convention : Reuss Voigt Hill
#
# Bulk Modulus (GPa) = 32.11421 34.24515 33.17968
# Shear Modulus (GPa) = -98.07728 22.52376 -37.77676
#
# Velocity S-wave (km/s) = -6.75537 3.23732 -4.19254
# Velocity P-wave (km/s) = 6.77526 5.46880 2.82810
#
# Compressibility (1/GPa) = 0.03113886
#
# Stress axis : x y z
#
# Youngs Moduli (GPa) = -25.37775 -25.37775 85.34433
#
# Poissons Ratio (x) = 1.39960 0.25754
# Poissons Ratio (y) = 1.39960 0.25754
# Poissons Ratio (z) = -0.07658 -0.07658
#
# Static dielectric constant tensor:
#      x y z
#    x 1.792480 0.000000 0.000000 
#    y 0.000000 1.792480 0.000000 
#    z 0.000000 0.000000 1.788100 
# 
# From -- ./inp_files/14475.got.cif
#   From: 2010.05.17/outbox.cif.g08.bks.cpg/sg141_8_cif.got.tgz:14475.got - 2010.05.20 13:30:51.
