data_PCOD9573825
_publ_section_title
;
Structure prediction by ZEFSAII (Michael W. Deem and Ramdas Pophale) SiO2 
 PCOD9573825
Probable space group: I 41/A C D
;
_chemical_formula_sum "Si O2"
_cell_formula_units_Z 96
_cell_length_a 19.423342
_cell_length_b 19.423342
_cell_length_c 10.364534
_cell_angle_alpha 90.000000
_cell_angle_beta 90.000000
_cell_angle_gamma 90.000000
_cell_volume 3910.188507
_symmetry_space_group_name_H-M "I 41/A C D"
_symmetry_group_IT_number 142
_space_group.IT_coordinate_system_code '2'
_symmetry_cell_setting 'tetragonal'
loop_
_space_group_symop_operation_xyz
x,y,z
1/4-y,3/4+x,1/4+z
-x,1/2-y,z
1/4+y,1/4-x,3/4+z
x,-y,1/2-z
1/2-x,y,-z
3/4+y,1/4+x,1/4-z
1/4-y,1/4-x,1/4-z
-x,-y,-z
3/4+y,1/4-x,3/4-z
x,1/2+y,-z
3/4-y,3/4+x,1/4-z
-x,y,1/2+z
1/2+x,-y,z
1/4-y,3/4-x,3/4+z
3/4+y,3/4+x,3/4+z
1/2+x,1/2+y,1/2+z
3/4-y,1/4+x,3/4+z
1/2-x,-y,1/2+z
3/4+y,3/4-x,1/4+z
1/2+x,1/2-y,-z
-x,1/2+y,1/2-z
1/4+y,3/4+x,3/4-z
3/4-y,3/4-x,3/4-z
1/2-x,1/2-y,1/2-z
1/4+y,3/4-x,1/4-z
1/2+x,y,1/2-z
1/4-y,1/4+x,3/4-z
1/2-x,1/2+y,z
x,1/2-y,1/2+z
3/4-y,1/4-x,1/4+z
1/4+y,1/4+x,1/4+z
loop_
_atom_site_type_symbol
_atom_site_label
_atom_site_fract_x
_atom_site_fract_y
_atom_site_fract_z
Si Si1 0.830686 0.762641 0.287611
Si Si2 0.869144 0.630234 0.152001
Si Si3 0.186703 0.000000 0.250000
Si Si4 0.750000 0.318383 0.500000
O O1 0.750000 0.750000 0.250000
O O2 0.875810 0.698630 0.238161
O O3 0.863387 0.827880 0.213112
O O4 0.815013 0.777496 0.437935
O O5 0.865711 0.563116 0.237345
O O6 0.790220 0.635327 0.101254
O O7 0.232365 0.982365 0.375000
#
# Coordination Sequence:
#
# PCOD9573825 Si02
#       4
#    32  32  16  16
#     4  10  23  42  67  97 138 185 238 303 379 455
#     4  11  24  41  66  99 138 185 240 309 381 463
#     4  12  25  41  64 100 135 179 240 308 377 463
#     4  10  21  45  70 100 139 191 242 306 387 479
#
# _framework density 24.551247
#
# number of rings (size 3 to 8) (size 9 to 14) (size 15 to 20)
#    0.000    1.333    0.000    6.000    0.000   12.667 
#    0.000    0.000    0.000   12.000    0.000    0.000 
#    0.000    0.000    0.000    0.000    0.000    0.000 
#
# Total GULP energy -267654.814098 kJ/mol
# GULP energy per Si atom -5576.141960 kJ/mol
# Density = 2.449537 g / cm^3
# Si number density = 24.551247 Si / 1000 Ang^3
#
#
#
# Elastic Constant Matrix: (Units=GPa)
#
#
# Indices 1 2 3 4 5 6 
#
# 1 137.2234 41.9720 39.6447 0.0000 0.0000 0.0000
# 2 41.9720 137.2234 39.6447 0.0000 0.0000 0.0000
# 3 39.6447 39.6447 88.3188 0.0000 0.0000 0.0000
# 4 0.0000 0.0000 0.0000 36.1170 0.0000 0.0000
# 5 0.0000 0.0000 0.0000 0.0000 36.1170 0.0000
# 6 0.0000 0.0000 0.0000 0.0000 0.0000 35.0491
#
#
#
# Elastic Compliance Matrix: (Units=1/GPa)
#
#
# Indices 1 2 3 4 5 6 
#
# 1 0.008731 -0.001767 -0.003126 0.000000 0.000000 0.000000
# 2 -0.001767 0.008731 -0.003126 0.000000 0.000000 0.000000
# 3 -0.003126 -0.003126 0.014129 0.000000 0.000000 0.000000
# 4 0.000000 0.000000 0.000000 0.027688 0.000000 0.000000
# 5 0.000000 0.000000 0.000000 0.000000 0.027688 0.000000
# 6 0.000000 0.000000 0.000000 0.000000 0.000000 0.028531
#
#
# Mechanical properties :
#
#
# Convention : Reuss Voigt Hill
#
# Bulk Modulus (GPa) = 64.29735 67.25427 65.77581
# Shear Modulus (GPa) = 36.57092 37.55687 37.06390
#
# Velocity S-wave (km/s) = 3.86369 3.91542 3.88964
# Velocity P-wave (km/s) = 6.79338 6.92052 6.85725
#
# Compressibility (1/GPa) = 0.01555274
#
# Stress axis : x y z
#
# Youngs Moduli (GPa) = 114.53352 114.53352 70.77703
#
# Poissons Ratio (x) = 0.20243 0.22124
# Poissons Ratio (y) = 0.20243 0.22124
# Poissons Ratio (z) = 0.35801 0.35801
#
# Static dielectric constant tensor:
#      x y z
#    x 2.061460 0.000000 0.000000 
#    y 0.000000 2.061460 0.000000 
#    z 0.000000 0.000000 2.244670 
# 
# From -- ./inp_files/3226.got.cif
#   From: 2010.05.17/outbox.cif.g08.bks.cpg/sg142_2_cif.got.tgz:3226.got - 2010.05.20 13:39:18.
