data_PCOD9573956
_publ_section_title
;
Structure prediction by ZEFSAII (Michael W. Deem and Ramdas Pophale) SiO2 
 PCOD9573956
Probable space group: I 41/A C D
;
_chemical_formula_sum "Si O2"
_cell_formula_units_Z 160
_cell_length_a 26.754305
_cell_length_b 26.754305
_cell_length_c 12.362225
_cell_angle_alpha 90.000000
_cell_angle_beta 90.000000
_cell_angle_gamma 90.000000
_cell_volume 8848.792092
_symmetry_space_group_name_H-M "I 41/A C D"
_symmetry_group_IT_number 142
_space_group.IT_coordinate_system_code '2'
_symmetry_cell_setting 'tetragonal'
loop_
_space_group_symop_operation_xyz
x,y,z
1/4-y,3/4+x,1/4+z
-x,1/2-y,z
1/4+y,1/4-x,3/4+z
x,-y,1/2-z
1/2-x,y,-z
3/4+y,1/4+x,1/4-z
1/4-y,1/4-x,1/4-z
-x,-y,-z
3/4+y,1/4-x,3/4-z
x,1/2+y,-z
3/4-y,3/4+x,1/4-z
-x,y,1/2+z
1/2+x,-y,z
1/4-y,3/4-x,3/4+z
3/4+y,3/4+x,3/4+z
1/2+x,1/2+y,1/2+z
3/4-y,1/4+x,3/4+z
1/2-x,-y,1/2+z
3/4+y,3/4-x,1/4+z
1/2+x,1/2-y,-z
-x,1/2+y,1/2-z
1/4+y,3/4+x,3/4-z
3/4-y,3/4-x,3/4-z
1/2-x,1/2-y,1/2-z
1/4+y,3/4-x,1/4-z
1/2+x,y,1/2-z
1/4-y,1/4+x,3/4-z
1/2-x,1/2+y,z
x,1/2-y,1/2+z
3/4-y,1/4-x,1/4+z
1/4+y,1/4+x,1/4+z
loop_
_atom_site_type_symbol
_atom_site_label
_atom_site_fract_x
_atom_site_fract_y
_atom_site_fract_z
Si Si1 0.694702 0.853987 0.963750
Si Si2 0.126948 0.793940 0.371421
Si Si3 0.556554 0.979894 0.509374
Si Si4 0.832709 0.845033 0.671885
Si Si5 0.858496 0.815028 0.428174
O O1 0.704812 0.824342 0.852467
O O2 0.649671 0.893749 0.947046
O O3 0.750000 0.872688 0.000000
O O4 0.671579 0.817668 0.055696
O O5 0.078641 0.828641 0.375000
O O6 0.143682 0.801459 0.247556
O O7 0.116535 0.739373 0.416783
O O8 0.559086 0.940305 0.605025
O O9 0.500000 0.000000 0.500000
O O10 0.592811 0.025067 0.544162
O O11 0.843657 0.830627 0.548788
O O12 0.893889 0.856112 0.375000
#
# Coordination Sequence:
#
# PCOD9573956 Si02
#       5
#    32  32  32  32  32
#     4  11  21  40  66  94 127 165 223 268 322 392
#     4  10  23  39  62  93 125 169 217 263 320 395
#     4  12  22  40  68  95 124 173 219 265 330 386
#     4  11  23  40  66  93 130 166 216 277 328 385
#     4  12  24  40  63  93 133 167 211 275 329 387
#
# _framework density 18.081565000000001
#
# number of rings (size 3 to 8) (size 9 to 14) (size 15 to 20)
#    0.000    0.800    6.000    1.800    0.000    0.400 
#    0.000    0.000    4.400    2.400    0.000    0.000 
#    0.000    0.000    0.000    0.000    0.000    0.000 
#
# Total GULP energy -446478.166066 kJ/mol
# GULP energy per Si atom -5580.977076 kJ/mol
# Density = 1.804041 g / cm^3
# Si number density = 18.081565 Si / 1000 Ang^3
#
#
#
# Elastic Constant Matrix: (Units=GPa)
#
#
# Indices 1 2 3 4 5 6 
#
# 1 69.5171 36.5862 43.3911 0.0000 0.0000 0.0000
# 2 36.5862 69.4863 43.3914 0.0000 0.0000 0.0000
# 3 43.3911 43.3914 155.2470 0.0000 0.0000 0.0000
# 4 0.0000 0.0000 0.0000 28.3522 0.0000 0.0000
# 5 0.0000 0.0000 0.0000 0.0000 28.3524 0.0000
# 6 0.0000 0.0000 0.0000 0.0000 0.0000 25.4223
#
#
#
# Elastic Compliance Matrix: (Units=1/GPa)
#
#
# Indices 1 2 3 4 5 6 
#
# 1 0.021295 -0.009080 -0.003414 0.000000 0.000000 0.000000
# 2 -0.009080 0.021306 -0.003417 0.000000 0.000000 0.000000
# 3 -0.003414 -0.003417 0.008351 0.000000 0.000000 0.000000
# 4 0.000000 0.000000 0.000000 0.035271 0.000000 0.000000
# 5 0.000000 0.000000 0.000000 0.000000 0.035270 0.000000
# 6 0.000000 0.000000 0.000000 0.000000 0.000000 0.039336
#
#
# Mechanical properties :
#
#
# Convention : Reuss Voigt Hill
#
# Bulk Modulus (GPa) = 52.27710 60.10973 56.19341
# Shear Modulus (GPa) = 25.12222 27.81750 26.46986
#
# Velocity S-wave (km/s) = 3.73149 3.92656 3.83026
# Velocity P-wave (km/s) = 6.89492 7.33982 7.12085
#
# Compressibility (1/GPa) = 0.01912883
#
# Stress axis : x y z
#
# Youngs Moduli (GPa) = 46.96000 46.93469 119.75190
#
# Poissons Ratio (x) = 0.42618 0.40882
# Poissons Ratio (y) = 0.42641 0.40921
# Poissons Ratio (z) = 0.16031 0.16038
#
# Static dielectric constant tensor:
#      x y z
#    x 1.660980 0.000000 0.000000 
#    y 0.000000 1.660950 0.000000 
#    z 0.000000 0.000000 1.618590 
# 
# From -- ./inp_files/3849.got.cif
#   From: 2010.05.17/outbox.cif.g08.bks.cpg/sg142_2_cif.got.tgz:3849.got - 2010.05.20 13:39:18.
