data_PCOD9573029
_publ_section_title
;
Structure prediction by ZEFSAII (Michael W. Deem and Ramdas Pophale) SiO2 
 PCOD9573029
Probable space group: I 41/A M D
;
_chemical_formula_sum "Si O2"
_cell_formula_units_Z 192
_cell_length_a 19.714374
_cell_length_b 19.714374
_cell_length_c 23.824719
_cell_angle_alpha 90.000000
_cell_angle_beta 90.000000
_cell_angle_gamma 90.000000
_cell_volume 9259.632906
_symmetry_space_group_name_H-M "I 41/A M D"
_symmetry_group_IT_number 141
_space_group.IT_coordinate_system_code '2'
_symmetry_cell_setting 'tetragonal'
loop_
_space_group_symop_operation_xyz
x,y,z
1/4-y,3/4+x,1/4+z
-x,1/2-y,z
1/4+y,1/4-x,3/4+z
x,-y,-z
-x,1/2+y,-z
1/4+y,3/4+x,1/4-z
1/4-y,1/4-x,3/4-z
-x,-y,-z
3/4+y,1/4-x,3/4-z
x,1/2+y,-z
3/4-y,3/4+x,1/4-z
-x,y,z
x,1/2-y,z
3/4-y,1/4-x,3/4+z
3/4+y,3/4+x,1/4+z
1/2+x,1/2+y,1/2+z
3/4-y,1/4+x,3/4+z
1/2-x,-y,1/2+z
3/4+y,3/4-x,1/4+z
1/2+x,1/2-y,1/2-z
1/2-x,y,1/2-z
3/4+y,1/4+x,3/4-z
3/4-y,3/4-x,1/4-z
1/2-x,1/2-y,1/2-z
1/4+y,3/4-x,1/4-z
1/2+x,y,1/2-z
1/4-y,1/4+x,3/4-z
1/2-x,1/2+y,1/2+z
1/2+x,-y,1/2+z
1/4-y,3/4-x,1/4+z
1/4+y,1/4+x,3/4+z
loop_
_atom_site_type_symbol
_atom_site_label
_atom_site_fract_x
_atom_site_fract_y
_atom_site_fract_z
Si Si1 0.179584 0.391319 0.221797
Si Si2 0.423552 0.626854 0.244589
Si Si3 0.707042 0.172316 0.700954
Si Si4 0.580396 0.963531 0.146048
Si Si5 0.080197 0.384054 0.318178
Si Si6 0.922504 0.000399 0.828431
O O1 0.250000 0.414911 0.250000
O O2 0.201553 0.346116 0.168805
O O3 0.130664 0.358956 0.269297
O O4 0.132308 0.448899 0.195099
O O5 0.500000 0.654894 0.238546
O O6 0.369651 0.671935 0.277225
O O7 0.395481 0.598814 0.185162
O O8 0.427446 0.560772 0.283907
O O9 0.730475 0.250000 0.697261
O O10 0.750000 0.136559 0.750000
O O11 0.720246 0.147773 0.638199
O O12 0.500000 0.963590 0.154545
O O13 0.602457 0.037912 0.167566
O O14 0.092224 0.342224 0.375000
O O15 0.000000 0.383541 0.302964
O O16 0.000000 0.971939 0.832594
#
# Coordination Sequence:
#
# PCOD9573029 Si02
#       6
#    32  32  32  32  32  32
#     4  12  23  38  64  98 124 160 217 266 317 385
#     4  10  20  38  60  84 117 166 215 254 318 389
#     4  10  21  37  57  86 122 160 206 262 327 383
#     4  10  22  41  62  87 127 170 207 257 327 386
#     4  11  23  44  67  94 133 175 214 269 332 393
#     4  10  21  39  60  86 124 167 203 256 328 391
#
# _framework density 20.735161999999999
#
# number of rings (size 3 to 8) (size 9 to 14) (size 15 to 20)
#    0.000    1.500    3.333    2.000    0.000    2.167 
#    6.000    0.833    0.000    6.500    0.000    0.000 
#    0.000    0.000    0.000    0.000    0.000    0.000 
#
# Total GULP energy -535319.192889 kJ/mol
# GULP energy per Si atom -5576.241593 kJ/mol
# Density = 2.068797 g / cm^3
# Si number density = 20.735162 Si / 1000 Ang^3
#
#
#
# Elastic Constant Matrix: (Units=GPa)
#
#
# Indices 1 2 3 4 5 6 
#
# 1 54.0249 4.5198 21.7708 0.0000 0.0000 0.0000
# 2 4.5198 54.0249 21.7708 0.0000 0.0000 0.0000
# 3 21.7708 21.7708 131.6351 0.0000 0.0000 0.0000
# 4 0.0000 0.0000 0.0000 23.1262 0.0000 0.0000
# 5 0.0000 0.0000 0.0000 0.0000 23.1262 0.0000
# 6 0.0000 0.0000 0.0000 0.0000 0.0000 23.3494
#
#
#
# Elastic Compliance Matrix: (Units=1/GPa)
#
#
# Indices 1 2 3 4 5 6 
#
# 1 0.019838 -0.000362 -0.003221 0.000000 0.000000 0.000000
# 2 -0.000362 0.019838 -0.003221 0.000000 0.000000 0.000000
# 3 -0.003221 -0.003221 0.008662 0.000000 0.000000 0.000000
# 4 0.000000 0.000000 0.000000 0.043241 0.000000 0.000000
# 5 0.000000 0.000000 0.000000 0.000000 0.043241 0.000000
# 6 0.000000 0.000000 0.000000 0.000000 0.000000 0.042828
#
#
# Mechanical properties :
#
#
# Convention : Reuss Voigt Hill
#
# Bulk Modulus (GPa) = 28.79290 37.31198 33.05244
# Shear Modulus (GPa) = 24.65077 26.69527 25.67302
#
# Velocity S-wave (km/s) = 3.45170 3.59198 3.52254
# Velocity P-wave (km/s) = 5.45910 5.93605 5.70257
#
# Compressibility (1/GPa) = 0.03473079
#
# Stress axis : x y z
#
# Youngs Moduli (GPa) = 50.40756 50.40756 115.44346
#
# Poissons Ratio (x) = 0.01823 0.37187
# Poissons Ratio (y) = 0.01823 0.37187
# Poissons Ratio (z) = 0.16237 0.16237
#
# Static dielectric constant tensor:
#      x y z
#    x 1.762680 0.000000 0.000000 
#    y 0.000000 1.762680 0.000000 
#    z 0.000000 0.000000 1.809210 
# 
# From -- ./inp_files/11681.got.cif
#   From: 2010.05.17/outbox.cif.g08.bks.cpg/sg141_6_cif.got.tgz:11681.got - 2010.05.20 13:30:51.
