data_PCOD9573059
_publ_section_title
;
Structure prediction by ZEFSAII (Michael W. Deem and Ramdas Pophale) SiO2 
 PCOD9573059
Probable space group: I 41/A M D
;
_chemical_formula_sum "Si O2"
_cell_formula_units_Z 160
_cell_length_a 19.394790
_cell_length_b 19.394790
_cell_length_c 23.797503
_cell_angle_alpha 90.000000
_cell_angle_beta 90.000000
_cell_angle_gamma 90.000000
_cell_volume 8951.618257
_symmetry_space_group_name_H-M "I 41/A M D"
_symmetry_group_IT_number 141
_space_group.IT_coordinate_system_code '2'
_symmetry_cell_setting 'tetragonal'
loop_
_space_group_symop_operation_xyz
x,y,z
1/4-y,3/4+x,1/4+z
-x,1/2-y,z
1/4+y,1/4-x,3/4+z
x,-y,-z
-x,1/2+y,-z
1/4+y,3/4+x,1/4-z
1/4-y,1/4-x,3/4-z
-x,-y,-z
3/4+y,1/4-x,3/4-z
x,1/2+y,-z
3/4-y,3/4+x,1/4-z
-x,y,z
x,1/2-y,z
3/4-y,1/4-x,3/4+z
3/4+y,3/4+x,1/4+z
1/2+x,1/2+y,1/2+z
3/4-y,1/4+x,3/4+z
1/2-x,-y,1/2+z
3/4+y,3/4-x,1/4+z
1/2+x,1/2-y,1/2-z
1/2-x,y,1/2-z
3/4+y,1/4+x,3/4-z
3/4-y,3/4-x,1/4-z
1/2-x,1/2-y,1/2-z
1/4+y,3/4-x,1/4-z
1/2+x,y,1/2-z
1/4-y,1/4+x,3/4-z
1/2-x,1/2+y,1/2+z
1/2+x,-y,1/2+z
1/4-y,3/4-x,1/4+z
1/4+y,1/4+x,3/4+z
loop_
_atom_site_type_symbol
_atom_site_label
_atom_site_fract_x
_atom_site_fract_y
_atom_site_fract_z
Si Si1 0.183201 0.172704 0.985541
Si Si2 0.425416 0.551950 0.821042
Si Si3 0.270109 0.587739 0.102993
Si Si4 0.080202 0.931051 0.962443
Si Si5 0.720373 0.375391 0.192482
O O1 0.164491 0.250000 0.968309
O O2 0.236745 0.140153 0.941292
O O3 0.227598 0.174803 0.042504
O O4 0.117581 0.126548 0.999896
O O5 0.500000 0.584994 0.806577
O O6 0.355355 0.589572 0.800757
O O7 0.420688 0.541518 0.887787
O O8 0.205554 0.544447 0.125000
O O9 0.305989 0.627858 0.154556
O O10 0.319100 0.529415 0.075202
O O11 0.000000 0.915512 0.950804
O O12 0.083643 0.000000 0.000000
O O13 0.750000 0.344047 0.250000
#
# Coordination Sequence:
#
# PCOD9573059 Si02
#       5
#    32  32  32  32  32
#     4  11  22  37  57  83 116 149 189 241 296 348
#     4  10  21  35  55  88 118 145 186 238 295 348
#     4  12  20  34  59  87 113 144 199 247 289 335
#     4  11  23  38  57  83 115 155 199 240 288 349
#     4  11  20  34  60  85 114 151 190 239 290 341
#
# _framework density 17.873864000000001
#
# number of rings (size 3 to 8) (size 9 to 14) (size 15 to 20)
#    0.000    1.000    8.000    0.600    0.000    0.800 
#    0.000    0.000    0.000    4.800    0.000    0.000 
#    0.000    0.000    0.000    0.000    0.000    0.000 
#
# Total GULP energy -445835.092504 kJ/mol
# GULP energy per Si atom -5572.938656 kJ/mol
# Density = 1.783318 g / cm^3
# Si number density = 17.873864 Si / 1000 Ang^3
#
#
#
# Elastic Constant Matrix: (Units=GPa)
#
#
# Indices 1 2 3 4 5 6 
#
# 1 102.9521 32.8048 10.7276 0.0000 0.0000 0.0000
# 2 32.8048 102.9525 10.7277 0.0000 0.0000 0.0000
# 3 10.7276 10.7277 52.7970 0.0000 0.0000 0.0000
# 4 0.0000 0.0000 0.0000 11.5543 0.0000 0.0000
# 5 0.0000 0.0000 0.0000 0.0000 11.5547 0.0000
# 6 0.0000 0.0000 0.0000 0.0000 0.0000 5.6267
#
#
#
# Elastic Compliance Matrix: (Units=1/GPa)
#
#
# Indices 1 2 3 4 5 6 
#
# 1 0.010933 -0.003323 -0.001546 0.000000 0.000000 0.000000
# 2 -0.003323 0.010933 -0.001546 0.000000 0.000000 0.000000
# 3 -0.001546 -0.001546 0.019569 0.000000 0.000000 0.000000
# 4 0.000000 0.000000 0.000000 0.086548 0.000000 0.000000
# 5 0.000000 0.000000 0.000000 0.000000 0.086545 0.000000
# 6 0.000000 0.000000 0.000000 0.000000 0.000000 0.177723
#
#
# Mechanical properties :
#
#
# Convention : Reuss Voigt Hill
#
# Bulk Modulus (GPa) = 34.95960 40.80242 37.88101
# Shear Modulus (GPa) = 12.05935 19.37660 15.71798
#
# Velocity S-wave (km/s) = 2.60030 3.29610 2.96866
# Velocity P-wave (km/s) = 5.34948 6.11255 5.74370
#
# Compressibility (1/GPa) = 0.02860445
#
# Stress axis : x y z
#
# Youngs Moduli (GPa) = 91.46541 91.46574 51.10157
#
# Poissons Ratio (x) = 0.30390 0.07902
# Poissons Ratio (y) = 0.30390 0.07902
# Poissons Ratio (z) = 0.14144 0.14144
#
# Static dielectric constant tensor:
#      x y z
#    x 1.623760 0.000000 0.000000 
#    y 0.000000 1.623760 0.000000 
#    z 0.000000 0.000000 1.662040 
# 
# From -- ./inp_files/12662.got.cif
#   From: 2010.05.17/outbox.cif.g08.bks.cpg/sg141_7_cif.got.tgz:12662.got - 2010.05.20 13:30:51.
