data_PCOD9573540
_publ_section_title
;
Structure prediction by ZEFSAII (Michael W. Deem and Ramdas Pophale) SiO2 
 PCOD9573540
Probable space group: I 41/A C D
;
_chemical_formula_sum "Si O2"
_cell_formula_units_Z 160
_cell_length_a 16.457422
_cell_length_b 16.457422
_cell_length_c 30.535016
_cell_angle_alpha 90.000000
_cell_angle_beta 90.000000
_cell_angle_gamma 90.000000
_cell_volume 8270.309505
_symmetry_space_group_name_H-M "I 41/A C D"
_symmetry_group_IT_number 142
_space_group.IT_coordinate_system_code '2'
_symmetry_cell_setting 'tetragonal'
loop_
_space_group_symop_operation_xyz
x,y,z
1/4-y,3/4+x,1/4+z
-x,1/2-y,z
1/4+y,1/4-x,3/4+z
x,-y,1/2-z
1/2-x,y,-z
3/4+y,1/4+x,1/4-z
1/4-y,1/4-x,1/4-z
-x,-y,-z
3/4+y,1/4-x,3/4-z
x,1/2+y,-z
3/4-y,3/4+x,1/4-z
-x,y,1/2+z
1/2+x,-y,z
1/4-y,3/4-x,3/4+z
3/4+y,3/4+x,3/4+z
1/2+x,1/2+y,1/2+z
3/4-y,1/4+x,3/4+z
1/2-x,-y,1/2+z
3/4+y,3/4-x,1/4+z
1/2+x,1/2-y,-z
-x,1/2+y,1/2-z
1/4+y,3/4+x,3/4-z
3/4-y,3/4-x,3/4-z
1/2-x,1/2-y,1/2-z
1/4+y,3/4-x,1/4-z
1/2+x,y,1/2-z
1/4-y,1/4+x,3/4-z
1/2-x,1/2+y,z
x,1/2-y,1/2+z
3/4-y,1/4-x,1/4+z
1/4+y,1/4+x,1/4+z
loop_
_atom_site_type_symbol
_atom_site_label
_atom_site_fract_x
_atom_site_fract_y
_atom_site_fract_z
Si Si1 0.633469 0.676292 0.006187
Si Si2 0.227852 0.870075 0.165027
Si Si3 0.490779 0.929506 0.535996
Si Si4 0.641862 0.490542 0.183770
Si Si5 0.888067 0.404277 0.256771
O O1 0.546012 0.645806 0.020512
O O2 0.694971 0.673661 0.047478
O O3 0.670857 0.612289 0.970735
O O4 0.636337 0.766760 0.988861
O O5 0.282708 0.789251 0.172935
O O6 0.280532 0.950236 0.178390
O O7 0.206368 0.874543 0.114147
O O8 0.154749 0.872605 0.199133
O O9 0.398123 0.900067 0.533445
O O10 0.500000 0.000000 0.500000
O O11 0.875006 0.500000 0.250000
#
# Coordination Sequence:
#
# PCOD9573540 Si02
#       5
#    32  32  32  32  32
#     4  10  19  37  61  80 120 157 193 239 310 352
#     4   9  20  36  58  86 116 146 207 245 293 354
#     4   9  20  36  59  82 111 157 196 237 290 358
#     4   9  18  37  59  84 111 159 192 248 297 357
#     4  11  21  36  57  89 116 154 197 245 298 363
#
# _framework density 19.346314
#
# number of rings (size 3 to 8) (size 9 to 14) (size 15 to 20)
#    0.000    2.400    2.000    0.600    8.400    0.000 
#    7.200    1.000    0.000    4.800    0.000    0.000 
#    0.000    0.000    0.000    0.000    0.000    0.000 
#
# Total GULP energy -445536.686709 kJ/mol
# GULP energy per Si atom -5569.208584 kJ/mol
# Density = 1.930228 g / cm^3
# Si number density = 19.346314 Si / 1000 Ang^3
#
#
#
# Elastic Constant Matrix: (Units=GPa)
#
#
# Indices 1 2 3 4 5 6 
#
# 1 81.4105 6.5874 5.1007 0.0000 0.0000 0.0000
# 2 6.5874 81.4105 5.1007 0.0000 0.0000 0.0000
# 3 5.1007 5.1007 67.3475 0.0000 0.0000 0.0000
# 4 0.0000 0.0000 0.0000 16.0566 0.0000 0.0000
# 5 0.0000 0.0000 0.0000 0.0000 16.0566 0.0000
# 6 0.0000 0.0000 0.0000 0.0000 0.0000 3.8150
#
#
#
# Elastic Compliance Matrix: (Units=1/GPa)
#
#
# Indices 1 2 3 4 5 6 
#
# 1 0.012415 -0.000950 -0.000868 0.000000 0.000000 0.000000
# 2 -0.000950 0.012415 -0.000868 0.000000 0.000000 0.000000
# 3 -0.000868 -0.000868 0.014980 0.000000 0.000000 0.000000
# 4 0.000000 0.000000 0.000000 0.062280 0.000000 0.000000
# 5 0.000000 0.000000 0.000000 0.000000 0.062280 0.000000
# 6 0.000000 0.000000 0.000000 0.000000 0.000000 0.262123
#
#
# Mechanical properties :
#
#
# Convention : Reuss Voigt Hill
#
# Bulk Modulus (GPa) = 29.03952 29.30514 29.17233
# Shear Modulus (GPa) = 11.27792 21.41094 16.34443
#
# Velocity S-wave (km/s) = 2.41705 3.33035 2.90976
# Velocity P-wave (km/s) = 4.77833 5.47438 5.13816
#
# Compressibility (1/GPa) = 0.03443584
#
# Stress axis : x y z
#
# Youngs Moduli (GPa) = 80.54960 80.54960 66.75616
#
# Poissons Ratio (x) = 0.07653 0.05796
# Poissons Ratio (y) = 0.07653 0.05796
# Poissons Ratio (z) = 0.06994 0.06994
#
# Static dielectric constant tensor:
#      x y z
#    x 1.720220 0.000000 0.000000 
#    y 0.000000 1.720220 0.000000 
#    z 0.000000 0.000000 1.671670 
# 
# From -- ./inp_files/12421.got.cif
#   From: 2010.05.17/outbox.cif.g08.bks.cpg/sg142_7_cif.got.tgz:12421.got - 2010.05.20 13:39:18.
