data_PCOD9573559
_publ_section_title
;
Structure prediction by ZEFSAII (Michael W. Deem and Ramdas Pophale) SiO2 
 PCOD9573559
Probable space group: I 41/A C D
;
_chemical_formula_sum "Si O2"
_cell_formula_units_Z 120
_cell_length_a 17.094411
_cell_length_b 17.094411
_cell_length_c 21.707471
_cell_angle_alpha 90.000000
_cell_angle_beta 90.000000
_cell_angle_gamma 90.000000
_cell_volume 6343.333025
_symmetry_space_group_name_H-M "I 41/A C D"
_symmetry_group_IT_number 142
_space_group.IT_coordinate_system_code '2'
_symmetry_cell_setting 'tetragonal'
loop_
_space_group_symop_operation_xyz
x,y,z
1/4-y,3/4+x,1/4+z
-x,1/2-y,z
1/4+y,1/4-x,3/4+z
x,-y,1/2-z
1/2-x,y,-z
3/4+y,1/4+x,1/4-z
1/4-y,1/4-x,1/4-z
-x,-y,-z
3/4+y,1/4-x,3/4-z
x,1/2+y,-z
3/4-y,3/4+x,1/4-z
-x,y,1/2+z
1/2+x,-y,z
1/4-y,3/4-x,3/4+z
3/4+y,3/4+x,3/4+z
1/2+x,1/2+y,1/2+z
3/4-y,1/4+x,3/4+z
1/2-x,-y,1/2+z
3/4+y,3/4-x,1/4+z
1/2+x,1/2-y,-z
-x,1/2+y,1/2-z
1/4+y,3/4+x,3/4-z
3/4-y,3/4-x,3/4-z
1/2-x,1/2-y,1/2-z
1/4+y,3/4-x,1/4-z
1/2+x,y,1/2-z
1/4-y,1/4+x,3/4-z
1/2-x,1/2+y,z
x,1/2-y,1/2+z
3/4-y,1/4-x,1/4+z
1/4+y,1/4+x,1/4+z
loop_
_atom_site_type_symbol
_atom_site_label
_atom_site_fract_x
_atom_site_fract_y
_atom_site_fract_z
Si Si1 0.500000 0.250000 0.875000
Si Si2 0.628934 0.279912 0.776095
Si Si3 0.797788 0.654457 0.687120
Si Si4 0.603943 0.568213 0.794686
Si Si5 0.750000 0.509015 0.000000
O O1 0.574960 0.252142 0.831208
O O2 0.707857 0.318981 0.802935
O O3 0.651704 0.209485 0.731249
O O4 0.588864 0.348988 0.736890
O O5 0.816472 0.668127 0.615725
O O6 0.804056 0.564393 0.709836
O O7 0.570254 0.500000 0.750000
O O8 0.697653 0.548746 0.792446
#
# Coordination Sequence:
#
# PCOD9573559 Si02
#       5
#     8  32  32  32  16
#     4  12  24  44  58  80 128 164 192 246 336 356
#     4  10  23  37  60  87 119 160 200 255 301 366
#     4  10  19  40  58  93 119 152 209 252 294 367
#     4   9  18  34  61  84 113 165 194 237 301 367
#     4   8  18  32  62  86 118 160 190 242 304 348
#
# _framework density 18.917498999999999
#
# number of rings (size 3 to 8) (size 9 to 14) (size 15 to 20)
#    0.800    1.600    0.000    2.400    0.000    2.133 
#   14.400    0.000    2.933    0.000    0.000    0.000 
#    0.000    0.000    0.000    0.000    0.000    0.000 
#
# Total GULP energy -334413.864263 kJ/mol
# GULP energy per Si atom -5573.564404 kJ/mol
# Density = 1.887444 g / cm^3
# Si number density = 18.917499 Si / 1000 Ang^3
#
#
#
# Elastic Constant Matrix: (Units=GPa)
#
#
# Indices 1 2 3 4 5 6 
#
# 1 57.6922 50.2851 60.6309 0.0000 0.0000 0.0000
# 2 50.2851 57.6922 60.6309 0.0000 0.0000 0.0000
# 3 60.6309 60.6309 181.8880 0.0000 0.0000 0.0000
# 4 0.0000 0.0000 0.0000 10.9736 0.0000 0.0000
# 5 0.0000 0.0000 0.0000 0.0000 10.9736 0.0000
# 6 0.0000 0.0000 0.0000 0.0000 0.0000 0.7009
#
#
#
# Elastic Compliance Matrix: (Units=1/GPa)
#
#
# Indices 1 2 3 4 5 6 
#
# 1 0.074904 -0.060101 -0.004934 0.000000 0.000000 0.000000
# 2 -0.060101 0.074904 -0.004934 0.000000 0.000000 0.000000
# 3 -0.004934 -0.004934 0.008788 0.000000 0.000000 0.000000
# 4 0.000000 0.000000 0.000000 0.091128 0.000000 0.000000
# 5 0.000000 0.000000 0.000000 0.000000 0.091128 0.000000
# 6 0.000000 0.000000 0.000000 0.000000 0.000000 1.426831
#
#
# Mechanical properties :
#
#
# Convention : Reuss Voigt Hill
#
# Bulk Modulus (GPa) = 53.60372 71.15181 62.37777
# Shear Modulus (GPa) = 2.61255 12.91130 7.76192
#
# Velocity S-wave (km/s) = 1.17644 2.61531 2.02779
# Velocity P-wave (km/s) = 5.49931 6.84201 6.20707
#
# Compressibility (1/GPa) = 0.01865542
#
# Stress axis : x y z
#
# Youngs Moduli (GPa) = 13.35042 13.35042 113.79766
#
# Poissons Ratio (x) = 0.80238 0.56152
# Poissons Ratio (y) = 0.80238 0.56152
# Poissons Ratio (z) = 0.06588 0.06588
#
# Static dielectric constant tensor:
#      x y z
#    x 1.669360 0.000000 0.000000 
#    y 0.000000 1.669360 0.000000 
#    z 0.000000 0.000000 1.624440 
# 
# From -- ./inp_files/8742.got.cif
#   From: 2010.05.17/outbox.cif.g08.bks.cpg/sg142_5_cif.got.tgz:8742.got - 2010.05.20 13:39:18.
