data_PCOD9573876
_publ_section_title
;
Structure prediction by ZEFSAII (Michael W. Deem and Ramdas Pophale) SiO2 
 PCOD9573876
Probable space group: I 41/A C D
;
_chemical_formula_sum "Si O2"
_cell_formula_units_Z 160
_cell_length_a 20.008362
_cell_length_b 20.008362
_cell_length_c 17.438012
_cell_angle_alpha 90.000000
_cell_angle_beta 90.000000
_cell_angle_gamma 90.000000
_cell_volume 6981.038686
_symmetry_space_group_name_H-M "I 41/A C D"
_symmetry_group_IT_number 142
_space_group.IT_coordinate_system_code '2'
_symmetry_cell_setting 'tetragonal'
loop_
_space_group_symop_operation_xyz
x,y,z
1/4-y,3/4+x,1/4+z
-x,1/2-y,z
1/4+y,1/4-x,3/4+z
x,-y,1/2-z
1/2-x,y,-z
3/4+y,1/4+x,1/4-z
1/4-y,1/4-x,1/4-z
-x,-y,-z
3/4+y,1/4-x,3/4-z
x,1/2+y,-z
3/4-y,3/4+x,1/4-z
-x,y,1/2+z
1/2+x,-y,z
1/4-y,3/4-x,3/4+z
3/4+y,3/4+x,3/4+z
1/2+x,1/2+y,1/2+z
3/4-y,1/4+x,3/4+z
1/2-x,-y,1/2+z
3/4+y,3/4-x,1/4+z
1/2+x,1/2-y,-z
-x,1/2+y,1/2-z
1/4+y,3/4+x,3/4-z
3/4-y,3/4-x,3/4-z
1/2-x,1/2-y,1/2-z
1/4+y,3/4-x,1/4-z
1/2+x,y,1/2-z
1/4-y,1/4+x,3/4-z
1/2-x,1/2+y,z
x,1/2-y,1/2+z
3/4-y,1/4-x,1/4+z
1/4+y,1/4+x,1/4+z
loop_
_atom_site_type_symbol
_atom_site_label
_atom_site_fract_x
_atom_site_fract_y
_atom_site_fract_z
Si Si1 0.535321 0.943877 0.685967
Si Si2 0.398781 0.168176 0.217021
Si Si3 0.235224 0.825603 0.775964
Si Si4 0.614565 0.676543 0.793158
Si Si5 0.387573 0.941001 0.690975
O O1 0.557503 0.874334 0.724333
O O2 0.577951 0.953193 0.609699
O O3 0.459682 0.961931 0.656695
O O4 0.549764 0.000000 0.750000
O O5 0.321133 0.144701 0.220759
O O6 0.396712 0.247641 0.234480
O O7 0.424323 0.157252 0.131030
O O8 0.250000 0.750000 0.750000
O O9 0.309780 0.851364 0.784719
O O10 0.582219 0.621142 0.740080
O O11 0.337256 0.912744 0.625000
O O12 0.365294 0.000000 0.750000
#
# Coordination Sequence:
#
# PCOD9573876 Si02
#       5
#    32  32  32  32  32
#     4  11  22  43  68 103 138 184 231 283 353 423
#     4  11  23  41  70 104 141 180 231 293 349 412
#     4  10  22  40  67  95 140 183 226 275 347 423
#     4  11  24  41  69 104 137 182 235 288 348 415
#     4  11  26  44  70  98 138 184 231 285 355 422
#
# _framework density 22.919225000000001
#
# number of rings (size 3 to 8) (size 9 to 14) (size 15 to 20)
#    0.000    1.200    2.000    4.200   11.200    2.800 
#    0.000    4.000    0.000    0.000    0.000    0.000 
#    0.000    0.000    0.000    0.000    0.000    0.000 
#
# Total GULP energy -446045.530528 kJ/mol
# GULP energy per Si atom -5575.569132 kJ/mol
# Density = 2.286706 g / cm^3
# Si number density = 22.919225 Si / 1000 Ang^3
#
#
#
# Elastic Constant Matrix: (Units=GPa)
#
#
# Indices 1 2 3 4 5 6 
#
# 1 121.8471 14.9617 22.4131 0.0000 0.0000 0.0000
# 2 14.9617 121.8475 22.4136 0.0000 0.0000 0.0000
# 3 22.4131 22.4136 69.7987 0.0000 0.0000 0.0000
# 4 0.0000 0.0000 0.0000 26.6869 0.0000 0.0000
# 5 0.0000 0.0000 0.0000 0.0000 26.6867 0.0000
# 6 0.0000 0.0000 0.0000 0.0000 0.0000 7.8758
#
#
#
# Elastic Compliance Matrix: (Units=1/GPa)
#
#
# Indices 1 2 3 4 5 6 
#
# 1 0.008762 -0.000593 -0.002623 0.000000 0.000000 0.000000
# 2 -0.000593 0.008762 -0.002623 0.000000 0.000000 0.000000
# 3 -0.002623 -0.002623 0.016012 0.000000 0.000000 0.000000
# 4 0.000000 0.000000 0.000000 0.037472 0.000000 0.000000
# 5 0.000000 0.000000 0.000000 0.000000 0.037472 0.000000
# 6 0.000000 0.000000 0.000000 0.000000 0.000000 0.126972
#
#
# Mechanical properties :
#
#
# Convention : Reuss Voigt Hill
#
# Bulk Modulus (GPa) = 45.75228 48.11891 46.93560
# Shear Modulus (GPa) = 19.65281 29.16353 24.40817
#
# Velocity S-wave (km/s) = 2.93146 3.57101 3.26692
# Velocity P-wave (km/s) = 5.60925 6.16793 5.89521
#
# Compressibility (1/GPa) = 0.02185683
#
# Stress axis : x y z
#
# Youngs Moduli (GPa) = 114.12419 114.12425 62.45471
#
# Poissons Ratio (x) = 0.06772 0.16383
# Poissons Ratio (y) = 0.06772 0.16383
# Poissons Ratio (z) = 0.29936 0.29937
#
# Static dielectric constant tensor:
#      x y z
#    x 2.145450 0.000000 0.000000 
#    y 0.000000 2.145450 0.000000 
#    z 0.000000 0.000000 1.859780 
# 
# From -- ./inp_files/7359.got.cif
#   From: 2010.05.17/outbox.cif.g08.bks.cpg/sg142_4_cif.got.tgz:7359.got - 2010.05.20 13:39:18.
