data_PCOD9573448
_publ_section_title
;
Structure prediction by ZEFSAII (Michael W. Deem and Ramdas Pophale) SiO2 
 PCOD9573448
Probable space group: I 41/A C D
;
_chemical_formula_sum "Si O2"
_cell_formula_units_Z 176
_cell_length_a 26.192455
_cell_length_b 26.192455
_cell_length_c 15.901199
_cell_angle_alpha 90.000000
_cell_angle_beta 90.000000
_cell_angle_gamma 90.000000
_cell_volume 10908.933281
_symmetry_space_group_name_H-M "I 41/A C D"
_symmetry_group_IT_number 142
_space_group.IT_coordinate_system_code '2'
_symmetry_cell_setting 'tetragonal'
loop_
_space_group_symop_operation_xyz
x,y,z
1/4-y,3/4+x,1/4+z
-x,1/2-y,z
1/4+y,1/4-x,3/4+z
x,-y,1/2-z
1/2-x,y,-z
3/4+y,1/4+x,1/4-z
1/4-y,1/4-x,1/4-z
-x,-y,-z
3/4+y,1/4-x,3/4-z
x,1/2+y,-z
3/4-y,3/4+x,1/4-z
-x,y,1/2+z
1/2+x,-y,z
1/4-y,3/4-x,3/4+z
3/4+y,3/4+x,3/4+z
1/2+x,1/2+y,1/2+z
3/4-y,1/4+x,3/4+z
1/2-x,-y,1/2+z
3/4+y,3/4-x,1/4+z
1/2+x,1/2-y,-z
-x,1/2+y,1/2-z
1/4+y,3/4+x,3/4-z
3/4-y,3/4-x,3/4-z
1/2-x,1/2-y,1/2-z
1/4+y,3/4-x,1/4-z
1/2+x,y,1/2-z
1/4-y,1/4+x,3/4-z
1/2-x,1/2+y,z
x,1/2-y,1/2+z
3/4-y,1/4-x,1/4+z
1/4+y,1/4+x,1/4+z
loop_
_atom_site_type_symbol
_atom_site_label
_atom_site_fract_x
_atom_site_fract_y
_atom_site_fract_z
Si Si1 0.125353 0.725578 0.660814
Si Si2 0.055975 0.271904 0.487923
Si Si3 0.713716 0.878779 0.613323
Si Si4 0.824338 0.633277 0.069765
Si Si5 0.655645 0.175554 0.749215
Si Si6 0.560733 0.810733 0.625000
O O1 0.094011 0.750427 0.582881
O O2 0.082682 0.700928 0.723749
O O3 0.161216 0.682522 0.622833
O O4 0.157396 0.770871 0.702734
O O5 0.067436 0.243841 0.577395
O O6 0.000000 0.250000 0.469494
O O7 0.678996 0.928996 0.625000
O O8 0.692914 0.854929 0.526090
O O9 0.773263 0.891558 0.607334
O O10 0.700441 0.839666 0.687450
O O11 0.876690 0.601505 0.061534
O O12 0.603666 0.180369 0.804572
#
# Coordination Sequence:
#
# PCOD9573448 Si02
#       6
#    32  32  32  32  32  16
#     4  12  19  28  45  70 107 140 169 200 254 305
#     4  12  18  27  40  68 103 147 175 195 230 301
#     4   9  19  35  52  72  94 125 174 227 270 294
#     4  10  18  33  51  70 101 130 163 217 261 307
#     4  11  19  30  48  73 103 131 172 219 249 305
#     4  12  19  28  44  68 106 140 180 204 234 294
#
# _framework density 16.133566999999999
#
# number of rings (size 3 to 8) (size 9 to 14) (size 15 to 20)
#    0.000    1.091   10.000    0.273    0.000    0.727 
#    0.000    0.000    0.000    0.000    0.000   10.182 
#   81.818    0.000    0.000    0.000    0.000    0.000 
#
# Total GULP energy -490107.089101 kJ/mol
# GULP energy per Si atom -5569.398740 kJ/mol
# Density = 1.609685 g / cm^3
# Si number density = 16.133567 Si / 1000 Ang^3
#
#
#
# Elastic Constant Matrix: (Units=GPa)
#
#
# Indices 1 2 3 4 5 6 
#
# 1 62.4611 24.6071 31.8122 0.0000 0.0000 0.0000
# 2 24.6071 62.4611 31.8122 0.0000 0.0000 0.0000
# 3 31.8122 31.8122 57.3040 0.0000 0.0000 0.0000
# 4 0.0000 0.0000 0.0000 17.3671 0.0000 0.0000
# 5 0.0000 0.0000 0.0000 0.0000 17.3671 0.0000
# 6 0.0000 0.0000 0.0000 0.0000 0.0000 9.6880
#
#
#
# Elastic Compliance Matrix: (Units=1/GPa)
#
#
# Indices 1 2 3 4 5 6 
#
# 1 0.022871 -0.003546 -0.010728 0.000000 0.000000 0.000000
# 2 -0.003546 0.022871 -0.010728 0.000000 0.000000 0.000000
# 3 -0.010728 -0.010728 0.029362 0.000000 0.000000 0.000000
# 4 0.000000 0.000000 0.000000 0.057580 0.000000 0.000000
# 5 0.000000 0.000000 0.000000 0.000000 0.057580 0.000000
# 6 0.000000 0.000000 0.000000 0.000000 0.000000 0.103220
#
#
# Mechanical properties :
#
#
# Convention : Reuss Voigt Hill
#
# Bulk Modulus (GPa) = 39.84183 39.85436 39.84809
# Shear Modulus (GPa) = 14.21036 15.15076 14.68056
#
# Velocity S-wave (km/s) = 2.97104 3.06777 3.01979
# Velocity P-wave (km/s) = 6.04301 6.10775 6.07547
#
# Compressibility (1/GPa) = 0.02509925
#
# Stress axis : x y z
#
# Youngs Moduli (GPa) = 43.72343 43.72343 34.05740
#
# Poissons Ratio (x) = 0.15506 0.36537
# Poissons Ratio (y) = 0.15506 0.36537
# Poissons Ratio (z) = 0.46907 0.46907
#
# Static dielectric constant tensor:
#      x y z
#    x 1.545550 0.000000 0.000000 
#    y 0.000000 1.545550 0.000000 
#    z 0.000000 0.000000 1.598750 
# 
# From -- ./inp_files/5688.got.cif
#   From: 2010.05.17/outbox.cif.g08.bks.cpg/sg142_3_cif.got.tgz:5688.got - 2010.05.20 13:39:18.
