data_PCOD9573995
_publ_section_title
;
Structure prediction by ZEFSAII (Michael W. Deem and Ramdas Pophale) SiO2 
 PCOD9573995
Probable space group: I 41/A C D
;
_chemical_formula_sum "Si O2"
_cell_formula_units_Z 72
_cell_length_a 11.242659
_cell_length_b 11.242659
_cell_length_c 22.934233
_cell_angle_alpha 90.000000
_cell_angle_beta 90.000000
_cell_angle_gamma 90.000000
_cell_volume 2898.826995
_symmetry_space_group_name_H-M "I 41/A C D"
_symmetry_group_IT_number 142
_space_group.IT_coordinate_system_code '2'
_symmetry_cell_setting 'tetragonal'
loop_
_space_group_symop_operation_xyz
x,y,z
1/4-y,3/4+x,1/4+z
-x,1/2-y,z
1/4+y,1/4-x,3/4+z
x,-y,1/2-z
1/2-x,y,-z
3/4+y,1/4+x,1/4-z
1/4-y,1/4-x,1/4-z
-x,-y,-z
3/4+y,1/4-x,3/4-z
x,1/2+y,-z
3/4-y,3/4+x,1/4-z
-x,y,1/2+z
1/2+x,-y,z
1/4-y,3/4-x,3/4+z
3/4+y,3/4+x,3/4+z
1/2+x,1/2+y,1/2+z
3/4-y,1/4+x,3/4+z
1/2-x,-y,1/2+z
3/4+y,3/4-x,1/4+z
1/2+x,1/2-y,-z
-x,1/2+y,1/2-z
1/4+y,3/4+x,3/4-z
3/4-y,3/4-x,3/4-z
1/2-x,1/2-y,1/2-z
1/4+y,3/4-x,1/4-z
1/2+x,y,1/2-z
1/4-y,1/4+x,3/4-z
1/2-x,1/2+y,z
x,1/2-y,1/2+z
3/4-y,1/4-x,1/4+z
1/4+y,1/4+x,1/4+z
loop_
_atom_site_type_symbol
_atom_site_label
_atom_site_fract_x
_atom_site_fract_y
_atom_site_fract_z
Si Si1 0.500000 0.750000 0.625000
Si Si2 0.135668 0.289641 0.960333
Si Si3 0.744830 0.674356 0.652290
O O1 0.622244 0.746155 0.660858
O O2 0.177834 0.243569 0.896170
O O3 0.115062 0.430746 0.957239
O O4 0.000000 0.250000 0.971993
O O5 0.250000 0.257481 0.000000
O O6 0.698074 0.551927 0.625000
#
# Coordination Sequence:
#
# PCOD9573995 Si02
#       3
#     8  32  32
#     4   8  24  40  76 108 146 216 260 324 448 476
#     4  12  26  48  79 119 164 220 277 343 426 512
#     4  10  23  47  76 111 166 204 263 356 413 493
#
# _framework density 24.837630999999998
#
# number of rings (size 3 to 8) (size 9 to 14) (size 15 to 20)
#    1.333    0.000    4.444    0.000    6.222    1.778 
#    0.000    6.667    0.000    2.667    0.000    0.000 
#    0.000    0.000    0.000    0.000    0.000    0.000 
#
# Total GULP energy -200661.069700 kJ/mol
# GULP energy per Si atom -5573.918603 kJ/mol
# Density = 2.478110 g / cm^3
# Si number density = 24.837631 Si / 1000 Ang^3
#
#
#
# Elastic Constant Matrix: (Units=GPa)
#
#
# Indices 1 2 3 4 5 6 
#
# 1 160.9029 60.2967 26.7566 0.0000 0.0000 0.0000
# 2 60.2967 160.9064 26.7571 0.0000 0.0000 0.0000
# 3 26.7566 26.7571 57.0675 0.0000 0.0000 0.0000
# 4 0.0000 0.0000 0.0000 31.0923 0.0000 0.0000
# 5 0.0000 0.0000 0.0000 0.0000 31.0914 0.0000
# 6 0.0000 0.0000 0.0000 0.0000 0.0000 62.1547
#
#
#
# Elastic Compliance Matrix: (Units=1/GPa)
#
#
# Indices 1 2 3 4 5 6 
#
# 1 0.007519 -0.002420 -0.002391 0.000000 0.000000 0.000000
# 2 -0.002420 0.007519 -0.002391 0.000000 0.000000 0.000000
# 3 -0.002391 -0.002391 0.019765 0.000000 0.000000 0.000000
# 4 0.000000 0.000000 0.000000 0.032162 0.000000 0.000000
# 5 0.000000 0.000000 0.000000 0.000000 0.032163 0.000000
# 6 0.000000 0.000000 0.000000 0.000000 0.000000 0.016089
#
#
# Mechanical properties :
#
#
# Convention : Reuss Voigt Hill
#
# Bulk Modulus (GPa) = 49.01930 67.38861 58.20396
# Shear Modulus (GPa) = 36.65102 42.53878 39.59490
#
# Velocity S-wave (km/s) = 3.84555 4.14294 3.99701
# Velocity P-wave (km/s) = 6.28462 7.07643 6.69224
#
# Compressibility (1/GPa) = 0.02040013
#
# Stress axis : x y z
#
# Youngs Moduli (GPa) = 132.98852 132.99129 50.59440
#
# Poissons Ratio (x) = 0.32187 0.12096
# Poissons Ratio (y) = 0.32186 0.12096
# Poissons Ratio (z) = 0.31795 0.31796
#
# Static dielectric constant tensor:
#      x y z
#    x 2.071050 0.000000 0.000000 
#    y 0.000000 2.071050 0.000000 
#    z 0.000000 0.000000 2.041030 
# 
# From -- ./inp_files/10755.got.cif
#   From: 2010.05.17/outbox.cif.g08.bks.cpg/sg142_6_cif.got.tgz:10755.got - 2010.05.20 13:39:18.
