data_PCOD9573283
_publ_section_title
;
Structure prediction by ZEFSAII (Michael W. Deem and Ramdas Pophale) SiO2 
 PCOD9573283
Probable space group: I 41/A M D
;
_chemical_formula_sum "Si O2"
_cell_formula_units_Z 160
_cell_length_a 21.823479
_cell_length_b 21.823479
_cell_length_c 16.789433
_cell_angle_alpha 90.000000
_cell_angle_beta 90.000000
_cell_angle_gamma 90.000000
_cell_volume 7996.206475
_symmetry_space_group_name_H-M "I 41/A M D"
_symmetry_group_IT_number 141
_space_group.IT_coordinate_system_code '2'
_symmetry_cell_setting 'tetragonal'
loop_
_space_group_symop_operation_xyz
x,y,z
1/4-y,3/4+x,1/4+z
-x,1/2-y,z
1/4+y,1/4-x,3/4+z
x,-y,-z
-x,1/2+y,-z
1/4+y,3/4+x,1/4-z
1/4-y,1/4-x,3/4-z
-x,-y,-z
3/4+y,1/4-x,3/4-z
x,1/2+y,-z
3/4-y,3/4+x,1/4-z
-x,y,z
x,1/2-y,z
3/4-y,1/4-x,3/4+z
3/4+y,3/4+x,1/4+z
1/2+x,1/2+y,1/2+z
3/4-y,1/4+x,3/4+z
1/2-x,-y,1/2+z
3/4+y,3/4-x,1/4+z
1/2+x,1/2-y,1/2-z
1/2-x,y,1/2-z
3/4+y,1/4+x,3/4-z
3/4-y,3/4-x,1/4-z
1/2-x,1/2-y,1/2-z
1/4+y,3/4-x,1/4-z
1/2+x,y,1/2-z
1/4-y,1/4+x,3/4-z
1/2-x,1/2+y,1/2+z
1/2+x,-y,1/2+z
1/4-y,3/4-x,1/4+z
1/4+y,1/4+x,3/4+z
loop_
_atom_site_type_symbol
_atom_site_label
_atom_site_fract_x
_atom_site_fract_y
_atom_site_fract_z
Si Si1 0.201572 0.640781 0.641388
Si Si2 0.928078 0.086015 0.559283
Si Si3 0.317719 0.077224 0.719980
Si Si4 0.242821 0.316922 0.514550
Si Si5 0.650767 0.179169 0.840718
O O1 0.177261 0.572740 0.625000
O O2 0.161639 0.666836 0.714419
O O3 0.272399 0.645393 0.666235
O O4 0.196435 0.678653 0.559771
O O5 0.900517 0.140904 0.611077
O O6 0.000000 0.078783 0.573860
O O7 0.323072 0.073072 0.625000
O O8 0.250000 0.058009 0.750000
O O9 0.331030 0.143029 0.760681
O O10 0.374067 0.034851 0.747165
O O11 0.273785 0.250000 0.511449
O O12 0.208132 0.322183 0.598226
O O13 0.634466 0.250000 0.826719
#
# Coordination Sequence:
#
# PCOD9573283 Si02
#       5
#    32  32  32  32  32
#     4  11  21  36  64 101 133 173 220 278 346 421
#     4  11  23  41  63  95 137 181 222 278 346 413
#     4  12  26  45  69 105 136 174 230 300 369 429
#     4  11  23  42  67  96 138 184 225 278 355 435
#     4  11  25  44  67  96 133 185 237 284 346 423
#
# _framework density 20.009488999999999
#
# number of rings (size 3 to 8) (size 9 to 14) (size 15 to 20)
#    0.000    0.800    6.000    2.400    0.000    4.000 
#    0.000    0.000    0.000    0.000    0.000    1.400 
#    0.000    0.000    0.000    0.000    0.000    0.000 
#
# Total GULP energy -446494.844135 kJ/mol
# GULP energy per Si atom -5581.185552 kJ/mol
# Density = 1.996395 g / cm^3
# Si number density = 20.009489 Si / 1000 Ang^3
#
#
#
# Elastic Constant Matrix: (Units=GPa)
#
#
# Indices 1 2 3 4 5 6 
#
# 1 130.1604 87.3787 41.9410 0.0000 0.0000 0.0000
# 2 87.3787 130.1630 41.9415 0.0000 0.0000 0.0000
# 3 41.9410 41.9415 164.9101 0.0000 0.0000 0.0000
# 4 0.0000 0.0000 0.0000 -21.3915 0.0000 0.0000
# 5 0.0000 0.0000 0.0000 0.0000 -21.3585 0.0000
# 6 0.0000 0.0000 0.0000 0.0000 0.0000 -115.8187
#
#
#
# Elastic Compliance Matrix: (Units=1/GPa)
#
#
# Indices 1 2 3 4 5 6 
#
# 1 0.014235 -0.009139 -0.001296 0.000000 0.000000 0.000000
# 2 -0.009139 0.014235 -0.001296 0.000000 0.000000 0.000000
# 3 -0.001296 -0.001296 0.006723 0.000000 0.000000 0.000000
# 4 0.000000 0.000000 0.000000 -0.046748 0.000000 0.000000
# 5 0.000000 0.000000 0.000000 0.000000 -0.046820 0.000000
# 6 0.000000 0.000000 0.000000 0.000000 0.000000 -0.008634
#
#
# Mechanical properties :
#
#
# Convention : Reuss Voigt Hill
#
# Bulk Modulus (GPa) = 85.23932 85.30621 85.27276
# Shear Modulus (GPa) = -126.14964 -14.78223 -70.46593
#
# Velocity S-wave (km/s) = -7.94870 -2.72096 -5.94077
# Velocity P-wave (km/s) = 6.44596 5.73183 2.08525
#
# Compressibility (1/GPa) = 0.01173168
#
# Stress axis : x y z
#
# Youngs Moduli (GPa) = 70.24772 70.24908 148.73775
#
# Poissons Ratio (x) = 0.64197 0.19280
# Poissons Ratio (y) = 0.64196 0.19280
# Poissons Ratio (z) = 0.09106 0.09106
#
# Static dielectric constant tensor:
#      x y z
#    x 1.716960 0.000000 0.000000 
#    y 0.000000 1.716950 0.000000 
#    z 0.000000 0.000000 1.787710 
# 
# From -- ./inp_files/8603.got.cif
#   From: 2010.05.17/outbox.cif.g08.bks.cpg/sg141_5_cif.got.tgz:8603.got - 2010.05.20 13:30:51.
