data_PCOD9573901
_publ_section_title
;
Structure prediction by ZEFSAII (Michael W. Deem and Ramdas Pophale) SiO2 
 PCOD9573901
Probable space group: I 41/A C D
;
_chemical_formula_sum "Si O2"
_cell_formula_units_Z 120
_cell_length_a 14.377333
_cell_length_b 14.377333
_cell_length_c 25.915223
_cell_angle_alpha 90.000000
_cell_angle_beta 90.000000
_cell_angle_gamma 90.000000
_cell_volume 5356.876250
_symmetry_space_group_name_H-M "I 41/A C D"
_symmetry_group_IT_number 142
_space_group.IT_coordinate_system_code '2'
_symmetry_cell_setting 'tetragonal'
loop_
_space_group_symop_operation_xyz
x,y,z
1/4-y,3/4+x,1/4+z
-x,1/2-y,z
1/4+y,1/4-x,3/4+z
x,-y,1/2-z
1/2-x,y,-z
3/4+y,1/4+x,1/4-z
1/4-y,1/4-x,1/4-z
-x,-y,-z
3/4+y,1/4-x,3/4-z
x,1/2+y,-z
3/4-y,3/4+x,1/4-z
-x,y,1/2+z
1/2+x,-y,z
1/4-y,3/4-x,3/4+z
3/4+y,3/4+x,3/4+z
1/2+x,1/2+y,1/2+z
3/4-y,1/4+x,3/4+z
1/2-x,-y,1/2+z
3/4+y,3/4-x,1/4+z
1/2+x,1/2-y,-z
-x,1/2+y,1/2-z
1/4+y,3/4+x,3/4-z
3/4-y,3/4-x,3/4-z
1/2-x,1/2-y,1/2-z
1/4+y,3/4-x,1/4-z
1/2+x,y,1/2-z
1/4-y,1/4+x,3/4-z
1/2-x,1/2+y,z
x,1/2-y,1/2+z
3/4-y,1/4-x,1/4+z
1/4+y,1/4+x,1/4+z
loop_
_atom_site_type_symbol
_atom_site_label
_atom_site_fract_x
_atom_site_fract_y
_atom_site_fract_z
Si Si1 0.100114 0.060603 0.905417
Si Si2 0.313543 0.936458 0.625000
Si Si3 0.500000 0.250000 0.625000
Si Si4 0.858063 0.610146 0.488765
Si Si5 0.106018 0.856018 0.875000
Si Si6 0.000000 0.250000 0.036504
O O1 0.205525 0.082671 0.887234
O O2 0.033024 0.148209 0.897248
O O3 0.081270 0.965447 0.874732
O O4 0.108920 0.038774 0.966992
O O5 0.336377 0.883723 0.678219
O O6 0.750000 0.628823 0.500000
O O7 0.923404 0.698290 0.496844
O O8 0.057390 0.816054 0.925464
#
# Coordination Sequence:
#
# PCOD9573901 Si02
#       6
#    32  16   8  32  16  16
#     4  10  24  44  65 101 137 186 229 288 357 424
#     4   9  20  44  72  90 138 185 234 292 340 423
#     4  12  26  40  70  98 152 184 234 302 364 434
#     4  10  22  42  69 100 135 182 233 287 353 417
#     4  10  24  45  70 101 136 184 240 290 354 418
#     4  11  23  40  71 101 134 182 232 295 342 425
#
# _framework density 22.401114
#
# number of rings (size 3 to 8) (size 9 to 14) (size 15 to 20)
#    0.000    1.867    0.000    2.400   11.200    1.067 
#    4.800    1.333    0.000    0.000    0.000    0.000 
#    0.000    0.000    0.000    0.000    0.000    0.000 
#
# Total GULP energy -334488.645165 kJ/mol
# GULP energy per Si atom -5574.810753 kJ/mol
# Density = 2.235013 g / cm^3
# Si number density = 22.401114 Si / 1000 Ang^3
#
#
#
# Elastic Constant Matrix: (Units=GPa)
#
#
# Indices 1 2 3 4 5 6 
#
# 1 86.2382 38.9390 37.6182 0.0000 0.0000 0.0000
# 2 38.9390 86.2393 37.6180 0.0000 0.0000 0.0000
# 3 37.6182 37.6180 95.9249 0.0000 0.0000 0.0000
# 4 0.0000 0.0000 0.0000 18.3503 0.0000 0.0000
# 5 0.0000 0.0000 0.0000 0.0000 18.3496 0.0000
# 6 0.0000 0.0000 0.0000 0.0000 0.0000 43.3223
#
#
#
# Elastic Compliance Matrix: (Units=1/GPa)
#
#
# Indices 1 2 3 4 5 6 
#
# 1 0.015797 -0.005345 -0.004099 0.000000 0.000000 0.000000
# 2 -0.005345 0.015797 -0.004099 0.000000 0.000000 0.000000
# 3 -0.004099 -0.004099 0.013640 0.000000 0.000000 0.000000
# 4 0.000000 0.000000 0.000000 0.054495 0.000000 0.000000
# 5 0.000000 0.000000 0.000000 0.000000 0.054497 0.000000
# 6 0.000000 0.000000 0.000000 0.000000 0.000000 0.023083
#
#
# Mechanical properties :
#
#
# Convention : Reuss Voigt Hill
#
# Bulk Modulus (GPa) = 55.10141 55.19477 55.14809
# Shear Modulus (GPa) = 23.75931 26.28623 25.02277
#
# Velocity S-wave (km/s) = 3.26027 3.42926 3.34583
# Velocity P-wave (km/s) = 6.23085 6.35394 6.29269
#
# Compressibility (1/GPa) = 0.01814836
#
# Stress axis : x y z
#
# Youngs Moduli (GPa) = 63.30256 63.30360 73.31508
#
# Poissons Ratio (x) = 0.33834 0.30052
# Poissons Ratio (y) = 0.33834 0.30051
# Poissons Ratio (z) = 0.25948 0.25948
#
# Static dielectric constant tensor:
#      x y z
#    x 1.823330 0.000000 0.000000 
#    y 0.000000 1.823320 0.000000 
#    z 0.000000 0.000000 1.872570 
# 
# From -- ./inp_files/12317.got.cif
#   From: 2010.05.17/outbox.cif.g08.bks.cpg/sg142_7_cif.got.tgz:12317.got - 2010.05.20 13:39:18.
