data_PCOD9573798
_publ_section_title
;
Structure prediction by ZEFSAII (Michael W. Deem and Ramdas Pophale) SiO2 
 PCOD9573798
Probable space group: I 41/A C D
;
_chemical_formula_sum "Si O2"
_cell_formula_units_Z 136
_cell_length_a 23.764040
_cell_length_b 23.764040
_cell_length_c 12.570571
_cell_angle_alpha 90.000000
_cell_angle_beta 90.000000
_cell_angle_gamma 90.000000
_cell_volume 7098.973496
_symmetry_space_group_name_H-M "I 41/A C D"
_symmetry_group_IT_number 142
_space_group.IT_coordinate_system_code '2'
_symmetry_cell_setting 'tetragonal'
loop_
_space_group_symop_operation_xyz
x,y,z
1/4-y,3/4+x,1/4+z
-x,1/2-y,z
1/4+y,1/4-x,3/4+z
x,-y,1/2-z
1/2-x,y,-z
3/4+y,1/4+x,1/4-z
1/4-y,1/4-x,1/4-z
-x,-y,-z
3/4+y,1/4-x,3/4-z
x,1/2+y,-z
3/4-y,3/4+x,1/4-z
-x,y,1/2+z
1/2+x,-y,z
1/4-y,3/4-x,3/4+z
3/4+y,3/4+x,3/4+z
1/2+x,1/2+y,1/2+z
3/4-y,1/4+x,3/4+z
1/2-x,-y,1/2+z
3/4+y,3/4-x,1/4+z
1/2+x,1/2-y,-z
-x,1/2+y,1/2-z
1/4+y,3/4+x,3/4-z
3/4-y,3/4-x,3/4-z
1/2-x,1/2-y,1/2-z
1/4+y,3/4-x,1/4-z
1/2+x,y,1/2-z
1/4-y,1/4+x,3/4-z
1/2-x,1/2+y,z
x,1/2-y,1/2+z
3/4-y,1/4-x,1/4+z
1/4+y,1/4+x,1/4+z
loop_
_atom_site_type_symbol
_atom_site_label
_atom_site_fract_x
_atom_site_fract_y
_atom_site_fract_z
Si Si1 0.500000 0.750000 0.875000
Si Si2 0.728052 0.397065 0.308606
Si Si3 0.853061 0.603081 0.136068
Si Si4 0.430324 0.402673 0.813481
Si Si5 0.954036 0.351713 0.227716
O O1 0.480205 0.802472 0.802256
O O2 0.698424 0.448424 0.375000
O O3 0.794324 0.402545 0.303249
O O4 0.699490 0.392490 0.193986
O O5 0.707657 0.342645 0.376067
O O6 0.906614 0.614300 0.208442
O O7 0.847556 0.655778 0.055175
O O8 0.398808 0.351193 0.875000
O O9 0.495829 0.392015 0.810320
O O10 0.926996 0.323005 0.125000
#
# Coordination Sequence:
#
# PCOD9573798 Si02
#       5
#     8  32  32  32  32
#     4  12  22  40  68  82 132 176 198 256 312 382
#     4   9  19  39  69  89 117 163 215 257 317 383
#     4  10  21  40  63  93 121 164 210 261 314 378
#     4   9  18  36  61  92 120 162 211 255 306 375
#     4  12  24  37  61  95 127 163 213 256 310 373
#
# _framework density 19.157699999999998
#
# number of rings (size 3 to 8) (size 9 to 14) (size 15 to 20)
#    0.000    2.353    2.353    4.588    3.294    0.000 
#    0.000   11.765    0.000    0.000    0.000    0.000 
#    0.000    0.000    0.000    0.000    0.000    0.000 
#
# Total GULP energy -379677.698661 kJ/mol
# GULP energy per Si atom -5583.495569 kJ/mol
# Density = 1.911410 g / cm^3
# Si number density = 19.157700 Si / 1000 Ang^3
#
#
#
# Elastic Constant Matrix: (Units=GPa)
#
#
# Indices 1 2 3 4 5 6 
#
# 1 92.1265 27.4710 11.0406 0.0000 0.0000 0.0000
# 2 27.4710 92.1129 11.0390 0.0000 0.0000 0.0000
# 3 11.0406 11.0390 44.9043 0.0000 0.0000 0.0000
# 4 0.0000 0.0000 0.0000 6.2107 0.0000 0.0000
# 5 0.0000 0.0000 0.0000 0.0000 6.2099 0.0000
# 6 0.0000 0.0000 0.0000 0.0000 0.0000 2.6206
#
#
#
# Elastic Compliance Matrix: (Units=1/GPa)
#
#
# Indices 1 2 3 4 5 6 
#
# 1 0.012113 -0.003354 -0.002154 0.000000 0.000000 0.000000
# 2 -0.003354 0.012115 -0.002153 0.000000 0.000000 0.000000
# 3 -0.002154 -0.002153 0.023328 0.000000 0.000000 0.000000
# 4 0.000000 0.000000 0.000000 0.161012 0.000000 0.000000
# 5 0.000000 0.000000 0.000000 0.000000 0.161033 0.000000
# 6 0.000000 0.000000 0.000000 0.000000 0.000000 0.381596
#
#
# Mechanical properties :
#
#
# Convention : Reuss Voigt Hill
#
# Bulk Modulus (GPa) = 31.02383 36.47164 33.74774
# Shear Modulus (GPa) = 6.43282 14.98111 10.70697
#
# Velocity S-wave (km/s) = 1.83442 2.79944 2.36664
# Velocity P-wave (km/s) = 4.55147 5.43397 5.01218
#
# Compressibility (1/GPa) = 0.03223328
#
# Stress axis : x y z
#
# Youngs Moduli (GPa) = 82.55617 82.54435 42.86609
#
# Poissons Ratio (x) = 0.27688 0.09232
# Poissons Ratio (y) = 0.27692 0.09231
# Poissons Ratio (z) = 0.17779 0.17776
#
# Static dielectric constant tensor:
#      x y z
#    x 1.669730 0.000000 0.000000 
#    y 0.000000 1.669730 0.000000 
#    z 0.000000 0.000000 1.663540 
# 
# From -- ./inp_files/3567.got.cif
#   From: 2010.05.17/outbox.cif.g08.bks.cpg/sg142_2_cif.got.tgz:3567.got - 2010.05.20 13:39:18.
