data_PCOD9573320
_publ_section_title
;
Structure prediction by ZEFSAII (Michael W. Deem and Ramdas Pophale) SiO2 
 PCOD9573320
Probable space group: I 41/A M D
;
_chemical_formula_sum "Si O2"
_cell_formula_units_Z 96
_cell_length_a 15.516209
_cell_length_b 15.516209
_cell_length_c 18.246517
_cell_angle_alpha 90.000000
_cell_angle_beta 90.000000
_cell_angle_gamma 90.000000
_cell_volume 4392.898995
_symmetry_space_group_name_H-M "I 41/A M D"
_symmetry_group_IT_number 141
_space_group.IT_coordinate_system_code '2'
_symmetry_cell_setting 'tetragonal'
loop_
_space_group_symop_operation_xyz
x,y,z
1/4-y,3/4+x,1/4+z
-x,1/2-y,z
1/4+y,1/4-x,3/4+z
x,-y,-z
-x,1/2+y,-z
1/4+y,3/4+x,1/4-z
1/4-y,1/4-x,3/4-z
-x,-y,-z
3/4+y,1/4-x,3/4-z
x,1/2+y,-z
3/4-y,3/4+x,1/4-z
-x,y,z
x,1/2-y,z
3/4-y,1/4-x,3/4+z
3/4+y,3/4+x,1/4+z
1/2+x,1/2+y,1/2+z
3/4-y,1/4+x,3/4+z
1/2-x,-y,1/2+z
3/4+y,3/4-x,1/4+z
1/2+x,1/2-y,1/2-z
1/2-x,y,1/2-z
3/4+y,1/4+x,3/4-z
3/4-y,3/4-x,1/4-z
1/2-x,1/2-y,1/2-z
1/4+y,3/4-x,1/4-z
1/2+x,y,1/2-z
1/4-y,1/4+x,3/4-z
1/2-x,1/2+y,1/2+z
1/2+x,-y,1/2+z
1/4-y,3/4-x,1/4+z
1/4+y,1/4+x,3/4+z
loop_
_atom_site_type_symbol
_atom_site_label
_atom_site_fract_x
_atom_site_fract_y
_atom_site_fract_z
Si Si1 0.096620 0.153381 0.875000
Si Si2 0.405306 0.344695 0.125000
Si Si3 0.651272 0.488445 0.234340
Si Si4 0.216104 0.154029 0.651277
O O1 0.100719 0.250000 0.909173
O O2 0.182339 0.149194 0.824341
O O3 0.398540 0.250000 0.159668
O O4 0.331037 0.355952 0.066219
O O5 0.750000 0.462707 0.250000
O O6 0.661905 0.576203 0.185901
O O7 0.607426 0.482017 0.314025
O O8 0.183012 0.250000 0.666319
#
# Coordination Sequence:
#
# PCOD9573320 Si02
#       4
#    16  16  32  32
#     4   9  17  30  50  82 125 169 218 276 332 395
#     4  11  25  44  68  94 127 173 222 280 344 405
#     4  12  21  43  65  98 134 174 228 283 345 408
#     4  11  23  39  65  97 135 185 233 280 344 419
#
# _framework density 21.853451
#
# number of rings (size 3 to 8) (size 9 to 14) (size 15 to 20)
#    0.000    1.000    6.667    1.000    0.000    2.667 
#    0.000    0.000    0.000    5.000    0.000    0.000 
#    0.000    0.000    0.000    0.000    0.000    0.000 
#
# Total GULP energy -267586.044743 kJ/mol
# GULP energy per Si atom -5574.709265 kJ/mol
# Density = 2.180371 g / cm^3
# Si number density = 21.853451 Si / 1000 Ang^3
#
#
#
# Elastic Constant Matrix: (Units=GPa)
#
#
# Indices 1 2 3 4 5 6 
#
# 1 112.5542 71.5185 47.4844 0.0000 0.0000 0.0000
# 2 71.5185 112.5527 47.4852 0.0000 0.0000 0.0000
# 3 47.4844 47.4852 140.0285 0.0000 0.0000 0.0000
# 4 0.0000 0.0000 0.0000 18.0766 0.0000 0.0000
# 5 0.0000 0.0000 0.0000 0.0000 18.0763 0.0000
# 6 0.0000 0.0000 0.0000 0.0000 0.0000 29.5727
#
#
#
# Elastic Compliance Matrix: (Units=1/GPa)
#
#
# Indices 1 2 3 4 5 6 
#
# 1 0.015477 -0.008892 -0.002233 0.000000 0.000000 0.000000
# 2 -0.008892 0.015477 -0.002233 0.000000 0.000000 0.000000
# 3 -0.002233 -0.002233 0.008656 0.000000 0.000000 0.000000
# 4 0.000000 0.000000 0.000000 0.055320 0.000000 0.000000
# 5 0.000000 0.000000 0.000000 0.000000 0.055321 0.000000
# 6 0.000000 0.000000 0.000000 0.000000 0.000000 0.033815
#
#
# Mechanical properties :
#
#
# Convention : Reuss Voigt Hill
#
# Bulk Modulus (GPa) = 77.55836 77.56796 77.56316
# Shear Modulus (GPa) = 23.24710 26.38826 24.81768
#
# Velocity S-wave (km/s) = 3.26509 3.47869 3.37358
# Velocity P-wave (km/s) = 7.05561 7.19074 7.12350
#
# Compressibility (1/GPa) = 0.01289352
#
# Stress axis : x y z
#
# Youngs Moduli (GPa) = 64.61230 64.61093 115.52936
#
# Poissons Ratio (x) = 0.57455 0.25795
# Poissons Ratio (y) = 0.57456 0.25798
# Poissons Ratio (z) = 0.14427 0.14428
#
# Static dielectric constant tensor:
#      x y z
#    x 1.834640 0.000000 0.000000 
#    y 0.000000 1.834630 0.000000 
#    z 0.000000 0.000000 1.882350 
# 
# From -- ./inp_files/9793.got.cif
#   From: 2010.05.17/outbox.cif.g08.bks.cpg/sg141_5_cif.got.tgz:9793.got - 2010.05.20 13:30:51.
