data_PCOD9573022
_publ_section_title
;
Structure prediction by ZEFSAII (Michael W. Deem and Ramdas Pophale) SiO2 
 PCOD9573022
Probable space group: I 41/A M D
;
_chemical_formula_sum "Si O2"
_cell_formula_units_Z 160
_cell_length_a 27.440318
_cell_length_b 27.440318
_cell_length_c 12.227530
_cell_angle_alpha 90.000000
_cell_angle_beta 90.000000
_cell_angle_gamma 90.000000
_cell_volume 9206.976127
_symmetry_space_group_name_H-M "I 41/A M D"
_symmetry_group_IT_number 141
_space_group.IT_coordinate_system_code '2'
_symmetry_cell_setting 'tetragonal'
loop_
_space_group_symop_operation_xyz
x,y,z
1/4-y,3/4+x,1/4+z
-x,1/2-y,z
1/4+y,1/4-x,3/4+z
x,-y,-z
-x,1/2+y,-z
1/4+y,3/4+x,1/4-z
1/4-y,1/4-x,3/4-z
-x,-y,-z
3/4+y,1/4-x,3/4-z
x,1/2+y,-z
3/4-y,3/4+x,1/4-z
-x,y,z
x,1/2-y,z
3/4-y,1/4-x,3/4+z
3/4+y,3/4+x,1/4+z
1/2+x,1/2+y,1/2+z
3/4-y,1/4+x,3/4+z
1/2-x,-y,1/2+z
3/4+y,3/4-x,1/4+z
1/2+x,1/2-y,1/2-z
1/2-x,y,1/2-z
3/4+y,1/4+x,3/4-z
3/4-y,3/4-x,1/4-z
1/2-x,1/2-y,1/2-z
1/4+y,3/4-x,1/4-z
1/2+x,y,1/2-z
1/4-y,1/4+x,3/4-z
1/2-x,1/2+y,1/2+z
1/2+x,-y,1/2+z
1/4-y,3/4-x,1/4+z
1/4+y,1/4+x,3/4+z
loop_
_atom_site_type_symbol
_atom_site_label
_atom_site_fract_x
_atom_site_fract_y
_atom_site_fract_z
Si Si1 0.309310 0.304979 0.242406
Si Si2 0.614850 0.554303 0.550061
Si Si3 0.189267 0.865417 0.950582
Si Si4 0.557001 0.389390 0.613897
Si Si5 0.303022 0.623830 0.939633
O O1 0.326877 0.250000 0.255771
O O2 0.250000 0.303813 0.250000
O O3 0.328323 0.340247 0.338025
O O4 0.320764 0.328531 0.125923
O O5 0.615816 0.500000 0.500000
O O6 0.661078 0.586344 0.512900
O O7 0.569284 0.583696 0.500151
O O8 0.619195 0.557964 0.680757
O O9 0.244775 0.879324 0.928041
O O10 0.177901 0.825806 0.044257
O O11 0.591439 0.341439 0.625000
O O12 0.500000 0.379055 0.625988
O O13 0.329787 0.579787 0.875000
#
# Coordination Sequence:
#
# PCOD9573022 Si02
#       5
#    32  32  32  32  32
#     4   9  18  32  53  78 102 137 188 237 281 332
#     4  11  22  38  55  81 118 154 194 239 287 349
#     4  10  20  38  56  80 113 155 193 237 286 341
#     4  10  22  39  61  87 116 151 191 244 301 355
#     4  11  21  36  55  81 117 154 193 241 284 344
#
# _framework density 17.378126999999999
#
# number of rings (size 3 to 8) (size 9 to 14) (size 15 to 20)
#    0.000    1.800    4.000    0.600    0.000    2.200 
#    3.600    0.000    0.000    0.000    0.000    0.000 
#    0.000    0.400    0.000    0.000    0.000    0.000 
#
# Total GULP energy -445372.268103 kJ/mol
# GULP energy per Si atom -5567.153351 kJ/mol
# Density = 1.733857 g / cm^3
# Si number density = 17.378127 Si / 1000 Ang^3
#
#
#
# Elastic Constant Matrix: (Units=GPa)
#
#
# Indices 1 2 3 4 5 6 
#
# 1 101.6781 51.2383 34.7319 0.0000 0.0000 0.0000
# 2 51.2383 101.6781 34.7319 0.0000 0.0000 0.0000
# 3 34.7319 34.7319 131.3905 0.0000 0.0000 0.0000
# 4 0.0000 0.0000 0.0000 15.0887 0.0000 0.0000
# 5 0.0000 0.0000 0.0000 0.0000 15.0887 0.0000
# 6 0.0000 0.0000 0.0000 0.0000 0.0000 13.0285
#
#
#
# Elastic Compliance Matrix: (Units=1/GPa)
#
#
# Indices 1 2 3 4 5 6 
#
# 1 0.013629 -0.006197 -0.001965 0.000000 0.000000 0.000000
# 2 -0.006197 0.013629 -0.001965 0.000000 0.000000 0.000000
# 3 -0.001965 -0.001965 0.008650 0.000000 0.000000 0.000000
# 4 0.000000 0.000000 0.000000 0.066275 0.000000 0.000000
# 5 0.000000 0.000000 0.000000 0.000000 0.066275 0.000000
# 6 0.000000 0.000000 0.000000 0.000000 0.000000 0.076755
#
#
# Mechanical properties :
#
#
# Convention : Reuss Voigt Hill
#
# Bulk Modulus (GPa) = 63.87673 64.01676 63.94674
# Shear Modulus (GPa) = 18.47185 22.91080 20.69132
#
# Velocity S-wave (km/s) = 3.26381 3.63488 3.45433
# Velocity P-wave (km/s) = 7.14423 7.38471 7.26547
#
# Compressibility (1/GPa) = 0.01565515
#
# Stress axis : x y z
#
# Youngs Moduli (GPa) = 73.37408 73.37408 115.61323
#
# Poissons Ratio (x) = 0.45469 0.22713
# Poissons Ratio (y) = 0.45469 0.22713
# Poissons Ratio (z) = 0.14415 0.14415
#
# Static dielectric constant tensor:
#      x y z
#    x 1.592050 0.000000 0.000000 
#    y 0.000000 1.592050 0.000000 
#    z 0.000000 0.000000 1.657540 
# 
# From -- ./inp_files/4855.got.cif
#   From: 2010.05.17/outbox.cif.g08.bks.cpg/sg141_3_cif.got.tgz:4855.got - 2010.05.20 13:30:51.
