data_PCOD9573681
_publ_section_title
;
Structure prediction by ZEFSAII (Michael W. Deem and Ramdas Pophale) SiO2 
 PCOD9573681
Probable space group: I 41/A C D
;
_chemical_formula_sum "Si O2"
_cell_formula_units_Z 112
_cell_length_a 13.996979
_cell_length_b 13.996979
_cell_length_c 21.256903
_cell_angle_alpha 90.000000
_cell_angle_beta 90.000000
_cell_angle_gamma 90.000000
_cell_volume 4164.555103
_symmetry_space_group_name_H-M "I 41/A C D"
_symmetry_group_IT_number 142
_space_group.IT_coordinate_system_code '2'
_symmetry_cell_setting 'tetragonal'
loop_
_space_group_symop_operation_xyz
x,y,z
1/4-y,3/4+x,1/4+z
-x,1/2-y,z
1/4+y,1/4-x,3/4+z
x,-y,1/2-z
1/2-x,y,-z
3/4+y,1/4+x,1/4-z
1/4-y,1/4-x,1/4-z
-x,-y,-z
3/4+y,1/4-x,3/4-z
x,1/2+y,-z
3/4-y,3/4+x,1/4-z
-x,y,1/2+z
1/2+x,-y,z
1/4-y,3/4-x,3/4+z
3/4+y,3/4+x,3/4+z
1/2+x,1/2+y,1/2+z
3/4-y,1/4+x,3/4+z
1/2-x,-y,1/2+z
3/4+y,3/4-x,1/4+z
1/2+x,1/2-y,-z
-x,1/2+y,1/2-z
1/4+y,3/4+x,3/4-z
3/4-y,3/4-x,3/4-z
1/2-x,1/2-y,1/2-z
1/4+y,3/4-x,1/4-z
1/2+x,y,1/2-z
1/4-y,1/4+x,3/4-z
1/2-x,1/2+y,z
x,1/2-y,1/2+z
3/4-y,1/4-x,1/4+z
1/4+y,1/4+x,1/4+z
loop_
_atom_site_type_symbol
_atom_site_label
_atom_site_fract_x
_atom_site_fract_y
_atom_site_fract_z
Si Si1 0.391121 0.654233 0.848201
Si Si2 0.521972 0.612371 0.735746
Si Si3 0.395797 0.145797 0.375000
Si Si4 0.286087 0.584499 0.298379
O O1 0.370913 0.762375 0.865764
O O2 0.435839 0.652265 0.779186
O O3 0.312632 0.591354 0.884643
O O4 0.517643 0.500000 0.750000
O O5 0.490926 0.634884 0.665679
O O6 0.630353 0.635987 0.756537
O O7 0.308020 0.134479 0.325586
O O8 0.256125 0.500000 0.250000
#
# Coordination Sequence:
#
# PCOD9573681 Si02
#       4
#    32  32  16  32
#     4   9  18  37  64  90 127 176 221 279 343 403
#     4  10  20  39  63  98 131 175 229 276 340 421
#     4  12  22  40  68  97 142 185 216 292 346 392
#     4  10  22  37  63  99 130 175 231 275 339 420
#
# _framework density 26.893630999999999
#
# number of rings (size 3 to 8) (size 9 to 14) (size 15 to 20)
#    0.000    2.000    2.857    0.857    0.000    0.000 
#    0.000    7.143    0.000   12.000    0.000    0.000 
#    0.000    0.000    0.000    0.000    0.000    0.000 
#
# Total GULP energy -312226.108101 kJ/mol
# GULP energy per Si atom -5575.466216 kJ/mol
# Density = 2.683242 g / cm^3
# Si number density = 26.893631 Si / 1000 Ang^3
#
#
#
# Elastic Constant Matrix: (Units=GPa)
#
#
# Indices 1 2 3 4 5 6 
#
# 1 99.8782 35.8361 68.7149 0.0000 0.0000 0.0000
# 2 35.8361 99.8782 68.7149 0.0000 0.0000 0.0000
# 3 68.7149 68.7149 178.6379 0.0000 0.0000 0.0000
# 4 0.0000 0.0000 0.0000 54.9068 0.0000 0.0000
# 5 0.0000 0.0000 0.0000 0.0000 54.9068 0.0000
# 6 0.0000 0.0000 0.0000 0.0000 0.0000 20.1023
#
#
#
# Elastic Compliance Matrix: (Units=1/GPa)
#
#
# Indices 1 2 3 4 5 6 
#
# 1 0.013842 -0.001772 -0.004643 0.000000 0.000000 0.000000
# 2 -0.001772 0.013842 -0.004643 0.000000 0.000000 0.000000
# 3 -0.004643 -0.004643 0.009170 0.000000 0.000000 0.000000
# 4 0.000000 0.000000 0.000000 0.018213 0.000000 0.000000
# 5 0.000000 0.000000 0.000000 0.000000 0.018213 0.000000
# 6 0.000000 0.000000 0.000000 0.000000 0.000000 0.049746
#
#
# Mechanical properties :
#
#
# Convention : Reuss Voigt Hill
#
# Bulk Modulus (GPa) = 67.85045 80.54736 74.19890
# Shear Modulus (GPa) = 33.32128 39.65840 36.48984
#
# Velocity S-wave (km/s) = 3.52377 3.84427 3.68750
# Velocity P-wave (km/s) = 6.46837 7.05123 6.76608
#
# Compressibility (1/GPa) = 0.01473830
#
# Stress axis : x y z
#
# Youngs Moduli (GPa) = 72.24221 72.24221 109.05448
#
# Poissons Ratio (x) = 0.12804 0.50632
# Poissons Ratio (y) = 0.12804 0.50632
# Poissons Ratio (z) = 0.33541 0.33541
#
# Static dielectric constant tensor:
#      x y z
#    x 2.153860 0.000000 0.000000 
#    y 0.000000 2.153860 0.000000 
#    z 0.000000 0.000000 2.198710 
# 
# From -- ./inp_files/6862.got.cif
#   From: 2010.05.17/outbox.cif.g08.bks.cpg/sg142_4_cif.got.tgz:6862.got - 2010.05.20 13:39:18.
