data_PCOD9573257
_publ_section_title
;
Structure prediction by ZEFSAII (Michael W. Deem and Ramdas Pophale) SiO2 
 PCOD9573257
Probable space group: I 41/A M D
;
_chemical_formula_sum "Si O2"
_cell_formula_units_Z 96
_cell_length_a 20.159403
_cell_length_b 20.159403
_cell_length_c 11.057630
_cell_angle_alpha 90.000000
_cell_angle_beta 90.000000
_cell_angle_gamma 90.000000
_cell_volume 4493.837743
_symmetry_space_group_name_H-M "I 41/A M D"
_symmetry_group_IT_number 141
_space_group.IT_coordinate_system_code '2'
_symmetry_cell_setting 'tetragonal'
loop_
_space_group_symop_operation_xyz
x,y,z
1/4-y,3/4+x,1/4+z
-x,1/2-y,z
1/4+y,1/4-x,3/4+z
x,-y,-z
-x,1/2+y,-z
1/4+y,3/4+x,1/4-z
1/4-y,1/4-x,3/4-z
-x,-y,-z
3/4+y,1/4-x,3/4-z
x,1/2+y,-z
3/4-y,3/4+x,1/4-z
-x,y,z
x,1/2-y,z
3/4-y,1/4-x,3/4+z
3/4+y,3/4+x,1/4+z
1/2+x,1/2+y,1/2+z
3/4-y,1/4+x,3/4+z
1/2-x,-y,1/2+z
3/4+y,3/4-x,1/4+z
1/2+x,1/2-y,1/2-z
1/2-x,y,1/2-z
3/4+y,1/4+x,3/4-z
3/4-y,3/4-x,1/4-z
1/2-x,1/2-y,1/2-z
1/4+y,3/4-x,1/4-z
1/2+x,y,1/2-z
1/4-y,1/4+x,3/4-z
1/2-x,1/2+y,1/2+z
1/2+x,-y,1/2+z
1/4-y,3/4-x,1/4+z
1/4+y,1/4+x,3/4+z
loop_
_atom_site_type_symbol
_atom_site_label
_atom_site_fract_x
_atom_site_fract_y
_atom_site_fract_z
Si Si1 0.758283 0.115307 0.378487
Si Si2 0.706621 0.627599 0.132731
Si Si3 0.079183 0.675443 0.990930
O O1 0.750000 0.151938 0.250000
O O2 0.829067 0.079067 0.375000
O O3 0.757611 0.149688 0.509034
O O4 0.701339 0.058560 0.380015
O O5 0.750000 0.644433 0.250000
O O6 0.632091 0.654745 0.147206
O O7 0.105190 0.750000 0.966139
O O8 0.000000 0.680792 0.998503
O O9 0.099330 0.650671 0.125000
#
# Coordination Sequence:
#
# PCOD9573257 Si02
#       3
#    32  32  32
#     4   9  18  31  49  75 111 146 168 209 284 349
#     4  11  18  29  54  84 107 134 182 232 276 334
#     4   9  19  35  52  73 107 148 186 233 295 351
#
# _framework density 21.362587999999999
#
# number of rings (size 3 to 8) (size 9 to 14) (size 15 to 20)
#    0.000    2.333    0.000    7.000    0.000    0.667 
#    0.000    1.667    0.000   28.000    0.000   21.000 
#    0.000    0.000    0.000    0.000    0.000    0.000 
#
# Total GULP energy -267382.801706 kJ/mol
# GULP energy per Si atom -5570.475036 kJ/mol
# Density = 2.131397 g / cm^3
# Si number density = 21.362588 Si / 1000 Ang^3
#
#
#
# Elastic Constant Matrix: (Units=GPa)
#
#
# Indices 1 2 3 4 5 6 
#
# 1 39.4268 11.5559 30.1698 0.0000 0.0000 0.0000
# 2 11.5559 39.4262 30.1694 0.0000 0.0000 0.0000
# 3 30.1698 30.1694 211.0621 0.0000 0.0000 0.0000
# 4 0.0000 0.0000 0.0000 2.5207 0.0000 0.0000
# 5 0.0000 0.0000 0.0000 0.0000 2.5180 0.0000
# 6 0.0000 0.0000 0.0000 0.0000 0.0000 29.0861
#
#
#
# Elastic Compliance Matrix: (Units=1/GPa)
#
#
# Indices 1 2 3 4 5 6 
#
# 1 0.029744 -0.006136 -0.003375 0.000000 0.000000 0.000000
# 2 -0.006136 0.029745 -0.003375 0.000000 0.000000 0.000000
# 3 -0.003375 -0.003375 0.005703 0.000000 0.000000 0.000000
# 4 0.000000 0.000000 0.000000 0.396717 0.000000 0.000000
# 5 0.000000 0.000000 0.000000 0.000000 0.397146 0.000000
# 6 0.000000 0.000000 0.000000 0.000000 0.000000 0.034381
#
#
# Mechanical properties :
#
#
# Convention : Reuss Voigt Hill
#
# Bulk Modulus (GPa) = 25.36700 48.18948 36.77824
# Shear Modulus (GPa) = 5.36282 21.35962 13.36122
#
# Velocity S-wave (km/s) = 1.58614 3.16549 2.50361
# Velocity P-wave (km/s) = 3.90573 5.99727 5.06073
#
# Compressibility (1/GPa) = 0.03942130
#
# Stress axis : x y z
#
# Youngs Moduli (GPa) = 33.62009 33.61964 175.35549
#
# Poissons Ratio (x) = 0.20628 0.59177
# Poissons Ratio (y) = 0.20628 0.59176
# Poissons Ratio (z) = 0.11346 0.11345
#
# Static dielectric constant tensor:
#      x y z
#    x 1.794390 0.000000 0.000000 
#    y 0.000000 1.794390 0.000000 
#    z 0.000000 0.000000 1.894410 
# 
# From -- ./inp_files/4157.got.cif
#   From: 2010.05.17/outbox.cif.g08.bks.cpg/sg141_3_cif.got.tgz:4157.got - 2010.05.20 13:30:51.
