data_PCOD9573780
_publ_section_title
;
Structure prediction by ZEFSAII (Michael W. Deem and Ramdas Pophale) SiO2 
 PCOD9573780
Probable space group: I 41/A C D
;
_chemical_formula_sum "Si O2"
_cell_formula_units_Z 128
_cell_length_a 19.104453
_cell_length_b 19.104453
_cell_length_c 14.713373
_cell_angle_alpha 90.000000
_cell_angle_beta 90.000000
_cell_angle_gamma 90.000000
_cell_volume 5370.088708
_symmetry_space_group_name_H-M "I 41/A C D"
_symmetry_group_IT_number 142
_space_group.IT_coordinate_system_code '2'
_symmetry_cell_setting 'tetragonal'
loop_
_space_group_symop_operation_xyz
x,y,z
1/4-y,3/4+x,1/4+z
-x,1/2-y,z
1/4+y,1/4-x,3/4+z
x,-y,1/2-z
1/2-x,y,-z
3/4+y,1/4+x,1/4-z
1/4-y,1/4-x,1/4-z
-x,-y,-z
3/4+y,1/4-x,3/4-z
x,1/2+y,-z
3/4-y,3/4+x,1/4-z
-x,y,1/2+z
1/2+x,-y,z
1/4-y,3/4-x,3/4+z
3/4+y,3/4+x,3/4+z
1/2+x,1/2+y,1/2+z
3/4-y,1/4+x,3/4+z
1/2-x,-y,1/2+z
3/4+y,3/4-x,1/4+z
1/2+x,1/2-y,-z
-x,1/2+y,1/2-z
1/4+y,3/4+x,3/4-z
3/4-y,3/4-x,3/4-z
1/2-x,1/2-y,1/2-z
1/4+y,3/4-x,1/4-z
1/2+x,y,1/2-z
1/4-y,1/4+x,3/4-z
1/2-x,1/2+y,z
x,1/2-y,1/2+z
3/4-y,1/4-x,1/4+z
1/4+y,1/4+x,1/4+z
loop_
_atom_site_type_symbol
_atom_site_label
_atom_site_fract_x
_atom_site_fract_y
_atom_site_fract_z
Si Si1 0.946947 0.920493 0.922488
Si Si2 0.227870 0.352839 0.184501
Si Si3 0.380330 0.195496 0.019507
Si Si4 0.644276 0.140748 0.054863
O O1 0.927420 0.918549 0.816621
O O2 0.023638 0.951740 0.925106
O O3 0.948147 0.845418 0.976715
O O4 0.895691 0.969134 0.979547
O O5 0.159365 0.392843 0.218249
O O6 0.280099 0.364913 0.101439
O O7 0.376710 0.279123 0.030682
O O8 0.366711 0.161084 0.117105
#
# Coordination Sequence:
#
# PCOD9573780 Si02
#       4
#    32  32  32  32
#     4   9  20  41  67  96 125 171 219 277 341 406
#     4  10  22  40  65  94 133 174 223 276 344 410
#     4  10  21  38  67  97 127 164 220 276 337 404
#     4  11  23  40  65  98 135 179 224 281 340 409
#
# _framework density 23.835733000000001
#
# number of rings (size 3 to 8) (size 9 to 14) (size 15 to 20)
#    0.000    2.000    0.000    4.500    0.000    8.500 
#    0.000    5.000    0.000   48.000    0.000    0.000 
#    0.000    0.000    0.000    0.000    0.000    0.000 
#
# Total GULP energy -357150.459309 kJ/mol
# GULP energy per Si atom -5580.475927 kJ/mol
# Density = 2.378148 g / cm^3
# Si number density = 23.835733 Si / 1000 Ang^3
#
#
#
# Elastic Constant Matrix: (Units=GPa)
#
#
# Indices 1 2 3 4 5 6 
#
# 1 70.7265 97.5771 56.7674 0.0000 0.0000 0.0000
# 2 97.5771 70.7265 56.7674 0.0000 0.0000 0.0000
# 3 56.7674 56.7674 188.1744 0.0000 0.0000 0.0000
# 4 0.0000 0.0000 0.0000 40.8256 0.0000 0.0000
# 5 0.0000 0.0000 0.0000 0.0000 40.8256 0.0000
# 6 0.0000 0.0000 0.0000 0.0000 0.0000 895.6266
#
#
#
# Elastic Compliance Matrix: (Units=1/GPa)
#
#
# Indices 1 2 3 4 5 6 
#
# 1 -0.014892 0.022351 -0.002250 0.000000 0.000000 0.000000
# 2 0.022351 -0.014892 -0.002250 0.000000 0.000000 0.000000
# 3 -0.002250 -0.002250 0.006672 0.000000 0.000000 0.000000
# 4 0.000000 0.000000 0.000000 0.024494 0.000000 0.000000
# 5 0.000000 0.000000 0.000000 0.000000 0.024494 0.000000
# 6 0.000000 0.000000 0.000000 0.000000 0.000000 0.001117
#
#
# Mechanical properties :
#
#
# Convention : Reuss Voigt Hill
#
# Bulk Modulus (GPa) = 79.42922 83.53904 81.48413
# Shear Modulus (GPa) = -1108.53210 203.35656 -452.58777
#
# Velocity S-wave (km/s) = -21.58891 9.24668 -13.79457
# Velocity P-wave (km/s) = 24.24965 12.21169 14.81419
#
# Compressibility (1/GPa) = 0.01258982
#
# Stress axis : x y z
#
# Youngs Moduli (GPa) = -67.15160 -67.15160 149.88001
#
# Poissons Ratio (x) = 1.50093 0.33729
# Poissons Ratio (y) = 1.50093 0.33729
# Poissons Ratio (z) = -0.15112 -0.15112
#
# Static dielectric constant tensor:
#      x y z
#    x 1.977370 0.000000 0.000000 
#    y 0.000000 1.977370 0.000000 
#    z 0.000000 0.000000 1.934300 
# 
# From -- ./inp_files/7124.got.cif
#   From: 2010.05.17/outbox.cif.g08.bks.cpg/sg142_4_cif.got.tgz:7124.got - 2010.05.20 13:39:18.
