data_PCOD9573856
_publ_section_title
;
Structure prediction by ZEFSAII (Michael W. Deem and Ramdas Pophale) SiO2 
 PCOD9573856
Probable space group: I 41/A C D
;
_chemical_formula_sum "Si O2"
_cell_formula_units_Z 160
_cell_length_a 27.303563
_cell_length_b 27.303563
_cell_length_c 11.597779
_cell_angle_alpha 90.000000
_cell_angle_beta 90.000000
_cell_angle_gamma 90.000000
_cell_volume 8645.965088
_symmetry_space_group_name_H-M "I 41/A C D"
_symmetry_group_IT_number 142
_space_group.IT_coordinate_system_code '2'
_symmetry_cell_setting 'tetragonal'
loop_
_space_group_symop_operation_xyz
x,y,z
1/4-y,3/4+x,1/4+z
-x,1/2-y,z
1/4+y,1/4-x,3/4+z
x,-y,1/2-z
1/2-x,y,-z
3/4+y,1/4+x,1/4-z
1/4-y,1/4-x,1/4-z
-x,-y,-z
3/4+y,1/4-x,3/4-z
x,1/2+y,-z
3/4-y,3/4+x,1/4-z
-x,y,1/2+z
1/2+x,-y,z
1/4-y,3/4-x,3/4+z
3/4+y,3/4+x,3/4+z
1/2+x,1/2+y,1/2+z
3/4-y,1/4+x,3/4+z
1/2-x,-y,1/2+z
3/4+y,3/4-x,1/4+z
1/2+x,1/2-y,-z
-x,1/2+y,1/2-z
1/4+y,3/4+x,3/4-z
3/4-y,3/4-x,3/4-z
1/2-x,1/2-y,1/2-z
1/4+y,3/4-x,1/4-z
1/2+x,y,1/2-z
1/4-y,1/4+x,3/4-z
1/2-x,1/2+y,z
x,1/2-y,1/2+z
3/4-y,1/4-x,1/4+z
1/4+y,1/4+x,1/4+z
loop_
_atom_site_type_symbol
_atom_site_label
_atom_site_fract_x
_atom_site_fract_y
_atom_site_fract_z
Si Si1 0.539039 0.115236 0.684488
Si Si2 0.798878 0.623292 0.423495
Si Si3 0.125151 0.324089 0.406827
Si Si4 0.768781 0.804309 0.714514
Si Si5 0.594568 0.081890 0.905144
O O1 0.571948 0.152726 0.611769
O O2 0.482480 0.128136 0.687935
O O3 0.546045 0.063620 0.620843
O O4 0.560740 0.109427 0.812310
O O5 0.750000 0.615226 0.500000
O O6 0.823427 0.573427 0.375000
O O7 0.841441 0.647560 0.501427
O O8 0.785085 0.662311 0.323139
O O9 0.151890 0.330581 0.283702
O O10 0.750000 0.750000 0.750000
O O11 0.725306 0.833496 0.651272
O O12 0.649060 0.100941 0.875000
#
# Coordination Sequence:
#
# PCOD9573856 Si02
#       5
#    32  32  32  32  32
#     4  11  23  39  64  93 129 173 215 270 331 387
#     4  12  24  43  70  96 135 172 219 273 336 403
#     4  11  23  41  62  94 131 169 217 269 326 397
#     4  12  21  39  69  98 124 167 225 270 325 389
#     4  10  22  39  60  93 130 159 210 279 320 383
#
# _framework density 18.505742000000001
#
# number of rings (size 3 to 8) (size 9 to 14) (size 15 to 20)
#    0.000    0.800    6.000    1.800    0.000    0.400 
#    0.000    1.000    0.000    3.600    0.000    0.000 
#    0.000    0.000    0.000    0.000    0.000    0.000 
#
# Total GULP energy -446914.771775 kJ/mol
# GULP energy per Si atom -5586.434647 kJ/mol
# Density = 1.846362 g / cm^3
# Si number density = 18.505742 Si / 1000 Ang^3
#
#
#
# Elastic Constant Matrix: (Units=GPa)
#
#
# Indices 1 2 3 4 5 6 
#
# 1 97.8542 54.2362 20.6675 0.0000 0.0000 0.0000
# 2 54.2362 97.8553 20.6698 0.0000 0.0000 0.0000
# 3 20.6675 20.6698 63.1986 0.0000 0.0000 0.0000
# 4 0.0000 0.0000 0.0000 24.3367 0.0000 0.0000
# 5 0.0000 0.0000 0.0000 0.0000 24.3354 0.0000
# 6 0.0000 0.0000 0.0000 0.0000 0.0000 30.5294
#
#
#
# Elastic Compliance Matrix: (Units=1/GPa)
#
#
# Indices 1 2 3 4 5 6 
#
# 1 0.015071 -0.007855 -0.002360 0.000000 0.000000 0.000000
# 2 -0.007855 0.015071 -0.002361 0.000000 0.000000 0.000000
# 3 -0.002360 -0.002361 0.017367 0.000000 0.000000 0.000000
# 4 0.000000 0.000000 0.000000 0.041090 0.000000 0.000000
# 5 0.000000 0.000000 0.000000 0.000000 0.041092 0.000000
# 6 0.000000 0.000000 0.000000 0.000000 0.000000 0.032755
#
#
# Mechanical properties :
#
#
# Convention : Reuss Voigt Hill
#
# Bulk Modulus (GPa) = 44.72391 50.00612 47.36502
# Shear Modulus (GPa) = 25.63441 26.72928 26.18185
#
# Velocity S-wave (km/s) = 3.72588 3.80462 3.76546
# Velocity P-wave (km/s) = 6.53679 6.81034 6.67497
#
# Compressibility (1/GPa) = 0.02235940
#
# Stress axis : x y z
#
# Youngs Moduli (GPa) = 66.35162 66.35135 57.58102
#
# Poissons Ratio (x) = 0.52118 0.13587
# Poissons Ratio (y) = 0.52118 0.13592
# Poissons Ratio (z) = 0.15657 0.15662
#
# Static dielectric constant tensor:
#      x y z
#    x 1.652460 0.000000 0.000000 
#    y 0.000000 1.652460 0.000000 
#    z 0.000000 0.000000 1.640150 
# 
# From -- ./inp_files/3834.got.cif
#   From: 2010.05.17/outbox.cif.g08.bks.cpg/sg142_2_cif.got.tgz:3834.got - 2010.05.20 13:39:18.
