data_PCOD9573520
_publ_section_title
;
Structure prediction by ZEFSAII (Michael W. Deem and Ramdas Pophale) SiO2 
 PCOD9573520
Probable space group: I 41/A C D
;
_chemical_formula_sum "Si O2"
_cell_formula_units_Z 144
_cell_length_a 16.270372
_cell_length_b 16.270372
_cell_length_c 24.119409
_cell_angle_alpha 90.000000
_cell_angle_beta 90.000000
_cell_angle_gamma 90.000000
_cell_volume 6385.010669
_symmetry_space_group_name_H-M "I 41/A C D"
_symmetry_group_IT_number 142
_space_group.IT_coordinate_system_code '2'
_symmetry_cell_setting 'tetragonal'
loop_
_space_group_symop_operation_xyz
x,y,z
1/4-y,3/4+x,1/4+z
-x,1/2-y,z
1/4+y,1/4-x,3/4+z
x,-y,1/2-z
1/2-x,y,-z
3/4+y,1/4+x,1/4-z
1/4-y,1/4-x,1/4-z
-x,-y,-z
3/4+y,1/4-x,3/4-z
x,1/2+y,-z
3/4-y,3/4+x,1/4-z
-x,y,1/2+z
1/2+x,-y,z
1/4-y,3/4-x,3/4+z
3/4+y,3/4+x,3/4+z
1/2+x,1/2+y,1/2+z
3/4-y,1/4+x,3/4+z
1/2-x,-y,1/2+z
3/4+y,3/4-x,1/4+z
1/2+x,1/2-y,-z
-x,1/2+y,1/2-z
1/4+y,3/4+x,3/4-z
3/4-y,3/4-x,3/4-z
1/2-x,1/2-y,1/2-z
1/4+y,3/4-x,1/4-z
1/2+x,y,1/2-z
1/4-y,1/4+x,3/4-z
1/2-x,1/2+y,z
x,1/2-y,1/2+z
3/4-y,1/4-x,1/4+z
1/4+y,1/4+x,1/4+z
loop_
_atom_site_type_symbol
_atom_site_label
_atom_site_fract_x
_atom_site_fract_y
_atom_site_fract_z
Si Si1 0.386476 0.863525 0.125000
Si Si2 0.875532 0.015861 0.458120
Si Si3 0.712021 0.247854 0.446100
Si Si4 0.489956 0.882488 0.384597
Si Si5 0.319705 0.937623 0.689140
O O1 0.314027 0.863401 0.170758
O O2 0.463202 0.886278 0.163067
O O3 0.943570 0.080836 0.438144
O O4 0.870072 0.010012 0.524829
O O5 0.782310 0.042644 0.442904
O O6 0.750000 0.293396 0.500000
O O7 0.789597 0.240552 0.404508
O O8 0.680441 0.159525 0.465658
O O9 0.570932 0.827380 0.393215
O O10 0.330587 0.919414 0.625000
#
# Coordination Sequence:
#
# PCOD9573520 Si02
#       5
#    16  32  32  32  32
#     4  10  24  38  63  94 122 155 214 252 304 370
#     4  10  20  37  59  89 115 157 201 246 307 360
#     4  11  22  41  61  87 125 163 199 259 312 365
#     4  10  19  35  58  87 116 151 197 248 304 367
#     4  11  21  38  61  84 119 164 205 248 307 371
#
# _framework density 22.552820000000001
#
# number of rings (size 3 to 8) (size 9 to 14) (size 15 to 20)
#    0.000    1.556    5.556    0.000    3.111    0.000 
#    4.000    2.778    0.000    0.000    0.000    0.000 
#    0.000    0.000    0.000    0.000    0.000    0.000 
#
# Total GULP energy -401561.089430 kJ/mol
# GULP energy per Si atom -5577.237353 kJ/mol
# Density = 2.250149 g / cm^3
# Si number density = 22.552820 Si / 1000 Ang^3
#
#
#
# Elastic Constant Matrix: (Units=GPa)
#
#
# Indices 1 2 3 4 5 6 
#
# 1 28.0447 -0.3712 -9.3531 0.0000 0.0000 0.0000
# 2 -0.3712 28.0457 -9.3526 0.0000 0.0000 0.0000
# 3 -9.3531 -9.3526 117.4062 0.0000 0.0000 0.0000
# 4 0.0000 0.0000 0.0000 25.9666 0.0000 0.0000
# 5 0.0000 0.0000 0.0000 0.0000 25.9667 0.0000
# 6 0.0000 0.0000 0.0000 0.0000 0.0000 20.6160
#
#
#
# Elastic Compliance Matrix: (Units=1/GPa)
#
#
# Indices 1 2 3 4 5 6 
#
# 1 0.036692 0.001500 0.003043 0.000000 0.000000 0.000000
# 2 0.001500 0.036690 0.003042 0.000000 0.000000 0.000000
# 3 0.003043 0.003042 0.009002 0.000000 0.000000 0.000000
# 4 0.000000 0.000000 0.000000 0.038511 0.000000 0.000000
# 5 0.000000 0.000000 0.000000 0.000000 0.038511 0.000000
# 6 0.000000 0.000000 0.000000 0.000000 0.000000 0.048506
#
#
# Mechanical properties :
#
#
# Convention : Reuss Voigt Hill
#
# Bulk Modulus (GPa) = 10.25063 15.03807 12.64435
# Shear Modulus (GPa) = 22.19651 27.34808 24.77230
#
# Velocity S-wave (km/s) = 3.14060 3.48605 3.31783
# Velocity P-wave (km/s) = 4.20787 4.78391 4.50511
#
# Compressibility (1/GPa) = 0.09755493
#
# Stress axis : x y z
#
# Youngs Moduli (GPa) = 27.25391 27.25502 111.08426
#
# Poissons Ratio (x) = -0.04089 -0.33798
# Poissons Ratio (y) = -0.04089 -0.33795
# Poissons Ratio (z) = -0.08292 -0.08292
#
# Static dielectric constant tensor:
#      x y z
#    x 1.842840 0.000000 0.000000 
#    y 0.000000 1.842840 0.000000 
#    z 0.000000 0.000000 1.955140 
# 
# From -- ./inp_files/10107.got.cif
#   From: 2010.05.17/outbox.cif.g08.bks.cpg/sg142_6_cif.got.tgz:10107.got - 2010.05.20 13:39:18.
