data_PCOD9573799
_publ_section_title
;
Structure prediction by ZEFSAII (Michael W. Deem and Ramdas Pophale) SiO2 
 PCOD9573799
Probable space group: I 41/A C D
;
_chemical_formula_sum "Si O2"
_cell_formula_units_Z 136
_cell_length_a 23.763766
_cell_length_b 23.763766
_cell_length_c 12.740767
_cell_angle_alpha 90.000000
_cell_angle_beta 90.000000
_cell_angle_gamma 90.000000
_cell_volume 7194.922297
_symmetry_space_group_name_H-M "I 41/A C D"
_symmetry_group_IT_number 142
_space_group.IT_coordinate_system_code '2'
_symmetry_cell_setting 'tetragonal'
loop_
_space_group_symop_operation_xyz
x,y,z
1/4-y,3/4+x,1/4+z
-x,1/2-y,z
1/4+y,1/4-x,3/4+z
x,-y,1/2-z
1/2-x,y,-z
3/4+y,1/4+x,1/4-z
1/4-y,1/4-x,1/4-z
-x,-y,-z
3/4+y,1/4-x,3/4-z
x,1/2+y,-z
3/4-y,3/4+x,1/4-z
-x,y,1/2+z
1/2+x,-y,z
1/4-y,3/4-x,3/4+z
3/4+y,3/4+x,3/4+z
1/2+x,1/2+y,1/2+z
3/4-y,1/4+x,3/4+z
1/2-x,-y,1/2+z
3/4+y,3/4-x,1/4+z
1/2+x,1/2-y,-z
-x,1/2+y,1/2-z
1/4+y,3/4+x,3/4-z
3/4-y,3/4-x,3/4-z
1/2-x,1/2-y,1/2-z
1/4+y,3/4-x,1/4-z
1/2+x,y,1/2-z
1/4-y,1/4+x,3/4-z
1/2-x,1/2+y,z
x,1/2-y,1/2+z
3/4-y,1/4-x,1/4+z
1/4+y,1/4+x,1/4+z
loop_
_atom_site_type_symbol
_atom_site_label
_atom_site_fract_x
_atom_site_fract_y
_atom_site_fract_z
Si Si1 0.000000 0.250000 0.875000
Si Si2 0.400977 0.298666 0.980123
Si Si3 0.811749 0.202567 0.537657
Si Si4 0.361160 0.595535 0.386077
Si Si5 0.356811 0.469080 0.447850
O O1 0.980593 0.302397 0.803771
O O2 0.430265 0.319736 0.875000
O O3 0.353256 0.254052 0.949196
O O4 0.374347 0.351600 0.041418
O O5 0.750000 0.221061 0.500000
O O6 0.836706 0.161863 0.447453
O O7 0.802700 0.163484 0.639716
O O8 0.355856 0.536241 0.445659
O O9 0.306738 0.603641 0.312926
O O10 0.306715 0.443286 0.375000
#
# Coordination Sequence:
#
# PCOD9573799 Si02
#       5
#     8  32  32  32  32
#     4  12  26  44  64  86 132 176 206 272 320 378
#     4  12  26  40  62  95 128 164 218 263 318 372
#     4   9  20  39  63  90 120 164 214 257 315 383
#     4  10  21  40  63  93 126 166 209 261 317 378
#     4   9  19  38  68  92 121 168 214 252 316 387
#
# _framework density 18.902218999999999
#
# number of rings (size 3 to 8) (size 9 to 14) (size 15 to 20)
#    0.000    1.882    2.353    2.471    3.294    3.765 
#    0.000   10.588    0.000    0.000    0.000    0.000 
#    0.000    0.000    0.000    0.000    0.000    0.000 
#
# Total GULP energy -379969.553754 kJ/mol
# GULP energy per Si atom -5587.787555 kJ/mol
# Density = 1.885920 g / cm^3
# Si number density = 18.902219 Si / 1000 Ang^3
#
#
#
# Elastic Constant Matrix: (Units=GPa)
#
#
# Indices 1 2 3 4 5 6 
#
# 1 109.3947 80.6430 33.6176 0.0000 0.0000 0.0000
# 2 80.6430 109.3888 33.6151 0.0000 0.0000 0.0000
# 3 33.6176 33.6151 63.8199 0.0000 0.0000 0.0000
# 4 0.0000 0.0000 0.0000 16.6935 0.0000 0.0000
# 5 0.0000 0.0000 0.0000 0.0000 16.6966 0.0000
# 6 0.0000 0.0000 0.0000 0.0000 0.0000 16.5360
#
#
#
# Elastic Compliance Matrix: (Units=1/GPa)
#
#
# Indices 1 2 3 4 5 6 
#
# 1 0.020625 -0.014158 -0.003407 0.000000 0.000000 0.000000
# 2 -0.014158 0.020626 -0.003406 0.000000 0.000000 0.000000
# 3 -0.003407 -0.003406 0.019258 0.000000 0.000000 0.000000
# 4 0.000000 0.000000 0.000000 0.059904 0.000000 0.000000
# 5 0.000000 0.000000 0.000000 0.000000 0.059892 0.000000
# 6 0.000000 0.000000 0.000000 0.000000 0.000000 0.060474
#
#
# Mechanical properties :
#
#
# Convention : Reuss Voigt Hill
#
# Bulk Modulus (GPa) = 53.86128 64.26165 59.06146
# Shear Modulus (GPa) = 17.30635 18.96707 18.13671
#
# Velocity S-wave (km/s) = 3.02912 3.17113 3.10094
# Velocity P-wave (km/s) = 6.38676 6.89049 6.64340
#
# Compressibility (1/GPa) = 0.01856621
#
# Stress axis : x y z
#
# Youngs Moduli (GPa) = 48.48393 48.48219 51.92666
#
# Poissons Ratio (x) = 0.68643 0.17692
# Poissons Ratio (y) = 0.68645 0.17687
# Poissons Ratio (z) = 0.16519 0.16514
#
# Static dielectric constant tensor:
#      x y z
#    x 1.644650 0.000000 0.000000 
#    y 0.000000 1.644650 0.000000 
#    z 0.000000 0.000000 1.623380 
# 
# From -- ./inp_files/3568.got.cif
#   From: 2010.05.17/outbox.cif.g08.bks.cpg/sg142_2_cif.got.tgz:3568.got - 2010.05.20 13:39:18.
