data_PCOD9573136
_publ_section_title
;
Structure prediction by ZEFSAII (Michael W. Deem and Ramdas Pophale) SiO2 
 PCOD9573136
Probable space group: I 41/A M D
;
_chemical_formula_sum "Si O2"
_cell_formula_units_Z 160
_cell_length_a 22.317094
_cell_length_b 22.317094
_cell_length_c 16.778988
_cell_angle_alpha 90.000000
_cell_angle_beta 90.000000
_cell_angle_gamma 90.000000
_cell_volume 8356.820018
_symmetry_space_group_name_H-M "I 41/A M D"
_symmetry_group_IT_number 141
_space_group.IT_coordinate_system_code '2'
_symmetry_cell_setting 'tetragonal'
loop_
_space_group_symop_operation_xyz
x,y,z
1/4-y,3/4+x,1/4+z
-x,1/2-y,z
1/4+y,1/4-x,3/4+z
x,-y,-z
-x,1/2+y,-z
1/4+y,3/4+x,1/4-z
1/4-y,1/4-x,3/4-z
-x,-y,-z
3/4+y,1/4-x,3/4-z
x,1/2+y,-z
3/4-y,3/4+x,1/4-z
-x,y,z
x,1/2-y,z
3/4-y,1/4-x,3/4+z
3/4+y,3/4+x,1/4+z
1/2+x,1/2+y,1/2+z
3/4-y,1/4+x,3/4+z
1/2-x,-y,1/2+z
3/4+y,3/4-x,1/4+z
1/2+x,1/2-y,1/2-z
1/2-x,y,1/2-z
3/4+y,1/4+x,3/4-z
3/4-y,3/4-x,1/4-z
1/2-x,1/2-y,1/2-z
1/4+y,3/4-x,1/4-z
1/2+x,y,1/2-z
1/4-y,1/4+x,3/4-z
1/2-x,1/2+y,1/2+z
1/2+x,-y,1/2+z
1/4-y,3/4-x,1/4+z
1/4+y,1/4+x,3/4+z
loop_
_atom_site_type_symbol
_atom_site_label
_atom_site_fract_x
_atom_site_fract_y
_atom_site_fract_z
Si Si1 0.570691 0.371672 0.704054
Si Si2 0.070366 0.081640 0.531680
Si Si3 0.759597 0.678518 0.457944
Si Si4 0.219444 0.123849 0.370498
Si Si5 0.428788 0.874667 0.614555
O O1 0.584823 0.334823 0.625000
O O2 0.500000 0.368906 0.722885
O O3 0.587310 0.441093 0.689817
O O4 0.606677 0.346352 0.778918
O O5 0.090505 0.074449 0.440211
O O6 0.084026 0.145639 0.569703
O O7 0.000000 0.066605 0.540825
O O8 0.111072 0.034070 0.581570
O O9 0.761605 0.750000 0.470221
O O10 0.779309 0.648414 0.540323
O O11 0.806995 0.664309 0.389089
O O12 0.193685 0.056316 0.375000
O O13 0.500000 0.866626 0.616010
#
# Coordination Sequence:
#
# PCOD9573136 Si02
#       5
#    32  32  32  32  32
#     4  11  24  43  68  93 124 166 215 268 329 395
#     4  11  22  37  61  91 128 174 214 252 313 382
#     4  10  21  40  63  88 125 170 214 260 317 385
#     4  11  20  36  62  90 122 165 217 256 296 368
#     4  11  23  39  64  94 126 165 214 270 322 378
#
# _framework density 19.146038999999998
#
# number of rings (size 3 to 8) (size 9 to 14) (size 15 to 20)
#    0.000    1.200    4.000    3.600    0.000    3.400 
#    0.000    4.000    4.400    0.000    0.000    0.000 
#    0.000    0.000    0.000    0.000    0.000    0.000 
#
# Total GULP energy -446663.105196 kJ/mol
# GULP energy per Si atom -5583.288815 kJ/mol
# Density = 1.910246 g / cm^3
# Si number density = 19.146039 Si / 1000 Ang^3
#
#
#
# Elastic Constant Matrix: (Units=GPa)
#
#
# Indices 1 2 3 4 5 6 
#
# 1 81.8126 59.9582 36.3099 0.0000 0.0000 0.0000
# 2 59.9582 81.8148 36.3108 0.0000 0.0000 0.0000
# 3 36.3099 36.3108 98.5406 0.0000 0.0000 0.0000
# 4 0.0000 0.0000 0.0000 20.8875 0.0000 0.0000
# 5 0.0000 0.0000 0.0000 0.0000 20.8864 0.0000
# 6 0.0000 0.0000 0.0000 0.0000 0.0000 30.0315
#
#
#
# Elastic Compliance Matrix: (Units=1/GPa)
#
#
# Indices 1 2 3 4 5 6 
#
# 1 0.027225 -0.018530 -0.003204 0.000000 0.000000 0.000000
# 2 -0.018530 0.027225 -0.003204 0.000000 0.000000 0.000000
# 3 -0.003204 -0.003204 0.012509 0.000000 0.000000 0.000000
# 4 0.000000 0.000000 0.000000 0.047875 0.000000 0.000000
# 5 0.000000 0.000000 0.000000 0.000000 0.047878 0.000000
# 6 0.000000 0.000000 0.000000 0.000000 0.000000 0.033298
#
#
# Mechanical properties :
#
#
# Convention : Reuss Voigt Hill
#
# Bulk Modulus (GPa) = 58.53676 58.59174 58.56425
# Shear Modulus (GPa) = 19.87432 23.00036 21.43734
#
# Velocity S-wave (km/s) = 3.22536 3.46975 3.34978
# Velocity P-wave (km/s) = 6.67164 6.83529 6.75396
#
# Compressibility (1/GPa) = 0.01708328
#
# Stress axis : x y z
#
# Youngs Moduli (GPa) = 36.73066 36.73149 79.94111
#
# Poissons Ratio (x) = 0.68064 0.25611
# Poissons Ratio (y) = 0.68063 0.25613
# Poissons Ratio (z) = 0.11768 0.11769
#
# Static dielectric constant tensor:
#      x y z
#    x 1.680190 0.000000 0.000000 
#    y 0.000000 1.680190 0.000000 
#    z 0.000000 0.000000 1.644090 
# 
# From -- ./inp_files/8558.got.cif
#   From: 2010.05.17/outbox.cif.g08.bks.cpg/sg141_5_cif.got.tgz:8558.got - 2010.05.20 13:30:51.
