data_PCOD9573315
_publ_section_title
;
Structure prediction by ZEFSAII (Michael W. Deem and Ramdas Pophale) SiO2 
 PCOD9573315
Probable space group: I 41/A M D
;
_chemical_formula_sum "Si O2"
_cell_formula_units_Z 136
_cell_length_a 17.842261
_cell_length_b 17.842261
_cell_length_c 21.299988
_cell_angle_alpha 90.000000
_cell_angle_beta 90.000000
_cell_angle_gamma 90.000000
_cell_volume 6780.771893
_symmetry_space_group_name_H-M "I 41/A M D"
_symmetry_group_IT_number 141
_space_group.IT_coordinate_system_code '2'
_symmetry_cell_setting 'tetragonal'
loop_
_space_group_symop_operation_xyz
x,y,z
1/4-y,3/4+x,1/4+z
-x,1/2-y,z
1/4+y,1/4-x,3/4+z
x,-y,-z
-x,1/2+y,-z
1/4+y,3/4+x,1/4-z
1/4-y,1/4-x,3/4-z
-x,-y,-z
3/4+y,1/4-x,3/4-z
x,1/2+y,-z
3/4-y,3/4+x,1/4-z
-x,y,z
x,1/2-y,z
3/4-y,1/4-x,3/4+z
3/4+y,3/4+x,1/4+z
1/2+x,1/2+y,1/2+z
3/4-y,1/4+x,3/4+z
1/2-x,-y,1/2+z
3/4+y,3/4-x,1/4+z
1/2+x,1/2-y,1/2-z
1/2-x,y,1/2-z
3/4+y,1/4+x,3/4-z
3/4-y,3/4-x,1/4-z
1/2-x,1/2-y,1/2-z
1/4+y,3/4-x,1/4-z
1/2+x,y,1/2-z
1/4-y,1/4+x,3/4-z
1/2-x,1/2+y,1/2+z
1/2+x,-y,1/2+z
1/4-y,3/4-x,1/4+z
1/4+y,1/4+x,3/4+z
loop_
_atom_site_type_symbol
_atom_site_label
_atom_site_fract_x
_atom_site_fract_y
_atom_site_fract_z
Si Si1 0.000000 0.750000 0.203069
Si Si2 0.866491 0.364332 0.774226
Si Si3 0.912121 0.165449 0.299801
Si Si4 0.665135 0.967917 0.726389
Si Si5 0.415030 0.466917 0.397130
O O1 0.064710 0.815307 0.204161
O O2 0.878248 0.453187 0.767594
O O3 0.797933 0.351393 0.822457
O O4 0.839474 0.337615 0.705681
O O5 0.886382 0.250000 0.283363
O O6 0.907462 0.157462 0.375000
O O7 0.867315 0.099968 0.266591
O O8 0.000000 0.160177 0.282847
O O9 0.750000 0.981437 0.750000
O O10 0.648899 0.948554 0.653585
O O11 0.500000 0.465408 0.370667
#
# Coordination Sequence:
#
# PCOD9573315 Si02
#       5
#     8  32  32  32  32
#     4  12  24  46  65 108 134 182 237 292 344 444
#     4  11  24  43  68  95 141 179 229 286 349 425
#     4   9  21  44  68  93 133 178 225 287 350 410
#     4  12  26  40  69 104 136 179 241 282 350 425
#     4  11  22  47  66  93 139 188 215 286 361 411
#
# _framework density 20.056712999999998
#
# number of rings (size 3 to 8) (size 9 to 14) (size 15 to 20)
#    0.000    1.176    4.706    2.824    6.588    0.471 
#    2.118    2.353    0.000    0.000    0.000    0.000 
#    0.000    0.000    0.000    0.000    0.000    0.000 
#
# Total GULP energy -378923.514595 kJ/mol
# GULP energy per Si atom -5572.404626 kJ/mol
# Density = 2.001106 g / cm^3
# Si number density = 20.056713 Si / 1000 Ang^3
#
#
#
# Elastic Constant Matrix: (Units=GPa)
#
#
# Indices 1 2 3 4 5 6 
#
# 1 108.1277 46.5826 35.4714 0.0000 0.0000 0.0000
# 2 46.5826 108.1277 35.4714 0.0000 0.0000 0.0000
# 3 35.4714 35.4714 73.8246 0.0000 0.0000 0.0000
# 4 0.0000 0.0000 0.0000 -237.8839 -0.0001 0.0000
# 5 0.0000 0.0000 0.0000 -0.0001 -237.8840 0.0000
# 6 0.0000 0.0000 0.0000 0.0000 0.0000 -35.1531
#
#
#
# Elastic Compliance Matrix: (Units=1/GPa)
#
#
# Indices 1 2 3 4 5 6 
#
# 1 0.012269 -0.003979 -0.003983 0.000000 0.000000 0.000000
# 2 -0.003979 0.012269 -0.003983 0.000000 0.000000 0.000000
# 3 -0.003983 -0.003983 0.017373 0.000000 0.000000 0.000000
# 4 0.000000 0.000000 0.000000 -0.004204 0.000000 0.000000
# 5 0.000000 0.000000 0.000000 0.000000 -0.004204 0.000000
# 6 0.000000 0.000000 0.000000 0.000000 0.000000 -0.028447
#
#
# Mechanical properties :
#
#
# Convention : Reuss Voigt Hill
#
# Bulk Modulus (GPa) = 55.49179 58.34785 56.91982
# Shear Modulus (GPa) = 143.03866 -90.68054 26.17906
#
# Velocity S-wave (km/s) = 8.45411 -6.73129 3.61675
# Velocity P-wave (km/s) = 11.09159 5.59098 6.77364
#
# Compressibility (1/GPa) = 0.01802068
#
# Stress axis : x y z
#
# Youngs Moduli (GPa) = 81.50463 81.50463 57.55918
#
# Poissons Ratio (x) = 0.32431 0.22928
# Poissons Ratio (y) = 0.32431 0.22928
# Poissons Ratio (z) = 0.32466 0.32466
#
# Static dielectric constant tensor:
#      x y z
#    x 1.698480 0.000000 0.000000 
#    y 0.000000 1.698480 0.000000 
#    z 0.000000 0.000000 1.745840 
# 
# From -- ./inp_files/10134.got.cif
#   From: 2010.05.17/outbox.cif.g08.bks.cpg/sg141_6_cif.got.tgz:10134.got - 2010.05.20 13:30:51.
