data_PCOD9573210
_publ_section_title
;
Structure prediction by ZEFSAII (Michael W. Deem and Ramdas Pophale) SiO2 
 PCOD9573210
Probable space group: I 41/A M D
;
_chemical_formula_sum "Si O2"
_cell_formula_units_Z 176
_cell_length_a 18.204833
_cell_length_b 18.204833
_cell_length_c 25.924175
_cell_angle_alpha 90.000000
_cell_angle_beta 90.000000
_cell_angle_gamma 90.000000
_cell_volume 8591.684945
_symmetry_space_group_name_H-M "I 41/A M D"
_symmetry_group_IT_number 141
_space_group.IT_coordinate_system_code '2'
_symmetry_cell_setting 'tetragonal'
loop_
_space_group_symop_operation_xyz
x,y,z
1/4-y,3/4+x,1/4+z
-x,1/2-y,z
1/4+y,1/4-x,3/4+z
x,-y,-z
-x,1/2+y,-z
1/4+y,3/4+x,1/4-z
1/4-y,1/4-x,3/4-z
-x,-y,-z
3/4+y,1/4-x,3/4-z
x,1/2+y,-z
3/4-y,3/4+x,1/4-z
-x,y,z
x,1/2-y,z
3/4-y,1/4-x,3/4+z
3/4+y,3/4+x,1/4+z
1/2+x,1/2+y,1/2+z
3/4-y,1/4+x,3/4+z
1/2-x,-y,1/2+z
3/4+y,3/4-x,1/4+z
1/2+x,1/2-y,1/2-z
1/2-x,y,1/2-z
3/4+y,1/4+x,3/4-z
3/4-y,3/4-x,1/4-z
1/2-x,1/2-y,1/2-z
1/4+y,3/4-x,1/4-z
1/2+x,y,1/2-z
1/4-y,1/4+x,3/4-z
1/2-x,1/2+y,1/2+z
1/2+x,-y,1/2+z
1/4-y,3/4-x,1/4+z
1/4+y,1/4+x,3/4+z
loop_
_atom_site_type_symbol
_atom_site_label
_atom_site_fract_x
_atom_site_fract_y
_atom_site_fract_z
Si Si1 0.914480 0.430627 0.961337
Si Si2 0.911297 0.061082 0.718065
Si Si3 0.585547 0.901913 0.743574
Si Si4 0.203392 0.046609 0.875000
Si Si5 0.673968 0.110943 0.352904
Si Si6 0.000000 0.487874 0.437526
Si Si7 0.000000 0.663805 0.552988
O O1 0.868588 0.451510 0.910530
O O2 0.000000 0.412665 0.951304
O O3 0.912718 0.500000 0.000000
O O4 0.868528 0.366138 0.989101
O O5 0.876792 0.084402 0.663310
O O6 0.000000 0.061968 0.713940
O O7 0.883798 0.978429 0.733223
O O8 0.500000 0.911201 0.749933
O O9 0.603394 0.889880 0.683682
O O10 0.602638 0.825146 0.771832
O O11 0.279599 0.044893 0.905655
O O12 0.724174 0.176168 0.331919
O O13 0.000000 0.500000 0.500000
O O14 0.000000 0.406684 0.410276
O O15 0.000000 0.750000 0.567492
#
# Coordination Sequence:
#
# PCOD9573210 Si02
#       7
#    32  32  32  16  32  16  16
#     4  11  25  46  70 101 140 178 224 282 352 421
#     4  11  24  44  68 100 140 175 227 287 345 408
#     4  10  22  41  67  95 136 179 224 284 346 408
#     4  12  26  42  74 103 135 186 234 280 348 430
#     4  12  24  40  68 103 130 180 233 285 341 409
#     4  12  24  40  68 100 138 178 236 298 339 404
#     4  10  22  42  66  90 132 184 228 278 344 398
#
# _framework density 20.484922999999998
#
# number of rings (size 3 to 8) (size 9 to 14) (size 15 to 20)
#    0.000    0.909    6.364    0.000    2.545    3.273 
#    0.000    0.000    2.000    0.000    0.000    0.000 
#    0.000    0.000    0.000    0.000    0.000    0.000 
#
# Total GULP energy -490719.657278 kJ/mol
# GULP energy per Si atom -5576.359742 kJ/mol
# Density = 2.043830 g / cm^3
# Si number density = 20.484923 Si / 1000 Ang^3
#
#
#
# Elastic Constant Matrix: (Units=GPa)
#
#
# Indices 1 2 3 4 5 6 
#
# 1 98.4427 20.1517 17.9607 0.0000 0.0000 0.0000
# 2 20.1517 98.4432 17.9617 0.0000 0.0000 0.0000
# 3 17.9607 17.9617 64.9473 0.0000 0.0000 0.0000
# 4 0.0000 0.0000 0.0000 26.2158 0.0000 0.0000
# 5 0.0000 0.0000 0.0000 0.0000 26.2151 0.0000
# 6 0.0000 0.0000 0.0000 0.0000 0.0000 -138.4544
#
#
#
# Elastic Compliance Matrix: (Units=1/GPa)
#
#
# Indices 1 2 3 4 5 6 
#
# 1 0.010988 -0.001785 -0.002545 0.000000 0.000000 0.000000
# 2 -0.001785 0.010988 -0.002545 0.000000 0.000000 0.000000
# 3 -0.002545 -0.002545 0.016805 0.000000 0.000000 0.000000
# 4 0.000000 0.000000 0.000000 0.038145 0.000000 0.000000
# 5 0.000000 0.000000 0.000000 0.000000 0.038146 0.000000
# 6 0.000000 0.000000 0.000000 0.000000 0.000000 -0.007223
#
#
# Mechanical properties :
#
#
# Convention : Reuss Voigt Hill
#
# Bulk Modulus (GPa) = 39.95140 41.55349 40.75244
# Shear Modulus (GPa) = 38.47853 -3.48742 17.49555
#
# Velocity S-wave (km/s) = 4.33873 -1.30619 2.92562
# Velocity P-wave (km/s) = 6.68166 4.24901 5.59905
#
# Compressibility (1/GPa) = 0.02503041
#
# Stress axis : x y z
#
# Youngs Moduli (GPa) = 91.00916 91.00912 59.50681
#
# Poissons Ratio (x) = 0.16244 0.15144
# Poissons Ratio (y) = 0.16244 0.15146
# Poissons Ratio (z) = 0.23162 0.23164
#
# Static dielectric constant tensor:
#      x y z
#    x 1.810130 0.000000 0.000000 
#    y 0.000000 1.810130 0.000000 
#    z 0.000000 0.000000 1.829950 
# 
# From -- ./inp_files/12951.got.cif
#   From: 2010.05.17/outbox.cif.g08.bks.cpg/sg141_7_cif.got.tgz:12951.got - 2010.05.20 13:30:51.
