data_PCOD9573212
_publ_section_title
;
Structure prediction by ZEFSAII (Michael W. Deem and Ramdas Pophale) SiO2 
 PCOD9573212
Probable space group: I 41/A M D
;
_chemical_formula_sum "Si O2"
_cell_formula_units_Z 68
_cell_length_a 12.004270
_cell_length_b 12.004270
_cell_length_c 26.689104
_cell_angle_alpha 90.000000
_cell_angle_beta 90.000000
_cell_angle_gamma 90.000000
_cell_volume 3845.966562
_symmetry_space_group_name_H-M "I 41/A M D"
_symmetry_group_IT_number 141
_space_group.IT_coordinate_system_code '2'
_symmetry_cell_setting 'tetragonal'
loop_
_space_group_symop_operation_xyz
x,y,z
1/4-y,3/4+x,1/4+z
-x,1/2-y,z
1/4+y,1/4-x,3/4+z
x,-y,-z
-x,1/2+y,-z
1/4+y,3/4+x,1/4-z
1/4-y,1/4-x,3/4-z
-x,-y,-z
3/4+y,1/4-x,3/4-z
x,1/2+y,-z
3/4-y,3/4+x,1/4-z
-x,y,z
x,1/2-y,z
3/4-y,1/4-x,3/4+z
3/4+y,3/4+x,1/4+z
1/2+x,1/2+y,1/2+z
3/4-y,1/4+x,3/4+z
1/2-x,-y,1/2+z
3/4+y,3/4-x,1/4+z
1/2+x,1/2-y,1/2-z
1/2-x,y,1/2-z
3/4+y,1/4+x,3/4-z
3/4-y,3/4-x,1/4-z
1/2-x,1/2-y,1/2-z
1/4+y,3/4-x,1/4-z
1/2+x,y,1/2-z
1/4-y,1/4+x,3/4-z
1/2-x,1/2+y,1/2+z
1/2+x,-y,1/2+z
1/4-y,3/4-x,1/4+z
1/4+y,1/4+x,3/4+z
loop_
_atom_site_type_symbol
_atom_site_label
_atom_site_fract_x
_atom_site_fract_y
_atom_site_fract_z
Si Si1 0.000000 0.750000 0.625000
Si Si2 0.234984 0.250000 0.432235
Si Si3 0.693741 0.124210 0.869308
Si Si4 0.373328 0.250000 0.963059
O O1 0.000000 0.863486 0.656832
O O2 0.303383 0.357226 0.413178
O O3 0.212228 0.250000 0.491453
O O4 0.707448 0.250000 0.848909
O O5 0.644888 0.146219 0.925209
O O6 0.807680 0.057680 0.875000
O O7 0.500000 0.250000 0.981379
#
# Coordination Sequence:
#
# PCOD9573212 Si02
#       4
#     4  16  32  16
#     4  12  24  32  64 104 124 140 212 276 316 428
#     4  12  21  41  66 100 128 169 214 276 349 384
#     4  10  22  43  64  90 138 172 215 284 322 392
#     4  10  22  41  68  95 128 179 213 274 352 386
#
# _framework density 17.680859999999999
#
# number of rings (size 3 to 8) (size 9 to 14) (size 15 to 20)
#    1.412    0.000    5.882    0.706    0.000    2.353 
#    0.000   11.765    0.000    0.000    0.000    0.000 
#    0.000    0.000    0.000    0.000    0.000    0.000 
#
# Total GULP energy -189364.193118 kJ/mol
# GULP energy per Si atom -5569.535092 kJ/mol
# Density = 1.764062 g / cm^3
# Si number density = 17.680860 Si / 1000 Ang^3
#
#
#
# Elastic Constant Matrix: (Units=GPa)
#
#
# Indices 1 2 3 4 5 6 
#
# 1 128.7247 53.6475 34.4267 0.0000 0.0000 0.0000
# 2 53.6475 128.7247 34.4267 0.0000 0.0000 0.0000
# 3 34.4267 34.4267 112.2946 0.0000 0.0000 0.0000
# 4 0.0000 0.0000 0.0000 24.6640 0.0000 0.0000
# 5 0.0000 0.0000 0.0000 0.0000 24.6640 0.0000
# 6 0.0000 0.0000 0.0000 0.0000 0.0000 33.6505
#
#
#
# Elastic Compliance Matrix: (Units=1/GPa)
#
#
# Indices 1 2 3 4 5 6 
#
# 1 0.009760 -0.003559 -0.001901 0.000000 0.000000 0.000000
# 2 -0.003559 0.009760 -0.001901 0.000000 0.000000 0.000000
# 3 -0.001901 -0.001901 0.010071 0.000000 0.000000 0.000000
# 4 0.000000 0.000000 0.000000 0.040545 0.000000 0.000000
# 5 0.000000 0.000000 0.000000 0.000000 0.040545 0.000000
# 6 0.000000 0.000000 0.000000 0.000000 0.000000 0.029717
#
#
# Mechanical properties :
#
#
# Convention : Reuss Voigt Hill
#
# Bulk Modulus (GPa) = 67.25611 68.30509 67.78060
# Shear Modulus (GPa) = 31.23483 33.07857 32.15670
#
# Velocity S-wave (km/s) = 4.20764 4.33005 4.26928
# Velocity P-wave (km/s) = 7.85666 7.98218 7.91967
#
# Compressibility (1/GPa) = 0.01486854
#
# Stress axis : x y z
#
# Youngs Moduli (GPa) = 102.45558 102.45558 99.29700
#
# Poissons Ratio (x) = 0.36467 0.18877
# Poissons Ratio (y) = 0.36467 0.18877
# Poissons Ratio (z) = 0.19478 0.19478
#
# Static dielectric constant tensor:
#      x y z
#    x 1.596790 0.000000 0.000000 
#    y 0.000000 1.596790 0.000000 
#    z 0.000000 0.000000 1.601360 
# 
# From -- ./inp_files/12254.got.cif
#   From: 2010.05.17/outbox.cif.g08.bks.cpg/sg141_7_cif.got.tgz:12254.got - 2010.05.20 13:30:51.
