data_PCOD9573275
_publ_section_title
;
Structure prediction by ZEFSAII (Michael W. Deem and Ramdas Pophale) SiO2 
 PCOD9573275
Probable space group: I 41/A M D
;
_chemical_formula_sum "Si O2"
_cell_formula_units_Z 160
_cell_length_a 18.098528
_cell_length_b 18.098528
_cell_length_c 24.629295
_cell_angle_alpha 90.000000
_cell_angle_beta 90.000000
_cell_angle_gamma 90.000000
_cell_volume 8067.490982
_symmetry_space_group_name_H-M "I 41/A M D"
_symmetry_group_IT_number 141
_space_group.IT_coordinate_system_code '2'
_symmetry_cell_setting 'tetragonal'
loop_
_space_group_symop_operation_xyz
x,y,z
1/4-y,3/4+x,1/4+z
-x,1/2-y,z
1/4+y,1/4-x,3/4+z
x,-y,-z
-x,1/2+y,-z
1/4+y,3/4+x,1/4-z
1/4-y,1/4-x,3/4-z
-x,-y,-z
3/4+y,1/4-x,3/4-z
x,1/2+y,-z
3/4-y,3/4+x,1/4-z
-x,y,z
x,1/2-y,z
3/4-y,1/4-x,3/4+z
3/4+y,3/4+x,1/4+z
1/2+x,1/2+y,1/2+z
3/4-y,1/4+x,3/4+z
1/2-x,-y,1/2+z
3/4+y,3/4-x,1/4+z
1/2+x,1/2-y,1/2-z
1/2-x,y,1/2-z
3/4+y,1/4+x,3/4-z
3/4-y,3/4-x,1/4-z
1/2-x,1/2-y,1/2-z
1/4+y,3/4-x,1/4-z
1/2+x,y,1/2-z
1/4-y,1/4+x,3/4-z
1/2-x,1/2+y,1/2+z
1/2+x,-y,1/2+z
1/4-y,3/4-x,1/4+z
1/4+y,1/4+x,3/4+z
loop_
_atom_site_type_symbol
_atom_site_label
_atom_site_fract_x
_atom_site_fract_y
_atom_site_fract_z
Si Si1 0.667751 0.538624 0.817788
Si Si2 0.577436 0.412042 0.992310
Si Si3 0.634490 0.165079 0.892290
Si Si4 0.846789 0.663020 0.964901
Si Si5 0.665551 0.532280 0.320670
O O1 0.672206 0.577795 0.875000
O O2 0.643827 0.596890 0.772584
O O3 0.605522 0.476942 0.818847
O O4 0.750524 0.501165 0.810502
O O5 0.500000 0.381961 0.014999
O O6 0.575442 0.500000 0.000000
O O7 0.583448 0.386029 0.930297
O O8 0.624023 0.250000 0.907617
O O9 0.618511 0.156294 0.828007
O O10 0.715143 0.136808 0.910483
O O11 0.857493 0.750000 0.975280
O O12 0.828473 0.616845 0.020007
O O13 0.670051 0.579950 0.375000
#
# Coordination Sequence:
#
# PCOD9573275 Si02
#       5
#    32  32  32  32  32
#     4  11  20  38  64  92 128 169 218 267 316 375
#     4  11  21  36  60  92 131 173 214 259 316 379
#     4  12  25  42  66  98 133 170 214 267 326 387
#     4  12  24  40  65  96 129 170 212 262 322 387
#     4  11  22  41  68  95 125 165 216 274 323 374
#
# _framework density 19.832685000000001
#
# number of rings (size 3 to 8) (size 9 to 14) (size 15 to 20)
#    0.000    0.600    8.000    1.800    0.000    4.000 
#    0.000    3.000    0.000    0.000    0.000    1.400 
#    0.000    0.000    0.000    0.000    0.000    0.000 
#
# Total GULP energy -445660.776591 kJ/mol
# GULP energy per Si atom -5570.759707 kJ/mol
# Density = 1.978755 g / cm^3
# Si number density = 19.832685 Si / 1000 Ang^3
#
#
#
# Elastic Constant Matrix: (Units=GPa)
#
#
# Indices 1 2 3 4 5 6 
#
# 1 88.2359 -0.3120 34.6587 0.0000 0.0000 0.0000
# 2 -0.3120 88.2360 34.6562 0.0000 0.0000 0.0000
# 3 34.6587 34.6562 144.3501 0.0000 0.0000 0.0000
# 4 0.0000 0.0000 0.0000 7.3826 0.0000 0.0000
# 5 0.0000 0.0000 0.0000 0.0000 7.3810 0.0000
# 6 0.0000 0.0000 0.0000 0.0000 0.0000 207.8933
#
#
#
# Elastic Compliance Matrix: (Units=1/GPa)
#
#
# Indices 1 2 3 4 5 6 
#
# 1 0.012661 0.001368 -0.003368 0.000000 0.000000 0.000000
# 2 0.001368 0.012661 -0.003368 0.000000 0.000000 0.000000
# 3 -0.003368 -0.003368 0.008545 0.000000 0.000000 0.000000
# 4 0.000000 0.000000 0.000000 0.135453 0.000000 0.000000
# 5 0.000000 0.000000 0.000000 0.000000 0.135484 0.000000
# 6 0.000000 0.000000 0.000000 0.000000 0.000000 0.004810
#
#
# Mechanical properties :
#
#
# Convention : Reuss Voigt Hill
#
# Bulk Modulus (GPa) = 43.23445 50.98088 47.10766
# Shear Modulus (GPa) = 15.24106 61.31931 38.28018
#
# Velocity S-wave (km/s) = 2.77516 5.56646 4.39812
# Velocity P-wave (km/s) = 5.66706 8.18994 7.04240
#
# Compressibility (1/GPa) = 0.02312970
#
# Stress axis : x y z
#
# Youngs Moduli (GPa) = 78.98172 78.98295 117.02787
#
# Poissons Ratio (x) = -0.10803 0.39419
# Poissons Ratio (y) = -0.10803 0.39416
# Poissons Ratio (z) = 0.26604 0.26602
#
# Static dielectric constant tensor:
#      x y z
#    x 1.819450 0.000000 0.000000 
#    y 0.000000 1.819410 0.000000 
#    z 0.000000 0.000000 1.758510 
# 
# From -- ./inp_files/12701.got.cif
#   From: 2010.05.17/outbox.cif.g08.bks.cpg/sg141_7_cif.got.tgz:12701.got - 2010.05.20 13:30:51.
