data_PCOD9573666
_publ_section_title
;
Structure prediction by ZEFSAII (Michael W. Deem and Ramdas Pophale) SiO2 
 PCOD9573666
Probable space group: I 41/A C D
;
_chemical_formula_sum "Si O2"
_cell_formula_units_Z 152
_cell_length_a 21.830582
_cell_length_b 21.830582
_cell_length_c 13.591968
_cell_angle_alpha 90.000000
_cell_angle_beta 90.000000
_cell_angle_gamma 90.000000
_cell_volume 6477.582777
_symmetry_space_group_name_H-M "I 41/A C D"
_symmetry_group_IT_number 142
_space_group.IT_coordinate_system_code '2'
_symmetry_cell_setting 'tetragonal'
loop_
_space_group_symop_operation_xyz
x,y,z
1/4-y,3/4+x,1/4+z
-x,1/2-y,z
1/4+y,1/4-x,3/4+z
x,-y,1/2-z
1/2-x,y,-z
3/4+y,1/4+x,1/4-z
1/4-y,1/4-x,1/4-z
-x,-y,-z
3/4+y,1/4-x,3/4-z
x,1/2+y,-z
3/4-y,3/4+x,1/4-z
-x,y,1/2+z
1/2+x,-y,z
1/4-y,3/4-x,3/4+z
3/4+y,3/4+x,3/4+z
1/2+x,1/2+y,1/2+z
3/4-y,1/4+x,3/4+z
1/2-x,-y,1/2+z
3/4+y,3/4-x,1/4+z
1/2+x,1/2-y,-z
-x,1/2+y,1/2-z
1/4+y,3/4+x,3/4-z
3/4-y,3/4-x,3/4-z
1/2-x,1/2-y,1/2-z
1/4+y,3/4-x,1/4-z
1/2+x,y,1/2-z
1/4-y,1/4+x,3/4-z
1/2-x,1/2+y,z
x,1/2-y,1/2+z
3/4-y,1/4-x,1/4+z
1/4+y,1/4+x,1/4+z
loop_
_atom_site_type_symbol
_atom_site_label
_atom_site_fract_x
_atom_site_fract_y
_atom_site_fract_z
Si Si1 0.912633 0.066189 0.141733
Si Si2 0.445360 0.370887 0.674479
Si Si3 0.046649 0.428874 0.931349
Si Si4 0.199380 0.050620 0.125000
Si Si5 0.250000 0.153757 0.000000
Si Si6 0.000000 0.750000 0.625000
Si Si7 0.750000 0.943289 0.500000
O O1 0.883656 0.133656 0.125000
O O2 0.951092 0.079187 0.239238
O O3 0.796513 0.193643 0.208845
O O4 0.854736 0.024820 0.170053
O O5 0.375837 0.347366 0.665614
O O6 0.479205 0.399863 0.580747
O O7 0.484078 0.308801 0.690790
O O8 0.059128 0.474242 0.842038
O O9 0.142838 0.048381 0.198889
O O10 0.261152 0.046197 0.192764
#
# Coordination Sequence:
#
# PCOD9573666 Si02
#       7
#    32  32  32  16  16   8  16
#     4  10  20  38  63  89 120 161 210 255 308 380
#     4   9  19  40  65  91 126 163 213 259 312 385
#     4  10  22  43  63  93 126 167 211 265 319 386
#     4  10  22  38  62  90 124 168 220 260 316 376
#     4  11  24  41  60  92 134 161 213 270 318 378
#     4   8  16  36  66  92 124 162 212 266 308 360
#     4  11  20  37  62  90 118 167 215 258 306 388
#
# _framework density 23.465543
#
# number of rings (size 3 to 8) (size 9 to 14) (size 15 to 20)
#    0.000    2.105    1.053    2.526    2.947    0.842 
#    3.789   23.684    0.000    0.000    0.000    0.000 
#    0.000    0.000    0.000    0.000    0.000    0.000 
#
# Total GULP energy -424206.749195 kJ/mol
# GULP energy per Si atom -5581.667753 kJ/mol
# Density = 2.341213 g / cm^3
# Si number density = 23.465543 Si / 1000 Ang^3
#
#
#
# Elastic Constant Matrix: (Units=GPa)
#
#
# Indices 1 2 3 4 5 6 
#
# 1 56.6552 22.6074 26.3780 0.0000 0.0000 0.0000
# 2 22.6074 56.6549 26.3782 0.0000 0.0000 0.0000
# 3 26.3780 26.3782 113.4633 0.0000 0.0000 0.0000
# 4 0.0000 0.0000 0.0000 41.8997 0.0000 0.0000
# 5 0.0000 0.0000 0.0000 0.0000 41.8995 0.0000
# 6 0.0000 0.0000 0.0000 0.0000 0.0000 16.7423
#
#
#
# Elastic Compliance Matrix: (Units=1/GPa)
#
#
# Indices 1 2 3 4 5 6 
#
# 1 0.022148 -0.007222 -0.003470 0.000000 0.000000 0.000000
# 2 -0.007222 0.022148 -0.003470 0.000000 0.000000 0.000000
# 3 -0.003470 -0.003470 0.010427 0.000000 0.000000 0.000000
# 4 0.000000 0.000000 0.000000 0.023867 0.000000 0.000000
# 5 0.000000 0.000000 0.000000 0.000000 0.023867 0.000000
# 6 0.000000 0.000000 0.000000 0.000000 0.000000 0.059729
#
#
# Mechanical properties :
#
#
# Convention : Reuss Voigt Hill
#
# Bulk Modulus (GPa) = 37.88068 41.94451 39.91259
# Shear Modulus (GPa) = 25.08656 30.20227 27.64442
#
# Velocity S-wave (km/s) = 3.27323 3.59150 3.43605
# Velocity P-wave (km/s) = 5.51938 5.92555 5.72607
#
# Compressibility (1/GPa) = 0.02639868
#
# Stress axis : x y z
#
# Youngs Moduli (GPa) = 45.15043 45.15008 95.90633
#
# Poissons Ratio (x) = 0.32609 0.33279
# Poissons Ratio (y) = 0.32609 0.33280
# Poissons Ratio (z) = 0.15667 0.15667
#
# Static dielectric constant tensor:
#      x y z
#    x 1.928960 0.000000 0.000000 
#    y 0.000000 1.928960 0.000000 
#    z 0.000000 0.000000 1.940560 
# 
# From -- ./inp_files/5520.got.cif
#   From: 2010.05.17/outbox.cif.g08.bks.cpg/sg142_3_cif.got.tgz:5520.got - 2010.05.20 13:39:18.
