data_PCOD9573327
_publ_section_title
;
Structure prediction by ZEFSAII (Michael W. Deem and Ramdas Pophale) SiO2 
 PCOD9573327
Probable space group: I 41/A M D
;
_chemical_formula_sum "Si O2"
_cell_formula_units_Z 84
_cell_length_a 11.590713
_cell_length_b 11.590713
_cell_length_c 29.999529
_cell_angle_alpha 90.000000
_cell_angle_beta 90.000000
_cell_angle_gamma 90.000000
_cell_volume 4030.275559
_symmetry_space_group_name_H-M "I 41/A M D"
_symmetry_group_IT_number 141
_space_group.IT_coordinate_system_code '2'
_symmetry_cell_setting 'tetragonal'
loop_
_space_group_symop_operation_xyz
x,y,z
1/4-y,3/4+x,1/4+z
-x,1/2-y,z
1/4+y,1/4-x,3/4+z
x,-y,-z
-x,1/2+y,-z
1/4+y,3/4+x,1/4-z
1/4-y,1/4-x,3/4-z
-x,-y,-z
3/4+y,1/4-x,3/4-z
x,1/2+y,-z
3/4-y,3/4+x,1/4-z
-x,y,z
x,1/2-y,z
3/4-y,1/4-x,3/4+z
3/4+y,3/4+x,1/4+z
1/2+x,1/2+y,1/2+z
3/4-y,1/4+x,3/4+z
1/2-x,-y,1/2+z
3/4+y,3/4-x,1/4+z
1/2+x,1/2-y,1/2-z
1/2-x,y,1/2-z
3/4+y,1/4+x,3/4-z
3/4-y,3/4-x,1/4-z
1/2-x,1/2-y,1/2-z
1/4+y,3/4-x,1/4-z
1/2+x,y,1/2-z
1/4-y,1/4+x,3/4-z
1/2-x,1/2+y,1/2+z
1/2+x,-y,1/2+z
1/4-y,3/4-x,1/4+z
1/4+y,1/4+x,3/4+z
loop_
_atom_site_type_symbol
_atom_site_label
_atom_site_fract_x
_atom_site_fract_y
_atom_site_fract_z
Si Si1 0.635287 0.511573 0.086586
Si Si2 0.294235 0.000000 0.500000
Si Si3 0.500000 0.250000 0.625000
Si Si4 0.000000 0.985286 0.871680
Si Si5 0.500000 0.376683 0.464940
O O1 0.671802 0.421802 0.125000
O O2 0.500000 0.504625 0.076866
O O3 0.713338 0.496435 0.042934
O O4 0.670777 0.636575 0.105193
O O5 0.385364 0.104544 0.494034
O O6 0.368559 0.250000 0.605729
O O7 0.000000 0.971562 0.925444
O O8 0.500000 0.250000 0.444430
#
# Coordination Sequence:
#
# PCOD9573327 Si02
#       5
#    32  16   4  16  16
#     4  12  26  47  72 102 143 189 240 293 360 431
#     4  11  25  44  68 110 135 193 238 298 356 421
#     4  12  20  40  76 112 132 168 240 296 356 428
#     4  12  23  45  74 105 141 182 232 301 368 430
#     4  11  23  44  70 104 150 184 238 300 361 423
#
# _framework density 20.842245999999999
#
# number of rings (size 3 to 8) (size 9 to 14) (size 15 to 20)
#    0.000    0.381    5.714    2.286    2.667    1.905 
#    6.857    0.000    0.000    0.000    0.000    0.000 
#    0.000    0.000    0.000    0.000    0.000    0.000 
#
# Total GULP energy -234601.712799 kJ/mol
# GULP energy per Si atom -5585.755067 kJ/mol
# Density = 2.079481 g / cm^3
# Si number density = 20.842246 Si / 1000 Ang^3
#
#
#
# Elastic Constant Matrix: (Units=GPa)
#
#
# Indices 1 2 3 4 5 6 
#
# 1 162.7531 39.5312 49.1665 0.0000 0.0000 0.0000
# 2 39.5312 162.7531 49.1665 0.0000 0.0000 0.0000
# 3 49.1665 49.1665 139.9626 0.0000 0.0000 0.0000
# 4 0.0000 0.0000 0.0000 260.5091 0.0000 0.0000
# 5 0.0000 0.0000 0.0000 0.0000 260.5091 0.0000
# 6 0.0000 0.0000 0.0000 0.0000 0.0000 -2.3924
#
#
#
# Elastic Compliance Matrix: (Units=1/GPa)
#
#
# Indices 1 2 3 4 5 6 
#
# 1 0.007038 -0.001077 -0.002094 0.000000 0.000000 0.000000
# 2 -0.001077 0.007038 -0.002094 0.000000 0.000000 0.000000
# 3 -0.002094 -0.002094 0.008616 0.000000 0.000000 0.000000
# 4 0.000000 0.000000 0.000000 0.003839 0.000000 0.000000
# 5 0.000000 0.000000 0.000000 0.000000 0.003839 0.000000
# 6 0.000000 0.000000 0.000000 0.000000 0.000000 -0.417995
#
#
# Mechanical properties :
#
#
# Convention : Reuss Voigt Hill
#
# Bulk Modulus (GPa) = 82.22059 82.35527 82.28793
# Shear Modulus (GPa) = -13.40339 125.56549 56.08105
#
# Velocity S-wave (km/s) = -2.53867 7.77023 5.19286
# Velocity P-wave (km/s) = 5.56251 10.95908 8.69031
#
# Compressibility (1/GPa) = 0.01216240
#
# Stress axis : x y z
#
# Youngs Moduli (GPa) = 142.07584 142.07585 116.06215
#
# Poissons Ratio (x) = 0.15301 0.24306
# Poissons Ratio (y) = 0.15301 0.24306
# Poissons Ratio (z) = 0.29753 0.29753
#
# Static dielectric constant tensor:
#      x y z
#    x 1.739730 0.000000 0.000000 
#    y 0.000000 1.739730 0.000000 
#    z 0.000000 0.000000 1.782210 
# 
# From -- ./inp_files/13784.got.cif
#   From: 2010.05.17/outbox.cif.g08.bks.cpg/sg141_7_cif.got.tgz:13784.got - 2010.05.20 13:30:51.
