data_PCOD9573857
_publ_section_title
;
Structure prediction by ZEFSAII (Michael W. Deem and Ramdas Pophale) SiO2 
 PCOD9573857
Probable space group: I 41/A C D
;
_chemical_formula_sum "Si O2"
_cell_formula_units_Z 176
_cell_length_a 24.296781
_cell_length_b 24.296781
_cell_length_c 15.015198
_cell_angle_alpha 90.000000
_cell_angle_beta 90.000000
_cell_angle_gamma 90.000000
_cell_volume 8863.975394
_symmetry_space_group_name_H-M "I 41/A C D"
_symmetry_group_IT_number 142
_space_group.IT_coordinate_system_code '2'
_symmetry_cell_setting 'tetragonal'
loop_
_space_group_symop_operation_xyz
x,y,z
1/4-y,3/4+x,1/4+z
-x,1/2-y,z
1/4+y,1/4-x,3/4+z
x,-y,1/2-z
1/2-x,y,-z
3/4+y,1/4+x,1/4-z
1/4-y,1/4-x,1/4-z
-x,-y,-z
3/4+y,1/4-x,3/4-z
x,1/2+y,-z
3/4-y,3/4+x,1/4-z
-x,y,1/2+z
1/2+x,-y,z
1/4-y,3/4-x,3/4+z
3/4+y,3/4+x,3/4+z
1/2+x,1/2+y,1/2+z
3/4-y,1/4+x,3/4+z
1/2-x,-y,1/2+z
3/4+y,3/4-x,1/4+z
1/2+x,1/2-y,-z
-x,1/2+y,1/2-z
1/4+y,3/4+x,3/4-z
3/4-y,3/4-x,3/4-z
1/2-x,1/2-y,1/2-z
1/4+y,3/4-x,1/4-z
1/2+x,y,1/2-z
1/4-y,1/4+x,3/4-z
1/2-x,1/2+y,z
x,1/2-y,1/2+z
3/4-y,1/4-x,1/4+z
1/4+y,1/4+x,1/4+z
loop_
_atom_site_type_symbol
_atom_site_label
_atom_site_fract_x
_atom_site_fract_y
_atom_site_fract_z
Si Si1 0.300379 0.709071 0.066837
Si Si2 0.024911 0.333828 0.766987
Si Si3 0.261247 0.886116 0.684340
Si Si4 0.544186 0.541589 0.044684
Si Si5 0.184344 0.500000 0.750000
Si Si6 0.415121 0.776154 0.268058
O O1 0.300851 0.662015 0.143934
O O2 0.292063 0.770733 0.105552
O O3 0.250000 0.699257 0.000000
O O4 0.358034 0.706433 0.018017
O O5 0.063820 0.283711 0.737607
O O6 0.025839 0.334580 0.874403
O O7 0.962510 0.318746 0.739014
O O8 0.228303 0.853855 0.761393
O O9 0.232151 0.903271 0.591242
O O10 0.284912 0.943493 0.721612
O O11 0.500000 0.500000 0.000000
O O12 0.537808 0.604065 0.012777
#
# Coordination Sequence:
#
# PCOD9573857 Si02
#       6
#    32  32  32  32  16  32
#     4  11  22  40  63  95 130 171 222 273 331 401
#     4   9  19  37  61  90 127 166 214 257 336 390
#     4  10  22  43  66  94 132 163 227 274 326 404
#     4  10  22  39  60  94 128 166 218 275 334 392
#     4  10  22  42  70  96 122 176 222 278 336 396
#     4   9  19  37  60  91 126 168 208 273 322 395
#
# _framework density 19.855651000000002
#
# number of rings (size 3 to 8) (size 9 to 14) (size 15 to 20)
#    0.000    2.182    0.909    3.273    0.000    7.273 
#    9.818    5.455    2.000    0.000    0.000    0.000 
#    0.000    0.000    0.000    0.000    0.000    0.000 
#
# Total GULP energy -490065.902851 kJ/mol
# GULP energy per Si atom -5568.930714 kJ/mol
# Density = 1.981046 g / cm^3
# Si number density = 19.855651 Si / 1000 Ang^3
#
#
#
# Elastic Constant Matrix: (Units=GPa)
#
#
# Indices 1 2 3 4 5 6 
#
# 1 132.6524 62.0505 32.0563 0.0000 0.0000 0.0000
# 2 62.0505 132.6524 32.0563 0.0000 0.0000 0.0000
# 3 32.0563 32.0563 54.1326 0.0000 0.0000 0.0000
# 4 0.0000 0.0000 0.0000 20.0703 0.0000 0.0000
# 5 0.0000 0.0000 0.0000 0.0000 20.0703 0.0000
# 6 0.0000 0.0000 0.0000 0.0000 0.0000 2.1534
#
#
#
# Elastic Compliance Matrix: (Units=1/GPa)
#
#
# Indices 1 2 3 4 5 6 
#
# 1 0.010272 -0.003892 -0.003778 0.000000 0.000000 0.000000
# 2 -0.003892 0.010272 -0.003778 0.000000 0.000000 0.000000
# 3 -0.003778 -0.003778 0.022948 0.000000 0.000000 0.000000
# 4 0.000000 0.000000 0.000000 0.049825 0.000000 0.000000
# 5 0.000000 0.000000 0.000000 0.000000 0.049825 0.000000
# 6 0.000000 0.000000 0.000000 0.000000 0.000000 0.464392
#
#
# Mechanical properties :
#
#
# Convention : Reuss Voigt Hill
#
# Bulk Modulus (GPa) = 48.55457 63.52931 56.04194
# Shear Modulus (GPa) = 7.84566 21.34377 14.59471
#
# Velocity S-wave (km/s) = 1.98996 3.28219 2.71410
# Velocity P-wave (km/s) = 5.45773 6.81387 6.17315
#
# Compressibility (1/GPa) = 0.02059539
#
# Stress axis : x y z
#
# Youngs Moduli (GPa) = 97.35180 97.35180 43.57702
#
# Poissons Ratio (x) = 0.37888 0.16464
# Poissons Ratio (y) = 0.37888 0.16464
# Poissons Ratio (z) = 0.36781 0.36781
#
# Static dielectric constant tensor:
#      x y z
#    x 1.681470 0.000000 0.000000 
#    y 0.000000 1.681470 0.000000 
#    z 0.000000 0.000000 1.762950 
# 
# From -- ./inp_files/5578.got.cif
#   From: 2010.05.17/outbox.cif.g08.bks.cpg/sg142_3_cif.got.tgz:5578.got - 2010.05.20 13:39:18.
