data_PCOD9573989
_publ_section_title
;
Structure prediction by ZEFSAII (Michael W. Deem and Ramdas Pophale) SiO2 
 PCOD9573989
Probable space group: I 41/A C D
;
_chemical_formula_sum "Si O2"
_cell_formula_units_Z 96
_cell_length_a 18.802321
_cell_length_b 18.802321
_cell_length_c 10.376923
_cell_angle_alpha 90.000000
_cell_angle_beta 90.000000
_cell_angle_gamma 90.000000
_cell_volume 3668.525311
_symmetry_space_group_name_H-M "I 41/A C D"
_symmetry_group_IT_number 142
_space_group.IT_coordinate_system_code '2'
_symmetry_cell_setting 'tetragonal'
loop_
_space_group_symop_operation_xyz
x,y,z
1/4-y,3/4+x,1/4+z
-x,1/2-y,z
1/4+y,1/4-x,3/4+z
x,-y,1/2-z
1/2-x,y,-z
3/4+y,1/4+x,1/4-z
1/4-y,1/4-x,1/4-z
-x,-y,-z
3/4+y,1/4-x,3/4-z
x,1/2+y,-z
3/4-y,3/4+x,1/4-z
-x,y,1/2+z
1/2+x,-y,z
1/4-y,3/4-x,3/4+z
3/4+y,3/4+x,3/4+z
1/2+x,1/2+y,1/2+z
3/4-y,1/4+x,3/4+z
1/2-x,-y,1/2+z
3/4+y,3/4-x,1/4+z
1/2+x,1/2-y,-z
-x,1/2+y,1/2-z
1/4+y,3/4+x,3/4-z
3/4-y,3/4-x,3/4-z
1/2-x,1/2-y,1/2-z
1/4+y,3/4-x,1/4-z
1/2+x,y,1/2-z
1/4-y,1/4+x,3/4-z
1/2-x,1/2+y,z
x,1/2-y,1/2+z
3/4-y,1/4-x,1/4+z
1/4+y,1/4+x,1/4+z
loop_
_atom_site_type_symbol
_atom_site_label
_atom_site_fract_x
_atom_site_fract_y
_atom_site_fract_z
Si Si1 0.413163 0.008976 0.403592
Si Si2 0.386406 0.121021 0.596709
Si Si3 0.879390 0.241004 0.565316
O O1 0.367745 0.055787 0.502853
O O2 0.482674 0.060596 0.397237
O O3 0.398372 0.000000 0.250000
O O4 0.399192 0.927352 0.435713
O O5 0.409373 0.187022 0.504543
O O6 0.447812 0.098852 0.693464
O O7 0.940972 0.190972 0.625000
#
# Coordination Sequence:
#
# PCOD9573989 Si02
#       3
#    32  32  32
#     4  10  23  44  71 103 144 190 243 304 368 440
#     4  11  25  44  74 108 148 196 249 311 378 450
#     4  11  24  40  68 105 142 188 245 305 374 447
#
# _framework density 26.168554
#
# number of rings (size 3 to 8) (size 9 to 14) (size 15 to 20)
#    0.000    1.333    0.000    6.000    0.000   23.333 
#    0.000    0.000    0.000   86.000    0.000    4.667 
#    0.000    0.000    0.000    0.000    0.000    0.000 
#
# Total GULP energy -267646.262919 kJ/mol
# GULP energy per Si atom -5575.963811 kJ/mol
# Density = 2.610899 g / cm^3
# Si number density = 26.168554 Si / 1000 Ang^3
#
#
#
# Elastic Constant Matrix: (Units=GPa)
#
#
# Indices 1 2 3 4 5 6 
#
# 1 159.7161 44.9396 45.1170 0.0000 0.0000 0.0000
# 2 44.9396 159.7161 45.1170 0.0000 0.0000 0.0000
# 3 45.1170 45.1170 66.2709 0.0000 0.0000 0.0000
# 4 0.0000 0.0000 0.0000 54.5997 0.0000 0.0000
# 5 0.0000 0.0000 0.0000 0.0000 54.5997 0.0000
# 6 0.0000 0.0000 0.0000 0.0000 0.0000 26.1817
#
#
#
# Elastic Compliance Matrix: (Units=1/GPa)
#
#
# Indices 1 2 3 4 5 6 
#
# 1 0.007847 -0.000865 -0.004753 0.000000 0.000000 0.000000
# 2 -0.000865 0.007847 -0.004753 0.000000 0.000000 0.000000
# 3 -0.004753 -0.004753 0.021562 0.000000 0.000000 0.000000
# 4 0.000000 0.000000 0.000000 0.018315 0.000000 0.000000
# 5 0.000000 0.000000 0.000000 0.000000 0.018315 0.000000
# 6 0.000000 0.000000 0.000000 0.000000 0.000000 0.038195
#
#
# Mechanical properties :
#
#
# Convention : Reuss Voigt Hill
#
# Bulk Modulus (GPa) = 60.56063 72.89450 66.72756
# Shear Modulus (GPa) = 36.14564 43.77817 39.96191
#
# Velocity S-wave (km/s) = 3.72057 4.09458 3.91205
# Velocity P-wave (km/s) = 6.45365 7.09016 6.77938
#
# Compressibility (1/GPa) = 0.01651238
#
# Stress axis : x y z
#
# Youngs Moduli (GPa) = 127.43210 127.43210 46.37853
#
# Poissons Ratio (x) = 0.11026 0.22045
# Poissons Ratio (y) = 0.11026 0.22045
# Poissons Ratio (z) = 0.60573 0.60573
#
# Static dielectric constant tensor:
#      x y z
#    x 2.186170 0.000000 0.000000 
#    y 0.000000 2.186170 0.000000 
#    z 0.000000 0.000000 2.069710 
# 
# From -- ./inp_files/3191.got.cif
#   From: 2010.05.17/outbox.cif.g08.bks.cpg/sg142_2_cif.got.tgz:3191.got - 2010.05.20 13:39:18.
