data_PCOD9573319
_publ_section_title
;
Structure prediction by ZEFSAII (Michael W. Deem and Ramdas Pophale) SiO2 
 PCOD9573319
Probable space group: I 41/A M D
;
_chemical_formula_sum "Si O2"
_cell_formula_units_Z 96
_cell_length_a 15.315210
_cell_length_b 15.315210
_cell_length_c 18.084280
_cell_angle_alpha 90.000000
_cell_angle_beta 90.000000
_cell_angle_gamma 90.000000
_cell_volume 4241.770183
_symmetry_space_group_name_H-M "I 41/A M D"
_symmetry_group_IT_number 141
_space_group.IT_coordinate_system_code '2'
_symmetry_cell_setting 'tetragonal'
loop_
_space_group_symop_operation_xyz
x,y,z
1/4-y,3/4+x,1/4+z
-x,1/2-y,z
1/4+y,1/4-x,3/4+z
x,-y,-z
-x,1/2+y,-z
1/4+y,3/4+x,1/4-z
1/4-y,1/4-x,3/4-z
-x,-y,-z
3/4+y,1/4-x,3/4-z
x,1/2+y,-z
3/4-y,3/4+x,1/4-z
-x,y,z
x,1/2-y,z
3/4-y,1/4-x,3/4+z
3/4+y,3/4+x,1/4+z
1/2+x,1/2+y,1/2+z
3/4-y,1/4+x,3/4+z
1/2-x,-y,1/2+z
3/4+y,3/4-x,1/4+z
1/2+x,1/2-y,1/2-z
1/2-x,y,1/2-z
3/4+y,1/4+x,3/4-z
3/4-y,3/4-x,1/4-z
1/2-x,1/2-y,1/2-z
1/4+y,3/4-x,1/4-z
1/2+x,y,1/2-z
1/4-y,1/4+x,3/4-z
1/2-x,1/2+y,1/2+z
1/2+x,-y,1/2+z
1/4-y,3/4-x,1/4+z
1/4+y,1/4+x,3/4+z
loop_
_atom_site_type_symbol
_atom_site_label
_atom_site_fract_x
_atom_site_fract_y
_atom_site_fract_z
Si Si1 0.166536 0.653299 0.559142
Si Si2 0.340242 0.646253 0.657307
Si Si3 0.769569 0.651284 0.166425
O O1 0.178126 0.750000 0.527756
O O2 0.097175 0.652826 0.625000
O O3 0.253768 0.632661 0.606616
O O4 0.134091 0.592200 0.492968
O O5 0.360702 0.750000 0.654816
O O6 0.403239 0.575218 0.621157
O O7 0.834040 0.584040 0.125000
O O8 0.806362 0.750000 0.167229
O O9 0.750000 0.622254 0.250000
#
# Coordination Sequence:
#
# PCOD9573319 Si02
#       3
#    32  32  32
#     4  11  23  39  62  94 134 179 228 285 349 418
#     4  11  24  43  68  99 138 182 230 287 352 423
#     4  11  25  45  70 100 137 184 237 294 354 417
#
# _framework density 22.632059000000002
#
# number of rings (size 3 to 8) (size 9 to 14) (size 15 to 20)
#    0.000    1.000    0.000    6.000    0.000   11.333 
#    0.000    3.333    0.000    0.000    0.000    0.000 
#    0.000    0.000    0.000    0.000    0.000    0.000 
#
# Total GULP energy -267677.976046 kJ/mol
# GULP energy per Si atom -5576.624501 kJ/mol
# Density = 2.258055 g / cm^3
# Si number density = 22.632059 Si / 1000 Ang^3
#
#
#
# Elastic Constant Matrix: (Units=GPa)
#
#
# Indices 1 2 3 4 5 6 
#
# 1 121.8883 81.7433 72.7893 0.0000 0.0000 0.0000
# 2 81.7433 121.8869 72.7895 0.0000 0.0000 0.0000
# 3 72.7893 72.7895 206.4179 0.0000 0.0000 0.0000
# 4 0.0000 0.0000 0.0000 32.5213 0.0000 0.0000
# 5 0.0000 0.0000 0.0000 0.0000 32.5212 0.0000
# 6 0.0000 0.0000 0.0000 0.0000 0.0000 11.0806
#
#
#
# Elastic Compliance Matrix: (Units=1/GPa)
#
#
# Indices 1 2 3 4 5 6 
#
# 1 0.015738 -0.009172 -0.002315 0.000000 0.000000 0.000000
# 2 -0.009172 0.015738 -0.002316 0.000000 0.000000 0.000000
# 3 -0.002315 -0.002316 0.006478 0.000000 0.000000 0.000000
# 4 0.000000 0.000000 0.000000 0.030749 0.000000 0.000000
# 5 0.000000 0.000000 0.000000 0.000000 0.030749 0.000000
# 6 0.000000 0.000000 0.000000 0.000000 0.000000 0.090248
#
#
# Mechanical properties :
#
#
# Convention : Reuss Voigt Hill
#
# Bulk Modulus (GPa) = 96.63568 100.53746 98.58657
# Shear Modulus (GPa) = 22.64953 30.08267 26.36610
#
# Velocity S-wave (km/s) = 3.16693 3.64978 3.41690
# Velocity P-wave (km/s) = 7.49426 7.89178 7.69559
#
# Compressibility (1/GPa) = 0.01034814
#
# Stress axis : x y z
#
# Youngs Moduli (GPa) = 63.54031 63.53929 154.37966
#
# Poissons Ratio (x) = 0.58278 0.35745
# Poissons Ratio (y) = 0.58279 0.35747
# Poissons Ratio (z) = 0.14712 0.14713
#
# Static dielectric constant tensor:
#      x y z
#    x 1.908280 0.000000 0.000000 
#    y 0.000000 1.908280 0.000000 
#    z 0.000000 0.000000 1.845060 
# 
# From -- ./inp_files/9735.got.cif
#   From: 2010.05.17/outbox.cif.g08.bks.cpg/sg141_5_cif.got.tgz:9735.got - 2010.05.20 13:30:51.
