data_PCOD9573044
_publ_section_title
;
Structure prediction by ZEFSAII (Michael W. Deem and Ramdas Pophale) SiO2 
 PCOD9573044
Probable space group: I 41/A M D
;
_chemical_formula_sum "Si O2"
_cell_formula_units_Z 100
_cell_length_a 14.587486
_cell_length_b 14.587486
_cell_length_c 20.729048
_cell_angle_alpha 90.000000
_cell_angle_beta 90.000000
_cell_angle_gamma 90.000000
_cell_volume 4411.032541
_symmetry_space_group_name_H-M "I 41/A M D"
_symmetry_group_IT_number 141
_space_group.IT_coordinate_system_code '2'
_symmetry_cell_setting 'tetragonal'
loop_
_space_group_symop_operation_xyz
x,y,z
1/4-y,3/4+x,1/4+z
-x,1/2-y,z
1/4+y,1/4-x,3/4+z
x,-y,-z
-x,1/2+y,-z
1/4+y,3/4+x,1/4-z
1/4-y,1/4-x,3/4-z
-x,-y,-z
3/4+y,1/4-x,3/4-z
x,1/2+y,-z
3/4-y,3/4+x,1/4-z
-x,y,z
x,1/2-y,z
3/4-y,1/4-x,3/4+z
3/4+y,3/4+x,1/4+z
1/2+x,1/2+y,1/2+z
3/4-y,1/4+x,3/4+z
1/2-x,-y,1/2+z
3/4+y,3/4-x,1/4+z
1/2+x,1/2-y,1/2-z
1/2-x,y,1/2-z
3/4+y,1/4+x,3/4-z
3/4-y,3/4-x,1/4-z
1/2-x,1/2-y,1/2-z
1/4+y,3/4-x,1/4-z
1/2+x,y,1/2-z
1/4-y,1/4+x,3/4-z
1/2-x,1/2+y,1/2+z
1/2+x,-y,1/2+z
1/4-y,3/4-x,1/4+z
1/4+y,1/4+x,3/4+z
loop_
_atom_site_type_symbol
_atom_site_label
_atom_site_fract_x
_atom_site_fract_y
_atom_site_fract_z
Si Si1 0.396492 0.250000 0.499088
Si Si2 0.393306 0.643587 0.726027
Si Si3 0.000000 0.750000 0.125000
Si Si4 0.750000 0.999121 0.250000
Si Si5 0.324825 0.857669 0.170756
O O1 0.500000 0.250000 0.470998
O O2 0.413624 0.250000 0.575936
O O3 0.360932 0.156434 0.469557
O O4 0.500000 0.635059 0.743546
O O5 0.366699 0.750000 0.733736
O O6 0.331575 0.570916 0.762706
O O7 0.384602 0.614063 0.650949
O O8 0.754525 0.928031 0.190186
O O9 0.300488 0.750000 0.181365
#
# Coordination Sequence:
#
# PCOD9573044 Si02
#       5
#    16  32   4  16  32
#     4   8  16  34  58  82 116 164 202 239 297 359
#     4  10  22  42  65  86 119 171 213 257 325 385
#     4   8  16  32  56  96 112 164 216 256 270 360
#     4  12  24  36  60 102 122 152 214 284 300 372
#     4  10  20  40  61  85 126 168 201 247 321 394
#
# _framework density 22.670428999999999
#
# number of rings (size 3 to 8) (size 9 to 14) (size 15 to 20)
#    0.480    1.600    1.600    1.920    2.240    0.000 
#    5.760    0.000    0.000    0.000    0.000    4.480 
#    0.000    0.000    0.000    0.000    0.000    0.000 
#
# Total GULP energy -278778.921622 kJ/mol
# GULP energy per Si atom -5575.578432 kJ/mol
# Density = 2.261883 g / cm^3
# Si number density = 22.670429 Si / 1000 Ang^3
#
#
#
# Elastic Constant Matrix: (Units=GPa)
#
#
# Indices 1 2 3 4 5 6 
#
# 1 97.2102 51.2092 -12.1098 0.0000 0.0000 0.0000
# 2 51.2092 97.2102 -12.1098 0.0000 0.0000 0.0000
# 3 -12.1098 -12.1098 20.0433 0.0000 0.0000 0.0000
# 4 0.0000 0.0000 0.0000 12.1125 0.0000 0.0000
# 5 0.0000 0.0000 0.0000 0.0000 12.1125 0.0000
# 6 0.0000 0.0000 0.0000 0.0000 0.0000 29.4799
#
#
#
# Elastic Compliance Matrix: (Units=1/GPa)
#
#
# Indices 1 2 3 4 5 6 
#
# 1 0.014607 -0.007132 0.004516 0.000000 0.000000 0.000000
# 2 -0.007132 0.014607 0.004516 0.000000 0.000000 0.000000
# 3 0.004516 0.004516 0.055349 0.000000 0.000000 0.000000
# 4 0.000000 0.000000 0.000000 0.082559 0.000000 0.000000
# 5 0.000000 0.000000 0.000000 0.000000 0.082559 0.000000
# 6 0.000000 0.000000 0.000000 0.000000 0.000000 0.033921
#
#
# Mechanical properties :
#
#
# Convention : Reuss Voigt Hill
#
# Bulk Modulus (GPa) = 11.31701 29.82698 20.57199
# Shear Modulus (GPa) = 16.16780 23.23926 19.70353
#
# Velocity S-wave (km/s) = 2.67342 3.20518 2.95130
# Velocity P-wave (km/s) = 3.81213 5.18487 4.55056
#
# Compressibility (1/GPa) = 0.08836256
#
# Stress axis : x y z
#
# Youngs Moduli (GPa) = 68.46208 68.46208 18.06712
#
# Poissons Ratio (x) = 0.48827 -0.08159
# Poissons Ratio (y) = 0.48827 -0.08159
# Poissons Ratio (z) = -0.30918 -0.30918
#
# Static dielectric constant tensor:
#      x y z
#    x 1.922640 0.000000 0.000000 
#    y 0.000000 1.922640 0.000000 
#    z 0.000000 0.000000 1.846280 
# 
# From -- ./inp_files/12420.got.cif
#   From: 2010.05.17/outbox.cif.g08.bks.cpg/sg141_7_cif.got.tgz:12420.got - 2010.05.20 13:30:51.
