data_PCOD9573413
_publ_section_title
;
Structure prediction by ZEFSAII (Michael W. Deem and Ramdas Pophale) SiO2 
 PCOD9573413
Probable space group: I 41/A C D
;
_chemical_formula_sum "Si O2"
_cell_formula_units_Z 208
_cell_length_a 19.513369
_cell_length_b 19.513369
_cell_length_c 32.126828
_cell_angle_alpha 90.000000
_cell_angle_beta 90.000000
_cell_angle_gamma 90.000000
_cell_volume 12232.982728
_symmetry_space_group_name_H-M "I 41/A C D"
_symmetry_group_IT_number 142
_space_group.IT_coordinate_system_code '2'
_symmetry_cell_setting 'tetragonal'
loop_
_space_group_symop_operation_xyz
x,y,z
1/4-y,3/4+x,1/4+z
-x,1/2-y,z
1/4+y,1/4-x,3/4+z
x,-y,1/2-z
1/2-x,y,-z
3/4+y,1/4+x,1/4-z
1/4-y,1/4-x,1/4-z
-x,-y,-z
3/4+y,1/4-x,3/4-z
x,1/2+y,-z
3/4-y,3/4+x,1/4-z
-x,y,1/2+z
1/2+x,-y,z
1/4-y,3/4-x,3/4+z
3/4+y,3/4+x,3/4+z
1/2+x,1/2+y,1/2+z
3/4-y,1/4+x,3/4+z
1/2-x,-y,1/2+z
3/4+y,3/4-x,1/4+z
1/2+x,1/2-y,-z
-x,1/2+y,1/2-z
1/4+y,3/4+x,3/4-z
3/4-y,3/4-x,3/4-z
1/2-x,1/2-y,1/2-z
1/4+y,3/4-x,1/4-z
1/2+x,y,1/2-z
1/4-y,1/4+x,3/4-z
1/2-x,1/2+y,z
x,1/2-y,1/2+z
3/4-y,1/4-x,1/4+z
1/4+y,1/4+x,1/4+z
loop_
_atom_site_type_symbol
_atom_site_label
_atom_site_fract_x
_atom_site_fract_y
_atom_site_fract_z
Si Si1 0.819559 0.569559 0.375000
Si Si2 0.816708 0.919177 0.588652
Si Si3 0.148413 0.294920 0.470527
Si Si4 0.942652 0.553988 0.311765
Si Si5 0.923688 0.171638 0.389639
Si Si6 0.832365 0.651065 0.913330
Si Si7 0.894246 0.417957 0.755107
O O1 0.819873 0.497492 0.398774
O O2 0.883175 0.570468 0.343805
O O3 0.866760 0.874473 0.617298
O O4 0.740872 0.886369 0.593069
O O5 0.837847 0.911993 0.540424
O O6 0.223029 0.305719 0.449378
O O7 0.156213 0.319479 0.518110
O O8 0.093354 0.325792 0.438839
O O9 0.136560 0.213559 0.476113
O O10 0.017456 0.571918 0.330453
O O11 0.907579 0.247238 0.371233
O O12 0.880236 0.630236 0.875000
O O13 0.858321 0.627412 0.959146
O O14 0.909293 0.500000 0.750000
#
# Coordination Sequence:
#
# PCOD9573413 Si02
#       7
#    16  32  32  32  32  32  32
#     4  12  24  36  55  88 116 151 188 240 282 338
#     4  11  20  35  54  86 119 141 188 239 284 331
#     4  10  16  36  60  79 106 159 190 219 272 360
#     4  10  20  37  59  79 115 153 192 226 284 334
#     4  11  21  33  58  88 115 147 184 235 297 343
#     4  10  19  37  61  85 105 150 194 234 276 338
#     4   9  16  33  58  80 112 147 186 229 282 331
#
# _framework density 17.003212000000001
#
# number of rings (size 3 to 8) (size 9 to 14) (size 15 to 20)
#    0.000    1.692    8.462    0.000    0.000    0.000 
#   11.077    1.923    0.000    1.846    0.000    0.000 
#    0.000    0.000    0.000    0.000    0.000    0.000 
#
# Total GULP energy -579814.606248 kJ/mol
# GULP energy per Si atom -5575.140445 kJ/mol
# Density = 1.696451 g / cm^3
# Si number density = 17.003212 Si / 1000 Ang^3
#
#
#
# Elastic Constant Matrix: (Units=GPa)
#
#
# Indices 1 2 3 4 5 6 
#
# 1 65.2660 36.2281 59.7386 0.0000 0.0000 0.0000
# 2 36.2281 65.2660 59.7386 0.0000 0.0000 0.0000
# 3 59.7386 59.7386 145.9242 0.0000 0.0000 0.0000
# 4 0.0000 0.0000 0.0000 28.4737 0.0000 0.0000
# 5 0.0000 0.0000 0.0000 0.0000 28.4737 0.0000
# 6 0.0000 0.0000 0.0000 0.0000 0.0000 7.7602
#
#
#
# Elastic Compliance Matrix: (Units=1/GPa)
#
#
# Indices 1 2 3 4 5 6 
#
# 1 0.026728 -0.007710 -0.007786 0.000000 0.000000 0.000000
# 2 -0.007710 0.026728 -0.007786 0.000000 0.000000 0.000000
# 3 -0.007786 -0.007786 0.013227 0.000000 0.000000 0.000000
# 4 0.000000 0.000000 0.000000 0.035120 0.000000 0.000000
# 5 0.000000 0.000000 0.000000 0.000000 0.035120 0.000000
# 6 0.000000 0.000000 0.000000 0.000000 0.000000 0.128863
#
#
# Mechanical properties :
#
#
# Convention : Reuss Voigt Hill
#
# Bulk Modulus (GPa) = 49.69972 65.31851 57.50911
# Shear Modulus (GPa) = 15.67129 20.99157 18.33143
#
# Velocity S-wave (km/s) = 3.03919 3.51745 3.28703
# Velocity P-wave (km/s) = 6.45047 7.41589 6.94996
#
# Compressibility (1/GPa) = 0.02012084
#
# Stress axis : x y z
#
# Youngs Moduli (GPa) = 37.41429 37.41429 75.60095
#
# Poissons Ratio (x) = 0.28846 0.58859
# Poissons Ratio (y) = 0.28846 0.58859
# Poissons Ratio (z) = 0.29129 0.29129
#
# Static dielectric constant tensor:
#      x y z
#    x 1.562320 0.000000 0.000000 
#    y 0.000000 1.562320 0.000000 
#    z 0.000000 0.000000 1.597660 
# 
# From -- ./inp_files/12691.got.cif
#   From: 2010.05.17/outbox.cif.g08.bks.cpg/sg142_7_cif.got.tgz:12691.got - 2010.05.20 13:39:18.
