data_PCOD9573293
_publ_section_title
;
Structure prediction by ZEFSAII (Michael W. Deem and Ramdas Pophale) SiO2 
 PCOD9573293
Probable space group: I 41/A M D
;
_chemical_formula_sum "Si O2"
_cell_formula_units_Z 96
_cell_length_a 13.992134
_cell_length_b 13.992134
_cell_length_c 24.696286
_cell_angle_alpha 90.000000
_cell_angle_beta 90.000000
_cell_angle_gamma 90.000000
_cell_volume 4835.034276
_symmetry_space_group_name_H-M "I 41/A M D"
_symmetry_group_IT_number 141
_space_group.IT_coordinate_system_code '2'
_symmetry_cell_setting 'tetragonal'
loop_
_space_group_symop_operation_xyz
x,y,z
1/4-y,3/4+x,1/4+z
-x,1/2-y,z
1/4+y,1/4-x,3/4+z
x,-y,-z
-x,1/2+y,-z
1/4+y,3/4+x,1/4-z
1/4-y,1/4-x,3/4-z
-x,-y,-z
3/4+y,1/4-x,3/4-z
x,1/2+y,-z
3/4-y,3/4+x,1/4-z
-x,y,z
x,1/2-y,z
3/4-y,1/4-x,3/4+z
3/4+y,3/4+x,1/4+z
1/2+x,1/2+y,1/2+z
3/4-y,1/4+x,3/4+z
1/2-x,-y,1/2+z
3/4+y,3/4-x,1/4+z
1/2+x,1/2-y,1/2-z
1/2-x,y,1/2-z
3/4+y,1/4+x,3/4-z
3/4-y,3/4-x,1/4-z
1/2-x,1/2-y,1/2-z
1/4+y,3/4-x,1/4-z
1/2+x,y,1/2-z
1/4-y,1/4+x,3/4-z
1/2-x,1/2+y,1/2+z
1/2+x,-y,1/2+z
1/4-y,3/4-x,1/4+z
1/4+y,1/4+x,3/4+z
loop_
_atom_site_type_symbol
_atom_site_label
_atom_site_fract_x
_atom_site_fract_y
_atom_site_fract_z
Si Si1 0.894092 0.481263 0.333571
Si Si2 0.769615 0.137940 0.629962
Si Si3 0.610197 0.890377 0.019328
O O1 0.835025 0.414976 0.375000
O O2 0.833289 0.578055 0.327109
O O3 0.903322 0.422431 0.278756
O O4 0.000000 0.501664 0.355709
O O5 0.758239 0.250000 0.641008
O O6 0.831739 0.124790 0.574745
O O7 0.670111 0.079890 0.625000
O O8 0.500000 0.857740 0.023459
O O9 0.606691 0.000000 0.000000
#
# Coordination Sequence:
#
# PCOD9573293 Si02
#       3
#    32  32  32
#     4  11  22  36  58  91 126 158 196 243 299 366
#     4  11  24  42  63  87 120 162 207 255 304 355
#     4  11  21  39  64  91 123 159 198 245 304 365
#
# _framework density 19.855081999999999
#
# number of rings (size 3 to 8) (size 9 to 14) (size 15 to 20)
#    0.000    1.000    6.667    3.000    0.000    6.667 
#    0.000    3.333    0.000    4.000    0.000    0.000 
#    0.000    0.000    0.000    0.000    0.000    0.000 
#
# Total GULP energy -267919.926860 kJ/mol
# GULP energy per Si atom -5581.665143 kJ/mol
# Density = 1.980989 g / cm^3
# Si number density = 19.855082 Si / 1000 Ang^3
#
#
#
# Elastic Constant Matrix: (Units=GPa)
#
#
# Indices 1 2 3 4 5 6 
#
# 1 194.1980 69.1234 17.7475 0.0000 0.0000 0.0000
# 2 69.1234 194.1958 17.7469 0.0000 0.0000 0.0000
# 3 17.7475 17.7469 66.9198 0.0000 0.0000 0.0000
# 4 0.0000 0.0000 0.0000 21.5394 0.0000 0.0000
# 5 0.0000 0.0000 0.0000 0.0000 21.5400 0.0000
# 6 0.0000 0.0000 0.0000 0.0000 0.0000 -6.0963
#
#
#
# Elastic Compliance Matrix: (Units=1/GPa)
#
#
# Indices 1 2 3 4 5 6 
#
# 1 0.005967 -0.002028 -0.001045 0.000000 0.000000 0.000000
# 2 -0.002028 0.005967 -0.001044 0.000000 0.000000 0.000000
# 3 -0.001045 -0.001044 0.015497 0.000000 0.000000 0.000000
# 4 0.000000 0.000000 0.000000 0.046427 0.000000 0.000000
# 5 0.000000 0.000000 0.000000 0.000000 0.046425 0.000000
# 6 0.000000 0.000000 0.000000 0.000000 0.000000 -0.164035
#
#
# Mechanical properties :
#
#
# Convention : Reuss Voigt Hill
#
# Bulk Modulus (GPa) = 52.09356 73.83880 62.96618
# Shear Modulus (GPa) = -171.71330 30.77634 -70.46848
#
# Velocity S-wave (km/s) = -9.30973 3.94134 -5.96393
# Velocity P-wave (km/s) = 9.44815 7.61458 3.95511
#
# Compressibility (1/GPa) = 0.01919623
#
# Stress axis : x y z
#
# Youngs Moduli (GPa) = 167.59277 167.59113 64.52750
#
# Poissons Ratio (x) = 0.33995 0.06740
# Poissons Ratio (y) = 0.33995 0.06740
# Poissons Ratio (z) = 0.17505 0.17504
#
# Static dielectric constant tensor:
#      x y z
#    x 1.752350 0.000000 0.000000 
#    y 0.000000 1.752360 0.000000 
#    z 0.000000 0.000000 1.728200 
# 
# From -- ./inp_files/9746.got.cif
#   From: 2010.05.17/outbox.cif.g08.bks.cpg/sg141_5_cif.got.tgz:9746.got - 2010.05.20 13:30:51.
