data_PCOD9573754
_publ_section_title
;
Structure prediction by ZEFSAII (Michael W. Deem and Ramdas Pophale) SiO2 
 PCOD9573754
Probable space group: I 41/A C D
;
_chemical_formula_sum "Si O2"
_cell_formula_units_Z 176
_cell_length_a 16.987986
_cell_length_b 16.987986
_cell_length_c 25.683128
_cell_angle_alpha 90.000000
_cell_angle_beta 90.000000
_cell_angle_gamma 90.000000
_cell_volume 7411.936758
_symmetry_space_group_name_H-M "I 41/A C D"
_symmetry_group_IT_number 142
_space_group.IT_coordinate_system_code '2'
_symmetry_cell_setting 'tetragonal'
loop_
_space_group_symop_operation_xyz
x,y,z
1/4-y,3/4+x,1/4+z
-x,1/2-y,z
1/4+y,1/4-x,3/4+z
x,-y,1/2-z
1/2-x,y,-z
3/4+y,1/4+x,1/4-z
1/4-y,1/4-x,1/4-z
-x,-y,-z
3/4+y,1/4-x,3/4-z
x,1/2+y,-z
3/4-y,3/4+x,1/4-z
-x,y,1/2+z
1/2+x,-y,z
1/4-y,3/4-x,3/4+z
3/4+y,3/4+x,3/4+z
1/2+x,1/2+y,1/2+z
3/4-y,1/4+x,3/4+z
1/2-x,-y,1/2+z
3/4+y,3/4-x,1/4+z
1/2+x,1/2-y,-z
-x,1/2+y,1/2-z
1/4+y,3/4+x,3/4-z
3/4-y,3/4-x,3/4-z
1/2-x,1/2-y,1/2-z
1/4+y,3/4-x,1/4-z
1/2+x,y,1/2-z
1/4-y,1/4+x,3/4-z
1/2-x,1/2+y,z
x,1/2-y,1/2+z
3/4-y,1/4-x,1/4+z
1/4+y,1/4+x,1/4+z
loop_
_atom_site_type_symbol
_atom_site_label
_atom_site_fract_x
_atom_site_fract_y
_atom_site_fract_z
Si Si1 0.496181 0.372422 0.147829
Si Si2 0.117173 0.825688 0.993406
Si Si3 0.833753 0.773711 0.778213
Si Si4 0.204701 0.709972 0.383817
Si Si5 0.250618 0.925152 0.279815
Si Si6 0.779872 0.529872 0.875000
O O1 0.421636 0.319939 0.130853
O O2 0.516971 0.379665 0.208913
O O3 0.492438 0.463563 0.132441
O O4 0.159889 0.799346 0.939375
O O5 0.023765 0.844722 0.996146
O O6 0.151002 0.913952 0.005860
O O7 0.750000 0.750000 0.750000
O O8 0.844395 0.748880 0.838208
O O9 0.820818 0.865245 0.777417
O O10 0.224714 0.622647 0.361466
O O11 0.221096 0.000000 0.250000
O O12 0.270234 0.958346 0.335926
#
# Coordination Sequence:
#
# PCOD9573754 Si02
#       6
#    32  32  32  32  32  16
#     4  11  24  40  64  93 136 183 230 293 357 430
#     4  11  20  40  66  93 126 177 239 289 348 431
#     4  10  21  36  63  96 128 177 230 285 349 431
#     4  12  21  37  68 100 128 175 237 292 351 428
#     4  11  20  36  59  94 137 173 221 292 353 425
#     4  12  20  34  64  96 131 173 220 288 358 408
#
# _framework density 23.745481000000002
#
# number of rings (size 3 to 8) (size 9 to 14) (size 15 to 20)
#    0.000    0.909    5.455    3.818    0.000    0.000 
#    0.000    0.000   20.000    0.000    0.000    0.000 
#    0.000    0.000    0.000    0.000    0.000    0.000 
#
# Total GULP energy -490941.410457 kJ/mol
# GULP energy per Si atom -5578.879664 kJ/mol
# Density = 2.369144 g / cm^3
# Si number density = 23.745481 Si / 1000 Ang^3
#
#
#
# Elastic Constant Matrix: (Units=GPa)
#
#
# Indices 1 2 3 4 5 6 
#
# 1 32.5525 23.1341 0.6809 0.0000 0.0000 0.0000
# 2 23.1341 32.5525 0.6809 0.0000 0.0000 0.0000
# 3 0.6809 0.6809 86.2840 0.0000 0.0000 0.0000
# 4 0.0000 0.0000 0.0000 21.3200 0.0000 0.0000
# 5 0.0000 0.0000 0.0000 0.0000 21.3200 0.0000
# 6 0.0000 0.0000 0.0000 0.0000 0.0000 27.4513
#
#
#
# Elastic Compliance Matrix: (Units=1/GPa)
#
#
# Indices 1 2 3 4 5 6 
#
# 1 0.062068 -0.044107 -0.000142 0.000000 0.000000 0.000000
# 2 -0.044107 0.062068 -0.000142 0.000000 0.000000 0.000000
# 3 -0.000142 -0.000142 0.011592 0.000000 0.000000 0.000000
# 4 0.000000 0.000000 0.000000 0.046904 0.000000 0.000000
# 5 0.000000 0.000000 0.000000 0.000000 0.046904 0.000000
# 6 0.000000 0.000000 0.000000 0.000000 0.000000 0.036428
#
#
# Mechanical properties :
#
#
# Convention : Reuss Voigt Hill
#
# Bulk Modulus (GPa) = 21.30053 22.26451 21.78252
# Shear Modulus (GPa) = 13.49909 22.47781 17.98845
#
# Velocity S-wave (km/s) = 2.38689 3.08005 2.75535
# Velocity P-wave (km/s) = 4.07261 4.69527 4.39498
#
# Compressibility (1/GPa) = 0.04694719
#
# Stress axis : x y z
#
# Youngs Moduli (GPa) = 16.11130 16.11130 86.26734
#
# Poissons Ratio (x) = 0.71062 0.01223
# Poissons Ratio (y) = 0.71062 0.01223
# Poissons Ratio (z) = 0.00228 0.00228
#
# Static dielectric constant tensor:
#      x y z
#    x 1.960040 0.000000 0.000000 
#    y 0.000000 1.960040 0.000000 
#    z 0.000000 0.000000 3.338240 
# 
# From -- ./inp_files/11417.got.cif
#   From: 2010.05.17/outbox.cif.g08.bks.cpg/sg142_6_cif.got.tgz:11417.got - 2010.05.20 13:39:18.
