data_PCOD9573463
_publ_section_title
;
Structure prediction by ZEFSAII (Michael W. Deem and Ramdas Pophale) SiO2 
 PCOD9573463
Probable space group: I 41/A C D
;
_chemical_formula_sum "Si O2"
_cell_formula_units_Z 176
_cell_length_a 27.199510
_cell_length_b 27.199510
_cell_length_c 11.243934
_cell_angle_alpha 90.000000
_cell_angle_beta 90.000000
_cell_angle_gamma 90.000000
_cell_volume 8318.412415
_symmetry_space_group_name_H-M "I 41/A C D"
_symmetry_group_IT_number 142
_space_group.IT_coordinate_system_code '2'
_symmetry_cell_setting 'tetragonal'
loop_
_space_group_symop_operation_xyz
x,y,z
1/4-y,3/4+x,1/4+z
-x,1/2-y,z
1/4+y,1/4-x,3/4+z
x,-y,1/2-z
1/2-x,y,-z
3/4+y,1/4+x,1/4-z
1/4-y,1/4-x,1/4-z
-x,-y,-z
3/4+y,1/4-x,3/4-z
x,1/2+y,-z
3/4-y,3/4+x,1/4-z
-x,y,1/2+z
1/2+x,-y,z
1/4-y,3/4-x,3/4+z
3/4+y,3/4+x,3/4+z
1/2+x,1/2+y,1/2+z
3/4-y,1/4+x,3/4+z
1/2-x,-y,1/2+z
3/4+y,3/4-x,1/4+z
1/2+x,1/2-y,-z
-x,1/2+y,1/2-z
1/4+y,3/4+x,3/4-z
3/4-y,3/4-x,3/4-z
1/2-x,1/2-y,1/2-z
1/4+y,3/4-x,1/4-z
1/2+x,y,1/2-z
1/4-y,1/4+x,3/4-z
1/2-x,1/2+y,z
x,1/2-y,1/2+z
3/4-y,1/4-x,1/4+z
1/4+y,1/4+x,1/4+z
loop_
_atom_site_type_symbol
_atom_site_label
_atom_site_fract_x
_atom_site_fract_y
_atom_site_fract_z
Si Si1 0.520739 0.581314 0.011209
Si Si2 0.656347 0.585167 0.487062
Si Si3 0.583573 0.735107 0.049341
Si Si4 0.268042 0.676533 0.254331
Si Si5 0.250000 0.138088 0.000000
Si Si6 0.923901 0.341880 0.343832
O O1 0.509803 0.617715 0.120498
O O2 0.471297 0.554729 0.966560
O O3 0.557368 0.536335 0.042147
O O4 0.546906 0.614884 0.912586
O O5 0.670057 0.579944 0.625000
O O6 0.625507 0.537854 0.446714
O O7 0.708039 0.604509 0.437794
O O8 0.617579 0.629185 0.472157
O O9 0.541880 0.708121 0.125000
O O10 0.592959 0.698015 0.939514
O O11 0.568248 0.787211 0.995704
O O12 0.269564 0.670846 0.109389
#
# Coordination Sequence:
#
# PCOD9573463 Si02
#       6
#    32  32  32  32  16  32
#     4  10  21  38  61  90 120 149 203 254 298 353
#     4  10  20  34  58  86 118 155 200 244 291 361
#     4  10  23  39  60  86 118 159 200 247 302 367
#     4  10  20  36  60  93 118 153 201 251 299 353
#     4  10  18  34  58  86 120 160 192 242 300 360
#     4  11  21  41  59  84 121 161 196 246 306 359
#
# _framework density 21.157883999999999
#
# number of rings (size 3 to 8) (size 9 to 14) (size 15 to 20)
#    0.000    1.818    1.818    3.273    0.000    1.818 
#    0.000    4.545    0.000    9.818    0.000    0.000 
#    0.000    0.000    0.000    0.000    0.000    0.000 
#
# Total GULP energy -491530.255168 kJ/mol
# GULP energy per Si atom -5585.571081 kJ/mol
# Density = 2.110973 g / cm^3
# Si number density = 21.157884 Si / 1000 Ang^3
#
#
#
# Elastic Constant Matrix: (Units=GPa)
#
#
# Indices 1 2 3 4 5 6 
#
# 1 67.7801 27.6966 -1.1919 0.0000 0.0000 0.0000
# 2 27.6966 67.7854 -1.1900 0.0000 0.0000 0.0000
# 3 -1.1919 -1.1900 27.4650 0.0000 0.0000 0.0000
# 4 0.0000 0.0000 0.0000 16.1198 0.0000 0.0000
# 5 0.0000 0.0000 0.0000 0.0000 16.1199 0.0000
# 6 0.0000 0.0000 0.0000 0.0000 0.0000 33.6056
#
#
#
# Elastic Compliance Matrix: (Units=1/GPa)
#
#
# Indices 1 2 3 4 5 6 
#
# 1 0.017716 -0.007231 0.000456 0.000000 0.000000 0.000000
# 2 -0.007231 0.017715 0.000454 0.000000 0.000000 0.000000
# 3 0.000456 0.000454 0.036449 0.000000 0.000000 0.000000
# 4 0.000000 0.000000 0.000000 0.062036 0.000000 0.000000
# 5 0.000000 0.000000 0.000000 0.000000 0.062035 0.000000
# 6 0.000000 0.000000 0.000000 0.000000 0.000000 0.029757
#
#
# Mechanical properties :
#
#
# Convention : Reuss Voigt Hill
#
# Bulk Modulus (GPa) = 16.88116 23.73997 20.31057
# Shear Modulus (GPa) = 19.37256 22.35011 20.86133
#
# Velocity S-wave (km/s) = 3.02920 3.25368 3.14344
# Velocity P-wave (km/s) = 4.49786 5.03587 4.77445
#
# Compressibility (1/GPa) = 0.05923764
#
# Stress axis : x y z
#
# Youngs Moduli (GPa) = 56.44536 56.44991 27.43532
#
# Poissons Ratio (x) = 0.40817 -0.01250
# Poissons Ratio (y) = 0.40814 -0.01245
# Poissons Ratio (z) = -0.02571 -0.02561
#
# Static dielectric constant tensor:
#      x y z
#    x 1.801300 0.000000 0.000000 
#    y 0.000000 1.801300 0.000000 
#    z 0.000000 0.000000 1.767510 
# 
# From -- ./inp_files/3955.got.cif
#   From: 2010.05.17/outbox.cif.g08.bks.cpg/sg142_2_cif.got.tgz:3955.got - 2010.05.20 13:39:18.
