data_PCOD9573012
_publ_section_title
;
Structure prediction by ZEFSAII (Michael W. Deem and Ramdas Pophale) SiO2 
 PCOD9573012
Probable space group: I 41/A M D
;
_chemical_formula_sum "Si O2"
_cell_formula_units_Z 144
_cell_length_a 29.983877
_cell_length_b 29.983877
_cell_length_c 8.097826
_cell_angle_alpha 90.000000
_cell_angle_beta 90.000000
_cell_angle_gamma 90.000000
_cell_volume 7280.211830
_symmetry_space_group_name_H-M "I 41/A M D"
_symmetry_group_IT_number 141
_space_group.IT_coordinate_system_code '2'
_symmetry_cell_setting 'tetragonal'
loop_
_space_group_symop_operation_xyz
x,y,z
1/4-y,3/4+x,1/4+z
-x,1/2-y,z
1/4+y,1/4-x,3/4+z
x,-y,-z
-x,1/2+y,-z
1/4+y,3/4+x,1/4-z
1/4-y,1/4-x,3/4-z
-x,-y,-z
3/4+y,1/4-x,3/4-z
x,1/2+y,-z
3/4-y,3/4+x,1/4-z
-x,y,z
x,1/2-y,z
3/4-y,1/4-x,3/4+z
3/4+y,3/4+x,1/4+z
1/2+x,1/2+y,1/2+z
3/4-y,1/4+x,3/4+z
1/2-x,-y,1/2+z
3/4+y,3/4-x,1/4+z
1/2+x,1/2-y,1/2-z
1/2-x,y,1/2-z
3/4+y,1/4+x,3/4-z
3/4-y,3/4-x,1/4-z
1/2-x,1/2-y,1/2-z
1/4+y,3/4-x,1/4-z
1/2+x,y,1/2-z
1/4-y,1/4+x,3/4-z
1/2-x,1/2+y,1/2+z
1/2+x,-y,1/2+z
1/4-y,3/4-x,1/4+z
1/4+y,1/4+x,3/4+z
loop_
_atom_site_type_symbol
_atom_site_label
_atom_site_fract_x
_atom_site_fract_y
_atom_site_fract_z
Si Si1 0.844754 0.697879 0.034075
Si Si2 0.185565 0.405678 0.546222
Si Si3 0.616842 0.667614 0.122092
Si Si4 0.048443 0.298443 0.375000
Si Si5 0.377265 0.976519 0.182560
O O1 0.842672 0.750000 0.992742
O O2 0.859156 0.691470 0.224921
O O3 0.883151 0.670803 0.937266
O O4 0.799308 0.671529 0.990274
O O5 0.182461 0.432461 0.375000
O O6 0.154354 0.362207 0.534532
O O7 0.161509 0.438901 0.672514
O O8 0.235509 0.388576 0.558199
O O9 0.589939 0.698388 0.997702
O O10 0.050380 0.250000 0.288795
O O11 0.383296 0.000000 0.000000
#
# Coordination Sequence:
#
# PCOD9573012 Si02
#       5
#    32  32  32  16  32
#     4  10  21  37  58  85 116 153 194 237 293 354
#     4   9  17  35  60  79 112 150 188 230 283 344
#     4  10  20  37  59  80 115 156 188 236 296 352
#     4  11  22  36  58  88 114 146 200 250 290 352
#     4   9  19  35  61  83 115 151 192 240 286 347
#
# _framework density 19.779644999999999
#
# number of rings (size 3 to 8) (size 9 to 14) (size 15 to 20)
#    0.000    2.333    1.111    1.333    0.000    1.333 
#    0.000    3.333   73.333    5.333    0.000    0.000 
#    0.000    0.000    0.000    0.000    0.000    0.000 
#
# Total GULP energy -401388.585527 kJ/mol
# GULP energy per Si atom -5574.841466 kJ/mol
# Density = 1.973463 g / cm^3
# Si number density = 19.779645 Si / 1000 Ang^3
#
#
#
# Elastic Constant Matrix: (Units=GPa)
#
#
# Indices 1 2 3 4 5 6 
#
# 1 120.9870 72.9365 20.7071 0.0000 0.0000 0.0000
# 2 72.9365 120.9870 20.7071 0.0000 0.0000 0.0000
# 3 20.7071 20.7071 51.0588 0.0000 0.0000 0.0000
# 4 0.0000 0.0000 0.0000 11.8823 0.0000 0.0000
# 5 0.0000 0.0000 0.0000 0.0000 11.8823 0.0000
# 6 0.0000 0.0000 0.0000 0.0000 0.0000 27.1752
#
#
#
# Elastic Compliance Matrix: (Units=1/GPa)
#
#
# Indices 1 2 3 4 5 6 
#
# 1 0.013229 -0.007583 -0.002290 0.000000 0.000000 0.000000
# 2 -0.007583 0.013229 -0.002290 0.000000 0.000000 0.000000
# 3 -0.002290 -0.002290 0.021442 0.000000 0.000000 0.000000
# 4 0.000000 0.000000 0.000000 0.084159 0.000000 0.000000
# 5 0.000000 0.000000 0.000000 0.000000 0.084159 0.000000
# 6 0.000000 0.000000 0.000000 0.000000 0.000000 0.036798
#
#
# Mechanical properties :
#
#
# Convention : Reuss Voigt Hill
#
# Bulk Modulus (GPa) = 42.41743 57.97046 50.19395
# Shear Modulus (GPa) = 17.53167 22.10010 19.81588
#
# Velocity S-wave (km/s) = 2.98039 3.34625 3.16861
# Velocity P-wave (km/s) = 5.77366 6.65595 6.23044
#
# Compressibility (1/GPa) = 0.02357521
#
# Stress axis : x y z
#
# Youngs Moduli (GPa) = 75.59423 75.59423 46.63664
#
# Poissons Ratio (x) = 0.57322 0.10678
# Poissons Ratio (y) = 0.57322 0.10678
# Poissons Ratio (z) = 0.17308 0.17308
#
# Static dielectric constant tensor:
#      x y z
#    x 1.684410 0.000000 0.000000 
#    y 0.000000 1.684410 0.000000 
#    z 0.000000 0.000000 1.757820 
# 
# From -- ./inp_files/3193.got.cif
#   From: 2010.05.17/outbox.cif.g08.bks.cpg/sg141_2_cif.got.tgz:3193.got - 2010.05.20 13:30:51.
