data_PCOD9573129
_publ_section_title
;
Structure prediction by ZEFSAII (Michael W. Deem and Ramdas Pophale) SiO2 
 PCOD9573129
Probable space group: I 41/A M D
;
_chemical_formula_sum "Si O2"
_cell_formula_units_Z 176
_cell_length_a 18.418655
_cell_length_b 18.418655
_cell_length_c 22.308319
_cell_angle_alpha 90.000000
_cell_angle_beta 90.000000
_cell_angle_gamma 90.000000
_cell_volume 7568.026994
_symmetry_space_group_name_H-M "I 41/A M D"
_symmetry_group_IT_number 141
_space_group.IT_coordinate_system_code '2'
_symmetry_cell_setting 'tetragonal'
loop_
_space_group_symop_operation_xyz
x,y,z
1/4-y,3/4+x,1/4+z
-x,1/2-y,z
1/4+y,1/4-x,3/4+z
x,-y,-z
-x,1/2+y,-z
1/4+y,3/4+x,1/4-z
1/4-y,1/4-x,3/4-z
-x,-y,-z
3/4+y,1/4-x,3/4-z
x,1/2+y,-z
3/4-y,3/4+x,1/4-z
-x,y,z
x,1/2-y,z
3/4-y,1/4-x,3/4+z
3/4+y,3/4+x,1/4+z
1/2+x,1/2+y,1/2+z
3/4-y,1/4+x,3/4+z
1/2-x,-y,1/2+z
3/4+y,3/4-x,1/4+z
1/2+x,1/2-y,1/2-z
1/2-x,y,1/2-z
3/4+y,1/4+x,3/4-z
3/4-y,3/4-x,1/4-z
1/2-x,1/2-y,1/2-z
1/4+y,3/4-x,1/4-z
1/2+x,y,1/2-z
1/4-y,1/4+x,3/4-z
1/2-x,1/2+y,1/2+z
1/2+x,-y,1/2+z
1/4-y,3/4-x,1/4+z
1/4+y,1/4+x,3/4+z
loop_
_atom_site_type_symbol
_atom_site_label
_atom_site_fract_x
_atom_site_fract_y
_atom_site_fract_z
Si Si1 0.621305 0.071850 0.362599
Si Si2 0.227259 0.830522 0.000095
Si Si3 0.312560 0.382606 0.683275
Si Si4 0.583135 0.166866 0.125000
Si Si5 0.581684 0.007434 0.110775
Si Si6 0.000000 0.665810 0.911388
Si Si7 0.000000 0.662556 0.051205
O O1 0.587582 0.033668 0.304269
O O2 0.701289 0.103471 0.347467
O O3 0.571863 0.139375 0.378989
O O4 0.608297 0.019303 0.421264
O O5 0.190505 0.750000 0.005612
O O6 0.176672 0.900345 0.012926
O O7 0.259811 0.833274 0.933848
O O8 0.315828 0.434173 0.625000
O O9 0.368362 0.317751 0.673837
O O10 0.586859 0.250000 0.098916
O O11 0.588407 0.090751 0.088271
O O12 0.500000 0.981823 0.093815
O O13 0.000000 0.750000 0.911568
O O14 0.000000 0.644869 0.980848
O O15 0.000000 0.750000 0.059856
#
# Coordination Sequence:
#
# PCOD9573129 Si02
#       7
#    32  32  32  16  32  16  16
#     4  11  22  39  59  89 122 163 209 258 308 368
#     4  10  21  40  59  86 123 163 206 252 311 371
#     4  10  23  34  54  84 114 162 206 259 305 354
#     4   9  20  42  68  94 120 150 193 252 314 378
#     4  10  22  40  66  90 121 162 201 250 316 383
#     4  11  23  39  57  81 123 163 205 261 312 366
#     4  11  23  35  53  81 115 165 215 261 309 354
#
# _framework density 23.255731999999998
#
# number of rings (size 3 to 8) (size 9 to 14) (size 15 to 20)
#    0.000    1.727    0.909    2.727    8.909    6.545 
#    0.000    1.818    0.000    2.182    0.000    0.000 
#    0.000    0.000    0.000    0.000    0.000    0.000 
#
# Total GULP energy -490021.615060 kJ/mol
# GULP energy per Si atom -5568.427444 kJ/mol
# Density = 2.320280 g / cm^3
# Si number density = 23.255732 Si / 1000 Ang^3
#
#
#
# Elastic Constant Matrix: (Units=GPa)
#
#
# Indices 1 2 3 4 5 6 
#
# 1 63.3100 -12.6149 -9.7830 0.0000 0.0000 0.0000
# 2 -12.6149 63.3119 -9.7812 0.0000 0.0000 0.0000
# 3 -9.7830 -9.7812 34.6902 0.0000 0.0000 0.0000
# 4 0.0000 0.0000 0.0000 -45.4071 0.0000 0.0000
# 5 0.0000 0.0000 0.0000 0.0000 -45.3133 0.0000
# 6 0.0000 0.0000 0.0000 0.0000 0.0000 47.9085
#
#
#
# Elastic Compliance Matrix: (Units=1/GPa)
#
#
# Indices 1 2 3 4 5 6 
#
# 1 0.017653 0.004482 0.006242 0.000000 0.000000 0.000000
# 2 0.004482 0.017652 0.006241 0.000000 0.000000 0.000000
# 3 0.006242 0.006241 0.032347 0.000000 0.000000 0.000000
# 4 0.000000 0.000000 0.000000 -0.022023 0.000000 0.000000
# 5 0.000000 0.000000 0.000000 0.000000 -0.022069 0.000000
# 6 0.000000 0.000000 0.000000 0.000000 0.000000 0.020873
#
#
# Mechanical properties :
#
#
# Convention : Reuss Voigt Hill
#
# Bulk Modulus (GPa) = 9.84440 10.77266 10.30853
# Shear Modulus (GPa) = 112.70418 4.33704 58.52061
#
# Velocity S-wave (km/s) = 6.96909 1.36711 5.02181
# Velocity P-wave (km/s) = 8.30662 2.67101 6.16985
#
# Compressibility (1/GPa) = 0.10158056
#
# Stress axis : x y z
#
# Youngs Moduli (GPa) = 56.64814 56.65089 30.91518
#
# Poissons Ratio (x) = -0.25389 -0.19297
# Poissons Ratio (y) = -0.25388 -0.19294
# Poissons Ratio (z) = -0.35359 -0.35356
#
# Static dielectric constant tensor:
#      x y z
#    x 1.856500 0.000000 0.000000 
#    y 0.000000 1.856390 0.000000 
#    z 0.000000 0.000000 1.908820 
# 
# From -- ./inp_files/12960.got.cif
#   From: 2010.05.17/outbox.cif.g08.bks.cpg/sg141_7_cif.got.tgz:12960.got - 2010.05.20 13:30:51.
