data_PCOD9573204
_publ_section_title
;
Structure prediction by ZEFSAII (Michael W. Deem and Ramdas Pophale) SiO2 
 PCOD9573204
Probable space group: I 41/A M D
;
_chemical_formula_sum "Si O2"
_cell_formula_units_Z 100
_cell_length_a 14.676217
_cell_length_b 14.676217
_cell_length_c 23.971741
_cell_angle_alpha 90.000000
_cell_angle_beta 90.000000
_cell_angle_gamma 90.000000
_cell_volume 5163.305546
_symmetry_space_group_name_H-M "I 41/A M D"
_symmetry_group_IT_number 141
_space_group.IT_coordinate_system_code '2'
_symmetry_cell_setting 'tetragonal'
loop_
_space_group_symop_operation_xyz
x,y,z
1/4-y,3/4+x,1/4+z
-x,1/2-y,z
1/4+y,1/4-x,3/4+z
x,-y,-z
-x,1/2+y,-z
1/4+y,3/4+x,1/4-z
1/4-y,1/4-x,3/4-z
-x,-y,-z
3/4+y,1/4-x,3/4-z
x,1/2+y,-z
3/4-y,3/4+x,1/4-z
-x,y,z
x,1/2-y,z
3/4-y,1/4-x,3/4+z
3/4+y,3/4+x,1/4+z
1/2+x,1/2+y,1/2+z
3/4-y,1/4+x,3/4+z
1/2-x,-y,1/2+z
3/4+y,3/4-x,1/4+z
1/2+x,1/2-y,1/2-z
1/2-x,y,1/2-z
3/4+y,1/4+x,3/4-z
3/4-y,3/4-x,1/4-z
1/2-x,1/2-y,1/2-z
1/4+y,3/4-x,1/4-z
1/2+x,y,1/2-z
1/4-y,1/4+x,3/4-z
1/2-x,1/2+y,1/2+z
1/2+x,-y,1/2+z
1/4-y,3/4-x,1/4+z
1/4+y,1/4+x,3/4+z
loop_
_atom_site_type_symbol
_atom_site_label
_atom_site_fract_x
_atom_site_fract_y
_atom_site_fract_z
Si Si1 0.142061 0.250000 0.773424
Si Si2 0.707076 0.500000 0.000000
Si Si3 0.400129 0.858001 0.677711
Si Si4 0.000000 0.250000 0.875000
Si Si5 0.166162 0.852315 0.946658
O O1 0.250000 0.250000 0.750000
O O2 0.092735 0.250000 0.835346
O O3 0.103973 0.159569 0.744540
O O4 0.650033 0.568468 0.037828
O O5 0.766109 0.433772 0.039159
O O6 0.500000 0.896124 0.692438
O O7 0.401692 0.750000 0.687697
O O8 0.382453 0.871022 0.612159
O O9 0.206739 0.750000 0.943371
#
# Coordination Sequence:
#
# PCOD9573204 Si02
#       5
#    16  16  32   4  32
#     4  12  24  44  64  98 134 178 230 276 342 412
#     4  12  23  37  62 102 124 156 228 295 323 404
#     4  10  22  41  65  87 124 177 218 270 347 412
#     4  12  28  44  76 100 148 192 236 304 342 428
#     4  11  22  41  63  86 129 175 212 264 340 419
#
# _framework density 19.367436999999999
#
# number of rings (size 3 to 8) (size 9 to 14) (size 15 to 20)
#    0.000    0.960    4.800    2.400    0.000    2.560 
#    0.000    0.000    0.000    0.000    0.000   13.440 
#    0.000    0.000    0.000    0.000    0.000    0.000 
#
# Total GULP energy -278776.316182 kJ/mol
# GULP energy per Si atom -5575.526324 kJ/mol
# Density = 1.932336 g / cm^3
# Si number density = 19.367437 Si / 1000 Ang^3
#
#
#
# Elastic Constant Matrix: (Units=GPa)
#
#
# Indices 1 2 3 4 5 6 
#
# 1 120.9533 58.0282 57.2290 0.0000 0.0000 0.0000
# 2 58.0282 120.9533 57.2290 0.0000 0.0000 0.0000
# 3 57.2290 57.2290 101.6764 0.0000 0.0000 0.0000
# 4 0.0000 0.0000 0.0000 12.7702 0.0000 0.0000
# 5 0.0000 0.0000 0.0000 0.0000 12.7702 0.0000
# 6 0.0000 0.0000 0.0000 0.0000 0.0000 48.5524
#
#
#
# Elastic Compliance Matrix: (Units=1/GPa)
#
#
# Indices 1 2 3 4 5 6 
#
# 1 0.012311 -0.003581 -0.004913 0.000000 0.000000 0.000000
# 2 -0.003581 0.012311 -0.004913 0.000000 0.000000 0.000000
# 3 -0.004913 -0.004913 0.015366 0.000000 0.000000 0.000000
# 4 0.000000 0.000000 0.000000 0.078307 0.000000 0.000000
# 5 0.000000 0.000000 0.000000 0.000000 0.078307 0.000000
# 6 0.000000 0.000000 0.000000 0.000000 0.000000 0.020596
#
#
# Mechanical properties :
#
#
# Convention : Reuss Voigt Hill
#
# Bulk Modulus (GPa) = 75.92238 76.50618 76.21428
# Shear Modulus (GPa) = 20.12850 26.22502 23.17676
#
# Velocity S-wave (km/s) = 3.22731 3.68377 3.46307
# Velocity P-wave (km/s) = 7.29202 7.59485 7.44498
#
# Compressibility (1/GPa) = 0.01317135
#
# Stress axis : x y z
#
# Youngs Moduli (GPa) = 81.23120 81.23120 65.07866
#
# Poissons Ratio (x) = 0.29092 0.31975
# Poissons Ratio (y) = 0.29092 0.31975
# Poissons Ratio (z) = 0.39911 0.39911
#
# Static dielectric constant tensor:
#      x y z
#    x 1.709930 0.000000 0.000000 
#    y 0.000000 1.709930 0.000000 
#    z 0.000000 0.000000 1.664490 
# 
# From -- ./inp_files/11089.got.cif
#   From: 2010.05.17/outbox.cif.g08.bks.cpg/sg141_6_cif.got.tgz:11089.got - 2010.05.20 13:30:51.
