data_PCOD9573976
_publ_section_title
;
Structure prediction by ZEFSAII (Michael W. Deem and Ramdas Pophale) SiO2 
 PCOD9573976
Probable space group: I 41/A C D
;
_chemical_formula_sum "Si O2"
_cell_formula_units_Z 112
_cell_length_a 13.940651
_cell_length_b 13.940651
_cell_length_c 26.710926
_cell_angle_alpha 90.000000
_cell_angle_beta 90.000000
_cell_angle_gamma 90.000000
_cell_volume 5191.048111
_symmetry_space_group_name_H-M "I 41/A C D"
_symmetry_group_IT_number 142
_space_group.IT_coordinate_system_code '2'
_symmetry_cell_setting 'tetragonal'
loop_
_space_group_symop_operation_xyz
x,y,z
1/4-y,3/4+x,1/4+z
-x,1/2-y,z
1/4+y,1/4-x,3/4+z
x,-y,1/2-z
1/2-x,y,-z
3/4+y,1/4+x,1/4-z
1/4-y,1/4-x,1/4-z
-x,-y,-z
3/4+y,1/4-x,3/4-z
x,1/2+y,-z
3/4-y,3/4+x,1/4-z
-x,y,1/2+z
1/2+x,-y,z
1/4-y,3/4-x,3/4+z
3/4+y,3/4+x,3/4+z
1/2+x,1/2+y,1/2+z
3/4-y,1/4+x,3/4+z
1/2-x,-y,1/2+z
3/4+y,3/4-x,1/4+z
1/2+x,1/2-y,-z
-x,1/2+y,1/2-z
1/4+y,3/4+x,3/4-z
3/4-y,3/4-x,3/4-z
1/2-x,1/2-y,1/2-z
1/4+y,3/4-x,1/4-z
1/2+x,y,1/2-z
1/4-y,1/4+x,3/4-z
1/2-x,1/2+y,z
x,1/2-y,1/2+z
3/4-y,1/4-x,1/4+z
1/4+y,1/4+x,1/4+z
loop_
_atom_site_type_symbol
_atom_site_label
_atom_site_fract_x
_atom_site_fract_y
_atom_site_fract_z
Si Si1 0.111604 0.569741 0.960891
Si Si2 0.250000 0.724757 0.000000
Si Si3 0.126588 0.460685 0.325972
Si Si4 0.774751 0.836763 0.317985
O O1 0.154882 0.474841 0.934734
O O2 0.010298 0.585931 0.934565
O O3 0.185574 0.656786 0.964608
O O4 0.092601 0.540132 0.018531
O O5 0.188260 0.793844 0.036182
O O6 0.156306 0.571654 0.317575
O O7 0.092414 0.458247 0.383015
#
# Coordination Sequence:
#
# PCOD9573976 Si02
#       4
#    32  16  32  32
#     4  11  23  44  66  95 129 178 217 277 333 397
#     4  12  22  40  68  92 130 180 216 272 332 406
#     4  11  23  43  65 100 131 173 224 274 330 409
#     4  10  23  42  67  92 137 167 221 279 330 393
#
# _framework density 21.575603000000001
#
# number of rings (size 3 to 8) (size 9 to 14) (size 15 to 20)
#    0.000    1.143    5.714    0.000    4.000    2.286 
#    0.000    2.857    0.000    0.000    0.000    0.000 
#    0.000    0.000    0.000    0.000    0.000    0.000 
#
# Total GULP energy -312961.772840 kJ/mol
# GULP energy per Si atom -5588.603086 kJ/mol
# Density = 2.152650 g / cm^3
# Si number density = 21.575603 Si / 1000 Ang^3
#
#
#
# Elastic Constant Matrix: (Units=GPa)
#
#
# Indices 1 2 3 4 5 6 
#
# 1 63.3812 3.2247 -9.4314 0.0000 0.0000 0.0000
# 2 3.2247 63.3812 -9.4314 0.0000 0.0000 0.0000
# 3 -9.4314 -9.4314 112.2471 0.0000 0.0000 0.0000
# 4 0.0000 0.0000 0.0000 19.6166 0.0000 0.0000
# 5 0.0000 0.0000 0.0000 0.0000 19.6166 0.0000
# 6 0.0000 0.0000 0.0000 0.0000 0.0000 2.1905
#
#
#
# Elastic Compliance Matrix: (Units=1/GPa)
#
#
# Indices 1 2 3 4 5 6 
#
# 1 0.016001 -0.000622 0.001292 0.000000 0.000000 0.000000
# 2 -0.000622 0.016001 0.001292 0.000000 0.000000 0.000000
# 3 0.001292 0.001292 0.009126 0.000000 0.000000 0.000000
# 4 0.000000 0.000000 0.000000 0.050977 0.000000 0.000000
# 5 0.000000 0.000000 0.000000 0.000000 0.050977 0.000000
# 6 0.000000 0.000000 0.000000 0.000000 0.000000 0.456527
#
#
# Mechanical properties :
#
#
# Convention : Reuss Voigt Hill
#
# Bulk Modulus (GPa) = 22.19540 23.08149 22.63845
# Shear Modulus (GPa) = 8.18728 25.26125 16.72427
#
# Velocity S-wave (km/s) = 1.95011 3.42544 2.78717
# Velocity P-wave (km/s) = 3.92176 5.13479 4.56871
#
# Compressibility (1/GPa) = 0.04505438
#
# Stress axis : x y z
#
# Youngs Moduli (GPa) = 62.49422 62.49422 109.57615
#
# Poissons Ratio (x) = 0.03886 -0.14160
# Poissons Ratio (y) = 0.03886 -0.14160
# Poissons Ratio (z) = -0.08076 -0.08076
#
# Static dielectric constant tensor:
#      x y z
#    x 1.808230 0.000000 0.000000 
#    y 0.000000 1.808230 0.000000 
#    z 0.000000 0.000000 1.838200 
# 
# From -- ./inp_files/12218.got.cif
#   From: 2010.05.17/outbox.cif.g08.bks.cpg/sg142_7_cif.got.tgz:12218.got - 2010.05.20 13:39:18.
