data_PCOD9573684
_publ_section_title
;
Structure prediction by ZEFSAII (Michael W. Deem and Ramdas Pophale) SiO2 
 PCOD9573684
Probable space group: I 41/A C D
;
_chemical_formula_sum "Si O2"
_cell_formula_units_Z 176
_cell_length_a 17.044600
_cell_length_b 17.044600
_cell_length_c 29.182827
_cell_angle_alpha 90.000000
_cell_angle_beta 90.000000
_cell_angle_gamma 90.000000
_cell_volume 8478.147891
_symmetry_space_group_name_H-M "I 41/A C D"
_symmetry_group_IT_number 142
_space_group.IT_coordinate_system_code '2'
_symmetry_cell_setting 'tetragonal'
loop_
_space_group_symop_operation_xyz
x,y,z
1/4-y,3/4+x,1/4+z
-x,1/2-y,z
1/4+y,1/4-x,3/4+z
x,-y,1/2-z
1/2-x,y,-z
3/4+y,1/4+x,1/4-z
1/4-y,1/4-x,1/4-z
-x,-y,-z
3/4+y,1/4-x,3/4-z
x,1/2+y,-z
3/4-y,3/4+x,1/4-z
-x,y,1/2+z
1/2+x,-y,z
1/4-y,3/4-x,3/4+z
3/4+y,3/4+x,3/4+z
1/2+x,1/2+y,1/2+z
3/4-y,1/4+x,3/4+z
1/2-x,-y,1/2+z
3/4+y,3/4-x,1/4+z
1/2+x,1/2-y,-z
-x,1/2+y,1/2-z
1/4+y,3/4+x,3/4-z
3/4-y,3/4-x,3/4-z
1/2-x,1/2-y,1/2-z
1/4+y,3/4-x,1/4-z
1/2+x,y,1/2-z
1/4-y,1/4+x,3/4-z
1/2-x,1/2+y,z
x,1/2-y,1/2+z
3/4-y,1/4-x,1/4+z
1/4+y,1/4+x,1/4+z
loop_
_atom_site_type_symbol
_atom_site_label
_atom_site_fract_x
_atom_site_fract_y
_atom_site_fract_z
Si Si1 0.315842 0.295229 0.778844
Si Si2 0.549717 0.826920 0.448001
Si Si3 0.048125 0.993887 0.104431
Si Si4 0.529919 0.055795 0.206263
Si Si5 0.204180 0.067299 0.287734
Si Si6 0.216249 0.533752 0.875000
O O1 0.250000 0.250000 0.750000
O O2 0.394695 0.284141 0.750311
O O3 0.303143 0.260836 0.829280
O O4 0.280184 0.381605 0.777330
O O5 0.500000 0.750000 0.434420
O O6 0.540276 0.904614 0.415989
O O7 0.637593 0.793399 0.448876
O O8 0.037893 0.991631 0.158933
O O9 0.135879 0.025667 0.096547
O O10 0.614458 0.101342 0.212236
O O11 0.520021 0.000000 0.250000
O O12 0.200246 0.000000 0.250000
O O13 0.216263 0.035459 0.338733
#
# Coordination Sequence:
#
# PCOD9573684 Si02
#       6
#    32  32  32  32  32  16
#     4  10  21  40  62  89 124 171 217 263 332 400
#     4  11  24  38  64  97 130 164 218 279 333 396
#     4  10  23  40  67  91 127 179 218 268 336 412
#     4  10  23  39  61  95 130 162 210 273 330 387
#     4  10  20  39  64  90 124 165 210 265 322 397
#     4  10  22  38  64  96 124 168 218 270 322 396
#
# _framework density 20.759250999999999
#
# number of rings (size 3 to 8) (size 9 to 14) (size 15 to 20)
#    0.000    1.818    0.000    4.364    7.636    5.091 
#    0.000    0.000    0.000    1.091    0.000    0.000 
#    0.000    0.000    0.000    0.000    0.000    0.000 
#
# Total GULP energy -490656.101436 kJ/mol
# GULP energy per Si atom -5575.637516 kJ/mol
# Density = 2.071200 g / cm^3
# Si number density = 20.759251 Si / 1000 Ang^3
#
#
#
# Elastic Constant Matrix: (Units=GPa)
#
#
# Indices 1 2 3 4 5 6 
#
# 1 30.4789 12.2936 11.1243 0.0000 0.0000 0.0000
# 2 12.2936 30.4802 11.1248 0.0000 0.0000 0.0000
# 3 11.1243 11.1248 97.7380 0.0000 0.0000 0.0000
# 4 0.0000 0.0000 0.0000 33.1801 0.0000 0.0000
# 5 0.0000 0.0000 0.0000 0.0000 33.1800 0.0000
# 6 0.0000 0.0000 0.0000 0.0000 0.0000 -56.4655
#
#
#
# Elastic Compliance Matrix: (Units=1/GPa)
#
#
# Indices 1 2 3 4 5 6 
#
# 1 0.039920 -0.015068 -0.002828 0.000000 0.000000 0.000000
# 2 -0.015068 0.039918 -0.002829 0.000000 0.000000 0.000000
# 3 -0.002828 -0.002829 0.010875 0.000000 0.000000 0.000000
# 4 0.000000 0.000000 0.000000 0.030139 0.000000 0.000000
# 5 0.000000 0.000000 0.000000 0.000000 0.030139 0.000000
# 6 0.000000 0.000000 0.000000 0.000000 0.000000 -0.017710
#
#
# Mechanical properties :
#
#
# Convention : Reuss Voigt Hill
#
# Bulk Modulus (GPa) = 20.29952 25.30918 22.80435
# Shear Modulus (GPa) = 26.15719 10.25588 18.20653
#
# Velocity S-wave (km/s) = 3.55354 2.22511 2.96469
# Velocity P-wave (km/s) = 5.16106 4.33817 4.76740
#
# Compressibility (1/GPa) = 0.04926225
#
# Stress axis : x y z
#
# Youngs Moduli (GPa) = 25.05027 25.05131 91.95139
#
# Poissons Ratio (x) = 0.37748 0.26008
# Poissons Ratio (y) = 0.37747 0.26009
# Poissons Ratio (z) = 0.07085 0.07086
#
# Static dielectric constant tensor:
#      x y z
#    x 1.768940 0.000000 0.000000 
#    y 0.000000 1.768940 0.000000 
#    z 0.000000 0.000000 1.769670 
# 
# From -- ./inp_files/12550.got.cif
#   From: 2010.05.17/outbox.cif.g08.bks.cpg/sg142_7_cif.got.tgz:12550.got - 2010.05.20 13:39:18.
