data_PCOD9573960
_publ_section_title
;
Structure prediction by ZEFSAII (Michael W. Deem and Ramdas Pophale) SiO2 
 PCOD9573960
Probable space group: I 41/A C D
;
_chemical_formula_sum "Si O2"
_cell_formula_units_Z 128
_cell_length_a 21.775669
_cell_length_b 21.775669
_cell_length_c 12.616101
_cell_angle_alpha 90.000000
_cell_angle_beta 90.000000
_cell_angle_gamma 90.000000
_cell_volume 5982.299749
_symmetry_space_group_name_H-M "I 41/A C D"
_symmetry_group_IT_number 142
_space_group.IT_coordinate_system_code '2'
_symmetry_cell_setting 'tetragonal'
loop_
_space_group_symop_operation_xyz
x,y,z
1/4-y,3/4+x,1/4+z
-x,1/2-y,z
1/4+y,1/4-x,3/4+z
x,-y,1/2-z
1/2-x,y,-z
3/4+y,1/4+x,1/4-z
1/4-y,1/4-x,1/4-z
-x,-y,-z
3/4+y,1/4-x,3/4-z
x,1/2+y,-z
3/4-y,3/4+x,1/4-z
-x,y,1/2+z
1/2+x,-y,z
1/4-y,3/4-x,3/4+z
3/4+y,3/4+x,3/4+z
1/2+x,1/2+y,1/2+z
3/4-y,1/4+x,3/4+z
1/2-x,-y,1/2+z
3/4+y,3/4-x,1/4+z
1/2+x,1/2-y,-z
-x,1/2+y,1/2-z
1/4+y,3/4+x,3/4-z
3/4-y,3/4-x,3/4-z
1/2-x,1/2-y,1/2-z
1/4+y,3/4-x,1/4-z
1/2+x,y,1/2-z
1/4-y,1/4+x,3/4-z
1/2-x,1/2+y,z
x,1/2-y,1/2+z
3/4-y,1/4-x,1/4+z
1/4+y,1/4+x,1/4+z
loop_
_atom_site_type_symbol
_atom_site_label
_atom_site_fract_x
_atom_site_fract_y
_atom_site_fract_z
Si Si1 0.512337 0.333537 0.180223
Si Si2 0.727477 0.477477 0.875000
Si Si3 0.542221 0.972644 0.853547
Si Si4 0.777510 0.163428 0.672247
Si Si5 0.920191 0.329810 0.125000
O O1 0.465472 0.316357 0.084804
O O2 0.537415 0.400563 0.163792
O O3 0.473343 0.326596 0.287174
O O4 0.745903 0.500000 0.750000
O O5 0.738289 0.403510 0.871764
O O6 0.571947 0.000000 0.750000
O O7 0.472316 0.997337 0.866114
O O8 0.579982 0.991370 0.955968
O O9 0.851076 0.173056 0.670510
#
# Coordination Sequence:
#
# PCOD9573960 Si02
#       5
#    32  16  32  32  16
#     4  11  24  39  60  93 134 170 214 270 342 404
#     4  11  26  46  71 100 139 184 226 285 356 419
#     4  11  21  40  65  95 128 170 229 283 333 404
#     4  10  23  39  67  96 124 174 227 277 337 403
#     4  11  20  41  61  90 126 168 216 268 330 403
#
# _framework density 21.396453000000001
#
# number of rings (size 3 to 8) (size 9 to 14) (size 15 to 20)
#    0.000    1.250    5.000    0.750    3.500    3.000 
#    0.000    0.000    0.000    0.000    0.000    0.000 
#    0.000    0.000    0.000    0.000    0.000    0.000 
#
# Total GULP energy -356944.720529 kJ/mol
# GULP energy per Si atom -5577.261258 kJ/mol
# Density = 2.134775 g / cm^3
# Si number density = 21.396453 Si / 1000 Ang^3
#
#
#
# Elastic Constant Matrix: (Units=GPa)
#
#
# Indices 1 2 3 4 5 6 
#
# 1 34.3818 7.8255 5.8506 0.0000 0.0000 0.0000
# 2 7.8255 34.3820 5.8513 0.0000 0.0000 0.0000
# 3 5.8506 5.8513 154.0801 0.0000 0.0000 0.0000
# 4 0.0000 0.0000 0.0000 17.3136 0.0000 0.0000
# 5 0.0000 0.0000 0.0000 0.0000 17.3177 0.0000
# 6 0.0000 0.0000 0.0000 0.0000 0.0000 9.9033
#
#
#
# Elastic Compliance Matrix: (Units=1/GPa)
#
#
# Indices 1 2 3 4 5 6 
#
# 1 0.030800 -0.006856 -0.000909 0.000000 0.000000 0.000000
# 2 -0.006856 0.030800 -0.000909 0.000000 0.000000 0.000000
# 3 -0.000909 -0.000909 0.006559 0.000000 0.000000 0.000000
# 4 0.000000 0.000000 0.000000 0.057758 0.000000 0.000000
# 5 0.000000 0.000000 0.000000 0.000000 0.057744 0.000000
# 6 0.000000 0.000000 0.000000 0.000000 0.000000 0.100976
#
#
# Mechanical properties :
#
#
# Convention : Reuss Voigt Hill
#
# Bulk Modulus (GPa) = 19.68064 29.09985 24.39024
# Shear Modulus (GPa) = 15.67775 22.46137 19.06956
#
# Velocity S-wave (km/s) = 2.70983 3.24353 2.98862
# Velocity P-wave (km/s) = 4.35993 5.25901 4.83043
#
# Compressibility (1/GPa) = 0.05081137
#
# Stress axis : x y z
#
# Youngs Moduli (GPa) = 32.46733 32.46742 152.45797
#
# Poissons Ratio (x) = 0.22258 0.13861
# Poissons Ratio (y) = 0.22258 0.13864
# Poissons Ratio (z) = 0.02952 0.02952
#
# Static dielectric constant tensor:
#      x y z
#    x 1.612980 0.000000 0.000000 
#    y 0.000000 1.608470 0.000000 
#    z 0.000000 0.000000 1.885420 
# 
# From -- ./inp_files/3494.got.cif
#   From: 2010.05.17/outbox.cif.g08.bks.cpg/sg142_2_cif.got.tgz:3494.got - 2010.05.20 13:39:18.
