data_PCOD9573759
_publ_section_title
;
Structure prediction by ZEFSAII (Michael W. Deem and Ramdas Pophale) SiO2 
 PCOD9573759
Probable space group: I 41/A C D
;
_chemical_formula_sum "Si O2"
_cell_formula_units_Z 216
_cell_length_a 29.622416
_cell_length_b 29.622416
_cell_length_c 12.701904
_cell_angle_alpha 90.000000
_cell_angle_beta 90.000000
_cell_angle_gamma 90.000000
_cell_volume 11145.762363
_symmetry_space_group_name_H-M "I 41/A C D"
_symmetry_group_IT_number 142
_space_group.IT_coordinate_system_code '2'
_symmetry_cell_setting 'tetragonal'
loop_
_space_group_symop_operation_xyz
x,y,z
1/4-y,3/4+x,1/4+z
-x,1/2-y,z
1/4+y,1/4-x,3/4+z
x,-y,1/2-z
1/2-x,y,-z
3/4+y,1/4+x,1/4-z
1/4-y,1/4-x,1/4-z
-x,-y,-z
3/4+y,1/4-x,3/4-z
x,1/2+y,-z
3/4-y,3/4+x,1/4-z
-x,y,1/2+z
1/2+x,-y,z
1/4-y,3/4-x,3/4+z
3/4+y,3/4+x,3/4+z
1/2+x,1/2+y,1/2+z
3/4-y,1/4+x,3/4+z
1/2-x,-y,1/2+z
3/4+y,3/4-x,1/4+z
1/2+x,1/2-y,-z
-x,1/2+y,1/2-z
1/4+y,3/4+x,3/4-z
3/4-y,3/4-x,3/4-z
1/2-x,1/2-y,1/2-z
1/4+y,3/4-x,1/4-z
1/2+x,y,1/2-z
1/4-y,1/4+x,3/4-z
1/2-x,1/2+y,z
x,1/2-y,1/2+z
3/4-y,1/4-x,1/4+z
1/4+y,1/4+x,1/4+z
loop_
_atom_site_type_symbol
_atom_site_label
_atom_site_fract_x
_atom_site_fract_y
_atom_site_fract_z
Si Si1 0.841789 0.824939 0.693028
Si Si2 0.439220 0.544681 0.506289
Si Si3 0.000000 0.750000 0.625000
Si Si4 0.429580 0.692979 0.000797
Si Si5 0.762469 0.987532 0.375000
Si Si6 0.159822 0.229632 0.919323
Si Si7 0.029793 0.542692 0.876115
Si Si8 0.757792 0.881447 0.619842
O O1 0.894949 0.833099 0.697797
O O2 0.832015 0.780013 0.623864
O O3 0.828878 0.809724 0.811030
O O4 0.807138 0.863805 0.656885
O O5 0.445874 0.587206 0.430421
O O6 0.454899 0.503345 0.431446
O O7 0.477095 0.548464 0.596008
O O8 0.392502 0.529737 0.556578
O O9 0.963754 0.776077 0.696920
O O10 0.388010 0.726054 0.976118
O O11 0.436994 0.686994 0.125000
O O12 0.750000 0.003093 0.500000
O O13 0.749417 0.934816 0.376773
O O14 0.197285 0.215711 0.004362
O O15 0.750000 0.866079 0.500000
#
# Coordination Sequence:
#
# PCOD9573759 Si02
#       8
#    32  32   8  32  16  32  32  32
#     4  10  21  37  58  91 120 166 216 263 325 377
#     4   9  19  32  55  91 121 158 205 248 321 384
#     4  12  26  48  64  82 112 184 226 264 332 394
#     4  12  24  42  63  86 126 169 219 275 325 385
#     4  10  24  48  72  92 126 172 216 262 330 410
#     4  11  20  33  59  84 125 164 206 265 317 386
#     4   9  17  33  53  82 125 161 198 252 320 378
#     4  10  21  41  67  93 131 168 210 270 324 392
#
# _framework density 19.379562
#
# number of rings (size 3 to 8) (size 9 to 14) (size 15 to 20)
#    0.000    1.778    2.963    2.444    0.000    2.370 
#    1.333    2.963    0.000    0.000    0.000    0.000 
#    0.000    0.000    0.000    0.000    0.000    0.000 
#
# Total GULP energy -601544.984662 kJ/mol
# GULP energy per Si atom -5569.860969 kJ/mol
# Density = 1.933545 g / cm^3
# Si number density = 19.379562 Si / 1000 Ang^3
#
#
#
# Elastic Constant Matrix: (Units=GPa)
#
#
# Indices 1 2 3 4 5 6 
#
# 1 66.6896 24.3253 26.1130 0.0000 0.0000 0.0000
# 2 24.3253 66.6877 26.1128 0.0000 0.0000 0.0000
# 3 26.1130 26.1128 119.9287 0.0000 0.0000 0.0000
# 4 0.0000 0.0000 0.0000 23.7814 0.0000 0.0000
# 5 0.0000 0.0000 0.0000 0.0000 23.7815 0.0000
# 6 0.0000 0.0000 0.0000 0.0000 0.0000 26.8594
#
#
#
# Elastic Compliance Matrix: (Units=1/GPa)
#
#
# Indices 1 2 3 4 5 6 
#
# 1 0.018080 -0.005525 -0.002734 0.000000 0.000000 0.000000
# 2 -0.005525 0.018081 -0.002734 0.000000 0.000000 0.000000
# 3 -0.002734 -0.002734 0.009529 0.000000 0.000000 0.000000
# 4 0.000000 0.000000 0.000000 0.042050 0.000000 0.000000
# 5 0.000000 0.000000 0.000000 0.000000 0.042050 0.000000
# 6 0.000000 0.000000 0.000000 0.000000 0.000000 0.037231
#
#
# Mechanical properties :
#
#
# Convention : Reuss Voigt Hill
#
# Bulk Modulus (GPa) = 42.18455 45.15645 43.67050
# Shear Modulus (GPa) = 25.39269 26.66812 26.03040
#
# Velocity S-wave (km/s) = 3.62371 3.71360 3.66893
# Velocity P-wave (km/s) = 6.27082 6.46061 6.36642
#
# Compressibility (1/GPa) = 0.02370536
#
# Stress axis : x y z
#
# Youngs Moduli (GPa) = 55.30842 55.30673 104.94456
#
# Poissons Ratio (x) = 0.30555 0.28691
# Poissons Ratio (y) = 0.30556 0.28692
# Poissons Ratio (z) = 0.15121 0.15121
#
# Static dielectric constant tensor:
#      x y z
#    x 1.701970 0.000000 0.000000 
#    y 0.000000 1.701970 0.000000 
#    z 0.000000 0.000000 1.688410 
# 
# From -- ./inp_files/4238.got.cif
#   From: 2010.05.17/outbox.cif.g08.bks.cpg/sg142_3_cif.got.tgz:4238.got - 2010.05.20 13:39:18.
