data_PCOD9573651
_publ_section_title
;
Structure prediction by ZEFSAII (Michael W. Deem and Ramdas Pophale) SiO2 
 PCOD9573651
Probable space group: I 41/A C D
;
_chemical_formula_sum "Si O2"
_cell_formula_units_Z 240
_cell_length_a 27.347229
_cell_length_b 27.347229
_cell_length_c 17.300037
_cell_angle_alpha 90.000000
_cell_angle_beta 90.000000
_cell_angle_gamma 90.000000
_cell_volume 12938.194829
_symmetry_space_group_name_H-M "I 41/A C D"
_symmetry_group_IT_number 142
_space_group.IT_coordinate_system_code '2'
_symmetry_cell_setting 'tetragonal'
loop_
_space_group_symop_operation_xyz
x,y,z
1/4-y,3/4+x,1/4+z
-x,1/2-y,z
1/4+y,1/4-x,3/4+z
x,-y,1/2-z
1/2-x,y,-z
3/4+y,1/4+x,1/4-z
1/4-y,1/4-x,1/4-z
-x,-y,-z
3/4+y,1/4-x,3/4-z
x,1/2+y,-z
3/4-y,3/4+x,1/4-z
-x,y,1/2+z
1/2+x,-y,z
1/4-y,3/4-x,3/4+z
3/4+y,3/4+x,3/4+z
1/2+x,1/2+y,1/2+z
3/4-y,1/4+x,3/4+z
1/2-x,-y,1/2+z
3/4+y,3/4-x,1/4+z
1/2+x,1/2-y,-z
-x,1/2+y,1/2-z
1/4+y,3/4+x,3/4-z
3/4-y,3/4-x,3/4-z
1/2-x,1/2-y,1/2-z
1/4+y,3/4-x,1/4-z
1/2+x,y,1/2-z
1/4-y,1/4+x,3/4-z
1/2-x,1/2+y,z
x,1/2-y,1/2+z
3/4-y,1/4-x,1/4+z
1/4+y,1/4+x,1/4+z
loop_
_atom_site_type_symbol
_atom_site_label
_atom_site_fract_x
_atom_site_fract_y
_atom_site_fract_z
Si Si1 0.262267 0.698543 0.311595
Si Si2 0.698139 0.205860 0.953882
Si Si3 0.640714 0.386655 0.250292
Si Si4 0.304917 0.054917 0.375000
Si Si5 0.204581 0.596652 0.637904
Si Si6 0.304013 0.585132 0.039974
Si Si7 0.191559 0.191017 0.990343
Si Si8 0.950831 0.562526 0.059219
O O1 0.216356 0.714084 0.365821
O O2 0.282649 0.653133 0.357490
O O3 0.239016 0.683958 0.229432
O O4 0.302886 0.740775 0.304384
O O5 0.662535 0.159550 0.970289
O O6 0.750000 0.198965 0.000000
O O7 0.673179 0.256365 0.980620
O O8 0.681583 0.406653 0.308725
O O9 0.656615 0.408992 0.168257
O O10 0.645794 0.328447 0.238287
O O11 0.249327 0.065544 0.396659
O O12 0.195369 0.582341 0.725660
O O13 0.311890 0.561890 0.125000
O O14 0.250000 0.585793 0.000000
O O15 0.322569 0.641528 0.035253
O O16 0.182024 0.188127 0.899006
O O17 0.250000 0.194763 0.000000
#
# Coordination Sequence:
#
# PCOD9573651 Si02
#       8
#    32  32  32  16  32  32  32  32
#     4  11  22  36  58  84 111 160 201 252 310 365
#     4  11  18  36  59  83 114 156 201 254 317 373
#     4  12  21  37  55  90 118 154 197 253 316 372
#     4  12  24  34  56  82 122 156 201 234 298 369
#     4  12  24  38  57  78 120 161 202 246 294 379
#     4  11  28  42  58  82 120 170 217 254 303 372
#     4  10  20  38  59  79 112 157 208 256 304 362
#     4  11  21  35  57  86 118 149 203 263 307 365
#
# _framework density 18.549728999999999
#
# number of rings (size 3 to 8) (size 9 to 14) (size 15 to 20)
#    0.000    0.800    8.000    0.400    6.533    0.000 
#    0.000    0.000    0.000    0.000    0.000    0.933 
#    0.000    1.067    0.000    0.000    0.000    0.000 
#
# Total GULP energy -668464.587939 kJ/mol
# GULP energy per Si atom -5570.538233 kJ/mol
# Density = 1.850751 g / cm^3
# Si number density = 18.549729 Si / 1000 Ang^3
#
#
#
# Elastic Constant Matrix: (Units=GPa)
#
#
# Indices 1 2 3 4 5 6 
#
# 1 69.3351 47.5655 17.2162 0.0000 0.0000 0.0000
# 2 47.5655 69.3351 17.2162 0.0000 0.0000 0.0000
# 3 17.2162 17.2162 100.9770 0.0000 0.0000 0.0000
# 4 0.0000 0.0000 0.0000 0.2199 0.0000 0.0000
# 5 0.0000 0.0000 0.0000 0.0000 0.2199 0.0000
# 6 0.0000 0.0000 0.0000 0.0000 0.0000 7.9596
#
#
#
# Elastic Compliance Matrix: (Units=1/GPa)
#
#
# Indices 1 2 3 4 5 6 
#
# 1 0.027471 -0.018465 -0.001536 0.000000 0.000000 0.000000
# 2 -0.018465 0.027471 -0.001536 0.000000 0.000000 0.000000
# 3 -0.001536 -0.001536 0.010427 0.000000 0.000000 0.000000
# 4 0.000000 0.000000 0.000000 4.547972 0.000000 0.000000
# 5 0.000000 0.000000 0.000000 0.000000 4.547972 0.000000
# 6 0.000000 0.000000 0.000000 0.000000 0.000000 0.125634
#
#
# Mechanical properties :
#
#
# Convention : Reuss Voigt Hill
#
# Bulk Modulus (GPa) = 44.84773 44.84921 44.84847
# Shear Modulus (GPa) = 0.53548 12.18983 6.36265
#
# Velocity S-wave (km/s) = 0.53786 2.56626 1.85405
# Velocity P-wave (km/s) = 4.96138 5.74554 5.36780
#
# Compressibility (1/GPa) = 0.02229767
#
# Stress axis : x y z
#
# Youngs Moduli (GPa) = 36.40190 36.40190 95.90609
#
# Poissons Ratio (x) = 0.67214 0.14727
# Poissons Ratio (y) = 0.67214 0.14727
# Poissons Ratio (z) = 0.05590 0.05590
#
# Static dielectric constant tensor:
#      x y z
#    x 1.716920 0.000000 0.000000 
#    y 0.000000 1.716920 0.000000 
#    z 0.000000 0.000000 1.951120 
# 
# From -- ./inp_files/7809.got.cif
#   From: 2010.05.17/outbox.cif.g08.bks.cpg/sg142_4_cif.got.tgz:7809.got - 2010.05.20 13:39:18.
