data_PCOD9573570
_publ_section_title
;
Structure prediction by ZEFSAII (Michael W. Deem and Ramdas Pophale) SiO2 
 PCOD9573570
Probable space group: I 41/A C D
;
_chemical_formula_sum "Si O2"
_cell_formula_units_Z 160
_cell_length_a 26.335176
_cell_length_b 26.335176
_cell_length_c 12.348790
_cell_angle_alpha 90.000000
_cell_angle_beta 90.000000
_cell_angle_gamma 90.000000
_cell_volume 8564.398277
_symmetry_space_group_name_H-M "I 41/A C D"
_symmetry_group_IT_number 142
_space_group.IT_coordinate_system_code '2'
_symmetry_cell_setting 'tetragonal'
loop_
_space_group_symop_operation_xyz
x,y,z
1/4-y,3/4+x,1/4+z
-x,1/2-y,z
1/4+y,1/4-x,3/4+z
x,-y,1/2-z
1/2-x,y,-z
3/4+y,1/4+x,1/4-z
1/4-y,1/4-x,1/4-z
-x,-y,-z
3/4+y,1/4-x,3/4-z
x,1/2+y,-z
3/4-y,3/4+x,1/4-z
-x,y,1/2+z
1/2+x,-y,z
1/4-y,3/4-x,3/4+z
3/4+y,3/4+x,3/4+z
1/2+x,1/2+y,1/2+z
3/4-y,1/4+x,3/4+z
1/2-x,-y,1/2+z
3/4+y,3/4-x,1/4+z
1/2+x,1/2-y,-z
-x,1/2+y,1/2-z
1/4+y,3/4+x,3/4-z
3/4-y,3/4-x,3/4-z
1/2-x,1/2-y,1/2-z
1/4+y,3/4-x,1/4-z
1/2+x,y,1/2-z
1/4-y,1/4+x,3/4-z
1/2-x,1/2+y,z
x,1/2-y,1/2+z
3/4-y,1/4-x,1/4+z
1/4+y,1/4+x,1/4+z
loop_
_atom_site_type_symbol
_atom_site_label
_atom_site_fract_x
_atom_site_fract_y
_atom_site_fract_z
Si Si1 0.165267 0.669106 0.877303
Si Si2 0.822675 0.782968 0.423934
Si Si3 0.250000 0.897346 0.500000
Si Si4 0.863027 0.613027 0.875000
Si Si5 0.926441 0.032891 0.395808
Si Si6 0.685007 0.546307 0.316639
O O1 0.114689 0.635312 0.875000
O O2 0.158698 0.725798 0.921399
O O3 0.188360 0.676831 0.758053
O O4 0.206828 0.637691 0.945878
O O5 0.855434 0.826942 0.370907
O O6 0.815246 0.800915 0.547406
O O7 0.768554 0.791079 0.363236
O O8 0.278132 0.929487 0.405738
O O9 0.836240 0.587314 0.770103
O O10 0.866694 0.023398 0.369911
O O11 0.709409 0.500000 0.250000
#
# Coordination Sequence:
#
# PCOD9573570 Si02
#       6
#    32  32  16  16  32  32
#     4  12  25  43  61 100 132 165 221 280 328 390
#     4  10  21  39  69  89 123 176 218 272 321 392
#     4  12  26  40  64  92 140 184 204 266 346 384
#     4  10  20  40  65  92 120 172 226 266 322 401
#     4  10  19  42  64  91 125 167 224 257 320 398
#     4  11  22  42  61  91 135 176 221 261 316 408
#
# _framework density 18.681989000000002
#
# number of rings (size 3 to 8) (size 9 to 14) (size 15 to 20)
#    0.000    1.200    6.000    3.000    0.000    1.600 
#    5.400    0.500    0.000    0.000    0.000    0.000 
#    0.000    0.000    0.000    0.000    0.000    0.000 
#
# Total GULP energy -446967.093512 kJ/mol
# GULP energy per Si atom -5587.088669 kJ/mol
# Density = 1.863947 g / cm^3
# Si number density = 18.681989 Si / 1000 Ang^3
#
#
#
# Elastic Constant Matrix: (Units=GPa)
#
#
# Indices 1 2 3 4 5 6 
#
# 1 -132.6670 331.3229 50.7545 0.0000 0.0000 0.0000
# 2 331.3229 -132.5796 50.7983 0.0000 0.0000 0.0000
# 3 50.7545 50.7983 99.5398 0.0000 0.0000 0.0000
# 4 0.0000 0.0000 0.0000 1.0255 0.0000 0.0000
# 5 0.0000 0.0000 0.0000 0.0000 0.9467 0.0000
# 6 0.0000 0.0000 0.0000 0.0000 0.0000 13.6050
#
#
#
# Elastic Compliance Matrix: (Units=1/GPa)
#
#
# Indices 1 2 3 4 5 6 
#
# 1 0.002326 0.004481 -0.003473 0.000000 0.000000 0.000000
# 2 0.004481 0.002326 -0.003472 0.000000 0.000000 0.000000
# 3 -0.003473 -0.003472 0.013589 0.000000 0.000000 0.000000
# 4 0.000000 0.000000 0.000000 0.975141 0.000000 0.000000
# 5 0.000000 0.000000 0.000000 0.000000 1.056335 0.000000
# 6 0.000000 0.000000 0.000000 0.000000 0.000000 0.073502
#
#
# Mechanical properties :
#
#
# Convention : Reuss Voigt Hill
#
# Bulk Modulus (GPa) = 75.11051 77.78273 76.44662
# Shear Modulus (GPa) = 2.34457 -36.79005 -17.22274
#
# Velocity S-wave (km/s) = 1.12148 -4.44247 -3.03956
# Velocity P-wave (km/s) = 6.47835 3.92574 5.35633
#
# Compressibility (1/GPa) = 0.01331372
#
# Stress axis : x y z
#
# Youngs Moduli (GPa) = 429.97144 429.85570 73.58868
#
# Poissons Ratio (x) = -1.92639 0.25557
# Poissons Ratio (y) = -1.92690 0.25552
# Poissons Ratio (z) = 1.49325 1.49258
#
# Static dielectric constant tensor:
#      x y z
#    x 1.656940 0.000000 0.000000 
#    y 0.000000 1.656940 0.000000 
#    z 0.000000 0.000000 1.678880 
# 
# From -- ./inp_files/3889.got.cif
#   From: 2010.05.17/outbox.cif.g08.bks.cpg/sg142_2_cif.got.tgz:3889.got - 2010.05.20 13:39:18.
