data_PCOD9573388
_publ_section_title
;
Structure prediction by ZEFSAII (Michael W. Deem and Ramdas Pophale) SiO2 
 PCOD9573388
Probable space group: I 41/A M D
;
_chemical_formula_sum "Si O2"
_cell_formula_units_Z 80
_cell_length_a 21.000000
_cell_length_b 21.000000
_cell_length_c 18.000000
_cell_angle_alpha 90.000000
_cell_angle_beta 90.000000
_cell_angle_gamma 90.000000
_cell_volume 7938.000000
_symmetry_space_group_name_H-M "I 41/A M D"
_symmetry_group_IT_number 141
_space_group.IT_coordinate_system_code '2'
_symmetry_cell_setting 'tetragonal'
loop_
_space_group_symop_operation_xyz
x,y,z
1/4-y,3/4+x,1/4+z
-x,1/2-y,z
1/4+y,1/4-x,3/4+z
x,-y,-z
-x,1/2+y,-z
1/4+y,3/4+x,1/4-z
1/4-y,1/4-x,3/4-z
-x,-y,-z
3/4+y,1/4-x,3/4-z
x,1/2+y,-z
3/4-y,3/4+x,1/4-z
-x,y,z
x,1/2-y,z
3/4-y,1/4-x,3/4+z
3/4+y,3/4+x,1/4+z
1/2+x,1/2+y,1/2+z
3/4-y,1/4+x,3/4+z
1/2-x,-y,1/2+z
3/4+y,3/4-x,1/4+z
1/2+x,1/2-y,1/2-z
1/2-x,y,1/2-z
3/4+y,1/4+x,3/4-z
3/4-y,3/4-x,1/4-z
1/2-x,1/2-y,1/2-z
1/4+y,3/4-x,1/4-z
1/2+x,y,1/2-z
1/4-y,1/4+x,3/4-z
1/2-x,1/2+y,1/2+z
1/2+x,-y,1/2+z
1/4-y,3/4-x,1/4+z
1/4+y,1/4+x,3/4+z
loop_
_atom_site_type_symbol
_atom_site_label
_atom_site_fract_x
_atom_site_fract_y
_atom_site_fract_z
Si Si1 0.070087 0.470885 0.083460
Si Si2 0.429331 0.943642 0.835566
Si Si3 0.153955 0.180355 0.928142
Si Si4 0.623965 0.178538 0.243615
Si Si5 0.171154 0.362790 0.094445
O O1 0.070684 0.524016 0.147476
O O2 0.129988 0.426442 0.096126
O O3 0.000000 0.438353 0.087054
O O4 0.074225 0.500000 0.000000
O O5 0.500000 0.969685 0.819459
O O6 0.416998 0.884016 0.780160
O O7 0.429280 0.920235 0.921383
O O8 0.381373 0.002811 0.833352
O O9 0.118945 0.131056 0.875000
O O10 0.127378 0.250000 0.911561
O O11 0.149472 0.169132 0.016359
O O12 0.593413 0.250000 0.243394
O O13 0.655895 0.169659 0.325116
#
# Coordination Sequence:
#
# PCOD9573388 Si02
#       5
#    32  32  32  32  32
#     4  10  22  43  65  87 125 171 215 270 330 384
#     4  10  22  42  65  94 134 173 208 265 335 388
#     4  11  23  40  61  89 124 166 208 260 323 379
#     4  10  22  41  65  96 131 173 218 265 323 392
#     4  12  22  38  67  97 124 170 221 264 319 393
#
# _framework density 10.078105000000001
#
# number of rings (size 3 to 8) (size 9 to 14) (size 15 to 20)
#    0.000    1.400    2.000    3.600    0.000    4.600 
#    3.600    2.000    0.000    6.600    0.000    0.000 
#    0.000    0.000    0.000    0.000    0.000    0.000 
#
# Total GULP energy -445792.118074 kJ/mol
# GULP energy per Si atom -5572.401476 kJ/mol
# Density = 1.005517 g / cm^3
# Si number density = 10.078105 Si / 1000 Ang^3
#
#
#
# Elastic Constant Matrix: (Units=GPa)
#
#
# Indices 1 2 3 4 5 6 
#
# 1 95.5668 53.7085 23.6101 0.0000 0.0000 0.0000
# 2 53.7085 95.5704 23.6112 0.0000 0.0000 0.0000
# 3 23.6101 23.6112 141.5284 0.0000 0.0000 0.0000
# 4 0.0000 0.0000 0.0000 23.6810 0.0000 0.0000
# 5 0.0000 0.0000 0.0000 0.0000 23.6813 0.0000
# 6 0.0000 0.0000 0.0000 0.0000 0.0000 59.8502
#
#
#
# Elastic Compliance Matrix: (Units=1/GPa)
#
#
# Indices 1 2 3 4 5 6 
#
# 1 0.015481 -0.008408 -0.001180 0.000000 0.000000 0.000000
# 2 -0.008408 0.015480 -0.001180 0.000000 0.000000 0.000000
# 3 -0.001180 -0.001180 0.007459 0.000000 0.000000 0.000000
# 4 0.000000 0.000000 0.000000 0.042228 0.000000 0.000000
# 5 0.000000 0.000000 0.000000 0.000000 0.042227 0.000000
# 6 0.000000 0.000000 0.000000 0.000000 0.000000 0.016708
#
#
# Mechanical properties :
#
#
# Convention : Reuss Voigt Hill
#
# Bulk Modulus (GPa) = 59.22623 59.39170 59.30896
# Shear Modulus (GPa) = 29.98520 36.89152 33.43836
#
# Velocity S-wave (km/s) = 3.86118 4.28282 4.07745
# Velocity P-wave (km/s) = 7.02322 7.34754 7.18721
#
# Compressibility (1/GPa) = 0.01688441
#
# Stress axis : x y z
#
# Youngs Moduli (GPa) = 64.59565 64.59794 134.05952
#
# Poissons Ratio (x) = 0.54317 0.15816
# Poissons Ratio (y) = 0.54315 0.15817
# Poissons Ratio (z) = 0.07621 0.07622
#
# Static dielectric constant tensor:
#      x y z
#    x 1.736880 0.000000 0.000000 
#    y 0.000000 1.736880 0.000000 
#    z 0.000000 0.000000 1.706950 
# 
# From -- ./inp_files/8608.got.cif
#   From: 2010.05.17/outbox.ucp.g08.bks.cvg/sg141_5_cif.got.tgz:8608.got - 2010.06.11 11:43:24.
