data_PCOD9573624
_publ_section_title
;
Structure prediction by ZEFSAII (Michael W. Deem and Ramdas Pophale) SiO2 
 PCOD9573624
Probable space group: I 41/A C D
;
_chemical_formula_sum "Si O2"
_cell_formula_units_Z 112
_cell_length_a 17.889829
_cell_length_b 17.889829
_cell_length_c 16.028249
_cell_angle_alpha 90.000000
_cell_angle_beta 90.000000
_cell_angle_gamma 90.000000
_cell_volume 5129.776685
_symmetry_space_group_name_H-M "I 41/A C D"
_symmetry_group_IT_number 142
_space_group.IT_coordinate_system_code '2'
_symmetry_cell_setting 'tetragonal'
loop_
_space_group_symop_operation_xyz
x,y,z
1/4-y,3/4+x,1/4+z
-x,1/2-y,z
1/4+y,1/4-x,3/4+z
x,-y,1/2-z
1/2-x,y,-z
3/4+y,1/4+x,1/4-z
1/4-y,1/4-x,1/4-z
-x,-y,-z
3/4+y,1/4-x,3/4-z
x,1/2+y,-z
3/4-y,3/4+x,1/4-z
-x,y,1/2+z
1/2+x,-y,z
1/4-y,3/4-x,3/4+z
3/4+y,3/4+x,3/4+z
1/2+x,1/2+y,1/2+z
3/4-y,1/4+x,3/4+z
1/2-x,-y,1/2+z
3/4+y,3/4-x,1/4+z
1/2+x,1/2-y,-z
-x,1/2+y,1/2-z
1/4+y,3/4+x,3/4-z
3/4-y,3/4-x,3/4-z
1/2-x,1/2-y,1/2-z
1/4+y,3/4-x,1/4-z
1/2+x,y,1/2-z
1/4-y,1/4+x,3/4-z
1/2-x,1/2+y,z
x,1/2-y,1/2+z
3/4-y,1/4-x,1/4+z
1/4+y,1/4+x,1/4+z
loop_
_atom_site_type_symbol
_atom_site_label
_atom_site_fract_x
_atom_site_fract_y
_atom_site_fract_z
Si Si1 0.838644 0.854635 0.991291
Si Si2 0.221834 0.971834 0.375000
Si Si3 0.343983 0.797770 0.077171
Si Si4 0.186120 0.645523 0.609856
O O1 0.824555 0.934966 0.950298
O O2 0.866586 0.788110 0.933853
O O3 0.750000 0.830906 0.000000
O O4 0.891837 0.870244 0.070724
O O5 0.308970 0.959766 0.364091
O O6 0.403985 0.846016 0.125000
O O7 0.262820 0.807694 0.122297
O O8 0.338233 0.830444 0.982643
#
# Coordination Sequence:
#
# PCOD9573624 Si02
#       4
#    32  16  32  32
#     4  10  21  39  60  93 129 160 210 271 326 377
#     4  10  20  36  63  90 122 161 212 276 318 370
#     4  11  21  39  64  96 127 164 222 265 321 400
#     4  10  20  36  65  94 122 162 220 271 321 371
#
# _framework density 21.833307999999999
#
# number of rings (size 3 to 8) (size 9 to 14) (size 15 to 20)
#    0.000    1.714    4.286    1.714    8.000    0.000 
#    5.143    5.000    0.000    0.000    0.000    0.000 
#    0.000    0.000    0.000    0.000    0.000    0.000 
#
# Total GULP energy -311823.882339 kJ/mol
# GULP energy per Si atom -5568.283613 kJ/mol
# Density = 2.178361 g / cm^3
# Si number density = 21.833308 Si / 1000 Ang^3
#
#
#
# Elastic Constant Matrix: (Units=GPa)
#
#
# Indices 1 2 3 4 5 6 
#
# 1 92.0484 32.8432 37.8639 0.0000 0.0000 0.0000
# 2 32.8432 92.0475 37.8665 0.0000 0.0000 0.0000
# 3 37.8639 37.8665 57.7869 0.0000 0.0000 0.0000
# 4 0.0000 0.0000 0.0000 21.9241 0.0000 0.0000
# 5 0.0000 0.0000 0.0000 0.0000 21.9214 0.0000
# 6 0.0000 0.0000 0.0000 0.0000 0.0000 1.7851
#
#
#
# Elastic Compliance Matrix: (Units=1/GPa)
#
#
# Indices 1 2 3 4 5 6 
#
# 1 0.015088 -0.001802 -0.008705 0.000000 0.000000 0.000000
# 2 -0.001802 0.015089 -0.008706 0.000000 0.000000 0.000000
# 3 -0.008705 -0.008706 0.028714 0.000000 0.000000 0.000000
# 4 0.000000 0.000000 0.000000 0.045612 0.000000 0.000000
# 5 0.000000 0.000000 0.000000 0.000000 0.045618 0.000000
# 6 0.000000 0.000000 0.000000 0.000000 0.000000 0.560188
#
#
# Mechanical properties :
#
#
# Convention : Reuss Voigt Hill
#
# Bulk Modulus (GPa) = 48.86879 51.00333 49.93606
# Shear Modulus (GPa) = 6.61765 18.01341 12.31553
#
# Velocity S-wave (km/s) = 1.74286 2.87547 2.37759
# Velocity P-wave (km/s) = 5.14600 5.86818 5.51892
#
# Compressibility (1/GPa) = 0.02046296
#
# Stress axis : x y z
#
# Youngs Moduli (GPa) = 66.27930 66.27498 34.82661
#
# Poissons Ratio (x) = 0.11945 0.30316
# Poissons Ratio (y) = 0.11946 0.30321
# Poissons Ratio (z) = 0.57695 0.57701
#
# Static dielectric constant tensor:
#      x y z
#    x 1.804870 0.000000 0.000000 
#    y 0.000000 1.804870 0.000000 
#    z 0.000000 0.000000 1.996220 
# 
# From -- ./inp_files/6878.got.cif
#   From: 2010.05.17/outbox.cif.g08.bks.cpg/sg142_4_cif.got.tgz:6878.got - 2010.05.20 13:39:18.
