data_PCOD9573362
_publ_section_title
;
Structure prediction by ZEFSAII (Michael W. Deem and Ramdas Pophale) SiO2 
 PCOD9573362
Probable space group: I 41/A M D
;
_chemical_formula_sum "Si O2"
_cell_formula_units_Z 100
_cell_length_a 13.343614
_cell_length_b 13.343614
_cell_length_c 25.975059
_cell_angle_alpha 90.000000
_cell_angle_beta 90.000000
_cell_angle_gamma 90.000000
_cell_volume 4624.912103
_symmetry_space_group_name_H-M "I 41/A M D"
_symmetry_group_IT_number 141
_space_group.IT_coordinate_system_code '2'
_symmetry_cell_setting 'tetragonal'
loop_
_space_group_symop_operation_xyz
x,y,z
1/4-y,3/4+x,1/4+z
-x,1/2-y,z
1/4+y,1/4-x,3/4+z
x,-y,-z
-x,1/2+y,-z
1/4+y,3/4+x,1/4-z
1/4-y,1/4-x,3/4-z
-x,-y,-z
3/4+y,1/4-x,3/4-z
x,1/2+y,-z
3/4-y,3/4+x,1/4-z
-x,y,z
x,1/2-y,z
3/4-y,1/4-x,3/4+z
3/4+y,3/4+x,1/4+z
1/2+x,1/2+y,1/2+z
3/4-y,1/4+x,3/4+z
1/2-x,-y,1/2+z
3/4+y,3/4-x,1/4+z
1/2+x,1/2-y,1/2-z
1/2-x,y,1/2-z
3/4+y,1/4+x,3/4-z
3/4-y,3/4-x,1/4-z
1/2-x,1/2-y,1/2-z
1/4+y,3/4-x,1/4-z
1/2+x,y,1/2-z
1/4-y,1/4+x,3/4-z
1/2-x,1/2+y,1/2+z
1/2+x,-y,1/2+z
1/4-y,3/4-x,1/4+z
1/4+y,1/4+x,3/4+z
loop_
_atom_site_type_symbol
_atom_site_label
_atom_site_fract_x
_atom_site_fract_y
_atom_site_fract_z
Si Si1 0.610423 0.750000 0.645051
Si Si2 0.111311 0.866160 0.063305
Si Si3 0.155903 0.072777 0.224062
Si Si4 0.207196 0.250000 0.436296
Si Si5 0.500000 0.250000 0.125000
O O1 0.500000 0.750000 0.619997
O O2 0.616180 0.650516 0.681417
O O3 0.700376 0.750000 0.603602
O O4 0.110794 0.860794 0.125000
O O5 0.122312 0.750000 0.045091
O O6 0.212082 0.925231 0.049237
O O7 0.000000 0.902329 0.046884
O O8 0.250000 0.124407 0.250000
O O9 0.090457 0.046556 0.273747
O O10 0.102191 0.250000 0.406825
#
# Coordination Sequence:
#
# PCOD9573362 Si02
#       5
#    16  32  32  16   4
#     4  12  26  48  70 102 152 192 243 313 360 436
#     4   9  19  38  63  90 131 181 225 284 357 423
#     4  12  25  44  69 102 143 185 244 295 365 436
#     4  12  26  45  74 106 135 199 234 306 374 435
#     4  12  24  48  72 100 144 168 264 288 372 428
#
# _framework density 21.622031
#
# number of rings (size 3 to 8) (size 9 to 14) (size 15 to 20)
#    0.000    0.960    3.200    4.320    4.480    1.920 
#    0.000    0.000    0.000    0.000    0.000    0.000 
#    0.000    0.000    0.000    0.000    0.000    0.000 
#
# Total GULP energy -278712.116126 kJ/mol
# GULP energy per Si atom -5574.242323 kJ/mol
# Density = 2.157282 g / cm^3
# Si number density = 21.622031 Si / 1000 Ang^3
#
#
#
# Elastic Constant Matrix: (Units=GPa)
#
#
# Indices 1 2 3 4 5 6 
#
# 1 134.3309 12.8493 53.1641 0.0000 0.0000 0.0000
# 2 12.8493 134.3309 53.1641 0.0000 0.0000 0.0000
# 3 53.1641 53.1641 112.0211 0.0000 0.0000 0.0000
# 4 0.0000 0.0000 0.0000 74.7859 0.0000 0.0000
# 5 0.0000 0.0000 0.0000 0.0000 74.7859 0.0000
# 6 0.0000 0.0000 0.0000 0.0000 0.0000 42.4019
#
#
#
# Elastic Compliance Matrix: (Units=1/GPa)
#
#
# Indices 1 2 3 4 5 6 
#
# 1 0.009286 0.001054 -0.004907 0.000000 0.000000 0.000000
# 2 0.001054 0.009286 -0.004907 0.000000 0.000000 0.000000
# 3 -0.004907 -0.004907 0.013584 0.000000 0.000000 0.000000
# 4 0.000000 0.000000 0.000000 0.013372 0.000000 0.000000
# 5 0.000000 0.000000 0.000000 0.000000 0.013372 0.000000
# 6 0.000000 0.000000 0.000000 0.000000 0.000000 0.023584
#
#
# Mechanical properties :
#
#
# Convention : Reuss Voigt Hill
#
# Bulk Modulus (GPa) = 68.32768 68.78200 68.55484
# Shear Modulus (GPa) = 47.67308 55.82843 51.75076
#
# Velocity S-wave (km/s) = 4.70066 5.08687 4.89757
# Velocity P-wave (km/s) = 7.81865 8.14750 7.98477
#
# Compressibility (1/GPa) = 0.01463536
#
# Stress axis : x y z
#
# Youngs Moduli (GPa) = 107.69448 107.69448 73.61343
#
# Poissons Ratio (x) = -0.11349 0.36122
# Poissons Ratio (y) = -0.11349 0.36122
# Poissons Ratio (z) = 0.52845 0.52845
#
# Static dielectric constant tensor:
#      x y z
#    x 1.652630 0.000000 0.000000 
#    y 0.000000 1.652630 0.000000 
#    z 0.000000 0.000000 1.872950 
# 
# From -- ./inp_files/12423.got.cif
#   From: 2010.05.17/outbox.cif.g08.bks.cpg/sg141_7_cif.got.tgz:12423.got - 2010.05.20 13:30:51.
