data_PCOD9573131
_publ_section_title
;
Structure prediction by ZEFSAII (Michael W. Deem and Ramdas Pophale) SiO2 
 PCOD9573131
Probable space group: I 41/A M D
;
_chemical_formula_sum "Si O2"
_cell_formula_units_Z 128
_cell_length_a 22.766832
_cell_length_b 22.766832
_cell_length_c 11.275756
_cell_angle_alpha 90.000000
_cell_angle_beta 90.000000
_cell_angle_gamma 90.000000
_cell_volume 5844.547265
_symmetry_space_group_name_H-M "I 41/A M D"
_symmetry_group_IT_number 141
_space_group.IT_coordinate_system_code '2'
_symmetry_cell_setting 'tetragonal'
loop_
_space_group_symop_operation_xyz
x,y,z
1/4-y,3/4+x,1/4+z
-x,1/2-y,z
1/4+y,1/4-x,3/4+z
x,-y,-z
-x,1/2+y,-z
1/4+y,3/4+x,1/4-z
1/4-y,1/4-x,3/4-z
-x,-y,-z
3/4+y,1/4-x,3/4-z
x,1/2+y,-z
3/4-y,3/4+x,1/4-z
-x,y,z
x,1/2-y,z
3/4-y,1/4-x,3/4+z
3/4+y,3/4+x,1/4+z
1/2+x,1/2+y,1/2+z
3/4-y,1/4+x,3/4+z
1/2-x,-y,1/2+z
3/4+y,3/4-x,1/4+z
1/2+x,1/2-y,1/2-z
1/2-x,y,1/2-z
3/4+y,1/4+x,3/4-z
3/4-y,3/4-x,1/4-z
1/2-x,1/2-y,1/2-z
1/4+y,3/4-x,1/4-z
1/2+x,y,1/2-z
1/4-y,1/4+x,3/4-z
1/2-x,1/2+y,1/2+z
1/2+x,-y,1/2+z
1/4-y,3/4-x,1/4+z
1/4+y,1/4+x,3/4+z
loop_
_atom_site_type_symbol
_atom_site_label
_atom_site_fract_x
_atom_site_fract_y
_atom_site_fract_z
Si Si1 0.247259 0.641259 0.508799
Si Si2 0.682941 0.932941 0.375000
Si Si3 0.126870 0.681456 0.878182
Si Si4 0.824745 0.815745 0.280448
Si Si5 0.872358 0.877643 0.625000
O O1 0.264000 0.575632 0.463465
O O2 0.308141 0.665475 0.566203
O O3 0.214389 0.676040 0.400229
O O4 0.195749 0.634909 0.601469
O O5 0.621076 0.937455 0.444900
O O6 0.119313 0.750000 0.890453
O O7 0.077913 0.642793 0.943601
O O8 0.117432 0.660499 0.742682
O O9 0.816125 0.750000 0.233442
#
# Coordination Sequence:
#
# PCOD9573131 Si02
#       5
#    32  16  32  32  16
#     4  10  21  40  61  84 116 156 200 242 292 356
#     4  10  22  38  59  89 118 152 194 242 300 355
#     4  10  22  40  61  86 117 155 198 244 296 355
#     4  10  22  40  61  86 117 155 198 244 296 355
#     4  10  22  38  59  89 118 152 194 242 300 355
#
# _framework density 21.900753999999999
#
# number of rings (size 3 to 8) (size 9 to 14) (size 15 to 20)
#    0.000    2.000    0.000    2.250    0.000   12.500 
#    0.000   36.250    0.000    0.000    0.000    0.000 
#    0.000    0.000    0.000    0.000    0.000    0.000 
#
# Total GULP energy -356516.993806 kJ/mol
# GULP energy per Si atom -5570.578028 kJ/mol
# Density = 2.185091 g / cm^3
# Si number density = 21.900754 Si / 1000 Ang^3
#
#
#
# Elastic Constant Matrix: (Units=GPa)
#
#
# Indices 1 2 3 4 5 6 
#
# 1 87.5165 40.7796 3.4670 0.0000 0.0000 0.0000
# 2 40.7796 87.5173 3.4639 0.0000 0.0000 0.0000
# 3 3.4670 3.4639 49.9637 0.0000 0.0000 0.0000
# 4 0.0000 0.0000 0.0000 13.1374 0.0000 0.0000
# 5 0.0000 0.0000 0.0000 0.0000 13.1361 0.0000
# 6 0.0000 0.0000 0.0000 0.0000 0.0000 9.0456
#
#
#
# Elastic Compliance Matrix: (Units=1/GPa)
#
#
# Indices 1 2 3 4 5 6 
#
# 1 0.014610 -0.006786 -0.000543 0.000000 0.000000 0.000000
# 2 -0.006786 0.014610 -0.000542 0.000000 0.000000 0.000000
# 3 -0.000543 -0.000542 0.020090 0.000000 0.000000 0.000000
# 4 0.000000 0.000000 0.000000 0.076119 0.000000 0.000000
# 5 0.000000 0.000000 0.000000 0.000000 0.076126 0.000000
# 6 0.000000 0.000000 0.000000 0.000000 0.000000 0.110551
#
#
# Mechanical properties :
#
#
# Convention : Reuss Voigt Hill
#
# Bulk Modulus (GPa) = 29.79142 35.60206 32.69674
# Shear Modulus (GPa) = 14.74763 18.88295 16.81529
#
# Velocity S-wave (km/s) = 2.59778 2.93952 2.77392
# Velocity P-wave (km/s) = 4.75714 5.27375 5.02209
#
# Compressibility (1/GPa) = 0.03356671
#
# Stress axis : x y z
#
# Youngs Moduli (GPa) = 68.44598 68.44693 49.77651
#
# Poissons Ratio (x) = 0.46449 0.02704
# Poissons Ratio (y) = 0.46449 0.02698
# Poissons Ratio (z) = 0.03719 0.03710
#
# Static dielectric constant tensor:
#      x y z
#    x 1.793040 0.000000 0.000000 
#    y 0.000000 1.793030 0.000000 
#    z 0.000000 0.000000 2.141370 
# 
# From -- ./inp_files/4621.got.cif
#   From: 2010.05.17/outbox.cif.g08.bks.cpg/sg141_3_cif.got.tgz:4621.got - 2010.05.20 13:30:51.
