data_PCOD9573152
_publ_section_title
;
Structure prediction by ZEFSAII (Michael W. Deem and Ramdas Pophale) SiO2 
 PCOD9573152
Probable space group: I 41/A M D
;
_chemical_formula_sum "Si O2"
_cell_formula_units_Z 160
_cell_length_a 18.327418
_cell_length_b 18.327418
_cell_length_c 25.132264
_cell_angle_alpha 90.000000
_cell_angle_beta 90.000000
_cell_angle_gamma 90.000000
_cell_volume 8441.782981
_symmetry_space_group_name_H-M "I 41/A M D"
_symmetry_group_IT_number 141
_space_group.IT_coordinate_system_code '2'
_symmetry_cell_setting 'tetragonal'
loop_
_space_group_symop_operation_xyz
x,y,z
1/4-y,3/4+x,1/4+z
-x,1/2-y,z
1/4+y,1/4-x,3/4+z
x,-y,-z
-x,1/2+y,-z
1/4+y,3/4+x,1/4-z
1/4-y,1/4-x,3/4-z
-x,-y,-z
3/4+y,1/4-x,3/4-z
x,1/2+y,-z
3/4-y,3/4+x,1/4-z
-x,y,z
x,1/2-y,z
3/4-y,1/4-x,3/4+z
3/4+y,3/4+x,1/4+z
1/2+x,1/2+y,1/2+z
3/4-y,1/4+x,3/4+z
1/2-x,-y,1/2+z
3/4+y,3/4-x,1/4+z
1/2+x,1/2-y,1/2-z
1/2-x,y,1/2-z
3/4+y,1/4+x,3/4-z
3/4-y,3/4-x,1/4-z
1/2-x,1/2-y,1/2-z
1/4+y,3/4-x,1/4-z
1/2+x,y,1/2-z
1/4-y,1/4+x,3/4-z
1/2-x,1/2+y,1/2+z
1/2+x,-y,1/2+z
1/4-y,3/4-x,1/4+z
1/4+y,1/4+x,3/4+z
loop_
_atom_site_type_symbol
_atom_site_label
_atom_site_fract_x
_atom_site_fract_y
_atom_site_fract_z
Si Si1 0.086938 0.333523 0.813074
Si Si2 0.328726 0.921875 0.228039
Si Si3 0.162588 0.564887 0.563230
Si Si4 0.083305 0.165183 0.643797
Si Si5 0.585311 0.587814 0.037888
O O1 0.113982 0.250000 0.801562
O O2 0.100884 0.350884 0.875000
O O3 0.118093 0.395775 0.775144
O O4 0.000000 0.330824 0.806494
O O5 0.250000 0.899949 0.250000
O O6 0.357622 0.878484 0.177080
O O7 0.324136 0.006194 0.210621
O O8 0.162459 0.587542 0.625000
O O9 0.110764 0.606895 0.521507
O O10 0.133469 0.481430 0.557595
O O11 0.087772 0.250000 0.656529
O O12 0.094356 0.150495 0.581413
O O13 0.000000 0.140300 0.656760
O O14 0.500000 0.567141 0.037865
#
# Coordination Sequence:
#
# PCOD9573152 Si02
#       5
#    32  32  32  32  32
#     4   9  20  40  61  83 119 166 209 249 294 347
#     4  12  23  35  59  87 127 160 199 247 304 350
#     4  11  21  38  60  90 123 154 193 252 313 368
#     4  10  22  41  63  88 122 164 208 250 297 361
#     4  10  21  42  67  88 116 163 205 250 314 379
#
# _framework density 18.953341999999999
#
# number of rings (size 3 to 8) (size 9 to 14) (size 15 to 20)
#    0.000    1.600    4.000    3.000    0.000    5.600 
#    0.000    6.000    0.000    0.000    0.000    0.000 
#    0.000    0.000    0.000    0.000    0.000    0.000 
#
# Total GULP energy -446088.540486 kJ/mol
# GULP energy per Si atom -5576.106756 kJ/mol
# Density = 1.891020 g / cm^3
# Si number density = 18.953342 Si / 1000 Ang^3
#
#
#
# Elastic Constant Matrix: (Units=GPa)
#
#
# Indices 1 2 3 4 5 6 
#
# 1 66.5990 35.9289 51.8994 0.0000 0.0000 0.0000
# 2 35.9289 66.5987 51.8992 0.0000 0.0000 0.0000
# 3 51.8994 51.8992 140.1449 0.0000 0.0000 0.0000
# 4 0.0000 0.0000 0.0000 22.3490 0.0000 0.0000
# 5 0.0000 0.0000 0.0000 0.0000 22.3483 0.0000
# 6 0.0000 0.0000 0.0000 0.0000 0.0000 19.6600
#
#
#
# Elastic Compliance Matrix: (Units=1/GPa)
#
#
# Indices 1 2 3 4 5 6 
#
# 1 0.024104 -0.008501 -0.005778 0.000000 0.000000 0.000000
# 2 -0.008501 0.024104 -0.005778 0.000000 0.000000 0.000000
# 3 -0.005778 -0.005778 0.011415 0.000000 0.000000 0.000000
# 4 0.000000 0.000000 0.000000 0.044745 0.000000 0.000000
# 5 0.000000 0.000000 0.000000 0.000000 0.044746 0.000000
# 6 0.000000 0.000000 0.000000 0.000000 0.000000 0.050865
#
#
# Mechanical properties :
#
#
# Convention : Reuss Voigt Hill
#
# Bulk Modulus (GPa) = 51.25927 61.42194 56.34061
# Shear Modulus (GPa) = 20.27596 21.77914 21.02755
#
# Velocity S-wave (km/s) = 3.27430 3.39350 3.33444
# Velocity P-wave (km/s) = 6.43416 6.91605 6.67945
#
# Compressibility (1/GPa) = 0.01950867
#
# Stress axis : x y z
#
# Youngs Moduli (GPa) = 41.48642 41.48632 87.60242
#
# Poissons Ratio (x) = 0.35267 0.50620
# Poissons Ratio (y) = 0.35267 0.50620
# Poissons Ratio (z) = 0.23972 0.23972
#
# Static dielectric constant tensor:
#      x y z
#    x 1.646760 0.000000 0.000000 
#    y 0.000000 1.646760 0.000000 
#    z 0.000000 0.000000 1.693210 
# 
# From -- ./inp_files/12751.got.cif
#   From: 2010.05.17/outbox.cif.g08.bks.cpg/sg141_7_cif.got.tgz:12751.got - 2010.05.20 13:30:51.
