data_PCOD9573270
_publ_section_title
;
Structure prediction by ZEFSAII (Michael W. Deem and Ramdas Pophale) SiO2 
 PCOD9573270
Probable space group: I 41/A M D
;
_chemical_formula_sum "Si O2"
_cell_formula_units_Z 160
_cell_length_a 18.764107
_cell_length_b 18.764107
_cell_length_c 24.646883
_cell_angle_alpha 90.000000
_cell_angle_beta 90.000000
_cell_angle_gamma 90.000000
_cell_volume 8677.963219
_symmetry_space_group_name_H-M "I 41/A M D"
_symmetry_group_IT_number 141
_space_group.IT_coordinate_system_code '2'
_symmetry_cell_setting 'tetragonal'
loop_
_space_group_symop_operation_xyz
x,y,z
1/4-y,3/4+x,1/4+z
-x,1/2-y,z
1/4+y,1/4-x,3/4+z
x,-y,-z
-x,1/2+y,-z
1/4+y,3/4+x,1/4-z
1/4-y,1/4-x,3/4-z
-x,-y,-z
3/4+y,1/4-x,3/4-z
x,1/2+y,-z
3/4-y,3/4+x,1/4-z
-x,y,z
x,1/2-y,z
3/4-y,1/4-x,3/4+z
3/4+y,3/4+x,1/4+z
1/2+x,1/2+y,1/2+z
3/4-y,1/4+x,3/4+z
1/2-x,-y,1/2+z
3/4+y,3/4-x,1/4+z
1/2+x,1/2-y,1/2-z
1/2-x,y,1/2-z
3/4+y,1/4+x,3/4-z
3/4-y,3/4-x,1/4-z
1/2-x,1/2-y,1/2-z
1/4+y,3/4-x,1/4-z
1/2+x,y,1/2-z
1/4-y,1/4+x,3/4-z
1/2-x,1/2+y,1/2+z
1/2+x,-y,1/2+z
1/4-y,3/4-x,1/4+z
1/4+y,1/4+x,3/4+z
loop_
_atom_site_type_symbol
_atom_site_label
_atom_site_fract_x
_atom_site_fract_y
_atom_site_fract_z
Si Si1 0.415880 0.563352 0.842056
Si Si2 0.155002 0.168347 0.139121
Si Si3 0.811819 0.078325 0.518309
Si Si4 0.662022 0.165738 0.795018
Si Si5 0.346766 0.934027 0.434971
O O1 0.500000 0.578162 0.837155
O O2 0.374068 0.624068 0.875000
O O3 0.407567 0.487736 0.872568
O O4 0.378408 0.555050 0.783807
O O5 0.144418 0.250000 0.154559
O O6 0.139082 0.115775 0.188374
O O7 0.108596 0.147882 0.086861
O O8 0.735496 0.066432 0.546653
O O9 0.837777 0.000000 0.500000
O O10 0.673598 0.250000 0.796034
O O11 0.734849 0.125994 0.813975
O O12 0.646848 0.140148 0.733638
O O13 0.349253 0.900748 0.375000
#
# Coordination Sequence:
#
# PCOD9573270 Si02
#       5
#    32  32  32  32  32
#     4  11  24  42  64  93 128 167 212 264 321 376
#     4  11  24  41  63  93 128 170 211 255 315 379
#     4  12  21  37  68  93 123 161 215 266 313 371
#     4  11  23  40  62  94 129 164 205 260 321 378
#     4  11  20  36  64  95 122 159 208 266 314 363
#
# _framework density 18.437505999999999
#
# number of rings (size 3 to 8) (size 9 to 14) (size 15 to 20)
#    0.000    0.800    8.000    1.200    0.000    2.600 
#    0.000    2.000    0.000    0.000    0.000    0.000 
#    0.000    0.000    0.000    0.000    0.000    0.000 
#
# Total GULP energy -447017.533062 kJ/mol
# GULP energy per Si atom -5587.719163 kJ/mol
# Density = 1.839554 g / cm^3
# Si number density = 18.437506 Si / 1000 Ang^3
#
#
#
# Elastic Constant Matrix: (Units=GPa)
#
#
# Indices 1 2 3 4 5 6 
#
# 1 80.9798 22.5759 28.4448 0.0000 0.0000 0.0000
# 2 22.5759 80.9801 28.4456 0.0000 0.0000 0.0000
# 3 28.4448 28.4456 85.0459 0.0000 0.0000 0.0000
# 4 0.0000 0.0000 0.0000 23.4134 0.0000 0.0000
# 5 0.0000 0.0000 0.0000 0.0000 23.4133 0.0000
# 6 0.0000 0.0000 0.0000 0.0000 0.0000 5.4266
#
#
#
# Elastic Compliance Matrix: (Units=1/GPa)
#
#
# Indices 1 2 3 4 5 6 
#
# 1 0.014476 -0.002646 -0.003957 0.000000 0.000000 0.000000
# 2 -0.002646 0.014476 -0.003957 0.000000 0.000000 0.000000
# 3 -0.003957 -0.003957 0.014405 0.000000 0.000000 0.000000
# 4 0.000000 0.000000 0.000000 0.042711 0.000000 0.000000
# 5 0.000000 0.000000 0.000000 0.000000 0.042711 0.000000
# 6 0.000000 0.000000 0.000000 0.000000 0.000000 0.184279
#
#
# Mechanical properties :
#
#
# Convention : Reuss Voigt Hill
#
# Bulk Modulus (GPa) = 44.96706 45.10427 45.03567
# Shear Modulus (GPa) = 14.63744 21.61995 18.12869
#
# Velocity S-wave (km/s) = 2.82067 3.42805 3.13908
# Velocity P-wave (km/s) = 5.92031 6.33917 6.13332
#
# Compressibility (1/GPa) = 0.02223850
#
# Stress axis : x y z
#
# Youngs Moduli (GPa) = 69.07866 69.07844 69.41894
#
# Poissons Ratio (x) = 0.18277 0.27468
# Poissons Ratio (y) = 0.18277 0.27469
# Poissons Ratio (z) = 0.27333 0.27334
#
# Static dielectric constant tensor:
#      x y z
#    x 1.621590 0.000000 0.000000 
#    y 0.000000 1.621590 0.000000 
#    z 0.000000 0.000000 1.639430 
# 
# From -- ./inp_files/8605.got.cif
#   From: 2010.05.17/outbox.cif.g08.bks.cpg/sg141_5_cif.got.tgz:8605.got - 2010.05.20 13:30:51.
