data_PCOD9573524
_publ_section_title
;
Structure prediction by ZEFSAII (Michael W. Deem and Ramdas Pophale) SiO2 
 PCOD9573524
Probable space group: I 41/A C D
;
_chemical_formula_sum "Si O2"
_cell_formula_units_Z 160
_cell_length_a 22.465498
_cell_length_b 22.465498
_cell_length_c 14.532346
_cell_angle_alpha 90.000000
_cell_angle_beta 90.000000
_cell_angle_gamma 90.000000
_cell_volume 7334.454687
_symmetry_space_group_name_H-M "I 41/A C D"
_symmetry_group_IT_number 142
_space_group.IT_coordinate_system_code '2'
_symmetry_cell_setting 'tetragonal'
loop_
_space_group_symop_operation_xyz
x,y,z
1/4-y,3/4+x,1/4+z
-x,1/2-y,z
1/4+y,1/4-x,3/4+z
x,-y,1/2-z
1/2-x,y,-z
3/4+y,1/4+x,1/4-z
1/4-y,1/4-x,1/4-z
-x,-y,-z
3/4+y,1/4-x,3/4-z
x,1/2+y,-z
3/4-y,3/4+x,1/4-z
-x,y,1/2+z
1/2+x,-y,z
1/4-y,3/4-x,3/4+z
3/4+y,3/4+x,3/4+z
1/2+x,1/2+y,1/2+z
3/4-y,1/4+x,3/4+z
1/2-x,-y,1/2+z
3/4+y,3/4-x,1/4+z
1/2+x,1/2-y,-z
-x,1/2+y,1/2-z
1/4+y,3/4+x,3/4-z
3/4-y,3/4-x,3/4-z
1/2-x,1/2-y,1/2-z
1/4+y,3/4-x,1/4-z
1/2+x,y,1/2-z
1/4-y,1/4+x,3/4-z
1/2-x,1/2+y,z
x,1/2-y,1/2+z
3/4-y,1/4-x,1/4+z
1/4+y,1/4+x,1/4+z
loop_
_atom_site_type_symbol
_atom_site_label
_atom_site_fract_x
_atom_site_fract_y
_atom_site_fract_z
Si Si1 0.758409 0.254756 0.399587
Si Si2 0.028242 0.093662 0.020424
Si Si3 0.545629 0.321225 0.582105
Si Si4 0.879073 0.436738 0.382242
Si Si5 0.799730 0.904891 0.782199
O O1 0.750000 0.282392 0.500000
O O2 0.806951 0.277980 0.326615
O O3 0.696471 0.255294 0.344926
O O4 0.780048 0.186310 0.411640
O O5 0.994506 0.154948 0.002069
O O6 0.096693 0.091281 0.046382
O O7 0.495719 0.320466 0.664680
O O8 0.596265 0.371064 0.594057
O O9 0.825609 0.432868 0.309992
O O10 0.863130 0.480128 0.467308
O O11 0.807966 0.942035 0.875000
#
# Coordination Sequence:
#
# PCOD9573524 Si02
#       5
#    32  32  32  32  32
#     4   9  17  32  56  88 123 162 207 259 312 383
#     4   9  18  32  55  89 123 160 211 258 314 381
#     4  10  19  35  60  92 133 175 211 263 329 389
#     4  10  20  34  58  93 122 161 213 265 318 381
#     4  11  20  35  59  93 121 158 214 274 323 384
#
# _framework density 21.814844999999998
#
# number of rings (size 3 to 8) (size 9 to 14) (size 15 to 20)
#    0.000    2.200    2.000    4.200    0.000    0.000 
#    0.000    0.000    0.000   16.800    0.000    0.000 
#    0.000    0.000    0.000    0.000    0.000    0.000 
#
# Total GULP energy -445652.934635 kJ/mol
# GULP energy per Si atom -5570.661683 kJ/mol
# Density = 2.176519 g / cm^3
# Si number density = 21.814845 Si / 1000 Ang^3
#
#
#
# Elastic Constant Matrix: (Units=GPa)
#
#
# Indices 1 2 3 4 5 6 
#
# 1 86.5600 33.8057 32.0880 0.0000 0.0000 0.0000
# 2 33.8057 86.5608 32.0872 0.0000 0.0000 0.0000
# 3 32.0880 32.0872 82.9300 0.0000 0.0000 0.0000
# 4 0.0000 0.0000 0.0000 26.2023 0.0000 0.0000
# 5 0.0000 0.0000 0.0000 0.0000 26.2023 0.0000
# 6 0.0000 0.0000 0.0000 0.0000 0.0000 17.6090
#
#
#
# Elastic Compliance Matrix: (Units=1/GPa)
#
#
# Indices 1 2 3 4 5 6 
#
# 1 0.014712 -0.004244 -0.004050 0.000000 0.000000 0.000000
# 2 -0.004244 0.014711 -0.004050 0.000000 0.000000 0.000000
# 3 -0.004050 -0.004050 0.015192 0.000000 0.000000 0.000000
# 4 0.000000 0.000000 0.000000 0.038165 0.000000 0.000000
# 5 0.000000 0.000000 0.000000 0.000000 0.038165 0.000000
# 6 0.000000 0.000000 0.000000 0.000000 0.000000 0.056789
#
#
# Mechanical properties :
#
#
# Convention : Reuss Voigt Hill
#
# Bulk Modulus (GPa) = 50.18335 50.22362 50.20348
# Shear Modulus (GPa) = 23.91605 24.54073 24.22839
#
# Velocity S-wave (km/s) = 3.31466 3.35767 3.33624
# Velocity P-wave (km/s) = 6.14032 6.17289 6.15663
#
# Compressibility (1/GPa) = 0.01992693
#
# Stress axis : x y z
#
# Youngs Moduli (GPa) = 67.97341 67.97469 65.82198
#
# Poissons Ratio (x) = 0.28850 0.26659
# Poissons Ratio (y) = 0.28849 0.26657
# Poissons Ratio (z) = 0.27531 0.27529
#
# Static dielectric constant tensor:
#      x y z
#    x 1.863730 0.000000 0.000000 
#    y 0.000000 1.863740 0.000000 
#    z 0.000000 0.000000 1.808880 
# 
# From -- ./inp_files/5448.got.cif
#   From: 2010.05.17/outbox.cif.g08.bks.cpg/sg142_3_cif.got.tgz:5448.got - 2010.05.20 13:39:18.
