data_PCOD9573556
_publ_section_title
;
Structure prediction by ZEFSAII (Michael W. Deem and Ramdas Pophale) SiO2 
 PCOD9573556
Probable space group: I 41/A C D
;
_chemical_formula_sum "Si O2"
_cell_formula_units_Z 160
_cell_length_a 25.947222
_cell_length_b 25.947222
_cell_length_c 11.143253
_cell_angle_alpha 90.000000
_cell_angle_beta 90.000000
_cell_angle_gamma 90.000000
_cell_volume 7502.287900
_symmetry_space_group_name_H-M "I 41/A C D"
_symmetry_group_IT_number 142
_space_group.IT_coordinate_system_code '2'
_symmetry_cell_setting 'tetragonal'
loop_
_space_group_symop_operation_xyz
x,y,z
1/4-y,3/4+x,1/4+z
-x,1/2-y,z
1/4+y,1/4-x,3/4+z
x,-y,1/2-z
1/2-x,y,-z
3/4+y,1/4+x,1/4-z
1/4-y,1/4-x,1/4-z
-x,-y,-z
3/4+y,1/4-x,3/4-z
x,1/2+y,-z
3/4-y,3/4+x,1/4-z
-x,y,1/2+z
1/2+x,-y,z
1/4-y,3/4-x,3/4+z
3/4+y,3/4+x,3/4+z
1/2+x,1/2+y,1/2+z
3/4-y,1/4+x,3/4+z
1/2-x,-y,1/2+z
3/4+y,3/4-x,1/4+z
1/2+x,1/2-y,-z
-x,1/2+y,1/2-z
1/4+y,3/4+x,3/4-z
3/4-y,3/4-x,3/4-z
1/2-x,1/2-y,1/2-z
1/4+y,3/4-x,1/4-z
1/2+x,y,1/2-z
1/4-y,1/4+x,3/4-z
1/2-x,1/2+y,z
x,1/2-y,1/2+z
3/4-y,1/4-x,1/4+z
1/4+y,1/4+x,1/4+z
loop_
_atom_site_type_symbol
_atom_site_label
_atom_site_fract_x
_atom_site_fract_y
_atom_site_fract_z
Si Si1 0.771226 0.096165 0.184977
Si Si2 0.301800 0.337889 0.579622
Si Si3 0.079104 0.097062 0.690983
Si Si4 0.499125 0.938611 0.514053
Si Si5 0.112993 0.908786 0.542937
O O1 0.793096 0.043096 0.125000
O O2 0.790037 0.119044 0.314561
O O3 0.797235 0.136896 0.094711
O O4 0.710536 0.103028 0.192160
O O5 0.250000 0.329126 0.500000
O O6 0.323479 0.287831 0.651797
O O7 0.347734 0.364399 0.505005
O O8 0.104656 0.145345 0.625000
O O9 0.024901 0.083089 0.634432
O O10 0.088223 0.106168 0.828842
O O11 0.440050 0.922564 0.521173
O O12 0.500000 0.000000 0.500000
#
# Coordination Sequence:
#
# PCOD9573556 Si02
#       5
#    32  32  32  32  32
#     4  10  20  37  59  88 124 180 225 244 318 418
#     4  11  25  42  58  99 138 169 216 279 342 390
#     4  10  19  39  61  91 127 165 224 262 323 407
#     4  11  23  38  63  97 123 171 231 277 319 393
#     4  12  22  40  68  88 135 176 214 280 333 389
#
# _framework density 21.326827000000002
#
# number of rings (size 3 to 8) (size 9 to 14) (size 15 to 20)
#    0.000    1.200   10.000    0.600    2.800    0.800 
#    3.600    0.000    0.000    0.600    0.000    1.400 
#    0.000    0.000    0.000    0.000    0.000    0.000 
#
# Total GULP energy -445962.388834 kJ/mol
# GULP energy per Si atom -5574.529860 kJ/mol
# Density = 2.127829 g / cm^3
# Si number density = 21.326827 Si / 1000 Ang^3
#
#
#
# Elastic Constant Matrix: (Units=GPa)
#
#
# Indices 1 2 3 4 5 6 
#
# 1 99.4829 64.9483 28.8143 0.0000 0.0000 0.0000
# 2 64.9483 99.4810 28.8140 0.0000 0.0000 0.0000
# 3 28.8143 28.8140 76.5576 0.0000 0.0000 0.0000
# 4 0.0000 0.0000 0.0000 29.0336 0.0000 0.0000
# 5 0.0000 0.0000 0.0000 0.0000 29.0347 0.0000
# 6 0.0000 0.0000 0.0000 0.0000 0.0000 102.1538
#
#
#
# Elastic Compliance Matrix: (Units=1/GPa)
#
#
# Indices 1 2 3 4 5 6 
#
# 1 0.017981 -0.010976 -0.002637 0.000000 0.000000 0.000000
# 2 -0.010976 0.017982 -0.002637 0.000000 0.000000 0.000000
# 3 -0.002637 -0.002637 0.015047 0.000000 0.000000 0.000000
# 4 0.000000 0.000000 0.000000 0.034443 0.000000 0.000000
# 5 0.000000 0.000000 0.000000 0.000000 0.034442 0.000000
# 6 0.000000 0.000000 0.000000 0.000000 0.000000 0.009789
#
#
# Mechanical properties :
#
#
# Convention : Reuss Voigt Hill
#
# Bulk Modulus (GPa) = 54.02113 57.85272 55.93693
# Shear Modulus (GPa) = 29.69961 42.24075 35.97018
#
# Velocity S-wave (km/s) = 3.73580 4.45527 4.11130
# Velocity P-wave (km/s) = 6.63275 7.32472 6.98730
#
# Compressibility (1/GPa) = 0.01851128
#
# Stress axis : x y z
#
# Youngs Moduli (GPa) = 55.61327 55.61228 66.45906
#
# Poissons Ratio (x) = 0.61039 0.17524
# Poissons Ratio (y) = 0.61040 0.17524
# Poissons Ratio (z) = 0.14664 0.14664
#
# Static dielectric constant tensor:
#      x y z
#    x 1.816130 0.000000 0.000000 
#    y 0.000000 1.816130 0.000000 
#    z 0.000000 0.000000 1.930330 
# 
# From -- ./inp_files/3881.got.cif
#   From: 2010.05.17/outbox.cif.g08.bks.cpg/sg142_2_cif.got.tgz:3881.got - 2010.05.20 13:39:18.
