data_PCOD9573080
_publ_section_title
;
Structure prediction by ZEFSAII (Michael W. Deem and Ramdas Pophale) SiO2 
 PCOD9573080
Probable space group: I 41/A M D
;
_chemical_formula_sum "Si O2"
_cell_formula_units_Z 160
_cell_length_a 16.535550
_cell_length_b 16.535550
_cell_length_c 24.725703
_cell_angle_alpha 90.000000
_cell_angle_beta 90.000000
_cell_angle_gamma 90.000000
_cell_volume 6760.610849
_symmetry_space_group_name_H-M "I 41/A M D"
_symmetry_group_IT_number 141
_space_group.IT_coordinate_system_code '2'
_symmetry_cell_setting 'tetragonal'
loop_
_space_group_symop_operation_xyz
x,y,z
1/4-y,3/4+x,1/4+z
-x,1/2-y,z
1/4+y,1/4-x,3/4+z
x,-y,-z
-x,1/2+y,-z
1/4+y,3/4+x,1/4-z
1/4-y,1/4-x,3/4-z
-x,-y,-z
3/4+y,1/4-x,3/4-z
x,1/2+y,-z
3/4-y,3/4+x,1/4-z
-x,y,z
x,1/2-y,z
3/4-y,1/4-x,3/4+z
3/4+y,3/4+x,1/4+z
1/2+x,1/2+y,1/2+z
3/4-y,1/4+x,3/4+z
1/2-x,-y,1/2+z
3/4+y,3/4-x,1/4+z
1/2+x,1/2-y,1/2-z
1/2-x,y,1/2-z
3/4+y,1/4+x,3/4-z
3/4-y,3/4-x,1/4-z
1/2-x,1/2-y,1/2-z
1/4+y,3/4-x,1/4-z
1/2+x,y,1/2-z
1/4-y,1/4+x,3/4-z
1/2-x,1/2+y,1/2+z
1/2+x,-y,1/2+z
1/4-y,3/4-x,1/4+z
1/4+y,1/4+x,3/4+z
loop_
_atom_site_type_symbol
_atom_site_label
_atom_site_fract_x
_atom_site_fract_y
_atom_site_fract_z
Si Si1 0.903165 0.488900 0.707266
Si Si2 0.354665 0.663254 0.686785
Si Si3 0.594781 0.959986 0.558988
Si Si4 0.090059 0.008114 0.830575
Si Si5 0.409985 0.587745 0.933834
O O1 0.861885 0.408959 0.684441
O O2 0.872798 0.484228 0.770454
O O3 0.877213 0.571026 0.675372
O O4 0.000000 0.487141 0.707007
O O5 0.380172 0.750000 0.664922
O O6 0.408459 0.589806 0.667854
O O7 0.258752 0.652594 0.676276
O O8 0.357022 0.666428 0.751972
O O9 0.500000 0.937881 0.563547
O O10 0.615113 0.023703 0.607145
O O11 0.603210 0.000000 0.500000
O O12 0.000000 0.042971 0.825819
O O13 0.500000 0.613345 0.911962
#
# Coordination Sequence:
#
# PCOD9573080 Si02
#       5
#    32  32  32  32  32
#     4  10  21  36  58  88 118 154 201 248 303 365
#     4   8  14  26  48  79 111 145 183 222 274 340
#     4  10  23  41  59  81 113 153 198 252 313 368
#     4   9  19  35  55  82 113 148 195 249 300 359
#     4   8  15  29  50  80 119 154 186 227 277 344
#
# _framework density 23.666499999999999
#
# number of rings (size 3 to 8) (size 9 to 14) (size 15 to 20)
#    0.000    3.000    0.000    1.200    5.600    2.800 
#    0.000    6.000    0.000    0.000    0.000    5.600 
#    0.000    3.200    0.000    3.000    0.000    0.600 
#
# Total GULP energy -445396.935031 kJ/mol
# GULP energy per Si atom -5567.461688 kJ/mol
# Density = 2.361263 g / cm^3
# Si number density = 23.666500 Si / 1000 Ang^3
#
#
#
# Elastic Constant Matrix: (Units=GPa)
#
#
# Indices 1 2 3 4 5 6 
#
# 1 89.4602 61.1407 20.9891 0.0000 0.0000 0.0000
# 2 61.1407 89.4602 20.9891 0.0000 0.0000 0.0000
# 3 20.9891 20.9891 101.0302 0.0000 0.0000 0.0000
# 4 0.0000 0.0000 0.0000 25.5470 0.0000 0.0000
# 5 0.0000 0.0000 0.0000 0.0000 25.5470 0.0000
# 6 0.0000 0.0000 0.0000 0.0000 0.0000 -1.4277
#
#
#
# Elastic Compliance Matrix: (Units=1/GPa)
#
#
# Indices 1 2 3 4 5 6 
#
# 1 0.021180 -0.014132 -0.001464 0.000000 0.000000 0.000000
# 2 -0.014132 0.021180 -0.001464 0.000000 0.000000 0.000000
# 3 -0.001464 -0.001464 0.010506 0.000000 0.000000 0.000000
# 4 0.000000 0.000000 0.000000 0.039144 0.000000 0.000000
# 5 0.000000 0.000000 0.000000 0.000000 0.039144 0.000000
# 6 0.000000 0.000000 0.000000 0.000000 0.000000 -0.700426
#
#
# Mechanical properties :
#
#
# Convention : Reuss Voigt Hill
#
# Bulk Modulus (GPa) = 53.34533 54.02093 53.68313
# Shear Modulus (GPa) = -9.45352 21.72203 6.13425
#
# Velocity S-wave (km/s) = -2.00079 3.03287 1.61170
# Velocity P-wave (km/s) = 4.15353 5.92789 5.11819
#
# Compressibility (1/GPa) = 0.01874578
#
# Stress axis : x y z
#
# Youngs Moduli (GPa) = 47.21484 47.21484 95.17975
#
# Poissons Ratio (x) = 0.66722 0.13937
# Poissons Ratio (y) = 0.66722 0.13937
# Poissons Ratio (z) = 0.06914 0.06914
#
# Static dielectric constant tensor:
#      x y z
#    x 1.908160 0.000000 0.000000 
#    y 0.000000 1.908160 0.000000 
#    z 0.000000 0.000000 2.094670 
# 
# From -- ./inp_files/12738.got.cif
#   From: 2010.05.17/outbox.cif.g08.bks.cpg/sg141_7_cif.got.tgz:12738.got - 2010.05.20 13:30:51.
