data_PCOD9573605
_publ_section_title
;
Structure prediction by ZEFSAII (Michael W. Deem and Ramdas Pophale) SiO2 
 PCOD9573605
Probable space group: I 41/A C D
;
_chemical_formula_sum "Si O2"
_cell_formula_units_Z 168
_cell_length_a 20.135355
_cell_length_b 20.135355
_cell_length_c 19.842656
_cell_angle_alpha 90.000000
_cell_angle_beta 90.000000
_cell_angle_gamma 90.000000
_cell_volume 8044.858045
_symmetry_space_group_name_H-M "I 41/A C D"
_symmetry_group_IT_number 142
_space_group.IT_coordinate_system_code '2'
_symmetry_cell_setting 'tetragonal'
loop_
_space_group_symop_operation_xyz
x,y,z
1/4-y,3/4+x,1/4+z
-x,1/2-y,z
1/4+y,1/4-x,3/4+z
x,-y,1/2-z
1/2-x,y,-z
3/4+y,1/4+x,1/4-z
1/4-y,1/4-x,1/4-z
-x,-y,-z
3/4+y,1/4-x,3/4-z
x,1/2+y,-z
3/4-y,3/4+x,1/4-z
-x,y,1/2+z
1/2+x,-y,z
1/4-y,3/4-x,3/4+z
3/4+y,3/4+x,3/4+z
1/2+x,1/2+y,1/2+z
3/4-y,1/4+x,3/4+z
1/2-x,-y,1/2+z
3/4+y,3/4-x,1/4+z
1/2+x,1/2-y,-z
-x,1/2+y,1/2-z
1/4+y,3/4+x,3/4-z
3/4-y,3/4-x,3/4-z
1/2-x,1/2-y,1/2-z
1/4+y,3/4-x,1/4-z
1/2+x,y,1/2-z
1/4-y,1/4+x,3/4-z
1/2-x,1/2+y,z
x,1/2-y,1/2+z
3/4-y,1/4-x,1/4+z
1/4+y,1/4+x,1/4+z
loop_
_atom_site_type_symbol
_atom_site_label
_atom_site_fract_x
_atom_site_fract_y
_atom_site_fract_z
Si Si1 0.328435 0.315371 0.749435
Si Si2 0.464878 0.374309 0.782019
Si Si3 0.312454 0.665299 0.207970
Si Si4 0.604106 0.769041 0.884254
Si Si5 0.083084 0.053545 0.194197
Si Si6 0.500000 0.250000 0.875000
O O1 0.386242 0.361952 0.779460
O O2 0.331487 0.242767 0.783987
O O3 0.253535 0.342607 0.753494
O O4 0.347328 0.300860 0.670731
O O5 0.490453 0.377721 0.704987
O O6 0.503261 0.437016 0.811466
O O7 0.494739 0.313048 0.825380
O O8 0.290034 0.647155 0.132210
O O9 0.376326 0.618919 0.218342
O O10 0.569830 0.705315 0.849467
O O11 0.098655 0.000000 0.250000
#
# Coordination Sequence:
#
# PCOD9573605 Si02
#       6
#    32  32  32  32  32   8
#     4  10  20  36  57  84 117 150 191 247 303 349
#     4  11  20  32  55  85 114 146 190 238 289 344
#     4  10  22  38  58  84 117 155 194 240 300 359
#     4   9  16  27  47  78 112 146 183 232 289 342
#     4  11  22  38  58  83 114 155 201 241 289 359
#     4  12  20  32  58  92 124 148 176 238 308 360
#
# _framework density 20.882905000000001
#
# number of rings (size 3 to 8) (size 9 to 14) (size 15 to 20)
#    0.000    1.714    0.000    8.000    0.000    1.524 
#    0.000    0.952    0.000    6.857    0.000    0.000 
#    0.000    0.000    0.000    0.000    0.000    0.000 
#
# Total GULP energy -468234.800811 kJ/mol
# GULP energy per Si atom -5574.223819 kJ/mol
# Density = 2.083537 g / cm^3
# Si number density = 20.882905 Si / 1000 Ang^3
#
#
#
# Elastic Constant Matrix: (Units=GPa)
#
#
# Indices 1 2 3 4 5 6 
#
# 1 80.5031 33.6882 11.8783 0.0000 0.0000 0.0000
# 2 33.6882 80.5031 11.8783 0.0000 0.0000 0.0000
# 3 11.8783 11.8783 68.8714 0.0000 0.0000 0.0000
# 4 0.0000 0.0000 0.0000 23.9686 0.0000 0.0000
# 5 0.0000 0.0000 0.0000 0.0000 23.9686 0.0000
# 6 0.0000 0.0000 0.0000 0.0000 0.0000 18.9962
#
#
#
# Elastic Compliance Matrix: (Units=1/GPa)
#
#
# Indices 1 2 3 4 5 6 
#
# 1 0.015222 -0.006139 -0.001567 0.000000 0.000000 0.000000
# 2 -0.006139 0.015222 -0.001567 0.000000 0.000000 0.000000
# 3 -0.001567 -0.001567 0.015060 0.000000 0.000000 0.000000
# 4 0.000000 0.000000 0.000000 0.041721 0.000000 0.000000
# 5 0.000000 0.000000 0.000000 0.000000 0.041721 0.000000
# 6 0.000000 0.000000 0.000000 0.000000 0.000000 0.052642
#
#
# Mechanical properties :
#
#
# Convention : Reuss Voigt Hill
#
# Bulk Modulus (GPa) = 37.09171 38.30744 37.69958
# Shear Modulus (GPa) = 23.90981 24.88220 24.39601
#
# Velocity S-wave (km/s) = 3.38738 3.45557 3.42164
# Velocity P-wave (km/s) = 5.75321 5.85705 5.80536
#
# Compressibility (1/GPa) = 0.02696020
#
# Stress axis : x y z
#
# Youngs Moduli (GPa) = 65.69474 65.69474 66.40019
#
# Poissons Ratio (x) = 0.40328 0.10402
# Poissons Ratio (y) = 0.40328 0.10402
# Poissons Ratio (z) = 0.10292 0.10292
#
# Static dielectric constant tensor:
#      x y z
#    x 1.779870 0.000000 0.000000 
#    y 0.000000 1.779870 0.000000 
#    z 0.000000 0.000000 1.825020 
# 
# From -- ./inp_files/9094.got.cif
#   From: 2010.05.17/outbox.cif.g08.bks.cpg/sg142_5_cif.got.tgz:9094.got - 2010.05.20 13:39:18.
