data_PCOD9573962
_publ_section_title
;
Structure prediction by ZEFSAII (Michael W. Deem and Ramdas Pophale) SiO2 
 PCOD9573962
Probable space group: I 41/A C D
;
_chemical_formula_sum "Si O2"
_cell_formula_units_Z 96
_cell_length_a 16.744214
_cell_length_b 16.744214
_cell_length_c 12.234678
_cell_angle_alpha 90.000000
_cell_angle_beta 90.000000
_cell_angle_gamma 90.000000
_cell_volume 3430.220796
_symmetry_space_group_name_H-M "I 41/A C D"
_symmetry_group_IT_number 142
_space_group.IT_coordinate_system_code '2'
_symmetry_cell_setting 'tetragonal'
loop_
_space_group_symop_operation_xyz
x,y,z
1/4-y,3/4+x,1/4+z
-x,1/2-y,z
1/4+y,1/4-x,3/4+z
x,-y,1/2-z
1/2-x,y,-z
3/4+y,1/4+x,1/4-z
1/4-y,1/4-x,1/4-z
-x,-y,-z
3/4+y,1/4-x,3/4-z
x,1/2+y,-z
3/4-y,3/4+x,1/4-z
-x,y,1/2+z
1/2+x,-y,z
1/4-y,3/4-x,3/4+z
3/4+y,3/4+x,3/4+z
1/2+x,1/2+y,1/2+z
3/4-y,1/4+x,3/4+z
1/2-x,-y,1/2+z
3/4+y,3/4-x,1/4+z
1/2+x,1/2-y,-z
-x,1/2+y,1/2-z
1/4+y,3/4+x,3/4-z
3/4-y,3/4-x,3/4-z
1/2-x,1/2-y,1/2-z
1/4+y,3/4-x,1/4-z
1/2+x,y,1/2-z
1/4-y,1/4+x,3/4-z
1/2-x,1/2+y,z
x,1/2-y,1/2+z
3/4-y,1/4-x,1/4+z
1/4+y,1/4+x,1/4+z
loop_
_atom_site_type_symbol
_atom_site_label
_atom_site_fract_x
_atom_site_fract_y
_atom_site_fract_z
Si Si1 0.677910 0.827640 0.579258
Si Si2 0.040980 0.935835 0.043799
Si Si3 0.387696 0.835284 0.507530
O O1 0.750000 0.849069 0.500000
O O2 0.735782 0.765419 0.665204
O O3 0.614098 0.906129 0.544413
O O4 0.618262 0.757385 0.538915
O O5 0.091886 0.922928 0.156918
O O6 0.972732 0.866277 0.035485
O O7 0.371671 0.878330 0.625000
#
# Coordination Sequence:
#
# PCOD9573962 Si02
#       3
#    32  32  32
#     4  11  23  41  67 103 143 194 256 321 402 489
#     4  11  22  39  68 102 147 192 254 323 407 482
#     4  10  23  40  65 103 143 191 254 327 400 483
#
# _framework density 27.986537999999999
#
# number of rings (size 3 to 8) (size 9 to 14) (size 15 to 20)
#    0.000    1.333    3.333    2.000    0.000   12.000 
#    0.000    0.000    0.000    8.000    0.000    0.000 
#    0.000    0.000    0.000    0.000    2.000    0.000 
#
# Total GULP energy -268148.270507 kJ/mol
# GULP energy per Si atom -5586.422302 kJ/mol
# Density = 2.792284 g / cm^3
# Si number density = 27.986538 Si / 1000 Ang^3
#
#
#
# Elastic Constant Matrix: (Units=GPa)
#
#
# Indices 1 2 3 4 5 6 
#
# 1 180.1072 115.5494 83.7250 0.0000 0.0000 0.0000
# 2 115.5494 180.1073 83.7250 0.0000 0.0000 0.0000
# 3 83.7250 83.7250 327.8743 0.0000 0.0000 0.0000
# 4 0.0000 0.0000 0.0000 59.0887 0.0000 0.0000
# 5 0.0000 0.0000 0.0000 0.0000 59.0888 0.0000
# 6 0.0000 0.0000 0.0000 0.0000 0.0000 57.3748
#
#
#
# Elastic Compliance Matrix: (Units=1/GPa)
#
#
# Indices 1 2 3 4 5 6 
#
# 1 0.009722 -0.005768 -0.001010 0.000000 0.000000 0.000000
# 2 -0.005768 0.009722 -0.001010 0.000000 0.000000 0.000000
# 3 -0.001010 -0.001010 0.003566 0.000000 0.000000 0.000000
# 4 0.000000 0.000000 0.000000 0.016924 0.000000 0.000000
# 5 0.000000 0.000000 0.000000 0.000000 0.016924 0.000000
# 6 0.000000 0.000000 0.000000 0.000000 0.000000 0.017429
#
#
# Mechanical properties :
#
#
# Convention : Reuss Voigt Hill
#
# Bulk Modulus (GPa) = 134.49758 139.34307 136.92033
# Shear Modulus (GPa) = 54.14801 62.11642 58.13221
#
# Velocity S-wave (km/s) = 4.40339 4.71628 4.56252
# Velocity P-wave (km/s) = 8.60322 8.91937 8.76272
#
# Compressibility (1/GPa) = 0.00743508
#
# Stress axis : x y z
#
# Youngs Moduli (GPa) = 102.85859 102.85872 280.45530
#
# Poissons Ratio (x) = 0.59328 0.28318
# Poissons Ratio (y) = 0.59328 0.28318
# Poissons Ratio (z) = 0.10386 0.10386
#
# Static dielectric constant tensor:
#      x y z
#    x 2.110850 0.000000 0.000000 
#    y 0.000000 2.110850 0.000000 
#    z 0.000000 0.000000 2.411200 
# 
# From -- ./inp_files/3165.got.cif
#   From: 2010.05.17/outbox.cif.g08.bks.cpg/sg142_2_cif.got.tgz:3165.got - 2010.05.20 13:39:18.
