data_PCOD9573819
_publ_section_title
;
Structure prediction by ZEFSAII (Michael W. Deem and Ramdas Pophale) SiO2 
 PCOD9573819
Probable space group: I 41/A C D
;
_chemical_formula_sum "Si O2"
_cell_formula_units_Z 128
_cell_length_a 22.080042
_cell_length_b 22.080042
_cell_length_c 12.225182
_cell_angle_alpha 90.000000
_cell_angle_beta 90.000000
_cell_angle_gamma 90.000000
_cell_volume 5960.121644
_symmetry_space_group_name_H-M "I 41/A C D"
_symmetry_group_IT_number 142
_space_group.IT_coordinate_system_code '2'
_symmetry_cell_setting 'tetragonal'
loop_
_space_group_symop_operation_xyz
x,y,z
1/4-y,3/4+x,1/4+z
-x,1/2-y,z
1/4+y,1/4-x,3/4+z
x,-y,1/2-z
1/2-x,y,-z
3/4+y,1/4+x,1/4-z
1/4-y,1/4-x,1/4-z
-x,-y,-z
3/4+y,1/4-x,3/4-z
x,1/2+y,-z
3/4-y,3/4+x,1/4-z
-x,y,1/2+z
1/2+x,-y,z
1/4-y,3/4-x,3/4+z
3/4+y,3/4+x,3/4+z
1/2+x,1/2+y,1/2+z
3/4-y,1/4+x,3/4+z
1/2-x,-y,1/2+z
3/4+y,3/4-x,1/4+z
1/2+x,1/2-y,-z
-x,1/2+y,1/2-z
1/4+y,3/4+x,3/4-z
3/4-y,3/4-x,3/4-z
1/2-x,1/2-y,1/2-z
1/4+y,3/4-x,1/4-z
1/2+x,y,1/2-z
1/4-y,1/4+x,3/4-z
1/2-x,1/2+y,z
x,1/2-y,1/2+z
3/4-y,1/4-x,1/4+z
1/4+y,1/4+x,1/4+z
loop_
_atom_site_type_symbol
_atom_site_label
_atom_site_fract_x
_atom_site_fract_y
_atom_site_fract_z
Si Si1 0.028924 0.587295 0.617733
Si Si2 0.250000 0.479890 0.000000
Si Si3 0.259372 0.632554 0.726997
Si Si4 0.551933 0.500000 0.250000
Si Si5 0.412211 0.872662 0.504151
O O1 0.068077 0.535417 0.559388
O O2 0.075120 0.635007 0.668250
O O3 0.989934 0.555774 0.713192
O O4 0.981047 0.613532 0.530951
O O5 0.243543 0.506458 0.875000
O O6 0.319063 0.456696 0.991746
O O7 0.265530 0.657844 0.604775
O O8 0.187111 0.626927 0.746556
O O9 0.403422 0.846579 0.625000
#
# Coordination Sequence:
#
# PCOD9573819 Si02
#       5
#    32  16  32  16  32
#     4  11  23  42  67  97 129 176 223 275 336 406
#     4  12  25  41  64 104 146 177 219 278 350 420
#     4  11  23  41  67  99 138 177 222 280 346 416
#     4  10  21  43  66  94 138 183 225 270 342 416
#     4  11  23  42  66  93 128 171 221 272 326 396
#
# _framework density 21.476071999999998
#
# number of rings (size 3 to 8) (size 9 to 14) (size 15 to 20)
#    0.000    1.000    0.000    9.000    0.000    4.500 
#    0.000    7.500    0.000    0.000    0.000    0.000 
#    0.000    0.000    0.000    0.000    0.000    0.000 
#
# Total GULP energy -357272.355583 kJ/mol
# GULP energy per Si atom -5582.380556 kJ/mol
# Density = 2.142719 g / cm^3
# Si number density = 21.476072 Si / 1000 Ang^3
#
#
#
# Elastic Constant Matrix: (Units=GPa)
#
#
# Indices 1 2 3 4 5 6 
#
# 1 105.4377 42.9699 27.2213 0.0000 0.0000 0.0000
# 2 42.9699 105.4383 27.2216 0.0000 0.0000 0.0000
# 3 27.2213 27.2216 129.6977 0.0000 0.0000 0.0000
# 4 0.0000 0.0000 0.0000 20.5706 0.0000 0.0000
# 5 0.0000 0.0000 0.0000 0.0000 20.5687 0.0000
# 6 0.0000 0.0000 0.0000 0.0000 0.0000 30.6473
#
#
#
# Elastic Compliance Matrix: (Units=1/GPa)
#
#
# Indices 1 2 3 4 5 6 
#
# 1 0.011654 -0.004354 -0.001532 0.000000 0.000000 0.000000
# 2 -0.004354 0.011654 -0.001532 0.000000 0.000000 0.000000
# 3 -0.001532 -0.001532 0.008353 0.000000 0.000000 0.000000
# 4 0.000000 0.000000 0.000000 0.048613 0.000000 0.000000
# 5 0.000000 0.000000 0.000000 0.000000 0.048618 0.000000
# 6 0.000000 0.000000 0.000000 0.000000 0.000000 0.032629
#
#
# Mechanical properties :
#
#
# Convention : Reuss Voigt Hill
#
# Bulk Modulus (GPa) = 59.43495 59.48880 59.46188
# Shear Modulus (GPa) = 27.47753 30.56805 29.02279
#
# Velocity S-wave (km/s) = 3.58082 3.77683 3.68013
# Velocity P-wave (km/s) = 6.69562 6.83955 6.76797
#
# Compressibility (1/GPa) = 0.01682512
#
# Stress axis : x y z
#
# Youngs Moduli (GPa) = 85.80556 85.80603 119.71164
#
# Poissons Ratio (x) = 0.37360 0.18342
# Poissons Ratio (y) = 0.37359 0.18342
# Poissons Ratio (z) = 0.13147 0.13147
#
# Static dielectric constant tensor:
#      x y z
#    x 1.800030 0.000000 0.000000 
#    y 0.000000 1.800030 0.000000 
#    z 0.000000 0.000000 1.772100 
# 
# From -- ./inp_files/3502.got.cif
#   From: 2010.05.17/outbox.cif.g08.bks.cpg/sg142_2_cif.got.tgz:3502.got - 2010.05.20 13:39:18.
