data_PCOD9573351
_publ_section_title
;
Structure prediction by ZEFSAII (Michael W. Deem and Ramdas Pophale) SiO2 
 PCOD9573351
Probable space group: I 41/A M D
;
_chemical_formula_sum "Si O2"
_cell_formula_units_Z 84
_cell_length_a 11.426192
_cell_length_b 11.426192
_cell_length_c 30.507527
_cell_angle_alpha 90.000000
_cell_angle_beta 90.000000
_cell_angle_gamma 90.000000
_cell_volume 3982.997549
_symmetry_space_group_name_H-M "I 41/A M D"
_symmetry_group_IT_number 141
_space_group.IT_coordinate_system_code '2'
_symmetry_cell_setting 'tetragonal'
loop_
_space_group_symop_operation_xyz
x,y,z
1/4-y,3/4+x,1/4+z
-x,1/2-y,z
1/4+y,1/4-x,3/4+z
x,-y,-z
-x,1/2+y,-z
1/4+y,3/4+x,1/4-z
1/4-y,1/4-x,3/4-z
-x,-y,-z
3/4+y,1/4-x,3/4-z
x,1/2+y,-z
3/4-y,3/4+x,1/4-z
-x,y,z
x,1/2-y,z
3/4-y,1/4-x,3/4+z
3/4+y,3/4+x,1/4+z
1/2+x,1/2+y,1/2+z
3/4-y,1/4+x,3/4+z
1/2-x,-y,1/2+z
3/4+y,3/4-x,1/4+z
1/2+x,1/2-y,1/2-z
1/2-x,y,1/2-z
3/4+y,1/4+x,3/4-z
3/4-y,3/4-x,1/4-z
1/2-x,1/2-y,1/2-z
1/4+y,3/4-x,1/4-z
1/2+x,y,1/2-z
1/4-y,1/4+x,3/4-z
1/2-x,1/2+y,1/2+z
1/2+x,-y,1/2+z
1/4-y,3/4-x,1/4+z
1/4+y,1/4+x,3/4+z
loop_
_atom_site_type_symbol
_atom_site_label
_atom_site_fract_x
_atom_site_fract_y
_atom_site_fract_z
Si Si1 0.874121 0.250000 0.037654
Si Si2 0.000000 0.750000 0.625000
Si Si3 0.000000 0.513137 0.375608
Si Si4 0.864056 0.513322 0.837838
Si Si5 0.750000 0.937710 0.250000
O O1 0.768571 0.250000 0.072625
O O2 0.000000 0.250000 0.061680
O O3 0.871237 0.126672 0.011358
O O4 0.868510 0.750000 0.644779
O O5 0.885910 0.580897 0.390699
O O6 0.831771 0.418230 0.875000
O O7 0.784265 0.501723 0.794866
O O8 0.000000 0.506548 0.826287
#
# Coordination Sequence:
#
# PCOD9573351 Si02
#       5
#    16   4  16  32  16
#     4  12  24  44  71 104 148 192 244 305 376 445
#     4  12  20  44  72 104 136 188 240 284 364 428
#     4  12  24  45  74 104 143 193 238 298 365 446
#     4  12  26  46  71 107 148 192 244 301 367 436
#     4  12  25  45  70 108 146 191 247 306 366 442
#
# _framework density 21.089642000000001
#
# number of rings (size 3 to 8) (size 9 to 14) (size 15 to 20)
#    0.000    0.000    7.619    2.286    0.000    2.667 
#    0.000    1.905    0.000    0.000    0.000    0.000 
#    0.000    0.000    0.000    0.000    0.000    0.000 
#
# Total GULP energy -234076.987672 kJ/mol
# GULP energy per Si atom -5573.261611 kJ/mol
# Density = 2.104164 g / cm^3
# Si number density = 21.089642 Si / 1000 Ang^3
#
#
#
# Elastic Constant Matrix: (Units=GPa)
#
#
# Indices 1 2 3 4 5 6 
#
# 1 145.3442 29.7008 26.0918 0.0000 0.0000 0.0000
# 2 29.7008 145.3464 26.0923 0.0000 0.0000 0.0000
# 3 26.0918 26.0923 93.9084 0.0000 0.0000 0.0000
# 4 0.0000 0.0000 0.0000 16.2279 0.0000 0.0000
# 5 0.0000 0.0000 0.0000 0.0000 16.2279 0.0000
# 6 0.0000 0.0000 0.0000 0.0000 0.0000 -11.8639
#
#
#
# Elastic Compliance Matrix: (Units=1/GPa)
#
#
# Indices 1 2 3 4 5 6 
#
# 1 0.007438 -0.001209 -0.001731 0.000000 0.000000 0.000000
# 2 -0.001209 0.007438 -0.001731 0.000000 0.000000 0.000000
# 3 -0.001731 -0.001731 0.011610 0.000000 0.000000 0.000000
# 4 0.000000 0.000000 0.000000 0.061622 0.000000 0.000000
# 5 0.000000 0.000000 0.000000 0.000000 0.061622 0.000000
# 6 0.000000 0.000000 0.000000 0.000000 0.000000 -0.084289
#
#
# Mechanical properties :
#
#
# Convention : Reuss Voigt Hill
#
# Bulk Modulus (GPa) = 58.32503 60.92988 59.62746
# Shear Modulus (GPa) = 62.11343 24.29931 43.20637
#
# Velocity S-wave (km/s) = 5.43287 3.39808 4.53117
# Velocity P-wave (km/s) = 8.18966 6.65954 7.46392
#
# Compressibility (1/GPa) = 0.01714530
#
# Stress axis : x y z
#
# Youngs Moduli (GPa) = 134.44474 134.44664 86.12997
#
# Poissons Ratio (x) = 0.16258 0.14906
# Poissons Ratio (y) = 0.16258 0.14906
# Poissons Ratio (z) = 0.23267 0.23268
#
# Static dielectric constant tensor:
#      x y z
#    x 1.768760 0.000000 0.000000 
#    y 0.000000 1.768770 0.000000 
#    z 0.000000 0.000000 1.721240 
# 
# From -- ./inp_files/13767.got.cif
#   From: 2010.05.17/outbox.cif.g08.bks.cpg/sg141_7_cif.got.tgz:13767.got - 2010.05.20 13:30:51.
