data_PCOD9573207
_publ_section_title
;
Structure prediction by ZEFSAII (Michael W. Deem and Ramdas Pophale) SiO2 
 PCOD9573207
Probable space group: I 41/A M D
;
_chemical_formula_sum "Si O2"
_cell_formula_units_Z 176
_cell_length_a 18.393798
_cell_length_b 18.393798
_cell_length_c 27.571341
_cell_angle_alpha 90.000000
_cell_angle_beta 90.000000
_cell_angle_gamma 90.000000
_cell_volume 9328.261563
_symmetry_space_group_name_H-M "I 41/A M D"
_symmetry_group_IT_number 141
_space_group.IT_coordinate_system_code '2'
_symmetry_cell_setting 'tetragonal'
loop_
_space_group_symop_operation_xyz
x,y,z
1/4-y,3/4+x,1/4+z
-x,1/2-y,z
1/4+y,1/4-x,3/4+z
x,-y,-z
-x,1/2+y,-z
1/4+y,3/4+x,1/4-z
1/4-y,1/4-x,3/4-z
-x,-y,-z
3/4+y,1/4-x,3/4-z
x,1/2+y,-z
3/4-y,3/4+x,1/4-z
-x,y,z
x,1/2-y,z
3/4-y,1/4-x,3/4+z
3/4+y,3/4+x,1/4+z
1/2+x,1/2+y,1/2+z
3/4-y,1/4+x,3/4+z
1/2-x,-y,1/2+z
3/4+y,3/4-x,1/4+z
1/2+x,1/2-y,1/2-z
1/2-x,y,1/2-z
3/4+y,1/4+x,3/4-z
3/4-y,3/4-x,1/4-z
1/2-x,1/2-y,1/2-z
1/4+y,3/4-x,1/4-z
1/2+x,y,1/2-z
1/4-y,1/4+x,3/4-z
1/2-x,1/2+y,1/2+z
1/2+x,-y,1/2+z
1/4-y,3/4-x,1/4+z
1/4+y,1/4+x,3/4+z
loop_
_atom_site_type_symbol
_atom_site_label
_atom_site_fract_x
_atom_site_fract_y
_atom_site_fract_z
Si Si1 0.634171 0.080833 0.381481
Si Si2 0.258280 0.835924 0.040020
Si Si3 0.302195 0.377892 0.701575
Si Si4 0.581011 0.168990 0.125000
Si Si5 0.581854 0.016277 0.174303
Si Si6 0.000000 0.668714 0.923871
Si Si7 0.000000 0.665800 0.040194
O O1 0.612153 0.073281 0.325181
O O2 0.712464 0.113325 0.396455
O O3 0.572336 0.128840 0.406797
O O4 0.627197 0.002008 0.406357
O O5 0.241096 0.750000 0.051898
O O6 0.199323 0.898953 0.047866
O O7 0.266459 0.838700 0.982152
O O8 0.250000 0.370355 0.750000
O O9 0.364300 0.317186 0.696943
O O10 0.585430 0.250000 0.147714
O O11 0.587819 0.100066 0.159464
O O12 0.500000 0.990548 0.162166
O O13 0.000000 0.750000 0.904484
O O14 0.000000 0.670847 0.981892
O O15 0.000000 0.750000 0.058365
#
# Coordination Sequence:
#
# PCOD9573207 Si02
#       7
#    32  32  32  16  32  16  16
#     4  12  23  39  62  92 126 170 216 270 324 390
#     4  11  24  41  61  90 131 171 213 268 331 387
#     4  12  22  37  60  89 119 167 220 269 319 390
#     4   9  20  42  70  96 126 166 207 258 326 400
#     4  10  22  41  66  95 128 167 213 263 328 400
#     4  11  21  37  59  89 126 162 210 270 329 388
#     4  11  22  38  62  84 120 168 222 274 326 380
#
# _framework density 18.867394999999998
#
# number of rings (size 3 to 8) (size 9 to 14) (size 15 to 20)
#    0.000    1.000    4.545    2.455    2.545    2.909 
#    0.000    1.818    0.000    2.182    0.000    0.000 
#    0.000    0.000    0.000    0.000    0.000    0.000 
#
# Total GULP energy -490575.569173 kJ/mol
# GULP energy per Si atom -5574.722377 kJ/mol
# Density = 1.882445 g / cm^3
# Si number density = 18.867395 Si / 1000 Ang^3
#
#
#
# Elastic Constant Matrix: (Units=GPa)
#
#
# Indices 1 2 3 4 5 6 
#
# 1 120.6675 63.7817 22.0621 0.0000 0.0000 0.0000
# 2 63.7817 120.6685 22.0611 0.0000 0.0000 0.0000
# 3 22.0621 22.0611 16.5055 0.0000 0.0000 0.0000
# 4 0.0000 0.0000 0.0000 -0.0050 0.0000 0.0000
# 5 0.0000 0.0000 0.0000 0.0000 -0.0033 0.0000
# 6 0.0000 0.0000 0.0000 0.0000 0.0000 174.9470
#
#
#
# Elastic Compliance Matrix: (Units=1/GPa)
#
#
# Indices 1 2 3 4 5 6 
#
# 1 0.012775 -0.004805 -0.010653 -0.000001 -0.000001 0.000000
# 2 -0.004805 0.012774 -0.010652 0.000000 0.000000 0.000000
# 3 -0.010653 -0.010652 0.089063 0.000006 0.000004 0.000000
# 4 -0.000001 0.000000 0.000006********** -0.012457 0.000000
# 5 -0.000001 0.000000 0.000004 -0.012457********** 0.000000
# 6 0.000000 0.000000 0.000000 0.000000 0.000000 0.005716
#
#
# Mechanical properties :
#
#
# Convention : Reuss Voigt Hill
#
# Bulk Modulus (GPa) = 16.02767 52.62792 34.32779
# Shear Modulus (GPa) = -0.00987 44.98352 22.48683
#
# Velocity S-wave (km/s) = -0.07239 4.88812 3.45604
# Velocity P-wave (km/s) = 2.91657 7.73385 5.84460
#
# Compressibility (1/GPa) = 0.06239210
#
# Stress axis : x y z
#
# Youngs Moduli (GPa) = 78.28027 78.28331 11.22801
#
# Poissons Ratio (x) = 0.37612 0.11962
# Poissons Ratio (y) = 0.37610 0.11960
# Poissons Ratio (z) = 0.83395 0.83386
#
# Static dielectric constant tensor:
#      x y z
#    x 1.666770 0.000000 0.000000 
#    y 0.000000 1.666770 0.000000 
#    z 0.000000 0.000000 1.725110 
# 
# From -- ./inp_files/12961.got.cif
#   From: 2010.05.17/outbox.cif.g08.bks.cpg/sg141_7_cif.got.tgz:12961.got - 2010.05.20 13:30:51.
