data_PCOD9573642
_publ_section_title
;
Structure prediction by ZEFSAII (Michael W. Deem and Ramdas Pophale) SiO2 
 PCOD9573642
Probable space group: I 41/A C D
;
_chemical_formula_sum "Si O2"
_cell_formula_units_Z 80
_cell_length_a 24.965103
_cell_length_b 24.965103
_cell_length_c 5.418265
_cell_angle_alpha 90.000000
_cell_angle_beta 90.000000
_cell_angle_gamma 90.000000
_cell_volume 3376.968164
_symmetry_space_group_name_H-M "I 41/A C D"
_symmetry_group_IT_number 142
_space_group.IT_coordinate_system_code '2'
_symmetry_cell_setting 'tetragonal'
loop_
_space_group_symop_operation_xyz
x,y,z
1/4-y,3/4+x,1/4+z
-x,1/2-y,z
1/4+y,1/4-x,3/4+z
x,-y,1/2-z
1/2-x,y,-z
3/4+y,1/4+x,1/4-z
1/4-y,1/4-x,1/4-z
-x,-y,-z
3/4+y,1/4-x,3/4-z
x,1/2+y,-z
3/4-y,3/4+x,1/4-z
-x,y,1/2+z
1/2+x,-y,z
1/4-y,3/4-x,3/4+z
3/4+y,3/4+x,3/4+z
1/2+x,1/2+y,1/2+z
3/4-y,1/4+x,3/4+z
1/2-x,-y,1/2+z
3/4+y,3/4-x,1/4+z
1/2+x,1/2-y,-z
-x,1/2+y,1/2-z
1/4+y,3/4+x,3/4-z
3/4-y,3/4-x,3/4-z
1/2-x,1/2-y,1/2-z
1/4+y,3/4-x,1/4-z
1/2+x,y,1/2-z
1/4-y,1/4+x,3/4-z
1/2-x,1/2+y,z
x,1/2-y,1/2+z
3/4-y,1/4-x,1/4+z
1/4+y,1/4+x,1/4+z
loop_
_atom_site_type_symbol
_atom_site_label
_atom_site_fract_x
_atom_site_fract_y
_atom_site_fract_z
Si Si1 0.605340 0.000000 0.250000
Si Si2 0.524696 0.878944 0.824250
Si Si3 0.365743 0.384257 0.375000
Si Si4 0.750000 0.711462 0.000000
O O1 0.632898 0.057716 0.250954
O O2 0.573524 0.998713 0.505595
O O3 0.510877 0.856088 0.552217
O O4 0.510458 0.941991 0.774234
O O5 0.585352 0.878142 0.928906
#
# Coordination Sequence:
#
# PCOD9573642 Si02
#       4
#    16  32  16  16
#     4  10  22  39  65  88 130 172 201 263 306 396
#     4  11  22  37  63  90 123 161 204 266 312 367
#     4  10  24  44  62  95 128 164 216 248 322 378
#     4  10  20  37  61  94 120 158 213 267 330 358
#
# _framework density 23.689889999999998
#
# number of rings (size 3 to 8) (size 9 to 14) (size 15 to 20)
#    0.000    1.600    0.000    6.000    0.000   16.000 
#    0.000    8.000    0.000    3.600    0.000    0.000 
#    0.000    0.000    0.000    0.000    0.000    0.000 
#
# Total GULP energy -223162.427584 kJ/mol
# GULP energy per Si atom -5579.060690 kJ/mol
# Density = 2.363597 g / cm^3
# Si number density = 23.689890 Si / 1000 Ang^3
#
#
#
# Elastic Constant Matrix: (Units=GPa)
#
#
# Indices 1 2 3 4 5 6 
#
# 1 106.4653 6.2862 37.2775 0.0000 0.0000 0.0000
# 2 6.2862 106.4653 37.2775 0.0000 0.0000 0.0000
# 3 37.2775 37.2775 214.2981 0.0000 0.0000 0.0000
# 4 0.0000 0.0000 0.0000 32.3874 0.0000 0.0000
# 5 0.0000 0.0000 0.0000 0.0000 32.3874 0.0000
# 6 0.0000 0.0000 0.0000 0.0000 0.0000 -555.3869
#
#
#
# Elastic Compliance Matrix: (Units=1/GPa)
#
#
# Indices 1 2 3 4 5 6 
#
# 1 0.010002 0.000020 -0.001743 0.000000 0.000000 0.000000
# 2 0.000020 0.010002 -0.001743 0.000000 0.000000 0.000000
# 3 -0.001743 -0.001743 0.005273 0.000000 0.000000 0.000000
# 4 0.000000 0.000000 0.000000 0.030876 0.000000 0.000000
# 5 0.000000 0.000000 0.000000 0.000000 0.030876 0.000000
# 6 0.000000 0.000000 0.000000 0.000000 0.000000 -0.001801
#
#
# Mechanical properties :
#
#
# Convention : Reuss Voigt Hill
#
# Bulk Modulus (GPa) = 54.51593 65.43455 59.97524
# Shear Modulus (GPa) = 50.87676 -75.02993 -12.07659
#
# Velocity S-wave (km/s) = 4.63926 -5.63387 -2.26028
# Velocity P-wave (km/s) = 7.19439 3.82614 4.30813
#
# Compressibility (1/GPa) = 0.01834326
#
# Stress axis : x y z
#
# Youngs Moduli (GPa) = 99.98042 99.98042 189.64908
#
# Poissons Ratio (x) = -0.00198 0.33062
# Poissons Ratio (y) = -0.00198 0.33062
# Poissons Ratio (z) = 0.17430 0.17430
#
# Static dielectric constant tensor:
#      x y z
#    x 1.934480 0.000000 0.000000 
#    y 0.000000 1.934480 0.000000 
#    z 0.000000 0.000000 1.944060 
# 
# From -- ./inp_files/618.got.cif
#   From: 2010.05.17/outbox.cif.g08.bks.cpg/sg142_1_cif.got.tgz:618.got - 2010.05.20 13:39:18.
