data_PCOD9573332
_publ_section_title
;
Structure prediction by ZEFSAII (Michael W. Deem and Ramdas Pophale) SiO2 
 PCOD9573332
Probable space group: I 41/A M D
;
_chemical_formula_sum "Si O2"
_cell_formula_units_Z 112
_cell_length_a 14.578882
_cell_length_b 14.578882
_cell_length_c 28.367088
_cell_angle_alpha 90.000000
_cell_angle_beta 90.000000
_cell_angle_gamma 90.000000
_cell_volume 6029.248689
_symmetry_space_group_name_H-M "I 41/A M D"
_symmetry_group_IT_number 141
_space_group.IT_coordinate_system_code '2'
_symmetry_cell_setting 'tetragonal'
loop_
_space_group_symop_operation_xyz
x,y,z
1/4-y,3/4+x,1/4+z
-x,1/2-y,z
1/4+y,1/4-x,3/4+z
x,-y,-z
-x,1/2+y,-z
1/4+y,3/4+x,1/4-z
1/4-y,1/4-x,3/4-z
-x,-y,-z
3/4+y,1/4-x,3/4-z
x,1/2+y,-z
3/4-y,3/4+x,1/4-z
-x,y,z
x,1/2-y,z
3/4-y,1/4-x,3/4+z
3/4+y,3/4+x,1/4+z
1/2+x,1/2+y,1/2+z
3/4-y,1/4+x,3/4+z
1/2-x,-y,1/2+z
3/4+y,3/4-x,1/4+z
1/2+x,1/2-y,1/2-z
1/2-x,y,1/2-z
3/4+y,1/4+x,3/4-z
3/4-y,3/4-x,1/4-z
1/2-x,1/2-y,1/2-z
1/4+y,3/4-x,1/4-z
1/2+x,y,1/2-z
1/4-y,1/4+x,3/4-z
1/2-x,1/2+y,1/2+z
1/2+x,-y,1/2+z
1/4-y,3/4-x,1/4+z
1/4+y,1/4+x,3/4+z
loop_
_atom_site_type_symbol
_atom_site_label
_atom_site_fract_x
_atom_site_fract_y
_atom_site_fract_z
Si Si1 0.600747 0.250000 0.089373
Si Si2 0.692782 0.939842 0.298522
Si Si3 0.189097 0.750000 0.916671
Si Si4 0.890229 0.430295 0.128799
Si Si5 0.606644 0.750000 0.481203
O O1 0.500000 0.250000 0.062595
O O2 0.586379 0.336379 0.125000
O O3 0.702354 0.250000 0.069666
O O4 0.750000 0.950802 0.250000
O O5 0.749482 0.877644 0.335370
O O6 0.593896 0.896352 0.288874
O O7 0.665266 0.032178 0.326099
O O8 0.158619 0.837798 0.887388
O O9 0.130417 0.750000 0.963926
O O10 0.000000 0.421044 0.136804
O O11 0.500000 0.750000 0.472842
#
# Coordination Sequence:
#
# PCOD9573332 Si02
#       5
#    16  32  16  32  16
#     4   6  18  34  58  82 122 154 207 252 295 369
#     4  11  24  41  64  90 132 171 218 255 327 387
#     4  12  22  36  71  95 126 166 217 269 325 368
#     4  11  24  41  64  96 130 171 210 269 324 388
#     4  12  24  40  62  91 130 167 213 270 324 387
#
# _framework density 18.576112999999999
#
# number of rings (size 3 to 8) (size 9 to 14) (size 15 to 20)
#    0.857    0.571    4.286    2.143    4.000    1.143 
#    0.000    0.714    3.143    0.000    0.000    0.000 
#    0.000    0.000    0.000    0.000    0.000    0.000 
#
# Total GULP energy -311898.391138 kJ/mol
# GULP energy per Si atom -5569.614127 kJ/mol
# Density = 1.853383 g / cm^3
# Si number density = 18.576113 Si / 1000 Ang^3
#
#
#
# Elastic Constant Matrix: (Units=GPa)
#
#
# Indices 1 2 3 4 5 6 
#
# 1 107.4175 64.6952 36.3183 0.0000 0.0000 0.0000
# 2 64.6952 107.4175 36.3183 0.0000 0.0000 0.0000
# 3 36.3183 36.3183 73.2715 0.0000 0.0000 0.0000
# 4 0.0000 0.0000 0.0000 24.4750 0.0000 0.0000
# 5 0.0000 0.0000 0.0000 0.0000 24.4750 0.0000
# 6 0.0000 0.0000 0.0000 0.0000 0.0000 24.4261
#
#
#
# Elastic Compliance Matrix: (Units=1/GPa)
#
#
# Indices 1 2 3 4 5 6 
#
# 1 0.015377 -0.008030 -0.003642 0.000000 0.000000 0.000000
# 2 -0.008030 0.015377 -0.003642 0.000000 0.000000 0.000000
# 3 -0.003642 -0.003642 0.017258 0.000000 0.000000 0.000000
# 4 0.000000 0.000000 0.000000 0.040858 0.000000 0.000000
# 5 0.000000 0.000000 0.000000 0.000000 0.040858 0.000000
# 6 0.000000 0.000000 0.000000 0.000000 0.000000 0.040940
#
#
# Mechanical properties :
#
#
# Convention : Reuss Voigt Hill
#
# Bulk Modulus (GPa) = 57.51977 62.53004 60.02491
# Shear Modulus (GPa) = 24.14414 24.72688 24.43551
#
# Velocity S-wave (km/s) = 3.60910 3.65240 3.63082
# Velocity P-wave (km/s) = 6.95695 7.17783 7.06825
#
# Compressibility (1/GPa) = 0.01738533
#
# Stress axis : x y z
#
# Youngs Moduli (GPa) = 65.03215 65.03215 57.94411
#
# Poissons Ratio (x) = 0.52221 0.21101
# Poissons Ratio (y) = 0.52221 0.21101
# Poissons Ratio (z) = 0.23683 0.23683
#
# Static dielectric constant tensor:
#      x y z
#    x 1.597730 0.000000 0.000000 
#    y 0.000000 1.597730 0.000000 
#    z 0.000000 0.000000 1.182330 
# 
# From -- ./inp_files/12551.got.cif
#   From: 2010.05.17/outbox.cif.g08.bks.cpg/sg141_7_cif.got.tgz:12551.got - 2010.05.20 13:30:51.
