data_PCOD9573385
_publ_section_title
;
Structure prediction by ZEFSAII (Michael W. Deem and Ramdas Pophale) SiO2 
 PCOD9573385
Probable space group: I 41/A M D
;
_chemical_formula_sum "Si O2"
_cell_formula_units_Z 80
_cell_length_a 18.000000
_cell_length_b 18.000000
_cell_length_c 27.000000
_cell_angle_alpha 90.000000
_cell_angle_beta 90.000000
_cell_angle_gamma 90.000000
_cell_volume 8748.000000
_symmetry_space_group_name_H-M "I 41/A M D"
_symmetry_group_IT_number 141
_space_group.IT_coordinate_system_code '2'
_symmetry_cell_setting 'tetragonal'
loop_
_space_group_symop_operation_xyz
x,y,z
1/4-y,3/4+x,1/4+z
-x,1/2-y,z
1/4+y,1/4-x,3/4+z
x,-y,-z
-x,1/2+y,-z
1/4+y,3/4+x,1/4-z
1/4-y,1/4-x,3/4-z
-x,-y,-z
3/4+y,1/4-x,3/4-z
x,1/2+y,-z
3/4-y,3/4+x,1/4-z
-x,y,z
x,1/2-y,z
3/4-y,1/4-x,3/4+z
3/4+y,3/4+x,1/4+z
1/2+x,1/2+y,1/2+z
3/4-y,1/4+x,3/4+z
1/2-x,-y,1/2+z
3/4+y,3/4-x,1/4+z
1/2+x,1/2-y,1/2-z
1/2-x,y,1/2-z
3/4+y,1/4+x,3/4-z
3/4-y,3/4-x,1/4-z
1/2-x,1/2-y,1/2-z
1/4+y,3/4-x,1/4-z
1/2+x,y,1/2-z
1/4-y,1/4+x,3/4-z
1/2-x,1/2+y,1/2+z
1/2+x,-y,1/2+z
1/4-y,3/4-x,1/4+z
1/4+y,1/4+x,3/4+z
loop_
_atom_site_type_symbol
_atom_site_label
_atom_site_fract_x
_atom_site_fract_y
_atom_site_fract_z
Si Si1 0.648041 0.041968 0.335733
Si Si2 0.827269 0.575007 0.568482
Si Si3 0.589663 0.450723 0.756309
Si Si4 0.589455 0.447403 0.450722
Si Si5 0.912726 0.337089 0.513012
O O1 0.736570 0.056466 0.323978
O O2 0.627002 0.034720 0.395214
O O3 0.606536 0.113008 0.311152
O O4 0.619955 0.974915 0.298902
O O5 0.846449 0.596449 0.625000
O O6 0.758479 0.620658 0.544536
O O7 0.890340 0.603247 0.529894
O O8 0.500000 0.455763 0.756524
O O9 0.620058 0.373018 0.778165
O O10 0.605239 0.500000 0.500000
O O11 0.500000 0.447323 0.443433
O O12 0.897175 0.250000 0.498682
O O13 0.000000 0.342905 0.523363
#
# Coordination Sequence:
#
# PCOD9573385 Si02
#       5
#    32  32  32  32  32
#     4  11  22  41  65  89 122 164 210 262 313 369
#     4  11  21  37  61  92 121 162 216 264 301 361
#     4  11  23  39  62  91 126 164 203 255 318 375
#     4  11  24  42  66  95 124 160 210 264 322 384
#     4  10  22  39  59  88 131 174 209 251 310 375
#
# _framework density 9.1449470000000002
#
# number of rings (size 3 to 8) (size 9 to 14) (size 15 to 20)
#    0.000    1.200    2.000    7.200    0.000    4.400 
#    0.000    1.000    0.000    0.000    0.000    2.800 
#    0.000    0.000    0.000    0.000    0.000    0.000 
#
# Total GULP energy -445700.814150 kJ/mol
# GULP energy per Si atom -5571.260177 kJ/mol
# Density = 0.912413 g / cm^3
# Si number density = 9.144947 Si / 1000 Ang^3
#
#
#
# Elastic Constant Matrix: (Units=GPa)
#
#
# Indices 1 2 3 4 5 6 
#
# 1 119.2723 20.3779 41.2978 0.0000 0.0000 0.0000
# 2 20.3779 119.2723 41.2978 0.0000 0.0000 0.0000
# 3 41.2978 41.2978 176.5592 0.0000 0.0000 0.0000
# 4 0.0000 0.0000 0.0000 31.7091 0.0000 0.0000
# 5 0.0000 0.0000 0.0000 0.0000 31.7091 0.0000
# 6 0.0000 0.0000 0.0000 0.0000 0.0000 31.4272
#
#
#
# Elastic Compliance Matrix: (Units=1/GPa)
#
#
# Indices 1 2 3 4 5 6 
#
# 1 0.009211 -0.000901 -0.001944 0.000000 0.000000 0.000000
# 2 -0.000901 0.009211 -0.001944 0.000000 0.000000 0.000000
# 3 -0.001944 -0.001944 0.006573 0.000000 0.000000 0.000000
# 4 0.000000 0.000000 0.000000 0.031537 0.000000 0.000000
# 5 0.000000 0.000000 0.000000 0.000000 0.031537 0.000000
# 6 0.000000 0.000000 0.000000 0.000000 0.000000 0.031820
#
#
# Mechanical properties :
#
#
# Convention : Reuss Voigt Hill
#
# Bulk Modulus (GPa) = 64.85647 69.00565 66.93106
# Shear Modulus (GPa) = 37.14583 39.77775 38.46179
#
# Velocity S-wave (km/s) = 4.51149 4.66859 4.59071
# Velocity P-wave (km/s) = 7.91678 8.17751 8.04820
#
# Compressibility (1/GPa) = 0.01541866
#
# Stress axis : x y z
#
# Youngs Moduli (GPa) = 108.56450 108.56450 152.13370
#
# Poissons Ratio (x) = 0.09778 0.29572
# Poissons Ratio (y) = 0.09778 0.29572
# Poissons Ratio (z) = 0.21103 0.21103
#
# Static dielectric constant tensor:
#      x y z
#    x 1.674450 0.000000 0.000000 
#    y 0.000000 1.674450 0.000000 
#    z 0.000000 0.000000 1.641390 
# 
# From -- ./inp_files/12760.got.cif
#   From: 2010.05.17/outbox.ucp.g08.bks.cvg/sg141_7_cif.got.tgz:12760.got - 2010.06.11 11:43:24.
