data_PCOD9573916
_publ_section_title
;
Structure prediction by ZEFSAII (Michael W. Deem and Ramdas Pophale) SiO2 
 PCOD9573916
Probable space group: I 41/A C D
;
_chemical_formula_sum "Si O2"
_cell_formula_units_Z 176
_cell_length_a 17.946348
_cell_length_b 17.946348
_cell_length_c 25.903704
_cell_angle_alpha 90.000000
_cell_angle_beta 90.000000
_cell_angle_gamma 90.000000
_cell_volume 8342.842382
_symmetry_space_group_name_H-M "I 41/A C D"
_symmetry_group_IT_number 142
_space_group.IT_coordinate_system_code '2'
_symmetry_cell_setting 'tetragonal'
loop_
_space_group_symop_operation_xyz
x,y,z
1/4-y,3/4+x,1/4+z
-x,1/2-y,z
1/4+y,1/4-x,3/4+z
x,-y,1/2-z
1/2-x,y,-z
3/4+y,1/4+x,1/4-z
1/4-y,1/4-x,1/4-z
-x,-y,-z
3/4+y,1/4-x,3/4-z
x,1/2+y,-z
3/4-y,3/4+x,1/4-z
-x,y,1/2+z
1/2+x,-y,z
1/4-y,3/4-x,3/4+z
3/4+y,3/4+x,3/4+z
1/2+x,1/2+y,1/2+z
3/4-y,1/4+x,3/4+z
1/2-x,-y,1/2+z
3/4+y,3/4-x,1/4+z
1/2+x,1/2-y,-z
-x,1/2+y,1/2-z
1/4+y,3/4+x,3/4-z
3/4-y,3/4-x,3/4-z
1/2-x,1/2-y,1/2-z
1/4+y,3/4-x,1/4-z
1/2+x,y,1/2-z
1/4-y,1/4+x,3/4-z
1/2-x,1/2+y,z
x,1/2-y,1/2+z
3/4-y,1/4-x,1/4+z
1/4+y,1/4+x,1/4+z
loop_
_atom_site_type_symbol
_atom_site_label
_atom_site_fract_x
_atom_site_fract_y
_atom_site_fract_z
Si Si1 0.177376 0.572625 0.875000
Si Si2 0.843245 0.819323 0.781440
Si Si3 0.666235 0.332359 0.609038
Si Si4 0.217486 0.670956 0.305892
Si Si5 0.216091 0.505064 0.310363
Si Si6 0.581889 0.288107 0.053839
O O1 0.171427 0.641428 0.836038
O O2 0.241487 0.548810 0.916480
O O3 0.843919 0.730874 0.791229
O O4 0.773247 0.834720 0.743303
O O5 0.915533 0.842552 0.748806
O O6 0.731957 0.302309 0.646071
O O7 0.695027 0.408562 0.583188
O O8 0.596000 0.339298 0.648055
O O9 0.641851 0.275732 0.564662
O O10 0.190510 0.589143 0.320277
O O11 0.219833 0.500000 0.250000
O O12 0.500000 0.250000 0.054575
#
# Coordination Sequence:
#
# PCOD9573916 Si02
#       6
#    16  32  32  32  32  32
#     4  12  24  48  69 104 142 191 232 308 362 416
#     4  10  25  42  73  95 142 188 239 288 366 431
#     4  11  22  40  70 104 141 187 238 296 363 422
#     4  10  22  43  67 103 135 189 228 292 367 422
#     4  12  25  42  70 107 145 181 237 307 350 429
#     4  11  23  44  70 104 140 192 243 297 353 442
#
# _framework density 21.095928000000001
#
# number of rings (size 3 to 8) (size 9 to 14) (size 15 to 20)
#    0.000    1.091    5.455    0.000    5.091    0.000 
#    3.273    2.273    0.000    0.000    0.000    0.000 
#    0.000    0.000    0.000    0.000    0.000    0.000 
#
# Total GULP energy -490832.988788 kJ/mol
# GULP energy per Si atom -5577.647600 kJ/mol
# Density = 2.104791 g / cm^3
# Si number density = 21.095928 Si / 1000 Ang^3
#
#
#
# Elastic Constant Matrix: (Units=GPa)
#
#
# Indices 1 2 3 4 5 6 
#
# 1 88.6169 51.2493 50.9470 0.0000 0.0000 0.0000
# 2 51.2493 88.6173 50.9474 0.0000 0.0000 0.0000
# 3 50.9470 50.9474 147.6087 0.0000 0.0000 0.0000
# 4 0.0000 0.0000 0.0000 22.8091 0.0000 0.0000
# 5 0.0000 0.0000 0.0000 0.0000 22.8088 0.0000
# 6 0.0000 0.0000 0.0000 0.0000 0.0000 36.0642
#
#
#
# Elastic Compliance Matrix: (Units=1/GPa)
#
#
# Indices 1 2 3 4 5 6 
#
# 1 0.018156 -0.008605 -0.003297 0.000000 0.000000 0.000000
# 2 -0.008605 0.018156 -0.003297 0.000000 0.000000 0.000000
# 3 -0.003297 -0.003297 0.009050 0.000000 0.000000 0.000000
# 4 0.000000 0.000000 0.000000 0.043842 0.000000 0.000000
# 5 0.000000 0.000000 0.000000 0.000000 0.043843 0.000000
# 6 0.000000 0.000000 0.000000 0.000000 0.000000 0.027728
#
#
# Mechanical properties :
#
#
# Convention : Reuss Voigt Hill
#
# Bulk Modulus (GPa) = 66.81626 70.12561 68.47094
# Shear Modulus (GPa) = 25.48927 27.78304 26.63615
#
# Velocity S-wave (km/s) = 3.47977 3.63297 3.55719
# Velocity P-wave (km/s) = 6.92000 7.13522 7.02843
#
# Compressibility (1/GPa) = 0.01496642
#
# Stress axis : x y z
#
# Youngs Moduli (GPa) = 55.07772 55.07778 110.49307
#
# Poissons Ratio (x) = 0.47393 0.36425
# Poissons Ratio (y) = 0.47393 0.36426
# Poissons Ratio (z) = 0.18157 0.18157
#
# Static dielectric constant tensor:
#      x y z
#    x 1.788440 0.000000 0.000000 
#    y 0.000000 1.788440 0.000000 
#    z 0.000000 0.000000 1.784250 
# 
# From -- ./inp_files/11439.got.cif
#   From: 2010.05.17/outbox.cif.g08.bks.cpg/sg142_6_cif.got.tgz:11439.got - 2010.05.20 13:39:18.
