data_PCOD9573007
_publ_section_title
;
Structure prediction by ZEFSAII (Michael W. Deem and Ramdas Pophale) SiO2 
 PCOD9573007
Probable space group: I 41/A M D
;
_chemical_formula_sum "Si O2"
_cell_formula_units_Z 160
_cell_length_a 21.048177
_cell_length_b 21.048177
_cell_length_c 18.136254
_cell_angle_alpha 90.000000
_cell_angle_beta 90.000000
_cell_angle_gamma 90.000000
_cell_volume 8034.827622
_symmetry_space_group_name_H-M "I 41/A M D"
_symmetry_group_IT_number 141
_space_group.IT_coordinate_system_code '2'
_symmetry_cell_setting 'tetragonal'
loop_
_space_group_symop_operation_xyz
x,y,z
1/4-y,3/4+x,1/4+z
-x,1/2-y,z
1/4+y,1/4-x,3/4+z
x,-y,-z
-x,1/2+y,-z
1/4+y,3/4+x,1/4-z
1/4-y,1/4-x,3/4-z
-x,-y,-z
3/4+y,1/4-x,3/4-z
x,1/2+y,-z
3/4-y,3/4+x,1/4-z
-x,y,z
x,1/2-y,z
3/4-y,1/4-x,3/4+z
3/4+y,3/4+x,1/4+z
1/2+x,1/2+y,1/2+z
3/4-y,1/4+x,3/4+z
1/2-x,-y,1/2+z
3/4+y,3/4-x,1/4+z
1/2+x,1/2-y,1/2-z
1/2-x,y,1/2-z
3/4+y,1/4+x,3/4-z
3/4-y,3/4-x,1/4-z
1/2-x,1/2-y,1/2-z
1/4+y,3/4-x,1/4-z
1/2+x,y,1/2-z
1/4-y,1/4+x,3/4-z
1/2-x,1/2+y,1/2+z
1/2+x,-y,1/2+z
1/4-y,3/4-x,1/4+z
1/4+y,1/4+x,3/4+z
loop_
_atom_site_type_symbol
_atom_site_label
_atom_site_fract_x
_atom_site_fract_y
_atom_site_fract_z
Si Si1 0.857311 0.178219 0.555710
Si Si2 0.923692 0.497221 0.917711
Si Si3 0.500000 0.653828 0.095495
Si Si4 0.895230 0.645230 0.125000
Si Si5 0.140374 0.939397 0.554856
Si Si6 0.000000 0.176603 0.753940
Si Si7 0.000000 0.936490 0.546445
O O1 0.840387 0.250000 0.530662
O O2 0.807809 0.156857 0.618610
O O3 0.929037 0.182288 0.587538
O O4 0.853233 0.124338 0.493656
O O5 0.906561 0.429203 0.884885
O O6 0.000000 0.499103 0.922410
O O7 0.896695 0.500000 0.000000
O O8 0.500000 0.632369 0.181375
O O9 0.500000 0.613763 0.019892
O O10 0.916796 0.688404 0.055583
O O11 0.186800 0.936800 0.625000
O O12 0.067684 0.935774 0.586166
O O13 0.146702 0.000000 0.500000
O O14 0.000000 0.250000 0.727350
O O15 0.000000 0.000000 0.500000
#
# Coordination Sequence:
#
# PCOD9573007 Si02
#       7
#    32  32  16  16  32  16  16
#     4  10  21  40  62  94 119 161 212 258 321 385
#     4  10  21  40  59  84 124 164 206 261 316 372
#     4  10  20  36  66  91 124 159 208 276 322 377
#     4  12  21  38  54  88 122 164 218 262 308 381
#     4  10  22  43  65  92 128 162 206 260 320 387
#     4  12  20  34  57  89 120 160 213 270 316 368
#     4   8  18  40  64  94 119 156 206 261 326 387
#
# _framework density 19.913308000000001
#
# number of rings (size 3 to 8) (size 9 to 14) (size 15 to 20)
#    0.000    1.800    2.000    2.100    1.400    1.600 
#   16.200    0.000    0.000    0.000    0.000    0.000 
#    0.000    0.000    0.000    0.000    0.000    0.000 
#
# Total GULP energy -445390.106974 kJ/mol
# GULP energy per Si atom -5567.376337 kJ/mol
# Density = 1.986798 g / cm^3
# Si number density = 19.913308 Si / 1000 Ang^3
#
#
#
# Elastic Constant Matrix: (Units=GPa)
#
#
# Indices 1 2 3 4 5 6 
#
# 1 93.6864 8.8270 37.6228 0.0000 0.0000 0.0000
# 2 8.8270 93.6864 37.6228 0.0000 0.0000 0.0000
# 3 37.6228 37.6228 84.0379 0.0000 0.0000 0.0000
# 4 0.0000 0.0000 0.0000 11.4289 0.0000 0.0000
# 5 0.0000 0.0000 0.0000 0.0000 11.4289 0.0000
# 6 0.0000 0.0000 0.0000 0.0000 0.0000 21.4098
#
#
#
# Elastic Compliance Matrix: (Units=1/GPa)
#
#
# Indices 1 2 3 4 5 6 
#
# 1 0.013157 0.001373 -0.006505 0.000000 0.000000 0.000000
# 2 0.001373 0.013157 -0.006505 0.000000 0.000000 0.000000
# 3 -0.006505 -0.006505 0.017723 0.000000 0.000000 0.000000
# 4 0.000000 0.000000 0.000000 0.087497 0.000000 0.000000
# 5 0.000000 0.000000 0.000000 0.000000 0.087497 0.000000
# 6 0.000000 0.000000 0.000000 0.000000 0.000000 0.046708
#
#
# Mechanical properties :
#
#
# Convention : Reuss Voigt Hill
#
# Bulk Modulus (GPa) = 48.16119 48.83956 48.50038
# Shear Modulus (GPa) = 16.89568 21.34272 19.11920
#
# Velocity S-wave (km/s) = 2.91600 3.27736 3.10194
# Velocity P-wave (km/s) = 5.96450 6.23705 6.10230
#
# Compressibility (1/GPa) = 0.02076360
#
# Stress axis : x y z
#
# Youngs Moduli (GPa) = 76.00684 76.00684 56.42243
#
# Poissons Ratio (x) = -0.10432 0.36700
# Poissons Ratio (y) = -0.10432 0.36700
# Poissons Ratio (z) = 0.49439 0.49439
#
# Static dielectric constant tensor:
#      x y z
#    x 1.677240 0.000000 0.000000 
#    y 0.000000 1.677240 0.000000 
#    z 0.000000 0.000000 1.623940 
# 
# From -- ./inp_files/8721.got.cif
#   From: 2010.05.17/outbox.cif.g08.bks.cpg/sg141_5_cif.got.tgz:8721.got - 2010.05.20 13:30:51.
