data_PCOD9573429
_publ_section_title
;
Structure prediction by ZEFSAII (Michael W. Deem and Ramdas Pophale) SiO2 
 PCOD9573429
Probable space group: I 41/A C D
;
_chemical_formula_sum "Si O2"
_cell_formula_units_Z 160
_cell_length_a 18.525875
_cell_length_b 18.525875
_cell_length_c 24.915286
_cell_angle_alpha 90.000000
_cell_angle_beta 90.000000
_cell_angle_gamma 90.000000
_cell_volume 8551.126587
_symmetry_space_group_name_H-M "I 41/A C D"
_symmetry_group_IT_number 142
_space_group.IT_coordinate_system_code '2'
_symmetry_cell_setting 'tetragonal'
loop_
_space_group_symop_operation_xyz
x,y,z
1/4-y,3/4+x,1/4+z
-x,1/2-y,z
1/4+y,1/4-x,3/4+z
x,-y,1/2-z
1/2-x,y,-z
3/4+y,1/4+x,1/4-z
1/4-y,1/4-x,1/4-z
-x,-y,-z
3/4+y,1/4-x,3/4-z
x,1/2+y,-z
3/4-y,3/4+x,1/4-z
-x,y,1/2+z
1/2+x,-y,z
1/4-y,3/4-x,3/4+z
3/4+y,3/4+x,3/4+z
1/2+x,1/2+y,1/2+z
3/4-y,1/4+x,3/4+z
1/2-x,-y,1/2+z
3/4+y,3/4-x,1/4+z
1/2+x,1/2-y,-z
-x,1/2+y,1/2-z
1/4+y,3/4+x,3/4-z
3/4-y,3/4-x,3/4-z
1/2-x,1/2-y,1/2-z
1/4+y,3/4-x,1/4-z
1/2+x,y,1/2-z
1/4-y,1/4+x,3/4-z
1/2-x,1/2+y,z
x,1/2-y,1/2+z
3/4-y,1/4-x,1/4+z
1/4+y,1/4+x,1/4+z
loop_
_atom_site_type_symbol
_atom_site_label
_atom_site_fract_x
_atom_site_fract_y
_atom_site_fract_z
Si Si1 0.072515 0.543698 0.514379
Si Si2 0.517939 0.429292 0.357931
Si Si3 0.372717 0.001121 0.868880
Si Si4 0.546047 0.822325 0.544155
Si Si5 0.253452 0.397702 0.158369
O O1 0.101442 0.523294 0.572254
O O2 0.052853 0.627682 0.507663
O O3 0.130958 0.524155 0.468259
O O4 0.000000 0.500000 0.500000
O O5 0.442844 0.464365 0.341508
O O6 0.511900 0.374634 0.409485
O O7 0.551804 0.376273 0.314002
O O8 0.572645 0.491845 0.376767
O O9 0.331693 0.934161 0.841523
O O10 0.314595 0.064595 0.875000
O O11 0.500000 0.750000 0.539182
O O12 0.201746 0.451746 0.125000
#
# Coordination Sequence:
#
# PCOD9573429 Si02
#       5
#    32  32  32  32  32
#     4  11  21  39  63  87 123 163 201 252 319 365
#     4  10  17  36  59  91 119 156 196 255 298 357
#     4  11  23  36  65  92 121 160 203 250 308 370
#     4  10  18  32  64  91 117 150 207 254 298 354
#     4  10  20  38  59  87 123 160 196 249 313 360
#
# _framework density 18.710985000000001
#
# number of rings (size 3 to 8) (size 9 to 14) (size 15 to 20)
#    0.000    1.600    8.000    2.400    0.000    3.200 
#    0.000    2.000    4.400    0.000    0.000    0.000 
#    0.000    0.000    0.000    0.000    0.000    0.000 
#
# Total GULP energy -446132.603245 kJ/mol
# GULP energy per Si atom -5576.657541 kJ/mol
# Density = 1.866840 g / cm^3
# Si number density = 18.710985 Si / 1000 Ang^3
#
#
#
# Elastic Constant Matrix: (Units=GPa)
#
#
# Indices 1 2 3 4 5 6 
#
# 1 98.4814 50.3433 2.6953 0.0000 0.0000 0.0000
# 2 50.3433 98.4814 2.6953 0.0000 0.0000 0.0000
# 3 2.6953 2.6953 30.6363 0.0000 0.0000 0.0000
# 4 0.0000 0.0000 0.0000 18.6174 0.0000 0.0000
# 5 0.0000 0.0000 0.0000 0.0000 18.6174 0.0000
# 6 0.0000 0.0000 0.0000 0.0000 0.0000 52.1021
#
#
#
# Elastic Compliance Matrix: (Units=1/GPa)
#
#
# Indices 1 2 3 4 5 6 
#
# 1 0.013757 -0.007016 -0.000593 0.000000 0.000000 0.000000
# 2 -0.007016 0.013757 -0.000593 0.000000 0.000000 0.000000
# 3 -0.000593 -0.000593 0.032745 0.000000 0.000000 0.000000
# 4 0.000000 0.000000 0.000000 0.053713 0.000000 0.000000
# 5 0.000000 0.000000 0.000000 0.000000 0.053713 0.000000
# 6 0.000000 0.000000 0.000000 0.000000 0.000000 0.019193
#
#
# Mechanical properties :
#
#
# Convention : Reuss Voigt Hill
#
# Bulk Modulus (GPa) = 22.80252 37.67408 30.23830
# Shear Modulus (GPa) = 22.94605 29.32506 26.13555
#
# Velocity S-wave (km/s) = 3.50571 3.96316 3.74144
# Velocity P-wave (km/s) = 5.34788 6.41254 5.90426
#
# Compressibility (1/GPa) = 0.04385481
#
# Stress axis : x y z
#
# Youngs Moduli (GPa) = 72.68937 72.68937 30.53870
#
# Poissons Ratio (x) = 0.51002 0.01811
# Poissons Ratio (y) = 0.51002 0.01811
# Poissons Ratio (z) = 0.04311 0.04311
#
# Static dielectric constant tensor:
#      x y z
#    x 1.666790 0.000000 0.000000 
#    y 0.000000 1.666790 0.000000 
#    z 0.000000 0.000000 1.716390 
# 
# From -- ./inp_files/11338.got.cif
#   From: 2010.05.17/outbox.cif.g08.bks.cpg/sg142_6_cif.got.tgz:11338.got - 2010.05.20 13:39:18.
