data_PCOD9573964
_publ_section_title
;
Structure prediction by ZEFSAII (Michael W. Deem and Ramdas Pophale) SiO2 
 PCOD9573964
Probable space group: I 41/A C D
;
_chemical_formula_sum "Si O2"
_cell_formula_units_Z 176
_cell_length_a 18.295546
_cell_length_b 18.295546
_cell_length_c 27.415029
_cell_angle_alpha 90.000000
_cell_angle_beta 90.000000
_cell_angle_gamma 90.000000
_cell_volume 9176.550506
_symmetry_space_group_name_H-M "I 41/A C D"
_symmetry_group_IT_number 142
_space_group.IT_coordinate_system_code '2'
_symmetry_cell_setting 'tetragonal'
loop_
_space_group_symop_operation_xyz
x,y,z
1/4-y,3/4+x,1/4+z
-x,1/2-y,z
1/4+y,1/4-x,3/4+z
x,-y,1/2-z
1/2-x,y,-z
3/4+y,1/4+x,1/4-z
1/4-y,1/4-x,1/4-z
-x,-y,-z
3/4+y,1/4-x,3/4-z
x,1/2+y,-z
3/4-y,3/4+x,1/4-z
-x,y,1/2+z
1/2+x,-y,z
1/4-y,3/4-x,3/4+z
3/4+y,3/4+x,3/4+z
1/2+x,1/2+y,1/2+z
3/4-y,1/4+x,3/4+z
1/2-x,-y,1/2+z
3/4+y,3/4-x,1/4+z
1/2+x,1/2-y,-z
-x,1/2+y,1/2-z
1/4+y,3/4+x,3/4-z
3/4-y,3/4-x,3/4-z
1/2-x,1/2-y,1/2-z
1/4+y,3/4-x,1/4-z
1/2+x,y,1/2-z
1/4-y,1/4+x,3/4-z
1/2-x,1/2+y,z
x,1/2-y,1/2+z
3/4-y,1/4-x,1/4+z
1/4+y,1/4+x,1/4+z
loop_
_atom_site_type_symbol
_atom_site_label
_atom_site_fract_x
_atom_site_fract_y
_atom_site_fract_z
Si Si1 0.647670 0.785019 0.623076
Si Si2 0.809956 0.978012 0.967282
Si Si3 0.741648 0.190234 0.208674
Si Si4 0.135998 0.885998 0.375000
Si Si5 0.116239 0.207099 0.372768
Si Si6 0.264776 0.357878 0.055260
O O1 0.566685 0.816685 0.625000
O O2 0.690149 0.799911 0.673120
O O3 0.649179 0.699063 0.613391
O O4 0.693905 0.832797 0.584923
O O5 0.841324 0.933014 0.922190
O O6 0.778903 0.054783 0.946288
O O7 0.750000 0.936430 0.000000
O O8 0.867819 0.995358 0.009392
O O9 0.750000 0.250000 0.250000
O O10 0.668587 0.197415 0.174987
O O11 0.090840 0.291652 0.378812
O O12 0.166331 0.179889 0.417855
O O13 0.250000 0.334566 0.000000
#
# Coordination Sequence:
#
# PCOD9573964 Si02
#       6
#    32  32  32  16  32  32
#     4  11  24  43  66  94 133 176 213 270 337 402
#     4  11  25  42  67  98 126 171 222 275 329 395
#     4  11  22  43  66  93 133 178 218 271 335 396
#     4  12  27  42  66 100 134 167 226 278 330 402
#     4  10  23  40  66 100 135 176 224 281 338 402
#     4  10  23  42  68  94 129 172 224 271 327 403
#
# _framework density 19.179319
#
# number of rings (size 3 to 8) (size 9 to 14) (size 15 to 20)
#    0.000    1.273    1.818    3.545    8.909    2.182 
#    0.000    1.818    0.000    0.000    0.000    0.000 
#    0.000    0.000    0.000    0.000    0.000    0.000 
#
# Total GULP energy -491096.318344 kJ/mol
# GULP energy per Si atom -5580.639981 kJ/mol
# Density = 1.913567 g / cm^3
# Si number density = 19.179319 Si / 1000 Ang^3
#
#
#
# Elastic Constant Matrix: (Units=GPa)
#
#
# Indices 1 2 3 4 5 6 
#
# 1 116.0305 52.5843 54.5968 0.0000 0.0000 0.0000
# 2 52.5843 116.0305 54.5968 0.0000 0.0000 0.0000
# 3 54.5968 54.5968 145.3113 0.0000 0.0000 0.0000
# 4 0.0000 0.0000 0.0000 20.9757 0.0000 0.0000
# 5 0.0000 0.0000 0.0000 0.0000 20.9757 0.0000
# 6 0.0000 0.0000 0.0000 0.0000 0.0000 28.9933
#
#
#
# Elastic Compliance Matrix: (Units=1/GPa)
#
#
# Indices 1 2 3 4 5 6 
#
# 1 0.011800 -0.003962 -0.002945 0.000000 0.000000 0.000000
# 2 -0.003962 0.011800 -0.002945 0.000000 0.000000 0.000000
# 3 -0.002945 -0.002945 0.009095 0.000000 0.000000 0.000000
# 4 0.000000 0.000000 0.000000 0.047674 0.000000 0.000000
# 5 0.000000 0.000000 0.000000 0.000000 0.047674 0.000000
# 6 0.000000 0.000000 0.000000 0.000000 0.000000 0.034491
#
#
# Mechanical properties :
#
#
# Convention : Reuss Voigt Hill
#
# Bulk Modulus (GPa) = 76.97739 77.88092 77.42915
# Shear Modulus (GPa) = 26.80013 28.56188 27.68100
#
# Velocity S-wave (km/s) = 3.74216 3.86320 3.80317
# Velocity P-wave (km/s) = 7.67427 7.78422 7.72944
#
# Compressibility (1/GPa) = 0.01299083
#
# Stress axis : x y z
#
# Youngs Moduli (GPa) = 84.74901 84.74900 109.95491
#
# Poissons Ratio (x) = 0.33576 0.32380
# Poissons Ratio (y) = 0.33576 0.32380
# Poissons Ratio (z) = 0.24957 0.24957
#
# Static dielectric constant tensor:
#      x y z
#    x 1.910280 0.000000 0.000000 
#    y 0.000000 1.910280 0.000000 
#    z 0.000000 0.000000 1.464270 
# 
# From -- ./inp_files/11434.got.cif
#   From: 2010.05.17/outbox.cif.g08.bks.cpg/sg142_6_cif.got.tgz:11434.got - 2010.05.20 13:39:18.
