data_PCOD9573963
_publ_section_title
;
Structure prediction by ZEFSAII (Michael W. Deem and Ramdas Pophale) SiO2 
 PCOD9573963
Probable space group: I 41/A C D
;
_chemical_formula_sum "Si O2"
_cell_formula_units_Z 112
_cell_length_a 18.328316
_cell_length_b 18.328316
_cell_length_c 13.901946
_cell_angle_alpha 90.000000
_cell_angle_beta 90.000000
_cell_angle_gamma 90.000000
_cell_volume 4670.041341
_symmetry_space_group_name_H-M "I 41/A C D"
_symmetry_group_IT_number 142
_space_group.IT_coordinate_system_code '2'
_symmetry_cell_setting 'tetragonal'
loop_
_space_group_symop_operation_xyz
x,y,z
1/4-y,3/4+x,1/4+z
-x,1/2-y,z
1/4+y,1/4-x,3/4+z
x,-y,1/2-z
1/2-x,y,-z
3/4+y,1/4+x,1/4-z
1/4-y,1/4-x,1/4-z
-x,-y,-z
3/4+y,1/4-x,3/4-z
x,1/2+y,-z
3/4-y,3/4+x,1/4-z
-x,y,1/2+z
1/2+x,-y,z
1/4-y,3/4-x,3/4+z
3/4+y,3/4+x,3/4+z
1/2+x,1/2+y,1/2+z
3/4-y,1/4+x,3/4+z
1/2-x,-y,1/2+z
3/4+y,3/4-x,1/4+z
1/2+x,1/2-y,-z
-x,1/2+y,1/2-z
1/4+y,3/4+x,3/4-z
3/4-y,3/4-x,3/4-z
1/2-x,1/2-y,1/2-z
1/4+y,3/4-x,1/4-z
1/2+x,y,1/2-z
1/4-y,1/4+x,3/4-z
1/2-x,1/2+y,z
x,1/2-y,1/2+z
3/4-y,1/4-x,1/4+z
1/4+y,1/4+x,1/4+z
loop_
_atom_site_type_symbol
_atom_site_label
_atom_site_fract_x
_atom_site_fract_y
_atom_site_fract_z
Si Si1 0.009592 0.469824 0.109190
Si Si2 0.392292 0.099518 0.111181
Si Si3 0.750000 0.128922 0.500000
Si Si4 0.915959 0.728043 0.763939
O O1 0.071352 0.524700 0.147154
O O2 0.934646 0.474166 0.167063
O O3 0.029796 0.385069 0.107234
O O4 0.000000 0.500000 0.000000
O O5 0.316657 0.087927 0.053011
O O6 0.393745 0.160253 0.195258
O O7 0.448753 0.135106 0.036577
O O8 0.000000 0.750000 0.772337
#
# Coordination Sequence:
#
# PCOD9573963 Si02
#       4
#    32  32  16  32
#     4  10  23  40  65 110 144 185 259 303 375 479
#     4  11  20  40  68 104 145 191 242 312 375 445
#     4  12  22  42  74 104 150 200 244 324 398 454
#     4  11  19  41  72 104 148 189 243 316 373 440
#
# _framework density 23.982657
#
# number of rings (size 3 to 8) (size 9 to 14) (size 15 to 20)
#    0.000    1.143    8.571    0.000    0.000    4.571 
#    0.000   11.429    0.000   13.714    0.000    0.000 
#    0.000    0.000    0.000    0.000    0.000    0.000 
#
# Total GULP energy -312717.731076 kJ/mol
# GULP energy per Si atom -5584.245198 kJ/mol
# Density = 2.392807 g / cm^3
# Si number density = 23.982657 Si / 1000 Ang^3
#
#
#
# Elastic Constant Matrix: (Units=GPa)
#
#
# Indices 1 2 3 4 5 6 
#
# 1 140.9450 26.5375 4.2394 0.0000 0.0000 0.0000
# 2 26.5375 140.9450 4.2394 0.0000 0.0000 0.0000
# 3 4.2394 4.2394 65.9090 0.0000 0.0000 0.0000
# 4 0.0000 0.0000 0.0000 21.9143 0.0000 0.0000
# 5 0.0000 0.0000 0.0000 0.0000 21.9143 0.0000
# 6 0.0000 0.0000 0.0000 0.0000 0.0000 -30.7063
#
#
#
# Elastic Compliance Matrix: (Units=1/GPa)
#
#
# Indices 1 2 3 4 5 6 
#
# 1 0.007365 -0.001375 -0.000385 0.000000 0.000000 0.000000
# 2 -0.001375 0.007365 -0.000385 0.000000 0.000000 0.000000
# 3 -0.000385 -0.000385 0.015222 0.000000 0.000000 0.000000
# 4 0.000000 0.000000 0.000000 0.045632 0.000000 0.000000
# 5 0.000000 0.000000 0.000000 0.000000 0.045632 0.000000
# 6 0.000000 0.000000 0.000000 0.000000 0.000000 -0.032567
#
#
# Mechanical properties :
#
#
# Convention : Reuss Voigt Hill
#
# Bulk Modulus (GPa) = 38.96913 46.42572 42.69743
# Shear Modulus (GPa) = 49.26281 23.47663 36.36972
#
# Velocity S-wave (km/s) = 4.53714 3.13213 3.89845
# Velocity P-wave (km/s) = 6.61299 5.69916 6.17301
#
# Compressibility (1/GPa) = 0.02566133
#
# Stress axis : x y z
#
# Youngs Moduli (GPa) = 135.76838 135.76838 65.69441
#
# Poissons Ratio (x) = 0.18671 0.02531
# Poissons Ratio (y) = 0.18671 0.02531
# Poissons Ratio (z) = 0.05231 0.05231
#
# Static dielectric constant tensor:
#      x y z
#    x 2.264640 0.000000 0.000000 
#    y 0.000000 2.264640 0.000000 
#    z 0.000000 0.000000 1.997600 
# 
# From -- ./inp_files/6880.got.cif
#   From: 2010.05.17/outbox.cif.g08.bks.cpg/sg142_4_cif.got.tgz:6880.got - 2010.05.20 13:39:18.
