data_PCOD9573829
_publ_section_title
;
Structure prediction by ZEFSAII (Michael W. Deem and Ramdas Pophale) SiO2 
 PCOD9573829
Probable space group: I 41/A C D
;
_chemical_formula_sum "Si O2"
_cell_formula_units_Z 224
_cell_length_a 23.614803
_cell_length_b 23.614803
_cell_length_c 22.725286
_cell_angle_alpha 90.000000
_cell_angle_beta 90.000000
_cell_angle_gamma 90.000000
_cell_volume 12672.958464
_symmetry_space_group_name_H-M "I 41/A C D"
_symmetry_group_IT_number 142
_space_group.IT_coordinate_system_code '2'
_symmetry_cell_setting 'tetragonal'
loop_
_space_group_symop_operation_xyz
x,y,z
1/4-y,3/4+x,1/4+z
-x,1/2-y,z
1/4+y,1/4-x,3/4+z
x,-y,1/2-z
1/2-x,y,-z
3/4+y,1/4+x,1/4-z
1/4-y,1/4-x,1/4-z
-x,-y,-z
3/4+y,1/4-x,3/4-z
x,1/2+y,-z
3/4-y,3/4+x,1/4-z
-x,y,1/2+z
1/2+x,-y,z
1/4-y,3/4-x,3/4+z
3/4+y,3/4+x,3/4+z
1/2+x,1/2+y,1/2+z
3/4-y,1/4+x,3/4+z
1/2-x,-y,1/2+z
3/4+y,3/4-x,1/4+z
1/2+x,1/2-y,-z
-x,1/2+y,1/2-z
1/4+y,3/4+x,3/4-z
3/4-y,3/4-x,3/4-z
1/2-x,1/2-y,1/2-z
1/4+y,3/4-x,1/4-z
1/2+x,y,1/2-z
1/4-y,1/4+x,3/4-z
1/2-x,1/2+y,z
x,1/2-y,1/2+z
3/4-y,1/4-x,1/4+z
1/4+y,1/4+x,1/4+z
loop_
_atom_site_type_symbol
_atom_site_label
_atom_site_fract_x
_atom_site_fract_y
_atom_site_fract_z
Si Si1 0.046333 0.799815 0.194461
Si Si2 0.191340 0.645460 0.855460
Si Si3 0.850425 0.242426 0.363866
Si Si4 0.583585 0.221154 0.322311
Si Si5 0.263942 0.746707 0.069375
Si Si6 0.841889 0.323845 0.648644
Si Si7 0.278750 0.188713 0.234339
O O1 0.030178 0.859121 0.165608
O O2 0.107861 0.785644 0.168172
O O3 0.053259 0.798658 0.263737
O O4 0.000000 0.750000 0.182674
O O5 0.164459 0.585542 0.875000
O O6 0.138510 0.681937 0.831739
O O7 0.217633 0.683442 0.908740
O O8 0.236108 0.648930 0.802139
O O9 0.792839 0.262190 0.394363
O O10 0.829888 0.200831 0.311545
O O11 0.542324 0.207677 0.375000
O O12 0.607933 0.284339 0.324553
O O13 0.311915 0.788447 0.095993
O O14 0.250000 0.749483 0.000000
O O15 0.869401 0.380600 0.625000
O O16 0.799911 0.333581 0.703214
O O17 0.250000 0.250000 0.250000
#
# Coordination Sequence:
#
# PCOD9573829 Si02
#       7
#    32  32  32  32  32  32  32
#     4  12  23  35  51  90 134 158 195 231 300 396
#     4   9  19  37  60  85 113 158 210 252 307 359
#     4  11  21  36  56  80 124 164 196 240 297 359
#     4  10  22  33  53  83 125 165 193 233 293 376
#     4  10  23  38  56  88 125 153 211 261 298 361
#     4  11  23  37  61  87 121 168 207 248 310 367
#     4  11  18  40  59  82 120 160 207 253 301 379
#
# _framework density 17.675431
#
# number of rings (size 3 to 8) (size 9 to 14) (size 15 to 20)
#    0.000    1.429    7.143    0.000    8.000    1.143 
#    0.000    0.000    0.000    0.000    0.000   15.000 
#    0.000    0.000    0.000    0.000    0.000    0.000 
#
# Total GULP energy -624096.468029 kJ/mol
# GULP energy per Si atom -5572.289893 kJ/mol
# Density = 1.763520 g / cm^3
# Si number density = 17.675431 Si / 1000 Ang^3
#
#
#
# Elastic Constant Matrix: (Units=GPa)
#
#
# Indices 1 2 3 4 5 6 
#
# 1 58.6310 43.0303 38.2176 0.0000 0.0000 0.0000
# 2 43.0303 58.6248 38.2165 0.0000 0.0000 0.0000
# 3 38.2176 38.2165 169.3495 0.0000 0.0000 0.0000
# 4 0.0000 0.0000 0.0000 30.6956 0.0000 0.0000
# 5 0.0000 0.0000 0.0000 0.0000 30.6955 0.0000
# 6 0.0000 0.0000 0.0000 0.0000 0.0000 25.1811
#
#
#
# Elastic Compliance Matrix: (Units=1/GPa)
#
#
# Indices 1 2 3 4 5 6 
#
# 1 0.037978 -0.026133 -0.002673 0.000000 0.000000 0.000000
# 2 -0.026133 0.037982 -0.002674 0.000000 0.000000 0.000000
# 3 -0.002673 -0.002674 0.007112 0.000000 0.000000 0.000000
# 4 0.000000 0.000000 0.000000 0.032578 0.000000 0.000000
# 5 0.000000 0.000000 0.000000 0.000000 0.032578 0.000000
# 6 0.000000 0.000000 0.000000 0.000000 0.000000 0.039712
#
#
# Mechanical properties :
#
#
# Convention : Reuss Voigt Hill
#
# Bulk Modulus (GPa) = 49.72250 58.39267 54.05759
# Shear Modulus (GPa) = 19.40973 28.45717 23.93345
#
# Velocity S-wave (km/s) = 3.31738 4.01681 3.68374
# Velocity P-wave (km/s) = 6.54716 7.39059 6.98162
#
# Compressibility (1/GPa) = 0.02011162
#
# Stress axis : x y z
#
# Youngs Moduli (GPa) = 26.33135 26.32833 140.61511
#
# Poissons Ratio (x) = 0.68803 0.37590
# Poissons Ratio (y) = 0.68811 0.37598
# Poissons Ratio (z) = 0.07039 0.07040
#
# Static dielectric constant tensor:
#      x y z
#    x 2.597270 0.000000 0.000000 
#    y 0.000000 2.591840 0.000000 
#    z 0.000000 0.000000 1.616960 
# 
# From -- ./inp_files/10545.got.cif
#   From: 2010.05.17/outbox.cif.g08.bks.cpg/sg142_6_cif.got.tgz:10545.got - 2010.05.20 13:39:18.
