data_PCOD9574467
_publ_section_title
;
Structure prediction by ZEFSAII (Michael W. Deem and Ramdas Pophale) SiO2 
 PCOD9574467
Probable space group: P 31
;
_chemical_formula_sum "Si O2"
_cell_formula_units_Z 18
_cell_length_a 10.036651
_cell_length_b 10.036651
_cell_length_c 10.155465
_cell_angle_alpha 90.000000
_cell_angle_beta 90.000000
_cell_angle_gamma 120.000000
_cell_volume 885.947713
_symmetry_space_group_name_H-M "P 31"
_symmetry_group_IT_number 144
_symmetry_cell_setting 'hexagonal'
loop_
_space_group_symop_operation_xyz
x,y,z
-y,x-y,1/3+z
-x+y,-x,2/3+z
loop_
_atom_site_type_symbol
_atom_site_label
_atom_site_fract_x
_atom_site_fract_y
_atom_site_fract_z
Si Si1 0.872175 0.430459 0.323630
Si Si2 0.733937 0.765241 0.100530
Si Si3 0.052594 0.253822 0.283397
Si Si4 0.558498 0.430593 0.968789
Si Si5 0.031553 0.765348 0.192281
Si Si6 0.201309 0.253809 0.009263
O O1 0.688311 0.311742 0.312829
O O2 0.905826 0.452634 0.479559
O O3 0.958992 0.343797 0.271181
O O4 0.941908 0.590066 0.245047
O O5 0.675828 0.819890 0.226978
O O6 0.899985 0.799752 0.146335
O O7 0.648332 0.589989 0.047687
O O8 0.740817 0.870375 0.979779
O O9 0.179896 0.324326 0.399245
O O10 0.129846 0.259155 0.146450
O O11 0.921851 0.078181 0.312981
O O12 0.384919 0.343885 0.020996
#
# Coordination Sequence:
#
# PCOD9574467 Si02
#       6
#     3   3   3   3   3   3
#     4  11  25  47  68 102 150 189 236 294 360 436
#     4  12  24  44  74 101 139 189 237 303 358 418
#     4  11  24  45  71 104 140 183 239 294 352 428
#     4  11  25  47  68 102 150 189 236 294 360 436
#     4  12  24  44  74 101 139 189 237 303 358 418
#     4  11  24  45  71 104 140 183 239 294 352 428
#
# _framework density 20.317225000000001
#
# number of rings (size 3 to 8) (size 9 to 14) (size 15 to 20)
#    0.000    0.667    3.333    5.000    4.667    1.333 
#    6.000    0.000    0.000    0.000    0.000    0.000 
#    0.000    0.000    0.000    0.000    0.000    0.000 
#
# Total GULP energy -100595.126358 kJ/mol
# GULP energy per Si atom -5588.618131 kJ/mol
# Density = 2.027098 g / cm^3
# Si number density = 20.317225 Si / 1000 Ang^3
#
#
#
# Elastic Constant Matrix: (Units=GPa)
#
#
# Indices 1 2 3 4 5 6 
#
# 1 117.6336 70.5055 56.4699 -0.1579 -11.6035 0.0000
# 2 70.5055 117.6336 56.4699 0.1579 11.6035 0.0000
# 3 56.4699 56.4699 167.4839 0.0000 0.0000 0.0000
# 4 -0.1579 0.1579 0.0000 21.1617 0.0000 11.6035
# 5 -11.6035 11.6035 0.0000 0.0000 21.1617 -0.1579
# 6 0.0000 0.0000 0.0000 11.6035 -0.1579 23.5641
#
#
#
# Elastic Compliance Matrix: (Units=1/GPa)
#
#
# Indices 1 2 3 4 5 6 
#
# 1 0.017867 -0.011203 -0.002247 0.000217 0.015939 0.000000
# 2 -0.011203 0.017867 -0.002247 -0.000217 -0.015939 0.000000
# 3 -0.002247 -0.002247 0.007486 0.000000 0.000000 0.000000
# 4 0.000217 -0.000217 0.000000 0.064738 0.000000 -0.031879
# 5 0.015939 -0.015939 0.000000 0.000000 0.064738 0.000434
# 6 0.000000 0.000000 0.000000 -0.031879 0.000434 0.058138
#
#
# Mechanical properties :
#
#
# Convention : Reuss Voigt Hill
#
# Bulk Modulus (GPa) = 84.55677 85.51577 85.03627
# Shear Modulus (GPa) = 18.78505 27.79787 23.29146
#
# Velocity S-wave (km/s) = 3.04400 3.70292 3.38951
# Velocity P-wave (km/s) = 7.35277 7.77585 7.56727
#
# Compressibility (1/GPa) = 0.01182637
#
# Stress axis : x y z
#
# Youngs Moduli (GPa) = 55.97039 55.97039 133.58503
#
# Poissons Ratio (x) = 0.62701 0.30015
# Poissons Ratio (y) = 0.62701 0.30015
# Poissons Ratio (z) = 0.12576 0.12576
#
# Static dielectric constant tensor:
#      x y z
#    x 1.743780 0.000000 0.000000 
#    y 0.000000 1.743780 0.000000 
#    z 0.000000 0.000000 1.319380 
# 
# From -- ./inp_files/268.got.cif
#   From: 2010.05.17/outbox.cif.g08.bks.cpg/sg144_cif.got.tgz:268.got - 2010.05.20 13:46:34.
