data_PCOD9574566
_publ_section_title
;
Structure prediction by ZEFSAII (Michael W. Deem and Ramdas Pophale) SiO2 
 PCOD9574566
Probable space group: P 32
;
_chemical_formula_sum "Si O2"
_cell_formula_units_Z 21
_cell_length_a 8.113194
_cell_length_b 8.113194
_cell_length_c 13.442746
_cell_angle_alpha 90.000000
_cell_angle_beta 90.000000
_cell_angle_gamma 120.000000
_cell_volume 766.306212
_symmetry_space_group_name_H-M "P 32"
_symmetry_group_IT_number 145
_symmetry_cell_setting 'hexagonal'
loop_
_space_group_symop_operation_xyz
x,y,z
-y,x-y,2/3+z
-x+y,-x,1/3+z
loop_
_atom_site_type_symbol
_atom_site_label
_atom_site_fract_x
_atom_site_fract_y
_atom_site_fract_z
Si Si1 0.971357 0.252048 0.346420
Si Si2 0.393332 0.532071 0.266352
Si Si3 0.766820 0.950839 0.703138
Si Si4 0.366902 0.605008 0.760634
Si Si5 0.818874 0.403844 0.046908
Si Si6 0.046563 0.956505 0.863504
Si Si7 0.487258 0.233650 0.176123
O O1 0.174428 0.372104 0.293494
O O2 0.807212 0.305410 0.347466
O O3 0.863291 0.050849 0.287688
O O4 0.019728 0.234669 0.460353
O O5 0.480745 0.658620 0.362882
O O6 0.358773 0.666263 0.192320
O O7 0.496748 0.425178 0.222318
O O8 0.818416 0.149373 0.757323
O O9 0.881144 0.889979 0.779902
O O10 0.544006 0.799685 0.713448
O O11 0.847115 0.973478 0.592178
O O12 0.450919 0.464524 0.768562
O O13 0.674611 0.251674 0.124896
O O14 0.874579 0.333714 0.947422
#
# Coordination Sequence:
#
# PCOD9574566 Si02
#       7
#     3   3   3   3   3   3   3
#     4  11  23  42  71 107 141 189 243 301 371 438
#     4  11  25  48  73 103 145 195 239 308 370 447
#     4  10  21  45  72 109 141 196 237 308 366 438
#     4  11  25  44  75 100 148 188 248 298 380 436
#     4  12  28  44  70 105 142 194 245 311 364 442
#     4  10  22  39  76 105 146 183 247 294 368 437
#     4  11  26  46  73 103 147 193 247 308 367 438
#
# _framework density 27.404188999999999
#
# number of rings (size 3 to 8) (size 9 to 14) (size 15 to 20)
#    0.000    1.143    2.857    3.429    6.000    3.429 
#    2.571    0.000    0.000    0.000    0.000    0.000 
#    0.000    0.000    0.000    0.000    0.000    0.000 
#
# Total GULP energy -117429.972691 kJ/mol
# GULP energy per Si atom -5591.903461 kJ/mol
# Density = 2.734182 g / cm^3
# Si number density = 27.404189 Si / 1000 Ang^3
#
#
#
# Elastic Constant Matrix: (Units=GPa)
#
#
# Indices 1 2 3 4 5 6 
#
# 1 78.9783 0.1630 19.0624 -6.1871 10.0856 0.0000
# 2 0.1630 78.9783 19.0624 6.1871 -10.0856 0.0000
# 3 19.0624 19.0624 117.5493 0.0000 0.0000 0.0000
# 4 -6.1871 6.1871 0.0000 36.7068 0.0000 -10.0856
# 5 10.0856 -10.0856 0.0000 0.0000 36.7068 -6.1871
# 6 0.0000 0.0000 0.0000 -10.0856 -6.1871 39.4076
#
#
#
# Elastic Compliance Matrix: (Units=1/GPa)
#
#
# Indices 1 2 3 4 5 6 
#
# 1 0.013877 -0.000171 -0.002223 0.002368 -0.003860 0.000000
# 2 -0.000171 0.013877 -0.002223 -0.002368 0.003860 0.000000
# 3 -0.002223 -0.002223 0.009228 0.000000 0.000000 0.000000
# 4 0.002368 -0.002368 0.000000 0.030162 0.000000 0.007719
# 5 -0.003860 0.003860 0.000000 0.000000 0.030162 0.004736
# 6 0.000000 0.000000 0.000000 0.007719 0.004736 0.028095
#
#
# Mechanical properties :
#
#
# Convention : Reuss Voigt Hill
#
# Bulk Modulus (GPa) = 36.03615 39.12018 37.57816
# Shear Modulus (GPa) = 34.75054 38.37879 36.56467
#
# Velocity S-wave (km/s) = 3.56487 3.74635 3.65673
# Velocity P-wave (km/s) = 5.48842 5.74628 5.61883
#
# Compressibility (1/GPa) = 0.02774991
#
# Stress axis : x y z
#
# Youngs Moduli (GPa) = 72.06212 72.06212 108.36627
#
# Poissons Ratio (x) = 0.01229 0.24087
# Poissons Ratio (y) = 0.01229 0.24087
# Poissons Ratio (z) = 0.16017 0.16017
#
# Static dielectric constant tensor:
#      x y z
#    x 2.163330 0.000000 0.000000 
#    y 0.000000 2.163330 0.000000 
#    z 0.000000 0.000000 2.100910 
# 
# From -- ./inp_files/637.got.cif
#   From: 2010.05.17/outbox.cif.g08.bks.cpg/sg145_cif.got.tgz:637.got - 2010.05.20 13:47:28.
