data_PCOD9574862
_publ_section_title
;
Structure prediction by ZEFSAII (Michael W. Deem and Ramdas Pophale) SiO2 
 PCOD9574862
Probable space group: P -3
;
_chemical_formula_sum "Si O2"
_cell_formula_units_Z 24
_cell_length_a 17.500391
_cell_length_b 17.500391
_cell_length_c 5.199011
_cell_angle_alpha 90.000000
_cell_angle_beta 90.000000
_cell_angle_gamma 120.000000
_cell_volume 1378.944770
_symmetry_space_group_name_H-M "P -3"
_symmetry_group_IT_number 147
_symmetry_cell_setting 'hexagonal'
loop_
_space_group_symop_operation_xyz
x,y,z
-y,x-y,z
-x+y,-x,z
-x,-y,-z
y,-x+y,-z
x-y,x,-z
loop_
_atom_site_type_symbol
_atom_site_label
_atom_site_fract_x
_atom_site_fract_y
_atom_site_fract_z
Si Si1 0.373680 0.268459 0.567102
Si Si2 0.893409 0.530527 0.069957
Si Si3 0.894780 0.268459 0.432898
Si Si4 0.637118 0.530527 0.930043
O O1 0.448652 0.319531 0.350001
O O2 0.331848 0.165924 0.500000
O O3 0.306613 0.306613 0.553923
O O4 0.419914 0.292732 0.844489
O O5 1.000000 0.577749 0.070424
O O6 0.857846 0.428923 0.000000
O O7 0.870879 0.319531 0.649999
O O8 0.872818 0.292732 0.155511
#
# Coordination Sequence:
#
# PCOD9574862 Si02
#       4
#     6   6   6   6
#     4  10  19  31  49  72  97 127 164 202 237 277
#     4   9  17  30  49  70  90 116 152 193 237 286
#     4  10  19  31  49  72  97 127 164 202 237 277
#     4   9  17  30  49  70  90 116 152 193 237 286
#
# _framework density 17.404613999999999
#
# number of rings (size 3 to 8) (size 9 to 14) (size 15 to 20)
#    0.000    2.500    0.000    3.000    0.000    6.000 
#    0.000    0.000    0.000   20.500    0.000    0.000 
#    0.000   12.000    0.000    0.000    0.000    2.000 
#
# Total GULP energy -133720.502125 kJ/mol
# GULP energy per Si atom -5571.687589 kJ/mol
# Density = 1.736500 g / cm^3
# Si number density = 17.404614 Si / 1000 Ang^3
#
#
#
# Elastic Constant Matrix: (Units=GPa)
#
#
# Indices 1 2 3 4 5 6 
#
# 1 45.5010 19.0918 -1.9564 0.0000 5.1212 0.0000
# 2 19.0918 45.5010 -1.9564 0.0000 -5.1212 0.0000
# 3 -1.9564 -1.9564 82.6261 0.0000 0.0000 0.0000
# 4 0.0000 0.0000 0.0000 19.0654 0.0000 -5.1212
# 5 5.1212 -5.1212 0.0000 0.0000 19.0654 0.0000
# 6 0.0000 0.0000 0.0000 -5.1212 0.0000 13.2046
#
#
#
# Elastic Compliance Matrix: (Units=1/GPa)
#
#
# Indices 1 2 3 4 5 6 
#
# 1 0.028886 -0.013383 0.000367 0.000000 -0.011354 0.000000
# 2 -0.013383 0.028886 0.000367 0.000000 0.011354 0.000000
# 3 0.000367 0.000367 0.012120 0.000000 0.000000 0.000000
# 4 0.000000 0.000000 0.000000 0.058551 0.000000 0.022708
# 5 -0.011354 0.011354 0.000000 0.000000 0.058551 0.000000
# 6 0.000000 0.000000 0.000000 0.022708 0.000000 0.084538
#
#
# Mechanical properties :
#
#
# Convention : Reuss Voigt Hill
#
# Bulk Modulus (GPa) = 22.42348 22.66514 22.54431
# Shear Modulus (GPa) = 16.04132 20.83035 18.43583
#
# Velocity S-wave (km/s) = 3.03920 3.46327 3.25814
# Velocity P-wave (km/s) = 5.02267 5.38917 5.20914
#
# Compressibility (1/GPa) = 0.04459612
#
# Stress axis : x y z
#
# Youngs Moduli (GPa) = 34.61825 34.61825 82.50762
#
# Poissons Ratio (x) = 0.46328 -0.03029
# Poissons Ratio (y) = 0.46328 -0.03029
# Poissons Ratio (z) = -0.01271 -0.01271
#
# Static dielectric constant tensor:
#      x y z
#    x 1.607620 0.000000 0.000000 
#    y 0.000000 1.607620 0.000000 
#    z 0.000000 0.000000 1.595290 
# 
# From -- ./inp_files/143.got.cif
#   From: 2010.05.17/outbox.cif.g08.bks.cpg/sg147_cif.got.tgz:143.got - 2010.05.20 13:49:32.
