data_PCOD9574012
_publ_section_title
;
Structure prediction by ZEFSAII (Michael W. Deem and Ramdas Pophale) SiO2 
 PCOD9574012
Probable space group: I 41/A C D
;
_chemical_formula_sum "Si O2"
_cell_formula_units_Z 112
_cell_length_a 14.677387
_cell_length_b 14.677387
_cell_length_c 23.344642
_cell_angle_alpha 90.000000
_cell_angle_beta 90.000000
_cell_angle_gamma 90.000000
_cell_volume 5029.035591
_symmetry_space_group_name_H-M "I 41/A C D"
_symmetry_group_IT_number 142
_space_group.IT_coordinate_system_code '2'
_symmetry_cell_setting 'tetragonal'
loop_
_space_group_symop_operation_xyz
x,y,z
1/4-y,3/4+x,1/4+z
-x,1/2-y,z
1/4+y,1/4-x,3/4+z
x,-y,1/2-z
1/2-x,y,-z
3/4+y,1/4+x,1/4-z
1/4-y,1/4-x,1/4-z
-x,-y,-z
3/4+y,1/4-x,3/4-z
x,1/2+y,-z
3/4-y,3/4+x,1/4-z
-x,y,1/2+z
1/2+x,-y,z
1/4-y,3/4-x,3/4+z
3/4+y,3/4+x,3/4+z
1/2+x,1/2+y,1/2+z
3/4-y,1/4+x,3/4+z
1/2-x,-y,1/2+z
3/4+y,3/4-x,1/4+z
1/2+x,1/2-y,-z
-x,1/2+y,1/2-z
1/4+y,3/4+x,3/4-z
3/4-y,3/4-x,3/4-z
1/2-x,1/2-y,1/2-z
1/4+y,3/4-x,1/4-z
1/2+x,y,1/2-z
1/4-y,1/4+x,3/4-z
1/2-x,1/2+y,z
x,1/2-y,1/2+z
3/4-y,1/4-x,1/4+z
1/4+y,1/4+x,1/4+z
loop_
_atom_site_type_symbol
_atom_site_label
_atom_site_fract_x
_atom_site_fract_y
_atom_site_fract_z
Si Si1 0.175350 0.425350 0.625000
Si Si2 0.970901 0.967665 0.411457
Si Si3 0.894138 0.776720 0.223947
Si Si4 0.345009 0.969006 0.313360
O O1 0.196281 0.318656 0.631596
O O2 0.235969 0.467114 0.676664
O O3 0.958111 0.891826 0.460978
O O4 0.899691 0.976307 0.360666
O O5 0.964560 0.064753 0.445582
O O6 0.882680 0.866622 0.185729
O O7 0.000000 0.750000 0.223659
O O8 0.365115 0.000000 0.250000
#
# Coordination Sequence:
#
# PCOD9574012 Si02
#       4
#    16  32  32  32
#     4  10  24  44  67  93 144 178 234 298 340 434
#     4  10  24  45  69 105 138 186 235 290 360 419
#     4  10  24  43  70 102 138 180 238 287 350 431
#     4  11  24  42  68 100 137 186 231 293 360 423
#
# _framework density 22.270672000000001
#
# number of rings (size 3 to 8) (size 9 to 14) (size 15 to 20)
#    0.000    1.714    0.000    1.714   12.000    1.143 
#    0.000    0.000    0.000    0.000    0.000    0.000 
#    0.000    0.000    0.000    0.000    0.000    0.000 
#
# Total GULP energy -312317.040436 kJ/mol
# GULP energy per Si atom -5577.090008 kJ/mol
# Density = 2.221998 g / cm^3
# Si number density = 22.270672 Si / 1000 Ang^3
#
#
#
# Elastic Constant Matrix: (Units=GPa)
#
#
# Indices 1 2 3 4 5 6 
#
# 1 140.0150 53.7630 58.9609 0.0000 0.0000 0.0000
# 2 53.7630 140.0150 58.9609 0.0000 0.0000 0.0000
# 3 58.9609 58.9609 143.3798 0.0000 0.0000 0.0000
# 4 0.0000 0.0000 0.0000 32.2206 0.0000 0.0000
# 5 0.0000 0.0000 0.0000 0.0000 32.2206 0.0000
# 6 0.0000 0.0000 0.0000 0.0000 0.0000 17.4190
#
#
#
# Elastic Compliance Matrix: (Units=1/GPa)
#
#
# Indices 1 2 3 4 5 6 
#
# 1 0.009238 -0.002355 -0.002830 0.000000 0.000000 0.000000
# 2 -0.002355 0.009238 -0.002830 0.000000 0.000000 0.000000
# 3 -0.002830 -0.002830 0.009302 0.000000 0.000000 0.000000
# 4 0.000000 0.000000 0.000000 0.031036 0.000000 0.000000
# 5 0.000000 0.000000 0.000000 0.000000 0.031036 0.000000
# 6 0.000000 0.000000 0.000000 0.000000 0.000000 0.057409
#
#
# Mechanical properties :
#
#
# Convention : Reuss Voigt Hill
#
# Bulk Modulus (GPa) = 85.13112 85.19770 85.16441
# Shear Modulus (GPa) = 29.90284 33.15372 31.52828
#
# Velocity S-wave (km/s) = 3.66826 3.86252 3.76664
# Velocity P-wave (km/s) = 7.50001 7.63090 7.56574
#
# Compressibility (1/GPa) = 0.01174659
#
# Stress axis : x y z
#
# Youngs Moduli (GPa) = 108.24323 108.24323 107.49976
#
# Poissons Ratio (x) = 0.25496 0.30427
# Poissons Ratio (y) = 0.25496 0.30427
# Poissons Ratio (z) = 0.30637 0.30637
#
# Static dielectric constant tensor:
#      x y z
#    x 1.877500 0.000000 0.000000 
#    y 0.000000 1.877500 0.000000 
#    z 0.000000 0.000000 1.785150 
# 
# From -- ./inp_files/9730.got.cif
#   From: 2010.05.17/outbox.cif.g08.bks.cpg/sg142_5_cif.got.tgz:9730.got - 2010.05.20 13:39:18.
