data_PCOD9574412
_publ_section_title
;
Structure prediction by ZEFSAII (Michael W. Deem and Ramdas Pophale) SiO2 
 PCOD9574412
Probable space group: P 31
;
_chemical_formula_sum "Si O2"
_cell_formula_units_Z 9
_cell_length_a 5.313203
_cell_length_b 5.313203
_cell_length_c 13.391427
_cell_angle_alpha 90.000000
_cell_angle_beta 90.000000
_cell_angle_gamma 120.000000
_cell_volume 327.393693
_symmetry_space_group_name_H-M "P 31"
_symmetry_group_IT_number 144
_symmetry_cell_setting 'hexagonal'
loop_
_space_group_symop_operation_xyz
x,y,z
-y,x-y,1/3+z
-x+y,-x,2/3+z
loop_
_atom_site_type_symbol
_atom_site_label
_atom_site_fract_x
_atom_site_fract_y
_atom_site_fract_z
Si Si1 0.736854 0.441097 0.343280
Si Si2 0.700661 0.751033 0.509605
Si Si3 0.268135 0.895311 0.457684
O O1 0.656167 0.671945 0.391465
O O2 0.852870 0.388703 0.239886
O O3 0.039543 0.579671 0.410876
O O4 0.464104 0.134269 0.376797
O O5 0.495375 0.879489 0.531847
O O6 0.044389 0.964899 0.516937
#
# Coordination Sequence:
#
# PCOD9574412 Si02
#       3
#     3   3   3
#     4  10  24  43  70 103 142 187 235 294 358 427
#     4  10  24  43  70 103 142 187 235 294 358 427
#     4  10  24  42  70 102 140 186 234 294 354 434
#
# _framework density 27.489836
#
# number of rings (size 3 to 8) (size 9 to 14) (size 15 to 20)
#    2.000    0.000    0.000    2.000    4.667    5.333 
#    0.000    0.000    0.000    0.000    0.000    0.000 
#    0.000    0.000    0.000    0.000    0.000    0.000 
#
# Total GULP energy -50136.142541 kJ/mol
# GULP energy per Si atom -5570.682505 kJ/mol
# Density = 2.742727 g / cm^3
# Si number density = 27.489836 Si / 1000 Ang^3
#
#
#
# Elastic Constant Matrix: (Units=GPa)
#
#
# Indices 1 2 3 4 5 6 
#
# 1 118.5725 15.1744 -18.0017 2.8139 2.1825 0.0000
# 2 15.1744 118.5725 -18.0017 -2.8139 -2.1825 0.0000
# 3 -18.0017 -18.0017 75.6975 0.0000 0.0000 0.0000
# 4 2.8139 -2.8139 0.0000 22.5588 0.0000 -2.1825
# 5 2.1825 -2.1825 0.0000 0.0000 22.5588 2.8139
# 6 0.0000 0.0000 0.0000 -2.1825 2.8139 51.6990
#
#
#
# Elastic Compliance Matrix: (Units=1/GPa)
#
#
# Indices 1 2 3 4 5 6 
#
# 1 0.008883 -0.000895 0.001900 -0.001220 -0.000946 0.000000
# 2 -0.000895 0.008883 0.001900 0.001220 0.000946 0.000000
# 3 0.001900 0.001900 0.014114 0.000000 0.000000 0.000000
# 4 -0.001220 0.001220 0.000000 0.044816 0.000000 0.001892
# 5 -0.000946 0.000946 0.000000 0.000000 0.044816 -0.002439
# 6 0.000000 0.000000 0.000000 0.001892 -0.002439 0.019555
#
#
# Mechanical properties :
#
#
# Convention : Reuss Voigt Hill
#
# Bulk Modulus (GPa) = 26.53291 30.13164 28.33227
# Shear Modulus (GPa) = 33.82472 41.60808 37.71640
#
# Velocity S-wave (km/s) = 3.51157 3.89470 3.70809
# Velocity P-wave (km/s) = 5.11022 5.58656 5.35369
#
# Compressibility (1/GPa) = 0.03768904
#
# Stress axis : x y z
#
# Youngs Moduli (GPa) = 112.57548 112.57548 70.85168
#
# Poissons Ratio (x) = 0.10073 -0.13459
# Poissons Ratio (y) = 0.10073 -0.13459
# Poissons Ratio (z) = -0.21386 -0.21386
#
# Static dielectric constant tensor:
#      x y z
#    x 2.211730 0.000000 0.000000 
#    y 0.000000 2.211730 0.000000 
#    z 0.000000 0.000000 2.385570 
# 
# From -- ./inp_files/443.got.cif
#   From: 2010.05.17/outbox.cif.g08.bks.cpg/sg144_cif.got.tgz:443.got - 2010.05.20 13:46:34.
