data_PCOD9574108
_publ_section_title
;
Structure prediction by ZEFSAII (Michael W. Deem and Ramdas Pophale) SiO2 
 PCOD9574108
Probable space group: I 41/A C D
;
_chemical_formula_sum "Si O2"
_cell_formula_units_Z 96
_cell_length_a 21.454317
_cell_length_b 21.454317
_cell_length_c 8.757397
_cell_angle_alpha 90.000000
_cell_angle_beta 90.000000
_cell_angle_gamma 90.000000
_cell_volume 4030.922280
_symmetry_space_group_name_H-M "I 41/A C D"
_symmetry_group_IT_number 142
_space_group.IT_coordinate_system_code '2'
_symmetry_cell_setting 'tetragonal'
loop_
_space_group_symop_operation_xyz
x,y,z
1/4-y,3/4+x,1/4+z
-x,1/2-y,z
1/4+y,1/4-x,3/4+z
x,-y,1/2-z
1/2-x,y,-z
3/4+y,1/4+x,1/4-z
1/4-y,1/4-x,1/4-z
-x,-y,-z
3/4+y,1/4-x,3/4-z
x,1/2+y,-z
3/4-y,3/4+x,1/4-z
-x,y,1/2+z
1/2+x,-y,z
1/4-y,3/4-x,3/4+z
3/4+y,3/4+x,3/4+z
1/2+x,1/2+y,1/2+z
3/4-y,1/4+x,3/4+z
1/2-x,-y,1/2+z
3/4+y,3/4-x,1/4+z
1/2+x,1/2-y,-z
-x,1/2+y,1/2-z
1/4+y,3/4+x,3/4-z
3/4-y,3/4-x,3/4-z
1/2-x,1/2-y,1/2-z
1/4+y,3/4-x,1/4-z
1/2+x,y,1/2-z
1/4-y,1/4+x,3/4-z
1/2-x,1/2+y,z
x,1/2-y,1/2+z
3/4-y,1/4-x,1/4+z
1/4+y,1/4+x,1/4+z
loop_
_atom_site_type_symbol
_atom_site_label
_atom_site_fract_x
_atom_site_fract_y
_atom_site_fract_z
Si Si1 0.934156 0.680203 0.628013
Si Si2 0.371456 0.621456 0.125000
Si Si3 0.928232 0.996646 0.563186
Si Si4 0.130840 0.880840 0.875000
O O1 0.927102 0.748477 0.698238
O O2 0.882483 0.674248 0.500193
O O3 0.924299 0.627906 0.752639
O O4 0.385475 0.558132 0.037096
O O5 0.930492 0.000000 0.750000
O O6 0.888575 0.941999 0.474829
O O7 0.000000 0.000000 0.500000
#
# Coordination Sequence:
#
# PCOD9574108 Si02
#       4
#    32  16  32  16
#     4  11  22  40  70 110 153 199 257 335 414 493
#     4  12  26  45  73 112 154 204 272 328 412 514
#     4  12  28  50  80 114 158 217 274 347 427 504
#     4  12  26  45  75 112 154 212 272 340 412 512
#
# _framework density 23.81589
#
# number of rings (size 3 to 8) (size 9 to 14) (size 15 to 20)
#    0.000    0.333    3.333    6.000    4.667    2.667 
#    0.000    1.667    0.000    0.000    0.000    0.000 
#    0.000    0.000    0.000    0.000    0.000    0.000 
#
# Total GULP energy -267241.398147 kJ/mol
# GULP energy per Si atom -5567.529128 kJ/mol
# Density = 2.376168 g / cm^3
# Si number density = 23.815890 Si / 1000 Ang^3
#
#
#
# Elastic Constant Matrix: (Units=GPa)
#
#
# Indices 1 2 3 4 5 6 
#
# 1 157.5027 77.8854 55.6565 0.0000 0.0000 0.0000
# 2 77.8854 157.5027 55.6565 0.0000 0.0000 0.0000
# 3 55.6565 55.6565 130.1664 0.0000 0.0000 0.0000
# 4 0.0000 0.0000 0.0000 42.1275 0.0000 0.0000
# 5 0.0000 0.0000 0.0000 0.0000 42.1275 0.0000
# 6 0.0000 0.0000 0.0000 0.0000 0.0000 31.3514
#
#
#
# Elastic Compliance Matrix: (Units=1/GPa)
#
#
# Indices 1 2 3 4 5 6 
#
# 1 0.008943 -0.003618 -0.002277 0.000000 0.000000 0.000000
# 2 -0.003618 0.008943 -0.002277 0.000000 0.000000 0.000000
# 3 -0.002277 -0.002277 0.009630 0.000000 0.000000 0.000000
# 4 0.000000 0.000000 0.000000 0.023737 0.000000 0.000000
# 5 0.000000 0.000000 0.000000 0.000000 0.023737 0.000000
# 6 0.000000 0.000000 0.000000 0.000000 0.000000 0.031897
#
#
# Mechanical properties :
#
#
# Convention : Reuss Voigt Hill
#
# Bulk Modulus (GPa) = 89.50857 91.50764 90.50810
# Shear Modulus (GPa) = 39.38475 40.18617 39.78546
#
# Velocity S-wave (km/s) = 4.07100 4.11222 4.09166
# Velocity P-wave (km/s) = 7.73063 7.81367 7.77226
#
# Compressibility (1/GPa) = 0.01117212
#
# Stress axis : x y z
#
# Youngs Moduli (GPa) = 111.82495 111.82495 103.84691
#
# Poissons Ratio (x) = 0.40453 0.23645
# Poissons Ratio (y) = 0.40453 0.23645
# Poissons Ratio (z) = 0.25461 0.25461
#
# Static dielectric constant tensor:
#      x y z
#    x 2.018860 0.000000 0.000000 
#    y 0.000000 2.018860 0.000000 
#    z 0.000000 0.000000 2.027120 
# 
# From -- ./inp_files/1634.got.cif
#   From: 2010.05.17/outbox.cif.g08.bks.cpg/sg142_1_cif.got.tgz:1634.got - 2010.05.20 13:39:18.
