data_PCOD9574443
_publ_section_title
;
Structure prediction by ZEFSAII (Michael W. Deem and Ramdas Pophale) SiO2 
 PCOD9574443
Probable space group: P 31
;
_chemical_formula_sum "Si O2"
_cell_formula_units_Z 21
_cell_length_a 9.012131
_cell_length_b 9.012131
_cell_length_c 11.008063
_cell_angle_alpha 90.000000
_cell_angle_beta 90.000000
_cell_angle_gamma 120.000000
_cell_volume 774.277306
_symmetry_space_group_name_H-M "P 31"
_symmetry_group_IT_number 144
_symmetry_cell_setting 'hexagonal'
loop_
_space_group_symop_operation_xyz
x,y,z
-y,x-y,1/3+z
-x+y,-x,2/3+z
loop_
_atom_site_type_symbol
_atom_site_label
_atom_site_fract_x
_atom_site_fract_y
_atom_site_fract_z
Si Si1 0.455156 0.833852 0.167690
Si Si2 0.851973 0.248963 0.424228
Si Si3 0.802586 0.137097 0.796718
Si Si4 0.113550 0.871681 0.336872
Si Si5 0.937673 0.171072 0.183284
Si Si6 0.671375 0.457277 0.358532
Si Si7 0.562803 0.877603 0.446963
O O1 0.580294 0.858353 0.055145
O O2 0.536551 0.884180 0.301972
O O3 0.361084 0.623235 0.170022
O O4 0.390027 0.971859 0.141195
O O5 0.922988 0.166163 0.326276
O O6 0.742833 0.326017 0.358507
O O7 0.693978 0.077531 0.486318
O O8 0.626678 0.105270 0.738791
O O9 0.942198 0.217810 0.690085
O O10 0.846916 0.279163 0.902496
O O11 0.785561 0.979036 0.875581
O O12 0.994866 0.887683 0.440339
O O13 0.799916 0.214593 0.130018
O O14 0.116615 0.322692 0.142173
#
# Coordination Sequence:
#
# PCOD9574443 Si02
#       7
#     3   3   3   3   3   3   3
#     4  12  24  49  76 113 163 210 285 352 426 536
#     4  12  23  47  82 116 154 218 285 342 437 535
#     4  11  24  44  79 119 162 216 279 358 438 519
#     4  11  23  47  74 109 164 214 276 359 424 534
#     4  11  23  48  74 104 162 205 262 351 426 504
#     4  11  21  44  79 113 149 215 282 343 426 525
#     4  12  28  49  76 118 168 216 277 361 439 531
#
# _framework density 27.122066
#
# number of rings (size 3 to 8) (size 9 to 14) (size 15 to 20)
#    0.000    0.571    5.714    3.429    0.000    0.000 
#    5.143    2.857    0.000    0.000    0.000    0.000 
#    0.000    0.000    0.000    0.000    0.000    0.000 
#
# Total GULP energy -117284.518563 kJ/mol
# GULP energy per Si atom -5584.977074 kJ/mol
# Density = 2.706034 g / cm^3
# Si number density = 27.122066 Si / 1000 Ang^3
#
#
#
# Elastic Constant Matrix: (Units=GPa)
#
#
# Indices 1 2 3 4 5 6 
#
# 1 118.2200 40.9853 21.1051 -16.0461 -4.4143 0.0000
# 2 40.9853 118.2200 21.1051 16.0461 4.4143 0.0000
# 3 21.1051 21.1051 64.8524 0.0000 0.0000 0.0000
# 4 -16.0461 16.0461 0.0000 37.3019 0.0000 4.4143
# 5 -4.4143 4.4143 0.0000 0.0000 37.3019 -16.0461
# 6 0.0000 0.0000 0.0000 4.4143 -16.0461 38.6174
#
#
#
# Elastic Compliance Matrix: (Units=1/GPa)
#
#
# Indices 1 2 3 4 5 6 
#
# 1 0.011452 -0.004578 -0.002237 0.006895 0.001897 0.000000
# 2 -0.004578 0.011452 -0.002237 -0.006895 -0.001897 0.000000
# 3 -0.002237 -0.002237 0.016876 0.000000 0.000000 0.000000
# 4 0.006895 -0.006895 0.000000 0.033190 0.000000 -0.003794
# 5 0.001897 -0.001897 0.000000 0.000000 0.033190 0.013791
# 6 0.000000 0.000000 0.000000 -0.003794 0.013791 0.032059
#
#
# Mechanical properties :
#
#
# Convention : Reuss Voigt Hill
#
# Bulk Modulus (GPa) = 46.13432 51.96482 49.04957
# Shear Modulus (GPa) = 30.57233 37.18405 33.87819
#
# Velocity S-wave (km/s) = 3.36104 3.70670 3.53810
# Velocity P-wave (km/s) = 5.66647 6.12542 5.90041
#
# Compressibility (1/GPa) = 0.02167584
#
# Stress axis : x y z
#
# Youngs Moduli (GPa) = 87.32163 87.32163 59.25685
#
# Poissons Ratio (x) = 0.39972 0.13256
# Poissons Ratio (y) = 0.39972 0.13256
# Poissons Ratio (z) = 0.19535 0.19535
#
# Static dielectric constant tensor:
#      x y z
#    x 2.254620 0.000000 0.000000 
#    y 0.000000 2.254620 0.000000 
#    z 0.000000 0.000000 2.089210 
# 
# From -- ./inp_files/610.got.cif
#   From: 2010.05.17/outbox.cif.g08.bks.cpg/sg144_cif.got.tgz:610.got - 2010.05.20 13:46:34.
