data_PCOD9574114
_publ_section_title
;
Structure prediction by ZEFSAII (Michael W. Deem and Ramdas Pophale) SiO2 
 PCOD9574114
Probable space group: I 41/A C D
;
_chemical_formula_sum "Si O2"
_cell_formula_units_Z 176
_cell_length_a 25.316446
_cell_length_b 25.316446
_cell_length_c 11.855006
_cell_angle_alpha 90.000000
_cell_angle_beta 90.000000
_cell_angle_gamma 90.000000
_cell_volume 7598.139349
_symmetry_space_group_name_H-M "I 41/A C D"
_symmetry_group_IT_number 142
_space_group.IT_coordinate_system_code '2'
_symmetry_cell_setting 'tetragonal'
loop_
_space_group_symop_operation_xyz
x,y,z
1/4-y,3/4+x,1/4+z
-x,1/2-y,z
1/4+y,1/4-x,3/4+z
x,-y,1/2-z
1/2-x,y,-z
3/4+y,1/4+x,1/4-z
1/4-y,1/4-x,1/4-z
-x,-y,-z
3/4+y,1/4-x,3/4-z
x,1/2+y,-z
3/4-y,3/4+x,1/4-z
-x,y,1/2+z
1/2+x,-y,z
1/4-y,3/4-x,3/4+z
3/4+y,3/4+x,3/4+z
1/2+x,1/2+y,1/2+z
3/4-y,1/4+x,3/4+z
1/2-x,-y,1/2+z
3/4+y,3/4-x,1/4+z
1/2+x,1/2-y,-z
-x,1/2+y,1/2-z
1/4+y,3/4+x,3/4-z
3/4-y,3/4-x,3/4-z
1/2-x,1/2-y,1/2-z
1/4+y,3/4-x,1/4-z
1/2+x,y,1/2-z
1/4-y,1/4+x,3/4-z
1/2-x,1/2+y,z
x,1/2-y,1/2+z
3/4-y,1/4-x,1/4+z
1/4+y,1/4+x,1/4+z
loop_
_atom_site_type_symbol
_atom_site_label
_atom_site_fract_x
_atom_site_fract_y
_atom_site_fract_z
Si Si1 0.727670 0.500000 0.750000
Si Si2 0.440539 0.452566 0.326001
Si Si3 0.940078 0.046185 0.098846
Si Si4 0.140187 0.713441 0.133927
Si Si5 0.125839 0.328366 0.950568
Si Si6 0.699278 0.118092 0.208112
O O1 0.754103 0.504103 0.875000
O O2 0.701955 0.558098 0.750885
O O3 0.418163 0.500000 0.250000
O O4 0.500785 0.468853 0.360329
O O5 0.444605 0.402708 0.242627
O O6 0.405419 0.440937 0.433768
O O7 0.925739 0.095598 0.179259
O O8 0.895347 0.001147 0.100572
O O9 0.946803 0.064172 0.970382
O O10 0.137983 0.775965 0.120601
O O11 0.089502 0.686064 0.190007
O O12 0.153947 0.376077 0.884734
#
# Coordination Sequence:
#
# PCOD9574114 Si02
#       6
#    16  32  32  32  32  32
#     4  12  36  52  68 108 160 210 250 290 384 468
#     4  11  22  41  74 108 137 183 250 312 356 421
#     4  11  22  44  75 105 138 186 253 306 363 428
#     4  11  24  44  69 108 139 187 241 300 374 440
#     4  11  26  44  73 104 143 188 238 307 366 442
#     4  12  26  48  74 102 149 195 243 307 362 448
#
# _framework density 23.163567
#
# number of rings (size 3 to 8) (size 9 to 14) (size 15 to 20)
#    0.000    0.727    3.636    3.818    8.909    0.364 
#    0.000    0.000    0.000    2.182    0.000    0.000 
#    0.000    0.000    0.000    0.000    0.000    0.000 
#
# Total GULP energy -491704.129105 kJ/mol
# GULP energy per Si atom -5587.546922 kJ/mol
# Density = 2.311085 g / cm^3
# Si number density = 23.163567 Si / 1000 Ang^3
#
#
#
# Elastic Constant Matrix: (Units=GPa)
#
#
# Indices 1 2 3 4 5 6 
#
# 1 92.4209 28.3564 29.1365 0.0000 0.0000 0.0000
# 2 28.3564 92.4209 29.1365 0.0000 0.0000 0.0000
# 3 29.1365 29.1365 143.0242 0.0000 0.0000 0.0000
# 4 0.0000 0.0000 0.0000 30.7476 0.0000 0.0000
# 5 0.0000 0.0000 0.0000 0.0000 30.7476 0.0000
# 6 0.0000 0.0000 0.0000 0.0000 0.0000 25.7618
#
#
#
# Elastic Compliance Matrix: (Units=1/GPa)
#
#
# Indices 1 2 3 4 5 6 
#
# 1 0.012396 -0.003214 -0.001871 0.000000 0.000000 0.000000
# 2 -0.003214 0.012396 -0.001871 0.000000 0.000000 0.000000
# 3 -0.001871 -0.001871 0.007754 0.000000 0.000000 0.000000
# 4 0.000000 0.000000 0.000000 0.032523 0.000000 0.000000
# 5 0.000000 0.000000 0.000000 0.000000 0.032523 0.000000
# 6 0.000000 0.000000 0.000000 0.000000 0.000000 0.038817
#
#
# Mechanical properties :
#
#
# Convention : Reuss Voigt Hill
#
# Bulk Modulus (GPa) = 53.65930 55.68053 54.66991
# Shear Modulus (GPa) = 31.94282 33.53385 32.73833
#
# Velocity S-wave (km/s) = 3.71753 3.80899 3.76354
# Velocity P-wave (km/s) = 6.45309 6.59050 6.52216
#
# Compressibility (1/GPa) = 0.01863610
#
# Stress axis : x y z
#
# Youngs Moduli (GPa) = 80.67283 80.67283 128.96633
#
# Poissons Ratio (x) = 0.25924 0.24124
# Poissons Ratio (y) = 0.25924 0.24124
# Poissons Ratio (z) = 0.15090 0.15090
#
# Static dielectric constant tensor:
#      x y z
#    x 1.905430 0.000000 0.000000 
#    y 0.000000 1.905430 0.000000 
#    z 0.000000 0.000000 1.856700 
# 
# From -- ./inp_files/3948.got.cif
#   From: 2010.05.17/outbox.cif.g08.bks.cpg/sg142_2_cif.got.tgz:3948.got - 2010.05.20 13:39:18.
