data_PCOD9574550
_publ_section_title
;
Structure prediction by ZEFSAII (Michael W. Deem and Ramdas Pophale) SiO2 
 PCOD9574550
Probable space group: P 32
;
_chemical_formula_sum "Si O2"
_cell_formula_units_Z 24
_cell_length_a 8.228832
_cell_length_b 8.228832
_cell_length_c 17.725635
_cell_angle_alpha 90.000000
_cell_angle_beta 90.000000
_cell_angle_gamma 120.000000
_cell_volume 1039.462499
_symmetry_space_group_name_H-M "P 32"
_symmetry_group_IT_number 145
_symmetry_cell_setting 'hexagonal'
loop_
_space_group_symop_operation_xyz
x,y,z
-y,x-y,2/3+z
-x+y,-x,1/3+z
loop_
_atom_site_type_symbol
_atom_site_label
_atom_site_fract_x
_atom_site_fract_y
_atom_site_fract_z
Si Si1 0.310556 0.615639 0.507110
Si Si2 0.620824 0.118037 0.221741
Si Si3 0.960443 0.858104 0.934860
Si Si4 0.571235 0.231605 0.983329
Si Si5 0.379491 0.197568 0.123374
Si Si6 0.311368 0.078438 0.839010
Si Si7 0.230211 0.340292 0.746178
Si Si8 0.283860 0.359992 0.271872
O O1 0.426349 0.526939 0.544762
O O2 0.444980 0.762219 0.442585
O O3 0.258666 0.716561 0.573501
O O4 0.110193 0.429704 0.482356
O O5 0.829696 0.156034 0.217900
O O6 0.608314 0.217862 0.297669
O O7 0.566957 0.205126 0.153183
O O8 0.811303 0.904637 0.971304
O O9 0.112784 0.010048 0.880287
O O10 0.076459 0.801380 0.992367
O O11 0.459525 0.180751 0.904983
O O12 0.581000 0.040044 0.994929
O O13 0.454250 0.284188 0.041041
O O14 0.315738 0.278882 0.191988
O O15 0.222702 0.984349 0.109063
O O16 0.331590 0.230987 0.778904
#
# Coordination Sequence:
#
# PCOD9574550 Si02
#       8
#     3   3   3   3   3   3   3   3
#     4   9  22  43  63  90 133 173 216 278 339 408
#     4   9  22  39  61  91 132 165 213 279 324 397
#     4  11  22  39  62  98 127 172 221 271 341 403
#     4  10  21  41  67  93 129 173 218 273 333 409
#     4  10  20  42  66  91 127 173 219 270 339 399
#     4  10  21  41  65  94 134 171 218 277 334 404
#     4  11  22  40  68  93 130 178 219 279 339 409
#     4  10  22  41  66  94 132 171 222 279 339 409
#
# _framework density 23.088857999999998
#
# number of rings (size 3 to 8) (size 9 to 14) (size 15 to 20)
#    0.000    2.000    2.500    0.000    1.750    6.000 
#    0.000    5.000    0.000    0.000    0.000    0.000 
#    0.000    0.000    0.000    0.000    0.000    0.000 
#
# Total GULP energy -133675.730030 kJ/mol
# GULP energy per Si atom -5569.822085 kJ/mol
# Density = 2.303631 g / cm^3
# Si number density = 23.088858 Si / 1000 Ang^3
#
#
#
# Elastic Constant Matrix: (Units=GPa)
#
#
# Indices 1 2 3 4 5 6 
#
# 1 64.3736 22.6542 17.9852 -7.9787 2.7676 0.0000
# 2 22.6542 64.3736 17.9852 7.9787 -2.7676 0.0000
# 3 17.9852 17.9852 63.0958 0.0000 0.0000 0.0000
# 4 -7.9787 7.9787 0.0000 31.8273 0.0000 -2.7676
# 5 2.7676 -2.7676 0.0000 0.0000 31.8273 -7.9787
# 6 0.0000 0.0000 0.0000 -2.7676 -7.9787 20.8597
#
#
#
# Elastic Compliance Matrix: (Units=1/GPa)
#
#
# Indices 1 2 3 4 5 6 
#
# 1 0.019940 -0.006915 -0.003713 0.006732 -0.002335 0.000000
# 2 -0.006915 0.019940 -0.003713 -0.006732 0.002335 0.000000
# 3 -0.003713 -0.003713 0.017966 0.000000 0.000000 0.000000
# 4 0.006732 -0.006732 0.000000 0.035201 0.000000 0.004670
# 5 -0.002335 0.002335 0.000000 0.000000 0.035201 0.013464
# 6 0.000000 0.000000 0.000000 0.004670 0.013464 0.053709
#
#
# Mechanical properties :
#
#
# Convention : Reuss Voigt Hill
#
# Bulk Modulus (GPa) = 34.28793 34.34356 34.31574
# Shear Modulus (GPa) = 22.69036 25.78407 24.23722
#
# Velocity S-wave (km/s) = 3.13827 3.34538 3.24348
# Velocity P-wave (km/s) = 5.29286 5.46158 5.37788
#
# Compressibility (1/GPa) = 0.02916478
#
# Stress axis : x y z
#
# Youngs Moduli (GPa) = 50.15098 50.15099 55.66213
#
# Poissons Ratio (x) = 0.34678 0.20666
# Poissons Ratio (y) = 0.34678 0.20666
# Poissons Ratio (z) = 0.18620 0.18620
#
# Static dielectric constant tensor:
#      x y z
#    x 1.955670 0.000000 0.000000 
#    y 0.000000 1.955670 0.000000 
#    z 0.000000 0.000000 1.901840 
# 
# From -- ./inp_files/844.got.cif
#   From: 2010.05.17/outbox.cif.g08.bks.cpg/sg145_cif.got.tgz:844.got - 2010.05.20 13:47:28.
