data_PCOD9574999
_publ_section_title
;
Structure prediction by ZEFSAII (Michael W. Deem and Ramdas Pophale) SiO2 
 PCOD9574999
Probable space group: R -3
;
_chemical_formula_sum "Si O2"
_cell_formula_units_Z 72
_cell_length_a 17.088345
_cell_length_b 17.088345
_cell_length_c 12.684419
_cell_angle_alpha 90.000000
_cell_angle_beta 90.000000
_cell_angle_gamma 120.000000
_cell_volume 3207.755204
_symmetry_space_group_name_H-M "R -3"
_symmetry_group_IT_number 148
_symmetry_cell_setting 'hexagonal'
loop_
_space_group_symop_operation_xyz
x,y,z
-y,x-y,z
-x+y,-x,z
-x,-y,-z
y,-x+y,-z
x-y,x,-z
2/3+x,1/3+y,1/3+z
2/3-y,1/3+x-y,1/3+z
2/3-x+y,1/3-x,1/3+z
2/3-x,1/3-y,1/3-z
2/3+y,1/3-x+y,1/3-z
2/3+x-y,1/3+x,1/3-z
1/3+x,2/3+y,2/3+z
1/3-y,2/3+x-y,2/3+z
1/3-x+y,2/3-x,2/3+z
1/3-x,2/3-y,2/3-z
1/3+y,2/3-x+y,2/3-z
1/3+x-y,2/3+x,2/3-z
loop_
_atom_site_type_symbol
_atom_site_label
_atom_site_fract_x
_atom_site_fract_y
_atom_site_fract_z
Si Si1 0.352211 0.520277 0.616217
Si Si2 0.717730 0.647694 0.800680
Si Si3 0.376204 0.131274 0.021364
Si Si4 0.438472 0.333510 0.084595
O O1 0.285071 0.514177 0.706446
O O2 0.390156 0.453329 0.637148
O O3 0.305733 0.490855 0.502134
O O4 0.759707 0.617301 0.894761
O O5 0.757117 0.748587 0.748488
O O6 0.629984 0.638731 0.862069
O O7 0.702966 0.585082 0.700073
O O8 0.396401 0.225064 0.073093
#
# Coordination Sequence:
#
# PCOD9574999 Si02
#       4
#    18  18  18  18
#     4  11  21  35  54  78 104 139 180 220 258 307
#     4   9  18  31  51  79 104 134 176 215 258 314
#     4  10  17  32  53  77 107 139 170 216 266 311
#     4  10  19  34  53  78 110 140 171 215 265 312
#
# _framework density 22.445602999999998
#
# number of rings (size 3 to 8) (size 9 to 14) (size 15 to 20)
#    0.000    2.000    0.000    9.250    0.000    0.000 
#    0.000   13.750    0.000    0.000    0.000    1.750 
#    0.000    0.000    0.000    0.000    0.000    0.000 
#
# Total GULP energy -133646.477800 kJ/mol
# GULP energy per Si atom -5568.603242 kJ/mol
# Density = 2.239452 g / cm^3
# Si number density = 22.445603 Si / 1000 Ang^3
#
#
#
# Elastic Constant Matrix: (Units=GPa)
#
#
# Indices 1 2 3 4 5 6 
#
# 1 22.3923 29.4059 19.0933 -2.6121 -15.8308 0.0000
# 2 29.4059 22.3923 19.0933 2.6121 15.8308 0.0000
# 3 19.0933 19.0933 175.9639 0.0000 0.0000 0.0000
# 4 -2.6121 2.6121 0.0000 16.5188 0.0000 15.8308
# 5 -15.8308 15.8308 0.0000 0.0000 16.5188 -2.6121
# 6 0.0000 0.0000 0.0000 15.8308 -2.6121 -3.5068
#
#
#
# Elastic Compliance Matrix: (Units=1/GPa)
#
#
# Indices 1 2 3 4 5 6 
#
# 1 -0.002603 0.023587 -0.002277 -0.004141 -0.025099 0.000000
# 2 0.023587 -0.002603 -0.002277 0.004141 0.025099 0.000000
# 3 -0.002277 -0.002277 0.006177 0.000000 0.000000 0.000000
# 4 -0.004141 0.004141 0.000000 0.011120 0.000000 0.050198
# 5 -0.025099 0.025099 0.000000 0.000000 0.011120 -0.008283
# 6 0.000000 0.000000 0.000000 0.050198 -0.008283 -0.052380
#
#
# Mechanical properties :
#
#
# Convention : Reuss Voigt Hill
#
# Bulk Modulus (GPa) = 25.61612 39.54818 32.58215
# Shear Modulus (GPa) = -92.21237 16.11656 -38.04790
#
# Velocity S-wave (km/s) = -6.41652 2.68251 -4.12165
# Velocity P-wave (km/s) = 6.59230 5.22037 2.84659
#
# Compressibility (1/GPa) = 0.03903791
#
# Stress axis : x y z
#
# Youngs Moduli (GPa) = -384.19902 -384.19902 161.88801
#
# Poissons Ratio (x) = 9.06214 0.36861
# Poissons Ratio (y) = 9.06214 0.36861
# Poissons Ratio (z) = -0.87480 -0.87480
#
# Static dielectric constant tensor:
#      x y z
#    x 1.896540 0.000000 0.000000 
#    y 0.000000 1.896540 0.000000 
#    z 0.000000 0.000000 1.970150 
# 
# From -- ./inp_files/1876.got.cif
#   From: 2010.05.17/outbox.cif.g08.bks.cpg/sg148_1_cif.got.tgz:1876.got - 2010.05.20 13:50:20.
