data_PCOD9574872
_publ_section_title
;
Structure prediction by ZEFSAII (Michael W. Deem and Ramdas Pophale) SiO2 
 PCOD9574872
Probable space group: P -3
;
_chemical_formula_sum "Si O2"
_cell_formula_units_Z 24
_cell_length_a 10.843669
_cell_length_b 10.843669
_cell_length_c 10.961607
_cell_angle_alpha 90.000000
_cell_angle_beta 90.000000
_cell_angle_gamma 120.000000
_cell_volume 1116.239442
_symmetry_space_group_name_H-M "P -3"
_symmetry_group_IT_number 147
_symmetry_cell_setting 'hexagonal'
loop_
_space_group_symop_operation_xyz
x,y,z
-y,x-y,z
-x+y,-x,z
-x,-y,-z
y,-x+y,-z
x-y,x,-z
loop_
_atom_site_type_symbol
_atom_site_label
_atom_site_fract_x
_atom_site_fract_y
_atom_site_fract_z
Si Si1 0.744855 0.677080 0.000000
Si Si2 0.323670 0.066630 0.734669
Si Si3 0.257040 0.323669 0.734668
Si Si4 0.509311 0.169339 0.500000
O O1 0.688218 0.605095 0.131456
O O2 0.726669 0.815216 1.000000
O O3 0.688218 0.605094 0.868545
O O4 0.275765 0.185798 0.727086
O O5 0.427594 0.094922 0.622521
O O6 0.185800 0.910033 0.727085
O O7 0.332672 0.427592 0.622520
O O8 0.670940 0.202900 0.499999
#
# Coordination Sequence:
#
# PCOD9574872 Si02
#       4
#     6   6   6   6
#     4   8  15  28  50  82 112 134 155 198 268 330
#     4  10  19  34  58  85 110 132 165 215 270 322
#     4  10  19  34  58  85 110 132 165 215 270 322
#     4  10  24  40  50  70 100 154 188 218 252 294
#
# _framework density 21.500762999999999
#
# number of rings (size 3 to 8) (size 9 to 14) (size 15 to 20)
#    0.500    2.000    0.000    2.250    0.000    8.000 
#    0.000    5.000    0.000    9.000    0.000    0.000 
#    0.000    0.000    0.000    0.000    0.000    0.000 
#
# Total GULP energy -133906.976263 kJ/mol
# GULP energy per Si atom -5579.457344 kJ/mol
# Density = 2.145183 g / cm^3
# Si number density = 21.500763 Si / 1000 Ang^3
#
#
#
# Elastic Constant Matrix: (Units=GPa)
#
#
# Indices 1 2 3 4 5 6 
#
# 1 76.3688 13.0671 56.7265 -0.0001 -0.0005 0.0000
# 2 13.0671 76.3688 56.7265 0.0001 0.0005 0.0000
# 3 56.7265 56.7265 239.0904 0.0000 0.0000 0.0000
# 4 -0.0001 0.0001 0.0000 -27.0204 0.0000 0.0005
# 5 -0.0005 0.0005 0.0000 0.0000 -27.0204 -0.0001
# 6 0.0000 0.0000 0.0000 0.0005 -0.0001 31.6509
#
#
#
# Elastic Compliance Matrix: (Units=1/GPa)
#
#
# Indices 1 2 3 4 5 6 
#
# 1 0.015896 0.000099 -0.003795 0.000000 0.000000 0.000000
# 2 0.000099 0.015896 -0.003795 0.000000 0.000000 0.000000
# 3 -0.003795 -0.003795 0.005983 0.000000 0.000000 0.000000
# 4 0.000000 0.000000 0.000000 -0.037009 0.000000 0.000001
# 5 0.000000 0.000000 0.000000 0.000000 -0.037009 0.000000
# 6 0.000000 0.000000 0.000000 0.000001 0.000000 0.031595
#
#
# Mechanical properties :
#
#
# Convention : Reuss Voigt Hill
#
# Bulk Modulus (GPa) = 43.87143 71.65204 57.76173
# Shear Modulus (GPa) = 278.81984 13.20922 146.01453
#
# Velocity S-wave (km/s) = 11.40002 2.48132 8.24977
# Velocity P-wave (km/s) = 13.91868 6.45034 10.84750
#
# Compressibility (1/GPa) = 0.02279388
#
# Stress axis : x y z
#
# Youngs Moduli (GPa) = 62.90744 62.90744 167.13045
#
# Poissons Ratio (x) = -0.00623 0.63427
# Poissons Ratio (y) = -0.00623 0.63427
# Poissons Ratio (z) = 0.23874 0.23874
#
# Static dielectric constant tensor:
#      x y z
#    x 1.753510 0.000000 0.000000 
#    y 0.000000 1.753510 0.000000 
#    z 0.000000 0.000000 1.819790 
# 
# From -- ./inp_files/790.got.cif
#   From: 2010.05.17/outbox.cif.g08.bks.cpg/sg147_cif.got.tgz:790.got - 2010.05.20 13:49:32.
