data_PCOD9574304
_publ_section_title
;
Structure prediction by ZEFSAII (Michael W. Deem and Ramdas Pophale) SiO2 
 PCOD9574304
Probable space group: P 31
;
_chemical_formula_sum "Si O2"
_cell_formula_units_Z 24
_cell_length_a 7.100994
_cell_length_b 7.100994
_cell_length_c 21.882414
_cell_angle_alpha 90.000000
_cell_angle_beta 90.000000
_cell_angle_gamma 120.000000
_cell_volume 955.573623
_symmetry_space_group_name_H-M "P 31"
_symmetry_group_IT_number 144
_symmetry_cell_setting 'hexagonal'
loop_
_space_group_symop_operation_xyz
x,y,z
-y,x-y,1/3+z
-x+y,-x,2/3+z
loop_
_atom_site_type_symbol
_atom_site_label
_atom_site_fract_x
_atom_site_fract_y
_atom_site_fract_z
Si Si1 0.335718 0.335718 0.084400
Si Si2 0.400355 0.126254 0.791342
Si Si3 0.599640 0.873744 0.291342
Si Si4 0.118641 0.559322 0.501066
Si Si5 0.881359 0.440682 0.001067
Si Si6 0.000001 0.335713 0.251067
Si Si7 0.599644 0.725899 0.710791
Si Si8 0.400361 0.274104 0.210791
O O1 0.476421 0.409534 0.146923
O O2 0.097502 0.292146 0.103534
O O3 0.292146 0.097502 0.065266
O O4 0.409534 0.476421 0.021877
O O5 0.348709 0.311613 0.812182
O O6 0.551733 0.225012 0.731499
O O7 0.476417 0.066889 0.855210
O O8 0.651280 0.688382 0.312183
O O9 0.448265 0.774988 0.231498
O O10 0.805356 0.097497 0.270201
O O11 0.962899 0.311618 0.523284
O O12 0.225012 0.551734 0.437301
O O13 0.774987 0.448265 0.937302
O O14 0.037095 0.688387 0.023285
O O15 0.066889 0.476417 0.313590
O O16 0.194646 0.292143 0.231932
#
# Coordination Sequence:
#
# PCOD9574304 Si02
#       8
#     3   3   3   3   3   3   3   3
#     4   8  16  34  52  66  96 144 172 190 252 326
#     4   9  18  32  52  73 100 133 170 210 252 302
#     4   9  18  32  52  73 100 133 170 210 252 302
#     4  10  20  34  52  78 104 130 168 214 252 290
#     4  10  20  34  52  78 104 130 168 214 252 290
#     4   8  16  34  52  66  96 144 172 190 252 326
#     4   9  18  32  52  73 100 133 170 210 252 302
#     4   9  18  32  52  73 100 133 170 210 252 302
#
# _framework density 25.115805999999999
#
# number of rings (size 3 to 8) (size 9 to 14) (size 15 to 20)
#    0.000    3.000    0.000    0.000    0.000    8.000 
#    0.000   10.000    0.000    3.000    0.000    0.000 
#    0.000    0.000    0.000    0.000    0.000    0.000 
#
# Total GULP energy -133755.842834 kJ/mol
# GULP energy per Si atom -5573.160118 kJ/mol
# Density = 2.505864 g / cm^3
# Si number density = 25.115806 Si / 1000 Ang^3
#
#
#
# Elastic Constant Matrix: (Units=GPa)
#
#
# Indices 1 2 3 4 5 6 
#
# 1 57.4956 23.5196 51.3930 0.0000 0.0000 0.0000
# 2 23.5196 57.4956 51.3930 0.0000 0.0000 0.0000
# 3 51.3930 51.3930 298.5885 0.0000 0.0000 0.0000
# 4 0.0000 0.0000 0.0000 51.5512 0.0000 0.0000
# 5 0.0000 0.0000 0.0000 0.0000 51.5512 0.0000
# 6 0.0000 0.0000 0.0000 0.0000 0.0000 16.9880
#
#
#
# Elastic Compliance Matrix: (Units=1/GPa)
#
#
# Indices 1 2 3 4 5 6 
#
# 1 0.022612 -0.006820 -0.002718 0.000000 0.000000 0.000000
# 2 -0.006820 0.022612 -0.002718 0.000000 0.000000 0.000000
# 3 -0.002718 -0.002718 0.004285 0.000000 0.000000 0.000000
# 4 0.000000 0.000000 0.000000 0.019398 0.000000 0.000000
# 5 0.000000 0.000000 0.000000 0.000000 0.019398 0.000000
# 6 0.000000 0.000000 0.000000 0.000000 0.000000 0.058865
#
#
# Mechanical properties :
#
#
# Convention : Reuss Voigt Hill
#
# Bulk Modulus (GPa) = 40.00616 74.02121 57.01368
# Shear Modulus (GPa) = 27.77531 43.16968 35.47250
#
# Velocity S-wave (km/s) = 3.32910 4.15037 3.76221
# Velocity P-wave (km/s) = 5.54441 7.24592 6.45150
#
# Compressibility (1/GPa) = 0.02499615
#
# Stress axis : x y z
#
# Youngs Moduli (GPa) = 44.22383 44.22383 233.38491
#
# Poissons Ratio (x) = 0.30162 0.63436
# Poissons Ratio (y) = 0.30162 0.63436
# Poissons Ratio (z) = 0.12020 0.12020
#
# Static dielectric constant tensor:
#      x y z
#    x 2.030440 0.000000 0.000000 
#    y 0.000000 2.030440 0.000000 
#    z 0.000000 0.000000 2.133500 
# 
# From -- ./inp_files/968.got.cif
#   From: 2010.05.17/outbox.cif.g08.bks.cpg/sg144_cif.got.tgz:968.got - 2010.05.20 13:46:34.
