data_PCOD9574403
_publ_section_title
;
Structure prediction by ZEFSAII (Michael W. Deem and Ramdas Pophale) SiO2 
 PCOD9574403
Probable space group: P 31
;
_chemical_formula_sum "Si O2"
_cell_formula_units_Z 24
_cell_length_a 8.131250
_cell_length_b 8.131250
_cell_length_c 17.058525
_cell_angle_alpha 90.000000
_cell_angle_beta 90.000000
_cell_angle_gamma 120.000000
_cell_volume 976.757458
_symmetry_space_group_name_H-M "P 31"
_symmetry_group_IT_number 144
_symmetry_cell_setting 'hexagonal'
loop_
_space_group_symop_operation_xyz
x,y,z
-y,x-y,1/3+z
-x+y,-x,2/3+z
loop_
_atom_site_type_symbol
_atom_site_label
_atom_site_fract_x
_atom_site_fract_y
_atom_site_fract_z
Si Si1 0.042439 0.582225 0.520400
Si Si2 0.278537 0.304464 0.175610
Si Si3 0.687279 0.462523 0.729289
Si Si4 0.323948 0.900071 0.606482
Si Si5 0.880997 0.591743 0.275526
Si Si6 0.853292 0.627008 0.094480
Si Si7 0.378843 0.780872 0.760365
Si Si8 0.010969 0.247167 0.622553
O O1 0.126160 0.788729 0.559037
O O2 0.227728 0.617049 0.471143
O O3 0.874581 0.485759 0.458121
O O4 0.988115 0.417761 0.585151
O O5 0.365351 0.237643 0.103711
O O6 0.446114 0.484348 0.223225
O O7 0.165412 0.404731 0.141237
O O8 0.191872 0.127733 0.235361
O O9 0.593471 0.465483 0.646467
O O10 0.735479 0.297946 0.718520
O O11 0.305253 0.748528 0.671776
O O12 0.352505 0.088249 0.649109
O O13 0.817702 0.586154 0.185924
O O14 0.087985 0.769472 0.279440
O O15 0.060382 0.657433 0.084631
O O16 0.815818 0.773122 0.046387
#
# Coordination Sequence:
#
# PCOD9574403 Si02
#       8
#     3   3   3   3   3   3   3   3
#     4  10  26  43  71 102 134 186 240 285 359 419
#     4  10  23  44  70  98 137 187 238 290 365 415
#     4  11  25  44  69 100 136 181 237 291 353 430
#     4  11  23  43  69 102 138 184 230 292 354 421
#     4  12  26  42  69 106 136 186 235 286 360 417
#     4  12  25  46  69  96 146 179 231 292 356 425
#     4  11  23  44  70 102 139 182 236 297 348 431
#     4  11  25  46  69  98 144 191 229 297 357 428
#
# _framework density 24.571096000000001
#
# number of rings (size 3 to 8) (size 9 to 14) (size 15 to 20)
#    0.000    1.000    5.000    0.000    7.000    2.000 
#    0.000    0.000    0.000    0.000    0.000    0.000 
#    0.000    0.000    0.000    0.000    0.000    0.000 
#
# Total GULP energy -133943.099903 kJ/mol
# GULP energy per Si atom -5580.962496 kJ/mol
# Density = 2.451517 g / cm^3
# Si number density = 24.571096 Si / 1000 Ang^3
#
#
#
# Elastic Constant Matrix: (Units=GPa)
#
#
# Indices 1 2 3 4 5 6 
#
# 1 5.0848 31.3568 15.9355 -32.5453 7.7824 0.0000
# 2 31.3568 5.0848 15.9355 32.5453 -7.7824 0.0000
# 3 15.9355 15.9355 104.6862 0.0000 0.0000 0.0000
# 4 -32.5453 32.5453 0.0000 2.9199 0.0000 -7.7824
# 5 7.7824 -7.7824 0.0000 0.0000 2.9199 -32.5453
# 6 0.0000 0.0000 0.0000 -7.7824 -32.5453 -13.1360
#
#
#
# Elastic Compliance Matrix: (Units=1/GPa)
#
#
# Indices 1 2 3 4 5 6 
#
# 1 0.015197 0.016458 -0.004819 -0.014051 0.003360 0.000000
# 2 0.016458 0.015197 -0.004819 0.014051 -0.003360 0.000000
# 3 -0.004819 -0.004819 0.011019 0.000000 0.000000 0.000000
# 4 -0.014051 0.014051 0.000000 0.011343 0.000000 -0.006720
# 5 0.003360 -0.003360 0.000000 0.000000 0.011343 -0.028102
# 6 0.000000 0.000000 0.000000 -0.006720 -0.028102 -0.002521
#
#
# Mechanical properties :
#
#
# Convention : Reuss Voigt Hill
#
# Bulk Modulus (GPa) = 18.16345 26.81237 22.48791
# Shear Modulus (GPa) = 75.42813 1.98264 38.70539
#
# Velocity S-wave (km/s) = 5.54658 0.89925 3.97324
# Velocity P-wave (km/s) = 6.95900 3.46613 5.49735
#
# Compressibility (1/GPa) = 0.05505561
#
# Stress axis : x y z
#
# Youngs Moduli (GPa) = 65.80090 65.80090 90.74949
#
# Poissons Ratio (x) = -1.08295 0.43729
# Poissons Ratio (y) = -1.08295 0.43729
# Poissons Ratio (z) = 0.31707 0.31707
#
# Static dielectric constant tensor:
#      x y z
#    x 2.001690 0.000000 0.000000 
#    y 0.000000 2.001690 0.000000 
#    z 0.000000 0.000000 2.119560 
# 
# From -- ./inp_files/831.got.cif
#   From: 2010.05.17/outbox.cif.g08.bks.cpg/sg144_cif.got.tgz:831.got - 2010.05.20 13:46:34.
