data_PCOD9574031
_publ_section_title
;
Structure prediction by ZEFSAII (Michael W. Deem and Ramdas Pophale) SiO2 
 PCOD9574031
Probable space group: I 41/A C D
;
_chemical_formula_sum "Si O2"
_cell_formula_units_Z 120
_cell_length_a 17.872680
_cell_length_b 17.872680
_cell_length_c 15.216962
_cell_angle_alpha 90.000000
_cell_angle_beta 90.000000
_cell_angle_gamma 90.000000
_cell_volume 4860.795111
_symmetry_space_group_name_H-M "I 41/A C D"
_symmetry_group_IT_number 142
_space_group.IT_coordinate_system_code '2'
_symmetry_cell_setting 'tetragonal'
loop_
_space_group_symop_operation_xyz
x,y,z
1/4-y,3/4+x,1/4+z
-x,1/2-y,z
1/4+y,1/4-x,3/4+z
x,-y,1/2-z
1/2-x,y,-z
3/4+y,1/4+x,1/4-z
1/4-y,1/4-x,1/4-z
-x,-y,-z
3/4+y,1/4-x,3/4-z
x,1/2+y,-z
3/4-y,3/4+x,1/4-z
-x,y,1/2+z
1/2+x,-y,z
1/4-y,3/4-x,3/4+z
3/4+y,3/4+x,3/4+z
1/2+x,1/2+y,1/2+z
3/4-y,1/4+x,3/4+z
1/2-x,-y,1/2+z
3/4+y,3/4-x,1/4+z
1/2+x,1/2-y,-z
-x,1/2+y,1/2-z
1/4+y,3/4+x,3/4-z
3/4-y,3/4-x,3/4-z
1/2-x,1/2-y,1/2-z
1/4+y,3/4-x,1/4-z
1/2+x,y,1/2-z
1/4-y,1/4+x,3/4-z
1/2-x,1/2+y,z
x,1/2-y,1/2+z
3/4-y,1/4-x,1/4+z
1/4+y,1/4+x,1/4+z
loop_
_atom_site_type_symbol
_atom_site_label
_atom_site_fract_x
_atom_site_fract_y
_atom_site_fract_z
Si Si1 0.500000 0.250000 0.625000
Si Si2 0.092342 0.401470 0.417503
Si Si3 0.250000 0.868625 0.500000
Si Si4 0.464357 0.594589 0.104104
Si Si5 0.250000 0.868222 0.000000
Si Si6 0.138662 0.388662 0.125000
O O1 0.441796 0.316566 0.592115
O O2 0.179973 0.404373 0.446241
O O3 0.051441 0.429691 0.504968
O O4 0.079987 0.451884 0.329928
O O5 0.290402 0.821324 0.575025
O O6 0.423761 0.673761 0.125000
O O7 0.551357 0.600576 0.118901
O O8 0.185192 0.916508 0.956753
#
# Coordination Sequence:
#
# PCOD9574031 Si02
#       6
#     8  32  16  32  16  16
#     4  12  28  48  82 120 156 202 288 336 398 464
#     4  11  28  49  80 118 160 212 261 335 395 490
#     4  10  25  51  80 116 155 203 266 328 405 481
#     4  10  24  46  81 116 155 200 264 324 396 468
#     4  12  31  49  74 114 163 213 262 318 403 477
#     4  12  27  48  76 112 158 206 260 325 396 478
#
# _framework density 24.68732
#
# number of rings (size 3 to 8) (size 9 to 14) (size 15 to 20)
#    0.000    1.067    0.000    2.800   22.400    2.133 
#    2.400    0.000    0.000    1.600    0.000    0.000 
#    0.000    0.000    0.000    0.000    0.000    0.000 
#
# Total GULP energy -334632.715155 kJ/mol
# GULP energy per Si atom -5577.211919 kJ/mol
# Density = 2.463113 g / cm^3
# Si number density = 24.687320 Si / 1000 Ang^3
#
#
#
# Elastic Constant Matrix: (Units=GPa)
#
#
# Indices 1 2 3 4 5 6 
#
# 1 135.8905 67.4040 36.4569 0.0000 0.0000 0.0000
# 2 67.4040 135.8905 36.4569 0.0000 0.0000 0.0000
# 3 36.4569 36.4569 161.7314 0.0000 0.0000 0.0000
# 4 0.0000 0.0000 0.0000 -46.4223 0.0000 0.0000
# 5 0.0000 0.0000 0.0000 0.0000 -46.4223 0.0000
# 6 0.0000 0.0000 0.0000 0.0000 0.0000 6.1100
#
#
#
# Elastic Compliance Matrix: (Units=1/GPa)
#
#
# Indices 1 2 3 4 5 6 
#
# 1 0.009977 -0.004625 -0.001206 0.000000 0.000000 0.000000
# 2 -0.004625 0.009977 -0.001206 0.000000 0.000000 0.000000
# 3 -0.001206 -0.001206 0.006727 0.000000 0.000000 0.000000
# 4 0.000000 0.000000 0.000000 -0.021541 0.000000 0.000000
# 5 0.000000 0.000000 0.000000 0.000000 -0.021541 0.000000
# 6 0.000000 0.000000 0.000000 0.000000 0.000000 0.163667
#
#
# Mechanical properties :
#
#
# Convention : Reuss Voigt Hill
#
# Bulk Modulus (GPa) = 79.33456 79.34977 79.34216
# Shear Modulus (GPa) = 30.20403 2.19939 16.20171
#
# Velocity S-wave (km/s) = 3.50160 0.94490 2.56457
# Velocity P-wave (km/s) = 6.96805 5.77946 6.40140
#
# Compressibility (1/GPa) = 0.01260485
#
# Stress axis : x y z
#
# Youngs Moduli (GPa) = 100.23528 100.23528 148.65578
#
# Poissons Ratio (x) = 0.46358 0.17933
# Poissons Ratio (y) = 0.46358 0.17933
# Poissons Ratio (z) = 0.12092 0.12092
#
# Static dielectric constant tensor:
#      x y z
#    x 1.975320 0.000000 0.000000 
#    y 0.000000 1.975320 0.000000 
#    z 0.000000 0.000000 2.029280 
# 
# From -- ./inp_files/5093.got.cif
#   From: 2010.05.17/outbox.cif.g08.bks.cpg/sg142_3_cif.got.tgz:5093.got - 2010.05.20 13:39:18.
