data_PCOD9574260
_publ_section_title
;
Structure prediction by ZEFSAII (Michael W. Deem and Ramdas Pophale) SiO2 
 PCOD9574260
Probable space group: I 41/A C D
;
_chemical_formula_sum "Si O2"
_cell_formula_units_Z 88
_cell_length_a 27.000000
_cell_length_b 27.000000
_cell_length_c 12.000000
_cell_angle_alpha 90.000000
_cell_angle_beta 90.000000
_cell_angle_gamma 90.000000
_cell_volume 8748.000000
_symmetry_space_group_name_H-M "I 41/A C D"
_symmetry_group_IT_number 142
_space_group.IT_coordinate_system_code '2'
_symmetry_cell_setting 'tetragonal'
loop_
_space_group_symop_operation_xyz
x,y,z
1/4-y,3/4+x,1/4+z
-x,1/2-y,z
1/4+y,1/4-x,3/4+z
x,-y,1/2-z
1/2-x,y,-z
3/4+y,1/4+x,1/4-z
1/4-y,1/4-x,1/4-z
-x,-y,-z
3/4+y,1/4-x,3/4-z
x,1/2+y,-z
3/4-y,3/4+x,1/4-z
-x,y,1/2+z
1/2+x,-y,z
1/4-y,3/4-x,3/4+z
3/4+y,3/4+x,3/4+z
1/2+x,1/2+y,1/2+z
3/4-y,1/4+x,3/4+z
1/2-x,-y,1/2+z
3/4+y,3/4-x,1/4+z
1/2+x,1/2-y,-z
-x,1/2+y,1/2-z
1/4+y,3/4+x,3/4-z
3/4-y,3/4-x,3/4-z
1/2-x,1/2-y,1/2-z
1/4+y,3/4-x,1/4-z
1/2+x,y,1/2-z
1/4-y,1/4+x,3/4-z
1/2-x,1/2+y,z
x,1/2-y,1/2+z
3/4-y,1/4-x,1/4+z
1/4+y,1/4+x,1/4+z
loop_
_atom_site_type_symbol
_atom_site_label
_atom_site_fract_x
_atom_site_fract_y
_atom_site_fract_z
Si Si1 0.431073 0.055751 0.775845
Si Si2 0.960716 0.861334 0.927123
Si Si3 0.064865 0.685136 0.375000
Si Si4 0.896867 0.643227 0.638654
Si Si5 0.346794 0.041911 0.154404
Si Si6 0.161630 0.510625 0.908016
O O1 0.463197 0.084691 0.869472
O O2 0.418372 0.097677 0.676752
O O3 0.379845 0.038223 0.834536
O O4 0.452746 0.000000 0.750000
O O5 0.910853 0.839148 0.875000
O O6 0.006767 0.828922 0.883688
O O7 0.945482 0.856679 0.057129
O O8 0.083701 0.660390 0.491141
O O9 0.886214 0.585680 0.664613
O O10 0.295980 0.073094 0.144940
O O11 0.345164 0.000000 0.250000
O O12 0.353845 0.016475 0.035498
O O13 0.211152 0.538849 0.875000
#
# Coordination Sequence:
#
# PCOD9574260 Si02
#       6
#    32  32  16  32  32  32
#     4  11  20  42  76 100 143 194 240 290 359 457
#     4  10  24  49  76 107 133 181 243 306 379 450
#     4  12  29  48  76 104 140 180 238 336 388 430
#     4  11  25  44  70 104 146 186 246 298 378 449
#     4  12  24  35  59  97 149 196 244 300 345 419
#     4  12  19  36  59  97 135 198 251 285 341 421
#
# _framework density 10.059442000000001
#
# number of rings (size 3 to 8) (size 9 to 14) (size 15 to 20)
#    0.000    0.727    5.455    3.000    7.636    0.000 
#    0.000    1.818    0.000    0.000    0.000    0.000 
#    0.000    0.000    0.000    0.000    0.000    0.000 
#
# Total GULP energy -489935.957100 kJ/mol
# GULP energy per Si atom -5567.454058 kJ/mol
# Density = 1.003655 g / cm^3
# Si number density = 10.059442 Si / 1000 Ang^3
#
#
#
# Elastic Constant Matrix: (Units=GPa)
#
#
# Indices 1 2 3 4 5 6 
#
# 1 51.5783 12.5915 10.8078 0.0000 0.0000 0.0000
# 2 12.5915 51.5756 10.8048 0.0000 0.0000 0.0000
# 3 10.8078 10.8048 127.5725 0.0000 0.0000 0.0000
# 4 0.0000 0.0000 0.0000 21.2234 0.0000 0.0000
# 5 0.0000 0.0000 0.0000 0.0000 21.2219 0.0000
# 6 0.0000 0.0000 0.0000 0.0000 0.0000 30.5805
#
#
#
# Elastic Compliance Matrix: (Units=1/GPa)
#
#
# Indices 1 2 3 4 5 6 
#
# 1 0.020846 -0.004804 -0.001359 0.000000 0.000000 0.000000
# 2 -0.004804 0.020847 -0.001359 0.000000 0.000000 0.000000
# 3 -0.001359 -0.001359 0.008069 0.000000 0.000000 0.000000
# 4 0.000000 0.000000 0.000000 0.047118 0.000000 0.000000
# 5 0.000000 0.000000 0.000000 0.000000 0.047121 0.000000
# 6 0.000000 0.000000 0.000000 0.000000 0.000000 0.032701
#
#
# Mechanical properties :
#
#
# Convention : Reuss Voigt Hill
#
# Bulk Modulus (GPa) = 28.80446 33.23717 31.02081
# Shear Modulus (GPa) = 24.59213 27.70665 26.14939
#
# Velocity S-wave (km/s) = 3.49999 3.71502 3.60911
# Velocity P-wave (km/s) = 5.53908 5.91253 5.72885
#
# Compressibility (1/GPa) = 0.03471685
#
# Stress axis : x y z
#
# Youngs Moduli (GPa) = 47.97159 47.96951 123.93279
#
# Poissons Ratio (x) = 0.23047 0.16844
# Poissons Ratio (y) = 0.23048 0.16837
# Poissons Ratio (z) = 0.06520 0.06517
#
# Static dielectric constant tensor:
#      x y z
#    x 1.745590 0.000000 0.000000 
#    y 0.000000 1.745580 0.000000 
#    z 0.000000 0.000000 1.786000 
# 
# From -- ./inp_files/3959.got.cif
#   From: 2010.05.17/outbox.ucp.g08.bks.cvg/sg142_2_cif.got.tgz:3959.got - 2010.06.11 11:43:53.
