data_PCOD9574004
_publ_section_title
;
Structure prediction by ZEFSAII (Michael W. Deem and Ramdas Pophale) SiO2 
 PCOD9574004
Probable space group: I 41/A C D
;
_chemical_formula_sum "Si O2"
_cell_formula_units_Z 176
_cell_length_a 18.009303
_cell_length_b 18.009303
_cell_length_c 25.524171
_cell_angle_alpha 90.000000
_cell_angle_beta 90.000000
_cell_angle_gamma 90.000000
_cell_volume 8278.381862
_symmetry_space_group_name_H-M "I 41/A C D"
_symmetry_group_IT_number 142
_space_group.IT_coordinate_system_code '2'
_symmetry_cell_setting 'tetragonal'
loop_
_space_group_symop_operation_xyz
x,y,z
1/4-y,3/4+x,1/4+z
-x,1/2-y,z
1/4+y,1/4-x,3/4+z
x,-y,1/2-z
1/2-x,y,-z
3/4+y,1/4+x,1/4-z
1/4-y,1/4-x,1/4-z
-x,-y,-z
3/4+y,1/4-x,3/4-z
x,1/2+y,-z
3/4-y,3/4+x,1/4-z
-x,y,1/2+z
1/2+x,-y,z
1/4-y,3/4-x,3/4+z
3/4+y,3/4+x,3/4+z
1/2+x,1/2+y,1/2+z
3/4-y,1/4+x,3/4+z
1/2-x,-y,1/2+z
3/4+y,3/4-x,1/4+z
1/2+x,1/2-y,-z
-x,1/2+y,1/2-z
1/4+y,3/4+x,3/4-z
3/4-y,3/4-x,3/4-z
1/2-x,1/2-y,1/2-z
1/4+y,3/4-x,1/4-z
1/2+x,y,1/2-z
1/4-y,1/4+x,3/4-z
1/2-x,1/2+y,z
x,1/2-y,1/2+z
3/4-y,1/4-x,1/4+z
1/4+y,1/4+x,1/4+z
loop_
_atom_site_type_symbol
_atom_site_label
_atom_site_fract_x
_atom_site_fract_y
_atom_site_fract_z
Si Si1 0.128684 0.013769 0.999021
Si Si2 0.990030 0.060695 0.320082
Si Si3 0.636394 0.438146 0.319835
Si Si4 0.750000 0.361566 0.000000
Si Si5 0.447682 0.184141 0.262409
Si Si6 0.314736 0.264001 0.688942
O O1 0.062141 0.026481 0.957366
O O2 0.178420 0.948054 0.975131
O O3 0.178598 0.085907 0.005347
O O4 0.084758 0.988614 0.051049
O O5 0.984976 0.128285 0.279469
O O6 0.057443 0.010342 0.299417
O O7 0.005627 0.086827 0.378870
O O8 0.914601 0.011563 0.318071
O O9 0.677277 0.427277 0.375000
O O10 0.582999 0.367840 0.308342
O O11 0.500000 0.250000 0.280655
O O12 0.381307 0.221326 0.229192
#
# Coordination Sequence:
#
# PCOD9574004 Si02
#       6
#    32  32  32  16  32  32
#     4  10  24  46  65  96 132 176 220 277 331 401
#     4  12  25  44  66 104 130 175 226 281 337 400
#     4  11  23  46  72  95 135 181 224 272 339 404
#     4  12  26  42  68  96 138 168 226 282 324 400
#     4  11  25  42  68  99 138 175 219 278 335 403
#     4  10  24  42  67  94 132 172 222 268 337 403
#
# _framework density 21.260193000000001
#
# number of rings (size 3 to 8) (size 9 to 14) (size 15 to 20)
#    0.000    1.091    3.636    1.091   10.182    1.091 
#    0.000    1.818    0.000    0.000    0.000    0.000 
#    0.000    0.000    0.000    0.000    0.000    0.000 
#
# Total GULP energy -492057.551432 kJ/mol
# GULP energy per Si atom -5591.563084 kJ/mol
# Density = 2.121180 g / cm^3
# Si number density = 21.260193 Si / 1000 Ang^3
#
#
#
# Elastic Constant Matrix: (Units=GPa)
#
#
# Indices 1 2 3 4 5 6 
#
# 1 67.2118 25.0719 -4.7873 0.0000 0.0000 0.0000
# 2 25.0719 67.2118 -4.7873 0.0000 0.0000 0.0000
# 3 -4.7873 -4.7873 20.9556 0.0000 0.0000 0.0000
# 4 0.0000 0.0000 0.0000 14.2311 0.0000 0.0000
# 5 0.0000 0.0000 0.0000 0.0000 14.2311 0.0000
# 6 0.0000 0.0000 0.0000 0.0000 0.0000 43.1722
#
#
#
# Elastic Compliance Matrix: (Units=1/GPa)
#
#
# Indices 1 2 3 4 5 6 
#
# 1 0.017415 -0.006316 0.002536 0.000000 0.000000 0.000000
# 2 -0.006316 0.017415 0.002536 0.000000 0.000000 0.000000
# 3 0.002536 0.002536 0.048879 0.000000 0.000000 0.000000
# 4 0.000000 0.000000 0.000000 0.070268 0.000000 0.000000
# 5 0.000000 0.000000 0.000000 0.000000 0.070268 0.000000
# 6 0.000000 0.000000 0.000000 0.000000 0.000000 0.023163
#
#
# Mechanical properties :
#
#
# Convention : Reuss Voigt Hill
#
# Bulk Modulus (GPa) = 12.31233 20.70820 16.51027
# Shear Modulus (GPa) = 18.05248 23.65234 20.85241
#
# Velocity S-wave (km/s) = 2.91713 3.33906 3.13520
# Velocity P-wave (km/s) = 4.14126 4.96259 4.57041
#
# Compressibility (1/GPa) = 0.08121941
#
# Stress axis : x y z
#
# Youngs Moduli (GPa) = 57.42226 57.42226 20.45888
#
# Poissons Ratio (x) = 0.36266 -0.05188
# Poissons Ratio (y) = 0.36266 -0.05188
# Poissons Ratio (z) = -0.14560 -0.14560
#
# Static dielectric constant tensor:
#      x y z
#    x 1.795670 0.000000 0.000000 
#    y 0.000000 1.795670 0.000000 
#    z 0.000000 0.000000 1.740150 
# 
# From -- ./inp_files/11427.got.cif
#   From: 2010.05.17/outbox.cif.g08.bks.cpg/sg142_6_cif.got.tgz:11427.got - 2010.05.20 13:39:18.
