data_PCOD9574294
_publ_section_title
;
Structure prediction by ZEFSAII (Michael W. Deem and Ramdas Pophale) SiO2 
 PCOD9574294
Probable space group: P 31
;
_chemical_formula_sum "Si O2"
_cell_formula_units_Z 18
_cell_length_a 7.145906
_cell_length_b 7.145906
_cell_length_c 16.608654
_cell_angle_alpha 90.000000
_cell_angle_beta 90.000000
_cell_angle_gamma 120.000000
_cell_volume 734.479481
_symmetry_space_group_name_H-M "P 31"
_symmetry_group_IT_number 144
_symmetry_cell_setting 'hexagonal'
loop_
_space_group_symop_operation_xyz
x,y,z
-y,x-y,1/3+z
-x+y,-x,2/3+z
loop_
_atom_site_type_symbol
_atom_site_label
_atom_site_fract_x
_atom_site_fract_y
_atom_site_fract_z
Si Si1 0.064274 0.635069 0.635430
Si Si2 0.460375 0.424984 0.789980
Si Si3 0.500167 0.488985 0.274160
Si Si4 0.316911 0.999962 0.440082
Si Si5 0.510109 0.382369 0.531284
Si Si6 0.052199 0.307926 0.312460
O O1 0.304032 0.828621 0.655017
O O2 0.982331 0.439994 0.697047
O O3 0.050384 0.541426 0.546477
O O4 0.913370 0.743334 0.633538
O O5 0.209733 0.294467 0.763986
O O6 0.551078 0.262822 0.804767
O O7 0.590454 0.617914 0.728292
O O8 0.513983 0.554550 0.179966
O O9 0.711033 0.463070 0.273054
O O10 0.268861 0.297052 0.300633
O O11 0.312374 0.206088 0.478363
O O12 0.533235 0.591139 0.573845
#
# Coordination Sequence:
#
# PCOD9574294 Si02
#       6
#     3   3   3   3   3   3
#     4  10  19  36  60  88 128 161 205 264 309 370
#     4  10  19  35  65  89 122 172 202 258 321 366
#     4   9  20  38  59  87 117 164 201 255 318 358
#     4   9  18  38  61  85 126 164 201 264 314 364
#     4   9  21  38  59  91 123 159 207 260 309 371
#     4  11  19  37  64  90 122 164 212 251 319 379
#
# _framework density 24.507152000000001
#
# number of rings (size 3 to 8) (size 9 to 14) (size 15 to 20)
#    1.000    1.333    3.333    0.000    0.000    0.000 
#    6.000    5.000    0.000    2.000    0.000    0.000 
#    0.000    0.000    0.000    0.000    0.000    0.000 
#
# Total GULP energy -100452.304204 kJ/mol
# GULP energy per Si atom -5580.683567 kJ/mol
# Density = 2.445137 g / cm^3
# Si number density = 24.507152 Si / 1000 Ang^3
#
#
#
# Elastic Constant Matrix: (Units=GPa)
#
#
# Indices 1 2 3 4 5 6 
#
# 1 75.0573 10.6212 1.4828 -6.9338 5.0348 0.0000
# 2 10.6212 75.0573 1.4828 6.9338 -5.0348 0.0000
# 3 1.4828 1.4828 60.9364 0.0000 0.0000 0.0000
# 4 -6.9338 6.9338 0.0000 22.7751 0.0000 -5.0348
# 5 5.0348 -5.0348 0.0000 0.0000 22.7751 -6.9338
# 6 0.0000 0.0000 0.0000 -5.0348 -6.9338 32.2181
#
#
#
# Elastic Compliance Matrix: (Units=1/GPa)
#
#
# Indices 1 2 3 4 5 6 
#
# 1 0.014463 -0.002782 -0.000284 0.005250 -0.003812 0.000000
# 2 -0.002782 0.014463 -0.000284 -0.005250 0.003812 0.000000
# 3 -0.000284 -0.000284 0.016424 0.000000 0.000000 0.000000
# 4 0.005250 -0.005250 0.000000 0.048790 0.000000 0.007624
# 5 -0.003812 0.003812 0.000000 0.000000 0.048790 0.010500
# 6 0.000000 0.000000 0.000000 0.007624 0.010500 0.034490
#
#
# Mechanical properties :
#
#
# Convention : Reuss Voigt Hill
#
# Bulk Modulus (GPa) = 25.87313 26.46941 26.17127
# Shear Modulus (GPa) = 25.38018 28.71794 27.04906
#
# Velocity S-wave (km/s) = 3.22160 3.42690 3.32583
# Velocity P-wave (km/s) = 4.94152 5.14610 5.04484
#
# Compressibility (1/GPa) = 0.03865014
#
# Stress axis : x y z
#
# Youngs Moduli (GPa) = 69.14133 69.14133 60.88506
#
# Poissons Ratio (x) = 0.19233 0.01731
# Poissons Ratio (y) = 0.19233 0.01731
# Poissons Ratio (z) = 0.01965 0.01965
#
# Static dielectric constant tensor:
#      x y z
#    x 1.956740 0.000000 0.000000 
#    y 0.000000 1.956740 0.000000 
#    z 0.000000 0.000000 1.946220 
# 
# From -- ./inp_files/756.got.cif
#   From: 2010.05.17/outbox.cif.g08.bks.cpg/sg144_cif.got.tgz:756.got - 2010.05.20 13:46:34.
