data_PCOD9574374
_publ_section_title
;
Structure prediction by ZEFSAII (Michael W. Deem and Ramdas Pophale) SiO2 
 PCOD9574374
Probable space group: P 31
;
_chemical_formula_sum "Si O2"
_cell_formula_units_Z 24
_cell_length_a 8.050760
_cell_length_b 8.050760
_cell_length_c 18.806337
_cell_angle_alpha 90.000000
_cell_angle_beta 90.000000
_cell_angle_gamma 120.000000
_cell_volume 1055.622422
_symmetry_space_group_name_H-M "P 31"
_symmetry_group_IT_number 144
_symmetry_cell_setting 'hexagonal'
loop_
_space_group_symop_operation_xyz
x,y,z
-y,x-y,1/3+z
-x+y,-x,2/3+z
loop_
_atom_site_type_symbol
_atom_site_label
_atom_site_fract_x
_atom_site_fract_y
_atom_site_fract_z
Si Si1 0.149335 0.338609 0.163760
Si Si2 0.079725 0.019414 0.710286
Si Si3 0.657328 0.637879 0.026904
Si Si4 0.649968 0.722136 0.261509
Si Si5 0.484364 0.384818 0.901630
Si Si6 0.314627 0.016758 0.985712
Si Si7 0.276175 0.651551 0.053865
Si Si8 0.824352 0.436712 0.817389
O O1 0.987873 0.169211 0.115627
O O2 0.100349 0.318599 0.246317
O O3 0.182972 0.537301 0.127455
O O4 0.338469 0.321604 0.153054
O O5 0.898350 0.813080 0.694033
O O6 0.209335 0.049472 0.641584
O O7 0.999063 0.161424 0.710182
O O8 0.472753 0.648699 0.051012
O O9 0.656529 0.475132 0.075197
O O10 0.619391 0.578449 0.945291
O O11 0.480294 0.630101 0.320834
O O12 0.639350 0.569534 0.204777
O O13 0.640390 0.909950 0.230962
O O14 0.612806 0.395425 0.835493
O O15 0.475138 0.213592 0.950401
O O16 0.330423 0.868335 0.038146
#
# Coordination Sequence:
#
# PCOD9574374 Si02
#       8
#     3   3   3   3   3   3   3   3
#     4  10  22  42  64  95 129 175 221 273 347 403
#     4  10  23  40  64  91 133 166 220 273 329 409
#     4  10  23  42  60  93 129 167 218 269 333 398
#     4   9  20  41  62  89 127 171 208 273 331 389
#     4  10  24  42  61  94 130 170 221 274 330 409
#     4  11  21  41  65  92 132 172 217 284 332 400
#     4   9  20  40  62  92 127 165 216 268 328 403
#     4  11  21  42  66  92 133 170 217 276 334 407
#
# _framework density 22.735399000000001
#
# number of rings (size 3 to 8) (size 9 to 14) (size 15 to 20)
#    0.000    2.000    1.250    3.000    5.250    1.000 
#   11.250    1.250    0.000    0.000    0.000    0.000 
#    0.000    0.000    0.000    0.000    0.000    0.000 
#
# Total GULP energy -133901.957522 kJ/mol
# GULP energy per Si atom -5579.248230 kJ/mol
# Density = 2.268365 g / cm^3
# Si number density = 22.735399 Si / 1000 Ang^3
#
#
#
# Elastic Constant Matrix: (Units=GPa)
#
#
# Indices 1 2 3 4 5 6 
#
# 1 37.1276 -2.4976 17.7738 0.3711 6.0443 0.0000
# 2 -2.4976 37.1276 17.7738 -0.3711 -6.0443 0.0000
# 3 17.7738 17.7738 74.1157 0.0000 0.0000 0.0000
# 4 0.3711 -0.3711 0.0000 20.2979 0.0000 -6.0443
# 5 6.0443 -6.0443 0.0000 0.0000 20.2979 0.3711
# 6 0.0000 0.0000 0.0000 -6.0443 0.3711 19.8126
#
#
#
# Elastic Compliance Matrix: (Units=1/GPa)
#
#
# Indices 1 2 3 4 5 6 
#
# 1 0.033037 0.005269 -0.009186 -0.000508 -0.008269 0.000000
# 2 0.005269 0.033037 -0.009186 0.000508 0.008269 0.000000
# 3 -0.009186 -0.009186 0.017898 0.000000 0.000000 0.000000
# 4 -0.000508 0.000508 0.000000 0.054209 0.000000 0.016538
# 5 -0.008269 0.008269 0.000000 0.000000 0.054209 -0.001015
# 6 0.000000 0.000000 0.000000 0.016538 -0.001015 0.055537
#
#
# Mechanical properties :
#
#
# Convention : Reuss Voigt Hill
#
# Bulk Modulus (GPa) = 17.31127 23.83009 20.57068
# Shear Modulus (GPa) = 17.04206 19.76975 18.40591
#
# Velocity S-wave (km/s) = 2.74082 2.95203 2.84838
# Velocity P-wave (km/s) = 4.20082 4.70357 4.45928
#
# Compressibility (1/GPa) = 0.05776583
#
# Stress axis : x y z
#
# Youngs Moduli (GPa) = 30.26870 30.26870 55.87103
#
# Poissons Ratio (x) = -0.15948 0.51325
# Poissons Ratio (y) = -0.15948 0.51325
# Poissons Ratio (z) = 0.27806 0.27806
#
# Static dielectric constant tensor:
#      x y z
#    x 1.955410 0.000000 0.000000 
#    y 0.000000 1.955410 0.000000 
#    z 0.000000 0.000000 1.928710 
# 
# From -- ./inp_files/868.got.cif
#   From: 2010.05.17/outbox.cif.g08.bks.cpg/sg144_cif.got.tgz:868.got - 2010.05.20 13:46:34.
