data_PCOD9574365
_publ_section_title
;
Structure prediction by ZEFSAII (Michael W. Deem and Ramdas Pophale) SiO2 
 PCOD9574365
Probable space group: P 31
;
_chemical_formula_sum "Si O2"
_cell_formula_units_Z 21
_cell_length_a 11.651602
_cell_length_b 11.651602
_cell_length_c 8.547512
_cell_angle_alpha 90.000000
_cell_angle_beta 90.000000
_cell_angle_gamma 120.000000
_cell_volume 1004.943473
_symmetry_space_group_name_H-M "P 31"
_symmetry_group_IT_number 144
_symmetry_cell_setting 'hexagonal'
loop_
_space_group_symop_operation_xyz
x,y,z
-y,x-y,1/3+z
-x+y,-x,2/3+z
loop_
_atom_site_type_symbol
_atom_site_label
_atom_site_fract_x
_atom_site_fract_y
_atom_site_fract_z
Si Si1 0.083180 0.773803 0.068750
Si Si2 0.027992 0.510891 0.173685
Si Si3 0.314983 0.891276 0.323188
Si Si4 0.653150 0.266692 0.883076
Si Si5 0.123836 0.313260 0.080870
Si Si6 0.803548 0.689118 0.199401
Si Si7 0.115331 0.662953 0.500842
O O1 0.213690 0.846092 0.177170
O O2 0.051051 0.621942 0.045850
O O3 0.955475 0.765214 0.148734
O O4 0.107488 0.844183 0.904263
O O5 0.875380 0.397863 0.186245
O O6 0.119020 0.446856 0.133789
O O7 0.049810 0.594023 0.335104
O O8 0.263125 0.765403 0.439606
O O9 0.456099 0.919735 0.269134
O O10 0.312246 0.012005 0.406798
O O11 0.672417 0.350170 0.722806
O O12 0.773707 0.236484 0.889288
O O13 0.233275 0.336066 0.948152
O O14 0.978820 0.218756 0.013057
#
# Coordination Sequence:
#
# PCOD9574365 Si02
#       7
#     3   3   3   3   3   3   3
#     4  10  23  42  66  97 129 180 222 281 354 417
#     4  10  22  42  60  98 141 163 228 282 344 430
#     4  10  22  39  62  96 132 173 216 282 341 408
#     4  11  24  42  69  99 138 190 231 290 348 420
#     4  11  22  41  69  99 135 183 216 294 356 415
#     4  10  24  46  62  97 139 170 238 284 334 438
#     4  10  23  34  62  96 132 167 213 275 351 408
#
# _framework density 20.896699000000002
#
# number of rings (size 3 to 8) (size 9 to 14) (size 15 to 20)
#    0.000    1.714    2.857    0.000   10.000    0.000 
#    2.571    2.857    0.000    0.000    0.000    0.000 
#    0.000    0.000    0.000    0.000    0.000    0.000 
#
# Total GULP energy -116945.489816 kJ/mol
# GULP energy per Si atom -5568.832848 kJ/mol
# Density = 2.084914 g / cm^3
# Si number density = 20.896699 Si / 1000 Ang^3
#
#
#
# Elastic Constant Matrix: (Units=GPa)
#
#
# Indices 1 2 3 4 5 6 
#
# 1 48.5300 23.5268 15.1167 2.9138 -5.5794 0.0000
# 2 23.5268 48.5300 15.1167 -2.9138 5.5794 0.0000
# 3 15.1167 15.1167 93.5785 0.0000 0.0000 0.0000
# 4 2.9138 -2.9138 0.0000 28.1076 0.0000 5.5794
# 5 -5.5794 5.5794 0.0000 0.0000 28.1076 2.9138
# 6 0.0000 0.0000 0.0000 5.5794 2.9138 12.5016
#
#
#
# Elastic Compliance Matrix: (Units=1/GPa)
#
#
# Indices 1 2 3 4 5 6 
#
# 1 0.029982 -0.015095 -0.002405 -0.004673 0.008948 0.000000
# 2 -0.015095 0.029982 -0.002405 0.004673 -0.008948 0.000000
# 3 -0.002405 -0.002405 0.011463 0.000000 0.000000 0.000000
# 4 -0.004673 0.004673 0.000000 0.040099 0.000000 -0.017896
# 5 0.008948 -0.008948 0.000000 0.000000 0.040099 -0.009346
# 6 0.000000 0.000000 0.000000 -0.017896 -0.009346 0.090155
#
#
# Mechanical properties :
#
#
# Convention : Reuss Voigt Hill
#
# Bulk Modulus (GPa) = 31.62785 33.12877 32.37831
# Shear Modulus (GPa) = 17.11568 22.86857 19.99213
#
# Velocity S-wave (km/s) = 2.86503 3.31170 3.09643
# Velocity P-wave (km/s) = 5.11006 5.52369 5.32090
#
# Compressibility (1/GPa) = 0.03161771
#
# Stress axis : x y z
#
# Youngs Moduli (GPa) = 33.35303 33.35303 87.23584
#
# Poissons Ratio (x) = 0.50347 0.20979
# Poissons Ratio (y) = 0.50347 0.20979
# Poissons Ratio (z) = 0.08021 0.08021
#
# Static dielectric constant tensor:
#      x y z
#    x 1.750820 0.000000 0.000000 
#    y 0.000000 1.750820 0.000000 
#    z 0.000000 0.000000 1.851270 
# 
# From -- ./inp_files/396.got.cif
#   From: 2010.05.17/outbox.cif.g08.bks.cpg/sg144_cif.got.tgz:396.got - 2010.05.20 13:46:34.
