data_PCOD9574288
_publ_section_title
;
Structure prediction by ZEFSAII (Michael W. Deem and Ramdas Pophale) SiO2 
 PCOD9574288
Probable space group: P 31
;
_chemical_formula_sum "Si O2"
_cell_formula_units_Z 12
_cell_length_a 10.041928
_cell_length_b 10.041928
_cell_length_c 7.620346
_cell_angle_alpha 90.000000
_cell_angle_beta 90.000000
_cell_angle_gamma 120.000000
_cell_volume 665.486928
_symmetry_space_group_name_H-M "P 31"
_symmetry_group_IT_number 144
_symmetry_cell_setting 'hexagonal'
loop_
_space_group_symop_operation_xyz
x,y,z
-y,x-y,1/3+z
-x+y,-x,2/3+z
loop_
_atom_site_type_symbol
_atom_site_label
_atom_site_fract_x
_atom_site_fract_y
_atom_site_fract_z
Si Si1 0.402198 0.091358 0.332260
Si Si2 0.267217 0.534437 0.635393
Si Si3 0.764312 0.235690 0.302058
Si Si4 0.908645 0.597804 0.271857
O O1 0.586617 0.167283 0.355409
O O2 0.345302 0.172652 0.468725
O O3 0.332916 0.910697 0.350971
O O4 0.379049 0.136859 0.136063
O O5 0.361636 0.638363 0.802059
O O6 0.332911 0.422216 0.586481
O O7 0.832723 0.413385 0.248706
O O8 0.757809 0.136859 0.134720
#
# Coordination Sequence:
#
# PCOD9574288 Si02
#       4
#     3   3   3   3
#     4  11  21  40  67  91 121 169 223 267 313 388
#     4  12  28  41  61 104 140 172 208 282 350 383
#     4  10  18  37  63  94 110 160 230 250 296 391
#     4  11  21  40  67  91 121 169 223 267 313 388
#
# _framework density 18.031911000000001
#
# number of rings (size 3 to 8) (size 9 to 14) (size 15 to 20)
#    0.000    1.000   10.000    0.000    7.000    0.000 
#    0.000    2.500    0.000    0.000    0.000    0.000 
#    0.000    0.000    0.000    0.000    0.000    0.000 
#
# Total GULP energy -66970.407063 kJ/mol
# GULP energy per Si atom -5580.867255 kJ/mol
# Density = 1.799087 g / cm^3
# Si number density = 18.031911 Si / 1000 Ang^3
#
#
#
# Elastic Constant Matrix: (Units=GPa)
#
#
# Indices 1 2 3 4 5 6 
#
# 1 126.0164 82.5266 57.7744 0.0004 -7.0750 0.0000
# 2 82.5266 126.0164 57.7744 -0.0004 7.0750 0.0000
# 3 57.7744 57.7744 136.2664 0.0000 0.0000 0.0000
# 4 0.0004 -0.0004 0.0000 19.0513 0.0000 7.0750
# 5 -7.0750 7.0750 0.0000 0.0000 19.0513 0.0004
# 6 0.0000 0.0000 0.0000 7.0750 0.0004 21.7449
#
#
#
# Elastic Compliance Matrix: (Units=1/GPa)
#
#
# Indices 1 2 3 4 5 6 
#
# 1 0.016211 -0.009943 -0.002657 -0.000001 0.009713 0.000000
# 2 -0.009943 0.016211 -0.002657 0.000001 -0.009713 0.000000
# 3 -0.002657 -0.002657 0.009592 0.000000 0.000000 0.000000
# 4 -0.000001 0.000001 0.000000 0.059704 0.000000 -0.019425
# 5 0.009713 -0.009713 0.000000 0.000000 0.059704 -0.000001
# 6 0.000000 0.000000 0.000000 -0.019425 -0.000001 0.052308
#
#
# Mechanical properties :
#
#
# Convention : Reuss Voigt Hill
#
# Bulk Modulus (GPa) = 86.97416 87.16112 87.06764
# Shear Modulus (GPa) = 20.15498 24.65107 22.40302
#
# Velocity S-wave (km/s) = 3.34689 3.70142 3.52861
# Velocity P-wave (km/s) = 7.95448 8.16758 8.06173
#
# Compressibility (1/GPa) = 0.01149767
#
# Stress axis : x y z
#
# Youngs Moduli (GPa) = 61.68732 61.68732 104.25492
#
# Poissons Ratio (x) = 0.61337 0.27704
# Poissons Ratio (y) = 0.61337 0.27704
# Poissons Ratio (z) = 0.16392 0.16392
#
# Static dielectric constant tensor:
#      x y z
#    x 1.618150 0.000000 0.000000 
#    y 0.000000 1.618150 0.000000 
#    z 0.000000 0.000000 1.666670 
# 
# From -- ./inp_files/200.got.cif
#   From: 2010.05.17/outbox.cif.g08.bks.cpg/sg144_cif.got.tgz:200.got - 2010.05.20 13:46:34.
