data_PCOD9574687
_publ_section_title
;
Structure prediction by ZEFSAII (Michael W. Deem and Ramdas Pophale) SiO2 
 PCOD9574687
Probable space group: R 3
;
_chemical_formula_sum "Si O2"
_cell_formula_units_Z 72
_cell_length_a 15.118734
_cell_length_b 15.118734
_cell_length_c 19.545767
_cell_angle_alpha 90.000000
_cell_angle_beta 90.000000
_cell_angle_gamma 120.000000
_cell_volume 3869.137834
_symmetry_space_group_name_H-M "R 3"
_symmetry_group_IT_number 146
_symmetry_cell_setting 'hexagonal'
loop_
_space_group_symop_operation_xyz
x,y,z
-y,x-y,z
-x+y,-x,z
2/3+x,1/3+y,1/3+z
2/3-y,1/3+x-y,1/3+z
2/3-x+y,1/3-x,1/3+z
1/3+x,2/3+y,2/3+z
1/3-y,2/3+x-y,2/3+z
1/3-x+y,2/3-x,2/3+z
loop_
_atom_site_type_symbol
_atom_site_label
_atom_site_fract_x
_atom_site_fract_y
_atom_site_fract_z
Si Si1 0.813908 0.287120 0.015010
Si Si2 0.682457 0.061388 0.391226
Si Si3 0.758470 0.948900 0.210798
Si Si4 0.912203 0.402636 0.379575
Si Si5 0.059951 0.509086 0.621378
Si Si6 0.493595 0.117055 0.540532
Si Si7 0.474769 0.378046 0.982790
Si Si8 0.406472 0.797312 0.499902
O O1 0.902181 0.260036 0.022979
O O2 0.753661 0.258551 0.088023
O O3 0.728040 0.201249 0.965457
O O4 0.861680 0.405932 0.997950
O O5 0.716840 0.100623 0.467802
O O6 0.599297 0.094989 0.371718
O O7 0.773977 0.120478 0.337867
O O8 0.624825 0.939507 0.378842
O O9 0.806808 0.875954 0.219881
O O10 0.659443 0.906237 0.259578
O O11 0.857462 0.061604 0.219946
O O12 0.832709 0.309364 0.334063
O O13 0.904195 0.378064 0.459814
O O14 0.112171 0.573645 0.553072
O O15 0.976328 0.400866 0.590552
O O16 0.284104 0.727946 0.512042
#
# Coordination Sequence:
#
# PCOD9574687 Si02
#       8
#     9   9   9   9   9   9   9   9
#     4  11  20  39  61  89 124 162 207 256 321 384
#     4  10  23  39  62  89 128 161 211 265 320 389
#     4  11  23  42  62  92 123 172 223 260 329 378
#     4  10  22  37  56  91 120 155 202 257 319 375
#     4  12  20  39  59  86 123 158 207 259 319 375
#     4  11  22  38  63  83 121 166 208 267 308 381
#     4  11  22  41  66  90 126 174 207 267 321 390
#     4  10  20  33  57  90 121 152 189 249 321 390
#
# _framework density 18.608796000000002
#
# number of rings (size 3 to 8) (size 9 to 14) (size 15 to 20)
#    0.250    1.000    5.000    2.000    0.000    0.000 
#    5.250    0.000    0.000    0.000    0.000    0.000 
#    0.000    0.000    0.000    0.000    0.000    0.000 
#
# Total GULP energy -133696.802103 kJ/mol
# GULP energy per Si atom -5570.700088 kJ/mol
# Density = 1.856644 g / cm^3
# Si number density = 18.608796 Si / 1000 Ang^3
#
#
#
# Elastic Constant Matrix: (Units=GPa)
#
#
# Indices 1 2 3 4 5 6 
#
# 1 79.3093 17.8556 40.8386 -5.4407 -1.4122 0.0000
# 2 17.8556 79.3093 40.8386 5.4407 1.4122 0.0000
# 3 40.8386 40.8386 91.4609 0.0000 0.0000 0.0000
# 4 -5.4407 5.4407 0.0000 22.9218 0.0000 1.4122
# 5 -1.4122 1.4122 0.0000 0.0000 22.9218 -5.4407
# 6 0.0000 0.0000 0.0000 1.4122 -5.4407 30.7269
#
#
#
# Elastic Compliance Matrix: (Units=1/GPa)
#
#
# Indices 1 2 3 4 5 6 
#
# 1 0.016756 -0.000280 -0.007357 0.004044 0.001050 0.000000
# 2 -0.000280 0.016756 -0.007357 -0.004044 -0.001050 0.000000
# 3 -0.007357 -0.007357 0.017503 0.000000 0.000000 0.000000
# 4 0.004044 -0.004044 0.000000 0.045676 0.000000 -0.002099
# 5 0.001050 -0.001050 0.000000 0.000000 0.045676 0.008088
# 6 0.000000 0.000000 0.000000 -0.002099 0.008088 0.034073
#
#
# Mechanical properties :
#
#
# Convention : Reuss Voigt Hill
#
# Bulk Modulus (GPa) = 47.55501 49.90500 48.73001
# Shear Modulus (GPa) = 23.42608 25.35055 24.38832
#
# Velocity S-wave (km/s) = 3.55191 3.69492 3.62412
# Velocity P-wave (km/s) = 6.51398 6.71412 6.61481
#
# Compressibility (1/GPa) = 0.02102828
#
# Stress axis : x y z
#
# Youngs Moduli (GPa) = 59.67921 59.67921 57.13184
#
# Poissons Ratio (x) = 0.01673 0.42030
# Poissons Ratio (y) = 0.01673 0.42030
# Poissons Ratio (z) = 0.43904 0.43904
#
# Static dielectric constant tensor:
#      x y z
#    x 1.662550 0.000000 0.000000 
#    y 0.000000 1.662550 0.000000 
#    z 0.000000 0.000000 1.654980 
# 
# From -- ./inp_files/1775.got.cif
#   From: 2010.05.17/outbox.cif.g08.bks.cpg/sg146_cif.got.tgz:1775.got - 2010.05.20 13:48:23.
