data_PCOD9574451
_publ_section_title
;
Structure prediction by ZEFSAII (Michael W. Deem and Ramdas Pophale) SiO2 
 PCOD9574451
Probable space group: P 31
;
_chemical_formula_sum "Si O2"
_cell_formula_units_Z 18
_cell_length_a 8.867089
_cell_length_b 8.867089
_cell_length_c 11.576178
_cell_angle_alpha 90.000000
_cell_angle_beta 90.000000
_cell_angle_gamma 120.000000
_cell_volume 788.239080
_symmetry_space_group_name_H-M "P 31"
_symmetry_group_IT_number 144
_symmetry_cell_setting 'hexagonal'
loop_
_space_group_symop_operation_xyz
x,y,z
-y,x-y,1/3+z
-x+y,-x,2/3+z
loop_
_atom_site_type_symbol
_atom_site_label
_atom_site_fract_x
_atom_site_fract_y
_atom_site_fract_z
Si Si1 0.113376 0.401298 0.544270
Si Si2 0.620608 0.518282 0.080814
Si Si3 0.316447 0.956000 0.780006
Si Si4 0.422435 0.801032 0.574947
Si Si5 0.873629 0.346109 0.346323
Si Si6 0.893465 0.687661 0.276873
O O1 0.263911 0.601202 0.570176
O O2 0.182736 0.273511 0.579800
O O3 0.943259 0.350884 0.619935
O O4 0.041574 0.371273 0.415177
O O5 0.518914 0.601274 0.145881
O O6 0.513748 0.310242 0.066312
O O7 0.790355 0.593463 0.160022
O O8 0.423645 0.891162 0.697272
O O9 0.195292 0.788656 0.857827
O O10 0.235746 0.030736 0.686843
O O11 0.420927 0.099660 0.877822
O O12 0.883111 0.531209 0.352360
#
# Coordination Sequence:
#
# PCOD9574451 Si02
#       6
#     3   3   3   3   3   3
#     4  12  24  48  76 108 142 200 257 312 377 464
#     4  11  25  46  71 109 151 195 249 311 385 455
#     4  11  23  44  73 108 147 191 253 308 373 453
#     4  11  22  45  76 106 140 202 253 308 375 466
#     4  12  25  44  73 107 151 199 249 308 382 456
#     4  11  25  45  73 108 149 195 247 317 374 452
#
# _framework density 22.835711
#
# number of rings (size 3 to 8) (size 9 to 14) (size 15 to 20)
#    0.000    0.667    3.333    5.000    0.000    1.333 
#    3.000    0.000    0.000    0.000    0.000    0.000 
#    0.000    0.000    0.000    0.000    0.000    0.000 
#
# Total GULP energy -100526.001910 kJ/mol
# GULP energy per Si atom -5584.777884 kJ/mol
# Density = 2.278374 g / cm^3
# Si number density = 22.835711 Si / 1000 Ang^3
#
#
#
# Elastic Constant Matrix: (Units=GPa)
#
#
# Indices 1 2 3 4 5 6 
#
# 1 93.1171 43.4351 35.9755 2.3404 -0.3481 0.0000
# 2 43.4351 93.1171 35.9755 -2.3404 0.3481 0.0000
# 3 35.9755 35.9755 135.5444 0.0000 0.0000 0.0000
# 4 2.3404 -2.3404 0.0000 24.9910 0.0000 0.3481
# 5 -0.3481 0.3481 0.0000 0.0000 24.9910 2.3404
# 6 0.0000 0.0000 0.0000 0.3481 2.3404 24.8410
#
#
#
# Elastic Compliance Matrix: (Units=1/GPa)
#
#
# Indices 1 2 3 4 5 6 
#
# 1 0.014413 -0.005899 -0.002260 -0.001902 0.000283 0.000000
# 2 -0.005899 0.014413 -0.002260 0.001902 -0.000283 0.000000
# 3 -0.002260 -0.002260 0.008577 0.000000 0.000000 0.000000
# 4 -0.001902 0.001902 0.000000 0.040379 0.000000 -0.000566
# 5 0.000283 -0.000283 0.000000 0.000000 0.040379 -0.003804
# 6 0.000000 0.000000 0.000000 -0.000566 -0.003804 0.040622
#
#
# Mechanical properties :
#
#
# Convention : Reuss Voigt Hill
#
# Bulk Modulus (GPa) = 60.36425 61.39452 60.87939
# Shear Modulus (GPa) = 27.00658 28.72408 27.86533
#
# Velocity S-wave (km/s) = 3.44269 3.55048 3.49700
# Velocity P-wave (km/s) = 6.50341 6.61449 6.55919
#
# Compressibility (1/GPa) = 0.01656610
#
# Stress axis : x y z
#
# Youngs Moduli (GPa) = 69.38404 69.38404 116.58851
#
# Poissons Ratio (x) = 0.40927 0.26346
# Poissons Ratio (y) = 0.40927 0.26346
# Poissons Ratio (z) = 0.15679 0.15679
#
# Static dielectric constant tensor:
#      x y z
#    x 1.868660 0.000000 0.000000 
#    y 0.000000 1.868660 0.000000 
#    z 0.000000 0.000000 1.875850 
# 
# From -- ./inp_files/502.got.cif
#   From: 2010.05.17/outbox.cif.g08.bks.cpg/sg144_cif.got.tgz:502.got - 2010.05.20 13:46:34.
