data_PCOD9574524
_publ_section_title
;
Structure prediction by ZEFSAII (Michael W. Deem and Ramdas Pophale) SiO2 
 PCOD9574524
Probable space group: P 31
;
_chemical_formula_sum "Si O2"
_cell_formula_units_Z 24
_cell_length_a 15.000000
_cell_length_b 15.000000
_cell_length_c 6.000000
_cell_angle_alpha 90.000000
_cell_angle_beta 90.000000
_cell_angle_gamma 120.000000
_cell_volume 1169.134295
_symmetry_space_group_name_H-M "P 31"
_symmetry_group_IT_number 144
_symmetry_cell_setting 'hexagonal'
loop_
_space_group_symop_operation_xyz
x,y,z
-y,x-y,1/3+z
-x+y,-x,2/3+z
loop_
_atom_site_type_symbol
_atom_site_label
_atom_site_fract_x
_atom_site_fract_y
_atom_site_fract_z
Si Si1 0.406223 0.236016 0.504780
Si Si2 0.612082 0.240334 0.032199
Si Si3 0.194868 0.745033 0.377664
Si Si4 0.432088 0.898275 0.328715
Si Si5 0.844260 0.772035 0.490506
Si Si6 0.682480 0.604966 0.799311
Si Si7 0.155325 0.233387 0.967262
Si Si8 0.330420 0.383347 0.309588
O O1 0.522542 0.304612 0.586015
O O2 0.323571 0.155268 0.677109
O O3 0.403433 0.163105 0.306719
O O4 0.370843 0.318487 0.445162
O O5 0.657725 0.270303 0.279530
O O6 0.499686 0.144272 0.992169
O O7 0.318295 0.809597 0.405688
O O8 0.149292 0.633357 0.497262
O O9 0.141246 0.810773 0.464422
O O10 0.155716 0.718841 0.124803
O O11 0.523225 0.948571 0.512083
O O12 0.408378 0.984719 0.229550
O O13 0.755420 0.713097 0.677421
O O14 0.815310 0.850828 0.370339
O O15 0.964855 0.825965 0.564236
O O16 0.238732 0.296622 0.159952
#
# Coordination Sequence:
#
# PCOD9574524 Si02
#       8
#     3   3   3   3   3   3   3   3
#     4  12  25  42  70  99 142 186 227 287 348 416
#     4  12  25  39  64 103 143 180 227 278 343 420
#     4  11  25  49  72 105 144 180 234 292 359 424
#     4  11  28  43  75 105 137 185 233 288 359 422
#     4  12  26  48  71 101 140 185 244 293 353 416
#     4  12  26  44  69 105 142 184 235 286 352 424
#     4  11  26  47  72 104 138 188 236 296 352 412
#     4  11  25  46  73 100 146 180 232 292 356 418
#
# _framework density 20.528009999999998
#
# number of rings (size 3 to 8) (size 9 to 14) (size 15 to 20)
#    0.000    0.500    5.000    2.250    7.000    5.000 
#    2.250    0.000    0.000    0.000    0.000    0.000 
#    0.000    0.000    0.000    0.000    0.000    0.000 
#
# Total GULP energy -133920.011841 kJ/mol
# GULP energy per Si atom -5580.000493 kJ/mol
# Density = 2.048129 g / cm^3
# Si number density = 20.528010 Si / 1000 Ang^3
#
#
#
# Elastic Constant Matrix: (Units=GPa)
#
#
# Indices 1 2 3 4 5 6 
#
# 1 138.6322 38.6131 21.7307 -4.4912 -5.5630 0.0000
# 2 38.6131 138.6322 21.7307 4.4912 5.5630 0.0000
# 3 21.7307 21.7307 31.3970 0.0000 0.0000 0.0000
# 4 -4.4912 4.4912 0.0000 29.3744 0.0000 5.5630
# 5 -5.5630 5.5630 0.0000 0.0000 29.3744 -4.4912
# 6 0.0000 0.0000 0.0000 5.5630 -4.4912 50.0095
#
#
#
# Elastic Compliance Matrix: (Units=1/GPa)
#
#
# Indices 1 2 3 4 5 6 
#
# 1 0.008577 -0.001782 -0.004703 0.001584 0.001962 0.000000
# 2 -0.001782 0.008577 -0.004703 -0.001584 -0.001962 0.000000
# 3 -0.004703 -0.004703 0.038360 0.000000 0.000000 0.000000
# 4 0.001584 -0.001584 0.000000 0.035271 0.000000 -0.003923
# 5 0.001962 -0.001962 0.000000 0.000000 0.035271 0.003168
# 6 0.000000 0.000000 0.000000 -0.003923 0.003168 0.020717
#
#
# Mechanical properties :
#
#
# Convention : Reuss Voigt Hill
#
# Bulk Modulus (GPa) = 30.17654 52.53449 41.35552
# Shear Modulus (GPa) = 27.74784 36.85746 32.30265
#
# Velocity S-wave (km/s) = 3.68054 4.24190 3.97115
# Velocity P-wave (km/s) = 5.72660 7.04548 6.42000
#
# Compressibility (1/GPa) = 0.03313833
#
# Stress axis : x y z
#
# Youngs Moduli (GPa) = 116.59310 116.59310 26.06852
#
# Poissons Ratio (x) = 0.20774 0.12260
# Poissons Ratio (y) = 0.20774 0.12260
# Poissons Ratio (z) = 0.54835 0.54835
#
# Static dielectric constant tensor:
#      x y z
#    x 1.699610 0.000000 0.000000 
#    y 0.000000 1.699610 0.000000 
#    z 0.000000 0.000000 1.837090 
# 
# From -- ./inp_files/158.got.cif
#   From: 2010.05.17/outbox.ucp.g08.bks.cvg/sg144_cif.got.tgz:158.got - 2010.06.11 11:44:17.
