data_PCOD9574372
_publ_section_title
;
Structure prediction by ZEFSAII (Michael W. Deem and Ramdas Pophale) SiO2 
 PCOD9574372
Probable space group: P 31
;
_chemical_formula_sum "Si O2"
_cell_formula_units_Z 18
_cell_length_a 9.360257
_cell_length_b 9.360257
_cell_length_c 11.892100
_cell_angle_alpha 90.000000
_cell_angle_beta 90.000000
_cell_angle_gamma 120.000000
_cell_volume 902.328616
_symmetry_space_group_name_H-M "P 31"
_symmetry_group_IT_number 144
_symmetry_cell_setting 'hexagonal'
loop_
_space_group_symop_operation_xyz
x,y,z
-y,x-y,1/3+z
-x+y,-x,2/3+z
loop_
_atom_site_type_symbol
_atom_site_label
_atom_site_fract_x
_atom_site_fract_y
_atom_site_fract_z
Si Si1 0.455482 0.267241 0.584960
Si Si2 0.796183 0.930325 0.522506
Si Si3 0.105555 0.657769 0.657786
Si Si4 0.978327 0.842216 0.104433
Si Si5 0.413788 0.205518 0.848988
Si Si6 0.610947 0.683878 0.145621
O O1 0.293067 0.254390 0.527508
O O2 0.433650 0.248555 0.717553
O O3 0.618163 0.433038 0.552714
O O4 0.452050 0.104083 0.532533
O O5 0.783838 0.982961 0.648608
O O6 0.971127 0.071093 0.473010
O O7 0.657164 0.904942 0.434695
O O8 0.796879 0.759125 0.531521
O O9 0.245473 0.789182 0.575266
O O10 0.125129 0.509980 0.707237
O O11 0.936337 0.588325 0.588821
O O12 0.795012 0.821599 0.107781
#
# Coordination Sequence:
#
# PCOD9574372 Si02
#       6
#     3   3   3   3   3   3
#     4  10  24  41  69  99 140 171 223 293 339 402
#     4  12  21  43  75 100 129 187 231 277 347 419
#     4  12  25  44  73  99 142 184 232 288 349 411
#     4  10  22  41  69 101 134 178 225 282 340 410
#     4  12  22  44  68 104 132 181 232 279 345 412
#     4  10  24  45  66  99 143 179 225 289 346 398
#
# _framework density 19.948385999999999
#
# number of rings (size 3 to 8) (size 9 to 14) (size 15 to 20)
#    1.000    0.000    5.000    2.000    2.333    1.333 
#    3.000    0.000    0.000    0.000    0.000    0.000 
#    0.000    0.000    0.000    0.000    0.000    0.000 
#
# Total GULP energy -100515.288576 kJ/mol
# GULP energy per Si atom -5584.182699 kJ/mol
# Density = 1.990298 g / cm^3
# Si number density = 19.948386 Si / 1000 Ang^3
#
#
#
# Elastic Constant Matrix: (Units=GPa)
#
#
# Indices 1 2 3 4 5 6 
#
# 1 38.7082 0.1919 5.7593 7.5461 -4.4784 0.0000
# 2 0.1919 38.7082 5.7593 -7.5461 4.4784 0.0000
# 3 5.7593 5.7593 93.8208 0.0000 0.0000 0.0000
# 4 7.5461 -7.5461 0.0000 29.5879 0.0000 4.4784
# 5 -4.4784 4.4784 0.0000 0.0000 29.5879 7.5461
# 6 0.0000 0.0000 0.0000 4.4784 7.5461 19.2581
#
#
#
# Elastic Compliance Matrix: (Units=1/GPa)
#
#
# Indices 1 2 3 4 5 6 
#
# 1 0.028101 -0.001918 -0.001607 -0.007656 0.004544 0.000000
# 2 -0.001918 0.028101 -0.001607 0.007656 -0.004544 0.000000
# 3 -0.001607 -0.001607 0.010856 0.000000 0.000000 0.000000
# 4 -0.007656 0.007656 0.000000 0.039078 0.000000 -0.009088
# 5 0.004544 -0.004544 0.000000 0.000000 0.039078 -0.015312
# 6 0.000000 0.000000 0.000000 -0.009088 -0.015312 0.060039
#
#
# Mechanical properties :
#
#
# Convention : Reuss Voigt Hill
#
# Bulk Modulus (GPa) = 17.60796 21.62867 19.61831
# Shear Modulus (GPa) = 21.32640 26.32191 23.82415
#
# Velocity S-wave (km/s) = 3.27322 3.63643 3.45960
# Velocity P-wave (km/s) = 4.80950 5.33829 5.08078
#
# Compressibility (1/GPa) = 0.05679251
#
# Stress axis : x y z
#
# Youngs Moduli (GPa) = 35.58563 35.58563 92.11543
#
# Poissons Ratio (x) = 0.06827 0.14805
# Poissons Ratio (y) = 0.06827 0.14805
# Poissons Ratio (z) = 0.05719 0.05719
#
# Static dielectric constant tensor:
#      x y z
#    x 1.703570 0.000000 0.000000 
#    y 0.000000 1.703570 0.000000 
#    z 0.000000 0.000000 1.669060 
# 
# From -- ./inp_files/581.got.cif
#   From: 2010.05.17/outbox.cif.g08.bks.cpg/sg144_cif.got.tgz:581.got - 2010.05.20 13:46:34.
