data_PCOD9574422
_publ_section_title
;
Structure prediction by ZEFSAII (Michael W. Deem and Ramdas Pophale) SiO2 
 PCOD9574422
Probable space group: P 31
;
_chemical_formula_sum "Si O2"
_cell_formula_units_Z 18
_cell_length_a 11.865064
_cell_length_b 11.865064
_cell_length_c 5.452045
_cell_angle_alpha 90.000000
_cell_angle_beta 90.000000
_cell_angle_gamma 120.000000
_cell_volume 664.706972
_symmetry_space_group_name_H-M "P 31"
_symmetry_group_IT_number 144
_symmetry_cell_setting 'hexagonal'
loop_
_space_group_symop_operation_xyz
x,y,z
-y,x-y,1/3+z
-x+y,-x,2/3+z
loop_
_atom_site_type_symbol
_atom_site_label
_atom_site_fract_x
_atom_site_fract_y
_atom_site_fract_z
Si Si1 0.224977 0.552123 0.005830
Si Si2 0.909795 0.048844 0.566125
Si Si3 0.441474 0.966524 0.043303
Si Si4 0.194787 0.890336 0.377096
Si Si5 0.346149 0.293214 0.886842
Si Si6 0.660530 0.446422 0.375868
O O1 0.365819 0.594486 0.108531
O O2 0.161561 0.581091 0.238276
O O3 0.147706 0.402222 0.937543
O O4 0.781089 0.038505 0.453785
O O5 0.982851 0.166024 0.759161
O O6 0.901579 0.921411 0.683906
O O7 0.303997 0.932481 0.163956
O O8 0.556411 0.014743 0.239769
O O9 0.500661 0.071274 0.820881
O O10 0.049402 0.763100 0.359788
O O11 0.436409 0.233050 0.818450
O O12 0.579534 0.291646 0.454524
#
# Coordination Sequence:
#
# PCOD9574422 Si02
#       6
#     3   3   3   3   3   3
#     4  12  26  48  74 114 158 203 263 326 406 487
#     4  12  27  51  75 114 157 211 277 330 401 483
#     4  11  25  48  78 114 156 209 266 332 403 483
#     4  12  26  46  77 112 156 205 267 329 402 478
#     4  11  24  49  74 111 158 202 260 334 401 469
#     4  10  24  46  70 107 153 200 265 317 391 474
#
# _framework density 27.079602000000001
#
# number of rings (size 3 to 8) (size 9 to 14) (size 15 to 20)
#    0.000    0.667    3.333    4.000    2.333    5.333 
#   12.000    3.333    0.000    0.000    0.000    0.000 
#    0.000    0.000    0.000    0.000    0.000    0.000 
#
# Total GULP energy -100525.074020 kJ/mol
# GULP energy per Si atom -5584.726334 kJ/mol
# Density = 2.701797 g / cm^3
# Si number density = 27.079602 Si / 1000 Ang^3
#
#
#
# Elastic Constant Matrix: (Units=GPa)
#
#
# Indices 1 2 3 4 5 6 
#
# 1 129.4047 32.9651 19.4995 -1.2367 1.9659 0.0000
# 2 32.9651 129.4047 19.4995 1.2367 -1.9659 0.0000
# 3 19.4995 19.4995 55.5350 0.0000 0.0000 0.0000
# 4 -1.2367 1.2367 0.0000 29.7263 0.0000 -1.9659
# 5 1.9659 -1.9659 0.0000 0.0000 29.7263 -1.2367
# 6 0.0000 0.0000 0.0000 -1.9659 -1.2367 48.2198
#
#
#
# Elastic Compliance Matrix: (Units=1/GPa)
#
#
# Indices 1 2 3 4 5 6 
#
# 1 0.008567 -0.001841 -0.002362 0.000433 -0.000688 0.000000
# 2 -0.001841 0.008567 -0.002362 -0.000433 0.000688 0.000000
# 3 -0.002362 -0.002362 0.019665 0.000000 0.000000 0.000000
# 4 0.000433 -0.000433 0.000000 0.033767 0.000000 0.001377
# 5 -0.000688 0.000688 0.000000 0.000000 0.033767 0.000866
# 6 0.000000 0.000000 0.000000 0.001377 0.000866 0.020817
#
#
# Mechanical properties :
#
#
# Convention : Reuss Voigt Hill
#
# Bulk Modulus (GPa) = 42.24656 50.91917 46.58287
# Shear Modulus (GPa) = 34.20677 37.69316 35.94997
#
# Velocity S-wave (km/s) = 3.55800 3.73492 3.64753
# Velocity P-wave (km/s) = 5.70209 6.11914 5.91429
#
# Compressibility (1/GPa) = 0.02367057
#
# Stress axis : x y z
#
# Youngs Moduli (GPa) = 116.72444 116.72444 50.85151
#
# Poissons Ratio (x) = 0.21491 0.12009
# Poissons Ratio (y) = 0.21491 0.12009
# Poissons Ratio (z) = 0.27566 0.27566
#
# Static dielectric constant tensor:
#      x y z
#    x 2.151580 0.000000 0.000000 
#    y 0.000000 2.151580 0.000000 
#    z 0.000000 0.000000 2.129610 
# 
# From -- ./inp_files/98.got.cif
#   From: 2010.05.17/outbox.cif.g08.bks.cpg/sg144_cif.got.tgz:98.got - 2010.05.20 13:46:34.
