data_PCOD9574061
_publ_section_title
;
Structure prediction by ZEFSAII (Michael W. Deem and Ramdas Pophale) SiO2 
 PCOD9574061
Probable space group: I 41/A C D
;
_chemical_formula_sum "Si O2"
_cell_formula_units_Z 160
_cell_length_a 25.740396
_cell_length_b 25.740396
_cell_length_c 13.680299
_cell_angle_alpha 90.000000
_cell_angle_beta 90.000000
_cell_angle_gamma 90.000000
_cell_volume 9064.128160
_symmetry_space_group_name_H-M "I 41/A C D"
_symmetry_group_IT_number 142
_space_group.IT_coordinate_system_code '2'
_symmetry_cell_setting 'tetragonal'
loop_
_space_group_symop_operation_xyz
x,y,z
1/4-y,3/4+x,1/4+z
-x,1/2-y,z
1/4+y,1/4-x,3/4+z
x,-y,1/2-z
1/2-x,y,-z
3/4+y,1/4+x,1/4-z
1/4-y,1/4-x,1/4-z
-x,-y,-z
3/4+y,1/4-x,3/4-z
x,1/2+y,-z
3/4-y,3/4+x,1/4-z
-x,y,1/2+z
1/2+x,-y,z
1/4-y,3/4-x,3/4+z
3/4+y,3/4+x,3/4+z
1/2+x,1/2+y,1/2+z
3/4-y,1/4+x,3/4+z
1/2-x,-y,1/2+z
3/4+y,3/4-x,1/4+z
1/2+x,1/2-y,-z
-x,1/2+y,1/2-z
1/4+y,3/4+x,3/4-z
3/4-y,3/4-x,3/4-z
1/2-x,1/2-y,1/2-z
1/4+y,3/4-x,1/4-z
1/2+x,y,1/2-z
1/4-y,1/4+x,3/4-z
1/2-x,1/2+y,z
x,1/2-y,1/2+z
3/4-y,1/4-x,1/4+z
1/4+y,1/4+x,1/4+z
loop_
_atom_site_type_symbol
_atom_site_label
_atom_site_fract_x
_atom_site_fract_y
_atom_site_fract_z
Si Si1 0.392531 0.525768 0.352537
Si Si2 0.922798 0.490907 0.951316
Si Si3 0.845138 0.827564 0.413956
Si Si4 0.194025 0.748234 0.056403
Si Si5 0.335284 0.452722 0.691278
O O1 0.379030 0.500000 0.250000
O O2 0.418111 0.487415 0.432668
O O3 0.438628 0.566910 0.331021
O O4 0.342204 0.548684 0.403647
O O5 0.931265 0.551283 0.919487
O O6 0.869366 0.474275 0.898533
O O7 0.967369 0.455805 0.902383
O O8 0.898904 0.851097 0.375000
O O9 0.845288 0.777483 0.484170
O O10 0.821049 0.873090 0.482503
O O11 0.250000 0.748786 0.000000
O O12 0.308972 0.500000 0.750000
#
# Coordination Sequence:
#
# PCOD9574061 Si02
#       5
#    32  32  32  32  32
#     4  11  20  31  46  68 104 144 174 224 271 329
#     4   9  17  31  49  68  97 133 176 224 265 322
#     4   9  14  29  54  74  92 125 169 225 264 316
#     4   8  17  29  47  75  99 130 169 219 282 320
#     4   9  19  32  49  68  92 135 185 221 265 320
#
# _framework density 17.652000999999998
#
# number of rings (size 3 to 8) (size 9 to 14) (size 15 to 20)
#    0.000    2.800    2.000    3.000    0.000    0.800 
#    0.000    3.000    0.000    0.000    0.000    0.000 
#    0.000   12.800  115.200    0.000    0.000    0.000 
#
# Total GULP energy -445748.094646 kJ/mol
# GULP energy per Si atom -5571.851183 kJ/mol
# Density = 1.761182 g / cm^3
# Si number density = 17.652001 Si / 1000 Ang^3
#
#
#
# Elastic Constant Matrix: (Units=GPa)
#
#
# Indices 1 2 3 4 5 6 
#
# 1 63.4908 28.8168 23.6964 0.0000 0.0000 0.0000
# 2 28.8168 63.4903 23.6963 0.0000 0.0000 0.0000
# 3 23.6964 23.6963 108.1755 0.0000 0.0000 0.0000
# 4 0.0000 0.0000 0.0000 20.7173 0.0000 0.0000
# 5 0.0000 0.0000 0.0000 0.0000 20.7168 0.0000
# 6 0.0000 0.0000 0.0000 0.0000 0.0000 9.6141
#
#
#
# Elastic Compliance Matrix: (Units=1/GPa)
#
#
# Indices 1 2 3 4 5 6 
#
# 1 0.020523 -0.008317 -0.002674 0.000000 0.000000 0.000000
# 2 -0.008317 0.020523 -0.002674 0.000000 0.000000 0.000000
# 3 -0.002674 -0.002674 0.010416 0.000000 0.000000 0.000000
# 4 0.000000 0.000000 0.000000 0.048269 0.000000 0.000000
# 5 0.000000 0.000000 0.000000 0.000000 0.048270 0.000000
# 6 0.000000 0.000000 0.000000 0.000000 0.000000 0.104014
#
#
# Mechanical properties :
#
#
# Convention : Reuss Voigt Hill
#
# Bulk Modulus (GPa) = 41.43750 43.06395 42.25072
# Shear Modulus (GPa) = 17.39804 20.80611 19.10207
#
# Velocity S-wave (km/s) = 3.14285 3.43692 3.29317
# Velocity P-wave (km/s) = 6.05770 6.34026 6.20059
#
# Compressibility (1/GPa) = 0.02413273
#
# Stress axis : x y z
#
# Youngs Moduli (GPa) = 48.72544 48.72509 96.00926
#
# Poissons Ratio (x) = 0.40525 0.25671
# Poissons Ratio (y) = 0.40525 0.25671
# Poissons Ratio (z) = 0.13028 0.13028
#
# Static dielectric constant tensor:
#      x y z
#    x 1.632870 0.000000 0.000000 
#    y 0.000000 1.632870 0.000000 
#    z 0.000000 0.000000 1.647240 
# 
# From -- ./inp_files/5439.got.cif
#   From: 2010.05.17/outbox.cif.g08.bks.cpg/sg142_3_cif.got.tgz:5439.got - 2010.05.20 13:39:18.
