data_PCOD9574873
_publ_section_title
;
Structure prediction by ZEFSAII (Michael W. Deem and Ramdas Pophale) SiO2 
 PCOD9574873
Probable space group: P -3
;
_chemical_formula_sum "Si O2"
_cell_formula_units_Z 30
_cell_length_a 14.210763
_cell_length_b 14.210763
_cell_length_c 7.461007
_cell_angle_alpha 90.000000
_cell_angle_beta 90.000000
_cell_angle_gamma 120.000000
_cell_volume 1304.856857
_symmetry_space_group_name_H-M "P -3"
_symmetry_group_IT_number 147
_symmetry_cell_setting 'hexagonal'
loop_
_space_group_symop_operation_xyz
x,y,z
-y,x-y,z
-x+y,-x,z
-x,-y,-z
y,-x+y,-z
x-y,x,-z
loop_
_atom_site_type_symbol
_atom_site_label
_atom_site_fract_x
_atom_site_fract_y
_atom_site_fract_z
Si Si1 0.644587 0.854801 0.658151
Si Si2 0.193299 0.575579 0.248432
Si Si3 0.991200 0.798391 0.932620
Si Si4 0.559732 0.670930 0.908916
Si Si5 0.364755 0.959583 0.529098
O O1 0.654885 0.767452 0.536955
O O2 0.605703 0.926388 0.554524
O O3 0.756282 0.936103 0.757469
O O4 0.561832 0.775180 0.812714
O O5 0.294349 0.551302 0.263355
O O6 0.143062 0.533056 0.052997
O O7 0.109735 0.508481 0.404169
O O8 0.952725 0.675548 0.991830
O O9 0.885493 0.810701 0.924213
O O10 0.562311 0.604785 0.736485
#
# Coordination Sequence:
#
# PCOD9574873 Si02
#       5
#     6   6   6   6   6
#     4   9  21  34  64  89 129 171 205 249 313 373
#     4  10  23  43  71  90 119 162 213 279 328 388
#     4  10  19  34  59  91 129 174 214 247 292 369
#     4   9  21  37  63  90 125 170 200 262 317 364
#     4  10  21  40  61  97 126 169 202 260 316 372
#
# _framework density 22.991029999999999
#
# number of rings (size 3 to 8) (size 9 to 14) (size 15 to 20)
#    1.600    0.800    2.000    0.200    2.800    1.600 
#    0.000    2.000    0.000    2.800    0.000    0.000 
#    0.000    0.000    0.000    0.000    0.000    0.000 
#
# Total GULP energy -167424.121875 kJ/mol
# GULP energy per Si atom -5580.804062 kJ/mol
# Density = 2.293870 g / cm^3
# Si number density = 22.991030 Si / 1000 Ang^3
#
#
#
# Elastic Constant Matrix: (Units=GPa)
#
#
# Indices 1 2 3 4 5 6 
#
# 1 79.1074 33.5100 25.9544 1.1297 -3.6403 0.0000
# 2 33.5100 79.1074 25.9544 -1.1297 3.6403 0.0000
# 3 25.9544 25.9544 52.5242 0.0000 0.0000 0.0000
# 4 1.1297 -1.1297 0.0000 31.5890 0.0000 3.6403
# 5 -3.6403 3.6403 0.0000 0.0000 31.5890 1.1297
# 6 0.0000 0.0000 0.0000 3.6403 1.1297 22.7987
#
#
#
# Elastic Compliance Matrix: (Units=1/GPa)
#
#
# Indices 1 2 3 4 5 6 
#
# 1 0.016941 -0.005442 -0.005682 -0.000800 0.002579 0.000000
# 2 -0.005442 0.016941 -0.005682 0.000800 -0.002579 0.000000
# 3 -0.005682 -0.005682 0.024654 0.000000 0.000000 0.000000
# 4 -0.000800 0.000800 0.000000 0.032308 0.000000 -0.005159
# 5 0.002579 -0.002579 0.000000 0.000000 0.032308 -0.001601
# 6 0.000000 0.000000 0.000000 -0.005159 -0.001601 0.044765
#
#
# Mechanical properties :
#
#
# Convention : Reuss Voigt Hill
#
# Bulk Modulus (GPa) = 40.12255 42.39742 41.25998
# Shear Modulus (GPa) = 23.82800 25.54999 24.68900
#
# Velocity S-wave (km/s) = 3.22282 3.33724 3.28053
# Velocity P-wave (km/s) = 5.59804 5.77325 5.68632
#
# Compressibility (1/GPa) = 0.02492364
#
# Stress axis : x y z
#
# Youngs Moduli (GPa) = 59.02971 59.02971 40.56105
#
# Poissons Ratio (x) = 0.32124 0.23047
# Poissons Ratio (y) = 0.32124 0.23047
# Poissons Ratio (z) = 0.33540 0.33540
#
# Static dielectric constant tensor:
#      x y z
#    x 1.879070 0.000000 0.000000 
#    y 0.000000 1.879070 0.000000 
#    z 0.000000 0.000000 1.865240 
# 
# From -- ./inp_files/506.got.cif
#   From: 2010.05.17/outbox.cif.g08.bks.cpg/sg147_cif.got.tgz:506.got - 2010.05.20 13:49:32.
