data_PCOD9574487
_publ_section_title
;
Structure prediction by ZEFSAII (Michael W. Deem and Ramdas Pophale) SiO2 
 PCOD9574487
Probable space group: P 31
;
_chemical_formula_sum "Si O2"
_cell_formula_units_Z 15
_cell_length_a 11.124712
_cell_length_b 11.124712
_cell_length_c 6.212327
_cell_angle_alpha 90.000000
_cell_angle_beta 90.000000
_cell_angle_gamma 120.000000
_cell_volume 665.828672
_symmetry_space_group_name_H-M "P 31"
_symmetry_group_IT_number 144
_symmetry_cell_setting 'hexagonal'
loop_
_space_group_symop_operation_xyz
x,y,z
-y,x-y,1/3+z
-x+y,-x,2/3+z
loop_
_atom_site_type_symbol
_atom_site_label
_atom_site_fract_x
_atom_site_fract_y
_atom_site_fract_z
Si Si1 0.745711 0.154769 0.350090
Si Si2 0.244140 0.098349 0.636807
Si Si3 0.306973 0.772200 0.102576
Si Si4 0.948258 0.387740 0.652526
Si Si5 0.769462 0.923316 0.620523
O O1 0.868643 0.298806 0.441755
O O2 0.597038 0.138015 0.399023
O O3 0.755727 0.034486 0.475497
O O4 0.771517 0.136183 0.101045
O O5 0.324471 0.044191 0.483937
O O6 0.153208 0.143491 0.494280
O O7 0.150986 0.984814 0.813148
O O8 0.239844 0.630446 0.236293
O O9 0.407813 0.898951 0.257627
O O10 0.191669 0.808900 0.028657
#
# Coordination Sequence:
#
# PCOD9574487 Si02
#       5
#     3   3   3   3   3
#     4  11  26  46  74 104 151 190 246 300 364 443
#     4  11  27  49  74 108 149 192 254 295 374 437
#     4  12  27  47  78 111 148 192 247 311 370 440
#     4  11  27  46  73 111 142 199 239 305 367 440
#     4  11  27  48  73 112 146 199 242 311 365 438
#
# _framework density 22.528317999999999
#
# number of rings (size 3 to 8) (size 9 to 14) (size 15 to 20)
#    0.000    0.800    2.000    2.400   14.000    3.200 
#    0.000    0.000    0.000    0.000    0.000    0.000 
#    0.000    0.000    0.000    0.000    0.000    0.000 
#
# Total GULP energy -84054.718533 kJ/mol
# GULP energy per Si atom -5603.647902 kJ/mol
# Density = 2.247704 g / cm^3
# Si number density = 22.528318 Si / 1000 Ang^3
#
#
#
# Elastic Constant Matrix: (Units=GPa)
#
#
# Indices 1 2 3 4 5 6 
#
# 1 109.5215 54.1600 48.4763 -0.7191 6.7288 0.0000
# 2 54.1600 109.5215 48.4763 0.7191 -6.7288 0.0000
# 3 48.4763 48.4763 106.1317 0.0000 0.0000 0.0000
# 4 -0.7191 0.7191 0.0000 32.9212 0.0000 -6.7288
# 5 6.7288 -6.7288 0.0000 0.0000 32.9212 -0.7191
# 6 0.0000 0.0000 0.0000 -6.7288 -0.7191 27.6808
#
#
#
# Elastic Compliance Matrix: (Units=1/GPa)
#
#
# Indices 1 2 3 4 5 6 
#
# 1 0.013697 -0.005322 -0.003825 0.000415 -0.003887 0.000000
# 2 -0.005322 0.013697 -0.003825 -0.000415 0.003887 0.000000
# 3 -0.003825 -0.003825 0.012917 0.000000 0.000000 0.000000
# 4 0.000415 -0.000415 0.000000 0.031983 0.000000 0.007775
# 5 -0.003887 0.003887 0.000000 0.000000 0.031983 0.000831
# 6 0.000000 0.000000 0.000000 0.007775 0.000831 0.038038
#
#
# Mechanical properties :
#
#
# Convention : Reuss Voigt Hill
#
# Bulk Modulus (GPa) = 69.61059 69.71110 69.66084
# Shear Modulus (GPa) = 28.89369 30.30878 29.60124
#
# Velocity S-wave (km/s) = 3.58516 3.67190 3.62879
# Velocity P-wave (km/s) = 6.93571 6.99915 6.96750
#
# Compressibility (1/GPa) = 0.01436563
#
# Stress axis : x y z
#
# Youngs Moduli (GPa) = 73.00824 73.00824 77.41798
#
# Poissons Ratio (x) = 0.38853 0.29616
# Poissons Ratio (y) = 0.38853 0.29616
# Poissons Ratio (z) = 0.27929 0.27929
#
# Static dielectric constant tensor:
#      x y z
#    x 1.833990 0.000000 0.000000 
#    y 0.000000 1.833990 0.000000 
#    z 0.000000 0.000000 1.839960 
# 
# From -- ./inp_files/68.got.cif
#   From: 2010.05.17/outbox.cif.g08.bks.cpg/sg144_cif.got.tgz:68.got - 2010.05.20 13:46:34.
