data_PCOD9574397
_publ_section_title
;
Structure prediction by ZEFSAII (Michael W. Deem and Ramdas Pophale) SiO2 
 PCOD9574397
Probable space group: P 31
;
_chemical_formula_sum "Si O2"
_cell_formula_units_Z 18
_cell_length_a 11.641511
_cell_length_b 11.641511
_cell_length_c 6.559234
_cell_angle_alpha 90.000000
_cell_angle_beta 90.000000
_cell_angle_gamma 120.000000
_cell_volume 769.843526
_symmetry_space_group_name_H-M "P 31"
_symmetry_group_IT_number 144
_symmetry_cell_setting 'hexagonal'
loop_
_space_group_symop_operation_xyz
x,y,z
-y,x-y,1/3+z
-x+y,-x,2/3+z
loop_
_atom_site_type_symbol
_atom_site_label
_atom_site_fract_x
_atom_site_fract_y
_atom_site_fract_z
Si Si1 0.103737 0.317745 0.120300
Si Si2 0.789182 0.406917 0.537706
Si Si3 0.080936 0.653582 0.494470
Si Si4 0.351460 0.088618 0.434831
Si Si5 0.898100 0.002761 0.735686
Si Si6 0.169740 0.453852 0.517875
O O1 0.072020 0.193646 0.262335
O O2 0.159366 0.439684 0.275722
O O3 0.219522 0.337740 0.966552
O O4 0.979537 0.299636 0.989892
O O5 0.675745 0.419640 0.660040
O O6 0.821009 0.322321 0.702033
O O7 0.925497 0.545392 0.499422
O O8 0.161483 0.582783 0.579526
O O9 0.149875 0.712397 0.277052
O O10 0.260574 0.155107 0.413083
O O11 0.300473 0.965514 0.278723
O O12 0.039411 0.079834 0.621971
#
# Coordination Sequence:
#
# PCOD9574397 Si02
#       6
#     3   3   3   3   3   3
#     4  11  23  41  69  99 139 179 222 301 343 416
#     4  11  26  49  70  99 141 197 243 293 345 421
#     4  10  25  43  68 105 136 178 240 282 359 417
#     4  10  23  43  64 102 136 175 234 279 354 415
#     4  12  22  39  67 103 135 177 224 287 355 415
#     4  10  23  41  68 100 137 176 221 290 348 420
#
# _framework density 23.381373
#
# number of rings (size 3 to 8) (size 9 to 14) (size 15 to 20)
#    0.000    1.333    3.333    1.000    2.333    8.000 
#    3.000    0.000    0.000    0.000    0.000    0.000 
#    0.000    0.000    0.000    0.000    0.000    0.000 
#
# Total GULP energy -100638.346990 kJ/mol
# GULP energy per Si atom -5591.019277 kJ/mol
# Density = 2.332816 g / cm^3
# Si number density = 23.381373 Si / 1000 Ang^3
#
#
#
# Elastic Constant Matrix: (Units=GPa)
#
#
# Indices 1 2 3 4 5 6 
#
# 1 59.1541 12.0524 18.1182 -4.5416 0.5388 0.0000
# 2 12.0524 59.1541 18.1182 4.5416 -0.5388 0.0000
# 3 18.1182 18.1182 94.6280 0.0000 0.0000 0.0000
# 4 -4.5416 4.5416 0.0000 28.5013 0.0000 -0.5388
# 5 0.5388 -0.5388 0.0000 0.0000 28.5013 -4.5416
# 6 0.0000 0.0000 0.0000 -0.5388 -4.5416 23.5509
#
#
#
# Elastic Compliance Matrix: (Units=1/GPa)
#
#
# Indices 1 2 3 4 5 6 
#
# 1 0.018737 -0.003177 -0.002979 0.003492 -0.000414 0.000000
# 2 -0.003177 0.018737 -0.002979 -0.003492 0.000414 0.000000
# 3 -0.002979 -0.002979 0.011709 0.000000 0.000000 0.000000
# 4 0.003492 -0.003492 0.000000 0.036215 0.000000 0.000829
# 5 -0.000414 0.000414 0.000000 0.000000 0.036215 0.006984
# 6 0.000000 0.000000 0.000000 0.000829 0.006984 0.043827
#
#
# Mechanical properties :
#
#
# Convention : Reuss Voigt Hill
#
# Bulk Modulus (GPa) = 32.35065 34.39041 33.37053
# Shear Modulus (GPa) = 25.77158 27.08720 26.42939
#
# Velocity S-wave (km/s) = 3.32358 3.40736 3.36573
# Velocity P-wave (km/s) = 5.34737 5.49732 5.42286
#
# Compressibility (1/GPa) = 0.03091128
#
# Stress axis : x y z
#
# Youngs Moduli (GPa) = 53.37145 53.37145 85.40785
#
# Poissons Ratio (x) = 0.16955 0.25445
# Poissons Ratio (y) = 0.16955 0.25445
# Poissons Ratio (z) = 0.15900 0.15900
#
# Static dielectric constant tensor:
#      x y z
#    x 1.913130 0.000000 0.000000 
#    y 0.000000 1.913130 0.000000 
#    z 0.000000 0.000000 1.868580 
# 
# From -- ./inp_files/95.got.cif
#   From: 2010.05.17/outbox.cif.g08.bks.cpg/sg144_cif.got.tgz:95.got - 2010.05.20 13:46:34.
