data_PCOD9574252
_publ_section_title
;
Structure prediction by ZEFSAII (Michael W. Deem and Ramdas Pophale) SiO2 
 PCOD9574252
Probable space group: I 41/A C D
;
_chemical_formula_sum "Si O2"
_cell_formula_units_Z 80
_cell_length_a 18.000000
_cell_length_b 18.000000
_cell_length_c 27.000000
_cell_angle_alpha 90.000000
_cell_angle_beta 90.000000
_cell_angle_gamma 90.000000
_cell_volume 8748.000000
_symmetry_space_group_name_H-M "I 41/A C D"
_symmetry_group_IT_number 142
_space_group.IT_coordinate_system_code '2'
_symmetry_cell_setting 'tetragonal'
loop_
_space_group_symop_operation_xyz
x,y,z
1/4-y,3/4+x,1/4+z
-x,1/2-y,z
1/4+y,1/4-x,3/4+z
x,-y,1/2-z
1/2-x,y,-z
3/4+y,1/4+x,1/4-z
1/4-y,1/4-x,1/4-z
-x,-y,-z
3/4+y,1/4-x,3/4-z
x,1/2+y,-z
3/4-y,3/4+x,1/4-z
-x,y,1/2+z
1/2+x,-y,z
1/4-y,3/4-x,3/4+z
3/4+y,3/4+x,3/4+z
1/2+x,1/2+y,1/2+z
3/4-y,1/4+x,3/4+z
1/2-x,-y,1/2+z
3/4+y,3/4-x,1/4+z
1/2+x,1/2-y,-z
-x,1/2+y,1/2-z
1/4+y,3/4+x,3/4-z
3/4-y,3/4-x,3/4-z
1/2-x,1/2-y,1/2-z
1/4+y,3/4-x,1/4-z
1/2+x,y,1/2-z
1/4-y,1/4+x,3/4-z
1/2-x,1/2+y,z
x,1/2-y,1/2+z
3/4-y,1/4-x,1/4+z
1/4+y,1/4+x,1/4+z
loop_
_atom_site_type_symbol
_atom_site_label
_atom_site_fract_x
_atom_site_fract_y
_atom_site_fract_z
Si Si1 0.045074 0.412510 0.261461
Si Si2 0.646337 0.665536 0.335479
Si Si3 0.440233 0.044808 0.968553
Si Si4 0.102765 0.837587 0.195895
Si Si5 0.424326 0.205351 0.318955
O O1 0.032229 0.500000 0.250000
O O2 0.972336 0.365395 0.277472
O O3 0.101981 0.397893 0.306057
O O4 0.079749 0.366709 0.215700
O O5 0.732744 0.659759 0.319213
O O6 0.629680 0.651381 0.393213
O O7 0.614333 0.748554 0.318204
O O8 0.485971 0.108748 0.940331
O O9 0.393428 0.084564 0.012556
O O10 0.500000 0.000000 0.000000
O O11 0.500000 0.250000 0.308125
O O12 0.428716 0.178716 0.375000
#
# Coordination Sequence:
#
# PCOD9574252 Si02
#       5
#    32  32  32  32  32
#     4  12  24  38  60  97 131 163 220 273 326 397
#     4  11  22  39  70 100 123 169 226 275 334 386
#     4  10  21  38  66  93 131 162 217 281 328 381
#     4  11  21  39  69  98 123 166 224 283 317 388
#     4  11  22  39  63  88 126 172 216 261 326 393
#
# _framework density 9.1449470000000002
#
# number of rings (size 3 to 8) (size 9 to 14) (size 15 to 20)
#    0.000    1.000    8.000    0.600    2.800    0.000 
#    0.000    1.000    0.000    2.400    0.000    0.000 
#    0.000    0.000    0.000    0.000    0.000    0.000 
#
# Total GULP energy -445571.527639 kJ/mol
# GULP energy per Si atom -5569.644095 kJ/mol
# Density = 0.912413 g / cm^3
# Si number density = 9.144947 Si / 1000 Ang^3
#
#
#
# Elastic Constant Matrix: (Units=GPa)
#
#
# Indices 1 2 3 4 5 6 
#
# 1 100.4878 23.2713 46.6408 0.0000 0.0000 0.0000
# 2 23.2713 100.4878 46.6408 0.0000 0.0000 0.0000
# 3 46.6408 46.6408 135.4925 0.0000 0.0000 0.0000
# 4 0.0000 0.0000 0.0000 25.9689 0.0000 0.0000
# 5 0.0000 0.0000 0.0000 0.0000 25.9689 0.0000
# 6 0.0000 0.0000 0.0000 0.0000 0.0000 12.6652
#
#
#
# Elastic Compliance Matrix: (Units=1/GPa)
#
#
# Indices 1 2 3 4 5 6 
#
# 1 0.011931 -0.001020 -0.003756 0.000000 0.000000 0.000000
# 2 -0.001020 0.011931 -0.003756 0.000000 0.000000 0.000000
# 3 -0.003756 -0.003756 0.009966 0.000000 0.000000 0.000000
# 4 0.000000 0.000000 0.000000 0.038508 0.000000 0.000000
# 5 0.000000 0.000000 0.000000 0.000000 0.038508 0.000000
# 6 0.000000 0.000000 0.000000 0.000000 0.000000 0.078957
#
#
# Mechanical properties :
#
#
# Convention : Reuss Voigt Hill
#
# Bulk Modulus (GPa) = 59.64861 63.28599 61.46730
# Shear Modulus (GPa) = 23.53475 27.58159 25.55817
#
# Velocity S-wave (km/s) = 3.59104 3.88754 3.74223
# Velocity P-wave (km/s) = 7.06242 7.40455 7.23551
#
# Compressibility (1/GPa) = 0.01676485
#
# Stress axis : x y z
#
# Youngs Moduli (GPa) = 83.81584 83.81584 100.33770
#
# Poissons Ratio (x) = 0.08547 0.37687
# Poissons Ratio (y) = 0.08547 0.37687
# Poissons Ratio (z) = 0.31481 0.31481
#
# Static dielectric constant tensor:
#      x y z
#    x 1.633700 0.000000 0.000000 
#    y 0.000000 1.633700 0.000000 
#    z 0.000000 0.000000 1.689280 
# 
# From -- ./inp_files/11304.got.cif
#   From: 2010.05.17/outbox.ucp.g08.bks.cvg/sg142_6_cif.got.tgz:11304.got - 2010.06.11 11:43:53.
