data_PCOD9574285
_publ_section_title
;
Structure prediction by ZEFSAII (Michael W. Deem and Ramdas Pophale) SiO2 
 PCOD9574285
Probable space group: P 31
;
_chemical_formula_sum "Si O2"
_cell_formula_units_Z 18
_cell_length_a 6.908106
_cell_length_b 6.908106
_cell_length_c 17.611307
_cell_angle_alpha 90.000000
_cell_angle_beta 90.000000
_cell_angle_gamma 120.000000
_cell_volume 727.847183
_symmetry_space_group_name_H-M "P 31"
_symmetry_group_IT_number 144
_symmetry_cell_setting 'hexagonal'
loop_
_space_group_symop_operation_xyz
x,y,z
-y,x-y,1/3+z
-x+y,-x,2/3+z
loop_
_atom_site_type_symbol
_atom_site_label
_atom_site_fract_x
_atom_site_fract_y
_atom_site_fract_z
Si Si1 0.636094 0.468263 0.926300
Si Si2 0.360894 0.883250 0.810872
Si Si3 0.571208 0.601151 0.317015
Si Si4 0.534551 0.837890 0.955101
Si Si5 0.956104 0.756950 0.711411
Si Si6 0.488995 0.529264 0.773522
O O1 0.107751 0.811684 0.787827
O O2 0.522113 0.401529 0.843269
O O3 0.678196 0.722444 0.932886
O O4 0.475273 0.345959 0.998380
O O5 0.488799 0.025410 0.736946
O O6 0.854055 0.445105 0.931094
O O7 0.358000 0.647860 0.805311
O O8 0.488343 0.973002 0.889810
O O9 0.366344 0.647304 0.303618
O O10 0.783861 0.853807 0.319454
O O11 0.611033 0.970086 0.033640
O O12 0.725237 0.727437 0.740864
#
# Coordination Sequence:
#
# PCOD9574285 Si02
#       6
#     3   3   3   3   3   3
#     4  10  18  34  58  87 124 171 222 267 339 405
#     4   8  17  34  57  84 120 166 212 269 328 402
#     4   8  17  32  55  83 115 164 216 263 325 395
#     4   9  17  34  59  87 118 166 221 265 334 401
#     4   9  19  35  55  87 124 166 211 272 334 394
#     4  10  18  33  60  88 119 173 222 270 336 409
#
# _framework density 24.730468999999999
#
# number of rings (size 3 to 8) (size 9 to 14) (size 15 to 20)
#    1.000    2.000    1.667    1.000    0.000    0.000 
#    3.000    3.333    0.000   12.000    0.000    0.000 
#    0.000    0.000    0.000    0.000    0.000    0.000 
#
# Total GULP energy -100227.656413 kJ/mol
# GULP energy per Si atom -5568.203134 kJ/mol
# Density = 2.467418 g / cm^3
# Si number density = 24.730469 Si / 1000 Ang^3
#
#
#
# Elastic Constant Matrix: (Units=GPa)
#
#
# Indices 1 2 3 4 5 6 
#
# 1 88.9303 18.0958 -0.6324 -5.1852 2.7984 0.0000
# 2 18.0958 88.9303 -0.6324 5.1852 -2.7984 0.0000
# 3 -0.6324 -0.6324 110.3353 0.0000 0.0000 0.0000
# 4 -5.1852 5.1852 0.0000 29.5513 0.0000 -2.7984
# 5 2.7984 -2.7984 0.0000 0.0000 29.5513 -5.1852
# 6 0.0000 0.0000 0.0000 -2.7984 -5.1852 35.4173
#
#
#
# Elastic Compliance Matrix: (Units=1/GPa)
#
#
# Indices 1 2 3 4 5 6 
#
# 1 0.011973 -0.002629 0.000054 0.002562 -0.001383 0.000000
# 2 -0.002629 0.011973 0.000054 -0.002562 0.001383 0.000000
# 3 0.000054 0.000054 0.009064 0.000000 0.000000 0.000000
# 4 0.002562 -0.002562 0.000000 0.035000 0.000000 0.002765
# 5 -0.001383 0.001383 0.000000 0.000000 0.035000 0.005124
# 6 0.000000 0.000000 0.000000 0.002765 0.005124 0.029204
#
#
# Mechanical properties :
#
#
# Convention : Reuss Voigt Hill
#
# Bulk Modulus (GPa) = 35.75716 35.76198 35.75957
# Shear Modulus (GPa) = 34.11115 36.99498 35.55306
#
# Velocity S-wave (km/s) = 3.71794 3.87192 3.79571
# Velocity P-wave (km/s) = 5.73768 5.87206 5.80526
#
# Compressibility (1/GPa) = 0.02796643
#
# Stress axis : x y z
#
# Youngs Moduli (GPa) = 83.52158 83.52158 110.32779
#
# Poissons Ratio (x) = 0.21956 -0.00591
# Poissons Ratio (y) = 0.21956 -0.00591
# Poissons Ratio (z) = -0.00447 -0.00447
#
# Static dielectric constant tensor:
#      x y z
#    x 1.970900 0.000000 0.000000 
#    y 0.000000 1.970900 0.000000 
#    z 0.000000 0.000000 2.048810 
# 
# From -- ./inp_files/763.got.cif
#   From: 2010.05.17/outbox.cif.g08.bks.cpg/sg144_cif.got.tgz:763.got - 2010.05.20 13:46:34.
