data_PCOD9574974
_publ_section_title
;
Structure prediction by ZEFSAII (Michael W. Deem and Ramdas Pophale) SiO2 
 PCOD9574974
Probable space group: P -3
;
_chemical_formula_sum "Si O2"
_cell_formula_units_Z 36
_cell_length_a 17.854508
_cell_length_b 17.854508
_cell_length_c 8.229269
_cell_angle_alpha 90.000000
_cell_angle_beta 90.000000
_cell_angle_gamma 120.000000
_cell_volume 2271.891910
_symmetry_space_group_name_H-M "P -3"
_symmetry_group_IT_number 147
_symmetry_cell_setting 'hexagonal'
loop_
_space_group_symop_operation_xyz
x,y,z
-y,x-y,z
-x+y,-x,z
-x,-y,-z
y,-x+y,-z
x-y,x,-z
loop_
_atom_site_type_symbol
_atom_site_label
_atom_site_fract_x
_atom_site_fract_y
_atom_site_fract_z
Si Si1 0.298067 0.493703 0.338556
Si Si2 0.493703 0.298067 0.338555
Si Si3 0.000000 0.439395 0.251037
Si Si4 0.546039 0.185558 0.158218
Si Si5 1.000000 0.608545 0.387592
Si Si6 0.639518 0.185558 0.841780
O O1 0.246159 0.492318 0.500001
O O2 0.316949 0.413868 0.336356
O O3 0.239572 0.499649 0.197235
O O4 0.389702 0.582606 0.307035
O O5 0.499649 0.239572 0.197232
O O6 0.582606 0.389701 0.307033
O O7 0.413868 0.316949 0.336355
O O8 0.914104 0.386969 0.147850
O O9 1.000000 0.524032 0.318733
O O10 0.000000 0.391166 0.415912
O O11 0.085896 0.472865 0.147850
O O12 0.605291 0.210583 0.999999
#
# Coordination Sequence:
#
# PCOD9574974 Si02
#       6
#     6   6   6   6   6   6
#     4  11  20  33  50  67  91 125 165 206 243 292
#     4  11  20  33  50  67  91 125 165 206 243 292
#     4   9  17  32  48  66  92 124 156 199 251 305
#     4  11  21  32  47  71  96 123 160 208 254 295
#     4   9  18  32  48  68  86 124 166 195 250 293
#     4  11  21  32  47  71  96 123 160 208 254 295
#
# _framework density 15.845824
#
# number of rings (size 3 to 8) (size 9 to 14) (size 15 to 20)
#    0.000    1.667    3.333    3.167    0.000    0.000 
#    0.000    0.000    0.000    0.000    0.000    0.000 
#    0.000    0.000    0.000    9.000    0.000    0.000 
#
# Total GULP energy -200409.972616 kJ/mol
# GULP energy per Si atom -5566.943684 kJ/mol
# Density = 1.580976 g / cm^3
# Si number density = 15.845824 Si / 1000 Ang^3
#
#
#
# Elastic Constant Matrix: (Units=GPa)
#
#
# Indices 1 2 3 4 5 6 
#
# 1 90.3668 55.8764 29.8487 0.0000 2.3898 0.0000
# 2 55.8764 90.3668 29.8487 0.0000 -2.3898 0.0000
# 3 29.8487 29.8487 78.6669 0.0000 0.0000 0.0000
# 4 0.0000 0.0000 0.0000 20.7229 0.0000 -2.3898
# 5 2.3898 -2.3898 0.0000 0.0000 20.7229 0.0000
# 6 0.0000 0.0000 0.0000 -2.3898 0.0000 17.2452
#
#
#
# Elastic Compliance Matrix: (Units=1/GPa)
#
#
# Indices 1 2 3 4 5 6 
#
# 1 0.018778 -0.010687 -0.003070 0.000000 -0.003398 0.000000
# 2 -0.010687 0.018778 -0.003070 0.000000 0.003398 0.000000
# 3 -0.003070 -0.003070 0.015042 0.000000 0.000000 0.000000
# 4 0.000000 0.000000 0.000000 0.049039 0.000000 0.006796
# 5 -0.003398 0.003398 0.000000 0.000000 0.049039 0.000000
# 6 0.000000 0.000000 0.000000 0.006796 0.000000 0.058929
#
#
# Mechanical properties :
#
#
# Convention : Reuss Voigt Hill
#
# Bulk Modulus (GPa) = 52.78799 54.50532 53.64665
# Shear Modulus (GPa) = 20.03423 21.32666 20.68045
#
# Velocity S-wave (km/s) = 3.55959 3.67261 3.61654
# Velocity P-wave (km/s) = 7.09084 7.24265 7.16715
#
# Compressibility (1/GPa) = 0.01894370
#
# Stress axis : x y z
#
# Youngs Moduli (GPa) = 53.25442 53.25442 66.48253
#
# Poissons Ratio (x) = 0.56911 0.20410
# Poissons Ratio (y) = 0.56911 0.20410
# Poissons Ratio (z) = 0.16349 0.16349
#
# Static dielectric constant tensor:
#      x y z
#    x 1.550240 0.000000 0.000000 
#    y 0.000000 1.550240 0.000000 
#    z 0.000000 0.000000 1.630800 
# 
# From -- ./inp_files/602.got.cif
#   From: 2010.05.17/outbox.cif.g08.bks.cpg/sg147_cif.got.tgz:602.got - 2010.05.20 13:49:32.
