data_PCOD9574638
_publ_section_title
;
Structure prediction by ZEFSAII (Michael W. Deem and Ramdas Pophale) SiO2 
 PCOD9574638
Probable space group: P 32
;
_chemical_formula_sum "Si O2"
_cell_formula_units_Z 21
_cell_length_a 9.306211
_cell_length_b 9.306211
_cell_length_c 11.286897
_cell_angle_alpha 90.000000
_cell_angle_beta 90.000000
_cell_angle_gamma 120.000000
_cell_volume 846.546822
_symmetry_space_group_name_H-M "P 32"
_symmetry_group_IT_number 145
_symmetry_cell_setting 'hexagonal'
loop_
_space_group_symop_operation_xyz
x,y,z
-y,x-y,2/3+z
-x+y,-x,1/3+z
loop_
_atom_site_type_symbol
_atom_site_label
_atom_site_fract_x
_atom_site_fract_y
_atom_site_fract_z
Si Si1 0.929028 0.419034 0.347580
Si Si2 0.120333 0.438592 0.125708
Si Si3 0.015185 0.779340 0.285541
Si Si4 0.821418 0.399245 0.973663
Si Si5 0.273042 0.760270 0.823136
Si Si6 0.936421 0.516529 0.723298
Si Si7 0.716951 0.802611 0.368523
O O1 0.745621 0.282976 0.380638
O O2 0.016306 0.368591 0.245275
O O3 0.929123 0.580096 0.295370
O O4 0.053576 0.463281 0.455947
O O5 0.286011 0.616497 0.155956
O O6 0.993411 0.447672 0.034215
O O7 0.166842 0.315704 0.058501
O O8 0.102455 0.840071 0.157860
O O9 0.891725 0.850043 0.308411
O O10 0.707974 0.198503 0.965483
O O11 0.849584 0.492645 0.850118
O O12 0.121552 0.673804 0.729917
O O13 0.192030 0.779666 0.942972
O O14 0.971110 0.364588 0.724857
#
# Coordination Sequence:
#
# PCOD9574638 Si02
#       7
#     3   3   3   3   3   3   3
#     4  11  25  48  77 110 151 208 263 317 390 479
#     4  11  25  50  76 114 158 204 261 324 389 472
#     4  11  27  50  77 112 161 203 264 330 394 470
#     4  12  26  46  78 112 156 201 258 326 392 465
#     4  11  29  48  80 110 153 211 265 319 392 471
#     4  12  27  47  76 112 151 205 257 321 392 465
#     4  12  27  49  80 114 160 208 262 331 399 468
#
# _framework density 24.806661999999999
#
# number of rings (size 3 to 8) (size 9 to 14) (size 15 to 20)
#    0.000    0.571    4.286    1.714   10.000    2.286 
#    2.571    0.000    0.000    0.000    0.000    0.000 
#    0.000    0.000    0.000    0.000    0.000    0.000 
#
# Total GULP energy -117575.121286 kJ/mol
# GULP energy per Si atom -5598.815299 kJ/mol
# Density = 2.475020 g / cm^3
# Si number density = 24.806662 Si / 1000 Ang^3
#
#
#
# Elastic Constant Matrix: (Units=GPa)
#
#
# Indices 1 2 3 4 5 6 
#
# 1 127.4821 56.1129 17.5528 5.9219 -2.7979 0.0000
# 2 56.1129 127.4821 17.5528 -5.9219 2.7979 0.0000
# 3 17.5528 17.5528 56.2653 0.0000 0.0000 0.0000
# 4 5.9219 -5.9219 0.0000 39.3521 0.0000 2.7979
# 5 -2.7979 2.7979 0.0000 0.0000 39.3521 5.9219
# 6 0.0000 0.0000 0.0000 2.7979 5.9219 35.6846
#
#
#
# Elastic Compliance Matrix: (Units=1/GPa)
#
#
# Indices 1 2 3 4 5 6 
#
# 1 0.010123 -0.004330 -0.001807 -0.002175 0.001028 0.000000
# 2 -0.004330 0.010123 -0.001807 0.002175 -0.001028 0.000000
# 3 -0.001807 -0.001807 0.018900 0.000000 0.000000 0.000000
# 4 -0.002175 0.002175 0.000000 0.026212 0.000000 -0.002055
# 5 0.001028 -0.001028 0.000000 0.000000 0.026212 -0.004350
# 6 0.000000 0.000000 0.000000 -0.002055 -0.004350 0.028906
#
#
# Mechanical properties :
#
#
# Convention : Reuss Voigt Hill
#
# Bulk Modulus (GPa) = 42.99779 54.85182 48.92480
# Shear Modulus (GPa) = 34.69380 37.54516 36.11948
#
# Velocity S-wave (km/s) = 3.74380 3.89461 3.81995
# Velocity P-wave (km/s) = 6.00490 6.51028 6.26269
#
# Compressibility (1/GPa) = 0.02325701
#
# Stress axis : x y z
#
# Youngs Moduli (GPa) = 98.78766 98.78766 52.90896
#
# Poissons Ratio (x) = 0.42779 0.09561
# Poissons Ratio (y) = 0.42779 0.09561
# Poissons Ratio (z) = 0.17851 0.17851
#
# Static dielectric constant tensor:
#      x y z
#    x 1.973740 0.000000 0.000000 
#    y 0.000000 1.973740 0.000000 
#    z 0.000000 0.000000 2.051330 
# 
# From -- ./inp_files/624.got.cif
#   From: 2010.05.17/outbox.cif.g08.bks.cpg/sg145_cif.got.tgz:624.got - 2010.05.20 13:47:28.
