data_PCOD9574680
_publ_section_title
;
Structure prediction by ZEFSAII (Michael W. Deem and Ramdas Pophale) SiO2 
 PCOD9574680
Probable space group: R 3
;
_chemical_formula_sum "Si O2"
_cell_formula_units_Z 51
_cell_length_a 16.229370
_cell_length_b 16.229370
_cell_length_c 9.049930
_cell_angle_alpha 90.000000
_cell_angle_beta 90.000000
_cell_angle_gamma 120.000000
_cell_volume 2064.330241
_symmetry_space_group_name_H-M "R 3"
_symmetry_group_IT_number 146
_symmetry_cell_setting 'hexagonal'
loop_
_space_group_symop_operation_xyz
x,y,z
-y,x-y,z
-x+y,-x,z
2/3+x,1/3+y,1/3+z
2/3-y,1/3+x-y,1/3+z
2/3-x+y,1/3-x,1/3+z
1/3+x,2/3+y,2/3+z
1/3-y,2/3+x-y,2/3+z
1/3-x+y,2/3-x,2/3+z
loop_
_atom_site_type_symbol
_atom_site_label
_atom_site_fract_x
_atom_site_fract_y
_atom_site_fract_z
Si Si1 0.470538 0.875116 0.867580
Si Si2 0.000000 0.000000 0.518160
Si Si3 0.000000 0.000000 0.165304
Si Si4 0.575690 0.647249 0.092273
Si Si5 0.182739 0.684247 0.380238
Si Si6 0.143508 0.751190 0.097426
Si Si7 0.519861 0.641369 0.422294
O O1 0.394063 0.776827 0.793194
O O2 0.544374 0.947972 0.750024
O O3 0.414945 0.918918 0.960836
O O4 0.533459 0.858557 0.987118
O O5 0.989837 0.906347 0.588476
O O6 0.000000 0.000000 0.344610
O O7 0.602860 0.755677 0.068989
O O8 0.519570 0.624352 0.246095
O O9 0.661422 0.624736 0.122112
O O10 0.124548 0.713684 0.269141
O O11 0.261832 0.779443 0.464074
O O12 0.132835 0.582570 0.461585
#
# Coordination Sequence:
#
# PCOD9574680 Si02
#       7
#     9   3   3   9   9   9   9
#     4  12  21  36  60  90 120 154 203 255 298 355
#     4   9  12  24  51  78  96 133 192 234 258 321
#     4  12  18  33  63  81 108 153 202 240 297 357
#     4  11  19  33  57  89 116 153 195 253 301 344
#     4   9  15  28  49  80 108 145 186 240 284 334
#     4  11  22  35  57  90 125 150 198 254 305 349
#     4  10  19  31  55  86 117 146 198 244 301 350
#
# _framework density 24.705348000000001
#
# number of rings (size 3 to 8) (size 9 to 14) (size 15 to 20)
#    0.000    1.412    8.824    1.412    0.000    0.000 
#    0.000    3.529    0.000    0.000    0.000    0.000 
#    0.000    0.000    0.000    0.000    0.000    0.000 
#
# Total GULP energy -94775.854491 kJ/mol
# GULP energy per Si atom -5575.050264 kJ/mol
# Density = 2.464912 g / cm^3
# Si number density = 24.705348 Si / 1000 Ang^3
#
#
#
# Elastic Constant Matrix: (Units=GPa)
#
#
# Indices 1 2 3 4 5 6 
#
# 1 125.3168 32.7743 15.8490 13.0615 5.1612 0.0000
# 2 32.7743 125.3168 15.8490 -13.0615 -5.1612 0.0000
# 3 15.8490 15.8490 38.5983 0.0000 0.0000 0.0000
# 4 13.0615 -13.0615 0.0000 13.3403 0.0000 -5.1612
# 5 5.1612 -5.1612 0.0000 0.0000 13.3403 13.0615
# 6 0.0000 0.0000 0.0000 -5.1612 13.0615 46.2712
#
#
#
# Elastic Compliance Matrix: (Units=1/GPa)
#
#
# Indices 1 2 3 4 5 6 
#
# 1 0.011387 -0.004494 -0.002830 -0.015548 -0.006144 0.000000
# 2 -0.004494 0.011387 -0.002830 0.015548 0.006144 0.000000
# 3 -0.002830 -0.002830 0.028232 0.000000 0.000000 0.000000
# 4 -0.015548 0.015548 0.000000 0.110161 0.000000 0.012288
# 5 -0.006144 0.006144 0.000000 0.000000 0.110161 -0.031096
# 6 0.000000 0.000000 0.000000 0.012288 -0.031096 0.031760
#
#
# Mechanical properties :
#
#
# Convention : Reuss Voigt Hill
#
# Bulk Modulus (GPa) = 32.57669 46.46404 39.52037
# Shear Modulus (GPa) = 14.98670 29.57434 22.28052
#
# Velocity S-wave (km/s) = 2.46563 3.46364 3.00634
# Velocity P-wave (km/s) = 4.61741 5.90287 5.29926
#
# Compressibility (1/GPa) = 0.03069679
#
# Stress axis : x y z
#
# Youngs Moduli (GPa) = 87.82302 87.82301 35.42049
#
# Poissons Ratio (x) = 0.39464 0.10025
# Poissons Ratio (y) = 0.39464 0.10025
# Poissons Ratio (z) = 0.24857 0.24857
#
# Static dielectric constant tensor:
#      x y z
#    x 2.102060 0.000000 0.000000 
#    y 0.000000 2.102060 0.000000 
#    z 0.000000 0.000000 1.960480 
# 
# From -- ./inp_files/1157.got.cif
#   From: 2010.05.17/outbox.cif.g08.bks.cpg/sg146_cif.got.tgz:1157.got - 2010.05.20 13:48:23.
