data_PCOD9574075
_publ_section_title
;
Structure prediction by ZEFSAII (Michael W. Deem and Ramdas Pophale) SiO2 
 PCOD9574075
Probable space group: I 41/A C D
;
_chemical_formula_sum "Si O2"
_cell_formula_units_Z 96
_cell_length_a 13.139845
_cell_length_b 13.139845
_cell_length_c 27.956615
_cell_angle_alpha 90.000000
_cell_angle_beta 90.000000
_cell_angle_gamma 90.000000
_cell_volume 4826.864085
_symmetry_space_group_name_H-M "I 41/A C D"
_symmetry_group_IT_number 142
_space_group.IT_coordinate_system_code '2'
_symmetry_cell_setting 'tetragonal'
loop_
_space_group_symop_operation_xyz
x,y,z
1/4-y,3/4+x,1/4+z
-x,1/2-y,z
1/4+y,1/4-x,3/4+z
x,-y,1/2-z
1/2-x,y,-z
3/4+y,1/4+x,1/4-z
1/4-y,1/4-x,1/4-z
-x,-y,-z
3/4+y,1/4-x,3/4-z
x,1/2+y,-z
3/4-y,3/4+x,1/4-z
-x,y,1/2+z
1/2+x,-y,z
1/4-y,3/4-x,3/4+z
3/4+y,3/4+x,3/4+z
1/2+x,1/2+y,1/2+z
3/4-y,1/4+x,3/4+z
1/2-x,-y,1/2+z
3/4+y,3/4-x,1/4+z
1/2+x,1/2-y,-z
-x,1/2+y,1/2-z
1/4+y,3/4+x,3/4-z
3/4-y,3/4-x,3/4-z
1/2-x,1/2-y,1/2-z
1/4+y,3/4-x,1/4-z
1/2+x,y,1/2-z
1/4-y,1/4+x,3/4-z
1/2-x,1/2+y,z
x,1/2-y,1/2+z
3/4-y,1/4-x,1/4+z
1/4+y,1/4+x,1/4+z
loop_
_atom_site_type_symbol
_atom_site_label
_atom_site_fract_x
_atom_site_fract_y
_atom_site_fract_z
Si Si1 0.735271 0.090563 0.925365
Si Si2 0.046965 0.638567 0.822452
Si Si3 0.116635 0.504068 0.986113
O O1 0.710678 0.039323 0.875000
O O2 0.691851 0.204972 0.925270
O O3 0.849609 0.075564 0.944588
O O4 0.674132 0.028176 0.965812
O O5 0.096388 0.653612 0.875000
O O6 0.134416 0.610849 0.785083
O O7 0.000000 0.750000 0.810482
O O8 0.000000 0.500000 0.000000
#
# Coordination Sequence:
#
# PCOD9574075 Si02
#       3
#    32  32  32
#     4  11  23  40  66  99 126 178 231 275 358 425
#     4  11  20  41  69  89 131 177 222 286 360 410
#     4  11  23  39  63  96 134 170 226 288 341 429
#
# _framework density 19.888688999999999
#
# number of rings (size 3 to 8) (size 9 to 14) (size 15 to 20)
#    0.000    1.000    6.667    1.000    0.000    5.333 
#    0.000    0.000    0.000    0.000    0.000    0.000 
#    0.000    0.000    0.000    0.000    0.000    0.000 
#
# Total GULP energy -267994.993869 kJ/mol
# GULP energy per Si atom -5583.229039 kJ/mol
# Density = 1.984342 g / cm^3
# Si number density = 19.888689 Si / 1000 Ang^3
#
#
#
# Elastic Constant Matrix: (Units=GPa)
#
#
# Indices 1 2 3 4 5 6 
#
# 1 120.4089 41.0649 57.1882 0.0000 0.0000 0.0000
# 2 41.0649 120.4095 57.1879 0.0000 0.0000 0.0000
# 3 57.1882 57.1879 159.9740 0.0000 0.0000 0.0000
# 4 0.0000 0.0000 0.0000 27.7317 0.0000 0.0000
# 5 0.0000 0.0000 0.0000 0.0000 27.7297 0.0000
# 6 0.0000 0.0000 0.0000 0.0000 0.0000 41.9926
#
#
#
# Elastic Compliance Matrix: (Units=1/GPa)
#
#
# Indices 1 2 3 4 5 6 
#
# 1 0.010448 -0.002155 -0.002965 0.000000 0.000000 0.000000
# 2 -0.002155 0.010448 -0.002965 0.000000 0.000000 0.000000
# 3 -0.002965 -0.002965 0.008371 0.000000 0.000000 0.000000
# 4 0.000000 0.000000 0.000000 0.036060 0.000000 0.000000
# 5 0.000000 0.000000 0.000000 0.000000 0.036062 0.000000
# 6 0.000000 0.000000 0.000000 0.000000 0.000000 0.023814
#
#
# Mechanical properties :
#
#
# Convention : Reuss Voigt Hill
#
# Bulk Modulus (GPa) = 76.34750 79.07495 77.71122
# Shear Modulus (GPa) = 34.30834 35.84758 35.07796
#
# Velocity S-wave (km/s) = 4.15784 4.25009 4.20422
# Velocity P-wave (km/s) = 7.84353 7.99558 7.91992
#
# Compressibility (1/GPa) = 0.01309801
#
# Stress axis : x y z
#
# Youngs Moduli (GPa) = 95.71127 95.71199 119.46621
#
# Poissons Ratio (x) = 0.20628 0.35417
# Poissons Ratio (y) = 0.20628 0.35416
# Poissons Ratio (z) = 0.28374 0.28374
#
# Static dielectric constant tensor:
#      x y z
#    x 1.786920 0.000000 0.000000 
#    y 0.000000 1.786920 0.000000 
#    z 0.000000 0.000000 1.688330 
# 
# From -- ./inp_files/12103.got.cif
#   From: 2010.05.17/outbox.cif.g08.bks.cpg/sg142_7_cif.got.tgz:12103.got - 2010.05.20 13:39:18.
