data_PCOD9574389
_publ_section_title
;
Structure prediction by ZEFSAII (Michael W. Deem and Ramdas Pophale) SiO2 
 PCOD9574389
Probable space group: P 31
;
_chemical_formula_sum "Si O2"
_cell_formula_units_Z 18
_cell_length_a 9.099749
_cell_length_b 9.099749
_cell_length_c 11.459154
_cell_angle_alpha 90.000000
_cell_angle_beta 90.000000
_cell_angle_gamma 120.000000
_cell_volume 821.754355
_symmetry_space_group_name_H-M "P 31"
_symmetry_group_IT_number 144
_symmetry_cell_setting 'hexagonal'
loop_
_space_group_symop_operation_xyz
x,y,z
-y,x-y,1/3+z
-x+y,-x,2/3+z
loop_
_atom_site_type_symbol
_atom_site_label
_atom_site_fract_x
_atom_site_fract_y
_atom_site_fract_z
Si Si1 0.975198 0.170575 0.463190
Si Si2 0.143624 0.768716 0.332007
Si Si3 0.954399 0.156837 0.058105
Si Si4 0.701181 0.628730 0.158445
Si Si5 0.663659 0.072657 0.630503
Si Si6 0.580329 0.700456 0.598151
O O1 0.810290 0.118695 0.537305
O O2 0.129172 0.273344 0.550849
O O3 0.987556 0.287918 0.357010
O O4 0.959392 0.997990 0.415455
O O5 0.144223 0.603106 0.287372
O O6 0.969762 0.721424 0.401607
O O7 0.304707 0.906926 0.407989
O O8 0.045968 0.323157 0.141209
O O9 0.983636 0.212421 0.924072
O O10 0.585782 0.465615 0.238170
O O11 0.827897 0.592824 0.079932
O O12 0.573174 0.868842 0.634124
#
# Coordination Sequence:
#
# PCOD9574389 Si02
#       6
#     3   3   3   3   3   3
#     4  10  22  46  71 103 147 188 244 298 372 448
#     4  11  24  43  73 107 140 192 240 309 368 437
#     4  11  23  44  74 101 143 198 239 293 376 448
#     4  11  25  46  76 102 150 193 247 304 373 441
#     4  10  25  47  71 105 146 192 246 307 369 437
#     4  11  25  42  73 108 144 183 248 307 360 449
#
# _framework density 21.904357999999998
#
# number of rings (size 3 to 8) (size 9 to 14) (size 15 to 20)
#    0.000    1.333    0.000    6.000    7.000    2.667 
#   12.000    0.000    0.000    0.000    0.000    0.000 
#    0.000    0.000    0.000    0.000    0.000    0.000 
#
# Total GULP energy -100578.519186 kJ/mol
# GULP energy per Si atom -5587.695510 kJ/mol
# Density = 2.185450 g / cm^3
# Si number density = 21.904358 Si / 1000 Ang^3
#
#
#
# Elastic Constant Matrix: (Units=GPa)
#
#
# Indices 1 2 3 4 5 6 
#
# 1 107.4143 78.7369 66.8998 12.5252 16.8003 0.0000
# 2 78.7369 107.4143 66.8998 -12.5252 -16.8003 0.0000
# 3 66.8998 66.8998 148.8437 0.0000 0.0000 0.0000
# 4 12.5252 -12.5252 0.0000 20.7649 0.0000 -16.8003
# 5 16.8003 -16.8003 0.0000 0.0000 20.7649 12.5252
# 6 0.0000 0.0000 0.0000 -16.8003 12.5252 14.3387
#
#
#
# Elastic Compliance Matrix: (Units=1/GPa)
#
#
# Indices 1 2 3 4 5 6 
#
# 1 -0.032747 0.040683 -0.003567 0.044292 0.059410 0.000000
# 2 0.040683 -0.032747 -0.003567 -0.044292 -0.059410 0.000000
# 3 -0.003567 -0.003567 0.009925 0.000000 0.000000 0.000000
# 4 0.044292 -0.044292 0.000000 -0.101411 0.000000 -0.118821
# 5 0.059410 -0.059410 0.000000 0.000000 -0.101411 0.088585
# 6 0.000000 0.000000 0.000000 -0.118821 0.088585 -0.146860
#
#
# Mechanical properties :
#
#
# Convention : Reuss Voigt Hill
#
# Bulk Modulus (GPa) = 86.73844 87.63837 87.18840
# Shear Modulus (GPa) = -10.67222 21.24938 5.28858
#
# Velocity S-wave (km/s) = -2.20970 3.11802 1.55552
# Velocity P-wave (km/s) = 5.75972 7.28417 6.56633
#
# Compressibility (1/GPa) = 0.01152891
#
# Stress axis : x y z
#
# Youngs Moduli (GPa) = -30.53703 -30.53703 100.75816
#
# Poissons Ratio (x) = 1.24233 0.35938
# Poissons Ratio (y) = 1.24233 0.35938
# Poissons Ratio (z) = -0.10892 -0.10892
#
# Static dielectric constant tensor:
#      x y z
#    x 1.841920 0.000000 0.000000 
#    y 0.000000 1.841920 0.000000 
#    z 0.000000 0.000000 1.812440 
# 
# From -- ./inp_files/508.got.cif
#   From: 2010.05.17/outbox.cif.g08.bks.cpg/sg144_cif.got.tgz:508.got - 2010.05.20 13:46:34.
