data_PCOD9574571
_publ_section_title
;
Structure prediction by ZEFSAII (Michael W. Deem and Ramdas Pophale) SiO2 
 PCOD9574571
Probable space group: P 32
;
_chemical_formula_sum "Si O2"
_cell_formula_units_Z 21
_cell_length_a 11.183205
_cell_length_b 11.183205
_cell_length_c 8.084850
_cell_angle_alpha 90.000000
_cell_angle_beta 90.000000
_cell_angle_gamma 120.000000
_cell_volume 875.659312
_symmetry_space_group_name_H-M "P 32"
_symmetry_group_IT_number 145
_symmetry_cell_setting 'hexagonal'
loop_
_space_group_symop_operation_xyz
x,y,z
-y,x-y,2/3+z
-x+y,-x,1/3+z
loop_
_atom_site_type_symbol
_atom_site_label
_atom_site_fract_x
_atom_site_fract_y
_atom_site_fract_z
Si Si1 0.176038 0.192643 0.253130
Si Si2 0.748040 0.690742 0.358691
Si Si3 0.556505 0.966227 0.809497
Si Si4 0.843815 0.993650 0.274687
Si Si5 0.548376 0.034391 0.157708
Si Si6 0.280688 0.702957 0.882252
Si Si7 0.700189 0.113098 0.481942
O O1 0.242801 0.348040 0.179050
O O2 0.230281 0.195014 0.436561
O O3 0.011262 0.087044 0.272705
O O4 0.240270 0.127423 0.132862
O O5 0.619932 0.604624 0.478481
O O6 0.754939 0.583812 0.230643
O O7 0.768039 0.827810 0.271122
O O8 0.394703 0.859973 0.835932
O O9 0.592831 0.034420 0.629895
O O10 0.599925 0.068384 0.967636
O O11 0.777251 0.028862 0.427801
O O12 0.632463 0.127596 0.313561
O O13 0.523645 0.881203 0.195457
O O14 0.315285 0.622892 0.739955
#
# Coordination Sequence:
#
# PCOD9574571 Si02
#       7
#     3   3   3   3   3   3   3
#     4  11  22  41  69 106 146 186 240 306 370 430
#     4  11  25  42  73 108 144 192 252 302 367 447
#     4  10  24  42  67 102 144 188 239 288 360 453
#     4  12  22  41  71 110 144 187 235 317 376 425
#     4  11  25  45  71 102 149 190 241 301 366 439
#     4  10  22  38  60 100 137 184 225 279 354 426
#     4  11  24  47  71  98 150 193 238 303 367 430
#
# _framework density 23.981930999999999
#
# number of rings (size 3 to 8) (size 9 to 14) (size 15 to 20)
#    0.000    1.143    4.286    0.857    8.000    0.000 
#    2.571    0.000   12.571    0.000    0.000    0.000 
#    0.000    0.000    0.000    0.000    0.000    0.000 
#
# Total GULP energy -117105.864171 kJ/mol
# GULP energy per Si atom -5576.469722 kJ/mol
# Density = 2.392735 g / cm^3
# Si number density = 23.981931 Si / 1000 Ang^3
#
#
#
# Elastic Constant Matrix: (Units=GPa)
#
#
# Indices 1 2 3 4 5 6 
#
# 1 85.3620 34.2758 23.1113 -2.9302 1.8218 0.0000
# 2 34.2758 85.3620 23.1113 2.9302 -1.8218 0.0000
# 3 23.1113 23.1113 138.7840 0.0000 0.0000 0.0000
# 4 -2.9302 2.9302 0.0000 32.4717 0.0000 -1.8218
# 5 1.8218 -1.8218 0.0000 0.0000 32.4717 -2.9302
# 6 0.0000 0.0000 0.0000 -1.8218 -2.9302 25.5431
#
#
#
# Elastic Compliance Matrix: (Units=1/GPa)
#
#
# Indices 1 2 3 4 5 6 
#
# 1 0.014397 -0.005463 -0.001488 0.001792 -0.001114 0.000000
# 2 -0.005463 0.014397 -0.001488 -0.001792 0.001114 0.000000
# 3 -0.001488 -0.001488 0.007701 0.000000 0.000000 0.000000
# 4 0.001792 -0.001792 0.000000 0.031244 0.000000 0.002228
# 5 -0.001114 0.001114 0.000000 0.000000 0.031244 0.003584
# 6 0.000000 0.000000 0.000000 0.002228 0.003584 0.039720
#
#
# Mechanical properties :
#
#
# Convention : Reuss Voigt Hill
#
# Bulk Modulus (GPa) = 50.97625 52.27831 51.62728
# Shear Modulus (GPa) = 30.84160 33.36462 32.10311
#
# Velocity S-wave (km/s) = 3.59002 3.73398 3.66271
# Velocity P-wave (km/s) = 6.20376 6.35897 6.28184
#
# Compressibility (1/GPa) = 0.01961698
#
# Stress axis : x y z
#
# Youngs Moduli (GPa) = 69.46103 69.46103 129.85483
#
# Poissons Ratio (x) = 0.37948 0.19318
# Poissons Ratio (y) = 0.37948 0.19318
# Poissons Ratio (z) = 0.10333 0.10333
#
# Static dielectric constant tensor:
#      x y z
#    x 2.030580 0.000000 0.000000 
#    y 0.000000 2.030580 0.000000 
#    z 0.000000 0.000000 1.920230 
# 
# From -- ./inp_files/356.got.cif
#   From: 2010.05.17/outbox.cif.g08.bks.cpg/sg145_cif.got.tgz:356.got - 2010.05.20 13:47:28.
