data_PCOD9574616
_publ_section_title
;
Structure prediction by ZEFSAII (Michael W. Deem and Ramdas Pophale) SiO2 
 PCOD9574616
Probable space group: P 32
;
_chemical_formula_sum "Si O2"
_cell_formula_units_Z 21
_cell_length_a 10.377865
_cell_length_b 10.377865
_cell_length_c 9.828576
_cell_angle_alpha 90.000000
_cell_angle_beta 90.000000
_cell_angle_gamma 120.000000
_cell_volume 916.721181
_symmetry_space_group_name_H-M "P 32"
_symmetry_group_IT_number 145
_symmetry_cell_setting 'hexagonal'
loop_
_space_group_symop_operation_xyz
x,y,z
-y,x-y,2/3+z
-x+y,-x,1/3+z
loop_
_atom_site_type_symbol
_atom_site_label
_atom_site_fract_x
_atom_site_fract_y
_atom_site_fract_z
Si Si1 0.382099 0.239679 0.500000
Si Si2 0.149741 0.887979 0.925061
Si Si3 0.209254 0.690863 0.120792
Si Si4 0.811140 0.606335 0.285714
Si Si5 0.185405 0.534201 0.406042
Si Si6 0.532265 0.456964 0.728272
Si Si7 0.604028 0.066234 0.887920
O O1 0.223194 0.196378 0.567568
O O2 0.516199 0.356972 0.597697
O O3 0.429772 0.119834 0.458709
O O4 0.385474 0.315185 0.358301
O O5 0.238851 0.871440 0.794111
O O6 0.226005 0.065332 0.942620
O O7 0.188628 0.824897 0.062540
O O8 0.165801 0.596128 0.261382
O O9 0.376763 0.736090 0.097043
O O10 0.096968 0.556099 0.021493
O O11 0.898710 0.566643 0.173821
O O12 0.850607 0.570022 0.432934
O O13 0.638028 0.495040 0.251529
O O14 0.098433 0.589712 0.503736
#
# Coordination Sequence:
#
# PCOD9574616 Si02
#       7
#     3   3   3   3   3   3   3
#     4  11  23  41  62 106 129 181 219 289 336 414
#     4  10  25  39  66  92 141 171 215 279 354 388
#     4  11  22  39  63  94 121 171 215 272 320 404
#     4  11  22  41  65 103 132 179 219 294 341 411
#     4  11  21  39  62  93 123 166 216 272 326 398
#     4  11  23  40  68  95 136 168 228 277 335 400
#     4  11  22  37  66  95 134 168 230 275 340 399
#
# _framework density 22.907729
#
# number of rings (size 3 to 8) (size 9 to 14) (size 15 to 20)
#    0.000    1.143    2.857    4.286    4.000    1.143 
#    0.000    0.000    6.286    0.000    0.000    0.000 
#    0.000    0.000    0.000    0.000    0.000    0.000 
#
# Total GULP energy -117095.030911 kJ/mol
# GULP energy per Si atom -5575.953853 kJ/mol
# Density = 2.285559 g / cm^3
# Si number density = 22.907729 Si / 1000 Ang^3
#
#
#
# Elastic Constant Matrix: (Units=GPa)
#
#
# Indices 1 2 3 4 5 6 
#
# 1 64.1739 55.6348 24.8469 -10.6235 28.8708 0.0000
# 2 55.6348 64.1739 24.8469 10.6235 -28.8708 0.0000
# 3 24.8469 24.8469 122.8702 0.0000 0.0000 0.0000
# 4 -10.6235 10.6235 0.0000 2.6056 0.0000 -28.8708
# 5 28.8708 -28.8708 0.0000 0.0000 2.6056 -10.6235
# 6 0.0000 0.0000 0.0000 -28.8708 -10.6235 4.2695
#
#
#
# Elastic Compliance Matrix: (Units=1/GPa)
#
#
# Indices 1 2 3 4 5 6 
#
# 1 0.003859 0.005252 -0.001842 -0.005679 0.015435 0.000000
# 2 0.005252 0.003859 -0.001842 0.005679 -0.015435 0.000000
# 3 -0.001842 -0.001842 0.008884 0.000000 0.000000 0.000000
# 4 -0.005679 0.005679 0.000000 -0.004565 0.000000 -0.030869
# 5 0.015435 -0.015435 0.000000 0.000000 -0.004565 -0.011359
# 6 0.000000 0.000000 0.000000 -0.030869 -0.011359 -0.002786
#
#
# Mechanical properties :
#
#
# Convention : Reuss Voigt Hill
#
# Bulk Modulus (GPa) = 50.66917 51.31947 50.99432
# Shear Modulus (GPa) = 615.01169 11.62211 313.31690
#
# Velocity S-wave (km/s) = 16.40294 2.25487 11.70771
# Velocity P-wave (km/s) = 19.51688 5.40653 14.32025
#
# Compressibility (1/GPa) = 0.01973587
#
# Stress axis : x y z
#
# Youngs Moduli (GPa) = 259.14046 259.14046 112.56429
#
# Poissons Ratio (x) = -1.36098 0.20739
# Poissons Ratio (y) = -1.36098 0.20739
# Poissons Ratio (z) = 0.47744 0.47744
#
# Static dielectric constant tensor:
#      x y z
#    x 1.895420 0.000000 0.000000 
#    y 0.000000 1.895420 0.000000 
#    z 0.000000 0.000000 1.924910 
# 
# From -- ./inp_files/383.got.cif
#   From: 2010.05.17/outbox.cif.g08.bks.cpg/sg145_cif.got.tgz:383.got - 2010.05.20 13:47:28.
