data_PCOD9574942
_publ_section_title
;
Structure prediction by ZEFSAII (Michael W. Deem and Ramdas Pophale) SiO2 
 PCOD9574942
Probable space group: P -3
;
_chemical_formula_sum "Si O2"
_cell_formula_units_Z 40
_cell_length_a 17.012005
_cell_length_b 17.012005
_cell_length_c 8.896756
_cell_angle_alpha 90.000000
_cell_angle_beta 90.000000
_cell_angle_gamma 120.000000
_cell_volume 2229.838014
_symmetry_space_group_name_H-M "P -3"
_symmetry_group_IT_number 147
_symmetry_cell_setting 'hexagonal'
loop_
_space_group_symop_operation_xyz
x,y,z
-y,x-y,z
-x+y,-x,z
-x,-y,-z
y,-x+y,-z
x-y,x,-z
loop_
_atom_site_type_symbol
_atom_site_label
_atom_site_fract_x
_atom_site_fract_y
_atom_site_fract_z
Si Si1 0.333334 0.666667 0.223515
Si Si2 0.597850 0.499374 0.462698
Si Si3 0.520632 0.771390 0.364118
Si Si4 0.400896 0.131787 0.942012
Si Si5 0.666667 0.333334 0.134357
Si Si6 0.417524 0.355470 0.620707
Si Si7 0.929222 0.619713 0.971715
Si Si8 0.568585 0.435756 0.133587
O O1 0.432649 0.691909 0.279707
O O2 0.333334 0.666667 0.046213
O O3 0.678855 0.482793 0.501694
O O4 0.518180 0.437770 0.577299
O O5 0.638473 0.607903 0.470372
O O6 0.564952 0.477117 0.292150
O O7 0.569486 0.845505 0.232876
O O8 0.582766 0.734326 0.430018
O O9 0.377184 0.211631 0.987068
O O10 0.488476 0.141019 0.034113
O O11 0.324169 0.026047 0.968498
O O12 0.592137 0.358547 0.178837
O O13 0.392324 0.335367 0.794971
O O14 0.913818 0.526849 0.048748
#
# Coordination Sequence:
#
# PCOD9574942 Si02
#       8
#     2   6   6   6   2   6   6   6
#     4  12  18  34  53  70 108 148 200 220 264 337
#     4  11  24  34  50  79 109 146 185 226 269 317
#     4  11  22  36  53  73 105 153 183 222 278 327
#     4  11  23  39  60  79 108 148 184 238 274 340
#     4  12  21  34  53  88 108 154 194 232 261 319
#     4  10  22  38  52  72 109 144 182 226 268 332
#     4  11  23  41  59  82 109 148 192 227 286 327
#     4  12  22  34  57  80 118 145 192 232 266 316
#
# _framework density 17.938523
#
# number of rings (size 3 to 8) (size 9 to 14) (size 15 to 20)
#    0.000    0.900    6.000    2.250    6.300    0.000 
#    0.000    0.000    0.000    0.300    0.000    0.000 
#    0.000    0.000    0.000    8.250    0.000    0.000 
#
# Total GULP energy -222774.926966 kJ/mol
# GULP energy per Si atom -5569.373174 kJ/mol
# Density = 1.789769 g / cm^3
# Si number density = 17.938523 Si / 1000 Ang^3
#
#
#
# Elastic Constant Matrix: (Units=GPa)
#
#
# Indices 1 2 3 4 5 6 
#
# 1 76.7515 29.2983 24.2274 5.8793 -7.4375 0.0001
# 2 29.2983 76.7516 24.2273 -5.8792 7.4374 0.0001
# 3 24.2274 24.2273 41.8704 0.0000 0.0000 0.0000
# 4 5.8793 -5.8792 0.0000 18.6620 -0.0001 7.4377
# 5 -7.4375 7.4374 0.0000 -0.0001 18.6624 5.8792
# 6 0.0001 0.0001 0.0000 7.4377 5.8792 23.7267
#
#
#
# Elastic Compliance Matrix: (Units=1/GPa)
#
#
# Indices 1 2 3 4 5 6 
#
# 1 0.019629 -0.006811 -0.007417 -0.008330 0.010537 0.000000
# 2 -0.006811 0.019629 -0.007417 0.008330 -0.010537 0.000000
# 3 -0.007417 -0.007417 0.032467 0.000000 0.000000 0.000000
# 4 -0.008330 0.008330 0.000000 0.067233 0.000000 -0.021076
# 5 0.010537 -0.010537 0.000000 0.000000 0.067230 -0.016659
# 6 0.000000 0.000000 0.000000 -0.021076 -0.016659 0.052881
#
#
# Mechanical properties :
#
#
# Convention : Reuss Voigt Hill
#
# Bulk Modulus (GPa) = 35.16770 38.98662 37.07716
# Shear Modulus (GPa) = 16.03393 20.05159 18.04276
#
# Velocity S-wave (km/s) = 2.99294 3.34697 3.17489
# Velocity P-wave (km/s) = 5.62056 6.05945 5.84413
#
# Compressibility (1/GPa) = 0.02843518
#
# Stress axis : x y z
#
# Youngs Moduli (GPa) = 50.94381 50.94402 30.80075
#
# Poissons Ratio (x) = 0.34698 0.22845
# Poissons Ratio (y) = 0.34698 0.22845
# Poissons Ratio (z) = 0.37786 0.37785
#
# Static dielectric constant tensor:
#      x y z
#    x 1.732630 0.000000 0.000000 
#    y 0.000000 1.732630 0.000000 
#    z 0.000000 0.000000 1.638740 
# 
# From -- ./inp_files/658.got.cif
#   From: 2010.05.17/outbox.cif.g08.bks.cpg/sg147_cif.got.tgz:658.got - 2010.05.20 13:49:32.
