data_PCOD9574053
_publ_section_title
;
Structure prediction by ZEFSAII (Michael W. Deem and Ramdas Pophale) SiO2 
 PCOD9574053
Probable space group: I 41/A C D
;
_chemical_formula_sum "Si O2"
_cell_formula_units_Z 176
_cell_length_a 18.363144
_cell_length_b 18.363144
_cell_length_c 23.894680
_cell_angle_alpha 90.000000
_cell_angle_beta 90.000000
_cell_angle_gamma 90.000000
_cell_volume 8057.406945
_symmetry_space_group_name_H-M "I 41/A C D"
_symmetry_group_IT_number 142
_space_group.IT_coordinate_system_code '2'
_symmetry_cell_setting 'tetragonal'
loop_
_space_group_symop_operation_xyz
x,y,z
1/4-y,3/4+x,1/4+z
-x,1/2-y,z
1/4+y,1/4-x,3/4+z
x,-y,1/2-z
1/2-x,y,-z
3/4+y,1/4+x,1/4-z
1/4-y,1/4-x,1/4-z
-x,-y,-z
3/4+y,1/4-x,3/4-z
x,1/2+y,-z
3/4-y,3/4+x,1/4-z
-x,y,1/2+z
1/2+x,-y,z
1/4-y,3/4-x,3/4+z
3/4+y,3/4+x,3/4+z
1/2+x,1/2+y,1/2+z
3/4-y,1/4+x,3/4+z
1/2-x,-y,1/2+z
3/4+y,3/4-x,1/4+z
1/2+x,1/2-y,-z
-x,1/2+y,1/2-z
1/4+y,3/4+x,3/4-z
3/4-y,3/4-x,3/4-z
1/2-x,1/2-y,1/2-z
1/4+y,3/4-x,1/4-z
1/2+x,y,1/2-z
1/4-y,1/4+x,3/4-z
1/2-x,1/2+y,z
x,1/2-y,1/2+z
3/4-y,1/4-x,1/4+z
1/4+y,1/4+x,1/4+z
loop_
_atom_site_type_symbol
_atom_site_label
_atom_site_fract_x
_atom_site_fract_y
_atom_site_fract_z
Si Si1 0.250000 0.082594 0.500000
Si Si2 0.262724 0.320318 0.101316
Si Si3 0.109588 0.865645 0.468167
Si Si4 0.000000 0.750000 0.965339
Si Si5 0.804416 0.064725 0.813554
Si Si6 0.580515 0.970859 0.127148
Si Si7 0.590446 0.840446 0.625000
O O1 0.213983 0.138314 0.455501
O O2 0.207396 0.025084 0.539903
O O3 0.298386 0.361052 0.152775
O O4 0.274463 0.234609 0.106852
O O5 0.175459 0.329905 0.110788
O O6 0.168779 0.895139 0.510844
O O7 0.151995 0.824532 0.418567
O O8 0.055159 0.806464 0.494482
O O9 0.077761 0.937020 0.435289
O O10 0.044751 0.807254 0.926657
O O11 0.844070 0.008793 0.855281
#
# Coordination Sequence:
#
# PCOD9574053 Si02
#       7
#    16  32  32  16  32  32  16
#     4  12  24  38  70  98 132 170 218 292 332 396
#     4  12  25  41  66 101 132 172 225 279 334 398
#     4  11  22  38  70  92 132 179 221 273 332 401
#     4  11  20  38  64 102 121 170 223 282 317 404
#     4  12  25  43  63 100 139 175 222 278 347 407
#     4  11  23  42  66  97 134 177 227 273 339 400
#     4  11  18  38  62  92 124 152 222 281 314 380
#
# _framework density 21.843256
#
# number of rings (size 3 to 8) (size 9 to 14) (size 15 to 20)
#    0.000    0.545    7.273    2.182    5.091    0.727 
#    0.000    1.818    0.000    0.000    0.000    0.000 
#    0.000    0.000    0.000    0.000    0.000    0.000 
#
# Total GULP energy -490813.955189 kJ/mol
# GULP energy per Si atom -5577.431309 kJ/mol
# Density = 2.179354 g / cm^3
# Si number density = 21.843256 Si / 1000 Ang^3
#
#
#
# Elastic Constant Matrix: (Units=GPa)
#
#
# Indices 1 2 3 4 5 6 
#
# 1 89.7676 32.8517 20.2939 0.0000 0.0000 0.0000
# 2 32.8517 89.7676 20.2939 0.0000 0.0000 0.0000
# 3 20.2939 20.2939 57.2872 0.0000 0.0000 0.0000
# 4 0.0000 0.0000 0.0000 14.0517 0.0000 0.0000
# 5 0.0000 0.0000 0.0000 0.0000 14.0517 0.0000
# 6 0.0000 0.0000 0.0000 0.0000 0.0000 22.4882
#
#
#
# Elastic Compliance Matrix: (Units=1/GPa)
#
#
# Indices 1 2 3 4 5 6 
#
# 1 0.013404 -0.004166 -0.003273 0.000000 0.000000 0.000000
# 2 -0.004166 0.013404 -0.003273 0.000000 0.000000 0.000000
# 3 -0.003273 -0.003273 0.019775 0.000000 0.000000 0.000000
# 4 0.000000 0.000000 0.000000 0.071166 0.000000 0.000000
# 5 0.000000 0.000000 0.000000 0.000000 0.071166 0.000000
# 6 0.000000 0.000000 0.000000 0.000000 0.000000 0.044468
#
#
# Mechanical properties :
#
#
# Convention : Reuss Voigt Hill
#
# Bulk Modulus (GPa) = 39.74430 42.63347 41.18889
# Shear Modulus (GPa) = 18.99759 21.01052 20.00405
#
# Velocity S-wave (km/s) = 2.95231 3.10478 3.02950
# Velocity P-wave (km/s) = 5.46408 5.69325 5.57985
#
# Compressibility (1/GPa) = 0.02516084
#
# Stress axis : x y z
#
# Youngs Moduli (GPa) = 74.60340 74.60340 50.56980
#
# Poissons Ratio (x) = 0.31077 0.16550
# Poissons Ratio (y) = 0.31077 0.16550
# Poissons Ratio (z) = 0.24416 0.24416
#
# Static dielectric constant tensor:
#      x y z
#    x 1.838070 0.000000 0.000000 
#    y 0.000000 1.838070 0.000000 
#    z 0.000000 0.000000 1.798080 
# 
# From -- ./inp_files/11514.got.cif
#   From: 2010.05.17/outbox.cif.g08.bks.cpg/sg142_6_cif.got.tgz:11514.got - 2010.05.20 13:39:18.
