data_PCOD9574824
_publ_section_title
;
Structure prediction by ZEFSAII (Michael W. Deem and Ramdas Pophale) SiO2 
 PCOD9574824
Probable space group: R 3
;
_chemical_formula_sum "Si O2"
_cell_formula_units_Z 33
_cell_length_a 13.999919
_cell_length_b 13.999919
_cell_length_c 6.684322
_cell_angle_alpha 90.000000
_cell_angle_beta 90.000000
_cell_angle_gamma 120.000000
_cell_volume 1134.590232
_symmetry_space_group_name_H-M "R 3"
_symmetry_group_IT_number 146
_symmetry_cell_setting 'hexagonal'
loop_
_space_group_symop_operation_xyz
x,y,z
-y,x-y,z
-x+y,-x,z
2/3+x,1/3+y,1/3+z
2/3-y,1/3+x-y,1/3+z
2/3-x+y,1/3-x,1/3+z
1/3+x,2/3+y,2/3+z
1/3-y,2/3+x-y,2/3+z
1/3-x+y,2/3-x,2/3+z
loop_
_atom_site_type_symbol
_atom_site_label
_atom_site_fract_x
_atom_site_fract_y
_atom_site_fract_z
Si Si1 0.666668 0.333334 0.609857
Si Si2 0.456635 0.130557 0.610871
Si Si3 0.000000 0.000000 0.795220
Si Si4 0.130556 0.456637 0.460839
Si Si5 0.762225 0.095558 0.202518
O O1 0.539145 0.256374 0.666201
O O2 0.666668 0.333334 0.369203
O O3 0.333332 0.075555 0.702521
O O4 0.333336 0.879967 0.702522
O O5 0.531938 0.075097 0.655716
O O6 0.127521 0.050564 0.738863
O O7 0.075096 0.531937 0.415986
O O8 0.666667 0.060893 0.369185
#
# Coordination Sequence:
#
# PCOD9574824 Si02
#       5
#     3   9   3   9   9
#     4   9  21  45  78 118 165 216 271 336 411 490
#     4  11  25  48  82 122 168 217 271 339 413 491
#     4   9  21  45  78 118 165 216 271 336 411 490
#     4  11  25  48  82 122 168 217 271 339 413 491
#     4  12  28  48  80 120 162 212 274 344 418 492
#
# _framework density 29.085386
#
# number of rings (size 3 to 8) (size 9 to 14) (size 15 to 20)
#    0.000    1.091    0.000    6.545    0.000   10.909 
#    0.000    0.000    0.000   17.455    0.000    0.000 
#    0.000    0.000    0.000    0.000    0.000    0.000 
#
# Total GULP energy -61473.136910 kJ/mol
# GULP energy per Si atom -5588.466992 kJ/mol
# Density = 2.901919 g / cm^3
# Si number density = 29.085386 Si / 1000 Ang^3
#
#
#
# Elastic Constant Matrix: (Units=GPa)
#
#
# Indices 1 2 3 4 5 6 
#
# 1 278.4874 147.0075 69.8698 -34.7533 -0.0003 -0.0001
# 2 147.0075 278.4882 69.8695 34.7536 0.0009 -0.0007
# 3 69.8698 69.8695 241.5772 0.0012 0.0020 0.0003
# 4 -34.7533 34.7536 0.0012 55.7672 0.0005 0.0009
# 5 -0.0003 0.0009 0.0020 0.0005 55.7674 -34.7536
# 6 -0.0001 -0.0007 0.0003 0.0009 -34.7536 65.7397
#
#
#
# Elastic Compliance Matrix: (Units=1/GPa)
#
#
# Indices 1 2 3 4 5 6 
#
# 1 0.006970 -0.004373 -0.000751 0.007069 0.000000 0.000000
# 2 -0.004373 0.006970 -0.000751 -0.007068 0.000000 0.000000
# 3 -0.000751 -0.000751 0.004574 0.000000 0.000000 0.000000
# 4 0.007069 -0.007068 0.000000 0.026742 -0.000001 -0.000001
# 5 0.000000 0.000000 0.000000 -0.000001 0.026742 0.014137
# 6 0.000000 0.000000 0.000000 -0.000001 0.014137 0.022685
#
#
# Mechanical properties :
#
#
# Convention : Reuss Voigt Hill
#
# Bulk Modulus (GPa) = 147.85550 152.44957 150.15253
# Shear Modulus (GPa) = 46.00404 69.57527 57.78965
#
# Velocity S-wave (km/s) = 3.98136 4.89622 4.46230
# Velocity P-wave (km/s) = 8.49001 9.19197 8.84795
#
# Compressibility (1/GPa) = 0.00676336
#
# Stress axis : x y z
#
# Youngs Moduli (GPa) = 143.47863 143.47955 218.63090
#
# Poissons Ratio (x) = 0.62741 0.16422
# Poissons Ratio (y) = 0.62740 0.16420
# Poissons Ratio (z) = 0.10777 0.10776
#
# Static dielectric constant tensor:
#      x y z
#    x 2.332370 0.000000 0.000000 
#    y 0.000000 2.332370 0.000000 
#    z 0.000000 0.000000 2.409830 
# 
# From -- ./inp_files/558.got.cif
#   From: 2010.05.17/outbox.cif.g08.bks.cpg/sg146_cif.got.tgz:558.got - 2010.05.20 13:48:23.
