data_PCOD9574473
_publ_section_title
;
Structure prediction by ZEFSAII (Michael W. Deem and Ramdas Pophale) SiO2 
 PCOD9574473
Probable space group: P 31
;
_chemical_formula_sum "Si O2"
_cell_formula_units_Z 21
_cell_length_a 8.964390
_cell_length_b 8.964390
_cell_length_c 13.422592
_cell_angle_alpha 90.000000
_cell_angle_beta 90.000000
_cell_angle_gamma 120.000000
_cell_volume 934.132551
_symmetry_space_group_name_H-M "P 31"
_symmetry_group_IT_number 144
_symmetry_cell_setting 'hexagonal'
loop_
_space_group_symop_operation_xyz
x,y,z
-y,x-y,1/3+z
-x+y,-x,2/3+z
loop_
_atom_site_type_symbol
_atom_site_label
_atom_site_fract_x
_atom_site_fract_y
_atom_site_fract_z
Si Si1 0.797323 0.299578 0.959180
Si Si2 0.567576 0.729451 0.376283
Si Si3 0.225344 0.121636 0.351981
Si Si4 0.641887 0.451685 0.810397
Si Si5 0.888018 0.070330 0.450411
Si Si6 0.371546 0.414834 0.500804
Si Si7 0.103328 0.475319 0.617669
O O1 0.762201 0.422495 0.887843
O O2 0.689197 0.112304 0.909058
O O3 0.704128 0.269571 0.066401
O O4 0.998384 0.364454 0.969666
O O5 0.722155 0.914336 0.402903
O O6 0.506606 0.610445 0.474536
O O7 0.419445 0.764334 0.334747
O O8 0.182611 0.121234 0.236434
O O9 0.337116 0.312009 0.397035
O O10 0.320734 0.008584 0.357759
O O11 0.050410 0.056044 0.413631
O O12 0.507565 0.473996 0.880098
O O13 0.756765 0.637034 0.757303
O O14 0.207528 0.414718 0.546975
#
# Coordination Sequence:
#
# PCOD9574473 Si02
#       7
#     3   3   3   3   3   3   3
#     4  12  27  50  74 109 154 203 259 314 386 462
#     4  12  28  44  74 114 145 198 253 320 382 459
#     4  11  24  53  70 105 153 202 253 311 389 459
#     4  11  25  51  75 106 152 208 253 312 392 465
#     4  11  26  44  79 104 150 203 250 312 384 470
#     4  12  27  47  73 110 149 191 252 321 376 460
#     4  11  27  47  75 110 151 197 252 322 385 465
#
# _framework density 22.480748999999999
#
# number of rings (size 3 to 8) (size 9 to 14) (size 15 to 20)
#    0.000    0.571    4.286    3.429   10.000    1.143 
#    0.000    0.000    0.000    0.000    0.000    0.000 
#    0.000    0.000    0.000    0.000    0.000    0.000 
#
# Total GULP energy -117456.865906 kJ/mol
# GULP energy per Si atom -5593.184091 kJ/mol
# Density = 2.242958 g / cm^3
# Si number density = 22.480749 Si / 1000 Ang^3
#
#
#
# Elastic Constant Matrix: (Units=GPa)
#
#
# Indices 1 2 3 4 5 6 
#
# 1 107.8760 33.5548 26.7003 -4.7083 -10.9737 0.0000
# 2 33.5548 107.8760 26.7003 4.7083 10.9737 0.0000
# 3 26.7003 26.7003 75.1264 0.0000 0.0000 0.0000
# 4 -4.7083 4.7083 0.0000 27.1859 0.0000 10.9737
# 5 -10.9737 10.9737 0.0000 0.0000 27.1859 -4.7083
# 6 0.0000 0.0000 0.0000 10.9737 -4.7083 37.1606
#
#
#
# Elastic Compliance Matrix: (Units=1/GPa)
#
#
# Indices 1 2 3 4 5 6 
#
# 1 0.011916 -0.003750 -0.002902 0.002713 0.006324 0.000000
# 2 -0.003750 0.011916 -0.002902 -0.002713 -0.006324 0.000000
# 3 -0.002902 -0.002902 0.015374 0.000000 0.000000 0.000000
# 4 0.002713 -0.002713 0.000000 0.042829 0.000000 -0.012648
# 5 0.006324 -0.006324 0.000000 0.000000 0.042829 0.005426
# 6 0.000000 0.000000 0.000000 -0.012648 0.005426 0.031333
#
#
# Mechanical properties :
#
#
# Convention : Reuss Voigt Hill
#
# Bulk Modulus (GPa) = 49.75800 51.64325 50.70063
# Shear Modulus (GPa) = 27.47169 31.90135 29.68652
#
# Velocity S-wave (km/s) = 3.49952 3.77112 3.63785
# Velocity P-wave (km/s) = 6.20568 6.47949 6.34407
#
# Compressibility (1/GPa) = 0.02009727
#
# Stress axis : x y z
#
# Youngs Moduli (GPa) = 83.91795 83.91795 65.04506
#
# Poissons Ratio (x) = 0.31469 0.18879
# Poissons Ratio (y) = 0.31469 0.18879
# Poissons Ratio (z) = 0.24356 0.24356
#
# Static dielectric constant tensor:
#      x y z
#    x 1.855760 0.000000 0.000000 
#    y 0.000000 1.855760 0.000000 
#    z 0.000000 0.000000 1.837110 
# 
# From -- ./inp_files/598.got.cif
#   From: 2010.05.17/outbox.cif.g08.bks.cpg/sg144_cif.got.tgz:598.got - 2010.05.20 13:46:34.
