data_PCOD9574093
_publ_section_title
;
Structure prediction by ZEFSAII (Michael W. Deem and Ramdas Pophale) SiO2 
 PCOD9574093
Probable space group: I 41/A C D
;
_chemical_formula_sum "Si O2"
_cell_formula_units_Z 96
_cell_length_a 16.099885
_cell_length_b 16.099885
_cell_length_c 18.707161
_cell_angle_alpha 90.000000
_cell_angle_beta 90.000000
_cell_angle_gamma 90.000000
_cell_volume 4849.013930
_symmetry_space_group_name_H-M "I 41/A C D"
_symmetry_group_IT_number 142
_space_group.IT_coordinate_system_code '2'
_symmetry_cell_setting 'tetragonal'
loop_
_space_group_symop_operation_xyz
x,y,z
1/4-y,3/4+x,1/4+z
-x,1/2-y,z
1/4+y,1/4-x,3/4+z
x,-y,1/2-z
1/2-x,y,-z
3/4+y,1/4+x,1/4-z
1/4-y,1/4-x,1/4-z
-x,-y,-z
3/4+y,1/4-x,3/4-z
x,1/2+y,-z
3/4-y,3/4+x,1/4-z
-x,y,1/2+z
1/2+x,-y,z
1/4-y,3/4-x,3/4+z
3/4+y,3/4+x,3/4+z
1/2+x,1/2+y,1/2+z
3/4-y,1/4+x,3/4+z
1/2-x,-y,1/2+z
3/4+y,3/4-x,1/4+z
1/2+x,1/2-y,-z
-x,1/2+y,1/2-z
1/4+y,3/4+x,3/4-z
3/4-y,3/4-x,3/4-z
1/2-x,1/2-y,1/2-z
1/4+y,3/4-x,1/4-z
1/2+x,y,1/2-z
1/4-y,1/4+x,3/4-z
1/2-x,1/2+y,z
x,1/2-y,1/2+z
3/4-y,1/4-x,1/4+z
1/4+y,1/4+x,1/4+z
loop_
_atom_site_type_symbol
_atom_site_label
_atom_site_fract_x
_atom_site_fract_y
_atom_site_fract_z
Si Si1 0.909587 0.705690 0.949802
Si Si2 0.443029 0.864700 0.900810
Si Si3 0.604870 0.967217 0.176037
O O1 0.906923 0.656923 0.875000
O O2 0.839744 0.776414 0.948485
O O3 0.000000 0.750000 0.952304
O O4 0.907110 0.649506 0.020180
O O5 0.541679 0.846387 0.898162
O O6 0.424988 0.953632 0.868735
O O7 0.663458 0.913458 0.125000
O O8 0.644365 0.000000 0.250000
#
# Coordination Sequence:
#
# PCOD9574093 Si02
#       3
#    32  32  32
#     4  11  21  43  71  97 131 191 236 273 355 437
#     4  11  22  44  73  98 140 190 237 291 357 430
#     4  12  25  46  71 104 146 182 241 305 352 425
#
# _framework density 19.797839
#
# number of rings (size 3 to 8) (size 9 to 14) (size 15 to 20)
#    0.000    0.667   10.000    0.000    0.000    1.333 
#    6.000    0.000    0.000    0.000    0.000    0.000 
#    0.000    0.000    0.000    0.000    0.000    0.000 
#
# Total GULP energy -268274.154715 kJ/mol
# GULP energy per Si atom -5589.044890 kJ/mol
# Density = 1.975278 g / cm^3
# Si number density = 19.797839 Si / 1000 Ang^3
#
#
#
# Elastic Constant Matrix: (Units=GPa)
#
#
# Indices 1 2 3 4 5 6 
#
# 1 99.0564 63.2794 48.7490 0.0000 0.0000 0.0000
# 2 63.2794 99.0564 48.7490 0.0000 0.0000 0.0000
# 3 48.7490 48.7490 184.3913 0.0000 0.0000 0.0000
# 4 0.0000 0.0000 0.0000 28.4999 0.0000 0.0000
# 5 0.0000 0.0000 0.0000 0.0000 28.4999 0.0000
# 6 0.0000 0.0000 0.0000 0.0000 0.0000 8.1655
#
#
#
# Elastic Compliance Matrix: (Units=1/GPa)
#
#
# Indices 1 2 3 4 5 6 
#
# 1 0.017637 -0.010314 -0.001936 0.000000 0.000000 0.000000
# 2 -0.010314 0.017637 -0.001936 0.000000 0.000000 0.000000
# 3 -0.001936 -0.001936 0.006447 0.000000 0.000000 0.000000
# 4 0.000000 0.000000 0.000000 0.035088 0.000000 0.000000
# 5 0.000000 0.000000 0.000000 0.000000 0.035088 0.000000
# 6 0.000000 0.000000 0.000000 0.000000 0.000000 0.122466
#
#
# Mechanical properties :
#
#
# Convention : Reuss Voigt Hill
#
# Bulk Modulus (GPa) = 74.91433 78.22879 76.57156
# Shear Modulus (GPa) = 18.71370 27.81485 23.26427
#
# Velocity S-wave (km/s) = 3.07781 3.75232 3.43168
# Velocity P-wave (km/s) = 7.11002 7.64021 7.37988
#
# Compressibility (1/GPa) = 0.01334858
#
# Stress axis : x y z
#
# Youngs Moduli (GPa) = 56.69937 56.69936 155.11292
#
# Poissons Ratio (x) = 0.58480 0.30030
# Poissons Ratio (y) = 0.58480 0.30030
# Poissons Ratio (z) = 0.10977 0.10977
#
# Static dielectric constant tensor:
#      x y z
#    x 1.683590 0.000000 0.000000 
#    y 0.000000 1.683590 0.000000 
#    z 0.000000 0.000000 1.751380 
# 
# From -- ./inp_files/8350.got.cif
#   From: 2010.05.17/outbox.cif.g08.bks.cpg/sg142_5_cif.got.tgz:8350.got - 2010.05.20 13:39:18.
