data_PCOD9574556
_publ_section_title
;
Structure prediction by ZEFSAII (Michael W. Deem and Ramdas Pophale) SiO2 
 PCOD9574556
Probable space group: P 32
;
_chemical_formula_sum "Si O2"
_cell_formula_units_Z 18
_cell_length_a 9.250680
_cell_length_b 9.250680
_cell_length_c 9.799628
_cell_angle_alpha 90.000000
_cell_angle_beta 90.000000
_cell_angle_gamma 120.000000
_cell_volume 726.252328
_symmetry_space_group_name_H-M "P 32"
_symmetry_group_IT_number 145
_symmetry_cell_setting 'hexagonal'
loop_
_space_group_symop_operation_xyz
x,y,z
-y,x-y,2/3+z
-x+y,-x,1/3+z
loop_
_atom_site_type_symbol
_atom_site_label
_atom_site_fract_x
_atom_site_fract_y
_atom_site_fract_z
Si Si1 0.308984 0.838876 0.772580
Si Si2 0.523135 0.680854 0.426620
Si Si3 0.840395 0.307758 0.939807
Si Si4 0.963816 0.810004 0.790555
Si Si5 0.819391 0.036305 0.442539
Si Si6 0.531850 0.183177 0.764897
O O1 0.333862 0.884807 0.933217
O O2 0.307125 0.666417 0.765166
O O3 0.122606 0.798226 0.734906
O O4 0.439987 0.002317 0.692076
O O5 0.560392 0.558851 0.518409
O O6 0.657150 0.864406 0.474842
O O7 0.686782 0.189246 0.842155
O O8 0.889054 0.196638 0.034560
O O9 0.752416 0.393552 0.021558
O O10 0.934055 0.751687 0.946741
O O11 0.041262 0.010457 0.798726
O O12 0.820956 0.194935 0.510250
#
# Coordination Sequence:
#
# PCOD9574556 Si02
#       6
#     3   3   3   3   3   3
#     4  10  22  41  63  95 136 178 225 294 360 429
#     4  11  23  43  69  96 137 182 236 299 366 431
#     4  12  23  41  68  99 134 185 239 300 357 428
#     4  10  21  40  65  94 133 174 225 288 355 423
#     4  10  22  42  66  96 132 179 232 292 361 437
#     4  11  23  39  63  92 132 180 235 287 357 428
#
# _framework density 24.784773000000001
#
# number of rings (size 3 to 8) (size 9 to 14) (size 15 to 20)
#    0.000    1.333    0.000    7.000    0.000    1.333 
#    0.000   11.667    0.000    0.000    0.000    0.000 
#    0.000    0.000    0.000    0.000    0.000    0.000 
#
# Total GULP energy -100602.339766 kJ/mol
# GULP energy per Si atom -5589.018876 kJ/mol
# Density = 2.472836 g / cm^3
# Si number density = 24.784773 Si / 1000 Ang^3
#
#
#
# Elastic Constant Matrix: (Units=GPa)
#
#
# Indices 1 2 3 4 5 6 
#
# 1 129.7315 33.0979 9.0633 6.0483 1.1860 0.0000
# 2 33.0979 129.7315 9.0633 -6.0483 -1.1860 0.0000
# 3 9.0633 9.0633 30.8333 0.0000 0.0000 0.0000
# 4 6.0483 -6.0483 0.0000 26.2589 0.0000 -1.1860
# 5 1.1860 -1.1860 0.0000 0.0000 26.2589 6.0483
# 6 0.0000 0.0000 0.0000 -1.1860 6.0483 48.3168
#
#
#
# Elastic Compliance Matrix: (Units=1/GPa)
#
#
# Indices 1 2 3 4 5 6 
#
# 1 0.008508 -0.002159 -0.001866 -0.002457 -0.000482 0.000000
# 2 -0.002159 0.008508 -0.001866 0.002457 0.000482 0.000000
# 3 -0.001866 -0.001866 0.033530 0.000000 0.000000 0.000000
# 4 -0.002457 0.002457 0.000000 0.039258 0.000000 0.000964
# 5 -0.000482 0.000482 0.000000 0.000000 0.039258 -0.004914
# 6 0.000000 0.000000 0.000000 0.000964 -0.004914 0.021336
#
#
# Mechanical properties :
#
#
# Convention : Reuss Voigt Hill
#
# Bulk Modulus (GPa) = 25.79799 43.63836 34.71817
# Shear Modulus (GPa) = 28.55476 36.10508 32.32992
#
# Velocity S-wave (km/s) = 3.39796 3.82087 3.61560
# Velocity P-wave (km/s) = 5.08195 6.09184 5.60967
#
# Compressibility (1/GPa) = 0.03876272
#
# Stress axis : x y z
#
# Youngs Moduli (GPa) = 117.53002 117.53002 29.82440
#
# Poissons Ratio (x) = 0.25378 0.05566
# Poissons Ratio (y) = 0.25378 0.05566
# Poissons Ratio (z) = 0.21935 0.21935
#
# Static dielectric constant tensor:
#      x y z
#    x 1.996650 0.000000 0.000000 
#    y 0.000000 1.996650 0.000000 
#    z 0.000000 0.000000 2.018430 
# 
# From -- ./inp_files/597.got.cif
#   From: 2010.05.17/outbox.cif.g08.bks.cpg/sg145_cif.got.tgz:597.got - 2010.05.20 13:47:28.
