data_PCOD9574364
_publ_section_title
;
Structure prediction by ZEFSAII (Michael W. Deem and Ramdas Pophale) SiO2 
 PCOD9574364
Probable space group: P 31
;
_chemical_formula_sum "Si O2"
_cell_formula_units_Z 18
_cell_length_a 8.552561
_cell_length_b 8.552561
_cell_length_c 12.448392
_cell_angle_alpha 90.000000
_cell_angle_beta 90.000000
_cell_angle_gamma 120.000000
_cell_volume 788.562732
_symmetry_space_group_name_H-M "P 31"
_symmetry_group_IT_number 144
_symmetry_cell_setting 'hexagonal'
loop_
_space_group_symop_operation_xyz
x,y,z
-y,x-y,1/3+z
-x+y,-x,2/3+z
loop_
_atom_site_type_symbol
_atom_site_label
_atom_site_fract_x
_atom_site_fract_y
_atom_site_fract_z
Si Si1 0.126883 0.562137 0.239410
Si Si2 0.068344 0.408472 0.484903
Si Si3 0.085011 0.493269 0.851763
Si Si4 0.272845 0.272338 0.845955
Si Si5 0.434074 0.263512 0.051525
Si Si6 0.841690 0.332534 0.058912
O O1 0.110940 0.484793 0.360151
O O2 0.182289 0.770369 0.217909
O O3 0.312200 0.576677 0.196410
O O4 0.950392 0.445015 0.165442
O O5 0.013966 0.547675 0.532367
O O6 0.884598 0.220719 0.478382
O O7 0.124915 0.330578 0.830889
O O8 0.980147 0.524029 0.757750
O O9 0.966582 0.437772 0.959451
O O10 0.316072 0.180294 0.747440
O O11 0.286746 0.183328 0.955952
O O12 0.637438 0.292613 0.039605
#
# Coordination Sequence:
#
# PCOD9574364 Si02
#       6
#     3   3   3   3   3   3
#     4  11  21  41  65  97 128 179 225 269 343 406
#     4  10  22  38  67  93 131 175 224 271 332 414
#     4  11  24  41  66  96 132 179 221 282 345 410
#     4  10  23  40  66  92 131 174 223 274 337 411
#     4  11  23  43  66  96 130 178 223 281 345 407
#     4  11  21  41  66  94 132 173 228 279 340 406
#
# _framework density 22.826336999999999
#
# number of rings (size 3 to 8) (size 9 to 14) (size 15 to 20)
#    0.000    1.333    3.333    3.000    9.333    0.000 
#    0.000    5.000    0.000    0.000    0.000    0.000 
#    0.000    0.000    0.000    0.000    0.000    0.000 
#
# Total GULP energy -100317.767867 kJ/mol
# GULP energy per Si atom -5573.209326 kJ/mol
# Density = 2.277438 g / cm^3
# Si number density = 22.826337 Si / 1000 Ang^3
#
#
#
# Elastic Constant Matrix: (Units=GPa)
#
#
# Indices 1 2 3 4 5 6 
#
# 1 72.6012 4.4605 9.9774 4.8974 7.1421 0.0000
# 2 4.4605 72.6012 9.9774 -4.8974 -7.1421 0.0000
# 3 9.9774 9.9774 94.9684 0.0000 0.0000 0.0000
# 4 4.8974 -4.8974 0.0000 29.2338 0.0000 -7.1421
# 5 7.1421 -7.1421 0.0000 0.0000 29.2338 4.8974
# 6 0.0000 0.0000 0.0000 -7.1421 4.8974 34.0703
#
#
#
# Elastic Compliance Matrix: (Units=1/GPa)
#
#
# Indices 1 2 3 4 5 6 
#
# 1 0.014605 -0.001265 -0.001401 -0.002659 -0.003877 0.000000
# 2 -0.001265 0.014605 -0.001401 0.002659 0.003877 0.000000
# 3 -0.001401 -0.001401 0.010824 0.000000 0.000000 0.000000
# 4 -0.002659 0.002659 0.000000 0.036992 0.000000 0.007755
# 5 -0.003877 0.003877 0.000000 0.000000 0.036992 -0.005317
# 6 0.000000 0.000000 0.000000 0.007755 -0.005317 0.031741
#
#
# Mechanical properties :
#
#
# Convention : Reuss Voigt Hill
#
# Bulk Modulus (GPa) = 31.35041 32.11126 31.73083
# Shear Modulus (GPa) = 30.38978 32.89130 31.64054
#
# Velocity S-wave (km/s) = 3.65272 3.80008 3.72713
# Velocity P-wave (km/s) = 5.61729 5.77515 5.69677
#
# Compressibility (1/GPa) = 0.03189751
#
# Stress axis : x y z
#
# Youngs Moduli (GPa) = 68.46972 68.46972 92.38475
#
# Poissons Ratio (x) = 0.08665 0.12947
# Poissons Ratio (y) = 0.08665 0.12947
# Poissons Ratio (z) = 0.09596 0.09596
#
# Static dielectric constant tensor:
#      x y z
#    x 1.908590 0.000000 0.000000 
#    y 0.000000 1.908590 0.000000 
#    z 0.000000 0.000000 1.964430 
# 
# From -- ./inp_files/504.got.cif
#   From: 2010.05.17/outbox.cif.g08.bks.cpg/sg144_cif.got.tgz:504.got - 2010.05.20 13:46:34.
