data_PCOD9574182
_publ_section_title
;
Structure prediction by ZEFSAII (Michael W. Deem and Ramdas Pophale) SiO2 
 PCOD9574182
Probable space group: I 41/A C D
;
_chemical_formula_sum "Si O2"
_cell_formula_units_Z 176
_cell_length_a 23.661041
_cell_length_b 23.661041
_cell_length_c 13.697176
_cell_angle_alpha 90.000000
_cell_angle_beta 90.000000
_cell_angle_gamma 90.000000
_cell_volume 7668.293597
_symmetry_space_group_name_H-M "I 41/A C D"
_symmetry_group_IT_number 142
_space_group.IT_coordinate_system_code '2'
_symmetry_cell_setting 'tetragonal'
loop_
_space_group_symop_operation_xyz
x,y,z
1/4-y,3/4+x,1/4+z
-x,1/2-y,z
1/4+y,1/4-x,3/4+z
x,-y,1/2-z
1/2-x,y,-z
3/4+y,1/4+x,1/4-z
1/4-y,1/4-x,1/4-z
-x,-y,-z
3/4+y,1/4-x,3/4-z
x,1/2+y,-z
3/4-y,3/4+x,1/4-z
-x,y,1/2+z
1/2+x,-y,z
1/4-y,3/4-x,3/4+z
3/4+y,3/4+x,3/4+z
1/2+x,1/2+y,1/2+z
3/4-y,1/4+x,3/4+z
1/2-x,-y,1/2+z
3/4+y,3/4-x,1/4+z
1/2+x,1/2-y,-z
-x,1/2+y,1/2-z
1/4+y,3/4+x,3/4-z
3/4-y,3/4-x,3/4-z
1/2-x,1/2-y,1/2-z
1/4+y,3/4-x,1/4-z
1/2+x,y,1/2-z
1/4-y,1/4+x,3/4-z
1/2-x,1/2+y,z
x,1/2-y,1/2+z
3/4-y,1/4-x,1/4+z
1/4+y,1/4+x,1/4+z
loop_
_atom_site_type_symbol
_atom_site_label
_atom_site_fract_x
_atom_site_fract_y
_atom_site_fract_z
Si Si1 0.548375 0.685586 0.332201
Si Si2 0.789539 0.705194 0.803618
Si Si3 0.186636 0.617470 0.969158
Si Si4 0.524004 0.863903 0.158107
Si Si5 0.898493 0.000000 0.250000
Si Si6 0.358912 0.594307 0.426321
O O1 0.500986 0.683669 0.416947
O O2 0.518595 0.660648 0.237767
O O3 0.601610 0.647164 0.348085
O O4 0.750000 0.750000 0.750000
O O5 0.847901 0.736615 0.834904
O O6 0.802464 0.651634 0.733081
O O7 0.758629 0.685625 0.902914
O O8 0.171013 0.578988 0.875000
O O9 0.154795 0.676945 0.951225
O O10 0.250000 0.632592 0.000000
O O11 0.169889 0.585900 0.068966
O O12 0.560083 0.810083 0.125000
O O13 0.861247 0.943741 0.241997
#
# Coordination Sequence:
#
# PCOD9574182 Si02
#       6
#    32  32  32  32  16  32
#     4  11  25  43  70 111 160 198 248 316 402 491
#     4  12  30  50  83 115 162 211 275 344 410 495
#     4  11  27  51  79 112 149 204 267 333 399 480
#     4  11  26  45  74 112 158 202 261 327 411 489
#     4  12  30  52  78 116 156 220 264 332 410 480
#     4  12  28  52  79 115 162 206 275 333 412 486
#
# _framework density 22.951650999999998
#
# number of rings (size 3 to 8) (size 9 to 14) (size 15 to 20)
#    0.000    0.545    3.636    1.636   19.091    0.000 
#    1.636    0.909    0.000    0.000    0.000    0.000 
#    0.000    0.000    0.000    0.000    0.000    0.000 
#
# Total GULP energy -492086.031665 kJ/mol
# GULP energy per Si atom -5591.886723 kJ/mol
# Density = 2.289941 g / cm^3
# Si number density = 22.951651 Si / 1000 Ang^3
#
#
#
# Elastic Constant Matrix: (Units=GPa)
#
#
# Indices 1 2 3 4 5 6 
#
# 1 77.0038 3.7637 51.2156 0.0000 0.0000 0.0000
# 2 3.7637 77.0075 51.2163 0.0000 0.0000 0.0000
# 3 51.2156 51.2163 168.7587 0.0000 0.0000 0.0000
# 4 0.0000 0.0000 0.0000 21.6578 0.0000 0.0000
# 5 0.0000 0.0000 0.0000 0.0000 21.6587 0.0000
# 6 0.0000 0.0000 0.0000 0.0000 0.0000 36.8684
#
#
#
# Elastic Compliance Matrix: (Units=1/GPa)
#
#
# Indices 1 2 3 4 5 6 
#
# 1 0.016891 0.003237 -0.006109 0.000000 0.000000 0.000000
# 2 0.003237 0.016890 -0.006108 0.000000 0.000000 0.000000
# 3 -0.006109 -0.006108 0.009633 0.000000 0.000000 0.000000
# 4 0.000000 0.000000 0.000000 0.046173 0.000000 0.000000
# 5 0.000000 0.000000 0.000000 0.000000 0.046171 0.000000
# 6 0.000000 0.000000 0.000000 0.000000 0.000000 0.027123
#
#
# Mechanical properties :
#
#
# Convention : Reuss Voigt Hill
#
# Bulk Modulus (GPa) = 39.28524 59.46233 49.37379
# Shear Modulus (GPa) = 26.40948 30.47529 28.44238
#
# Velocity S-wave (km/s) = 3.39581 3.64786 3.52409
# Velocity P-wave (km/s) = 5.70343 6.61108 6.17396
#
# Compressibility (1/GPa) = 0.02545485
#
# Stress axis : x y z
#
# Youngs Moduli (GPa) = 59.20303 59.20620 103.80643
#
# Poissons Ratio (x) = -0.19166 0.63411
# Poissons Ratio (y) = -0.19165 0.63409
# Poissons Ratio (z) = 0.36165 0.36165
#
# Static dielectric constant tensor:
#      x y z
#    x 1.867770 0.000000 0.000000 
#    y 0.000000 1.867760 0.000000 
#    z 0.000000 0.000000 1.973810 
# 
# From -- ./inp_files/5538.got.cif
#   From: 2010.05.17/outbox.cif.g08.bks.cpg/sg142_3_cif.got.tgz:5538.got - 2010.05.20 13:39:18.
