data_PCOD9574902
_publ_section_title
;
Structure prediction by ZEFSAII (Michael W. Deem and Ramdas Pophale) SiO2 
 PCOD9574902
Probable space group: P -3
;
_chemical_formula_sum "Si O2"
_cell_formula_units_Z 42
_cell_length_a 12.640966
_cell_length_b 12.640966
_cell_length_c 18.314327
_cell_angle_alpha 90.000000
_cell_angle_beta 90.000000
_cell_angle_gamma 120.000000
_cell_volume 2534.440631
_symmetry_space_group_name_H-M "P -3"
_symmetry_group_IT_number 147
_symmetry_cell_setting 'hexagonal'
loop_
_space_group_symop_operation_xyz
x,y,z
-y,x-y,z
-x+y,-x,z
-x,-y,-z
y,-x+y,-z
x-y,x,-z
loop_
_atom_site_type_symbol
_atom_site_label
_atom_site_fract_x
_atom_site_fract_y
_atom_site_fract_z
Si Si1 0.415176 0.081683 0.428230
Si Si2 0.000001 0.251575 0.000000
Si Si3 0.415165 0.082251 0.143298
Si Si4 0.999643 0.748421 0.285142
Si Si5 0.332914 0.917748 0.856703
Si Si6 0.000357 0.748778 0.714857
Si Si7 0.081683 0.415177 0.571770
O O1 0.428455 0.214228 0.437515
O O2 0.546838 0.093676 0.416988
O O3 0.330125 0.019885 0.358008
O O4 0.356044 0.000001 0.500001
O O5 0.976964 0.311903 0.070982
O O6 0.119301 0.238601 0.010338
O O7 0.023037 0.334940 0.929019
O O8 0.537871 0.075743 0.142515
O O9 0.445228 0.222614 0.145775
O O10 0.333978 0.017441 0.214467
O O11 0.982560 0.666023 0.214466
O O12 0.888992 0.777983 0.282706
O O13 0.980115 0.669873 0.358006
O O14 0.128566 0.871434 0.284958
#
# Coordination Sequence:
#
# PCOD9574902 Si02
#       7
#     6   6   6   6   6   6   6
#     4  10  20  34  53  76 103 135 170 208 250 298
#     4  10  20  34  54  78 104 134 168 208 252 298
#     4  10  20  34  53  76 103 135 170 208 250 298
#     4  10  20  34  53  76 102 132 167 209 255 301
#     4  10  20  34  53  76 103 135 170 208 250 298
#     4  10  20  34  53  76 102 132 167 209 255 301
#     4  10  20  34  53  76 103 135 170 208 250 298
#
# _framework density 16.571704
#
# number of rings (size 3 to 8) (size 9 to 14) (size 15 to 20)
#    0.000    2.000    0.000    4.000    0.000    0.000 
#    0.000    5.714    0.000   18.286    0.000    0.000 
#    0.000    0.000    0.000    0.000    0.000    0.000 
#
# Total GULP energy -234525.027666 kJ/mol
# GULP energy per Si atom -5583.929230 kJ/mol
# Density = 1.653399 g / cm^3
# Si number density = 16.571704 Si / 1000 Ang^3
#
#
#
# Elastic Constant Matrix: (Units=GPa)
#
#
# Indices 1 2 3 4 5 6 
#
# 1 151.4068 112.0852 102.9611 -3.0852 0.0000 0.0000
# 2 112.0852 151.4068 102.9611 3.0852 0.0000 0.0000
# 3 102.9611 102.9611 161.5042 0.0000 0.0000 0.0000
# 4 -3.0852 3.0852 0.0000 21.9668 0.0000 0.0000
# 5 0.0000 0.0000 0.0000 0.0000 21.9668 -3.0852
# 6 0.0000 0.0000 0.0000 0.0000 -3.0852 19.6608
#
#
#
# Elastic Compliance Matrix: (Units=1/GPa)
#
#
# Indices 1 2 3 4 5 6 
#
# 1 0.016784 -0.009220 -0.004822 0.003652 0.000000 0.000000
# 2 -0.009220 0.016784 -0.004822 -0.003652 0.000000 0.000000
# 3 -0.004822 -0.004822 0.012340 0.000000 0.000000 0.000000
# 4 0.003652 -0.003652 0.000000 0.046549 0.000000 0.000000
# 5 0.000000 0.000000 0.000000 0.000000 0.046549 0.007304
# 6 0.000000 0.000000 0.000000 0.000000 0.007304 0.052009
#
#
# Mechanical properties :
#
#
# Convention : Reuss Voigt Hill
#
# Bulk Modulus (GPa) = 122.25798 122.25919 122.25858
# Shear Modulus (GPa) = 21.60113 22.47292 22.03702
#
# Velocity S-wave (km/s) = 3.61431 3.68652 3.65060
# Velocity P-wave (km/s) = 9.55787 9.59462 9.57626
#
# Compressibility (1/GPa) = 0.00817943
#
# Stress axis : x y z
#
# Youngs Moduli (GPa) = 59.58065 59.58065 81.03882
#
# Poissons Ratio (x) = 0.54936 0.39076
# Poissons Ratio (y) = 0.54936 0.39076
# Poissons Ratio (z) = 0.28729 0.28729
#
# Static dielectric constant tensor:
#      x y z
#    x 1.523370 0.000000 0.000000 
#    y 0.000000 1.523370 0.000000 
#    z 0.000000 0.000000 1.541260 
# 
# From -- ./inp_files/1044.got.cif
#   From: 2010.05.17/outbox.cif.g08.bks.cpg/sg147_cif.got.tgz:1044.got - 2010.05.20 13:49:32.
