data_PCOD9574766
_publ_section_title
;
Structure prediction by ZEFSAII (Michael W. Deem and Ramdas Pophale) SiO2 
 PCOD9574766
Probable space group: R 3
;
_chemical_formula_sum "Si O2"
_cell_formula_units_Z 51
_cell_length_a 11.143611
_cell_length_b 11.143611
_cell_length_c 19.045255
_cell_angle_alpha 90.000000
_cell_angle_beta 90.000000
_cell_angle_gamma 120.000000
_cell_volume 2048.185609
_symmetry_space_group_name_H-M "R 3"
_symmetry_group_IT_number 146
_symmetry_cell_setting 'hexagonal'
loop_
_space_group_symop_operation_xyz
x,y,z
-y,x-y,z
-x+y,-x,z
2/3+x,1/3+y,1/3+z
2/3-y,1/3+x-y,1/3+z
2/3-x+y,1/3-x,1/3+z
1/3+x,2/3+y,2/3+z
1/3-y,2/3+x-y,2/3+z
1/3-x+y,2/3-x,2/3+z
loop_
_atom_site_type_symbol
_atom_site_label
_atom_site_fract_x
_atom_site_fract_y
_atom_site_fract_z
Si Si1 0.714945 0.917168 0.559030
Si Si2 0.946053 0.445888 0.089796
Si Si3 0.666668 0.333335 0.869768
Si Si4 0.500065 0.516819 0.502490
Si Si5 0.333334 0.666668 0.034141
Si Si6 0.251582 0.879561 0.987740
Si Si7 0.777073 0.052282 0.036746
O O1 0.716076 0.836338 0.489694
O O2 0.609890 0.968813 0.534431
O O3 0.645844 0.840895 0.631270
O O4 0.877307 0.022222 0.567747
O O5 0.824319 0.309522 0.129933
O O6 0.938789 0.576968 0.058410
O O7 0.010590 0.393863 0.031104
O O8 0.666668 0.333334 0.785186
O O9 0.594508 0.569731 0.571032
O O10 0.538377 0.448920 0.438271
O O11 0.248581 0.735672 0.004136
O O12 0.101908 0.844561 0.017814
#
# Coordination Sequence:
#
# PCOD9574766 Si02
#       7
#     9   9   3   9   3   9   9
#     4  10  24  42  69 105 138 182 231 300 353 412
#     4  11  23  42  72 100 138 187 230 292 360 416
#     4  12  21  39  78 114 132 172 242 319 348 399
#     4  10  25  42  61 100 145 183 225 280 357 431
#     4  12  18  39  63 102 135 172 233 298 354 396
#     4  11  22  41  69  99 139 180 233 295 349 417
#     4  10  23  45  66 102 139 174 244 290 349 425
#
# _framework density 24.900086999999999
#
# number of rings (size 3 to 8) (size 9 to 14) (size 15 to 20)
#    0.000    1.412    3.529    1.059    4.941    1.412 
#    8.471    0.000    0.000    0.706    0.000    0.000 
#    0.000    0.000    0.000    0.000    0.000    0.000 
#
# Total GULP energy -94763.395389 kJ/mol
# GULP energy per Si atom -5574.317376 kJ/mol
# Density = 2.484341 g / cm^3
# Si number density = 24.900087 Si / 1000 Ang^3
#
#
#
# Elastic Constant Matrix: (Units=GPa)
#
#
# Indices 1 2 3 4 5 6 
#
# 1 66.8594 9.5756 24.6688 -4.3030 -4.6683 0.0000
# 2 9.5756 66.8588 24.6691 4.3031 4.6685 0.0004
# 3 24.6688 24.6691 207.1254 -0.0004 -0.0001 -0.0004
# 4 -4.3030 4.3031 -0.0004 39.9982 0.0001 4.6683
# 5 -4.6683 4.6685 -0.0001 0.0001 39.9985 -4.3027
# 6 0.0000 0.0004 -0.0004 4.6683 -4.3027 28.6420
#
#
#
# Elastic Compliance Matrix: (Units=1/GPa)
#
#
# Indices 1 2 3 4 5 6 
#
# 1 0.016133 -0.001961 -0.001688 0.001946 0.002112 0.000000
# 2 -0.001961 0.016133 -0.001688 -0.001947 -0.002112 0.000000
# 3 -0.001688 -0.001688 0.005230 0.000000 0.000000 0.000000
# 4 0.001946 -0.001947 0.000000 0.025913 0.000000 -0.004223
# 5 0.002112 -0.002112 0.000000 0.000000 0.025913 0.003893
# 6 0.000000 0.000000 0.000000 -0.004223 0.003893 0.036187
#
#
# Mechanical properties :
#
#
# Convention : Reuss Voigt Hill
#
# Bulk Modulus (GPa) = 37.28085 50.96340 44.12213
# Shear Modulus (GPa) = 34.45355 40.52309 37.48832
#
# Velocity S-wave (km/s) = 3.72381 4.03852 3.88435
# Velocity P-wave (km/s) = 5.78737 6.50059 6.15432
#
# Compressibility (1/GPa) = 0.02682342
#
# Stress axis : x y z
#
# Youngs Moduli (GPa) = 61.98457 61.98376 191.20181
#
# Poissons Ratio (x) = 0.12152 0.32274
# Poissons Ratio (y) = 0.12152 0.32275
# Poissons Ratio (z) = 0.10463 0.10463
#
# Static dielectric constant tensor:
#      x y z
#    x 2.058730 0.000000 0.000000 
#    y 0.000000 2.058730 0.000000 
#    z 0.000000 0.000000 1.962360 
# 
# From -- ./inp_files/1981.got.cif
#   From: 2010.05.17/outbox.cif.g08.bks.cpg/sg146_cif.got.tgz:1981.got - 2010.05.20 13:48:23.
