data_PCOD9574732
_publ_section_title
;
Structure prediction by ZEFSAII (Michael W. Deem and Ramdas Pophale) SiO2 
 PCOD9574732
Probable space group: R 3
;
_chemical_formula_sum "Si O2"
_cell_formula_units_Z 51
_cell_length_a 11.200816
_cell_length_b 11.200816
_cell_length_c 21.628371
_cell_angle_alpha 90.000000
_cell_angle_beta 90.000000
_cell_angle_gamma 120.000000
_cell_volume 2349.923737
_symmetry_space_group_name_H-M "R 3"
_symmetry_group_IT_number 146
_symmetry_cell_setting 'hexagonal'
loop_
_space_group_symop_operation_xyz
x,y,z
-y,x-y,z
-x+y,-x,z
2/3+x,1/3+y,1/3+z
2/3-y,1/3+x-y,1/3+z
2/3-x+y,1/3-x,1/3+z
1/3+x,2/3+y,2/3+z
1/3-y,2/3+x-y,2/3+z
1/3-x+y,2/3-x,2/3+z
loop_
_atom_site_type_symbol
_atom_site_label
_atom_site_fract_x
_atom_site_fract_y
_atom_site_fract_z
Si Si1 0.666668 0.333334 0.330345
Si Si2 0.509821 0.979854 0.522430
Si Si3 0.999560 0.733937 0.615744
Si Si4 0.841290 0.405890 0.755836
Si Si5 0.995060 0.757446 0.063423
Si Si6 0.666668 0.333334 0.182642
Si Si7 0.097572 0.419842 0.222801
O O1 0.621865 0.186217 0.358227
O O2 0.666668 0.333334 0.257412
O O3 0.605064 0.000583 0.581878
O O4 0.440770 0.822531 0.498637
O O5 0.606063 0.071997 0.466265
O O6 0.382855 0.002801 0.539702
O O7 0.025588 0.737495 0.688463
O O8 0.853984 0.722953 0.603945
O O9 0.123617 0.867728 0.582119
O O10 0.751881 0.480754 0.740020
O O11 0.864802 0.390951 0.828103
O O12 0.991640 0.506277 0.729590
#
# Coordination Sequence:
#
# PCOD9574732 Si02
#       7
#     3   9   9   9   9   3   9
#     4  12  24  48  69 102 144 195 226 287 367 426
#     4  12  25  45  70 105 137 186 231 289 347 423
#     4  12  26  46  71 106 137 189 233 289 363 409
#     4  10  21  43  72  94 133 187 229 273 353 413
#     4  12  26  43  72 107 139 181 242 285 351 424
#     4  12  24  48  75  96 150 189 223 287 373 417
#     4  12  22  47  75  94 144 183 234 290 342 426
#
# _framework density 21.702831
#
# number of rings (size 3 to 8) (size 9 to 14) (size 15 to 20)
#    0.353    0.000    7.059    1.412    0.000    2.824 
#    1.059    0.000    0.000    0.000    0.000    0.000 
#    0.000    0.000    0.000    0.000    0.000    0.000 
#
# Total GULP energy -94913.456451 kJ/mol
# GULP energy per Si atom -5583.144497 kJ/mol
# Density = 2.165343 g / cm^3
# Si number density = 21.702831 Si / 1000 Ang^3
#
#
#
# Elastic Constant Matrix: (Units=GPa)
#
#
# Indices 1 2 3 4 5 6 
#
# 1 79.8399 25.3416 11.9941 4.7628 13.4587 0.0008
# 2 25.3416 79.8404 11.9931 -4.7622 -13.4596 0.0013
# 3 11.9941 11.9931 70.4780 -0.0005 -0.0001 -0.0001
# 4 4.7628 -4.7622 -0.0005 19.1096 -0.0010 -13.4587
# 5 13.4587 -13.4596 -0.0001 -0.0010 19.1114 4.7613
# 6 0.0008 0.0013 -0.0001 -13.4587 4.7613 27.2498
#
#
#
# Elastic Compliance Matrix: (Units=1/GPa)
#
#
# Indices 1 2 3 4 5 6 
#
# 1 0.020021 -0.010130 -0.001684 -0.007518 -0.021233 -0.000003
# 2 -0.010130 0.020021 -0.001683 0.007516 0.021234 0.000001
# 3 -0.001684 -0.001683 0.014762 0.000001 0.000000 0.000001
# 4 -0.007518 0.007516 0.000001 0.085985 0.000012 0.042466
# 5 -0.021233 0.021234 0.000000 0.000012 0.085973 -0.015016
# 6 -0.000003 0.000001 0.000001 0.042466 -0.015016 0.060295
#
#
# Mechanical properties :
#
#
# Convention : Reuss Voigt Hill
#
# Bulk Modulus (GPa) = 35.95672 36.53509 36.24590
# Shear Modulus (GPa) = 15.46458 25.14945 20.30701
#
# Velocity S-wave (km/s) = 2.67228 3.40782 3.06222
# Velocity P-wave (km/s) = 5.11128 5.68816 5.40742
#
# Compressibility (1/GPa) = 0.02781122
#
# Stress axis : x y z
#
# Youngs Moduli (GPa) = 49.94777 49.94774 67.74277
#
# Poissons Ratio (x) = 0.50596 0.11405
# Poissons Ratio (y) = 0.50596 0.11401
# Poissons Ratio (z) = 0.08409 0.08406
#
# Static dielectric constant tensor:
#      x y z
#    x 1.815860 0.000000 0.000000 
#    y 0.000000 1.815860 0.000000 
#    z 0.000000 0.000000 1.746160 
# 
# From -- ./inp_files/1921.got.cif
#   From: 2010.05.17/outbox.cif.g08.bks.cpg/sg146_cif.got.tgz:1921.got - 2010.05.20 13:48:23.
