data_PCOD9574343
_publ_section_title
;
Structure prediction by ZEFSAII (Michael W. Deem and Ramdas Pophale) SiO2 
 PCOD9574343
Probable space group: P 31
;
_chemical_formula_sum "Si O2"
_cell_formula_units_Z 12
_cell_length_a 8.435756
_cell_length_b 8.435756
_cell_length_c 8.382719
_cell_angle_alpha 90.000000
_cell_angle_beta 90.000000
_cell_angle_gamma 120.000000
_cell_volume 516.610893
_symmetry_space_group_name_H-M "P 31"
_symmetry_group_IT_number 144
_symmetry_cell_setting 'hexagonal'
loop_
_space_group_symop_operation_xyz
x,y,z
-y,x-y,1/3+z
-x+y,-x,2/3+z
loop_
_atom_site_type_symbol
_atom_site_label
_atom_site_fract_x
_atom_site_fract_y
_atom_site_fract_z
Si Si1 0.992526 0.384651 0.264360
Si Si2 0.674141 0.725458 0.078703
Si Si3 0.274542 0.325859 0.431027
Si Si4 0.992526 0.607875 0.578703
O O1 0.980643 0.490321 0.421532
O O2 0.807925 0.192075 0.254865
O O3 0.162553 0.352178 0.289419
O O4 0.018845 0.522958 0.122752
O O5 0.858742 0.717483 0.088198
O O6 0.647822 0.837447 0.220311
O O7 0.686024 0.843012 0.921532
O O8 0.504113 0.522958 0.053644
#
# Coordination Sequence:
#
# PCOD9574343 Si02
#       4
#     3   3   3   3
#     4  10  21  40  63  91 123 161 207 255 308 367
#     4  10  21  40  63  91 123 161 207 255 308 367
#     4  10  21  40  63  91 123 161 207 255 308 367
#     4  10  21  40  63  91 123 161 207 255 308 367
#
# _framework density 23.228314000000001
#
# number of rings (size 3 to 8) (size 9 to 14) (size 15 to 20)
#    0.000    2.000    0.000    3.000    0.000    0.000 
#    0.000   85.000    0.000    0.000    0.000    0.000 
#    0.000    0.000    0.000    0.000    0.000    0.000 
#
# Total GULP energy -67217.537663 kJ/mol
# GULP energy per Si atom -5601.461472 kJ/mol
# Density = 2.317545 g / cm^3
# Si number density = 23.228314 Si / 1000 Ang^3
#
#
#
# Elastic Constant Matrix: (Units=GPa)
#
#
# Indices 1 2 3 4 5 6 
#
# 1 233.2046 148.6435 50.8075 0.0000 0.0000 0.0000
# 2 148.6435 233.2046 50.8075 0.0000 0.0000 0.0000
# 3 50.8075 50.8075 57.3749 0.0000 0.0000 0.0000
# 4 0.0000 0.0000 0.0000 19.7297 0.0000 0.0000
# 5 0.0000 0.0000 0.0000 0.0000 19.7297 0.0000
# 6 0.0000 0.0000 0.0000 0.0000 0.0000 42.2805
#
#
#
# Elastic Compliance Matrix: (Units=1/GPa)
#
#
# Indices 1 2 3 4 5 6 
#
# 1 0.007626 -0.004200 -0.003034 0.000000 0.000000 0.000000
# 2 -0.004200 0.007626 -0.003034 0.000000 0.000000 0.000000
# 3 -0.003034 -0.003034 0.022803 0.000000 0.000000 0.000000
# 4 0.000000 0.000000 0.000000 0.050685 0.000000 0.000000
# 5 0.000000 0.000000 0.000000 0.000000 0.050685 0.000000
# 6 0.000000 0.000000 0.000000 0.000000 0.000000 0.023652
#
#
# Mechanical properties :
#
#
# Convention : Reuss Voigt Hill
#
# Bulk Modulus (GPa) = 57.08091 113.81125 85.44608
# Shear Modulus (GPa) = 26.39198 34.58304 30.48751
#
# Velocity S-wave (km/s) = 3.37441 3.86272 3.62680
# Velocity P-wave (km/s) = 6.30947 8.30646 7.37586
#
# Compressibility (1/GPa) = 0.01751899
#
# Stress axis : x y z
#
# Youngs Moduli (GPa) = 131.13018 131.13018 43.85436
#
# Poissons Ratio (x) = 0.55072 0.13306
# Poissons Ratio (y) = 0.55072 0.13306
# Poissons Ratio (z) = 0.39786 0.39786
#
# Static dielectric constant tensor:
#      x y z
#    x 1.808300 0.000000 0.000000 
#    y 0.000000 1.808300 0.000000 
#    z 0.000000 0.000000 2.006330 
# 
# From -- ./inp_files/199.got.cif
#   From: 2010.05.17/outbox.cif.g08.bks.cpg/sg144_cif.got.tgz:199.got - 2010.05.20 13:46:34.
