data_PCOD9574987
_publ_section_title
;
Structure prediction by ZEFSAII (Michael W. Deem and Ramdas Pophale) SiO2 
 PCOD9574987
Probable space group: P -3
;
_chemical_formula_sum "Si O2"
_cell_formula_units_Z 36
_cell_length_a 18.549944
_cell_length_b 18.549944
_cell_length_c 9.482396
_cell_angle_alpha 90.000000
_cell_angle_beta 90.000000
_cell_angle_gamma 120.000000
_cell_volume 2825.751232
_symmetry_space_group_name_H-M "P -3"
_symmetry_group_IT_number 147
_symmetry_cell_setting 'hexagonal'
loop_
_space_group_symop_operation_xyz
x,y,z
-y,x-y,z
-x+y,-x,z
-x,-y,-z
y,-x+y,-z
x-y,x,-z
loop_
_atom_site_type_symbol
_atom_site_label
_atom_site_fract_x
_atom_site_fract_y
_atom_site_fract_z
Si Si1 0.496667 0.163946 0.832404
Si Si2 0.836054 0.332721 0.167596
Si Si3 0.587630 0.587630 0.337759
Si Si4 0.587630 0.587630 0.662241
Si Si5 0.332721 0.836054 0.167596
Si Si6 0.667279 0.163946 0.167596
O O1 0.432571 0.083583 0.744340
O O2 0.589345 0.178690 0.805732
O O3 0.493292 0.246646 0.797924
O O4 0.481178 0.147493 1.000000
O O5 0.916417 0.348988 0.255660
O O6 0.753354 0.246646 0.202076
O O7 0.821310 0.410655 0.194268
O O8 0.611321 0.611321 0.500000
O O9 0.500000 0.500000 0.336570
O O10 0.567429 0.651012 0.255660
O O11 0.567429 0.651012 0.744340
O O12 0.333685 0.852507 0.000000
#
# Coordination Sequence:
#
# PCOD9574987 Si02
#       6
#     6   6   6   6   6   6
#     4   9  16  26  40  56  73  95 125 159 191 222
#     4   9  16  26  40  56  73  95 125 159 191 222
#     4   9  17  27  37  51  73  99 124 151 186 225
#     4   9  17  27  37  51  73  99 124 151 186 225
#     4   9  16  26  40  56  73  95 125 159 191 222
#     4   9  16  26  40  56  73  95 125 159 191 222
#
# _framework density 12.739974
#
# number of rings (size 3 to 8) (size 9 to 14) (size 15 to 20)
#    0.000    3.000    0.000    1.667    0.000    8.000 
#    0.000    0.000    0.000    4.000    0.000    0.000 
#    0.000    0.000    0.000    1.000    0.000   19.333 
#
# Total GULP energy -200468.006414 kJ/mol
# GULP energy per Si atom -5568.555734 kJ/mol
# Density = 1.271098 g / cm^3
# Si number density = 12.739974 Si / 1000 Ang^3
#
#
#
# Elastic Constant Matrix: (Units=GPa)
#
#
# Indices 1 2 3 4 5 6 
#
# 1 89.1789 49.9638 60.9282 0.0000 0.0000 0.0000
# 2 49.9638 89.1789 60.9282 0.0000 0.0000 0.0000
# 3 60.9282 60.9282 70.6537 0.0000 0.0000 0.0000
# 4 0.0000 0.0000 0.0000 13.3150 0.0000 0.0000
# 5 0.0000 0.0000 0.0000 0.0000 13.3150 0.0000
# 6 0.0000 0.0000 0.0000 0.0000 0.0000 19.6075
#
#
#
# Elastic Compliance Matrix: (Units=1/GPa)
#
#
# Indices 1 2 3 4 5 6 
#
# 1 0.027430 0.001930 -0.025319 0.000000 0.000000 0.000000
# 2 0.001930 0.027430 -0.025319 0.000000 0.000000 0.000000
# 3 -0.025319 -0.025319 0.057821 0.000000 0.000000 0.000000
# 4 0.000000 0.000000 0.000000 0.075104 0.000000 0.000000
# 5 0.000000 0.000000 0.000000 0.000000 0.075104 0.000000
# 6 0.000000 0.000000 0.000000 0.000000 0.000000 0.051001
#
#
# Mechanical properties :
#
#
# Convention : Reuss Voigt Hill
#
# Bulk Modulus (GPa) = 65.50443 65.85023 65.67733
# Shear Modulus (GPa) = 12.00789 14.39357 13.20073
#
# Velocity S-wave (km/s) = 3.07341 3.36489 3.22245
# Velocity P-wave (km/s) = 8.00765 8.17904 8.09380
#
# Compressibility (1/GPa) = 0.01526614
#
# Stress axis : x y z
#
# Youngs Moduli (GPa) = 36.45611 36.45611 17.29484
#
# Poissons Ratio (x) = -0.07035 0.43788
# Poissons Ratio (y) = -0.07035 0.43788
# Poissons Ratio (z) = 0.92302 0.92302
#
# Static dielectric constant tensor:
#      x y z
#    x 1.394070 0.000000 0.000000 
#    y 0.000000 1.394070 0.000000 
#    z 0.000000 0.000000 1.426340 
# 
# From -- ./inp_files/581.got.cif
#   From: 2010.05.17/outbox.cif.g08.bks.cpg/sg147_cif.got.tgz:581.got - 2010.05.20 13:49:32.
