data_PCOD9574386
_publ_section_title
;
Structure prediction by ZEFSAII (Michael W. Deem and Ramdas Pophale) SiO2 
 PCOD9574386
Probable space group: P 31
;
_chemical_formula_sum "Si O2"
_cell_formula_units_Z 21
_cell_length_a 9.060101
_cell_length_b 9.060101
_cell_length_c 12.927131
_cell_angle_alpha 90.000000
_cell_angle_beta 90.000000
_cell_angle_gamma 120.000000
_cell_volume 918.964765
_symmetry_space_group_name_H-M "P 31"
_symmetry_group_IT_number 144
_symmetry_cell_setting 'hexagonal'
loop_
_space_group_symop_operation_xyz
x,y,z
-y,x-y,1/3+z
-x+y,-x,2/3+z
loop_
_atom_site_type_symbol
_atom_site_label
_atom_site_fract_x
_atom_site_fract_y
_atom_site_fract_z
Si Si1 0.674633 0.589348 0.924570
Si Si2 0.010149 0.879208 0.552371
Si Si3 0.464276 0.787461 0.199777
Si Si4 0.999579 0.867275 0.046511
Si Si5 0.578278 0.244943 0.042740
Si Si6 0.465636 0.799391 0.705636
Si Si7 0.418616 0.077318 0.827577
O O1 0.512750 0.613970 0.912870
O O2 0.713663 0.542162 0.810269
O O3 0.839174 0.745359 0.974519
O O4 0.612944 0.426276 0.999776
O O5 0.971372 0.915154 0.666810
O O6 0.820583 0.767890 0.505946
O O7 0.100352 0.767020 0.542740
O O8 0.123700 0.054951 0.492135
O O9 0.402083 0.611717 0.260013
O O10 0.389551 0.751515 0.085338
O O11 0.126133 0.792799 0.042740
O O12 0.759610 0.279605 0.085705
O O13 0.504834 0.124504 0.941877
O O14 0.427147 0.921308 0.777627
#
# Coordination Sequence:
#
# PCOD9574386 Si02
#       7
#     3   3   3   3   3   3   3
#     4  11  24  46  77 105 143 188 239 297 358 427
#     4  12  27  46  70 106 143 190 237 303 354 418
#     4  12  27  46  70 106 143 190 237 303 354 418
#     4  12  28  46  72 106 144 192 241 296 356 428
#     4  10  22  44  78 108 140 184 240 290 360 422
#     4  12  28  46  72 106 144 192 241 296 356 428
#     4  11  24  46  77 105 143 188 239 297 358 427
#
# _framework density 22.851800999999998
#
# number of rings (size 3 to 8) (size 9 to 14) (size 15 to 20)
#    0.000    0.571    4.286    3.429    6.000    6.857 
#    0.000    0.000    0.000    0.000    0.000    0.000 
#    0.000    0.000    0.000    0.000    0.000    0.000 
#
# Total GULP energy -117559.987823 kJ/mol
# GULP energy per Si atom -5598.094658 kJ/mol
# Density = 2.279979 g / cm^3
# Si number density = 22.851801 Si / 1000 Ang^3
#
#
#
# Elastic Constant Matrix: (Units=GPa)
#
#
# Indices 1 2 3 4 5 6 
#
# 1 93.8411 20.0432 41.3522 12.4196 0.0002 0.0000
# 2 20.0432 93.8411 41.3522 -12.4196 -0.0002 0.0000
# 3 41.3522 41.3522 88.1183 0.0000 0.0000 0.0000
# 4 12.4196 -12.4196 0.0000 40.6070 0.0000 -0.0002
# 5 0.0002 -0.0002 0.0000 0.0000 40.6070 12.4196
# 6 0.0000 0.0000 0.0000 -0.0002 12.4196 36.8990
#
#
#
# Elastic Compliance Matrix: (Units=1/GPa)
#
#
# Indices 1 2 3 4 5 6 
#
# 1 0.014213 -0.000893 -0.006251 -0.004620 0.000000 0.000000
# 2 -0.000893 0.014213 -0.006251 0.004620 0.000000 0.000000
# 3 -0.006251 -0.006251 0.017215 0.000000 0.000000 0.000000
# 4 -0.004620 0.004620 0.000000 0.027452 0.000000 0.000000
# 5 0.000000 0.000000 0.000000 0.000000 0.027452 -0.009240
# 6 0.000000 0.000000 0.000000 0.000000 -0.009240 0.030211
#
#
# Mechanical properties :
#
#
# Convention : Reuss Voigt Hill
#
# Bulk Modulus (GPa) = 53.04443 53.47729 53.26086
# Shear Modulus (GPa) = 30.51937 35.15945 32.83941
#
# Velocity S-wave (km/s) = 3.65846 3.92674 3.79497
# Velocity P-wave (km/s) = 6.41159 6.63412 6.52381
#
# Compressibility (1/GPa) = 0.01885212
#
# Stress axis : x y z
#
# Youngs Moduli (GPa) = 70.35824 70.35824 58.08773
#
# Poissons Ratio (x) = 0.06280 0.36311
# Poissons Ratio (y) = 0.06280 0.36311
# Poissons Ratio (z) = 0.43981 0.43981
#
# Static dielectric constant tensor:
#      x y z
#    x 1.835760 0.000000 0.000000 
#    y 0.000000 1.835760 0.000000 
#    z 0.000000 0.000000 1.910860 
# 
# From -- ./inp_files/594.got.cif
#   From: 2010.05.17/outbox.cif.g08.bks.cpg/sg144_cif.got.tgz:594.got - 2010.05.20 13:46:34.
