data_PCOD9574797
_publ_section_title
;
Structure prediction by ZEFSAII (Michael W. Deem and Ramdas Pophale) SiO2 
 PCOD9574797
Probable space group: R 3
;
_chemical_formula_sum "Si O2"
_cell_formula_units_Z 63
_cell_length_a 18.660408
_cell_length_b 18.660408
_cell_length_c 10.673015
_cell_angle_alpha 90.000000
_cell_angle_beta 90.000000
_cell_angle_gamma 120.000000
_cell_volume 3218.548232
_symmetry_space_group_name_H-M "R 3"
_symmetry_group_IT_number 146
_symmetry_cell_setting 'hexagonal'
loop_
_space_group_symop_operation_xyz
x,y,z
-y,x-y,z
-x+y,-x,z
2/3+x,1/3+y,1/3+z
2/3-y,1/3+x-y,1/3+z
2/3-x+y,1/3-x,1/3+z
1/3+x,2/3+y,2/3+z
1/3-y,2/3+x-y,2/3+z
1/3-x+y,2/3-x,2/3+z
loop_
_atom_site_type_symbol
_atom_site_label
_atom_site_fract_x
_atom_site_fract_y
_atom_site_fract_z
Si Si1 0.423352 0.851330 0.817000
Si Si2 0.824571 0.716286 0.479858
Si Si3 0.285347 0.946394 0.536517
Si Si4 0.103284 0.166723 0.854104
Si Si5 0.192025 0.073942 0.740360
Si Si6 0.008317 0.462821 0.457457
Si Si7 0.187798 0.096803 0.231486
O O1 0.415024 0.825268 0.668992
O O2 0.479988 0.819115 0.879462
O O3 0.335185 0.798143 0.886559
O O4 0.461053 0.951181 0.827792
O O5 0.740776 0.721665 0.470919
O O6 0.875491 0.776037 0.597574
O O7 0.878236 0.756554 0.355960
O O8 0.250706 0.858483 0.470580
O O9 0.382840 0.978577 0.555641
O O10 0.235377 0.929303 0.663696
O O11 0.156340 0.126973 0.806024
O O12 0.153367 0.264021 0.826032
O O13 0.019517 0.136690 0.771713
O O14 0.916960 0.446173 0.450829
#
# Coordination Sequence:
#
# PCOD9574797 Si02
#       7
#     9   9   9   9   9   9   9
#     4  12  25  45  71 101 135 181 229 283 340 409
#     4  12  24  45  68 102 139 174 234 285 336 400
#     4  11  19  39  69 104 127 173 234 279 322 387
#     4  11  22  43  65  99 132 175 224 279 334 396
#     4  11  25  41  69 101 136 179 223 279 337 408
#     4  11  20  38  69  99 129 173 225 278 330 390
#     4  12  25  43  69  98 140 179 221 283 345 408
#
# _framework density 19.574043
#
# number of rings (size 3 to 8) (size 9 to 14) (size 15 to 20)
#    0.000    0.571    5.714    5.714    0.000    1.143 
#    5.143    0.000    0.000    0.000    0.000    0.000 
#    0.000    0.000    0.000    0.000    0.000    0.000 
#
# Total GULP energy -117105.592045 kJ/mol
# GULP energy per Si atom -5576.456764 kJ/mol
# Density = 1.952949 g / cm^3
# Si number density = 19.574043 Si / 1000 Ang^3
#
#
#
# Elastic Constant Matrix: (Units=GPa)
#
#
# Indices 1 2 3 4 5 6 
#
# 1 113.8953 45.2126 36.9132 -1.2774 -0.2924 0.0000
# 2 45.2126 113.8953 36.9132 1.2774 0.2924 0.0000
# 3 36.9132 36.9132 103.9683 0.0000 0.0000 0.0000
# 4 -1.2774 1.2774 0.0000 27.6314 0.0000 0.2924
# 5 -0.2924 0.2924 0.0000 0.0000 27.6314 -1.2774
# 6 0.0000 0.0000 0.0000 0.2924 -1.2774 34.3414
#
#
#
# Elastic Compliance Matrix: (Units=1/GPa)
#
#
# Indices 1 2 3 4 5 6 
#
# 1 0.011055 -0.003531 -0.002672 0.000674 0.000154 0.000000
# 2 -0.003531 0.011055 -0.002672 -0.000674 -0.000154 0.000000
# 3 -0.002672 -0.002672 0.011515 0.000000 0.000000 0.000000
# 4 0.000674 -0.000674 0.000000 0.036256 0.000000 -0.000309
# 5 0.000154 -0.000154 0.000000 0.000000 0.036256 0.001349
# 6 0.000000 0.000000 0.000000 -0.000309 0.001349 0.029172
#
#
# Mechanical properties :
#
#
# Convention : Reuss Voigt Hill
#
# Bulk Modulus (GPa) = 62.97874 63.31522 63.14698
# Shear Modulus (GPa) = 31.57533 32.10216 31.83875
#
# Velocity S-wave (km/s) = 4.02073 4.05413 4.03746
# Velocity P-wave (km/s) = 7.33481 7.37098 7.35292
#
# Compressibility (1/GPa) = 0.01587837
#
# Stress axis : x y z
#
# Youngs Moduli (GPa) = 90.45368 90.45368 86.84052
#
# Poissons Ratio (x) = 0.31937 0.23200
# Poissons Ratio (y) = 0.31937 0.23200
# Poissons Ratio (z) = 0.24165 0.24165
#
# Static dielectric constant tensor:
#      x y z
#    x 1.707550 0.000000 0.000000 
#    y 0.000000 1.707550 0.000000 
#    z 0.000000 0.000000 1.786200 
# 
# From -- ./inp_files/1231.got.cif
#   From: 2010.05.17/outbox.cif.g08.bks.cpg/sg146_cif.got.tgz:1231.got - 2010.05.20 13:48:23.
