data_PCOD9574354
_publ_section_title
;
Structure prediction by ZEFSAII (Michael W. Deem and Ramdas Pophale) SiO2 
 PCOD9574354
Probable space group: P 31
;
_chemical_formula_sum "Si O2"
_cell_formula_units_Z 18
_cell_length_a 7.965667
_cell_length_b 7.965667
_cell_length_c 13.423486
_cell_angle_alpha 90.000000
_cell_angle_beta 90.000000
_cell_angle_gamma 120.000000
_cell_volume 737.632834
_symmetry_space_group_name_H-M "P 31"
_symmetry_group_IT_number 144
_symmetry_cell_setting 'hexagonal'
loop_
_space_group_symop_operation_xyz
x,y,z
-y,x-y,1/3+z
-x+y,-x,2/3+z
loop_
_atom_site_type_symbol
_atom_site_label
_atom_site_fract_x
_atom_site_fract_y
_atom_site_fract_z
Si Si1 0.085036 0.854973 0.960550
Si Si2 0.879220 0.860615 0.417585
Si Si3 0.312502 0.942973 0.455220
Si Si4 0.129577 0.547018 0.410020
Si Si5 0.644553 0.515996 0.929895
Si Si6 0.723060 0.185973 0.947087
O O1 0.868773 0.676467 0.948341
O O2 0.150006 0.910376 0.847380
O O3 0.208040 0.795279 0.030565
O O4 0.090203 0.043744 0.011358
O O5 0.767037 0.659802 0.359409
O O6 0.089245 0.893435 0.450943
O O7 0.276459 0.729096 0.478100
O O8 0.426210 0.976824 0.351653
O O9 0.413573 0.145698 0.514262
O O10 0.956307 0.420392 0.487215
O O11 0.032790 0.598388 0.314680
O O12 0.613118 0.305729 0.950214
#
# Coordination Sequence:
#
# PCOD9574354 Si02
#       6
#     3   3   3   3   3   3
#     4  11  22  44  69 103 140 189 243 302 369 442
#     4  10  21  42  72  96 135 185 243 292 369 441
#     4  10  24  44  69  98 143 189 245 298 365 439
#     4  11  26  44  74 102 146 198 246 308 369 439
#     4  11  25  44  66 111 143 184 248 304 367 445
#     4  11  24  44  68 102 139 193 237 312 357 440
#
# _framework density 24.402386
#
# number of rings (size 3 to 8) (size 9 to 14) (size 15 to 20)
#    0.000    1.333    3.333    1.000    7.000    1.333 
#    6.000    0.000    0.000    0.000    0.000    0.000 
#    0.000    0.000    0.000    0.000    0.000    0.000 
#
# Total GULP energy -100393.715148 kJ/mol
# GULP energy per Si atom -5577.428619 kJ/mol
# Density = 2.434685 g / cm^3
# Si number density = 24.402386 Si / 1000 Ang^3
#
#
#
# Elastic Constant Matrix: (Units=GPa)
#
#
# Indices 1 2 3 4 5 6 
#
# 1 55.5736 9.3995 8.4543 -1.2648 -5.4065 0.0000
# 2 9.3995 55.5736 8.4543 1.2648 5.4065 0.0000
# 3 8.4543 8.4543 72.1750 0.0000 0.0000 0.0000
# 4 -1.2648 1.2648 0.0000 24.0574 0.0000 5.4065
# 5 -5.4065 5.4065 0.0000 0.0000 24.0574 -1.2648
# 6 0.0000 0.0000 0.0000 5.4065 -1.2648 23.0870
#
#
#
# Elastic Compliance Matrix: (Units=1/GPa)
#
#
# Indices 1 2 3 4 5 6 
#
# 1 0.019402 -0.003528 -0.001860 0.001206 0.005153 0.000000
# 2 -0.003528 0.019402 -0.001860 -0.001206 -0.005153 0.000000
# 3 -0.001860 -0.001860 0.014291 0.000000 0.000000 0.000000
# 4 0.001206 -0.001206 0.000000 0.044010 0.000000 -0.010306
# 5 0.005153 -0.005153 0.000000 0.000000 0.044010 0.002411
# 6 0.000000 0.000000 0.000000 -0.010306 0.002411 0.045860
#
#
# Mechanical properties :
#
#
# Convention : Reuss Voigt Hill
#
# Bulk Modulus (GPa) = 25.90501 26.21537 26.06019
# Shear Modulus (GPa) = 23.32778 24.70797 24.01788
#
# Velocity S-wave (km/s) = 3.09522 3.18547 3.14067
# Velocity P-wave (km/s) = 4.83866 4.92909 4.88408
#
# Compressibility (1/GPa) = 0.03860257
#
# Stress axis : x y z
#
# Youngs Moduli (GPa) = 51.53989 51.53989 69.97489
#
# Poissons Ratio (x) = 0.18181 0.13012
# Poissons Ratio (y) = 0.18181 0.13012
# Poissons Ratio (z) = 0.09584 0.09584
#
# Static dielectric constant tensor:
#      x y z
#    x 2.002110 0.000000 0.000000 
#    y 0.000000 2.002110 0.000000 
#    z 0.000000 0.000000 1.996210 
# 
# From -- ./inp_files/493.got.cif
#   From: 2010.05.17/outbox.cif.g08.bks.cpg/sg144_cif.got.tgz:493.got - 2010.05.20 13:46:34.
