data_PCOD9574954
_publ_section_title
;
Structure prediction by ZEFSAII (Michael W. Deem and Ramdas Pophale) SiO2 
 PCOD9574954
Probable space group: P -3
;
_chemical_formula_sum "Si O2"
_cell_formula_units_Z 34
_cell_length_a 13.453639
_cell_length_b 13.453639
_cell_length_c 9.824759
_cell_angle_alpha 90.000000
_cell_angle_beta 90.000000
_cell_angle_gamma 120.000000
_cell_volume 1540.040273
_symmetry_space_group_name_H-M "P -3"
_symmetry_group_IT_number 147
_symmetry_cell_setting 'hexagonal'
loop_
_space_group_symop_operation_xyz
x,y,z
-y,x-y,z
-x+y,-x,z
-x,-y,-z
y,-x+y,-z
x-y,x,-z
loop_
_atom_site_type_symbol
_atom_site_label
_atom_site_fract_x
_atom_site_fract_y
_atom_site_fract_z
Si Si1 0.666667 0.333333 0.987910
Si Si2 0.780269 0.831376 0.559867
Si Si3 0.694305 0.994825 0.183943
Si Si4 0.666668 0.333335 0.667429
Si Si5 0.522644 0.673809 0.483652
Si Si6 0.750899 0.587541 0.075715
Si Si7 0.495406 0.950324 0.710064
O O1 0.666668 0.333334 0.826200
O O2 0.734930 0.464078 0.036416
O O3 0.855163 0.820413 0.438454
O O4 0.784936 0.759646 0.690092
O O5 0.644869 0.769514 0.534593
O O6 0.785344 0.124598 0.140669
O O7 0.578986 0.996641 0.227495
O O8 0.654669 0.909306 0.056821
O O9 0.540358 0.275552 0.605377
O O10 0.447500 0.597586 0.611744
O O11 0.544820 0.590777 0.386620
O O12 0.645529 0.554952 0.179577
#
# Coordination Sequence:
#
# PCOD9574954 Si02
#       7
#     2   6   6   2   6   6   6
#     4  12  27  40  68 100 147 195 226 278 349 432
#     4  11  26  49  75 102 133 183 238 302 355 408
#     4  11  26  42  70 103 139 184 236 278 358 418
#     4  12  27  37  65 106 147 183 229 287 355 429
#     4  10  25  39  70 101 140 179 232 295 346 422
#     4  12  25  44  67 101 144 192 228 289 341 434
#     4  10  22  43  64  96 140 187 232 280 348 413
#
# _framework density 22.077342999999999
#
# number of rings (size 3 to 8) (size 9 to 14) (size 15 to 20)
#    0.000    1.059    1.765    2.824   17.294    1.412 
#    0.000    0.000    0.000    1.412    0.000    0.000 
#    0.000    0.000    0.000    0.000    0.000    0.000 
#
# Total GULP energy -190135.047698 kJ/mol
# GULP energy per Si atom -5592.207285 kJ/mol
# Density = 2.202709 g / cm^3
# Si number density = 22.077343 Si / 1000 Ang^3
#
#
#
# Elastic Constant Matrix: (Units=GPa)
#
#
# Indices 1 2 3 4 5 6 
#
# 1 33.1769 13.9562 -1.2873 1.3320 -9.1716 -0.0006
# 2 13.9562 33.1784 -1.2869 -1.3328 9.1703 0.0015
# 3 -1.2873 -1.2869 60.6579 -0.0003 -0.0002 0.0000
# 4 1.3320 -1.3328 -0.0003 26.9995 -0.0004 9.1722
# 5 -9.1716 9.1703 -0.0002 -0.0004 27.0003 1.3313
# 6 -0.0006 0.0015 0.0000 9.1722 1.3313 9.6115
#
#
#
# Elastic Compliance Matrix: (Units=1/GPa)
#
#
# Indices 1 2 3 4 5 6 
#
# 1 0.049503 -0.028260 0.000451 -0.003842 0.026413 0.000016
# 2 -0.028260 0.049499 0.000450 0.003844 -0.026410 -0.000020
# 3 0.000451 0.000450 0.016505 0.000000 0.000000 0.000000
# 4 -0.003842 0.003844 0.000000 0.055366 -0.000005 -0.052835
# 5 0.026413 -0.026410 0.000000 -0.000005 0.055356 -0.007657
# 6 0.000016 -0.000020 0.000000 -0.052835 -0.007657 0.155523
#
#
# Mechanical properties :
#
#
# Convention : Reuss Voigt Hill
#
# Bulk Modulus (GPa) = 16.45022 16.64191 16.54607
# Shear Modulus (GPa) = 10.94736 20.43101 15.68918
#
# Velocity S-wave (km/s) = 2.22922 3.04539 2.66869
# Velocity P-wave (km/s) = 3.75409 4.46321 4.12392
#
# Compressibility (1/GPa) = 0.06078945
#
# Stress axis : x y z
#
# Youngs Moduli (GPa) = 20.20097 20.20252 60.58766
#
# Poissons Ratio (x) = 0.57092 -0.02733
# Poissons Ratio (y) = 0.57088 -0.02729
# Poissons Ratio (z) = -0.00911 -0.00910
#
# Static dielectric constant tensor:
#      x y z
#    x 1.805350 0.000000 0.000000 
#    y 0.000000 1.805350 0.000000 
#    z 0.000000 0.000000 1.838890 
# 
# From -- ./inp_files/557.got.cif
#   From: 2010.05.17/outbox.cif.g08.bks.cpg/sg147_cif.got.tgz:557.got - 2010.05.20 13:49:32.
