data_PCOD9574283
_publ_section_title
;
Structure prediction by ZEFSAII (Michael W. Deem and Ramdas Pophale) SiO2 
 PCOD9574283
Probable space group: P 31
;
_chemical_formula_sum "Si O2"
_cell_formula_units_Z 15
_cell_length_a 10.671702
_cell_length_b 10.671702
_cell_length_c 5.521555
_cell_angle_alpha 90.000000
_cell_angle_beta 90.000000
_cell_angle_gamma 120.000000
_cell_volume 544.577148
_symmetry_space_group_name_H-M "P 31"
_symmetry_group_IT_number 144
_symmetry_cell_setting 'hexagonal'
loop_
_space_group_symop_operation_xyz
x,y,z
-y,x-y,1/3+z
-x+y,-x,2/3+z
loop_
_atom_site_type_symbol
_atom_site_label
_atom_site_fract_x
_atom_site_fract_y
_atom_site_fract_z
Si Si1 0.000558 0.872428 0.295020
Si Si2 0.310283 0.990919 0.800917
Si Si3 0.542422 0.785948 0.096978
Si Si4 0.549126 0.874850 0.608025
Si Si5 0.565535 0.386597 0.382107
O O1 0.849686 0.774734 0.433688
O O2 0.083012 0.788022 0.373911
O O3 0.102585 0.039307 0.379767
O O4 0.472446 0.095263 0.890932
O O5 0.325831 0.915014 0.551937
O O6 0.201196 0.849579 0.948127
O O7 0.464032 0.804910 0.859536
O O8 0.481890 0.825755 0.338390
O O9 0.635570 0.048528 0.623600
O O10 0.690983 0.439438 0.180848
#
# Coordination Sequence:
#
# PCOD9574283 Si02
#       5
#     3   3   3   3   3
#     4  10  18  30  59  94 128 176 236 312 374 450
#     4   9  23  44  70 103 151 211 270 328 413 503
#     4   9  21  42  70  99 140 193 267 321 394 483
#     4  10  23  48  70  99 149 211 271 323 401 506
#     4  12  29  46  77 125 176 225 272 368 450 522
#
# _framework density 27.544304
#
# number of rings (size 3 to 8) (size 9 to 14) (size 15 to 20)
#    1.200    0.800    0.000    2.400    5.600    3.200 
#    0.000    2.000    0.000    0.000    0.000    0.000 
#    0.000    0.000    0.000    0.000    0.000    0.000 
#
# Total GULP energy -83564.659465 kJ/mol
# GULP energy per Si atom -5570.977298 kJ/mol
# Density = 2.748161 g / cm^3
# Si number density = 27.544304 Si / 1000 Ang^3
#
#
#
# Elastic Constant Matrix: (Units=GPa)
#
#
# Indices 1 2 3 4 5 6 
#
# 1 121.7596 25.9035 20.6214 4.1423 -0.5172 0.0000
# 2 25.9035 121.7596 20.6214 -4.1423 0.5172 0.0000
# 3 20.6214 20.6214 130.7864 0.0000 0.0000 0.0000
# 4 4.1423 -4.1423 0.0000 29.4942 0.0000 0.5172
# 5 -0.5172 0.5172 0.0000 0.0000 29.4942 4.1423
# 6 0.0000 0.0000 0.0000 0.5172 4.1423 47.9280
#
#
#
# Elastic Compliance Matrix: (Units=1/GPa)
#
#
# Indices 1 2 3 4 5 6 
#
# 1 0.008823 -0.001739 -0.001117 -0.001483 0.000185 0.000000
# 2 -0.001739 0.008823 -0.001117 0.001483 -0.000185 0.000000
# 3 -0.001117 -0.001117 0.007998 0.000000 0.000000 0.000000
# 4 -0.001483 0.001483 0.000000 0.034328 0.000000 -0.000370
# 5 0.000185 -0.000185 0.000000 0.000000 0.034328 -0.002967
# 6 0.000000 0.000000 0.000000 -0.000370 -0.002967 0.021125
#
#
# Mechanical properties :
#
#
# Convention : Reuss Voigt Hill
#
# Bulk Modulus (GPa) = 56.50136 56.51090 56.50613
# Shear Modulus (GPa) = 38.67809 41.86056 40.26932
#
# Velocity S-wave (km/s) = 3.75135 3.90263 3.82774
# Velocity P-wave (km/s) = 6.27064 6.39283 6.33203
#
# Compressibility (1/GPa) = 0.01769869
#
# Stress axis : x y z
#
# Youngs Moduli (GPa) = 113.33586 113.33586 125.02679
#
# Poissons Ratio (x) = 0.19711 0.13965
# Poissons Ratio (y) = 0.19711 0.13965
# Poissons Ratio (z) = 0.12659 0.12659
#
# Static dielectric constant tensor:
#      x y z
#    x 2.266530 0.000000 0.000000 
#    y 0.000000 2.266530 0.000000 
#    z 0.000000 0.000000 2.300480 
# 
# From -- ./inp_files/88.got.cif
#   From: 2010.05.17/outbox.cif.g08.bks.cpg/sg144_cif.got.tgz:88.got - 2010.05.20 13:46:34.
