data_PCOD9574660
_publ_section_title
;
Structure prediction by ZEFSAII (Michael W. Deem and Ramdas Pophale) SiO2 
 PCOD9574660
Probable space group: P 32
;
_chemical_formula_sum "Si O2"
_cell_formula_units_Z 9
_cell_length_a 6.956981
_cell_length_b 6.956981
_cell_length_c 6.906350
_cell_angle_alpha 90.000000
_cell_angle_beta 90.000000
_cell_angle_gamma 120.000000
_cell_volume 289.481524
_symmetry_space_group_name_H-M "P 32"
_symmetry_group_IT_number 145
_symmetry_cell_setting 'hexagonal'
loop_
_space_group_symop_operation_xyz
x,y,z
-y,x-y,2/3+z
-x+y,-x,1/3+z
loop_
_atom_site_type_symbol
_atom_site_label
_atom_site_fract_x
_atom_site_fract_y
_atom_site_fract_z
Si Si1 0.213024 0.106512 0.370340
Si Si2 0.413883 0.976496 0.916638
Si Si3 0.023509 0.586115 0.157373
O O1 0.392953 0.367218 0.366233
O O2 0.098351 0.549172 0.370339
O O3 0.392945 0.025726 0.374444
O O4 0.043151 0.086302 0.203673
O O5 0.200025 0.799975 0.037005
O O6 0.410400 0.205203 0.870339
#
# Coordination Sequence:
#
# PCOD9574660 Si02
#       3
#     3   3   3
#     4  12  34  68 110 162 228 296 382 458 562 670
#     4  12  32  69 113 160 229 299 378 464 566 672
#     4  12  32  69 113 160 229 299 378 464 566 672
#
# _framework density 31.090067000000001
#
# number of rings (size 3 to 8) (size 9 to 14) (size 15 to 20)
#    0.000    0.000    3.333    0.000   14.000    5.333 
#    0.000   10.000    0.000    0.000    0.000    0.000 
#    0.000    0.000    0.000    0.000    0.000    0.000 
#
# Total GULP energy -50552.622630 kJ/mol
# GULP energy per Si atom -5616.958070 kJ/mol
# Density = 3.101931 g / cm^3
# Si number density = 31.090067 Si / 1000 Ang^3
#
#
#
# Elastic Constant Matrix: (Units=GPa)
#
#
# Indices 1 2 3 4 5 6 
#
# 1 349.4325 218.5735 169.5778 0.0005 -15.1652 0.0000
# 2 218.5735 349.4325 169.5778 -0.0005 15.1652 0.0000
# 3 169.5778 169.5778 256.9538 0.0000 0.0000 0.0000
# 4 0.0005 -0.0005 0.0000 26.1067 0.0000 15.1652
# 5 -15.1652 15.1652 0.0000 0.0000 26.1067 0.0005
# 6 0.0000 0.0000 0.0000 15.1652 0.0005 65.4295
#
#
#
# Elastic Compliance Matrix: (Units=1/GPa)
#
#
# Indices 1 2 3 4 5 6 
#
# 1 0.005868 -0.002963 -0.001917 0.000000 0.005130 0.000000
# 2 -0.002963 0.005868 -0.001917 0.000000 -0.005130 0.000000
# 3 -0.001917 -0.001917 0.006423 0.000000 0.000000 0.000000
# 4 0.000000 0.000000 0.000000 0.044264 0.000000 -0.010259
# 5 0.005130 -0.005130 0.000000 0.000000 0.044264 0.000000
# 6 0.000000 0.000000 0.000000 -0.010259 0.000000 0.017662
#
#
# Mechanical properties :
#
#
# Convention : Reuss Voigt Hill
#
# Bulk Modulus (GPa) = 219.12168 230.14188 224.63178
# Shear Modulus (GPa) = 35.85130 50.06789 42.95960
#
# Velocity S-wave (km/s) = 3.39948 4.01735 3.72126
# Velocity P-wave (km/s) = 9.27584 9.78283 9.53271
#
# Compressibility (1/GPa) = 0.00456367
#
# Stress axis : x y z
#
# Youngs Moduli (GPa) = 170.41220 170.41220 155.69921
#
# Poissons Ratio (x) = 0.50487 0.29855
# Poissons Ratio (y) = 0.50487 0.29855
# Poissons Ratio (z) = 0.32676 0.32676
#
# Static dielectric constant tensor:
#      x y z
#    x 2.439190 0.000000 0.000000 
#    y 0.000000 2.439190 0.000000 
#    z 0.000000 0.000000 2.685510 
# 
# From -- ./inp_files/715.got.cif
#   From: 2010.05.17/outbox.cif.g08.bks.cpg/sg145_cif.got.tgz:715.got - 2010.05.20 13:47:28.
