data_PCOD9574270
_publ_section_title
;
Structure prediction by ZEFSAII (Michael W. Deem and Ramdas Pophale) SiO2 
 PCOD9574270
Probable space group: P 3
;
_chemical_formula_sum "Si O2"
_cell_formula_units_Z 17
_cell_length_a 10.989703
_cell_length_b 10.989703
_cell_length_c 8.552810
_cell_angle_alpha 90.000000
_cell_angle_beta 90.000000
_cell_angle_gamma 120.000000
_cell_volume 894.563898
_symmetry_space_group_name_H-M "P 3"
_symmetry_group_IT_number 143
_symmetry_cell_setting 'hexagonal'
loop_
_space_group_symop_operation_xyz
x,y,z
-y,x-y,z
-x+y,-x,z
loop_
_atom_site_type_symbol
_atom_site_label
_atom_site_fract_x
_atom_site_fract_y
_atom_site_fract_z
Si Si1 0.429303 0.358195 0.974880
Si Si2 0.894570 0.311362 0.138697
Si Si3 0.046789 0.452407 0.717414
Si Si4 0.636461 0.798295 0.011973
Si Si5 0.810496 0.307290 0.491941
Si Si6 0.333335 0.666667 0.546872
Si Si7 0.333335 0.666668 0.172209
O O1 0.478422 0.448352 0.815773
O O2 0.525222 0.476098 0.102346
O O3 0.455119 0.230082 0.013868
O O4 0.602111 0.717790 0.846211
O O5 0.845050 0.286730 0.315871
O O6 0.018441 0.278480 0.107256
O O7 0.175617 0.566620 0.613273
O O8 0.928377 0.326280 0.613827
O O9 0.264869 0.302201 0.994138
O O10 0.489413 0.742965 0.101932
O O11 0.806550 0.453119 0.511808
O O12 0.333334 0.666667 0.359366
#
# Coordination Sequence:
#
# PCOD9574270 Si02
#       7
#     3   3   3   3   3   1   1
#     4  11  22  39  64  90 124 171 212 265 315 394
#     4  11  21  39  67  90 128 169 214 266 320 377
#     4  11  22  37  58  92 130 164 210 270 323 381
#     4  11  22  39  62  89 126 167 219 262 312 393
#     4  10  22  39  59  95 134 159 210 274 325 380
#     4  12  22  35  58  90 133 167 208 270 328 368
#     4  12  19  38  64  90 121 167 217 261 325 377
#
# _framework density 19.003675999999999
#
# number of rings (size 3 to 8) (size 9 to 14) (size 15 to 20)
#    0.353    0.706    7.059    1.412    4.941    0.000 
#    1.059    0.000    0.000    0.000    0.000    0.000 
#    0.000    0.000    0.000    0.000    0.000    0.000 
#
# Total GULP energy -94761.412528 kJ/mol
# GULP energy per Si atom -5574.200737 kJ/mol
# Density = 1.896042 g / cm^3
# Si number density = 19.003676 Si / 1000 Ang^3
#
#
#
# Elastic Constant Matrix: (Units=GPa)
#
#
# Indices 1 2 3 4 5 6 
#
# 1 68.1984 6.6657 22.2555 -0.4068 -2.8105 0.0001
# 2 6.6657 68.1983 22.2553 0.4070 2.8110 0.0001
# 3 22.2555 22.2553 106.0498 -0.0007 0.0003 -0.0001
# 4 -0.4068 0.4070 -0.0007 22.1419 -0.0001 2.8111
# 5 -2.8105 2.8110 0.0003 -0.0001 22.1427 -0.4072
# 6 0.0001 0.0001 -0.0001 2.8111 -0.4072 30.7667
#
#
#
# Elastic Compliance Matrix: (Units=1/GPa)
#
#
# Indices 1 2 3 4 5 6 
#
# 1 0.015854 -0.000592 -0.003203 0.000302 0.002088 0.000000
# 2 -0.000592 0.015854 -0.003203 -0.000302 -0.002088 0.000000
# 3 -0.003203 -0.003203 0.010774 0.000000 0.000000 0.000000
# 4 0.000302 -0.000302 0.000000 0.045705 0.000000 -0.004176
# 5 0.002088 -0.002088 0.000000 0.000000 0.045703 0.000605
# 6 0.000000 0.000000 0.000000 -0.004176 0.000605 0.032892
#
#
# Mechanical properties :
#
#
# Convention : Reuss Voigt Hill
#
# Bulk Modulus (GPa) = 35.10480 38.31106 36.70793
# Shear Modulus (GPa) = 26.27810 27.76159 27.01985
#
# Velocity S-wave (km/s) = 3.72262 3.82626 3.77480
# Velocity P-wave (km/s) = 6.08194 6.30269 6.19330
#
# Compressibility (1/GPa) = 0.02848614
#
# Stress axis : x y z
#
# Youngs Moduli (GPa) = 63.07554 63.07544 92.81774
#
# Poissons Ratio (x) = 0.03736 0.29728
# Poissons Ratio (y) = 0.03736 0.29728
# Poissons Ratio (z) = 0.20202 0.20202
#
# Static dielectric constant tensor:
#      x y z
#    x 1.681070 0.000000 0.000000 
#    y 0.000000 1.681070 0.000000 
#    z 0.000000 0.000000 1.659410 
# 
# From -- ./inp_files/165.got.cif
#   From: 2010.05.17/outbox.cif.g08.bks.cpg/sg143_cif.got.tgz:165.got - 2010.05.20 13:46:24.
