data_PCOD9574457
_publ_section_title
;
Structure prediction by ZEFSAII (Michael W. Deem and Ramdas Pophale) SiO2 
 PCOD9574457
Probable space group: P 31
;
_chemical_formula_sum "Si O2"
_cell_formula_units_Z 18
_cell_length_a 9.084362
_cell_length_b 9.084362
_cell_length_c 10.578272
_cell_angle_alpha 90.000000
_cell_angle_beta 90.000000
_cell_angle_gamma 120.000000
_cell_volume 756.021638
_symmetry_space_group_name_H-M "P 31"
_symmetry_group_IT_number 144
_symmetry_cell_setting 'hexagonal'
loop_
_space_group_symop_operation_xyz
x,y,z
-y,x-y,1/3+z
-x+y,-x,2/3+z
loop_
_atom_site_type_symbol
_atom_site_label
_atom_site_fract_x
_atom_site_fract_y
_atom_site_fract_z
Si Si1 0.695789 0.534388 0.700400
Si Si2 0.493199 0.625470 0.906660
Si Si3 0.110801 0.324340 0.966848
Si Si4 0.984443 0.643035 0.235037
Si Si5 0.909218 0.794357 0.489032
Si Si6 0.457417 0.125627 0.460600
O O1 0.592697 0.587033 0.796726
O O2 0.555049 0.429445 0.597420
O O3 0.840810 0.677849 0.614033
O O4 0.769257 0.426850 0.767399
O O5 0.296149 0.481632 0.930651
O O6 0.530651 0.816441 0.883845
O O7 0.589515 0.620209 0.031081
O O8 0.071081 0.162105 0.877752
O O9 0.968367 0.373343 0.930068
O O10 0.067132 0.240563 0.106345
O O11 0.957735 0.723024 0.364899
O O12 0.873352 0.642600 0.116611
#
# Coordination Sequence:
#
# PCOD9574457 Si02
#       6
#     3   3   3   3   3   3
#     4  12  24  46  75 107 149 200 257 312 391 466
#     4  12  24  49  74 110 156 194 261 325 380 477
#     4  11  25  49  76 109 155 202 265 325 387 462
#     4  11  24  45  72 104 149 193 255 317 382 458
#     4  11  24  46  72 106 151 201 251 322 381 457
#     4  11  23  45  77 104 148 204 249 321 393 460
#
# _framework density 23.808841000000001
#
# number of rings (size 3 to 8) (size 9 to 14) (size 15 to 20)
#    0.000    0.667    5.000    2.000    0.000    6.667 
#    3.000    1.667    0.000    0.000    0.000    0.000 
#    0.000    0.000    0.000    0.000    0.000    0.000 
#
# Total GULP energy -100341.051811 kJ/mol
# GULP energy per Si atom -5574.502878 kJ/mol
# Density = 2.375465 g / cm^3
# Si number density = 23.808841 Si / 1000 Ang^3
#
#
#
# Elastic Constant Matrix: (Units=GPa)
#
#
# Indices 1 2 3 4 5 6 
#
# 1 140.3456 85.3411 37.7504 1.7583 6.4684 0.0000
# 2 85.3411 140.3456 37.7504 -1.7583 -6.4684 0.0000
# 3 37.7504 37.7504 67.9358 0.0000 0.0000 0.0000
# 4 1.7583 -1.7583 0.0000 37.2563 0.0000 -6.4684
# 5 6.4684 -6.4684 0.0000 0.0000 37.2563 1.7583
# 6 0.0000 0.0000 0.0000 -6.4684 1.7583 27.5023
#
#
#
# Elastic Compliance Matrix: (Units=1/GPa)
#
#
# Indices 1 2 3 4 5 6 
#
# 1 0.012228 -0.006786 -0.003024 -0.000897 -0.003301 0.000000
# 2 -0.006786 0.012228 -0.003024 0.000897 0.003301 0.000000
# 3 -0.003024 -0.003024 0.018081 0.000000 0.000000 0.000000
# 4 -0.000897 0.000897 0.000000 0.028072 0.000000 0.006602
# 5 -0.003301 0.003301 0.000000 0.000000 0.028072 -0.001795
# 6 0.000000 0.000000 0.000000 0.006602 -0.001795 0.038028
#
#
# Mechanical properties :
#
#
# Convention : Reuss Voigt Hill
#
# Bulk Modulus (GPa) = 59.28104 74.47897 66.88001
# Shear Modulus (GPa) = 29.76153 32.92197 31.34175
#
# Velocity S-wave (km/s) = 3.53940 3.72259 3.63215
# Velocity P-wave (km/s) = 6.45414 7.05881 6.76324
#
# Compressibility (1/GPa) = 0.01686880
#
# Stress axis : x y z
#
# Youngs Moduli (GPa) = 81.77683 81.77683 55.30685
#
# Poissons Ratio (x) = 0.55491 0.16727
# Poissons Ratio (y) = 0.55491 0.16727
# Poissons Ratio (z) = 0.24732 0.24732
#
# Static dielectric constant tensor:
#      x y z
#    x 2.085410 0.000000 0.000000 
#    y 0.000000 2.085410 0.000000 
#    z 0.000000 0.000000 1.977310 
# 
# From -- ./inp_files/556.got.cif
#   From: 2010.05.17/outbox.cif.g08.bks.cpg/sg144_cif.got.tgz:556.got - 2010.05.20 13:46:34.
