data_PCOD9574417
_publ_section_title
;
Structure prediction by ZEFSAII (Michael W. Deem and Ramdas Pophale) SiO2 
 PCOD9574417
Probable space group: P 31
;
_chemical_formula_sum "Si O2"
_cell_formula_units_Z 18
_cell_length_a 5.340217
_cell_length_b 5.340217
_cell_length_c 27.656431
_cell_angle_alpha 90.000000
_cell_angle_beta 90.000000
_cell_angle_gamma 120.000000
_cell_volume 683.037545
_symmetry_space_group_name_H-M "P 31"
_symmetry_group_IT_number 144
_symmetry_cell_setting 'hexagonal'
loop_
_space_group_symop_operation_xyz
x,y,z
-y,x-y,1/3+z
-x+y,-x,2/3+z
loop_
_atom_site_type_symbol
_atom_site_label
_atom_site_fract_x
_atom_site_fract_y
_atom_site_fract_z
Si Si1 0.620930 0.358883 0.713450
Si Si2 0.011480 0.291164 0.293288
Si Si3 0.134605 0.417277 0.937454
Si Si4 0.756030 0.414086 0.548771
Si Si5 0.748541 0.810517 0.100422
Si Si6 0.763386 0.072939 0.462636
O O1 0.659188 0.445006 0.657772
O O2 0.303521 0.256079 0.732575
O O3 0.778543 0.195537 0.736183
O O4 0.813597 0.664391 0.741280
O O5 0.978423 0.346499 0.236100
O O6 0.331484 0.522845 0.308470
O O7 0.889786 0.949197 0.294268
O O8 0.892475 0.402479 0.902391
O O9 0.433045 0.496943 0.909619
O O10 0.792081 0.336766 0.494777
O O11 0.436951 0.580904 0.124586
O O12 0.984255 0.997965 0.141657
#
# Coordination Sequence:
#
# PCOD9574417 Si02
#       6
#     3   3   3   3   3   3
#     4  10  24  44  69  99 134 180 229 291 349 423
#     4  10  24  44  69  99 134 180 229 291 349 423
#     4  10  25  39  68  97 136 177 233 280 357 409
#     4  10  26  41  69  98 140 181 232 285 352 422
#     4  10  25  39  68  97 136 177 233 280 357 409
#     4  10  26  41  69  98 140 181 232 285 352 422
#
# _framework density 26.352867
#
# number of rings (size 3 to 8) (size 9 to 14) (size 15 to 20)
#    2.000    0.000    0.000    1.000    9.333    4.000 
#    0.000    0.000    0.000    0.000    0.000    0.000 
#    0.000    0.000    0.000    0.000    0.000    0.000 
#
# Total GULP energy -100228.074640 kJ/mol
# GULP energy per Si atom -5568.226369 kJ/mol
# Density = 2.629289 g / cm^3
# Si number density = 26.352867 Si / 1000 Ang^3
#
#
#
# Elastic Constant Matrix: (Units=GPa)
#
#
# Indices 1 2 3 4 5 6 
#
# 1 136.4756 61.8998 14.3001 -4.4582 0.2905 0.0000
# 2 61.8998 136.4756 14.3001 4.4582 -0.2905 0.0000
# 3 14.3001 14.3001 67.1073 0.0000 0.0000 0.0000
# 4 -4.4582 4.4582 0.0000 22.0312 0.0000 -0.2905
# 5 0.2905 -0.2905 0.0000 0.0000 22.0312 -4.4582
# 6 0.0000 0.0000 0.0000 -0.2905 -4.4582 37.2879
#
#
#
# Elastic Compliance Matrix: (Units=1/GPa)
#
#
# Indices 1 2 3 4 5 6 
#
# 1 0.009472 -0.004271 -0.001108 0.002781 -0.000181 0.000000
# 2 -0.004271 0.009472 -0.001108 -0.002781 0.000181 0.000000
# 3 -0.001108 -0.001108 0.015374 0.000000 0.000000 0.000000
# 4 0.002781 -0.002781 0.000000 0.046521 0.000000 0.000362
# 5 -0.000181 0.000181 0.000000 0.000000 0.046521 0.005562
# 6 0.000000 0.000000 0.000000 0.000362 0.005562 0.027486
#
#
# Mechanical properties :
#
#
# Convention : Reuss Voigt Hill
#
# Bulk Modulus (GPa) = 46.85525 57.89537 52.37531
# Shear Modulus (GPa) = 28.58217 32.90731 30.74474
#
# Velocity S-wave (km/s) = 3.29689 3.53755 3.41934
# Velocity P-wave (km/s) = 5.68429 6.22115 5.95877
#
# Compressibility (1/GPa) = 0.02134232
#
# Stress axis : x y z
#
# Youngs Moduli (GPa) = 105.57540 105.57540 65.04567
#
# Poissons Ratio (x) = 0.45093 0.07209
# Poissons Ratio (y) = 0.45093 0.07209
# Poissons Ratio (z) = 0.11700 0.11700
#
# Static dielectric constant tensor:
#      x y z
#    x 2.112770 0.000000 0.000000 
#    y 0.000000 2.112770 0.000000 
#    z 0.000000 0.000000 2.093270 
# 
# From -- ./inp_files/1042.got.cif
#   From: 2010.05.17/outbox.cif.g08.bks.cpg/sg144_cif.got.tgz:1042.got - 2010.05.20 13:46:34.
