data_PCOD9574542
_publ_section_title
;
Structure prediction by ZEFSAII (Michael W. Deem and Ramdas Pophale) SiO2 
 PCOD9574542
Probable space group: P 32
;
_chemical_formula_sum "Si O2"
_cell_formula_units_Z 24
_cell_length_a 7.971656
_cell_length_b 7.971656
_cell_length_c 20.308589
_cell_angle_alpha 90.000000
_cell_angle_beta 90.000000
_cell_angle_gamma 120.000000
_cell_volume 1117.654268
_symmetry_space_group_name_H-M "P 32"
_symmetry_group_IT_number 145
_symmetry_cell_setting 'hexagonal'
loop_
_space_group_symop_operation_xyz
x,y,z
-y,x-y,2/3+z
-x+y,-x,1/3+z
loop_
_atom_site_type_symbol
_atom_site_label
_atom_site_fract_x
_atom_site_fract_y
_atom_site_fract_z
Si Si1 0.863600 0.075089 0.683040
Si Si2 0.717863 0.609579 0.217233
Si Si3 0.696602 0.182999 0.417126
Si Si4 0.962495 0.642696 0.620464
Si Si5 0.574965 0.915429 0.217793
Si Si6 0.932523 0.178157 0.301601
Si Si7 0.934761 0.432611 0.752393
Si Si8 0.579306 0.653980 0.667122
O O1 0.817351 0.160748 0.617780
O O2 0.055438 0.066586 0.664281
O O3 0.925338 0.230041 0.740747
O O4 0.677201 0.867925 0.696633
O O5 0.834384 0.605323 0.154566
O O6 0.515048 0.414443 0.229825
O O7 0.656678 0.771195 0.207845
O O8 0.868910 0.260332 0.363172
O O9 0.620110 0.332934 0.423744
O O10 0.516736 0.990812 0.386873
O O11 0.013575 0.559631 0.685761
O O12 0.769224 0.651110 0.638501
O O13 0.147905 0.851739 0.606222
O O14 0.502581 0.956188 0.150150
O O15 0.759772 0.107804 0.248635
O O16 0.407221 0.839358 0.272915
#
# Coordination Sequence:
#
# PCOD9574542 Si02
#       8
#     3   3   3   3   3   3   3   3
#     4   9  20  38  58  79 110 152 193 239 293 341
#     4  10  20  35  56  85 116 148 188 240 298 353
#     4  10  20  35  56  82 113 146 188 237 290 347
#     4   9  18  36  58  79 112 151 187 235 290 342
#     4  10  20  35  56  84 116 149 192 239 289 350
#     4   9  19  37  59  81 110 149 191 237 288 346
#     4  10  20  35  56  81 114 150 186 233 289 349
#     4   9  19  37  57  79 111 153 195 238 287 348
#
# _framework density 21.473545000000001
#
# number of rings (size 3 to 8) (size 9 to 14) (size 15 to 20)
#    0.000    2.500    0.000    1.500    0.000    3.000 
#    0.000   16.250    0.000    0.000    0.000    0.000 
#    0.000    0.000    0.000    0.000    0.000    0.000 
#
# Total GULP energy -134036.957185 kJ/mol
# GULP energy per Si atom -5584.873216 kJ/mol
# Density = 2.142467 g / cm^3
# Si number density = 21.473545 Si / 1000 Ang^3
#
#
#
# Elastic Constant Matrix: (Units=GPa)
#
#
# Indices 1 2 3 4 5 6 
#
# 1 52.2781 11.2789 19.7154 1.5301 7.9575 0.0000
# 2 11.2789 52.2781 19.7154 -1.5301 -7.9575 0.0000
# 3 19.7154 19.7154 85.9534 0.0000 0.0000 0.0000
# 4 1.5301 -1.5301 0.0000 19.4067 0.0000 -7.9575
# 5 7.9575 -7.9575 0.0000 0.0000 19.4067 1.5301
# 6 0.0000 0.0000 0.0000 -7.9575 1.5301 20.4996
#
#
#
# Elastic Compliance Matrix: (Units=1/GPa)
#
#
# Indices 1 2 3 4 5 6 
#
# 1 0.023778 -0.005434 -0.004208 -0.002303 -0.011978 0.000000
# 2 -0.005434 0.023778 -0.004208 0.002303 0.011978 0.000000
# 3 -0.004208 -0.004208 0.013564 0.000000 0.000000 0.000000
# 4 -0.002303 0.002303 0.000000 0.061715 0.000000 0.023956
# 5 -0.011978 0.011978 0.000000 0.000000 0.061715 -0.004607
# 6 0.000000 0.000000 0.000000 0.023956 -0.004607 0.058425
#
#
# Mechanical properties :
#
#
# Convention : Reuss Voigt Hill
#
# Bulk Modulus (GPa) = 29.92006 32.43657 31.17832
# Shear Modulus (GPa) = 17.74212 21.18259 19.46235
#
# Velocity S-wave (km/s) = 2.87754 3.14419 3.01382
# Velocity P-wave (km/s) = 5.00040 5.32160 5.16350
#
# Compressibility (1/GPa) = 0.03342239
#
# Stress axis : x y z
#
# Youngs Moduli (GPa) = 42.05506 42.05506 73.72186
#
# Poissons Ratio (x) = 0.22853 0.31020
# Poissons Ratio (y) = 0.22853 0.31020
# Poissons Ratio (z) = 0.17696 0.17696
#
# Static dielectric constant tensor:
#      x y z
#    x 1.800560 0.000000 0.000000 
#    y 0.000000 1.800560 0.000000 
#    z 0.000000 0.000000 1.754080 
# 
# From -- ./inp_files/946.got.cif
#   From: 2010.05.17/outbox.cif.g08.bks.cpg/sg145_cif.got.tgz:946.got - 2010.05.20 13:47:28.
