data_PCOD9574957
_publ_section_title
;
Structure prediction by ZEFSAII (Michael W. Deem and Ramdas Pophale) SiO2 
 PCOD9574957
Probable space group: P -3
;
_chemical_formula_sum "Si O2"
_cell_formula_units_Z 48
_cell_length_a 15.823525
_cell_length_b 15.823525
_cell_length_c 11.007916
_cell_angle_alpha 90.000000
_cell_angle_beta 90.000000
_cell_angle_gamma 120.000000
_cell_volume 2386.943909
_symmetry_space_group_name_H-M "P -3"
_symmetry_group_IT_number 147
_symmetry_cell_setting 'hexagonal'
loop_
_space_group_symop_operation_xyz
x,y,z
-y,x-y,z
-x+y,-x,z
-x,-y,-z
y,-x+y,-z
x-y,x,-z
loop_
_atom_site_type_symbol
_atom_site_label
_atom_site_fract_x
_atom_site_fract_y
_atom_site_fract_z
Si Si1 0.168689 0.947215 0.500694
Si Si2 0.392574 0.335185 0.869460
Si Si3 0.166709 0.687189 0.809610
Si Si4 0.785041 0.826901 0.981461
Si Si5 0.991648 0.696579 0.258100
Si Si6 0.813698 0.604419 0.670929
Si Si7 0.513832 0.650107 0.886400
Si Si8 0.253492 0.713619 0.549974
O O1 0.198923 0.901233 0.390305
O O2 0.054709 0.869698 0.525887
O O3 0.237984 0.958100 0.614571
O O4 0.351695 0.404401 0.824845
O O5 0.436057 0.300038 0.762151
O O6 0.300876 0.238277 0.924796
O O7 0.465078 0.380976 0.983508
O O8 0.237094 0.778136 0.893919
O O9 0.181171 0.596752 0.844753
O O10 0.206155 0.723404 0.673863
O O11 0.748644 0.783761 0.847881
O O12 0.813681 0.937826 0.987412
O O13 0.107796 0.743943 0.262134
O O14 0.938799 0.584591 0.215778
O O15 0.750953 0.531025 0.564008
O O16 0.229322 0.601126 0.548176
#
# Coordination Sequence:
#
# PCOD9574957 Si02
#       8
#     6   6   6   6   6   6   6   6
#     4  10  23  38  61  94 133 181 226 271 327 389
#     4  11  25  41  65  99 135 177 222 273 345 396
#     4  12  23  45  74  98 134 174 231 274 334 412
#     4  11  22  39  62  94 132 180 226 282 332 398
#     4  10  23  40  65  93 138 172 226 276 334 394
#     4  11  24  42  64 100 135 178 217 277 341 401
#     4  11  24  44  70 101 132 179 222 282 331 400
#     4  10  23  47  71  97 130 170 221 276 336 400
#
# _framework density 20.109394999999999
#
# number of rings (size 3 to 8) (size 9 to 14) (size 15 to 20)
#    0.250    1.000    2.500    3.125    8.750    1.000 
#    2.250    1.250    0.000    0.000    0.000    0.000 
#    0.000    0.000    0.000    0.000    0.000    0.000 
#
# Total GULP energy -268224.249800 kJ/mol
# GULP energy per Si atom -5588.005204 kJ/mol
# Density = 2.006362 g / cm^3
# Si number density = 20.109395 Si / 1000 Ang^3
#
#
#
# Elastic Constant Matrix: (Units=GPa)
#
#
# Indices 1 2 3 4 5 6 
#
# 1 70.7145 9.8704 26.0040 -2.8768 -3.8055 0.0000
# 2 9.8704 70.7145 26.0040 2.8768 3.8055 0.0000
# 3 26.0040 26.0040 70.9190 0.0000 0.0000 0.0000
# 4 -2.8768 2.8768 0.0000 21.7361 0.0000 3.8055
# 5 -3.8055 3.8055 0.0000 0.0000 21.7361 -2.8768
# 6 0.0000 0.0000 0.0000 3.8055 -2.8768 30.4221
#
#
#
# Elastic Compliance Matrix: (Units=1/GPa)
#
#
# Indices 1 2 3 4 5 6 
#
# 1 0.016639 -0.000383 -0.005961 0.002253 0.002980 0.000000
# 2 -0.000383 0.016639 -0.005961 -0.002253 -0.002980 0.000000
# 3 -0.005961 -0.005961 0.018472 0.000000 0.000000 0.000000
# 4 0.002253 -0.002253 0.000000 0.047646 0.000000 -0.005960
# 5 0.002980 -0.002980 0.000000 0.000000 0.047646 0.004506
# 6 0.000000 0.000000 0.000000 -0.005960 0.004506 0.034042
#
#
# Mechanical properties :
#
#
# Convention : Reuss Voigt Hill
#
# Bulk Modulus (GPa) = 36.84403 37.34501 37.09452
# Shear Modulus (GPa) = 23.28407 24.81017 24.04712
#
# Velocity S-wave (km/s) = 3.40644 3.51630 3.46181
# Velocity P-wave (km/s) = 5.81665 5.92428 5.87071
#
# Compressibility (1/GPa) = 0.02714144
#
# Stress axis : x y z
#
# Youngs Moduli (GPa) = 60.10079 60.10079 54.13650
#
# Poissons Ratio (x) = 0.02299 0.32269
# Poissons Ratio (y) = 0.02299 0.32269
# Poissons Ratio (z) = 0.35824 0.35824
#
# Static dielectric constant tensor:
#      x y z
#    x 1.706010 0.000000 0.000000 
#    y 0.000000 1.706010 0.000000 
#    z 0.000000 0.000000 1.713310 
# 
# From -- ./inp_files/868.got.cif
#   From: 2010.05.17/outbox.cif.g08.bks.cpg/sg147_cif.got.tgz:868.got - 2010.05.20 13:49:32.
