data_PCOD9574814
_publ_section_title
;
Structure prediction by ZEFSAII (Michael W. Deem and Ramdas Pophale) SiO2 
 PCOD9574814
Probable space group: R 3
;
_chemical_formula_sum "Si O2"
_cell_formula_units_Z 54
_cell_length_a 20.285261
_cell_length_b 20.285261
_cell_length_c 7.049521
_cell_angle_alpha 90.000000
_cell_angle_beta 90.000000
_cell_angle_gamma 120.000000
_cell_volume 2512.183970
_symmetry_space_group_name_H-M "R 3"
_symmetry_group_IT_number 146
_symmetry_cell_setting 'hexagonal'
loop_
_space_group_symop_operation_xyz
x,y,z
-y,x-y,z
-x+y,-x,z
2/3+x,1/3+y,1/3+z
2/3-y,1/3+x-y,1/3+z
2/3-x+y,1/3-x,1/3+z
1/3+x,2/3+y,2/3+z
1/3-y,2/3+x-y,2/3+z
1/3-x+y,2/3-x,2/3+z
loop_
_atom_site_type_symbol
_atom_site_label
_atom_site_fract_x
_atom_site_fract_y
_atom_site_fract_z
Si Si1 0.156113 0.529448 0.194280
Si Si2 0.893393 0.763172 0.412029
Si Si3 0.377085 0.112587 0.548628
Si Si4 0.638470 0.564261 0.175533
Si Si5 0.777009 0.971327 0.671920
Si Si6 0.932697 0.511312 0.315639
O O1 0.215822 0.501471 0.139005
O O2 0.108746 0.516130 0.999855
O O3 0.167820 0.607618 0.280261
O O4 0.109745 0.472910 0.368583
O O5 0.746851 0.753780 0.050515
O O6 0.911832 0.763003 0.192529
O O7 0.958057 0.759063 0.531682
O O8 0.312229 0.124744 0.454185
O O9 0.335784 0.054000 0.722500
O O10 0.561496 0.483616 0.198088
O O11 0.689336 0.906286 0.649033
O O12 0.789591 0.007092 0.880516
#
# Coordination Sequence:
#
# PCOD9574814 Si02
#       6
#     9   9   9   9   9   9
#     4  11  23  45  75 101 144 195 244 314 365 447
#     4  11  26  47  71 109 147 195 256 306 375 458
#     4  11  23  43  72 105 147 189 245 313 378 433
#     4  11  24  45  69 112 147 187 248 312 376 441
#     4  12  26  48  72 110 152 197 251 305 390 452
#     4  12  26  48  73 109 149 195 250 314 378 459
#
# _framework density 21.495239999999999
#
# number of rings (size 3 to 8) (size 9 to 14) (size 15 to 20)
#    0.000    0.667    6.667    1.000    2.333    8.000 
#    1.000    0.000    0.000    0.000    0.000    0.000 
#    0.000    0.000    0.000    0.000    0.000    0.000 
#
# Total GULP energy -100541.710828 kJ/mol
# GULP energy per Si atom -5585.650602 kJ/mol
# Density = 2.144632 g / cm^3
# Si number density = 21.495240 Si / 1000 Ang^3
#
#
#
# Elastic Constant Matrix: (Units=GPa)
#
#
# Indices 1 2 3 4 5 6 
#
# 1 80.4716 34.4420 32.1370 -0.5370 4.7667 -0.0163
# 2 34.4420 80.4966 32.1711 0.5073 -4.8135 -0.0026
# 3 32.1370 32.1711 158.6146 -0.0490 -0.0454 -0.0241
# 4 -0.5370 0.5073 -0.0490 30.4033 -0.0349 -4.8150
# 5 4.7667 -4.8135 -0.0454 -0.0349 30.3631 -0.5327
# 6 -0.0163 -0.0026 -0.0241 -4.8150 -0.5327 23.0187
#
#
#
# Elastic Compliance Matrix: (Units=1/GPa)
#
#
# Indices 1 2 3 4 5 6 
#
# 1 0.016140 -0.006325 -0.001988 0.000384 -0.003539 0.000007
# 2 -0.006325 0.016140 -0.001991 -0.000381 0.003548 -0.000002
# 3 -0.001988 -0.001991 0.007111 0.000011 0.000007 0.000008
# 4 0.000384 -0.000381 0.000011 0.034032 0.000043 0.007120
# 5 -0.003539 0.003548 0.000007 0.000043 0.034067 0.000795
# 6 0.000007 -0.000002 0.000008 0.007120 0.000795 0.044951
#
#
# Mechanical properties :
#
#
# Convention : Reuss Voigt Hill
#
# Bulk Modulus (GPa) = 53.24245 57.45364 55.34805
# Shear Modulus (GPa) = 27.88462 31.47920 29.68191
#
# Velocity S-wave (km/s) = 3.60564 3.83100 3.72002
# Velocity P-wave (km/s) = 6.49287 6.80847 6.65254
#
# Compressibility (1/GPa) = 0.01878200
#
# Stress axis : x y z
#
# Youngs Moduli (GPa) = 61.95716 61.95934 140.62240
#
# Poissons Ratio (x) = 0.39192 0.27957
# Poissons Ratio (y) = 0.39190 0.27999
# Poissons Ratio (z) = 0.12318 0.12336
#
# Static dielectric constant tensor:
#      x y z
#    x 1.803620 0.000000 -0.000010 
#    y 0.000000 1.803620 -0.000010 
#    z -0.000010 -0.000010 1.788330 
# 
# From -- ./inp_files/356.got.cif
#   From: 2010.05.17/outbox.cif.g08.bks.cpg/sg146_cif.got.tgz:356.got - 2010.05.20 13:48:23.
