data_PCOD9574060
_publ_section_title
;
Structure prediction by ZEFSAII (Michael W. Deem and Ramdas Pophale) SiO2 
 PCOD9574060
Probable space group: I 41/A C D
;
_chemical_formula_sum "Si O2"
_cell_formula_units_Z 160
_cell_length_a 23.747396
_cell_length_b 23.747396
_cell_length_c 12.468338
_cell_angle_alpha 90.000000
_cell_angle_beta 90.000000
_cell_angle_gamma 90.000000
_cell_volume 7031.379779
_symmetry_space_group_name_H-M "I 41/A C D"
_symmetry_group_IT_number 142
_space_group.IT_coordinate_system_code '2'
_symmetry_cell_setting 'tetragonal'
loop_
_space_group_symop_operation_xyz
x,y,z
1/4-y,3/4+x,1/4+z
-x,1/2-y,z
1/4+y,1/4-x,3/4+z
x,-y,1/2-z
1/2-x,y,-z
3/4+y,1/4+x,1/4-z
1/4-y,1/4-x,1/4-z
-x,-y,-z
3/4+y,1/4-x,3/4-z
x,1/2+y,-z
3/4-y,3/4+x,1/4-z
-x,y,1/2+z
1/2+x,-y,z
1/4-y,3/4-x,3/4+z
3/4+y,3/4+x,3/4+z
1/2+x,1/2+y,1/2+z
3/4-y,1/4+x,3/4+z
1/2-x,-y,1/2+z
3/4+y,3/4-x,1/4+z
1/2+x,1/2-y,-z
-x,1/2+y,1/2-z
1/4+y,3/4+x,3/4-z
3/4-y,3/4-x,3/4-z
1/2-x,1/2-y,1/2-z
1/4+y,3/4-x,1/4-z
1/2+x,y,1/2-z
1/4-y,1/4+x,3/4-z
1/2-x,1/2+y,z
x,1/2-y,1/2+z
3/4-y,1/4-x,1/4+z
1/4+y,1/4+x,1/4+z
loop_
_atom_site_type_symbol
_atom_site_label
_atom_site_fract_x
_atom_site_fract_y
_atom_site_fract_z
Si Si1 0.277523 0.950036 0.828361
Si Si2 0.067502 0.898940 0.305552
Si Si3 0.184615 0.200955 0.463007
Si Si4 0.379344 0.412250 0.068714
Si Si5 0.075958 0.519461 0.999009
O O1 0.217765 0.967765 0.875000
O O2 0.324648 0.952461 0.920762
O O3 0.284930 0.887274 0.792252
O O4 0.294437 0.000000 0.750000
O O5 0.098242 0.848242 0.375000
O O6 0.097294 0.903598 0.189587
O O7 0.001785 0.902323 0.271750
O O8 0.072453 0.954112 0.381197
O O9 0.250000 0.191360 0.500000
O O10 0.144662 0.146288 0.475509
O O11 0.197998 0.212290 0.335961
O O12 0.422857 0.451418 0.003006
#
# Coordination Sequence:
#
# PCOD9574060 Si02
#       5
#    32  32  32  32  32
#     4  11  20  29  56  99 147 187 223 271 347 455
#     4  12  24  49  74 106 143 201 263 302 376 460
#     4  11  27  44  68 112 151 194 248 309 382 447
#     4  11  24  40  68 108 152 195 243 299 374 456
#     4  11  24  42  72 109 151 196 234 306 378 468
#
# _framework density 22.755134999999999
#
# number of rings (size 3 to 8) (size 9 to 14) (size 15 to 20)
#    0.000    0.800    6.000    3.000    5.600    3.200 
#    0.000    0.000    0.000    0.600   10.400    0.000 
#    0.000    0.000    0.000    0.000    0.000    0.000 
#
# Total GULP energy -445912.162711 kJ/mol
# GULP energy per Si atom -5573.902034 kJ/mol
# Density = 2.270334 g / cm^3
# Si number density = 22.755135 Si / 1000 Ang^3
#
#
#
# Elastic Constant Matrix: (Units=GPa)
#
#
# Indices 1 2 3 4 5 6 
#
# 1 128.6349 37.2202 21.8105 0.0000 0.0000 0.0000
# 2 37.2202 128.6349 21.8105 0.0000 0.0000 0.0000
# 3 21.8105 21.8105 63.1471 0.0000 0.0000 0.0000
# 4 0.0000 0.0000 0.0000 37.2456 0.0000 0.0000
# 5 0.0000 0.0000 0.0000 0.0000 37.2456 0.0000
# 6 0.0000 0.0000 0.0000 0.0000 0.0000 8.1043
#
#
#
# Elastic Compliance Matrix: (Units=1/GPa)
#
#
# Indices 1 2 3 4 5 6 
#
# 1 0.008785 -0.002154 -0.002291 0.000000 0.000000 0.000000
# 2 -0.002154 0.008785 -0.002291 0.000000 0.000000 0.000000
# 3 -0.002291 -0.002291 0.017418 0.000000 0.000000 0.000000
# 4 0.000000 0.000000 0.000000 0.026849 0.000000 0.000000
# 5 0.000000 0.000000 0.000000 0.000000 0.026849 0.000000
# 6 0.000000 0.000000 0.000000 0.000000 0.000000 0.123392
#
#
# Mechanical properties :
#
#
# Convention : Reuss Voigt Hill
#
# Bulk Modulus (GPa) = 46.46918 53.56658 50.01788
# Shear Modulus (GPa) = 21.48491 32.49081 26.98786
#
# Velocity S-wave (km/s) = 3.07608 3.78278 3.44759
# Velocity P-wave (km/s) = 5.75171 6.53229 6.15439
#
# Compressibility (1/GPa) = 0.02151964
#
# Stress axis : x y z
#
# Youngs Moduli (GPa) = 113.82419 113.82419 57.41080
#
# Poissons Ratio (x) = 0.24514 0.13150
# Poissons Ratio (y) = 0.24514 0.13150
# Poissons Ratio (z) = 0.26072 0.26072
#
# Static dielectric constant tensor:
#      x y z
#    x 1.888300 0.000000 0.000000 
#    y 0.000000 1.888300 0.000000 
#    z 0.000000 0.000000 2.140060 
# 
# From -- ./inp_files/5404.got.cif
#   From: 2010.05.17/outbox.cif.g08.bks.cpg/sg142_3_cif.got.tgz:5404.got - 2010.05.20 13:39:18.
