data_PCOD9574317
_publ_section_title
;
Structure prediction by ZEFSAII (Michael W. Deem and Ramdas Pophale) SiO2 
 PCOD9574317
Probable space group: P 31
;
_chemical_formula_sum "Si O2"
_cell_formula_units_Z 18
_cell_length_a 9.070624
_cell_length_b 9.070624
_cell_length_c 12.297618
_cell_angle_alpha 90.000000
_cell_angle_beta 90.000000
_cell_angle_gamma 120.000000
_cell_volume 876.245821
_symmetry_space_group_name_H-M "P 31"
_symmetry_group_IT_number 144
_symmetry_cell_setting 'hexagonal'
loop_
_space_group_symop_operation_xyz
x,y,z
-y,x-y,1/3+z
-x+y,-x,2/3+z
loop_
_atom_site_type_symbol
_atom_site_label
_atom_site_fract_x
_atom_site_fract_y
_atom_site_fract_z
Si Si1 0.870026 0.719219 0.460280
Si Si2 0.104369 0.498282 0.759470
Si Si3 0.782254 0.844654 0.749954
Si Si4 0.189411 0.270934 0.186124
Si Si5 0.068121 0.542249 0.501796
Si Si6 0.215262 0.059878 0.542570
O O1 0.714931 0.733209 0.510834
O O2 0.838101 0.739484 0.334604
O O3 0.905745 0.568099 0.484842
O O4 0.038326 0.885101 0.511885
O O5 0.088910 0.645218 0.822184
O O6 0.088455 0.516425 0.630126
O O7 0.286637 0.518831 0.791001
O O8 0.963363 0.315339 0.806815
O O9 0.791363 0.952983 0.643562
O O10 0.614300 0.666144 0.766174
O O11 0.943486 0.817517 0.772023
O O12 0.790525 0.970602 0.843415
#
# Coordination Sequence:
#
# PCOD9574317 Si02
#       6
#     3   3   3   3   3   3
#     4  10  20  38  63  89 120 166 219 270 326 398
#     4  11  22  39  61  90 125 164 210 270 331 399
#     4  11  21  37  60  87 119 162 210 262 324 395
#     4  11  21  37  60  87 119 162 210 262 324 395
#     4  11  22  39  61  90 125 164 210 270 331 399
#     4  10  20  38  63  89 120 166 219 270 326 398
#
# _framework density 20.542179999999998
#
# number of rings (size 3 to 8) (size 9 to 14) (size 15 to 20)
#    0.000    1.333    0.000   11.000    0.000    0.000 
#    0.000    6.667    0.000    0.000    0.000    0.000 
#    0.000    0.000    0.000    0.000    0.000    0.000 
#
# Total GULP energy -100279.137221 kJ/mol
# GULP energy per Si atom -5571.063179 kJ/mol
# Density = 2.049543 g / cm^3
# Si number density = 20.542180 Si / 1000 Ang^3
#
#
#
# Elastic Constant Matrix: (Units=GPa)
#
#
# Indices 1 2 3 4 5 6 
#
# 1 83.8400 32.2081 1.1012 2.7003 8.1024 0.0000
# 2 32.2081 83.8400 1.1012 -2.7003 -8.1024 0.0000
# 3 1.1012 1.1012 84.6250 0.0000 0.0000 0.0000
# 4 2.7003 -2.7003 0.0000 25.2963 0.0000 -8.1024
# 5 8.1024 -8.1024 0.0000 0.0000 25.2963 2.7003
# 6 0.0000 0.0000 0.0000 -8.1024 2.7003 25.8160
#
#
#
# Elastic Compliance Matrix: (Units=1/GPa)
#
#
# Indices 1 2 3 4 5 6 
#
# 1 0.015211 -0.006592 -0.000112 -0.002327 -0.006984 0.000000
# 2 -0.006592 0.015211 -0.000112 0.002327 0.006984 0.000000
# 3 -0.000112 -0.000112 0.011820 0.000000 0.000000 0.000000
# 4 -0.002327 0.002327 0.000000 0.044502 0.000000 0.013967
# 5 -0.006984 0.006984 0.000000 0.000000 0.044502 -0.004655
# 6 0.000000 0.000000 0.000000 0.013967 -0.004655 0.043606
#
#
# Mechanical properties :
#
#
# Convention : Reuss Voigt Hill
#
# Bulk Modulus (GPa) = 34.95327 35.68065 35.31696
# Shear Modulus (GPa) = 25.24981 29.80803 27.52892
#
# Velocity S-wave (km/s) = 3.50975 3.81342 3.66473
# Velocity P-wave (km/s) = 5.78591 6.06603 5.92763
#
# Compressibility (1/GPa) = 0.02860962
#
# Stress axis : x y z
#
# Youngs Moduli (GPa) = 65.74110 65.74110 84.60409
#
# Poissons Ratio (x) = 0.43336 0.00949
# Poissons Ratio (y) = 0.43336 0.00949
# Poissons Ratio (z) = 0.00737 0.00737
#
# Static dielectric constant tensor:
#      x y z
#    x 1.751250 0.000000 0.000000 
#    y 0.000000 1.751250 0.000000 
#    z 0.000000 0.000000 1.824130 
# 
# From -- ./inp_files/512.got.cif
#   From: 2010.05.17/outbox.cif.g08.bks.cpg/sg144_cif.got.tgz:512.got - 2010.05.20 13:46:34.
