data_PCOD9574383
_publ_section_title
;
Structure prediction by ZEFSAII (Michael W. Deem and Ramdas Pophale) SiO2 
 PCOD9574383
Probable space group: P 31
;
_chemical_formula_sum "Si O2"
_cell_formula_units_Z 15
_cell_length_a 10.245220
_cell_length_b 10.245220
_cell_length_c 6.677420
_cell_angle_alpha 90.000000
_cell_angle_beta 90.000000
_cell_angle_gamma 120.000000
_cell_volume 606.990512
_symmetry_space_group_name_H-M "P 31"
_symmetry_group_IT_number 144
_symmetry_cell_setting 'hexagonal'
loop_
_space_group_symop_operation_xyz
x,y,z
-y,x-y,1/3+z
-x+y,-x,2/3+z
loop_
_atom_site_type_symbol
_atom_site_label
_atom_site_fract_x
_atom_site_fract_y
_atom_site_fract_z
Si Si1 0.780969 0.309968 0.514850
Si Si2 0.466460 0.672647 0.133298
Si Si3 0.246354 0.919623 0.138532
Si Si4 0.117853 0.108425 0.946793
Si Si5 0.344898 0.361458 0.209587
O O1 0.743685 0.412968 0.656929
O O2 0.955645 0.379128 0.450634
O O3 0.737879 0.152119 0.627887
O O4 0.403218 0.742105 0.292610
O O5 0.480969 0.531821 0.208249
O O6 0.622644 0.776725 0.021960
O O7 0.159834 0.007396 0.090123
O O8 0.164776 0.779470 0.990886
O O9 0.255138 0.272644 0.009088
O O10 0.961297 0.071866 0.059642
#
# Coordination Sequence:
#
# PCOD9574383 Si02
#       5
#     3   3   3   3   3
#     4  11  24  44  72 102 137 178 226 289 350 406
#     4  12  24  38  62  88 124 172 216 266 328 396
#     4  10  22  44  63  94 134 169 223 272 334 411
#     4   9  20  38  62  90 121 160 210 267 324 390
#     4  10  22  44  63  94 134 169 223 272 334 411
#
# _framework density 24.712081999999999
#
# number of rings (size 3 to 8) (size 9 to 14) (size 15 to 20)
#    0.000    1.600    4.000    0.000    2.800    3.200 
#    0.000    4.000    0.000    0.000    0.000    0.000 
#    0.000    0.000    0.000    0.000    0.000    0.000 
#
# Total GULP energy -83567.109103 kJ/mol
# GULP energy per Si atom -5571.140607 kJ/mol
# Density = 2.465584 g / cm^3
# Si number density = 24.712082 Si / 1000 Ang^3
#
#
#
# Elastic Constant Matrix: (Units=GPa)
#
#
# Indices 1 2 3 4 5 6 
#
# 1 68.5447 -4.9370 14.9675 -3.6353 0.5054 0.0000
# 2 -4.9370 68.5447 14.9675 3.6353 -0.5054 0.0000
# 3 14.9675 14.9675 42.1225 0.0000 0.0000 0.0000
# 4 -3.6353 3.6353 0.0000 26.1267 0.0000 -0.5054
# 5 0.5054 -0.5054 0.0000 0.0000 26.1267 -3.6353
# 6 0.0000 0.0000 0.0000 -0.5054 -3.6353 36.7409
#
#
#
# Elastic Compliance Matrix: (Units=1/GPa)
#
#
# Indices 1 2 3 4 5 6 
#
# 1 0.016340 0.002538 -0.006708 0.001920 -0.000267 0.000000
# 2 0.002538 0.016340 -0.006708 -0.001920 0.000267 0.000000
# 3 -0.006708 -0.006708 0.028508 0.000000 0.000000 0.000000
# 4 0.001920 -0.001920 0.000000 0.038820 0.000000 0.000534
# 5 -0.000267 0.000267 0.000000 0.000000 0.038820 0.003841
# 6 0.000000 0.000000 0.000000 0.000534 0.003841 0.027605
#
#
# Mechanical properties :
#
#
# Convention : Reuss Voigt Hill
#
# Bulk Modulus (GPa) = 25.36026 25.46756 25.41391
# Shear Modulus (GPa) = 24.83443 28.07979 26.45711
#
# Velocity S-wave (km/s) = 3.17354 3.37453 3.27557
# Velocity P-wave (km/s) = 4.86960 5.05088 4.96107
#
# Compressibility (1/GPa) = 0.03943178
#
# Stress axis : x y z
#
# Youngs Moduli (GPa) = 61.19796 61.19796 35.07847
#
# Poissons Ratio (x) = -0.15531 0.23531
# Poissons Ratio (y) = -0.15531 0.23531
# Poissons Ratio (z) = 0.41052 0.41052
#
# Static dielectric constant tensor:
#      x y z
#    x 2.012640 0.000000 0.000000 
#    y 0.000000 2.012640 0.000000 
#    z 0.000000 0.000000 2.070480 
# 
# From -- ./inp_files/59.got.cif
#   From: 2010.05.17/outbox.cif.g08.bks.cpg/sg144_cif.got.tgz:59.got - 2010.05.20 13:46:34.
