data_PCOD9574806
_publ_section_title
;
Structure prediction by ZEFSAII (Michael W. Deem and Ramdas Pophale) SiO2 
 PCOD9574806
Probable space group: R 3
;
_chemical_formula_sum "Si O2"
_cell_formula_units_Z 51
_cell_length_a 17.513414
_cell_length_b 17.513414
_cell_length_c 7.256887
_cell_angle_alpha 90.000000
_cell_angle_beta 90.000000
_cell_angle_gamma 120.000000
_cell_volume 1927.625312
_symmetry_space_group_name_H-M "R 3"
_symmetry_group_IT_number 146
_symmetry_cell_setting 'hexagonal'
loop_
_space_group_symop_operation_xyz
x,y,z
-y,x-y,z
-x+y,-x,z
2/3+x,1/3+y,1/3+z
2/3-y,1/3+x-y,1/3+z
2/3-x+y,1/3-x,1/3+z
1/3+x,2/3+y,2/3+z
1/3-y,2/3+x-y,2/3+z
1/3-x+y,2/3-x,2/3+z
loop_
_atom_site_type_symbol
_atom_site_label
_atom_site_fract_x
_atom_site_fract_y
_atom_site_fract_z
Si Si1 0.407461 0.978695 0.992720
Si Si2 0.205246 0.481300 0.803559
Si Si3 0.000000 0.000000 0.098252
Si Si4 0.921869 0.799733 0.528868
Si Si5 0.047034 0.634054 0.464687
Si Si6 0.362518 0.130901 0.033749
Si Si7 0.000000 0.000000 0.544341
O O1 0.490951 0.048984 0.881106
O O2 0.374987 0.046474 0.072794
O O3 0.342779 0.891185 0.883039
O O4 0.426754 0.932429 0.164743
O O5 0.252030 0.574854 0.710329
O O6 0.177501 0.404856 0.658934
O O7 0.264660 0.477506 0.971522
O O8 0.000000 0.000000 0.320999
O O9 0.978362 0.773381 0.658472
O O10 0.942944 0.896813 0.595463
O O11 0.045505 0.678939 0.659168
O O12 0.054180 0.545370 0.502110
#
# Coordination Sequence:
#
# PCOD9574806 Si02
#       7
#     9   9   3   9   9   9   3
#     4  12  23  41  69  99 132 178 235 290 344 419
#     4  11  23  42  69  99 131 181 236 291 349 422
#     4   9  24  42  67  98 133 174 226 293 355 418
#     4  11  22  42  68  97 136 180 233 289 351 420
#     4  12  27  46  70 107 146 190 234 293 364 427
#     4  12  24  44  65 102 134 180 237 286 355 421
#     4   9  21  39  70  98 124 183 235 290 352 421
#
# _framework density 26.457424
#
# number of rings (size 3 to 8) (size 9 to 14) (size 15 to 20)
#    0.000    0.706    5.294    2.118    4.941    1.412 
#    3.176    0.000    0.000    0.000    0.000    0.000 
#    0.000    0.000    0.000    0.000    0.000    0.000 
#
# Total GULP energy -94754.885486 kJ/mol
# GULP energy per Si atom -5573.816793 kJ/mol
# Density = 2.639721 g / cm^3
# Si number density = 26.457424 Si / 1000 Ang^3
#
#
#
# Elastic Constant Matrix: (Units=GPa)
#
#
# Indices 1 2 3 4 5 6 
#
# 1 75.5843 15.0560 -5.8855 -1.1989 4.9580 -0.0002
# 2 15.0560 75.5879 -5.8825 1.1980 -4.9611 -0.0003
# 3 -5.8855 -5.8825 75.4154 -0.0024 -0.0069 -0.0009
# 4 -1.1989 1.1980 -0.0024 29.5904 -0.0012 -4.9600
# 5 4.9580 -4.9611 -0.0069 -0.0012 29.5873 -1.1982
# 6 -0.0002 -0.0003 -0.0009 -4.9600 -1.1982 30.2647
#
#
#
# Elastic Compliance Matrix: (Units=1/GPa)
#
#
# Indices 1 2 3 4 5 6 
#
# 1 0.014081 -0.002935 0.000870 0.000689 -0.002851 0.000000
# 2 -0.002935 0.014080 0.000869 -0.000689 0.002853 0.000000
# 3 0.000870 0.000869 0.013396 0.000001 0.000003 0.000001
# 4 0.000689 -0.000689 0.000001 0.034807 0.000001 0.005704
# 5 -0.002851 0.002853 0.000003 0.000001 0.034810 0.001378
# 6 0.000000 0.000000 0.000001 0.005704 0.001378 0.034031
#
#
# Mechanical properties :
#
#
# Convention : Reuss Voigt Hill
#
# Bulk Modulus (GPa) = 25.53338 25.90709 25.72023
# Shear Modulus (GPa) = 31.12334 32.77512 31.94923
#
# Velocity S-wave (km/s) = 3.43353 3.52346 3.47878
# Velocity P-wave (km/s) = 5.03890 5.13481 5.08708
#
# Compressibility (1/GPa) = 0.03916442
#
# Stress axis : x y z
#
# Youngs Moduli (GPa) = 71.01975 71.02238 74.65153
#
# Poissons Ratio (x) = 0.20845 -0.06492
# Poissons Ratio (y) = 0.20845 -0.06491
# Poissons Ratio (z) = -0.06176 -0.06175
#
# Static dielectric constant tensor:
#      x y z
#    x 2.169980 0.000000 0.000000 
#    y 0.000000 2.169980 0.000000 
#    z 0.000000 0.000000 2.054470 
# 
# From -- ./inp_files/663.got.cif
#   From: 2010.05.17/outbox.cif.g08.bks.cpg/sg146_cif.got.tgz:663.got - 2010.05.20 13:48:23.
