data_PCOD9574615
_publ_section_title
;
Structure prediction by ZEFSAII (Michael W. Deem and Ramdas Pophale) SiO2 
 PCOD9574615
Probable space group: P 32
;
_chemical_formula_sum "Si O2"
_cell_formula_units_Z 18
_cell_length_a 12.446542
_cell_length_b 12.446542
_cell_length_c 4.824020
_cell_angle_alpha 90.000000
_cell_angle_beta 90.000000
_cell_angle_gamma 120.000000
_cell_volume 647.197974
_symmetry_space_group_name_H-M "P 32"
_symmetry_group_IT_number 145
_symmetry_cell_setting 'hexagonal'
loop_
_space_group_symop_operation_xyz
x,y,z
-y,x-y,2/3+z
-x+y,-x,1/3+z
loop_
_atom_site_type_symbol
_atom_site_label
_atom_site_fract_x
_atom_site_fract_y
_atom_site_fract_z
Si Si1 0.278777 0.940026 0.200420
Si Si2 0.866211 0.503915 0.763410
Si Si3 0.036194 0.704663 0.359599
Si Si4 0.497978 0.122639 0.573156
Si Si5 0.906143 0.857465 0.157641
Si Si6 0.397359 0.808978 0.846892
O O1 0.159834 0.838751 0.365692
O O2 0.366339 0.029923 0.442116
O O3 0.225878 0.995459 0.970073
O O4 0.354846 0.883183 0.048499
O O5 0.898889 0.498311 0.080319
O O6 0.728418 0.476779 0.781100
O O7 0.961768 0.635915 0.637724
O O8 0.870137 0.401657 0.561388
O O9 0.107172 0.622075 0.319553
O O10 0.948358 0.752731 0.222280
O O11 0.920215 0.995472 0.237364
O O12 0.276127 0.712604 0.683773
#
# Coordination Sequence:
#
# PCOD9574615 Si02
#       6
#     3   3   3   3   3   3
#     4  11  25  45  70 107 145 190 250 306 378 449
#     4  12  26  49  76 110 147 194 247 313 375 445
#     4  11  25  45  70 107 145 190 250 306 378 449
#     4  12  26  49  76 110 147 194 247 313 375 445
#     4  10  24  50  72 102 140 192 256 306 372 438
#     4  12  26  44  70 100 142 194 246 312 380 444
#
# _framework density 27.812204000000001
#
# number of rings (size 3 to 8) (size 9 to 14) (size 15 to 20)
#    0.000    0.667    5.000    2.000    7.000    0.000 
#    6.000    0.000    0.000    0.000    0.000    0.000 
#    0.000    0.000    0.000    0.000    0.000    0.000 
#
# Total GULP energy -100230.474638 kJ/mol
# GULP energy per Si atom -5568.359702 kJ/mol
# Density = 2.774890 g / cm^3
# Si number density = 27.812204 Si / 1000 Ang^3
#
#
#
# Elastic Constant Matrix: (Units=GPa)
#
#
# Indices 1 2 3 4 5 6 
#
# 1 -138.5474 293.7651 42.0585 -31.5515 38.7497 0.0000
# 2 293.7651 -138.5474 42.0585 31.5515 -38.7497 0.0000
# 3 42.0585 42.0585 82.3561 0.0000 0.0000 0.0000
# 4 -31.5515 31.5515 0.0000 2.4330 0.0000 -38.7497
# 5 38.7497 -38.7497 0.0000 0.0000 2.4330 -31.5515
# 6 0.0000 0.0000 0.0000 -38.7497 -31.5515 -216.1563
#
#
#
# Elastic Compliance Matrix: (Units=1/GPa)
#
#
# Indices 1 2 3 4 5 6 
#
# 1 0.004253 0.004655 -0.004549 -0.005219 0.006409 0.000000
# 2 0.004655 0.004253 -0.004549 0.005219 -0.006409 0.000000
# 3 -0.004549 -0.004549 0.016789 0.000000 0.000000 0.000000
# 4 -0.005219 0.005219 0.000000 0.071505 0.000000 -0.012819
# 5 0.006409 -0.006409 0.000000 0.000000 0.071505 -0.010437
# 6 0.000000 0.000000 0.000000 -0.012819 -0.010437 -0.000805
#
#
# Mechanical properties :
#
#
# Convention : Reuss Voigt Hill
#
# Bulk Modulus (GPa) = 60.94622 62.33618 61.64120
# Shear Modulus (GPa) = 27.49435 -80.43279 -26.46922
#
# Velocity S-wave (km/s) = 3.14757 -5.38356 -3.08833
# Velocity P-wave (km/s) = 5.93048 4.02265 3.08130
#
# Compressibility (1/GPa) = 0.01640791
#
# Stress axis : x y z
#
# Youngs Moduli (GPa) = 235.14241 235.14241 59.56329
#
# Poissons Ratio (x) = -1.09463 0.27096
# Poissons Ratio (y) = -1.09463 0.27096
# Poissons Ratio (z) = 1.06971 1.06971
#
# Static dielectric constant tensor:
#      x y z
#    x 2.857000 0.000000 0.000000 
#    y 0.000000 2.857000 0.000000 
#    z 0.000000 0.000000 2.160740 
# 
# From -- ./inp_files/110.got.cif
#   From: 2010.05.17/outbox.cif.g08.bks.cpg/sg145_cif.got.tgz:110.got - 2010.05.20 13:47:28.
