data_PCOD9574491
_publ_section_title
;
Structure prediction by ZEFSAII (Michael W. Deem and Ramdas Pophale) SiO2 
 PCOD9574491
Probable space group: P 31
;
_chemical_formula_sum "Si O2"
_cell_formula_units_Z 24
_cell_length_a 13.248245
_cell_length_b 13.248245
_cell_length_c 6.745675
_cell_angle_alpha 90.000000
_cell_angle_beta 90.000000
_cell_angle_gamma 120.000000
_cell_volume 1025.351443
_symmetry_space_group_name_H-M "P 31"
_symmetry_group_IT_number 144
_symmetry_cell_setting 'hexagonal'
loop_
_space_group_symop_operation_xyz
x,y,z
-y,x-y,1/3+z
-x+y,-x,2/3+z
loop_
_atom_site_type_symbol
_atom_site_label
_atom_site_fract_x
_atom_site_fract_y
_atom_site_fract_z
Si Si1 0.848761 0.770909 0.292330
Si Si2 0.221174 0.613958 0.739007
Si Si3 0.556192 0.248262 0.057030
Si Si4 0.052334 0.837396 0.583188
Si Si5 0.629235 0.627873 0.572520
Si Si6 0.756788 0.093239 0.599008
Si Si7 0.247050 0.865105 0.281945
Si Si8 0.096367 0.622793 0.087616
O O1 0.875105 0.903821 0.301804
O O2 0.728149 0.686224 0.405176
O O3 0.951677 0.774898 0.422415
O O4 0.854368 0.724280 0.074655
O O5 0.309616 0.601604 0.887810
O O6 0.116165 0.487265 0.680898
O O7 0.159178 0.664237 0.875179
O O8 0.616036 0.343513 0.883017
O O9 0.489216 0.115716 0.978775
O O10 0.448863 0.255666 0.155013
O O11 0.170754 0.866104 0.464158
O O12 0.999371 0.758312 0.777983
O O13 0.666052 0.722908 0.750986
O O14 0.498848 0.583170 0.490799
O O15 0.643035 0.025819 0.735501
O O16 0.178141 0.729289 0.225224
#
# Coordination Sequence:
#
# PCOD9574491 Si02
#       8
#     3   3   3   3   3   3   3   3
#     4  12  29  50  77 113 153 204 265 335 397 481
#     4  12  23  42  69 106 152 196 250 308 379 466
#     4  12  30  50  81 113 159 206 268 326 407 483
#     4  12  28  48  78 106 155 199 262 326 402 470
#     4  12  28  50  79 116 161 207 267 329 401 488
#     4  12  28  50  79 115 151 206 268 325 404 479
#     4  12  25  48  74 113 154 202 261 320 396 476
#     4  12  25  44  77 106 153 202 255 319 398 467
#
# _framework density 23.406609
#
# number of rings (size 3 to 8) (size 9 to 14) (size 15 to 20)
#    0.000    0.000    3.750    5.250   10.500    0.000 
#    0.000    0.000    0.000    0.000    0.000    0.000 
#    0.000    0.000    0.000    0.000    0.000    0.000 
#
# Total GULP energy -134171.901980 kJ/mol
# GULP energy per Si atom -5590.495916 kJ/mol
# Density = 2.335333 g / cm^3
# Si number density = 23.406609 Si / 1000 Ang^3
#
#
#
# Elastic Constant Matrix: (Units=GPa)
#
#
# Indices 1 2 3 4 5 6 
#
# 1 103.8843 26.1325 59.8328 2.7497 4.5383 0.0000
# 2 26.1325 103.8843 59.8328 -2.7497 -4.5383 0.0000
# 3 59.8328 59.8328 145.7089 0.0000 0.0000 0.0000
# 4 2.7497 -2.7497 0.0000 42.1566 0.0000 -4.5383
# 5 4.5383 -4.5383 0.0000 0.0000 42.1566 2.7497
# 6 0.0000 0.0000 0.0000 -4.5383 2.7497 38.8759
#
#
#
# Elastic Compliance Matrix: (Units=1/GPa)
#
#
# Indices 1 2 3 4 5 6 
#
# 1 0.012725 -0.000361 -0.005077 -0.000854 -0.001409 0.000000
# 2 -0.000361 0.012725 -0.005077 0.000854 0.001409 0.000000
# 3 -0.005077 -0.005077 0.011033 0.000000 0.000000 0.000000
# 4 -0.000854 0.000854 0.000000 0.024136 0.000000 0.002818
# 5 -0.001409 0.001409 0.000000 0.000000 0.024136 -0.001707
# 6 0.000000 0.000000 0.000000 0.002818 -0.001707 0.026173
#
#
# Mechanical properties :
#
#
# Convention : Reuss Voigt Hill
#
# Bulk Modulus (GPa) = 64.71423 71.67485 68.19454
# Shear Modulus (GPa) = 36.46742 38.48314 37.47528
#
# Velocity S-wave (km/s) = 3.95143 4.05917 4.00566
# Velocity P-wave (km/s) = 6.96608 7.25653 7.11279
#
# Compressibility (1/GPa) = 0.01545255
#
# Stress axis : x y z
#
# Youngs Moduli (GPa) = 78.58386 78.58386 90.63979
#
# Poissons Ratio (x) = 0.02837 0.46019
# Poissons Ratio (y) = 0.02837 0.46019
# Poissons Ratio (z) = 0.39898 0.39898
#
# Static dielectric constant tensor:
#      x y z
#    x 1.948570 0.000000 0.000000 
#    y 0.000000 1.948570 0.000000 
#    z 0.000000 0.000000 1.934010 
# 
# From -- ./inp_files/139.got.cif
#   From: 2010.05.17/outbox.cif.g08.bks.cpg/sg144_cif.got.tgz:139.got - 2010.05.20 13:46:34.
