data_PCOD9574017
_publ_section_title
;
Structure prediction by ZEFSAII (Michael W. Deem and Ramdas Pophale) SiO2 
 PCOD9574017
Probable space group: I 41/A C D
;
_chemical_formula_sum "Si O2"
_cell_formula_units_Z 96
_cell_length_a 13.258885
_cell_length_b 13.258885
_cell_length_c 21.922930
_cell_angle_alpha 90.000000
_cell_angle_beta 90.000000
_cell_angle_gamma 90.000000
_cell_volume 3854.007937
_symmetry_space_group_name_H-M "I 41/A C D"
_symmetry_group_IT_number 142
_space_group.IT_coordinate_system_code '2'
_symmetry_cell_setting 'tetragonal'
loop_
_space_group_symop_operation_xyz
x,y,z
1/4-y,3/4+x,1/4+z
-x,1/2-y,z
1/4+y,1/4-x,3/4+z
x,-y,1/2-z
1/2-x,y,-z
3/4+y,1/4+x,1/4-z
1/4-y,1/4-x,1/4-z
-x,-y,-z
3/4+y,1/4-x,3/4-z
x,1/2+y,-z
3/4-y,3/4+x,1/4-z
-x,y,1/2+z
1/2+x,-y,z
1/4-y,3/4-x,3/4+z
3/4+y,3/4+x,3/4+z
1/2+x,1/2+y,1/2+z
3/4-y,1/4+x,3/4+z
1/2-x,-y,1/2+z
3/4+y,3/4-x,1/4+z
1/2+x,1/2-y,-z
-x,1/2+y,1/2-z
1/4+y,3/4+x,3/4-z
3/4-y,3/4-x,3/4-z
1/2-x,1/2-y,1/2-z
1/4+y,3/4-x,1/4-z
1/2+x,y,1/2-z
1/4-y,1/4+x,3/4-z
1/2-x,1/2+y,z
x,1/2-y,1/2+z
3/4-y,1/4-x,1/4+z
1/4+y,1/4+x,1/4+z
loop_
_atom_site_type_symbol
_atom_site_label
_atom_site_fract_x
_atom_site_fract_y
_atom_site_fract_z
Si Si1 0.064459 0.402062 0.279555
Si Si2 0.431196 0.111905 0.992678
Si Si3 0.566282 0.977942 0.600372
O O1 0.115951 0.500000 0.250000
O O2 0.111756 0.291531 0.272424
O O3 0.048771 0.437203 0.348685
O O4 0.960577 0.385865 0.242362
O O5 0.386872 0.034009 0.041342
O O6 0.463349 0.070419 0.926795
O O7 0.639701 0.889701 0.625000
#
# Coordination Sequence:
#
# PCOD9574017 Si02
#       3
#    32  32  32
#     4  11  22  44  70 103 141 194 238 297 372 433
#     4  10  24  44  69 103 147 187 242 299 368 433
#     4  11  22  43  70 103 143 188 240 299 355 440
#
# _framework density 24.909134999999999
#
# number of rings (size 3 to 8) (size 9 to 14) (size 15 to 20)
#    0.000    1.333    3.333    2.000    0.000    4.000 
#   18.000    0.000    0.000    0.000    0.000    0.000 
#    0.000    0.000    0.000    0.000    0.000    0.000 
#
# Total GULP energy -268065.548400 kJ/mol
# GULP energy per Si atom -5584.698925 kJ/mol
# Density = 2.485244 g / cm^3
# Si number density = 24.909135 Si / 1000 Ang^3
#
#
#
# Elastic Constant Matrix: (Units=GPa)
#
#
# Indices 1 2 3 4 5 6 
#
# 1 90.6208 19.4447 17.5981 0.0000 0.0000 0.0000
# 2 19.4447 90.6208 17.5981 0.0000 0.0000 0.0000
# 3 17.5981 17.5981 97.3817 0.0000 0.0000 0.0000
# 4 0.0000 0.0000 0.0000 45.2579 0.0000 0.0000
# 5 0.0000 0.0000 0.0000 0.0000 45.2579 0.0000
# 6 0.0000 0.0000 0.0000 0.0000 0.0000 28.4760
#
#
#
# Elastic Compliance Matrix: (Units=1/GPa)
#
#
# Indices 1 2 3 4 5 6 
#
# 1 0.011846 -0.002203 -0.001743 0.000000 0.000000 0.000000
# 2 -0.002203 0.011846 -0.001743 0.000000 0.000000 0.000000
# 3 -0.001743 -0.001743 0.010899 0.000000 0.000000 0.000000
# 4 0.000000 0.000000 0.000000 0.022096 0.000000 0.000000
# 5 0.000000 0.000000 0.000000 0.000000 0.022096 0.000000
# 6 0.000000 0.000000 0.000000 0.000000 0.000000 0.035117
#
#
# Mechanical properties :
#
#
# Convention : Reuss Voigt Hill
#
# Bulk Modulus (GPa) = 43.07767 43.10057 43.08912
# Shear Modulus (GPa) = 37.58985 38.73052 38.16018
#
# Velocity S-wave (km/s) = 3.88890 3.94746 3.91829
# Velocity P-wave (km/s) = 6.12341 6.17392 6.14872
#
# Compressibility (1/GPa) = 0.02321388
#
# Stress axis : x y z
#
# Youngs Moduli (GPa) = 84.41530 84.41530 91.75425
#
# Poissons Ratio (x) = 0.18601 0.15989
# Poissons Ratio (y) = 0.18601 0.15989
# Poissons Ratio (z) = 0.14710 0.14710
#
# Static dielectric constant tensor:
#      x y z
#    x 2.017700 0.000000 0.000000 
#    y 0.000000 2.017700 0.000000 
#    z 0.000000 0.000000 2.035820 
# 
# From -- ./inp_files/8401.got.cif
#   From: 2010.05.17/outbox.cif.g08.bks.cpg/sg142_5_cif.got.tgz:8401.got - 2010.05.20 13:39:18.
