data_PCOD9574248
_publ_section_title
;
Structure prediction by ZEFSAII (Michael W. Deem and Ramdas Pophale) SiO2 
 PCOD9574248
Probable space group: I 41/A C D
;
_chemical_formula_sum "Si O2"
_cell_formula_units_Z 72
_cell_length_a 18.000000
_cell_length_b 18.000000
_cell_length_c 24.000000
_cell_angle_alpha 90.000000
_cell_angle_beta 90.000000
_cell_angle_gamma 90.000000
_cell_volume 7776.000000
_symmetry_space_group_name_H-M "I 41/A C D"
_symmetry_group_IT_number 142
_space_group.IT_coordinate_system_code '2'
_symmetry_cell_setting 'tetragonal'
loop_
_space_group_symop_operation_xyz
x,y,z
1/4-y,3/4+x,1/4+z
-x,1/2-y,z
1/4+y,1/4-x,3/4+z
x,-y,1/2-z
1/2-x,y,-z
3/4+y,1/4+x,1/4-z
1/4-y,1/4-x,1/4-z
-x,-y,-z
3/4+y,1/4-x,3/4-z
x,1/2+y,-z
3/4-y,3/4+x,1/4-z
-x,y,1/2+z
1/2+x,-y,z
1/4-y,3/4-x,3/4+z
3/4+y,3/4+x,3/4+z
1/2+x,1/2+y,1/2+z
3/4-y,1/4+x,3/4+z
1/2-x,-y,1/2+z
3/4+y,3/4-x,1/4+z
1/2+x,1/2-y,-z
-x,1/2+y,1/2-z
1/4+y,3/4+x,3/4-z
3/4-y,3/4-x,3/4-z
1/2-x,1/2-y,1/2-z
1/4+y,3/4-x,1/4-z
1/2+x,y,1/2-z
1/4-y,1/4+x,3/4-z
1/2-x,1/2+y,z
x,1/2-y,1/2+z
3/4-y,1/4-x,1/4+z
1/4+y,1/4+x,1/4+z
loop_
_atom_site_type_symbol
_atom_site_label
_atom_site_fract_x
_atom_site_fract_y
_atom_site_fract_z
Si Si1 0.013883 0.662833 0.275556
Si Si2 0.165289 0.524195 0.479636
Si Si3 0.389434 0.869093 0.442194
Si Si4 0.643480 0.683296 0.314597
Si Si5 0.620343 0.129658 0.875000
O O1 0.075263 0.659010 0.225932
O O2 0.046062 0.629640 0.334411
O O3 0.000000 0.750000 0.287181
O O4 0.941407 0.633117 0.242426
O O5 0.250000 0.543249 0.500000
O O6 0.159363 0.439263 0.460186
O O7 0.109486 0.540138 0.532004
O O8 0.135901 0.569429 0.424452
O O9 0.367968 0.839750 0.379650
O O10 0.476739 0.893964 0.438485
#
# Coordination Sequence:
#
# PCOD9574248 Si02
#       5
#    32  32  32  32  16
#     4   9  19  35  66  97 125 155 216 272 321 375
#     4  11  24  41  59  90 136 178 214 260 322 392
#     4  11  20  39  65  98 127 163 218 269 324 380
#     4  10  20  37  66  94 123 172 213 266 325 390
#     4  10  21  42  64  88 128 178 209 258 318 384
#
# _framework density 9.2592590000000001
#
# number of rings (size 3 to 8) (size 9 to 14) (size 15 to 20)
#    0.000    1.778    2.222    2.333    0.000    0.000 
#    4.000    1.111   19.556    0.000    0.000    0.000 
#    0.000    0.000    0.000    0.000    0.000    0.000 
#
# Total GULP energy -400888.803188 kJ/mol
# GULP energy per Si atom -5567.900044 kJ/mol
# Density = 0.923818 g / cm^3
# Si number density = 9.259259 Si / 1000 Ang^3
#
#
#
# Elastic Constant Matrix: (Units=GPa)
#
#
# Indices 1 2 3 4 5 6 
#
# 1 65.9586 7.4556 41.5139 0.0000 0.0000 0.0000
# 2 7.4556 65.9587 41.5139 0.0000 0.0000 0.0000
# 3 41.5139 41.5139 171.9128 0.0000 0.0000 0.0000
# 4 0.0000 0.0000 0.0000 40.3012 0.0000 0.0000
# 5 0.0000 0.0000 0.0000 0.0000 40.3012 0.0000
# 6 0.0000 0.0000 0.0000 0.0000 0.0000 24.5983
#
#
#
# Elastic Compliance Matrix: (Units=1/GPa)
#
#
# Indices 1 2 3 4 5 6 
#
# 1 0.017916 0.000823 -0.004525 0.000000 0.000000 0.000000
# 2 0.000823 0.017916 -0.004525 0.000000 0.000000 0.000000
# 3 -0.004525 -0.004525 0.008002 0.000000 0.000000 0.000000
# 4 0.000000 0.000000 0.000000 0.024813 0.000000 0.000000
# 5 0.000000 0.000000 0.000000 0.000000 0.024813 0.000000
# 6 0.000000 0.000000 0.000000 0.000000 0.000000 0.040653
#
#
# Mechanical properties :
#
#
# Convention : Reuss Voigt Hill
#
# Bulk Modulus (GPa) = 36.52317 53.86631 45.19474
# Shear Modulus (GPa) = 31.30961 35.26325 33.28643
#
# Velocity S-wave (km/s) = 4.11630 4.36847 4.24425
# Velocity P-wave (km/s) = 6.50824 7.38888 6.96250
#
# Compressibility (1/GPa) = 0.02737988
#
# Stress axis : x y z
#
# Youngs Moduli (GPa) = 55.81572 55.81579 124.96276
#
# Poissons Ratio (x) = -0.04593 0.56547
# Poissons Ratio (y) = -0.04593 0.56547
# Poissons Ratio (z) = 0.25257 0.25257
#
# Static dielectric constant tensor:
#      x y z
#    x 1.677040 0.000000 0.000000 
#    y 0.000000 1.677040 0.000000 
#    z 0.000000 0.000000 1.609080 
# 
# From -- ./inp_files/10101.got.cif
#   From: 2010.05.17/outbox.ucp.g08.bks.cvg/sg142_6_cif.got.tgz:10101.got - 2010.06.11 11:43:53.
