data_PCOD9574980
_publ_section_title
;
Structure prediction by ZEFSAII (Michael W. Deem and Ramdas Pophale) SiO2 
 PCOD9574980
Probable space group: P -3
;
_chemical_formula_sum "Si O2"
_cell_formula_units_Z 30
_cell_length_a 13.436723
_cell_length_b 13.436723
_cell_length_c 10.117988
_cell_angle_alpha 90.000000
_cell_angle_beta 90.000000
_cell_angle_gamma 120.000000
_cell_volume 1582.018363
_symmetry_space_group_name_H-M "P -3"
_symmetry_group_IT_number 147
_symmetry_cell_setting 'hexagonal'
loop_
_space_group_symop_operation_xyz
x,y,z
-y,x-y,z
-x+y,-x,z
-x,-y,-z
y,-x+y,-z
x-y,x,-z
loop_
_atom_site_type_symbol
_atom_site_label
_atom_site_fract_x
_atom_site_fract_y
_atom_site_fract_z
Si Si1 0.515514 0.869437 0.147623
Si Si2 0.646077 0.515514 0.147623
Si Si3 0.268340 0.203525 0.500000
Si Si4 0.430029 0.317665 0.754100
Si Si5 0.430029 0.317665 0.245900
O O1 0.559729 0.782488 0.176280
O O2 0.421864 0.859150 0.255527
O O3 0.621912 0.997267 0.159631
O O4 0.464792 0.849672 1.000000
O O5 0.624646 0.621912 0.159631
O O6 0.562715 0.421865 0.255527
O O7 0.777242 0.559729 0.176280
O O8 0.159797 0.226237 0.500000
O O9 0.351220 0.265765 0.625373
O O10 0.351220 0.265765 0.374627
#
# Coordination Sequence:
#
# PCOD9574980 Si02
#       5
#     6   6   6   6   6
#     4  11  22  40  64  97 132 165 213 269 329 392
#     4  11  22  40  64  97 132 165 213 269 329 392
#     4  12  25  47  69  93 131 170 224 274 320 381
#     4  11  23  39  66  92 129 176 212 263 326 384
#     4  11  23  39  66  92 129 176 212 263 326 384
#
# _framework density 18.963117
#
# number of rings (size 3 to 8) (size 9 to 14) (size 15 to 20)
#    0.000    0.800    4.000    5.800    0.000    4.800 
#    0.000    0.000    0.000    0.000    0.000    5.600 
#    0.000    0.000    0.000    0.000    0.000    0.000 
#
# Total GULP energy -167317.266161 kJ/mol
# GULP energy per Si atom -5577.242205 kJ/mol
# Density = 1.891996 g / cm^3
# Si number density = 18.963117 Si / 1000 Ang^3
#
#
#
# Elastic Constant Matrix: (Units=GPa)
#
#
# Indices 1 2 3 4 5 6 
#
# 1 121.7564 69.1756 40.4337 0.0000 0.0000 0.0000
# 2 69.1756 121.7564 40.4337 0.0000 0.0000 0.0000
# 3 40.4337 40.4337 97.9675 0.0000 0.0000 0.0000
# 4 0.0000 0.0000 0.0000 30.4860 0.0000 0.0000
# 5 0.0000 0.0000 0.0000 0.0000 30.4860 0.0000
# 6 0.0000 0.0000 0.0000 0.0000 0.0000 26.2904
#
#
#
# Elastic Compliance Matrix: (Units=1/GPa)
#
#
# Indices 1 2 3 4 5 6 
#
# 1 0.012683 -0.006336 -0.002620 0.000000 0.000000 0.000000
# 2 -0.006336 0.012683 -0.002620 0.000000 0.000000 0.000000
# 3 -0.002620 -0.002620 0.012370 0.000000 0.000000 0.000000
# 4 0.000000 0.000000 0.000000 0.032802 0.000000 0.000000
# 5 0.000000 0.000000 0.000000 0.000000 0.032802 0.000000
# 6 0.000000 0.000000 0.000000 0.000000 0.000000 0.038037
#
#
# Mechanical properties :
#
#
# Convention : Reuss Voigt Hill
#
# Bulk Modulus (GPa) = 68.56132 71.28513 69.92323
# Shear Modulus (GPa) = 29.51820 30.21497 29.86659
#
# Velocity S-wave (km/s) = 3.94967 3.99602 3.97291
# Velocity P-wave (km/s) = 7.55205 7.67880 7.61569
#
# Compressibility (1/GPa) = 0.01458548
#
# Stress axis : x y z
#
# Youngs Moduli (GPa) = 78.84788 78.84788 80.84216
#
# Poissons Ratio (x) = 0.49956 0.21177
# Poissons Ratio (y) = 0.49956 0.21177
# Poissons Ratio (z) = 0.20655 0.20655
#
# Static dielectric constant tensor:
#      x y z
#    x 1.664620 0.000000 0.000000 
#    y 0.000000 1.664620 0.000000 
#    z 0.000000 0.000000 1.645540 
# 
# From -- ./inp_files/493.got.cif
#   From: 2010.05.17/outbox.cif.g08.bks.cpg/sg147_cif.got.tgz:493.got - 2010.05.20 13:49:32.
