data_PCOD9574630
_publ_section_title
;
Structure prediction by ZEFSAII (Michael W. Deem and Ramdas Pophale) SiO2 
 PCOD9574630
Probable space group: P 32
;
_chemical_formula_sum "Si O2"
_cell_formula_units_Z 24
_cell_length_a 14.259549
_cell_length_b 14.259549
_cell_length_c 6.430270
_cell_angle_alpha 90.000000
_cell_angle_beta 90.000000
_cell_angle_gamma 120.000000
_cell_volume 1132.325846
_symmetry_space_group_name_H-M "P 32"
_symmetry_group_IT_number 145
_symmetry_cell_setting 'hexagonal'
loop_
_space_group_symop_operation_xyz
x,y,z
-y,x-y,2/3+z
-x+y,-x,1/3+z
loop_
_atom_site_type_symbol
_atom_site_label
_atom_site_fract_x
_atom_site_fract_y
_atom_site_fract_z
Si Si1 0.364678 0.133184 0.488130
Si Si2 0.998400 0.482610 0.283142
Si Si3 0.973004 0.133148 0.442255
Si Si4 0.813778 0.959882 0.750400
Si Si5 0.714846 0.759236 0.495815
Si Si6 0.122065 0.642590 0.902980
Si Si7 0.152056 0.492042 0.636576
Si Si8 0.937993 0.615720 0.592368
O O1 0.438556 0.081755 0.556360
O O2 0.274421 0.109787 0.664366
O O3 0.423876 0.254630 0.399333
O O4 0.290300 0.063344 0.296340
O O5 0.939286 0.531218 0.427300
O O6 0.097829 0.489600 0.418682
O O7 0.055790 0.563021 0.090486
O O8 0.060274 0.138771 0.274722
O O9 0.036128 0.224632 0.615562
O O10 0.903547 0.023430 0.572672
O O11 0.719218 0.850624 0.645914
O O12 0.760151 0.030471 0.817263
O O13 0.599860 0.657901 0.442821
O O14 0.188149 0.600654 0.762296
O O15 0.214788 0.759700 0.970808
O O16 0.035731 0.645099 0.750466
#
# Coordination Sequence:
#
# PCOD9574630 Si02
#       8
#     3   3   3   3   3   3   3   3
#     4  11  24  46  74  98 137 190 236 298 364 415
#     4  11  25  47  73 101 141 187 240 303 364 434
#     4  11  25  43  68 101 148 188 231 287 340 433
#     4  11  26  43  67 105 142 191 232 284 348 422
#     4  11  22  42  69  96 139 186 228 279 348 425
#     4  11  26  41  71 103 143 186 232 297 359 435
#     4  11  24  42  67 103 140 181 235 282 361 437
#     4  11  26  46  71 105 136 185 246 292 358 427
#
# _framework density 21.195311
#
# number of rings (size 3 to 8) (size 9 to 14) (size 15 to 20)
#    0.000    1.000    3.750    1.500    8.750    2.000 
#    0.000    0.000    2.750    0.000    0.000    0.000 
#    0.000    0.000    0.000    0.000    0.000    0.000 
#
# Total GULP energy -134043.351528 kJ/mol
# GULP energy per Si atom -5585.139647 kJ/mol
# Density = 2.114707 g / cm^3
# Si number density = 21.195311 Si / 1000 Ang^3
#
#
#
# Elastic Constant Matrix: (Units=GPa)
#
#
# Indices 1 2 3 4 5 6 
#
# 1 78.0183 42.0027 49.4945 1.8023 -0.7824 0.0000
# 2 42.0027 78.0183 49.4945 -1.8023 0.7824 0.0000
# 3 49.4945 49.4945 120.4300 0.0000 0.0000 0.0000
# 4 1.8023 -1.8023 0.0000 32.6746 0.0000 0.7824
# 5 -0.7824 0.7824 0.0000 0.0000 32.6746 1.8023
# 6 0.0000 0.0000 0.0000 0.7824 1.8023 18.0078
#
#
#
# Elastic Compliance Matrix: (Units=1/GPa)
#
#
# Indices 1 2 3 4 5 6 
#
# 1 0.020277 -0.007672 -0.005180 -0.001542 0.000669 0.000000
# 2 -0.007672 0.020277 -0.005180 0.001542 -0.000669 0.000000
# 3 -0.005180 -0.005180 0.012561 0.000000 0.000000 0.000000
# 4 -0.001542 0.001542 0.000000 0.030807 0.000000 -0.001338
# 5 0.000669 -0.000669 0.000000 0.000000 0.030807 -0.003083
# 6 0.000000 0.000000 0.000000 -0.001338 -0.003083 0.055898
#
#
# Mechanical properties :
#
#
# Convention : Reuss Voigt Hill
#
# Bulk Modulus (GPa) = 58.65279 62.04998 60.35139
# Shear Modulus (GPa) = 23.54321 25.70306 24.62313
#
# Velocity S-wave (km/s) = 3.33644 3.48613 3.41211
# Velocity P-wave (km/s) = 6.52496 6.74856 6.63770
#
# Compressibility (1/GPa) = 0.01704949
#
# Stress axis : x y z
#
# Youngs Moduli (GPa) = 49.31769 49.31769 79.60870
#
# Poissons Ratio (x) = 0.37839 0.41238
# Poissons Ratio (y) = 0.37839 0.41238
# Poissons Ratio (z) = 0.25547 0.25547
#
# Static dielectric constant tensor:
#      x y z
#    x 1.808470 0.000000 0.000000 
#    y 0.000000 1.808470 0.000000 
#    z 0.000000 0.000000 1.777990 
# 
# From -- ./inp_files/146.got.cif
#   From: 2010.05.17/outbox.cif.g08.bks.cpg/sg145_cif.got.tgz:146.got - 2010.05.20 13:47:28.
