data_PCOD9574324
_publ_section_title
;
Structure prediction by ZEFSAII (Michael W. Deem and Ramdas Pophale) SiO2 
 PCOD9574324
Probable space group: P 31
;
_chemical_formula_sum "Si O2"
_cell_formula_units_Z 24
_cell_length_a 8.897707
_cell_length_b 8.897707
_cell_length_c 16.791484
_cell_angle_alpha 90.000000
_cell_angle_beta 90.000000
_cell_angle_gamma 120.000000
_cell_volume 1151.266619
_symmetry_space_group_name_H-M "P 31"
_symmetry_group_IT_number 144
_symmetry_cell_setting 'hexagonal'
loop_
_space_group_symop_operation_xyz
x,y,z
-y,x-y,1/3+z
-x+y,-x,2/3+z
loop_
_atom_site_type_symbol
_atom_site_label
_atom_site_fract_x
_atom_site_fract_y
_atom_site_fract_z
Si Si1 0.168868 0.300845 0.019180
Si Si2 0.597484 0.328791 0.891505
Si Si3 0.220997 0.867038 0.092993
Si Si4 0.294948 0.661102 0.971387
Si Si5 0.995781 0.922304 0.979681
Si Si6 0.283289 0.939233 0.860105
Si Si7 0.061230 0.384756 0.598786
Si Si8 0.752386 0.496610 0.728646
O O1 0.101851 0.331059 0.102610
O O2 0.348633 0.298537 0.040732
O O3 0.196214 0.454886 0.960114
O O4 0.028205 0.115346 0.984593
O O5 0.548839 0.480979 0.902547
O O6 0.728064 0.403091 0.814839
O O7 0.444851 0.134547 0.870596
O O8 0.633300 0.311067 0.985885
O O9 0.219452 0.846971 0.185957
O O10 0.395222 0.045778 0.068086
O O11 0.216479 0.711865 0.044773
O O12 0.065918 0.892561 0.062653
O O13 0.305155 0.785906 0.900184
O O14 0.486889 0.696726 0.990901
O O15 0.123463 0.927734 0.910691
O O16 0.806801 0.764317 0.965452
#
# Coordination Sequence:
#
# PCOD9574324 Si02
#       8
#     3   3   3   3   3   3   3   3
#     4  11  22  43  64  96 128 175 228 283 342 412
#     4  11  21  43  69  95 132 181 222 280 344 415
#     4   9  20  39  62  86 127 168 211 274 334 398
#     4  11  21  40  62  91 133 167 222 271 340 399
#     4  10  20  40  64  90 126 165 219 272 338 401
#     4  11  22  42  67  91 130 177 218 277 342 411
#     4  11  22  39  66  94 126 172 220 272 344 400
#     4  10  20  42  68  93 130 177 228 269 348 412
#
# _framework density 20.846603999999999
#
# number of rings (size 3 to 8) (size 9 to 14) (size 15 to 20)
#    0.000    1.500    5.000    3.000    0.000    2.000 
#    9.000    3.750    0.000    0.000    0.000    0.000 
#    0.000    0.000    0.000    0.000    0.000    0.000 
#
# Total GULP energy -133683.763917 kJ/mol
# GULP energy per Si atom -5570.156830 kJ/mol
# Density = 2.079916 g / cm^3
# Si number density = 20.846604 Si / 1000 Ang^3
#
#
#
# Elastic Constant Matrix: (Units=GPa)
#
#
# Indices 1 2 3 4 5 6 
#
# 1 63.2906 34.4655 9.3077 -7.0517 0.1228 0.0000
# 2 34.4655 63.2906 9.3077 7.0517 -0.1228 0.0000
# 3 9.3077 9.3077 69.7340 0.0000 0.0000 0.0000
# 4 -7.0517 7.0517 0.0000 7.0611 0.0000 -0.1228
# 5 0.1228 -0.1228 0.0000 0.0000 7.0611 -7.0517
# 6 0.0000 0.0000 0.0000 -0.1228 -7.0517 14.4126
#
#
#
# Elastic Compliance Matrix: (Units=1/GPa)
#
#
# Indices 1 2 3 4 5 6 
#
# 1 0.039178 -0.028682 -0.001401 0.067769 -0.001180 0.000000
# 2 -0.028682 0.039178 -0.001401 -0.067769 0.001180 0.000000
# 3 -0.001401 -0.001401 0.014714 0.000000 0.000000 0.000000
# 4 0.067769 -0.067769 0.000000 0.277018 0.000000 0.002360
# 5 -0.001180 0.001180 0.000000 0.000000 0.277018 0.135538
# 6 0.000000 0.000000 0.000000 0.002360 0.135538 0.135719
#
#
# Mechanical properties :
#
#
# Convention : Reuss Voigt Hill
#
# Bulk Modulus (GPa) = 33.21939 33.60855 33.41397
# Shear Modulus (GPa) = 5.84230 15.25592 10.54911
#
# Velocity S-wave (km/s) = 1.67589 2.70815 2.25196
# Velocity P-wave (km/s) = 4.44011 5.09270 4.77756
#
# Compressibility (1/GPa) = 0.03010290
#
# Stress axis : x y z
#
# Youngs Moduli (GPa) = 25.52454 25.52454 67.96161
#
# Poissons Ratio (x) = 0.73209 0.09521
# Poissons Ratio (y) = 0.73209 0.09521
# Poissons Ratio (z) = 0.03576 0.03576
#
# Static dielectric constant tensor:
#      x y z
#    x 1.780550 0.000000 0.000000 
#    y 0.000000 1.780550 0.000000 
#    z 0.000000 0.000000 1.760270 
# 
# From -- ./inp_files/828.got.cif
#   From: 2010.05.17/outbox.cif.g08.bks.cpg/sg144_cif.got.tgz:828.got - 2010.05.20 13:46:34.
