data_PCOD9574331
_publ_section_title
;
Structure prediction by ZEFSAII (Michael W. Deem and Ramdas Pophale) SiO2 
 PCOD9574331
Probable space group: P 31
;
_chemical_formula_sum "Si O2"
_cell_formula_units_Z 24
_cell_length_a 7.876936
_cell_length_b 7.876936
_cell_length_c 20.674380
_cell_angle_alpha 90.000000
_cell_angle_beta 90.000000
_cell_angle_gamma 120.000000
_cell_volume 1110.907145
_symmetry_space_group_name_H-M "P 31"
_symmetry_group_IT_number 144
_symmetry_cell_setting 'hexagonal'
loop_
_space_group_symop_operation_xyz
x,y,z
-y,x-y,1/3+z
-x+y,-x,2/3+z
loop_
_atom_site_type_symbol
_atom_site_label
_atom_site_fract_x
_atom_site_fract_y
_atom_site_fract_z
Si Si1 0.293405 0.317189 0.910950
Si Si2 0.637216 0.635244 0.338845
Si Si3 0.092966 0.362562 0.794352
Si Si4 0.070126 0.913054 0.337937
Si Si5 0.666289 0.729750 0.877364
Si Si6 0.612397 0.036489 0.554459
Si Si7 0.260756 0.512764 0.417693
Si Si8 0.059111 0.299969 0.292054
O O1 0.148066 0.250667 0.848990
O O2 0.475476 0.524091 0.893260
O O3 0.355230 0.157066 0.928920
O O4 0.177175 0.358312 0.967568
O O5 0.558904 0.461450 0.285681
O O6 0.474314 0.561260 0.394009
O O7 0.861892 0.732904 0.360560
O O8 0.016728 0.241270 0.729177
O O9 0.290195 0.557803 0.773283
O O10 0.968120 0.443133 0.830461
O O11 0.134422 0.847187 0.273282
O O12 0.061619 0.104059 0.315526
O O13 0.834132 0.672296 0.870419
O O14 0.634165 0.814791 0.811405
O O15 0.587930 0.824717 0.574319
O O16 0.115449 0.429751 0.356106
#
# Coordination Sequence:
#
# PCOD9574331 Si02
#       8
#     3   3   3   3   3   3   3   3
#     4   9  19  37  59  82 115 152 192 240 291 350
#     4   9  19  38  58  79 111 154 197 240 290 351
#     4  10  21  37  57  85 117 151 190 236 292 352
#     4  10  21  37  59  83 113 152 197 243 292 349
#     4  10  21  37  56  86 119 150 192 244 299 356
#     4   9  20  38  57  81 116 153 193 241 292 349
#     4  10  21  36  56  84 115 149 192 238 294 350
#     4   9  20  38  60  84 112 151 195 238 288 351
#
# _framework density 21.603966
#
# number of rings (size 3 to 8) (size 9 to 14) (size 15 to 20)
#    0.000    2.500    0.000    0.750    0.000   10.000 
#    0.000   10.000    0.000    0.000    0.000    0.000 
#    0.000    0.000    0.000    0.000    0.000    0.000 
#
# Total GULP energy -133986.782687 kJ/mol
# GULP energy per Si atom -5582.782612 kJ/mol
# Density = 2.155479 g / cm^3
# Si number density = 21.603966 Si / 1000 Ang^3
#
#
#
# Elastic Constant Matrix: (Units=GPa)
#
#
# Indices 1 2 3 4 5 6 
#
# 1 55.4589 7.5539 33.0793 -0.9582 2.6458 0.0000
# 2 7.5539 55.4589 33.0793 0.9582 -2.6458 0.0000
# 3 33.0793 33.0793 104.1334 0.0000 0.0000 0.0000
# 4 -0.9582 0.9582 0.0000 23.2198 0.0000 -2.6458
# 5 2.6458 -2.6458 0.0000 0.0000 23.2198 -0.9582
# 6 0.0000 0.0000 0.0000 -2.6458 -0.9582 23.9525
#
#
#
# Elastic Compliance Matrix: (Units=1/GPa)
#
#
# Indices 1 2 3 4 5 6 
#
# 1 0.022494 0.001318 -0.007564 0.000874 -0.002413 0.000000
# 2 0.001318 0.022494 -0.007564 -0.000874 0.002413 0.000000
# 3 -0.007564 -0.007564 0.014409 0.000000 0.000000 0.000000
# 4 0.000874 -0.000874 0.000000 0.043689 0.000000 0.004826
# 5 -0.002413 0.002413 0.000000 0.000000 0.043689 0.001748
# 6 0.000000 0.000000 0.000000 0.004826 0.001748 0.042352
#
#
# Mechanical properties :
#
#
# Convention : Reuss Voigt Hill
#
# Bulk Modulus (GPa) = 31.47077 40.27511 35.87294
# Shear Modulus (GPa) = 21.99364 23.50101 22.74732
#
# Velocity S-wave (km/s) = 3.19413 3.30177 3.24840
# Velocity P-wave (km/s) = 5.31056 5.76355 5.54169
#
# Compressibility (1/GPa) = 0.03177551
#
# Stress axis : x y z
#
# Youngs Moduli (GPa) = 44.45675 44.45675 69.40270
#
# Poissons Ratio (x) = -0.05858 0.52496
# Poissons Ratio (y) = -0.05858 0.52496
# Poissons Ratio (z) = 0.33627 0.33627
#
# Static dielectric constant tensor:
#      x y z
#    x 1.817010 0.000000 0.000000 
#    y 0.000000 1.817010 0.000000 
#    z 0.000000 0.000000 1.812060 
# 
# From -- ./inp_files/852.got.cif
#   From: 2010.05.17/outbox.cif.g08.bks.cpg/sg144_cif.got.tgz:852.got - 2010.05.20 13:46:34.
