data_PCOD9574895
_publ_section_title
;
Structure prediction by ZEFSAII (Michael W. Deem and Ramdas Pophale) SiO2 
 PCOD9574895
Probable space group: P -3
;
_chemical_formula_sum "Si O2"
_cell_formula_units_Z 36
_cell_length_a 13.009211
_cell_length_b 13.009211
_cell_length_c 15.695807
_cell_angle_alpha 90.000000
_cell_angle_beta 90.000000
_cell_angle_gamma 120.000000
_cell_volume 2300.468002
_symmetry_space_group_name_H-M "P -3"
_symmetry_group_IT_number 147
_symmetry_cell_setting 'hexagonal'
loop_
_space_group_symop_operation_xyz
x,y,z
-y,x-y,z
-x+y,-x,z
-x,-y,-z
y,-x+y,-z
x-y,x,-z
loop_
_atom_site_type_symbol
_atom_site_label
_atom_site_fract_x
_atom_site_fract_y
_atom_site_fract_z
Si Si1 0.089946 0.667291 0.073207
Si Si2 0.422655 0.332709 0.926793
Si Si3 0.577478 0.910938 0.268136
Si Si4 0.088497 0.422099 0.578958
Si Si5 0.333460 0.910938 0.268136
Si Si6 0.422099 0.088497 0.421042
O O1 0.214348 0.785652 0.062947
O O2 0.107124 0.553562 0.064158
O O3 0.049105 0.665087 0.170573
O O4 0.000000 0.656288 1.000000
O O5 0.384018 0.334913 0.829427
O O6 0.441138 0.882275 0.275966
O O7 0.583181 0.791590 0.283917
O O8 0.651854 0.013644 0.335629
O O9 0.117378 0.558689 0.578532
O O10 0.207960 0.415920 0.573069
O O11 1.000000 0.358499 0.500000
O O12 0.361790 0.013644 0.335629
#
# Coordination Sequence:
#
# PCOD9574895 Si02
#       6
#     6   6   6   6   6   6
#     4   9  17  29  46  69  95 123 155 191 232 276
#     4   9  17  29  46  69  95 123 155 191 232 276
#     4   9  17  30  49  71  94 121 154 192 232 275
#     4  10  20  33  50  72  97 123 151 186 228 274
#     4   9  17  30  49  71  94 121 154 192 232 275
#     4  10  20  33  50  72  97 123 151 186 228 274
#
# _framework density 15.648989
#
# number of rings (size 3 to 8) (size 9 to 14) (size 15 to 20)
#    0.000    2.667    0.000    2.000    0.000    4.000 
#    0.000    3.333    0.000   10.333    0.000    0.000 
#    0.000    0.000    0.000    0.000    0.000    0.000 
#
# Total GULP energy -200632.482206 kJ/mol
# GULP energy per Si atom -5573.124506 kJ/mol
# Density = 1.561337 g / cm^3
# Si number density = 15.648989 Si / 1000 Ang^3
#
#
#
# Elastic Constant Matrix: (Units=GPa)
#
#
# Indices 1 2 3 4 5 6 
#
# 1 92.2131 56.0251 77.1797 1.2398 0.0000 0.0000
# 2 56.0251 92.2131 77.1797 -1.2398 0.0000 0.0000
# 3 77.1797 77.1797 136.3335 0.0000 0.0000 0.0000
# 4 1.2398 -1.2398 0.0000 24.0298 0.0000 0.0000
# 5 0.0000 0.0000 0.0000 0.0000 24.0298 1.2398
# 6 0.0000 0.0000 0.0000 0.0000 1.2398 18.0940
#
#
#
# Elastic Compliance Matrix: (Units=1/GPa)
#
#
# Indices 1 2 3 4 5 6 
#
# 1 0.022082 -0.005649 -0.009303 -0.001431 0.000000 0.000000
# 2 -0.005649 0.022082 -0.009303 0.001431 0.000000 0.000000
# 3 -0.009303 -0.009303 0.017868 0.000000 0.000000 0.000000
# 4 -0.001431 0.001431 0.000000 0.041763 0.000000 0.000000
# 5 0.000000 0.000000 0.000000 0.000000 0.041763 -0.002862
# 6 0.000000 0.000000 0.000000 0.000000 -0.002862 0.055463
#
#
# Mechanical properties :
#
#
# Convention : Reuss Voigt Hill
#
# Bulk Modulus (GPa) = 73.95215 82.39208 78.17211
# Shear Modulus (GPa) = 19.68214 20.58906 20.13560
#
# Velocity S-wave (km/s) = 3.55029 3.63117 3.59096
# Velocity P-wave (km/s) = 8.01034 8.38719 8.20093
#
# Compressibility (1/GPa) = 0.01352226
#
# Stress axis : x y z
#
# Youngs Moduli (GPa) = 45.28549 45.28549 55.96697
#
# Poissons Ratio (x) = 0.25583 0.52065
# Poissons Ratio (y) = 0.25583 0.52065
# Poissons Ratio (z) = 0.42128 0.42128
#
# Static dielectric constant tensor:
#      x y z
#    x 1.488720 0.000000 0.000000 
#    y 0.000000 1.488720 0.000000 
#    z 0.000000 0.000000 1.548590 
# 
# From -- ./inp_files/923.got.cif
#   From: 2010.05.17/outbox.cif.g08.bks.cpg/sg147_cif.got.tgz:923.got - 2010.05.20 13:49:32.
