data_PCOD9574988
_publ_section_title
;
Structure prediction by ZEFSAII (Michael W. Deem and Ramdas Pophale) SiO2 
 PCOD9574988
Probable space group: P -3
;
_chemical_formula_sum "Si O2"
_cell_formula_units_Z 40
_cell_length_a 14.142829
_cell_length_b 14.142829
_cell_length_c 12.281858
_cell_angle_alpha 90.000000
_cell_angle_beta 90.000000
_cell_angle_gamma 120.000000
_cell_volume 2127.488809
_symmetry_space_group_name_H-M "P -3"
_symmetry_group_IT_number 147
_symmetry_cell_setting 'hexagonal'
loop_
_space_group_symop_operation_xyz
x,y,z
-y,x-y,z
-x+y,-x,z
-x,-y,-z
y,-x+y,-z
x-y,x,-z
loop_
_atom_site_type_symbol
_atom_site_label
_atom_site_fract_x
_atom_site_fract_y
_atom_site_fract_z
Si Si1 0.673883 0.554666 0.515229
Si Si2 0.448839 0.155628 0.270481
Si Si3 0.770118 0.878473 0.521648
Si Si4 0.647811 0.694210 0.681628
Si Si5 0.204933 0.236629 0.872457
Si Si6 0.333334 0.666667 0.490244
Si Si7 0.333334 0.666667 0.756224
Si Si8 0.237314 0.033162 0.872430
O O1 0.652128 0.551479 0.385612
O O2 0.801006 0.652161 0.521913
O O3 0.613284 0.597178 0.595275
O O4 0.660082 0.438863 0.545369
O O5 0.434435 0.260628 0.299823
O O6 0.344816 0.074902 0.200124
O O7 0.565200 0.216008 0.211249
O O8 0.836522 0.840707 0.445241
O O9 0.747789 0.800082 0.623764
O O10 0.697913 0.681239 0.793357
O O11 0.230852 0.140885 0.846081
O O12 0.076090 0.195008 0.859766
O O13 0.229454 0.265616 0.000292
O O14 0.333334 0.666667 0.622908
#
# Coordination Sequence:
#
# PCOD9574988 Si02
#       8
#     6   6   6   6   6   2   2   6
#     4   9  18  32  48  69  94 122 158 194 234 283
#     4   9  18  32  50  69  93 125 159 202 237 270
#     4   9  17  28  41  64  98 128 155 188 230 282
#     4   9  18  30  45  70 101 125 153 193 236 283
#     4   9  17  30  47  70  97 130 162 187 230 278
#     4   9  18  36  54  67  92 127 159 201 241 275
#     4   9  18  36  54  70  89 118 171 210 235 272
#     4   9  17  28  46  69 100 130 157 191 226 284
#
# _framework density 18.80151
#
# number of rings (size 3 to 8) (size 9 to 14) (size 15 to 20)
#    0.000    3.000    0.000    0.450    0.000   12.000 
#    0.000   23.250    0.000    9.900    0.000    0.000 
#    0.000    0.000    0.000    0.000    0.000    0.000 
#
# Total GULP energy -222739.909807 kJ/mol
# GULP energy per Si atom -5568.497745 kJ/mol
# Density = 1.875872 g / cm^3
# Si number density = 18.801510 Si / 1000 Ang^3
#
#
#
# Elastic Constant Matrix: (Units=GPa)
#
#
# Indices 1 2 3 4 5 6 
#
# 1 50.7395 9.0097 21.2196 -0.0125 3.3660 -0.0002
# 2 9.0097 50.7422 21.2198 0.0127 -3.3657 -0.0005
# 3 21.2196 21.2198 62.8279 0.0000 0.0000 -0.0001
# 4 -0.0125 0.0127 0.0000 10.3396 -0.0004 -3.3659
# 5 3.3660 -3.3657 0.0000 -0.0004 10.3394 -0.0128
# 6 -0.0002 -0.0005 -0.0001 -3.3659 -0.0128 20.8659
#
#
#
# Elastic Compliance Matrix: (Units=1/GPa)
#
#
# Indices 1 2 3 4 5 6 
#
# 1 0.023655 -0.001636 -0.007437 0.000030 -0.008234 0.000000
# 2 -0.001636 0.023654 -0.007436 -0.000030 0.008233 0.000001
# 3 -0.007437 -0.007436 0.020940 0.000000 0.000000 0.000000
# 4 0.000030 -0.000030 0.000000 0.102076 0.000004 0.016466
# 5 -0.008234 0.008233 0.000000 0.000004 0.102078 0.000063
# 6 0.000000 0.000001 0.000000 0.016466 0.000063 0.050581
#
#
# Mechanical properties :
#
#
# Convention : Reuss Voigt Hill
#
# Bulk Modulus (GPa) = 28.38474 29.68974 29.03724
# Shear Modulus (GPa) = 13.59632 15.83301 14.71466
#
# Velocity S-wave (km/s) = 2.69206 2.90507 2.80059
# Velocity P-wave (km/s) = 4.97923 5.20365 5.09268
#
# Compressibility (1/GPa) = 0.03523020
#
# Stress axis : x y z
#
# Youngs Moduli (GPa) = 42.27369 42.27641 47.75610
#
# Poissons Ratio (x) = 0.06918 0.35515
# Poissons Ratio (y) = 0.06918 0.35513
# Poissons Ratio (z) = 0.31438 0.31438
#
# Static dielectric constant tensor:
#      x y z
#    x 1.703200 0.000000 0.000000 
#    y 0.000000 1.703190 0.000000 
#    z 0.000000 0.000000 1.708500 
# 
# From -- ./inp_files/832.got.cif
#   From: 2010.05.17/outbox.cif.g08.bks.cpg/sg147_cif.got.tgz:832.got - 2010.05.20 13:49:32.
