data_PCOD9574700
_publ_section_title
;
Structure prediction by ZEFSAII (Michael W. Deem and Ramdas Pophale) SiO2 
 PCOD9574700
Probable space group: R 3
;
_chemical_formula_sum "Si O2"
_cell_formula_units_Z 45
_cell_length_a 15.117510
_cell_length_b 15.117510
_cell_length_c 13.274081
_cell_angle_alpha 90.000000
_cell_angle_beta 90.000000
_cell_angle_gamma 120.000000
_cell_volume 2627.215056
_symmetry_space_group_name_H-M "R 3"
_symmetry_group_IT_number 146
_symmetry_cell_setting 'hexagonal'
loop_
_space_group_symop_operation_xyz
x,y,z
-y,x-y,z
-x+y,-x,z
2/3+x,1/3+y,1/3+z
2/3-y,1/3+x-y,1/3+z
2/3-x+y,1/3-x,1/3+z
1/3+x,2/3+y,2/3+z
1/3-y,2/3+x-y,2/3+z
1/3-x+y,2/3-x,2/3+z
loop_
_atom_site_type_symbol
_atom_site_label
_atom_site_fract_x
_atom_site_fract_y
_atom_site_fract_z
Si Si1 0.843670 0.292944 0.635150
Si Si2 0.518589 0.888429 0.691308
Si Si3 0.332347 0.999014 0.473273
Si Si4 0.156330 0.449274 0.644730
Si Si5 0.221763 0.185256 0.255238
O O1 0.852326 0.398510 0.597296
O O2 0.731051 0.198601 0.643026
O O3 0.908262 0.272203 0.550968
O O4 0.903885 0.313603 0.739381
O O5 0.532450 0.801399 0.636853
O O6 0.398510 0.852326 0.682584
O O7 0.551981 0.885315 0.806606
O O8 0.581457 0.000000 0.639940
O O9 0.313602 0.903885 0.540499
O O10 0.425072 0.030608 0.395578
#
# Coordination Sequence:
#
# PCOD9574700 Si02
#       5
#     9   9   9   9   9
#     4  11  21  39  60  84 120 156 199 248 306 359
#     4  12  22  37  60  92 117 153 205 254 302 360
#     4  10  20  40  58  78 118 160 188 240 308 358
#     4  11  21  39  60  84 120 156 199 248 306 359
#     4  12  22  37  60  92 117 153 205 254 302 360
#
# _framework density 17.128404
#
# number of rings (size 3 to 8) (size 9 to 14) (size 15 to 20)
#    0.000    0.800    8.000    0.800    2.800    0.000 
#    0.000    0.000    0.000    0.000    0.000    0.000 
#    0.000    0.000    0.000    0.000    0.000    0.000 
#
# Total GULP energy -83703.889526 kJ/mol
# GULP energy per Si atom -5580.259302 kJ/mol
# Density = 1.708942 g / cm^3
# Si number density = 17.128404 Si / 1000 Ang^3
#
#
#
# Elastic Constant Matrix: (Units=GPa)
#
#
# Indices 1 2 3 4 5 6 
#
# 1 120.0199 74.7030 45.7062 4.3995 0.0000 0.0000
# 2 74.7030 120.0199 45.7062 -4.3995 0.0000 0.0000
# 3 45.7062 45.7062 83.9065 0.0000 0.0000 0.0000
# 4 4.3995 -4.3995 0.0000 21.9097 0.0000 0.0000
# 5 0.0000 0.0000 0.0000 0.0000 21.9097 4.3995
# 6 0.0000 0.0000 0.0000 0.0000 4.3995 22.6585
#
#
#
# Elastic Compliance Matrix: (Units=1/GPa)
#
#
# Indices 1 2 3 4 5 6 
#
# 1 0.014931 -0.008031 -0.003759 -0.004611 0.000000 0.000000
# 2 -0.008031 0.014931 -0.003759 0.004611 0.000000 0.000000
# 3 -0.003759 -0.003759 0.016013 0.000000 0.000000 0.000000
# 4 -0.004611 0.004611 0.000000 0.047494 0.000000 0.000000
# 5 0.000000 0.000000 0.000000 0.000000 0.047494 -0.009222
# 6 0.000000 0.000000 0.000000 0.000000 -0.009222 0.045924
#
#
# Mechanical properties :
#
#
# Convention : Reuss Voigt Hill
#
# Bulk Modulus (GPa) = 67.66642 72.90859 70.28750
# Shear Modulus (GPa) = 22.44073 23.81763 23.12918
#
# Velocity S-wave (km/s) = 3.62352 3.73303 3.67868
# Velocity P-wave (km/s) = 7.55630 7.82554 7.69210
#
# Compressibility (1/GPa) = 0.01477838
#
# Stress axis : x y z
#
# Youngs Moduli (GPa) = 66.97459 66.97459 62.44981
#
# Poissons Ratio (x) = 0.53788 0.23472
# Poissons Ratio (y) = 0.53788 0.23472
# Poissons Ratio (z) = 0.25173 0.25173
#
# Static dielectric constant tensor:
#      x y z
#    x 1.598030 0.000000 0.000000 
#    y 0.000000 1.598030 0.000000 
#    z 0.000000 0.000000 1.598240 
# 
# From -- ./inp_files/1064.got.cif
#   From: 2010.05.17/outbox.cif.g08.bks.cpg/sg146_cif.got.tgz:1064.got - 2010.05.20 13:48:23.
