data_PCOD9574813
_publ_section_title
;
Structure prediction by ZEFSAII (Michael W. Deem and Ramdas Pophale) SiO2 
 PCOD9574813
Probable space group: R 3
;
_chemical_formula_sum "Si O2"
_cell_formula_units_Z 51
_cell_length_a 18.580507
_cell_length_b 18.580507
_cell_length_c 7.042098
_cell_angle_alpha 90.000000
_cell_angle_beta 90.000000
_cell_angle_gamma 120.000000
_cell_volume 2105.463984
_symmetry_space_group_name_H-M "R 3"
_symmetry_group_IT_number 146
_symmetry_cell_setting 'hexagonal'
loop_
_space_group_symop_operation_xyz
x,y,z
-y,x-y,z
-x+y,-x,z
2/3+x,1/3+y,1/3+z
2/3-y,1/3+x-y,1/3+z
2/3-x+y,1/3-x,1/3+z
1/3+x,2/3+y,2/3+z
1/3-y,2/3+x-y,2/3+z
1/3-x+y,2/3-x,2/3+z
loop_
_atom_site_type_symbol
_atom_site_label
_atom_site_fract_x
_atom_site_fract_y
_atom_site_fract_z
Si Si1 0.333335 0.666668 0.602696
Si Si2 0.631476 0.708381 0.524778
Si Si3 0.232945 0.748073 0.604251
Si Si4 0.720855 0.980547 0.992798
Si Si5 0.858895 0.816689 0.339110
Si Si6 0.000000 0.000000 0.395439
Si Si7 0.845577 0.209961 0.544396
O O1 0.264532 0.687280 0.540110
O O2 0.333334 0.666667 0.831509
O O3 0.677314 0.704281 0.714102
O O4 0.542867 0.701740 0.541146
O O5 0.679502 0.800606 0.434958
O O6 0.138364 0.706017 0.546179
O O7 0.230949 0.753581 0.834161
O O8 0.650624 0.955078 0.836669
O O9 0.718928 0.901524 0.091075
O O10 0.922560 0.905783 0.440532
O O11 0.814528 0.728337 0.455635
O O12 0.784879 0.820948 0.227248
#
# Coordination Sequence:
#
# PCOD9574813 Si02
#       7
#     3   9   9   9   9   3   9
#     4   9  21  45  73 101 145 202 251 319 403 452
#     4  12  27  46  74 114 151 203 264 326 395 472
#     4  11  24  44  71 106 148 200 253 322 393 476
#     4  12  26  47  73 114 159 206 260 324 399 481
#     4  11  23  42  76 107 151 201 264 318 398 471
#     4   9  21  45  70 110 148 211 254 322 397 485
#     4  12  24  45  75 110 152 201 262 327 391 477
#
# _framework density 24.222687000000001
#
# number of rings (size 3 to 8) (size 9 to 14) (size 15 to 20)
#    0.000    0.706    3.529    5.294    2.471    1.412 
#    0.000    3.529    0.000    0.000    0.000    0.000 
#    0.000    0.000    0.000    0.000    0.000    0.000 
#
# Total GULP energy -94661.056670 kJ/mol
# GULP energy per Si atom -5568.297451 kJ/mol
# Density = 2.416756 g / cm^3
# Si number density = 24.222687 Si / 1000 Ang^3
#
#
#
# Elastic Constant Matrix: (Units=GPa)
#
#
# Indices 1 2 3 4 5 6 
#
# 1 152.6765 76.6298 24.0989 4.3993 -9.7426 0.0004
# 2 76.6298 152.6793 24.0908 -4.3961 9.7368 -0.0017
# 3 24.0989 24.0908 57.1622 0.0100 -0.0086 -0.0023
# 4 4.3993 -4.3961 0.0100 16.7779 0.0031 9.7430
# 5 -9.7426 9.7368 -0.0086 0.0031 16.7703 4.3973
# 6 0.0004 -0.0017 -0.0023 9.7430 4.3973 38.0240
#
#
#
# Elastic Compliance Matrix: (Units=1/GPa)
#
#
# Indices 1 2 3 4 5 6 
#
# 1 0.010402 -0.005617 -0.002016 -0.004199 0.009304 0.000000
# 2 -0.005617 0.010401 -0.002018 0.004201 -0.009304 0.000000
# 3 -0.002016 -0.002018 0.019194 -0.000013 0.000009 0.000003
# 4 -0.004199 0.004201 -0.000013 0.072607 -0.000014 -0.018602
# 5 0.009304 -0.009304 0.000009 -0.000014 0.072638 -0.008397
# 6 0.000000 0.000000 0.000003 -0.018602 -0.008397 0.032037
#
#
# Mechanical properties :
#
#
# Convention : Reuss Voigt Hill
#
# Bulk Modulus (GPa) = 48.31737 68.01743 58.16740
# Shear Modulus (GPa) = 20.53563 30.16099 25.34831
#
# Velocity S-wave (km/s) = 2.91483 3.53250 3.23843
# Velocity P-wave (km/s) = 5.59632 6.69172 6.16838
#
# Compressibility (1/GPa) = 0.02069649
#
# Stress axis : x y z
#
# Youngs Moduli (GPa) = 96.13666 96.14031 52.09855
#
# Poissons Ratio (x) = 0.54001 0.10503
# Poissons Ratio (y) = 0.53999 0.10512
# Poissons Ratio (z) = 0.19381 0.19399
#
# Static dielectric constant tensor:
#      x y z
#    x 1.982900 -0.000010 0.000010 
#    y -0.000010 1.982910 0.000000 
#    z 0.000010 0.000000 2.034720 
# 
# From -- ./inp_files/692.got.cif
#   From: 2010.05.17/outbox.cif.g08.bks.cpg/sg146_cif.got.tgz:692.got - 2010.05.20 13:48:23.
