data_PCOD9574863
_publ_section_title
;
Structure prediction by ZEFSAII (Michael W. Deem and Ramdas Pophale) SiO2 
 PCOD9574863
Probable space group: P -3
;
_chemical_formula_sum "Si O2"
_cell_formula_units_Z 30
_cell_length_a 17.919303
_cell_length_b 17.919303
_cell_length_c 5.153434
_cell_angle_alpha 90.000000
_cell_angle_beta 90.000000
_cell_angle_gamma 120.000000
_cell_volume 1433.077166
_symmetry_space_group_name_H-M "P -3"
_symmetry_group_IT_number 147
_symmetry_cell_setting 'hexagonal'
loop_
_space_group_symop_operation_xyz
x,y,z
-y,x-y,z
-x+y,-x,z
-x,-y,-z
y,-x+y,-z
x-y,x,-z
loop_
_atom_site_type_symbol
_atom_site_label
_atom_site_fract_x
_atom_site_fract_y
_atom_site_fract_z
Si Si1 0.839183 0.130808 0.829590
Si Si2 0.434620 0.575905 0.207277
Si Si3 0.269836 0.240142 0.336411
Si Si4 0.532326 0.638140 0.713989
Si Si5 0.756753 0.244179 0.937147
O O1 0.801027 0.054528 0.620399
O O2 0.783538 0.178846 0.813796
O O3 0.935355 0.200089 0.753353
O O4 0.825592 0.094831 0.120606
O O5 0.470359 0.576163 0.490596
O O6 0.340291 0.507564 0.108598
O O7 0.440558 0.669399 0.195509
O O8 0.504015 0.588877 0.987773
O O9 0.366948 0.322007 0.337475
O O10 0.517613 0.720392 0.776302
#
# Coordination Sequence:
#
# PCOD9574863 Si02
#       5
#     6   6   6   6   6
#     4  11  23  40  69  89 124 153 208 244 307 372
#     4  10  19  31  53  78 120 154 211 238 284 328
#     4  11  21  43  63  93 116 162 199 248 303 381
#     4   9  20  34  50  79 119 152 204 248 280 354
#     4   9  21  34  55  85 119 167 200 251 288 343
#
# _framework density 20.933973000000002
#
# number of rings (size 3 to 8) (size 9 to 14) (size 15 to 20)
#    1.200    0.800    2.000    1.600    2.800    0.000 
#    0.000    2.000    0.000    8.000    0.000    0.000 
#    0.000    0.000    0.000    0.000    0.000    0.000 
#
# Total GULP energy -167107.244023 kJ/mol
# GULP energy per Si atom -5570.241467 kJ/mol
# Density = 2.088633 g / cm^3
# Si number density = 20.933973 Si / 1000 Ang^3
#
#
#
# Elastic Constant Matrix: (Units=GPa)
#
#
# Indices 1 2 3 4 5 6 
#
# 1 40.1200 -14.3374 -5.5136 -7.2609 -17.5653 0.0000
# 2 -14.3374 40.1200 -5.5136 7.2609 17.5653 0.0000
# 3 -5.5136 -5.5136 89.8847 0.0000 0.0000 0.0000
# 4 -7.2609 7.2609 0.0000 36.0809 0.0000 17.5653
# 5 -17.5653 17.5653 0.0000 0.0000 36.0809 -7.2609
# 6 0.0000 0.0000 0.0000 17.5653 -7.2609 27.2287
#
#
#
# Elastic Compliance Matrix: (Units=1/GPa)
#
#
# Indices 1 2 3 4 5 6 
#
# 1 0.034437 0.005394 0.002443 0.005844 0.014139 0.000000
# 2 0.005394 0.034437 0.002443 -0.005844 -0.014139 0.000000
# 3 0.002443 0.002443 0.011425 0.000000 0.000000 0.000000
# 4 0.005844 -0.005844 0.000000 0.043834 0.000000 -0.028277
# 5 0.014139 -0.014139 0.000000 0.000000 0.043834 0.011689
# 6 0.000000 0.000000 0.000000 -0.028277 0.011689 0.058085
#
#
# Mechanical properties :
#
#
# Convention : Reuss Voigt Hill
#
# Bulk Modulus (GPa) = 9.91476 13.26617 11.59047
# Shear Modulus (GPa) = 20.91087 32.91070 26.91079
#
# Velocity S-wave (km/s) = 3.16396 3.96930 3.58929
# Velocity P-wave (km/s) = 4.25371 5.23049 4.76718
#
# Compressibility (1/GPa) = 0.10085969
#
# Stress axis : x y z
#
# Youngs Moduli (GPa) = 29.03887 29.03887 87.52649
#
# Poissons Ratio (x) = -0.15664 -0.21385
# Poissons Ratio (y) = -0.15664 -0.21385
# Poissons Ratio (z) = -0.07095 -0.07095
#
# Static dielectric constant tensor:
#      x y z
#    x 1.764500 0.000000 0.000000 
#    y 0.000000 1.764500 0.000000 
#    z 0.000000 0.000000 1.770680 
# 
# From -- ./inp_files/188.got.cif
#   From: 2010.05.17/outbox.cif.g08.bks.cpg/sg147_cif.got.tgz:188.got - 2010.05.20 13:49:32.
