data_PCOD9574430
_publ_section_title
;
Structure prediction by ZEFSAII (Michael W. Deem and Ramdas Pophale) SiO2 
 PCOD9574430
Probable space group: P 31
;
_chemical_formula_sum "Si O2"
_cell_formula_units_Z 9
_cell_length_a 4.966337
_cell_length_b 4.966337
_cell_length_c 12.777240
_cell_angle_alpha 90.000000
_cell_angle_beta 90.000000
_cell_angle_gamma 120.000000
_cell_volume 272.922950
_symmetry_space_group_name_H-M "P 31"
_symmetry_group_IT_number 144
_symmetry_cell_setting 'hexagonal'
loop_
_space_group_symop_operation_xyz
x,y,z
-y,x-y,1/3+z
-x+y,-x,2/3+z
loop_
_atom_site_type_symbol
_atom_site_label
_atom_site_fract_x
_atom_site_fract_y
_atom_site_fract_z
Si Si1 0.434985 0.095817 0.396950
Si Si2 0.195782 0.999995 0.595266
Si Si3 0.339173 0.904178 0.793582
O O1 0.924411 0.138297 0.197582
O O2 0.624532 0.463374 0.350591
O O3 0.360982 0.288208 0.493993
O O4 0.138284 0.924392 0.326286
O O5 0.072761 0.711783 0.696542
O O6 0.375441 0.838818 0.506606
#
# Coordination Sequence:
#
# PCOD9574430 Si02
#       3
#     3   3   3
#     4  11  26  45  74 106 151 196 257 316 394 469
#     4  10  26  42  70 108 144 198 246 320 384 476
#     4  11  26  45  74 106 151 196 257 316 394 469
#
# _framework density 32.976332999999997
#
# number of rings (size 3 to 8) (size 9 to 14) (size 15 to 20)
#    0.000    1.333    0.000    2.000   18.667    5.333 
#    0.000    0.000    0.000    0.000    0.000    0.000 
#    0.000    0.000    0.000    0.000    0.000    0.000 
#
# Total GULP energy -50322.815340 kJ/mol
# GULP energy per Si atom -5591.423927 kJ/mol
# Density = 3.290128 g / cm^3
# Si number density = 32.976333 Si / 1000 Ang^3
#
#
#
# Elastic Constant Matrix: (Units=GPa)
#
#
# Indices 1 2 3 4 5 6 
#
# 1 428.1664 202.9463 136.4149 22.6629 0.0014 0.0000
# 2 202.9463 428.1664 136.4149 -22.6629 -0.0014 0.0000
# 3 136.4149 136.4149 437.0732 0.0000 0.0000 0.0000
# 4 22.6629 -22.6629 0.0000 67.4660 0.0000 -0.0014
# 5 0.0014 -0.0014 0.0000 0.0000 67.4660 22.6629
# 6 0.0000 0.0000 0.0000 -0.0014 22.6629 112.6101
#
#
#
# Elastic Compliance Matrix: (Units=1/GPa)
#
#
# Indices 1 2 3 4 5 6 
#
# 1 0.003297 -0.001465 -0.000572 -0.001600 0.000000 0.000000
# 2 -0.001465 0.003297 -0.000572 0.001600 0.000000 0.000000
# 3 -0.000572 -0.000572 0.002645 0.000000 0.000000 0.000000
# 4 -0.001600 0.001600 0.000000 0.015897 0.000000 0.000000
# 5 0.000000 0.000000 0.000000 0.000000 0.015897 -0.003199
# 6 0.000000 0.000000 0.000000 0.000000 -0.003199 0.009524
#
#
# Mechanical properties :
#
#
# Convention : Reuss Voigt Hill
#
# Bulk Modulus (GPa) = 248.67084 249.43982 249.05533
# Shear Modulus (GPa) = 87.54421 104.01709 95.78065
#
# Velocity S-wave (km/s) = 5.15802 5.62240 5.39521
# Velocity P-wave (km/s) = 10.53785 10.86070 10.70049
#
# Compressibility (1/GPa) = 0.00402138
#
# Stress axis : x y z
#
# Youngs Moduli (GPa) = 303.32130 303.32130 378.10105
#
# Poissons Ratio (x) = 0.44443 0.21615
# Poissons Ratio (y) = 0.44443 0.21615
# Poissons Ratio (z) = 0.17340 0.17340
#
# Static dielectric constant tensor:
#      x y z
#    x 2.422310 0.000000 0.000000 
#    y 0.000000 2.422310 0.000000 
#    z 0.000000 0.000000 3.432190 
# 
# From -- ./inp_files/441.got.cif
#   From: 2010.05.17/outbox.cif.g08.bks.cpg/sg144_cif.got.tgz:441.got - 2010.05.20 13:46:34.
