data_PCOD9574021
_publ_section_title
;
Structure prediction by ZEFSAII (Michael W. Deem and Ramdas Pophale) SiO2 
 PCOD9574021
Probable space group: I 41/A C D
;
_chemical_formula_sum "Si O2"
_cell_formula_units_Z 160
_cell_length_a 25.190309
_cell_length_b 25.190309
_cell_length_c 10.828687
_cell_angle_alpha 90.000000
_cell_angle_beta 90.000000
_cell_angle_gamma 90.000000
_cell_volume 6871.361393
_symmetry_space_group_name_H-M "I 41/A C D"
_symmetry_group_IT_number 142
_space_group.IT_coordinate_system_code '2'
_symmetry_cell_setting 'tetragonal'
loop_
_space_group_symop_operation_xyz
x,y,z
1/4-y,3/4+x,1/4+z
-x,1/2-y,z
1/4+y,1/4-x,3/4+z
x,-y,1/2-z
1/2-x,y,-z
3/4+y,1/4+x,1/4-z
1/4-y,1/4-x,1/4-z
-x,-y,-z
3/4+y,1/4-x,3/4-z
x,1/2+y,-z
3/4-y,3/4+x,1/4-z
-x,y,1/2+z
1/2+x,-y,z
1/4-y,3/4-x,3/4+z
3/4+y,3/4+x,3/4+z
1/2+x,1/2+y,1/2+z
3/4-y,1/4+x,3/4+z
1/2-x,-y,1/2+z
3/4+y,3/4-x,1/4+z
1/2+x,1/2-y,-z
-x,1/2+y,1/2-z
1/4+y,3/4+x,3/4-z
3/4-y,3/4-x,3/4-z
1/2-x,1/2-y,1/2-z
1/4+y,3/4-x,1/4-z
1/2+x,y,1/2-z
1/4-y,1/4+x,3/4-z
1/2-x,1/2+y,z
x,1/2-y,1/2+z
3/4-y,1/4-x,1/4+z
1/4+y,1/4+x,1/4+z
loop_
_atom_site_type_symbol
_atom_site_label
_atom_site_fract_x
_atom_site_fract_y
_atom_site_fract_z
Si Si1 0.290261 0.000000 0.750000
Si Si2 0.364140 0.171570 0.278767
Si Si3 0.089582 0.660419 0.875000
Si Si4 0.634101 0.082026 0.577280
Si Si5 0.958244 0.995447 0.386723
Si Si6 0.517611 0.333446 0.663452
O O1 0.257259 0.992742 0.625000
O O2 0.319620 0.943118 0.772958
O O3 0.411584 0.161584 0.375000
O O4 0.357782 0.118065 0.198385
O O5 0.312928 0.184140 0.356530
O O6 0.369281 0.218517 0.177898
O O7 0.132158 0.647688 0.770910
O O8 0.033440 0.656264 0.804377
O O9 0.593229 0.033976 0.601125
O O10 0.983548 0.000000 0.250000
O O11 0.000000 0.000000 0.500000
O O12 0.461164 0.309082 0.635288
#
# Coordination Sequence:
#
# PCOD9574021 Si02
#       6
#    16  32  16  32  32  32
#     4  12  26  44  80 108 144 188 246 318 382 448
#     4  11  25  44  77 104 145 196 249 309 377 453
#     4  10  24  45  70 100 150 184 244 302 374 452
#     4  11  25  49  72 110 146 197 249 315 384 462
#     4  12  29  50  78 113 160 206 259 319 394 472
#     4  10  25  43  71 106 141 191 245 313 375 447
#
# _framework density 23.285050999999999
#
# number of rings (size 3 to 8) (size 9 to 14) (size 15 to 20)
#    0.000    1.000    3.000    1.200    9.800    5.600 
#    1.800    0.000    0.000    0.000    0.000    0.000 
#    0.000    0.000    0.000    0.000    0.000    0.000 
#
# Total GULP energy -447100.672098 kJ/mol
# GULP energy per Si atom -5588.758401 kJ/mol
# Density = 2.323205 g / cm^3
# Si number density = 23.285051 Si / 1000 Ang^3
#
#
#
# Elastic Constant Matrix: (Units=GPa)
#
#
# Indices 1 2 3 4 5 6 
#
# 1 72.6161 45.7436 38.6763 0.0000 0.0000 0.0000
# 2 45.7436 72.6138 38.6785 0.0000 0.0000 0.0000
# 3 38.6763 38.6785 170.9753 0.0000 0.0000 0.0000
# 4 0.0000 0.0000 0.0000 33.7171 0.0000 0.0000
# 5 0.0000 0.0000 0.0000 0.0000 33.7161 0.0000
# 6 0.0000 0.0000 0.0000 0.0000 0.0000 19.6685
#
#
#
# Elastic Compliance Matrix: (Units=1/GPa)
#
#
# Indices 1 2 3 4 5 6 
#
# 1 0.023564 -0.013650 -0.002242 0.000000 0.000000 0.000000
# 2 -0.013650 0.023565 -0.002243 0.000000 0.000000 0.000000
# 3 -0.002242 -0.002243 0.006864 0.000000 0.000000 0.000000
# 4 0.000000 0.000000 0.000000 0.029659 0.000000 0.000000
# 5 0.000000 0.000000 0.000000 0.000000 0.029659 0.000000
# 6 0.000000 0.000000 0.000000 0.000000 0.000000 0.050843
#
#
# Mechanical properties :
#
#
# Convention : Reuss Voigt Hill
#
# Bulk Modulus (GPa) = 56.42844 62.48911 59.45878
# Shear Modulus (GPa) = 24.23282 30.29411 27.26347
#
# Velocity S-wave (km/s) = 3.22949 3.61087 3.42549
# Velocity P-wave (km/s) = 6.18001 6.65427 6.42152
#
# Compressibility (1/GPa) = 0.01772156
#
# Stress axis : x y z
#
# Youngs Moduli (GPa) = 42.43773 42.43549 145.69722
#
# Poissons Ratio (x) = 0.57924 0.32673
# Poissons Ratio (y) = 0.57927 0.32684
# Poissons Ratio (z) = 0.09517 0.09519
#
# Static dielectric constant tensor:
#      x y z
#    x 1.883330 0.000000 0.000000 
#    y 0.000000 1.883330 0.000000 
#    z 0.000000 0.000000 1.902670 
# 
# From -- ./inp_files/3894.got.cif
#   From: 2010.05.17/outbox.cif.g08.bks.cpg/sg142_2_cif.got.tgz:3894.got - 2010.05.20 13:39:18.
