data_PCOD9574474
_publ_section_title
;
Structure prediction by ZEFSAII (Michael W. Deem and Ramdas Pophale) SiO2 
 PCOD9574474
Probable space group: P 31
;
_chemical_formula_sum "Si O2"
_cell_formula_units_Z 24
_cell_length_a 14.058387
_cell_length_b 14.058387
_cell_length_c 5.729733
_cell_angle_alpha 90.000000
_cell_angle_beta 90.000000
_cell_angle_gamma 120.000000
_cell_volume 980.699616
_symmetry_space_group_name_H-M "P 31"
_symmetry_group_IT_number 144
_symmetry_cell_setting 'hexagonal'
loop_
_space_group_symop_operation_xyz
x,y,z
-y,x-y,1/3+z
-x+y,-x,2/3+z
loop_
_atom_site_type_symbol
_atom_site_label
_atom_site_fract_x
_atom_site_fract_y
_atom_site_fract_z
Si Si1 0.688733 0.651806 0.158920
Si Si2 0.254610 0.350130 0.514997
Si Si3 0.923202 0.201474 0.322378
Si Si4 0.050143 0.105474 0.501223
Si Si5 0.724327 0.279060 0.827775
Si Si6 0.904824 0.579815 0.516237
Si Si7 0.433327 0.686104 0.859911
Si Si8 0.443570 0.508258 0.158665
O O1 0.750389 0.715103 0.395897
O O2 0.714036 0.553159 0.133805
O O3 0.562746 0.601227 0.242093
O O4 0.725441 0.701462 0.894317
O O5 0.155633 0.226861 0.470917
O O6 0.322345 0.332290 0.718610
O O7 0.214846 0.438965 0.555348
O O8 0.347425 0.418700 0.319932
O O9 0.792319 0.156373 0.313493
O O10 0.954844 0.107611 0.348283
O O11 0.986560 0.063602 0.745113
O O12 0.741963 0.391294 0.939286
O O13 0.664681 0.178531 0.008366
O O14 0.960105 0.527022 0.668125
O O15 0.367556 0.746928 0.946775
O O16 0.403975 0.579340 0.013065
#
# Coordination Sequence:
#
# PCOD9574474 Si02
#       8
#     3   3   3   3   3   3   3   3
#     4  11  28  46  78 112 158 211 265 332 399 488
#     4  12  27  48  78 115 154 212 270 341 415 497
#     4  11  28  52  75 116 159 206 274 330 404 482
#     4  12  29  51  84 112 160 210 275 340 419 490
#     4  11  25  41  67 101 149 201 259 316 397 470
#     4  11  26  43  73 105 154 199 262 324 395 481
#     4  12  25  49  73 111 154 201 260 334 412 499
#     4  12  26  44  78 108 156 202 269 331 417 485
#
# _framework density 24.472322999999999
#
# number of rings (size 3 to 8) (size 9 to 14) (size 15 to 20)
#    0.000    0.500    2.500    3.750   19.250    2.000 
#    2.250    0.000    0.000    0.000    0.000    0.000 
#    0.000    0.000    0.000    0.000    0.000    0.000 
#
# Total GULP energy -133989.770956 kJ/mol
# GULP energy per Si atom -5582.907123 kJ/mol
# Density = 2.441662 g / cm^3
# Si number density = 24.472323 Si / 1000 Ang^3
#
#
#
# Elastic Constant Matrix: (Units=GPa)
#
#
# Indices 1 2 3 4 5 6 
#
# 1 99.3054 25.3842 38.5111 -4.5596 8.4661 0.0000
# 2 25.3842 99.3054 38.5111 4.5596 -8.4661 0.0000
# 3 38.5111 38.5111 86.0287 0.0000 0.0000 0.0000
# 4 -4.5596 4.5596 0.0000 27.6208 0.0000 -8.4661
# 5 8.4661 -8.4661 0.0000 0.0000 27.6208 -4.5596
# 6 0.0000 0.0000 0.0000 -8.4661 -4.5596 36.9606
#
#
#
# Elastic Compliance Matrix: (Units=1/GPa)
#
#
# Indices 1 2 3 4 5 6 
#
# 1 0.012980 -0.001895 -0.004962 0.002456 -0.004559 0.000000
# 2 -0.001895 0.012980 -0.004962 -0.002456 0.004559 0.000000
# 3 -0.004962 -0.004962 0.016067 0.000000 0.000000 0.000000
# 4 0.002456 -0.002456 0.000000 0.039810 0.000000 0.009119
# 5 -0.004559 0.004559 0.000000 0.000000 0.039810 0.004911
# 6 0.000000 0.000000 0.000000 0.009119 0.004911 0.029750
#
#
# Mechanical properties :
#
#
# Convention : Reuss Voigt Hill
#
# Bulk Modulus (GPa) = 54.38356 54.38360 54.38358
# Shear Modulus (GPa) = 27.59882 30.58930 29.09406
#
# Velocity S-wave (km/s) = 3.36185 3.53931 3.45172
# Velocity P-wave (km/s) = 6.11066 6.24283 6.17710
#
# Compressibility (1/GPa) = 0.01838791
#
# Stress axis : x y z
#
# Youngs Moduli (GPa) = 77.04034 77.04034 62.23991
#
# Poissons Ratio (x) = 0.14599 0.30886
# Poissons Ratio (y) = 0.14599 0.30886
# Poissons Ratio (z) = 0.38230 0.38230
#
# Static dielectric constant tensor:
#      x y z
#    x 1.993140 0.000000 0.000000 
#    y 0.000000 1.993140 0.000000 
#    z 0.000000 0.000000 2.033320 
# 
# From -- ./inp_files/145.got.cif
#   From: 2010.05.17/outbox.cif.g08.bks.cpg/sg144_cif.got.tgz:145.got - 2010.05.20 13:46:34.
