data_PCOD9574597
_publ_section_title
;
Structure prediction by ZEFSAII (Michael W. Deem and Ramdas Pophale) SiO2 
 PCOD9574597
Probable space group: P 32
;
_chemical_formula_sum "Si O2"
_cell_formula_units_Z 15
_cell_length_a 11.189127
_cell_length_b 11.189127
_cell_length_c 5.335690
_cell_angle_alpha 90.000000
_cell_angle_beta 90.000000
_cell_angle_gamma 120.000000
_cell_volume 578.513673
_symmetry_space_group_name_H-M "P 32"
_symmetry_group_IT_number 145
_symmetry_cell_setting 'hexagonal'
loop_
_space_group_symop_operation_xyz
x,y,z
-y,x-y,2/3+z
-x+y,-x,1/3+z
loop_
_atom_site_type_symbol
_atom_site_label
_atom_site_fract_x
_atom_site_fract_y
_atom_site_fract_z
Si Si1 0.100700 0.976764 0.428040
Si Si2 0.013476 0.701051 0.208381
Si Si3 0.098887 0.414552 0.003294
Si Si4 0.519857 0.279417 0.630798
Si Si5 0.529764 0.524265 0.171177
O O1 0.009432 0.840578 0.253226
O O2 0.252132 0.001785 0.388550
O O3 0.020783 0.915466 0.685066
O O4 0.179400 0.765546 0.231792
O O5 0.962757 0.591193 0.434930
O O6 0.913600 0.610243 0.985046
O O7 0.056012 0.476246 0.775007
O O8 0.093259 0.473323 0.275786
O O9 0.580926 0.235538 0.397631
O O10 0.477774 0.149849 0.816294
#
# Coordination Sequence:
#
# PCOD9574597 Si02
#       5
#     3   3   3   3   3
#     4  10  23  42  70 114 140 184 230 305 364 419
#     4   9  24  45  71 108 138 198 230 301 352 425
#     4  10  26  44  72 103 142 188 231 296 346 428
#     4  10  23  43  70 104 142 188 232 302 351 424
#     4  11  24  50  67 105 144 188 243 282 357 426
#
# _framework density 25.928512000000001
#
# number of rings (size 3 to 8) (size 9 to 14) (size 15 to 20)
#    1.200    0.800    0.000    1.200   11.200    1.600 
#   10.800    0.000    0.000    0.000    0.000    0.000 
#    0.000    0.000    0.000    0.000    0.000    0.000 
#
# Total GULP energy -83557.971359 kJ/mol
# GULP energy per Si atom -5570.531424 kJ/mol
# Density = 2.586950 g / cm^3
# Si number density = 25.928512 Si / 1000 Ang^3
#
#
#
# Elastic Constant Matrix: (Units=GPa)
#
#
# Indices 1 2 3 4 5 6 
#
# 1 106.5578 16.3637 22.2873 2.2754 -10.0312 0.0000
# 2 16.3637 106.5578 22.2873 -2.2754 10.0312 0.0000
# 3 22.2873 22.2873 99.2073 0.0000 0.0000 0.0000
# 4 2.2754 -2.2754 0.0000 23.5698 0.0000 10.0312
# 5 -10.0312 10.0312 0.0000 0.0000 23.5698 2.2754
# 6 0.0000 0.0000 0.0000 10.0312 2.2754 45.0971
#
#
#
# Elastic Compliance Matrix: (Units=1/GPa)
#
#
# Indices 1 2 3 4 5 6 
#
# 1 0.010585 -0.001728 -0.001990 -0.001189 0.005240 0.000000
# 2 -0.001728 0.010585 -0.001990 0.001189 -0.005240 0.000000
# 3 -0.001990 -0.001990 0.010974 0.000000 0.000000 0.000000
# 4 -0.001189 0.001189 0.000000 0.047117 0.000000 -0.010481
# 5 0.005240 -0.005240 0.000000 0.000000 0.047117 -0.002377
# 6 0.000000 0.000000 0.000000 -0.010481 -0.002377 0.024626
#
#
# Mechanical properties :
#
#
# Convention : Reuss Voigt Hill
#
# Bulk Modulus (GPa) = 48.24245 48.24439 48.24342
# Shear Modulus (GPa) = 29.52851 35.20629 32.36740
#
# Velocity S-wave (km/s) = 3.37834 3.68886 3.53701
# Velocity P-wave (km/s) = 5.81927 6.06553 5.94368
#
# Compressibility (1/GPa) = 0.02072863
#
# Stress axis : x y z
#
# Youngs Moduli (GPa) = 94.47513 94.47513 91.12536
#
# Poissons Ratio (x) = 0.16325 0.18131
# Poissons Ratio (y) = 0.16325 0.18131
# Poissons Ratio (z) = 0.18798 0.18798
#
# Static dielectric constant tensor:
#      x y z
#    x 2.078290 0.000000 0.000000 
#    y 0.000000 2.078290 0.000000 
#    z 0.000000 0.000000 2.097510 
# 
# From -- ./inp_files/59.got.cif
#   From: 2010.05.17/outbox.cif.g08.bks.cpg/sg145_cif.got.tgz:59.got - 2010.05.20 13:47:28.
