data_PCOD9574145
_publ_section_title
;
Structure prediction by ZEFSAII (Michael W. Deem and Ramdas Pophale) SiO2 
 PCOD9574145
Probable space group: I 41/A C D
;
_chemical_formula_sum "Si O2"
_cell_formula_units_Z 160
_cell_length_a 20.436910
_cell_length_b 20.436910
_cell_length_c 17.928376
_cell_angle_alpha 90.000000
_cell_angle_beta 90.000000
_cell_angle_gamma 90.000000
_cell_volume 7488.096224
_symmetry_space_group_name_H-M "I 41/A C D"
_symmetry_group_IT_number 142
_space_group.IT_coordinate_system_code '2'
_symmetry_cell_setting 'tetragonal'
loop_
_space_group_symop_operation_xyz
x,y,z
1/4-y,3/4+x,1/4+z
-x,1/2-y,z
1/4+y,1/4-x,3/4+z
x,-y,1/2-z
1/2-x,y,-z
3/4+y,1/4+x,1/4-z
1/4-y,1/4-x,1/4-z
-x,-y,-z
3/4+y,1/4-x,3/4-z
x,1/2+y,-z
3/4-y,3/4+x,1/4-z
-x,y,1/2+z
1/2+x,-y,z
1/4-y,3/4-x,3/4+z
3/4+y,3/4+x,3/4+z
1/2+x,1/2+y,1/2+z
3/4-y,1/4+x,3/4+z
1/2-x,-y,1/2+z
3/4+y,3/4-x,1/4+z
1/2+x,1/2-y,-z
-x,1/2+y,1/2-z
1/4+y,3/4+x,3/4-z
3/4-y,3/4-x,3/4-z
1/2-x,1/2-y,1/2-z
1/4+y,3/4-x,1/4-z
1/2+x,y,1/2-z
1/4-y,1/4+x,3/4-z
1/2-x,1/2+y,z
x,1/2-y,1/2+z
3/4-y,1/4-x,1/4+z
1/4+y,1/4+x,1/4+z
loop_
_atom_site_type_symbol
_atom_site_label
_atom_site_fract_x
_atom_site_fract_y
_atom_site_fract_z
Si Si1 0.611958 0.952128 0.072999
Si Si2 0.295388 0.758995 0.068087
Si Si3 0.044574 0.190680 0.712113
Si Si4 0.567802 0.434553 0.097351
Si Si5 0.653937 0.831024 0.818361
O O1 0.665226 0.915226 0.125000
O O2 0.545280 0.942616 0.119242
O O3 0.622534 0.029870 0.067120
O O4 0.596880 0.933996 0.986792
O O5 0.366168 0.770625 0.031425
O O6 0.254469 0.818686 0.107747
O O7 0.250000 0.735023 0.000000
O O8 0.046809 0.203192 0.625000
O O9 0.118077 0.188056 0.742165
O O10 0.000000 0.250000 0.745633
O O11 0.490270 0.420887 0.099280
O O12 0.602949 0.374635 0.137157
#
# Coordination Sequence:
#
# PCOD9574145 Si02
#       5
#    32  32  32  32  32
#     4  11  27  44  71  97 139 195 240 291 354 437
#     4  11  23  45  69 103 140 189 224 294 378 424
#     4  11  24  40  71 109 141 180 239 302 368 434
#     4  11  25  45  70  99 148 184 236 302 359 430
#     4  11  25  44  68 106 141 184 238 296 359 430
#
# _framework density 21.367246000000002
#
# number of rings (size 3 to 8) (size 9 to 14) (size 15 to 20)
#    0.000    1.000    2.000    4.800   14.000    0.000 
#    0.000    5.000    0.000    0.000    0.000    0.000 
#    0.000    0.000    0.000    0.000    0.000    0.000 
#
# Total GULP energy -445941.232709 kJ/mol
# GULP energy per Si atom -5574.265409 kJ/mol
# Density = 2.131861 g / cm^3
# Si number density = 21.367246 Si / 1000 Ang^3
#
#
#
# Elastic Constant Matrix: (Units=GPa)
#
#
# Indices 1 2 3 4 5 6 
#
# 1 102.2392 71.3863 34.3205 0.0000 0.0000 0.0000
# 2 71.3863 102.2374 34.3196 0.0000 0.0000 0.0000
# 3 34.3205 34.3196 117.7559 0.0000 0.0000 0.0000
# 4 0.0000 0.0000 0.0000 28.9805 0.0000 0.0000
# 5 0.0000 0.0000 0.0000 0.0000 28.9809 0.0000
# 6 0.0000 0.0000 0.0000 0.0000 0.0000 19.8443
#
#
#
# Elastic Compliance Matrix: (Units=1/GPa)
#
#
# Indices 1 2 3 4 5 6 
#
# 1 0.019461 -0.012952 -0.001897 0.000000 0.000000 0.000000
# 2 -0.012952 0.019461 -0.001897 0.000000 0.000000 0.000000
# 3 -0.001897 -0.001897 0.009598 0.000000 0.000000 0.000000
# 4 0.000000 0.000000 0.000000 0.034506 0.000000 0.000000
# 5 0.000000 0.000000 0.000000 0.000000 0.034505 0.000000
# 6 0.000000 0.000000 0.000000 0.000000 0.000000 0.050392
#
#
# Mechanical properties :
#
#
# Convention : Reuss Voigt Hill
#
# Bulk Modulus (GPa) = 66.54099 66.92056 66.73077
# Shear Modulus (GPa) = 24.22179 27.70822 25.96501
#
# Velocity S-wave (km/s) = 3.37054 3.60496 3.48972
# Velocity P-wave (km/s) = 6.80857 6.97961 6.89462
#
# Compressibility (1/GPa) = 0.01502833
#
# Stress axis : x y z
#
# Youngs Moduli (GPa) = 51.38468 51.38400 104.18793
#
# Poissons Ratio (x) = 0.66550 0.19768
# Poissons Ratio (y) = 0.66551 0.19766
# Poissons Ratio (z) = 0.09749 0.09748
#
# Static dielectric constant tensor:
#      x y z
#    x 1.847460 0.000000 0.000000 
#    y 0.000000 1.847460 0.000000 
#    z 0.000000 0.000000 1.821840 
# 
# From -- ./inp_files/7355.got.cif
#   From: 2010.05.17/outbox.cif.g08.bks.cpg/sg142_4_cif.got.tgz:7355.got - 2010.05.20 13:39:18.
