data_PCOD9574239
_publ_section_title
;
Structure prediction by ZEFSAII (Michael W. Deem and Ramdas Pophale) SiO2 
 PCOD9574239
Probable space group: I 41/A C D
;
_chemical_formula_sum "Si O2"
_cell_formula_units_Z 104
_cell_length_a 18.008405
_cell_length_b 18.008405
_cell_length_c 13.251419
_cell_angle_alpha 90.000000
_cell_angle_beta 90.000000
_cell_angle_gamma 90.000000
_cell_volume 4297.470306
_symmetry_space_group_name_H-M "I 41/A C D"
_symmetry_group_IT_number 142
_space_group.IT_coordinate_system_code '2'
_symmetry_cell_setting 'tetragonal'
loop_
_space_group_symop_operation_xyz
x,y,z
1/4-y,3/4+x,1/4+z
-x,1/2-y,z
1/4+y,1/4-x,3/4+z
x,-y,1/2-z
1/2-x,y,-z
3/4+y,1/4+x,1/4-z
1/4-y,1/4-x,1/4-z
-x,-y,-z
3/4+y,1/4-x,3/4-z
x,1/2+y,-z
3/4-y,3/4+x,1/4-z
-x,y,1/2+z
1/2+x,-y,z
1/4-y,3/4-x,3/4+z
3/4+y,3/4+x,3/4+z
1/2+x,1/2+y,1/2+z
3/4-y,1/4+x,3/4+z
1/2-x,-y,1/2+z
3/4+y,3/4-x,1/4+z
1/2+x,1/2-y,-z
-x,1/2+y,1/2-z
1/4+y,3/4+x,3/4-z
3/4-y,3/4-x,3/4-z
1/2-x,1/2-y,1/2-z
1/4+y,3/4-x,1/4-z
1/2+x,y,1/2-z
1/4-y,1/4+x,3/4-z
1/2-x,1/2+y,z
x,1/2-y,1/2+z
3/4-y,1/4-x,1/4+z
1/4+y,1/4+x,1/4+z
loop_
_atom_site_type_symbol
_atom_site_label
_atom_site_fract_x
_atom_site_fract_y
_atom_site_fract_z
Si Si1 0.396744 0.038521 0.440352
Si Si2 0.000000 0.750000 0.625000
Si Si3 0.289258 0.414227 0.595887
Si Si4 0.489700 0.147659 0.934701
O O1 0.340620 0.090620 0.375000
O O2 0.384246 0.053992 0.557549
O O3 0.479691 0.065272 0.419781
O O4 0.366966 0.955864 0.425438
O O5 0.931161 0.762111 0.702401
O O6 0.250000 0.377636 0.500000
O O7 0.229697 0.479697 0.625000
O O8 0.414318 0.164318 0.875000
O O9 0.551227 0.198774 0.875000
#
# Coordination Sequence:
#
# PCOD9574239 Si02
#       4
#    32   8  32  32
#     4   9  14  23  41  66  94 126 163 206 255 310
#     4   8  14  28  44  62  84 112 154 208 268 306
#     4   8  14  23  38  64  96 128 162 200 248 311
#     4   8  15  26  44  67  87 113 163 216 257 312
#
# _framework density 24.200282000000001
#
# number of rings (size 3 to 8) (size 9 to 14) (size 15 to 20)
#    0.000    4.000    0.000    2.769    0.000    0.000 
#    0.000    0.000    0.000   24.000    0.000   15.077 
#    0.000    0.000    0.000    0.000    0.000    0.000 
#
# Total GULP energy -290034.942302 kJ/mol
# GULP energy per Si atom -5577.595044 kJ/mol
# Density = 2.414520 g / cm^3
# Si number density = 24.200282 Si / 1000 Ang^3
#
#
#
# Elastic Constant Matrix: (Units=GPa)
#
#
# Indices 1 2 3 4 5 6 
#
# 1 53.7678 45.5395 31.5188 0.0000 0.0000 0.0000
# 2 45.5395 53.7677 31.5185 0.0000 0.0000 0.0000
# 3 31.5188 31.5185 161.0438 0.0000 0.0000 0.0000
# 4 0.0000 0.0000 0.0000 691.8184 0.0000 0.0000
# 5 0.0000 0.0000 0.0000 0.0000 691.7372 0.0000
# 6 0.0000 0.0000 0.0000 0.0000 0.0000 35.5962
#
#
#
# Elastic Compliance Matrix: (Units=1/GPa)
#
#
# Indices 1 2 3 4 5 6 
#
# 1 0.066515 -0.055017 -0.002250 0.000000 0.000000 0.000000
# 2 -0.055017 0.066515 -0.002250 0.000000 0.000000 0.000000
# 3 -0.002250 -0.002250 0.007090 0.000000 0.000000 0.000000
# 4 0.000000 0.000000 0.000000 0.001445 0.000000 0.000000
# 5 0.000000 0.000000 0.000000 0.000000 0.001446 0.000000
# 6 0.000000 0.000000 0.000000 0.000000 0.000000 0.028093
#
#
# Mechanical properties :
#
#
# Convention : Reuss Voigt Hill
#
# Bulk Modulus (GPa) = 47.42636 53.97032 50.69834
# Shear Modulus (GPa) = 16.82551 294.49720 155.66136
#
# Velocity S-wave (km/s) = 2.63964 11.04336 8.02881
# Velocity P-wave (km/s) = 5.37869 13.59992 10.34137
#
# Compressibility (1/GPa) = 0.02108532
#
# Stress axis : x y z
#
# Youngs Moduli (GPa) = 15.03420 15.03420 141.03672
#
# Poissons Ratio (x) = 0.82713 0.31740
# Poissons Ratio (y) = 0.82713 0.31737
# Poissons Ratio (z) = 0.03383 0.03383
#
# Static dielectric constant tensor:
#      x y z
#    x 2.068730 0.000000 0.000000 
#    y 0.000000 2.068720 0.000000 
#    z 0.000000 0.000000 1.858210 
# 
# From -- ./inp_files/4958.got.cif
#   From: 2010.05.17/outbox.cif.g08.bks.cpg/sg142_3_cif.got.tgz:4958.got - 2010.05.20 13:39:18.
