data_PCOD9574978
_publ_section_title
;
Structure prediction by ZEFSAII (Michael W. Deem and Ramdas Pophale) SiO2 
 PCOD9574978
Probable space group: P -3
;
_chemical_formula_sum "Si O2"
_cell_formula_units_Z 24
_cell_length_a 16.367113
_cell_length_b 16.367113
_cell_length_c 5.283923
_cell_angle_alpha 90.000000
_cell_angle_beta 90.000000
_cell_angle_gamma 120.000000
_cell_volume 1225.832901
_symmetry_space_group_name_H-M "P -3"
_symmetry_group_IT_number 147
_symmetry_cell_setting 'hexagonal'
loop_
_space_group_symop_operation_xyz
x,y,z
-y,x-y,z
-x+y,-x,z
-x,-y,-z
y,-x+y,-z
x-y,x,-z
loop_
_atom_site_type_symbol
_atom_site_label
_atom_site_fract_x
_atom_site_fract_y
_atom_site_fract_z
Si Si1 0.209158 0.319684 0.189603
Si Si2 0.488607 0.884911 0.247857
Si Si3 0.884911 0.488607 0.252143
Si Si4 0.790842 0.110526 0.310397
O O1 0.289605 0.429329 0.211681
O O2 0.258738 0.258738 0.250000
O O3 0.133778 0.300475 0.409022
O O4 0.166697 0.300475 0.909022
O O5 0.434635 0.852345 0.512507
O O6 0.543057 0.000000 0.250000
O O7 0.417710 0.852345 0.012507
O O8 0.860276 0.570671 0.288319
#
# Coordination Sequence:
#
# PCOD9574978 Si02
#       4
#     6   6   6   6
#     4  11  22  37  59  85 114 152 200 250 295 343
#     4   9  17  31  53  79 104 132 170 218 274 339
#     4   9  17  31  53  79 104 132 170 218 274 339
#     4  11  22  37  59  85 114 152 200 250 295 343
#
# _framework density 19.578524999999999
#
# number of rings (size 3 to 8) (size 9 to 14) (size 15 to 20)
#    0.000    2.000    0.000    4.500    0.000    8.000 
#    0.000    0.000    0.000   30.000    0.000    0.000 
#    0.000    0.000    0.000    0.000    0.000    0.000 
#
# Total GULP energy -134074.764357 kJ/mol
# GULP energy per Si atom -5586.448515 kJ/mol
# Density = 1.953396 g / cm^3
# Si number density = 19.578525 Si / 1000 Ang^3
#
#
#
# Elastic Constant Matrix: (Units=GPa)
#
#
# Indices 1 2 3 4 5 6 
#
# 1 38.5214 -4.7564 -12.1340 -3.6241 0.0000 0.0000
# 2 -4.7564 38.5214 -12.1340 3.6241 0.0000 0.0000
# 3 -12.1340 -12.1340 75.2768 0.0000 0.0000 0.0000
# 4 -3.6241 3.6241 0.0000 30.0166 0.0000 0.0000
# 5 0.0000 0.0000 0.0000 0.0000 30.0166 -3.6241
# 6 0.0000 0.0000 0.0000 0.0000 -3.6241 21.6389
#
#
#
# Elastic Compliance Matrix: (Units=1/GPa)
#
#
# Indices 1 2 3 4 5 6 
#
# 1 0.028540 0.004957 0.005399 0.002847 0.000000 0.000000
# 2 0.004957 0.028540 0.005399 -0.002847 0.000000 0.000000
# 3 0.005399 0.005399 0.015025 0.000000 0.000000 0.000000
# 4 0.002847 -0.002847 0.000000 0.034002 0.000000 0.000000
# 5 0.000000 0.000000 0.000000 0.000000 0.034002 0.005695
# 6 0.000000 0.000000 0.000000 0.000000 0.005695 0.047167
#
#
# Mechanical properties :
#
#
# Convention : Reuss Voigt Hill
#
# Bulk Modulus (GPa) = 9.65089 10.47453 10.06271
# Shear Modulus (GPa) = 26.27362 28.42400 27.34881
#
# Velocity S-wave (km/s) = 3.66725 3.81438 3.74154
# Velocity P-wave (km/s) = 4.78243 4.97603 4.88019
#
# Compressibility (1/GPa) = 0.10361741
#
# Stress axis : x y z
#
# Youngs Moduli (GPa) = 35.03811 35.03811 66.55569
#
# Poissons Ratio (x) = -0.17368 -0.35937
# Poissons Ratio (y) = -0.17368 -0.35937
# Poissons Ratio (z) = -0.18919 -0.18919
#
# Static dielectric constant tensor:
#      x y z
#    x 1.676820 0.000000 0.000000 
#    y 0.000000 1.676820 0.000000 
#    z 0.000000 0.000000 1.663580 
# 
# From -- ./inp_files/126.got.cif
#   From: 2010.05.17/outbox.cif.g08.bks.cpg/sg147_cif.got.tgz:126.got - 2010.05.20 13:49:32.
