data_PCOD9574109
_publ_section_title
;
Structure prediction by ZEFSAII (Michael W. Deem and Ramdas Pophale) SiO2 
 PCOD9574109
Probable space group: I 41/A C D
;
_chemical_formula_sum "Si O2"
_cell_formula_units_Z 160
_cell_length_a 29.705418
_cell_length_b 29.705418
_cell_length_c 9.622936
_cell_angle_alpha 90.000000
_cell_angle_beta 90.000000
_cell_angle_gamma 90.000000
_cell_volume 8491.392841
_symmetry_space_group_name_H-M "I 41/A C D"
_symmetry_group_IT_number 142
_space_group.IT_coordinate_system_code '2'
_symmetry_cell_setting 'tetragonal'
loop_
_space_group_symop_operation_xyz
x,y,z
1/4-y,3/4+x,1/4+z
-x,1/2-y,z
1/4+y,1/4-x,3/4+z
x,-y,1/2-z
1/2-x,y,-z
3/4+y,1/4+x,1/4-z
1/4-y,1/4-x,1/4-z
-x,-y,-z
3/4+y,1/4-x,3/4-z
x,1/2+y,-z
3/4-y,3/4+x,1/4-z
-x,y,1/2+z
1/2+x,-y,z
1/4-y,3/4-x,3/4+z
3/4+y,3/4+x,3/4+z
1/2+x,1/2+y,1/2+z
3/4-y,1/4+x,3/4+z
1/2-x,-y,1/2+z
3/4+y,3/4-x,1/4+z
1/2+x,1/2-y,-z
-x,1/2+y,1/2-z
1/4+y,3/4+x,3/4-z
3/4-y,3/4-x,3/4-z
1/2-x,1/2-y,1/2-z
1/4+y,3/4-x,1/4-z
1/2+x,y,1/2-z
1/4-y,1/4+x,3/4-z
1/2-x,1/2+y,z
x,1/2-y,1/2+z
3/4-y,1/4-x,1/4+z
1/4+y,1/4+x,1/4+z
loop_
_atom_site_type_symbol
_atom_site_label
_atom_site_fract_x
_atom_site_fract_y
_atom_site_fract_z
Si Si1 0.071546 0.753171 0.924516
Si Si2 0.621319 0.282094 0.690407
Si Si3 0.612413 0.969327 0.119155
Si Si4 0.773597 0.786543 0.649756
Si Si5 0.885395 0.135395 0.625000
Si Si6 0.217718 0.032283 0.125000
O O1 0.048960 0.798960 0.875000
O O2 0.116059 0.743614 0.836219
O O3 0.035369 0.714632 0.875000
O O4 0.086076 0.759756 0.083323
O O5 0.672317 0.279378 0.637647
O O6 0.607290 0.332802 0.739743
O O7 0.606226 0.916846 0.158749
O O8 0.665291 0.974783 0.089979
O O9 0.599515 0.000000 0.250000
O O10 0.583198 0.980501 0.984629
O O11 0.750000 0.786726 0.500000
O O12 0.750000 0.750000 0.750000
O O13 0.228888 0.000000 0.250000
#
# Coordination Sequence:
#
# PCOD9574109 Si02
#       6
#    32  32  32  32  16  16
#     4  11  23  39  60  85 114 149 194 241 304 351
#     4  11  22  41  61  84 119 154 193 246 290 358
#     4   9  19  38  62  84 120 158 194 247 294 355
#     4  11  23  40  59  88 118 158 204 240 296 354
#     4   9  20  38  61  88 115 150 202 234 300 348
#     4   9  18  34  60  92 121 158 197 240 308 361
#
# _framework density 18.842608999999999
#
# number of rings (size 3 to 8) (size 9 to 14) (size 15 to 20)
#    0.000    1.800    1.000    3.000    0.000    4.000 
#    3.600    0.000    0.000    0.000    0.000    0.000 
#    0.000    0.000    0.000    0.000    0.000    0.000 
#
# Total GULP energy -445950.821759 kJ/mol
# GULP energy per Si atom -5574.385272 kJ/mol
# Density = 1.879972 g / cm^3
# Si number density = 18.842609 Si / 1000 Ang^3
#
#
#
# Elastic Constant Matrix: (Units=GPa)
#
#
# Indices 1 2 3 4 5 6 
#
# 1 65.1230 69.1805 68.5976 0.0000 0.0000 0.0000
# 2 69.1805 65.1233 68.5971 0.0000 0.0000 0.0000
# 3 68.5976 68.5971 146.4265 0.0000 0.0000 0.0000
# 4 0.0000 0.0000 0.0000 48.9461 0.0000 0.0000
# 5 0.0000 0.0000 0.0000 0.0000 48.8874 0.0000
# 6 0.0000 0.0000 0.0000 0.0000 0.0000 27.2956
#
#
#
# Elastic Compliance Matrix: (Units=1/GPa)
#
#
# Indices 1 2 3 4 5 6 
#
# 1 -0.116096 0.130374 -0.006689 0.000000 0.000000 0.000000
# 2 0.130374 -0.116094 -0.006691 0.000000 0.000000 0.000000
# 3 -0.006689 -0.006691 0.013097 0.000000 0.000000 0.000000
# 4 0.000000 0.000000 0.000000 0.020431 0.000000 0.000000
# 5 0.000000 0.000000 0.000000 0.000000 0.020455 0.000000
# 6 0.000000 0.000000 0.000000 0.000000 0.000000 0.036636
#
#
# Mechanical properties :
#
#
# Convention : Reuss Voigt Hill
#
# Bulk Modulus (GPa) = 67.12448 76.60257 71.86353
# Shear Modulus (GPa) = -13.49180 29.71233 8.11026
#
# Velocity S-wave (km/s) = -2.67877 3.97529 2.07691
# Velocity P-wave (km/s) = 5.11208 7.86211 6.63122
#
# Compressibility (1/GPa) = 0.01489769
#
# Stress axis : x y z
#
# Youngs Moduli (GPa) = -8.61354 -8.61374 76.35254
#
# Poissons Ratio (x) = 1.12301 0.51068
# Poissons Ratio (y) = 1.12298 0.51084
# Poissons Ratio (z) = -0.05761 -0.05763
#
# Static dielectric constant tensor:
#      x y z
#    x 1.678400 0.000000 0.000000 
#    y 0.000000 1.678430 0.000000 
#    z 0.000000 0.000000 1.635510 
# 
# From -- ./inp_files/2241.got.cif
#   From: 2010.05.17/outbox.cif.g08.bks.cpg/sg142_2_cif.got.tgz:2241.got - 2010.05.20 13:39:18.
