data_PCOD9574292
_publ_section_title
;
Structure prediction by ZEFSAII (Michael W. Deem and Ramdas Pophale) SiO2 
 PCOD9574292
Probable space group: P 31
;
_chemical_formula_sum "Si O2"
_cell_formula_units_Z 18
_cell_length_a 8.400127
_cell_length_b 8.400127
_cell_length_c 12.327884
_cell_angle_alpha 90.000000
_cell_angle_beta 90.000000
_cell_angle_gamma 120.000000
_cell_volume 753.339735
_symmetry_space_group_name_H-M "P 31"
_symmetry_group_IT_number 144
_symmetry_cell_setting 'hexagonal'
loop_
_space_group_symop_operation_xyz
x,y,z
-y,x-y,1/3+z
-x+y,-x,2/3+z
loop_
_atom_site_type_symbol
_atom_site_label
_atom_site_fract_x
_atom_site_fract_y
_atom_site_fract_z
Si Si1 0.648069 0.611916 0.687850
Si Si2 0.610093 0.722872 0.891675
Si Si3 0.171442 0.493348 0.896801
Si Si4 0.007633 0.732113 0.418755
Si Si5 0.593921 0.550960 0.442825
Si Si6 0.546766 0.151145 0.393494
O O1 0.692865 0.775212 0.770774
O O2 0.471932 0.450866 0.748707
O O3 0.584497 0.604291 0.566061
O O4 0.798133 0.548880 0.692227
O O5 0.389100 0.641698 0.892116
O O6 0.708728 0.891084 0.973657
O O7 0.651573 0.575977 0.952151
O O8 0.170158 0.307833 0.855143
O O9 0.018163 0.485569 0.812644
O O10 0.104449 0.508501 0.015801
O O11 0.805803 0.696450 0.417804
O O12 0.552929 0.338917 0.435148
#
# Coordination Sequence:
#
# PCOD9574292 Si02
#       6
#     3   3   3   3   3   3
#     4  10  19  34  61  89 116 155 207 253 294 358
#     4  10  21  39  62  90 125 159 199 256 316 367
#     4  10  21  37  61  91 123 159 204 254 306 366
#     4   9  21  40  59  86 125 162 201 252 306 368
#     4  11  21  38  65  91 118 161 213 256 302 368
#     4  10  19  36  62  89 119 162 208 247 294 369
#
# _framework density 23.893602999999999
#
# number of rings (size 3 to 8) (size 9 to 14) (size 15 to 20)
#    0.000    2.000    0.000    6.000    0.000    4.000 
#    0.000    5.000    0.000   14.000    0.000    0.000 
#    0.000    0.000    0.000    0.000    0.000    0.000 
#
# Total GULP energy -100432.125322 kJ/mol
# GULP energy per Si atom -5579.562518 kJ/mol
# Density = 2.383922 g / cm^3
# Si number density = 23.893603 Si / 1000 Ang^3
#
#
#
# Elastic Constant Matrix: (Units=GPa)
#
#
# Indices 1 2 3 4 5 6 
#
# 1 76.3702 21.2626 40.4875 -3.3352 -6.3394 0.0000
# 2 21.2626 76.3702 40.4875 3.3352 6.3394 0.0000
# 3 40.4875 40.4875 184.4843 0.0000 0.0000 0.0000
# 4 -3.3352 3.3352 0.0000 27.7691 0.0000 6.3394
# 5 -6.3394 6.3394 0.0000 0.0000 27.7691 -3.3352
# 6 0.0000 0.0000 0.0000 6.3394 -3.3352 27.5538
#
#
#
# Elastic Compliance Matrix: (Units=1/GPa)
#
#
# Indices 1 2 3 4 5 6 
#
# 1 0.015986 -0.003465 -0.002748 0.002336 0.004440 0.000000
# 2 -0.003465 0.015986 -0.002748 -0.002336 -0.004440 0.000000
# 3 -0.002748 -0.002748 0.006627 0.000000 0.000000 0.000000
# 4 0.002336 -0.002336 0.000000 0.038600 0.000000 -0.008881
# 5 0.004440 -0.004440 0.000000 0.000000 0.038600 0.004672
# 6 0.000000 0.000000 0.000000 -0.008881 0.004672 0.038901
#
#
# Mechanical properties :
#
#
# Convention : Reuss Voigt Hill
#
# Bulk Modulus (GPa) = 48.36098 60.18887 54.27493
# Shear Modulus (GPa) = 27.85302 32.28424 30.06863
#
# Velocity S-wave (km/s) = 3.41795 3.67981 3.55130
# Velocity P-wave (km/s) = 5.98837 6.58025 6.29128
#
# Compressibility (1/GPa) = 0.02067783
#
# Stress axis : x y z
#
# Youngs Moduli (GPa) = 62.55410 62.55410 150.90473
#
# Poissons Ratio (x) = 0.21672 0.41469
# Poissons Ratio (y) = 0.21672 0.41469
# Poissons Ratio (z) = 0.17190 0.17190
#
# Static dielectric constant tensor:
#      x y z
#    x 1.977360 0.000000 0.000000 
#    y 0.000000 1.977360 0.000000 
#    z 0.000000 0.000000 1.997850 
# 
# From -- ./inp_files/574.got.cif
#   From: 2010.05.17/outbox.cif.g08.bks.cpg/sg144_cif.got.tgz:574.got - 2010.05.20 13:46:34.
