data_PCOD9574772
_publ_section_title
;
Structure prediction by ZEFSAII (Michael W. Deem and Ramdas Pophale) SiO2 
 PCOD9574772
Probable space group: R 3
;
_chemical_formula_sum "Si O2"
_cell_formula_units_Z 60
_cell_length_a 16.580513
_cell_length_b 16.580513
_cell_length_c 11.892529
_cell_angle_alpha 90.000000
_cell_angle_beta 90.000000
_cell_angle_gamma 120.000000
_cell_volume 2831.397066
_symmetry_space_group_name_H-M "R 3"
_symmetry_group_IT_number 146
_symmetry_cell_setting 'hexagonal'
loop_
_space_group_symop_operation_xyz
x,y,z
-y,x-y,z
-x+y,-x,z
2/3+x,1/3+y,1/3+z
2/3-y,1/3+x-y,1/3+z
2/3-x+y,1/3-x,1/3+z
1/3+x,2/3+y,2/3+z
1/3-y,2/3+x-y,2/3+z
1/3-x+y,2/3-x,2/3+z
loop_
_atom_site_type_symbol
_atom_site_label
_atom_site_fract_x
_atom_site_fract_y
_atom_site_fract_z
Si Si1 0.108045 0.333589 0.963190
Si Si2 0.000000 0.000000 0.832273
Si Si3 0.520593 0.567818 0.034834
Si Si4 0.878373 0.662204 0.909568
Si Si5 0.090152 0.878167 0.149136
Si Si6 0.866490 0.366552 0.145736
Si Si7 0.333334 0.666668 0.770183
Si Si8 0.933671 0.681035 0.146038
O O1 0.207595 0.361612 0.909337
O O2 0.092837 0.417776 0.999400
O O3 0.037170 0.264988 0.868939
O O4 0.091072 0.270995 0.072886
O O5 0.904475 0.908442 0.795265
O O6 0.000000 0.000000 0.968217
O O7 0.792900 0.599943 0.825080
O O8 0.442886 0.522751 0.940335
O O9 0.587673 0.522621 0.039451
O O10 0.880926 0.761098 0.900219
O O11 0.975474 0.680989 0.856887
O O12 0.870607 0.629322 0.037077
O O13 0.060750 0.955740 0.145953
O O14 0.008040 0.782310 0.100801
#
# Coordination Sequence:
#
# PCOD9574772 Si02
#       8
#     9   3   9   9   9   9   3   9
#     4  12  24  41  71 101 142 187 237 296 374 434
#     4  12  18  42  69 105 136 189 243 321 358 425
#     4  10  26  41  63 100 144 186 225 302 371 439
#     4  10  24  43  67 101 139 180 239 299 361 438
#     4  12  25  43  69 104 143 184 246 306 369 440
#     4  10  24  40  63 102 138 181 238 293 374 428
#     4  12  24  42  72 111 144 181 246 318 364 428
#     4  12  23  44  72 104 134 192 242 305 359 440
#
# _framework density 21.190951999999999
#
# number of rings (size 3 to 8) (size 9 to 14) (size 15 to 20)
#    0.900    0.000    3.000    4.500    4.200    0.000 
#    0.000    0.000    0.000    0.000    0.000    4.200 
#    0.000    0.000    0.000    0.000    0.000    0.000 
#
# Total GULP energy -111662.885297 kJ/mol
# GULP energy per Si atom -5583.144265 kJ/mol
# Density = 2.114272 g / cm^3
# Si number density = 21.190952 Si / 1000 Ang^3
#
#
#
# Elastic Constant Matrix: (Units=GPa)
#
#
# Indices 1 2 3 4 5 6 
#
# 1 71.0985 19.7211 21.7282 -0.8799 -0.8654 -0.0005
# 2 19.7211 71.0980 21.7285 0.8798 0.8655 -0.0001
# 3 21.7282 21.7285 93.1391 0.0001 -0.0001 0.0003
# 4 -0.8799 0.8798 0.0001 33.0581 -0.0001 0.8660
# 5 -0.8654 0.8655 -0.0001 -0.0001 33.0588 -0.8800
# 6 -0.0005 -0.0001 0.0003 0.8660 -0.8800 25.6880
#
#
#
# Elastic Compliance Matrix: (Units=1/GPa)
#
#
# Indices 1 2 3 4 5 6 
#
# 1 0.015947 -0.003552 -0.002891 0.000519 0.000510 0.000000
# 2 -0.003552 0.015947 -0.002892 -0.000519 -0.000510 0.000000
# 3 -0.002891 -0.002892 0.012086 0.000000 0.000000 0.000000
# 4 0.000519 -0.000519 0.000000 0.030304 0.000000 -0.001022
# 5 0.000510 -0.000510 0.000000 0.000000 0.030303 0.001038
# 6 0.000000 0.000000 0.000000 -0.001022 0.001038 0.038999
#
#
# Mechanical properties :
#
#
# Convention : Reuss Voigt Hill
#
# Bulk Modulus (GPa) = 39.51219 40.18792 39.85006
# Shear Modulus (GPa) = 29.29253 29.83817 29.56535
#
# Velocity S-wave (km/s) = 3.72198 3.75649 3.73927
# Velocity P-wave (km/s) = 6.09566 6.14986 6.12282
#
# Compressibility (1/GPa) = 0.02530865
#
# Stress axis : x y z
#
# Youngs Moduli (GPa) = 62.70938 62.70876 82.74220
#
# Poissons Ratio (x) = 0.22276 0.23924
# Poissons Ratio (y) = 0.22276 0.23925
# Poissons Ratio (z) = 0.18132 0.18133
#
# Static dielectric constant tensor:
#      x y z
#    x 1.775120 0.000000 0.000000 
#    y 0.000000 1.775120 0.000000 
#    z 0.000000 0.000000 1.770060 
# 
# From -- ./inp_files/1562.got.cif
#   From: 2010.05.17/outbox.cif.g08.bks.cpg/sg146_cif.got.tgz:1562.got - 2010.05.20 13:48:23.
