data_PCOD9574180
_publ_section_title
;
Structure prediction by ZEFSAII (Michael W. Deem and Ramdas Pophale) SiO2 
 PCOD9574180
Probable space group: I 41/A C D
;
_chemical_formula_sum "Si O2"
_cell_formula_units_Z 64
_cell_length_a 10.013384
_cell_length_b 10.013384
_cell_length_c 24.573365
_cell_angle_alpha 90.000000
_cell_angle_beta 90.000000
_cell_angle_gamma 90.000000
_cell_volume 2463.918700
_symmetry_space_group_name_H-M "I 41/A C D"
_symmetry_group_IT_number 142
_space_group.IT_coordinate_system_code '2'
_symmetry_cell_setting 'tetragonal'
loop_
_space_group_symop_operation_xyz
x,y,z
1/4-y,3/4+x,1/4+z
-x,1/2-y,z
1/4+y,1/4-x,3/4+z
x,-y,1/2-z
1/2-x,y,-z
3/4+y,1/4+x,1/4-z
1/4-y,1/4-x,1/4-z
-x,-y,-z
3/4+y,1/4-x,3/4-z
x,1/2+y,-z
3/4-y,3/4+x,1/4-z
-x,y,1/2+z
1/2+x,-y,z
1/4-y,3/4-x,3/4+z
3/4+y,3/4+x,3/4+z
1/2+x,1/2+y,1/2+z
3/4-y,1/4+x,3/4+z
1/2-x,-y,1/2+z
3/4+y,3/4-x,1/4+z
1/2+x,1/2-y,-z
-x,1/2+y,1/2-z
1/4+y,3/4+x,3/4-z
3/4-y,3/4-x,3/4-z
1/2-x,1/2-y,1/2-z
1/4+y,3/4-x,1/4-z
1/2+x,y,1/2-z
1/4-y,1/4+x,3/4-z
1/2-x,1/2+y,z
x,1/2-y,1/2+z
3/4-y,1/4-x,1/4+z
1/4+y,1/4+x,1/4+z
loop_
_atom_site_type_symbol
_atom_site_label
_atom_site_fract_x
_atom_site_fract_y
_atom_site_fract_z
Si Si1 0.713798 0.772040 0.591488
Si Si2 0.101281 0.991408 0.050533
O O1 0.598018 0.848018 0.625000
O O2 0.665105 0.638750 0.560398
O O3 0.796256 0.724776 0.643852
O O4 0.785108 0.878638 0.553167
O O5 0.000000 0.000000 0.000000
#
# Coordination Sequence:
#
# PCOD9574180 Si02
#       2
#    32  32
#     4  11  24  58  80 126 177 229 308 364 444 557
#     4  11  26  54  86 124 176 235 291 377 454 537
#
# _framework density 25.974883999999999
#
# number of rings (size 3 to 8) (size 9 to 14) (size 15 to 20)
#    0.000    1.000    5.000    3.000    0.000    3.000 
#   36.000    2.500    0.000    0.000    0.000    0.000 
#    0.000    0.000    0.000    0.000    0.000    0.000 
#
# Total GULP energy -178936.424513 kJ/mol
# GULP energy per Si atom -5591.763266 kJ/mol
# Density = 2.591576 g / cm^3
# Si number density = 25.974884 Si / 1000 Ang^3
#
#
#
# Elastic Constant Matrix: (Units=GPa)
#
#
# Indices 1 2 3 4 5 6 
#
# 1 218.5153 119.4318 126.8568 0.0000 0.0000 0.0000
# 2 119.4318 218.5153 126.8568 0.0000 0.0000 0.0000
# 3 126.8568 126.8568 249.1480 0.0000 0.0000 0.0000
# 4 0.0000 0.0000 0.0000 -7.7567 0.0000 0.0000
# 5 0.0000 0.0000 0.0000 0.0000 -7.7567 0.0000
# 6 0.0000 0.0000 0.0000 0.0000 0.0000 58.9675
#
#
#
# Elastic Compliance Matrix: (Units=1/GPa)
#
#
# Indices 1 2 3 4 5 6 
#
# 1 0.007441 -0.002651 -0.002439 0.000000 0.000000 0.000000
# 2 -0.002651 0.007441 -0.002439 0.000000 0.000000 0.000000
# 3 -0.002439 -0.002439 0.006497 0.000000 0.000000 0.000000
# 4 0.000000 0.000000 0.000000 -0.128920 0.000000 0.000000
# 5 0.000000 0.000000 0.000000 0.000000 -0.128920 0.000000
# 6 0.000000 0.000000 0.000000 0.000000 0.000000 0.016959
#
#
# Mechanical properties :
#
#
# Convention : Reuss Voigt Hill
#
# Bulk Modulus (GPa) = 158.18440 159.16326 158.67383
# Shear Modulus (GPa) = -24.71128 29.55968 2.42420
#
# Velocity S-wave (km/s) = -3.08775 3.37710 0.96711
# Velocity P-wave (km/s) = 6.95118 8.75301 7.90361
#
# Compressibility (1/GPa) = 0.00632174
#
# Stress axis : x y z
#
# Youngs Moduli (GPa) = 134.38552 134.38552 153.91032
#
# Poissons Ratio (x) = 0.35629 0.37537
# Poissons Ratio (y) = 0.35629 0.37537
# Poissons Ratio (z) = 0.32776 0.32776
#
# Static dielectric constant tensor:
#      x y z
#    x 3.043320 0.000000 0.000000 
#    y 0.000000 3.043320 0.000000 
#    z 0.000000 0.000000 2.049950 
# 
# From -- ./inp_files/10673.got.cif
#   From: 2010.05.17/outbox.cif.g08.bks.cpg/sg142_6_cif.got.tgz:10673.got - 2010.05.20 13:39:18.
