data_PCOD9574303
_publ_section_title
;
Structure prediction by ZEFSAII (Michael W. Deem and Ramdas Pophale) SiO2 
 PCOD9574303
Probable space group: P 31
;
_chemical_formula_sum "Si O2"
_cell_formula_units_Z 9
_cell_length_a 7.348927
_cell_length_b 7.348927
_cell_length_c 5.520015
_cell_angle_alpha 90.000000
_cell_angle_beta 90.000000
_cell_angle_gamma 120.000000
_cell_volume 258.177717
_symmetry_space_group_name_H-M "P 31"
_symmetry_group_IT_number 144
_symmetry_cell_setting 'hexagonal'
loop_
_space_group_symop_operation_xyz
x,y,z
-y,x-y,1/3+z
-x+y,-x,2/3+z
loop_
_atom_site_type_symbol
_atom_site_label
_atom_site_fract_x
_atom_site_fract_y
_atom_site_fract_z
Si Si1 0.953794 0.384607 0.905960
Si Si2 0.801342 0.827794 0.630212
Si Si3 0.567355 0.973148 0.076487
O O1 0.302130 0.861963 0.027616
O O2 0.861039 0.162517 0.073224
O O3 0.904136 0.458674 0.656255
O O4 0.929056 0.516719 0.128465
O O5 0.941919 0.845081 0.855819
O O6 0.223864 0.815232 0.517008
#
# Coordination Sequence:
#
# PCOD9574303 Si02
#       3
#     3   3   3
#     4  10  20  33  59  85 120 145 201 248 297 338
#     4  10  22  36  56  84 132 158 194 238 308 356
#     4  10  20  33  59  85 120 145 201 248 297 338
#
# _framework density 34.859709000000002
#
# number of rings (size 3 to 8) (size 9 to 14) (size 15 to 20)
#    2.000    0.000    0.000    6.000    0.000    0.000 
#    0.000    0.000    0.000    0.000    0.000   56.000 
#    0.000    0.000    0.000    0.000    0.000    0.000 
#
# Total GULP energy -50207.059825 kJ/mol
# GULP energy per Si atom -5578.562203 kJ/mol
# Density = 3.478037 g / cm^3
# Si number density = 34.859709 Si / 1000 Ang^3
#
#
#
# Elastic Constant Matrix: (Units=GPa)
#
#
# Indices 1 2 3 4 5 6 
#
# 1 222.0744 75.8446 78.3433 14.4559 22.1531 0.0000
# 2 75.8446 222.0744 78.3433 -14.4559 -22.1531 0.0000
# 3 78.3433 78.3433 325.3301 0.0000 0.0000 0.0000
# 4 14.4559 -14.4559 0.0000 98.7873 0.0000 -22.1531
# 5 22.1531 -22.1531 0.0000 0.0000 98.7873 14.4559
# 6 0.0000 0.0000 0.0000 -22.1531 14.4559 73.1149
#
#
#
# Elastic Compliance Matrix: (Units=1/GPa)
#
#
# Indices 1 2 3 4 5 6 
#
# 1 0.005708 -0.001864 -0.000926 -0.001108 -0.001698 0.000000
# 2 -0.001864 0.005708 -0.000926 0.001108 0.001698 0.000000
# 3 -0.000926 -0.000926 0.003520 0.000000 0.000000 0.000000
# 4 -0.001108 0.001108 0.000000 0.011209 0.000000 0.003396
# 5 -0.001698 0.001698 0.000000 0.000000 0.011209 -0.002216
# 6 0.000000 0.000000 0.000000 0.003396 -0.002216 0.015144
#
#
# Mechanical properties :
#
#
# Convention : Reuss Voigt Hill
#
# Bulk Modulus (GPa) = 133.25861 137.17125 135.21493
# Shear Modulus (GPa) = 80.09116 89.93440 85.01278
#
# Velocity S-wave (km/s) = 4.79845 5.08478 4.94369
# Velocity P-wave (km/s) = 8.30724 8.59699 8.45336
#
# Compressibility (1/GPa) = 0.00750421
#
# Stress axis : x y z
#
# Youngs Moduli (GPa) = 175.20018 175.20018 284.12649
#
# Poissons Ratio (x) = 0.32664 0.26297
# Poissons Ratio (y) = 0.32664 0.26297
# Poissons Ratio (z) = 0.16215 0.16215
#
# Static dielectric constant tensor:
#      x y z
#    x 3.407910 0.000000 0.000000 
#    y 0.000000 3.407910 0.000000 
#    z 0.000000 0.000000 3.003120 
# 
# From -- ./inp_files/36.got.cif
#   From: 2010.05.17/outbox.cif.g08.bks.cpg/sg144_cif.got.tgz:36.got - 2010.05.20 13:46:34.
