data_PCOD9574683
_publ_section_title
;
Structure prediction by ZEFSAII (Michael W. Deem and Ramdas Pophale) SiO2 
 PCOD9574683
Probable space group: R 3
;
_chemical_formula_sum "Si O2"
_cell_formula_units_Z 60
_cell_length_a 17.233761
_cell_length_b 17.233761
_cell_length_c 10.703052
_cell_angle_alpha 90.000000
_cell_angle_beta 90.000000
_cell_angle_gamma 120.000000
_cell_volume 2752.950476
_symmetry_space_group_name_H-M "R 3"
_symmetry_group_IT_number 146
_symmetry_cell_setting 'hexagonal'
loop_
_space_group_symop_operation_xyz
x,y,z
-y,x-y,z
-x+y,-x,z
2/3+x,1/3+y,1/3+z
2/3-y,1/3+x-y,1/3+z
2/3-x+y,1/3-x,1/3+z
1/3+x,2/3+y,2/3+z
1/3-y,2/3+x-y,2/3+z
1/3-x+y,2/3-x,2/3+z
loop_
_atom_site_type_symbol
_atom_site_label
_atom_site_fract_x
_atom_site_fract_y
_atom_site_fract_z
Si Si1 0.233272 0.752936 0.165380
Si Si2 0.333334 0.666667 0.790091
Si Si3 0.904279 0.415671 0.107659
Si Si4 0.418415 0.136273 0.666399
Si Si5 0.756553 0.652348 0.205119
Si Si6 0.333334 0.666668 0.086848
Si Si7 0.538093 0.793171 0.708692
Si Si8 0.382357 0.229520 0.441093
O O1 0.249294 0.776028 0.310864
O O2 0.308279 0.829995 0.074190
O O3 0.246418 0.669582 0.135408
O O4 0.141282 0.752296 0.137141
O O5 0.435963 0.722169 0.745337
O O6 0.333334 0.666667 0.939159
O O7 0.879357 0.314644 0.135313
O O8 0.879428 0.453333 0.227427
O O9 0.011475 0.469415 0.089641
O O10 0.427715 0.202291 0.553433
O O11 0.377108 0.038307 0.601044
O O12 0.832267 0.725566 0.115058
O O13 0.796953 0.621115 0.316545
O O14 0.557578 0.890458 0.750856
#
# Coordination Sequence:
#
# PCOD9574683 Si02
#       8
#     9   3   9   9   9   3   9   9
#     4  10  23  40  65  93 127 169 224 279 330 403
#     4  12  24  40  65  97 132 174 232 278 334 411
#     4  11  22  38  62  96 132 171 217 273 336 400
#     4  10  19  38  66  94 123 167 225 275 322 395
#     4  11  20  37  64  94 128 171 222 274 328 395
#     4  12  24  43  68  94 123 174 229 284 340 390
#     4  12  24  40  65  96 136 178 218 279 343 398
#     4  10  22  40  61  94 131 170 221 272 335 404
#
# _framework density 21.794799000000001
#
# number of rings (size 3 to 8) (size 9 to 14) (size 15 to 20)
#    0.000    1.200    0.000    9.900    0.000    2.400 
#    0.000    6.000    0.000    0.000    0.000    0.000 
#    0.000    0.000    0.000    0.000    0.000    0.000 
#
# Total GULP energy -111892.732361 kJ/mol
# GULP energy per Si atom -5594.636618 kJ/mol
# Density = 2.174519 g / cm^3
# Si number density = 21.794799 Si / 1000 Ang^3
#
#
#
# Elastic Constant Matrix: (Units=GPa)
#
#
# Indices 1 2 3 4 5 6 
#
# 1 74.2923 26.6477 30.1451 4.9345 -3.0664 0.0004
# 2 26.6477 74.2924 30.1459 -4.9345 3.0666 0.0001
# 3 30.1451 30.1459 118.7700 0.0001 -0.0002 0.0004
# 4 4.9345 -4.9345 0.0001 26.9967 0.0002 3.0663
# 5 -3.0664 3.0666 -0.0002 0.0002 26.9964 4.9347
# 6 0.0004 0.0001 0.0004 3.0663 4.9347 23.8225
#
#
#
# Elastic Compliance Matrix: (Units=1/GPa)
#
#
# Indices 1 2 3 4 5 6 
#
# 1 0.016914 -0.005237 -0.002964 -0.004049 0.002516 0.000000
# 2 -0.005237 0.016914 -0.002964 0.004049 -0.002516 0.000000
# 3 -0.002964 -0.002964 0.009924 0.000000 0.000000 0.000000
# 4 -0.004049 0.004049 0.000000 0.039093 0.000000 -0.005032
# 5 0.002516 -0.002516 0.000000 0.000000 0.039094 -0.008098
# 6 0.000000 0.000000 0.000000 -0.005032 -0.008098 0.044302
#
#
# Mechanical properties :
#
#
# Convention : Reuss Voigt Hill
#
# Bulk Modulus (GPa) = 46.67847 49.02580 47.85214
# Shear Modulus (GPa) = 25.54770 27.59086 26.56928
#
# Velocity S-wave (km/s) = 3.42744 3.56186 3.49530
# Velocity P-wave (km/s) = 6.09319 6.28163 6.18813
#
# Compressibility (1/GPa) = 0.02142315
#
# Stress axis : x y z
#
# Youngs Moduli (GPa) = 59.12199 59.12170 100.76427
#
# Poissons Ratio (x) = 0.30962 0.29864
# Poissons Ratio (y) = 0.30963 0.29866
# Poissons Ratio (z) = 0.17522 0.17523
#
# Static dielectric constant tensor:
#      x y z
#    x 1.813640 0.000000 0.000000 
#    y 0.000000 1.813640 0.000000 
#    z 0.000000 0.000000 1.777910 
# 
# From -- ./inp_files/1265.got.cif
#   From: 2010.05.17/outbox.cif.g08.bks.cpg/sg146_cif.got.tgz:1265.got - 2010.05.20 13:48:23.
