data_PCOD9574612
_publ_section_title
;
Structure prediction by ZEFSAII (Michael W. Deem and Ramdas Pophale) SiO2 
 PCOD9574612
Probable space group: P 32
;
_chemical_formula_sum "Si O2"
_cell_formula_units_Z 24
_cell_length_a 11.847384
_cell_length_b 11.847384
_cell_length_c 9.472057
_cell_angle_alpha 90.000000
_cell_angle_beta 90.000000
_cell_angle_gamma 120.000000
_cell_volume 1151.383138
_symmetry_space_group_name_H-M "P 32"
_symmetry_group_IT_number 145
_symmetry_cell_setting 'hexagonal'
loop_
_space_group_symop_operation_xyz
x,y,z
-y,x-y,2/3+z
-x+y,-x,1/3+z
loop_
_atom_site_type_symbol
_atom_site_label
_atom_site_fract_x
_atom_site_fract_y
_atom_site_fract_z
Si Si1 0.670069 0.179775 0.548530
Si Si2 0.672734 0.643746 0.230640
Si Si3 0.538401 0.688168 0.800861
Si Si4 0.794932 0.816433 0.974280
Si Si5 0.362322 0.022921 0.211167
Si Si6 0.914890 0.748358 0.732604
Si Si7 0.823628 0.486892 0.893278
Si Si8 0.418444 0.500135 0.042538
O O1 0.819313 0.284816 0.576396
O O2 0.579410 0.246077 0.554237
O O3 0.666667 0.134971 0.387571
O O4 0.614886 0.057752 0.654135
O O5 0.779173 0.754184 0.128193
O O6 0.666667 0.689774 0.387571
O O7 0.534727 0.584608 0.151907
O O8 0.554160 0.641677 0.646949
O O9 0.538738 0.822032 0.782976
O O10 0.666667 0.715561 0.887571
O O11 0.427533 0.582951 0.901908
O O12 0.794595 0.949961 0.992166
O O13 0.905800 0.822085 0.873233
O O14 0.283453 0.082059 0.289901
O O15 0.514020 0.132169 0.198745
O O16 0.890467 0.608914 0.787673
#
# Coordination Sequence:
#
# PCOD9574612 Si02
#       8
#     3   3   3   3   3   3   3   3
#     4  12  21  40  71 102 134 161 209 277 335 383
#     4  11  25  42  66 103 131 166 216 266 330 388
#     4  10  24  46  63  90 133 173 218 262 317 387
#     4  10  24  46  63  90 133 173 218 262 317 387
#     4  11  25  42  66 103 131 166 216 266 330 388
#     4  11  24  44  66  93 132 175 215 267 320 383
#     4  12  21  40  71 102 134 161 209 277 335 383
#     4  11  24  44  66  93 132 175 215 267 320 383
#
# _framework density 20.844494000000001
#
# number of rings (size 3 to 8) (size 9 to 14) (size 15 to 20)
#    0.000    1.000    5.000    1.500    3.500    3.000 
#    4.500    0.000    0.000    0.000    0.000    0.000 
#    0.000    0.000    0.000    0.000    0.000    0.000 
#
# Total GULP energy -134065.049813 kJ/mol
# GULP energy per Si atom -5586.043742 kJ/mol
# Density = 2.079705 g / cm^3
# Si number density = 20.844494 Si / 1000 Ang^3
#
#
#
# Elastic Constant Matrix: (Units=GPa)
#
#
# Indices 1 2 3 4 5 6 
#
# 1 65.4598 17.2709 18.1056 -3.0968 0.0000 0.0000
# 2 17.2709 65.4598 18.1056 3.0968 0.0000 0.0000
# 3 18.1056 18.1056 151.3378 0.0000 0.0000 0.0000
# 4 -3.0968 3.0968 0.0000 19.3463 0.0000 0.0000
# 5 0.0000 0.0000 0.0000 0.0000 19.3463 -3.0968
# 6 0.0000 0.0000 0.0000 0.0000 -3.0968 24.0945
#
#
#
# Elastic Compliance Matrix: (Units=1/GPa)
#
#
# Indices 1 2 3 4 5 6 
#
# 1 0.016971 -0.004216 -0.001526 0.003392 0.000000 0.000000
# 2 -0.004216 0.016971 -0.001526 -0.003392 0.000000 0.000000
# 3 -0.001526 -0.001526 0.006973 0.000000 0.000000 0.000000
# 4 0.003392 -0.003392 0.000000 0.052775 0.000000 0.000000
# 5 0.000000 0.000000 0.000000 0.000000 0.052775 0.006783
# 6 0.000000 0.000000 0.000000 0.000000 0.006783 0.042375
#
#
# Mechanical properties :
#
#
# Convention : Reuss Voigt Hill
#
# Bulk Modulus (GPa) = 37.90820 43.24684 40.57752
# Shear Modulus (GPa) = 23.56592 27.80911 25.68752
#
# Velocity S-wave (km/s) = 3.36603 3.65653 3.51428
# Velocity P-wave (km/s) = 5.77343 6.21445 5.99799
#
# Compressibility (1/GPa) = 0.02637952
#
# Stress axis : x y z
#
# Youngs Moduli (GPa) = 58.92250 58.92250 143.41304
#
# Poissons Ratio (x) = 0.24842 0.21885
# Poissons Ratio (y) = 0.24842 0.21885
# Poissons Ratio (z) = 0.08992 0.08992
#
# Static dielectric constant tensor:
#      x y z
#    x 1.756040 0.000000 0.000000 
#    y 0.000000 1.756040 0.000000 
#    z 0.000000 0.000000 1.789640 
# 
# From -- ./inp_files/435.got.cif
#   From: 2010.05.17/outbox.cif.g08.bks.cpg/sg145_cif.got.tgz:435.got - 2010.05.20 13:47:28.
