data_PCOD9574024
_publ_section_title
;
Structure prediction by ZEFSAII (Michael W. Deem and Ramdas Pophale) SiO2 
 PCOD9574024
Probable space group: I 41/A C D
;
_chemical_formula_sum "Si O2"
_cell_formula_units_Z 112
_cell_length_a 17.111376
_cell_length_b 17.111376
_cell_length_c 15.831858
_cell_angle_alpha 90.000000
_cell_angle_beta 90.000000
_cell_angle_gamma 90.000000
_cell_volume 4635.555177
_symmetry_space_group_name_H-M "I 41/A C D"
_symmetry_group_IT_number 142
_space_group.IT_coordinate_system_code '2'
_symmetry_cell_setting 'tetragonal'
loop_
_space_group_symop_operation_xyz
x,y,z
1/4-y,3/4+x,1/4+z
-x,1/2-y,z
1/4+y,1/4-x,3/4+z
x,-y,1/2-z
1/2-x,y,-z
3/4+y,1/4+x,1/4-z
1/4-y,1/4-x,1/4-z
-x,-y,-z
3/4+y,1/4-x,3/4-z
x,1/2+y,-z
3/4-y,3/4+x,1/4-z
-x,y,1/2+z
1/2+x,-y,z
1/4-y,3/4-x,3/4+z
3/4+y,3/4+x,3/4+z
1/2+x,1/2+y,1/2+z
3/4-y,1/4+x,3/4+z
1/2-x,-y,1/2+z
3/4+y,3/4-x,1/4+z
1/2+x,1/2-y,-z
-x,1/2+y,1/2-z
1/4+y,3/4+x,3/4-z
3/4-y,3/4-x,3/4-z
1/2-x,1/2-y,1/2-z
1/4+y,3/4-x,1/4-z
1/2+x,y,1/2-z
1/4-y,1/4+x,3/4-z
1/2-x,1/2+y,z
x,1/2-y,1/2+z
3/4-y,1/4-x,1/4+z
1/4+y,1/4+x,1/4+z
loop_
_atom_site_type_symbol
_atom_site_label
_atom_site_fract_x
_atom_site_fract_y
_atom_site_fract_z
Si Si1 0.750000 0.433599 0.000000
Si Si2 0.625682 0.245515 0.593369
Si Si3 0.690998 0.940998 0.625000
Si Si4 0.878543 0.871458 0.875000
Si Si5 0.986804 0.058069 0.156058
O O1 0.700274 0.490462 0.058193
O O2 0.808309 0.385298 0.058531
O O3 0.578131 0.322396 0.626139
O O4 0.717890 0.240284 0.617406
O O5 0.640422 0.248470 0.492221
O O6 0.605298 0.947469 0.660702
O O7 0.964730 0.888716 0.909555
#
# Coordination Sequence:
#
# PCOD9574024 Si02
#       5
#    16  32  16  16  32
#     4  10  24  46  72 106 140 202 248 310 368 462
#     4  10  24  46  72 101 143 192 243 300 381 449
#     4  11  26  45  72 106 152 189 257 304 382 446
#     4  11  26  45  72 106 152 189 257 304 382 446
#     4  11  26  43  69 108 145 188 244 312 367 453
#
# _framework density 24.161075
#
# number of rings (size 3 to 8) (size 9 to 14) (size 15 to 20)
#    0.000    1.429    0.000    3.429   16.000    6.286 
#    0.000    0.000    0.000    0.000    0.000    0.000 
#    0.000    0.000    0.000    0.000    0.000    0.000 
#
# Total GULP energy -311857.492872 kJ/mol
# GULP energy per Si atom -5568.883801 kJ/mol
# Density = 2.410608 g / cm^3
# Si number density = 24.161075 Si / 1000 Ang^3
#
#
#
# Elastic Constant Matrix: (Units=GPa)
#
#
# Indices 1 2 3 4 5 6 
#
# 1 127.1760 73.2429 39.8484 0.0000 0.0000 0.0000
# 2 73.2429 127.1751 39.8487 0.0000 0.0000 0.0000
# 3 39.8484 39.8487 57.7178 0.0000 0.0000 0.0000
# 4 0.0000 0.0000 0.0000 99.1423 0.0000 0.0000
# 5 0.0000 0.0000 0.0000 0.0000 99.1648 0.0000
# 6 0.0000 0.0000 0.0000 0.0000 0.0000 49.9166
#
#
#
# Elastic Compliance Matrix: (Units=1/GPa)
#
#
# Indices 1 2 3 4 5 6 
#
# 1 0.012710 -0.005832 -0.004748 0.000000 0.000000 0.000000
# 2 -0.005832 0.012710 -0.004749 0.000000 0.000000 0.000000
# 3 -0.004748 -0.004749 0.023882 0.000000 0.000000 0.000000
# 4 0.000000 0.000000 0.000000 0.010087 0.000000 0.000000
# 5 0.000000 0.000000 0.000000 0.000000 0.010084 0.000000
# 6 0.000000 0.000000 0.000000 0.000000 0.000000 0.020033
#
#
# Mechanical properties :
#
#
# Convention : Reuss Voigt Hill
#
# Bulk Modulus (GPa) = 53.63609 68.66097 61.14853
# Shear Modulus (GPa) = 39.56374 60.25333 49.90853
#
# Velocity S-wave (km/s) = 4.05099 4.99923 4.54988
# Velocity P-wave (km/s) = 6.64291 7.86148 7.27774
#
# Compressibility (1/GPa) = 0.01864416
#
# Stress axis : x y z
#
# Youngs Moduli (GPa) = 78.68043 78.67941 41.87189
#
# Poissons Ratio (x) = 0.45885 0.19882
# Poissons Ratio (y) = 0.45886 0.19883
# Poissons Ratio (z) = 0.37360 0.37361
#
# Static dielectric constant tensor:
#      x y z
#    x 1.998160 0.000000 0.000000 
#    y 0.000000 1.998160 0.000000 
#    z 0.000000 0.000000 2.039340 
# 
# From -- ./inp_files/6890.got.cif
#   From: 2010.05.17/outbox.cif.g08.bks.cpg/sg142_4_cif.got.tgz:6890.got - 2010.05.20 13:39:18.
