data_PCOD9574578
_publ_section_title
;
Structure prediction by ZEFSAII (Michael W. Deem and Ramdas Pophale) SiO2 
 PCOD9574578
Probable space group: P 32
;
_chemical_formula_sum "Si O2"
_cell_formula_units_Z 18
_cell_length_a 9.098093
_cell_length_b 9.098093
_cell_length_c 9.321023
_cell_angle_alpha 90.000000
_cell_angle_beta 90.000000
_cell_angle_gamma 120.000000
_cell_volume 668.182281
_symmetry_space_group_name_H-M "P 32"
_symmetry_group_IT_number 145
_symmetry_cell_setting 'hexagonal'
loop_
_space_group_symop_operation_xyz
x,y,z
-y,x-y,2/3+z
-x+y,-x,1/3+z
loop_
_atom_site_type_symbol
_atom_site_label
_atom_site_fract_x
_atom_site_fract_y
_atom_site_fract_z
Si Si1 0.270563 0.188011 0.183020
Si Si2 0.759563 0.397419 0.849163
Si Si3 0.379385 0.502549 0.639247
Si Si4 0.195973 0.183755 0.851514
Si Si5 0.480348 0.810974 0.815721
Si Si6 0.429433 0.095412 0.683106
O O1 0.458093 0.231300 0.222578
O O2 0.258277 0.347880 0.239755
O O3 0.270679 0.202086 0.009344
O O4 0.112810 0.003034 0.209835
O O5 0.605514 0.283786 0.720948
O O6 0.712410 0.550628 0.857958
O O7 0.967729 0.524174 0.863418
O O8 0.270696 0.352222 0.752871
O O9 0.499396 0.672088 0.727598
O O10 0.264658 0.570222 0.566800
O O11 0.270558 0.079728 0.767521
O O12 0.463091 0.945778 0.715227
#
# Coordination Sequence:
#
# PCOD9574578 Si02
#       6
#     3   3   3   3   3   3
#     4  11  23  42  68 100 139 183 233 295 360 428
#     4  10  22  40  66  95 135 185 234 287 354 428
#     4  11  24  43  69 102 143 189 239 299 364 436
#     4  11  24  46  70 100 140 185 240 303 363 435
#     4  11  23  40  66  99 139 186 237 296 363 431
#     4  10  22  41  65  96 132 182 239 294 356 430
#
# _framework density 26.938755
#
# number of rings (size 3 to 8) (size 9 to 14) (size 15 to 20)
#    0.000    1.333    0.000    6.000    0.000    8.000 
#    0.000   10.000    0.000    0.000    0.000    0.000 
#    0.000    0.000    0.000    0.000    0.000    0.000 
#
# Total GULP energy -100369.176857 kJ/mol
# GULP energy per Si atom -5576.065381 kJ/mol
# Density = 2.687744 g / cm^3
# Si number density = 26.938755 Si / 1000 Ang^3
#
#
#
# Elastic Constant Matrix: (Units=GPa)
#
#
# Indices 1 2 3 4 5 6 
#
# 1 135.0596 55.7400 27.3714 -5.2804 8.5587 0.0000
# 2 55.7400 135.0596 27.3714 5.2804 -8.5587 0.0000
# 3 27.3714 27.3714 64.7225 0.0000 0.0000 0.0000
# 4 -5.2804 5.2804 0.0000 38.0112 0.0000 -8.5587
# 5 8.5587 -8.5587 0.0000 0.0000 38.0112 -5.2804
# 6 0.0000 0.0000 0.0000 -8.5587 -5.2804 39.6598
#
#
#
# Elastic Compliance Matrix: (Units=1/GPa)
#
#
# Indices 1 2 3 4 5 6 
#
# 1 0.009739 -0.003774 -0.002523 0.001877 -0.003043 0.000000
# 2 -0.003774 0.009739 -0.002523 -0.001877 0.003043 0.000000
# 3 -0.002523 -0.002523 0.017584 0.000000 0.000000 0.000000
# 4 0.001877 -0.001877 0.000000 0.028200 0.000000 0.006086
# 5 -0.003043 0.003043 0.000000 0.000000 0.028200 0.003755
# 6 0.000000 0.000000 0.000000 0.006086 0.003755 0.027028
#
#
# Mechanical properties :
#
#
# Convention : Reuss Voigt Hill
#
# Bulk Modulus (GPa) = 51.48368 61.75640 56.62004
# Shear Modulus (GPa) = 34.57717 38.09368 36.33543
#
# Velocity S-wave (km/s) = 3.58655 3.76451 3.67661
# Velocity P-wave (km/s) = 6.02528 6.47070 6.25196
#
# Compressibility (1/GPa) = 0.01942363
#
# Stress axis : x y z
#
# Youngs Moduli (GPa) = 102.67632 102.67632 56.86932
#
# Poissons Ratio (x) = 0.38755 0.14346
# Poissons Ratio (y) = 0.38755 0.14346
# Poissons Ratio (z) = 0.25901 0.25901
#
# Static dielectric constant tensor:
#      x y z
#    x 2.044260 0.000000 0.000000 
#    y 0.000000 2.044260 0.000000 
#    z 0.000000 0.000000 3.128580 
# 
# From -- ./inp_files/589.got.cif
#   From: 2010.05.17/outbox.cif.g08.bks.cpg/sg145_cif.got.tgz:589.got - 2010.05.20 13:47:28.
