data_PCOD9574520
_publ_section_title
;
Structure prediction by ZEFSAII (Michael W. Deem and Ramdas Pophale) SiO2 
 PCOD9574520
Probable space group: P 31
;
_chemical_formula_sum "Si O2"
_cell_formula_units_Z 18
_cell_length_a 9.595626
_cell_length_b 9.595626
_cell_length_c 9.009507
_cell_angle_alpha 90.000000
_cell_angle_beta 90.000000
_cell_angle_gamma 120.000000
_cell_volume 718.419784
_symmetry_space_group_name_H-M "P 31"
_symmetry_group_IT_number 144
_symmetry_cell_setting 'hexagonal'
loop_
_space_group_symop_operation_xyz
x,y,z
-y,x-y,1/3+z
-x+y,-x,2/3+z
loop_
_atom_site_type_symbol
_atom_site_label
_atom_site_fract_x
_atom_site_fract_y
_atom_site_fract_z
Si Si1 0.757607 0.848532 0.264900
Si Si2 0.781637 0.114972 0.758365
Si Si3 0.860975 0.383455 0.269785
Si Si4 0.909059 0.424256 0.585162
Si Si5 0.144191 0.949877 0.913616
Si Si6 0.394532 0.727866 0.258359
O O1 0.811498 0.718083 0.228608
O O2 0.751160 0.903728 0.431529
O O3 0.573212 0.762965 0.221174
O O4 0.904259 0.016196 0.205688
O O5 0.619655 0.113642 0.805436
O O6 0.855165 0.239915 0.621452
O O7 0.780304 0.952988 0.711296
O O8 0.915497 0.485904 0.418536
O O9 0.682859 0.237589 0.311050
O O10 0.972646 0.305982 0.258370
O O11 0.093456 0.523080 0.628880
O O12 0.333333 0.639793 0.425025
#
# Coordination Sequence:
#
# PCOD9574520 Si02
#       6
#     3   3   3   3   3   3
#     4  12  26  50  81 118 164 223 294 352 437 533
#     4  12  28  50  84 124 170 222 286 368 438 528
#     4  12  27  48  82 117 163 220 287 356 426 516
#     4  12  26  50  81 118 164 223 294 352 437 533
#     4  12  27  48  82 117 163 220 287 356 426 516
#     4  12  30  56  82 128 182 230 288 370 454 532
#
# _framework density 25.054986
#
# number of rings (size 3 to 8) (size 9 to 14) (size 15 to 20)
#    0.000    0.000    6.667    2.000    2.333    2.667 
#    0.000    0.000    0.000    2.000    0.000    0.000 
#    0.000    0.000    0.000    0.000    0.000    0.000 
#
# Total GULP energy -100298.016567 kJ/mol
# GULP energy per Si atom -5572.112031 kJ/mol
# Density = 2.499796 g / cm^3
# Si number density = 25.054986 Si / 1000 Ang^3
#
#
#
# Elastic Constant Matrix: (Units=GPa)
#
#
# Indices 1 2 3 4 5 6 
#
# 1 146.9446 64.5025 30.6180 14.4149 0.0005 0.0000
# 2 64.5025 146.9446 30.6180 -14.4149 -0.0005 0.0000
# 3 30.6180 30.6180 101.7422 0.0000 0.0000 0.0000
# 4 14.4149 -14.4149 0.0000 24.1395 0.0000 -0.0005
# 5 0.0005 -0.0005 0.0000 0.0000 24.1395 14.4149
# 6 0.0000 0.0000 0.0000 -0.0005 14.4149 41.2210
#
#
#
# Elastic Compliance Matrix: (Units=1/GPa)
#
#
# Indices 1 2 3 4 5 6 
#
# 1 0.010256 -0.005075 -0.001559 -0.009155 0.000000 0.000000
# 2 -0.005075 0.010256 -0.001559 0.009155 0.000000 0.000000
# 3 -0.001559 -0.001559 0.010767 0.000000 0.000000 0.000000
# 4 -0.009155 0.009155 0.000000 0.052360 0.000000 0.000001
# 5 0.000000 0.000000 0.000000 0.000000 0.052360 -0.018310
# 6 0.000000 0.000000 0.000000 0.000001 -0.018310 0.030662
#
#
# Mechanical properties :
#
#
# Convention : Reuss Voigt Hill
#
# Bulk Modulus (GPa) = 67.14833 71.90092 69.52463
# Shear Modulus (GPa) = 26.59402 35.89286 31.24344
#
# Velocity S-wave (km/s) = 3.26149 3.78903 3.53511
# Velocity P-wave (km/s) = 6.40638 6.92112 6.66871
#
# Compressibility (1/GPa) = 0.01489240
#
# Stress axis : x y z
#
# Youngs Moduli (GPa) = 97.50357 97.50357 92.87512
#
# Poissons Ratio (x) = 0.49485 0.14480
# Poissons Ratio (y) = 0.49485 0.14480
# Poissons Ratio (z) = 0.15202 0.15202
#
# Static dielectric constant tensor:
#      x y z
#    x 1.653030 0.000000 0.000000 
#    y 0.000000 1.653030 0.000000 
#    z 0.000000 0.000000 2.553180 
# 
# From -- ./inp_files/260.got.cif
#   From: 2010.05.17/outbox.cif.g08.bks.cpg/sg144_cif.got.tgz:260.got - 2010.05.20 13:46:34.
