data_PCOD9574805
_publ_section_title
;
Structure prediction by ZEFSAII (Michael W. Deem and Ramdas Pophale) SiO2 
 PCOD9574805
Probable space group: R 3
;
_chemical_formula_sum "Si O2"
_cell_formula_units_Z 60
_cell_length_a 15.899520
_cell_length_b 15.899520
_cell_length_c 12.861663
_cell_angle_alpha 90.000000
_cell_angle_beta 90.000000
_cell_angle_gamma 120.000000
_cell_volume 2815.760968
_symmetry_space_group_name_H-M "R 3"
_symmetry_group_IT_number 146
_symmetry_cell_setting 'hexagonal'
loop_
_space_group_symop_operation_xyz
x,y,z
-y,x-y,z
-x+y,-x,z
2/3+x,1/3+y,1/3+z
2/3-y,1/3+x-y,1/3+z
2/3-x+y,1/3-x,1/3+z
1/3+x,2/3+y,2/3+z
1/3-y,2/3+x-y,2/3+z
1/3-x+y,2/3-x,2/3+z
loop_
_atom_site_type_symbol
_atom_site_label
_atom_site_fract_x
_atom_site_fract_y
_atom_site_fract_z
Si Si1 0.033870 0.563947 0.096050
Si Si2 0.333335 0.666668 0.770542
Si Si3 0.887236 0.209343 0.061606
Si Si4 0.348160 0.497455 0.737709
Si Si5 0.025099 0.829920 0.838364
Si Si6 0.467930 0.424791 0.863487
Si Si7 0.942785 0.324891 0.845061
Si Si8 0.666668 0.333334 0.183020
O O1 0.123639 0.660242 0.145709
O O2 0.050305 0.472287 0.101854
O O3 0.946039 0.551508 0.169161
O O4 0.991680 0.565900 0.982024
O O5 0.369944 0.593411 0.800245
O O6 0.333334 0.666667 0.642750
O O7 0.873217 0.101825 0.057498
O O8 0.781703 0.188553 0.098483
O O9 0.968746 0.282979 0.141392
O O10 0.917448 0.266378 0.953254
O O11 0.394992 0.522030 0.623406
O O12 0.392001 0.441131 0.796249
O O13 0.979034 0.896568 0.811181
O O14 0.576920 0.514671 0.852617
#
# Coordination Sequence:
#
# PCOD9574805 Si02
#       8
#     9   3   9   9   9   9   9   3
#     4  12  24  48  69 101 140 188 244 289 370 444
#     4   9  21  39  63  99 130 158 232 288 357 417
#     4  12  25  43  73 102 142 186 239 301 361 437
#     4  11  23  42  71 103 136 183 230 304 366 428
#     4  11  22  41  69 101 135 171 233 297 356 423
#     4  12  27  46  71 101 144 192 243 299 368 448
#     4  12  27  46  70 104 145 192 240 303 370 439
#     4   9  21  33  66  99 124 158 211 297 354 396
#
# _framework density 21.308627000000001
#
# number of rings (size 3 to 8) (size 9 to 14) (size 15 to 20)
#    0.000    0.600    4.500    3.600    6.300    0.000 
#    3.600    0.000    0.000    0.000    0.000    0.000 
#    0.000    0.000    0.000    0.000    0.000    0.000 
#
# Total GULP energy -111743.373363 kJ/mol
# GULP energy per Si atom -5587.168668 kJ/mol
# Density = 2.126013 g / cm^3
# Si number density = 21.308627 Si / 1000 Ang^3
#
#
#
# Elastic Constant Matrix: (Units=GPa)
#
#
# Indices 1 2 3 4 5 6 
#
# 1 80.3812 4.3697 9.6234 -4.0663 -2.9578 -0.0012
# 2 4.3697 80.3847 9.6231 4.0660 2.9573 -0.0004
# 3 9.6234 9.6231 65.4651 0.0000 -0.0001 0.0001
# 4 -4.0663 4.0660 0.0000 27.9128 -0.0002 2.9573
# 5 -2.9578 2.9573 -0.0001 -0.0002 27.9133 -4.0662
# 6 -0.0012 -0.0004 0.0001 2.9573 -4.0662 38.0070
#
#
#
# Elastic Compliance Matrix: (Units=1/GPa)
#
#
# Indices 1 2 3 4 5 6 
#
# 1 0.012842 -0.000635 -0.001794 0.001963 0.001428 0.000000
# 2 -0.000635 0.012841 -0.001794 -0.001963 -0.001428 0.000000
# 3 -0.001794 -0.001794 0.015803 0.000000 0.000000 0.000000
# 4 0.001963 -0.001963 0.000000 0.036700 0.000000 -0.002856
# 5 0.001428 -0.001428 0.000000 0.000000 0.036700 0.003926
# 6 0.000000 0.000000 0.000000 -0.002856 0.003926 0.026953
#
#
# Mechanical properties :
#
#
# Convention : Reuss Voigt Hill
#
# Bulk Modulus (GPa) = 30.26770 30.38483 30.32627
# Shear Modulus (GPa) = 30.99815 32.27426 31.63621
#
# Velocity S-wave (km/s) = 3.81822 3.89602 3.85732
# Velocity P-wave (km/s) = 5.80290 5.87614 5.83964
#
# Compressibility (1/GPa) = 0.03303852
#
# Stress axis : x y z
#
# Youngs Moduli (GPa) = 77.86983 77.87355 63.27977
#
# Poissons Ratio (x) = 0.04946 0.11355
# Poissons Ratio (y) = 0.04946 0.11354
# Poissons Ratio (z) = 0.13973 0.13973
#
# Static dielectric constant tensor:
#      x y z
#    x 1.788720 0.000000 0.000000 
#    y 0.000000 1.788720 0.000000 
#    z 0.000000 0.000000 1.802210 
# 
# From -- ./inp_files/1271.got.cif
#   From: 2010.05.17/outbox.cif.g08.bks.cpg/sg146_cif.got.tgz:1271.got - 2010.05.20 13:48:23.
