data_PCOD9574678
_publ_section_title
;
Structure prediction by ZEFSAII (Michael W. Deem and Ramdas Pophale) SiO2 
 PCOD9574678
Probable space group: R 3
;
_chemical_formula_sum "Si O2"
_cell_formula_units_Z 54
_cell_length_a 14.395855
_cell_length_b 14.395855
_cell_length_c 10.910688
_cell_angle_alpha 90.000000
_cell_angle_beta 90.000000
_cell_angle_gamma 120.000000
_cell_volume 1958.202929
_symmetry_space_group_name_H-M "R 3"
_symmetry_group_IT_number 146
_symmetry_cell_setting 'hexagonal'
loop_
_space_group_symop_operation_xyz
x,y,z
-y,x-y,z
-x+y,-x,z
2/3+x,1/3+y,1/3+z
2/3-y,1/3+x-y,1/3+z
2/3-x+y,1/3-x,1/3+z
1/3+x,2/3+y,2/3+z
1/3-y,2/3+x-y,2/3+z
1/3-x+y,2/3-x,2/3+z
loop_
_atom_site_type_symbol
_atom_site_label
_atom_site_fract_x
_atom_site_fract_y
_atom_site_fract_z
Si Si1 0.727142 0.747278 0.734290
Si Si2 0.341255 0.281773 0.290658
Si Si3 0.245311 0.787653 0.593639
Si Si4 0.380250 0.861640 0.099443
Si Si5 0.196189 0.058000 0.184676
Si Si6 0.825495 0.069754 0.530363
O O1 0.663808 0.779922 0.636074
O O2 0.834914 0.826026 0.811124
O O3 0.743322 0.645514 0.720242
O O4 0.630669 0.706067 0.836401
O O5 0.462623 0.350168 0.244633
O O6 0.260245 0.186624 0.201985
O O7 0.326852 0.217537 0.415824
O O8 0.295081 0.363783 0.300066
O O9 0.300791 0.777846 0.717636
O O10 0.332040 0.795881 0.972103
O O11 0.285594 0.816651 0.202114
O O12 0.476859 0.850042 0.149146
#
# Coordination Sequence:
#
# PCOD9574678 Si02
#       6
#     9   9   9   9   9   9
#     4  10  18  35  60  85 112 153 206 244 301 364
#     4  11  21  39  61  89 124 161 210 253 317 375
#     4  10  19  35  61  90 116 159 205 258 296 377
#     4  11  22  38  60  89 124 158 200 261 311 380
#     4   9  20  37  57  89 118 158 203 251 303 375
#     4  11  24  38  61  92 126 161 204 261 320 373
#
# _framework density 27.576305000000001
#
# number of rings (size 3 to 8) (size 9 to 14) (size 15 to 20)
#    1.000    0.667    5.000    0.333    2.333    0.000 
#    0.000    0.000    0.000    0.667    0.000    0.000 
#    0.000    0.000    0.000    0.000    0.000    0.000 
#
# Total GULP energy -100502.794678 kJ/mol
# GULP energy per Si atom -5583.488593 kJ/mol
# Density = 2.751354 g / cm^3
# Si number density = 27.576305 Si / 1000 Ang^3
#
#
#
# Elastic Constant Matrix: (Units=GPa)
#
#
# Indices 1 2 3 4 5 6 
#
# 1 109.4279 30.4658 -17.7611 1.0898 5.0765 0.0000
# 2 30.4658 109.4279 -17.7611 -1.0898 -5.0765 0.0000
# 3 -17.7611 -17.7611 59.1771 0.0000 0.0000 0.0000
# 4 1.0898 -1.0898 0.0000 16.6197 0.0000 -5.0765
# 5 5.0765 -5.0765 0.0000 0.0000 16.6197 1.0898
# 6 0.0000 0.0000 0.0000 -5.0765 1.0898 39.4810
#
#
#
# Elastic Compliance Matrix: (Units=1/GPa)
#
#
# Indices 1 2 3 4 5 6 
#
# 1 0.010472 -0.002734 0.002322 -0.000866 -0.004034 0.000000
# 2 -0.002734 0.010472 0.002322 0.000866 0.004034 0.000000
# 3 0.002322 0.002322 0.018293 0.000000 0.000000 0.000000
# 4 -0.000866 0.000866 0.000000 0.062747 0.000000 0.008068
# 5 -0.004034 0.004034 0.000000 0.000000 0.062747 -0.001732
# 6 0.000000 0.000000 0.000000 0.008068 -0.001732 0.026414
#
#
# Mechanical properties :
#
#
# Convention : Reuss Voigt Hill
#
# Bulk Modulus (GPa) = 23.22435 29.76893 26.49664
# Shear Modulus (GPa) = 24.79198 33.41672 29.10435
#
# Velocity S-wave (km/s) = 3.00164 3.48486 3.25223
# Velocity P-wave (km/s) = 4.52253 5.19720 4.87155
#
# Compressibility (1/GPa) = 0.04305826
#
# Stress axis : x y z
#
# Youngs Moduli (GPa) = 95.48854 95.48854 54.66720
#
# Poissons Ratio (x) = 0.26111 -0.12696
# Poissons Ratio (y) = 0.26111 -0.12696
# Poissons Ratio (z) = -0.22177 -0.22177
#
# Static dielectric constant tensor:
#      x y z
#    x 2.160400 0.000000 0.000000 
#    y 0.000000 2.160400 0.000000 
#    z 0.000000 0.000000 2.366650 
# 
# From -- ./inp_files/1489.got.cif
#   From: 2010.05.17/outbox.cif.g08.bks.cpg/sg146_cif.got.tgz:1489.got - 2010.05.20 13:48:23.
