data_PCOD9574035
_publ_section_title
;
Structure prediction by ZEFSAII (Michael W. Deem and Ramdas Pophale) SiO2 
 PCOD9574035
Probable space group: I 41/A C D
;
_chemical_formula_sum "Si O2"
_cell_formula_units_Z 80
_cell_length_a 10.764862
_cell_length_b 10.764862
_cell_length_c 28.043496
_cell_angle_alpha 90.000000
_cell_angle_beta 90.000000
_cell_angle_gamma 90.000000
_cell_volume 3249.743523
_symmetry_space_group_name_H-M "I 41/A C D"
_symmetry_group_IT_number 142
_space_group.IT_coordinate_system_code '2'
_symmetry_cell_setting 'tetragonal'
loop_
_space_group_symop_operation_xyz
x,y,z
1/4-y,3/4+x,1/4+z
-x,1/2-y,z
1/4+y,1/4-x,3/4+z
x,-y,1/2-z
1/2-x,y,-z
3/4+y,1/4+x,1/4-z
1/4-y,1/4-x,1/4-z
-x,-y,-z
3/4+y,1/4-x,3/4-z
x,1/2+y,-z
3/4-y,3/4+x,1/4-z
-x,y,1/2+z
1/2+x,-y,z
1/4-y,3/4-x,3/4+z
3/4+y,3/4+x,3/4+z
1/2+x,1/2+y,1/2+z
3/4-y,1/4+x,3/4+z
1/2-x,-y,1/2+z
3/4+y,3/4-x,1/4+z
1/2+x,1/2-y,-z
-x,1/2+y,1/2-z
1/4+y,3/4+x,3/4-z
3/4-y,3/4-x,3/4-z
1/2-x,1/2-y,1/2-z
1/4+y,3/4-x,1/4-z
1/2+x,y,1/2-z
1/4-y,1/4+x,3/4-z
1/2-x,1/2+y,z
x,1/2-y,1/2+z
3/4-y,1/4-x,1/4+z
1/4+y,1/4+x,1/4+z
loop_
_atom_site_type_symbol
_atom_site_label
_atom_site_fract_x
_atom_site_fract_y
_atom_site_fract_z
Si Si1 0.778441 0.624655 0.721369
Si Si2 0.381908 0.868093 0.625000
Si Si3 0.673159 0.272324 0.598904
O O1 0.749911 0.500000 0.750000
O O2 0.750000 0.750000 0.750000
O O3 0.699689 0.620769 0.672770
O O4 0.919177 0.613527 0.701341
O O5 0.320728 0.741643 0.604402
O O6 0.610390 0.357440 0.640453
#
# Coordination Sequence:
#
# PCOD9574035 Si02
#       3
#    32  16  32
#     4  11  27  48  80 121 164 219 289 351 439 525
#     4  10  24  48  79 107 162 216 268 352 424 505
#     4   9  21  45  77 102 157 212 266 343 422 498
#
# _framework density 24.617328000000001
#
# number of rings (size 3 to 8) (size 9 to 14) (size 15 to 20)
#    0.000    2.000    0.000    0.000   28.000    1.600 
#    7.200    2.000    0.000    0.000    0.000    0.000 
#    0.000    0.000    0.000    0.000    0.000    0.000 
#
# Total GULP energy -222764.598763 kJ/mol
# GULP energy per Si atom -5569.114969 kJ/mol
# Density = 2.456130 g / cm^3
# Si number density = 24.617328 Si / 1000 Ang^3
#
#
#
# Elastic Constant Matrix: (Units=GPa)
#
#
# Indices 1 2 3 4 5 6 
#
# 1 92.3649 100.0423 54.7159 0.0000 0.0000 0.0000
# 2 100.0423 92.3652 54.7170 0.0000 0.0000 0.0000
# 3 54.7159 54.7170 157.1365 0.0000 0.0000 0.0000
# 4 0.0000 0.0000 0.0000 29.2703 0.0000 0.0000
# 5 0.0000 0.0000 0.0000 0.0000 29.2704 0.0000
# 6 0.0000 0.0000 0.0000 0.0000 0.0000 55.9497
#
#
#
# Elastic Compliance Matrix: (Units=1/GPa)
#
#
# Indices 1 2 3 4 5 6 
#
# 1 -0.061887 0.068368 -0.002257 0.000000 0.000000 0.000000
# 2 0.068368 -0.061887 -0.002256 0.000000 0.000000 0.000000
# 3 -0.002257 -0.002256 0.007935 0.000000 0.000000 0.000000
# 4 0.000000 0.000000 0.000000 0.034164 0.000000 0.000000
# 5 0.000000 0.000000 0.000000 0.000000 0.034164 0.000000
# 6 0.000000 0.000000 0.000000 0.000000 0.000000 0.017873
#
#
# Mechanical properties :
#
#
# Convention : Reuss Voigt Hill
#
# Bulk Modulus (GPa) = 84.24325 84.53521 84.38923
# Shear Modulus (GPa) = -32.59673 31.72418 -0.43628
#
# Velocity S-wave (km/s) = -3.64282 3.59373 -0.42144
# Velocity P-wave (km/s) = 4.07454 7.18569 5.84106
#
# Compressibility (1/GPa) = 0.01187039
#
# Stress axis : x y z
#
# Youngs Moduli (GPa) = -16.15849 -16.15839 126.01619
#
# Poissons Ratio (x) = 1.10472 0.28444
# Poissons Ratio (y) = 1.10472 0.28431
# Poissons Ratio (z) = -0.03647 -0.03646
#
# Static dielectric constant tensor:
#      x y z
#    x 2.145500 0.000000 0.000000 
#    y 0.000000 2.145510 0.000000 
#    z 0.000000 0.000000 1.898160 
# 
# From -- ./inp_files/11867.got.cif
#   From: 2010.05.17/outbox.cif.g08.bks.cpg/sg142_6_cif.got.tgz:11867.got - 2010.05.20 13:39:18.
