data_PCOD9574947
_publ_section_title
;
Structure prediction by ZEFSAII (Michael W. Deem and Ramdas Pophale) SiO2 
 PCOD9574947
Probable space group: P -3
;
_chemical_formula_sum "Si O2"
_cell_formula_units_Z 40
_cell_length_a 14.176656
_cell_length_b 14.176656
_cell_length_c 11.394861
_cell_angle_alpha 90.000000
_cell_angle_beta 90.000000
_cell_angle_gamma 120.000000
_cell_volume 1983.294767
_symmetry_space_group_name_H-M "P -3"
_symmetry_group_IT_number 147
_symmetry_cell_setting 'hexagonal'
loop_
_space_group_symop_operation_xyz
x,y,z
-y,x-y,z
-x+y,-x,z
-x,-y,-z
y,-x+y,-z
x-y,x,-z
loop_
_atom_site_type_symbol
_atom_site_label
_atom_site_fract_x
_atom_site_fract_y
_atom_site_fract_z
Si Si1 0.000014 0.425468 0.833962
Si Si2 0.333334 0.666668 0.004865
Si Si3 0.878832 0.413225 0.367660
Si Si4 0.333335 0.666667 0.724390
Si Si5 0.993737 0.809781 0.436520
Si Si6 0.669756 0.083413 0.549638
Si Si7 0.186640 0.341212 0.260292
Si Si8 0.879333 0.551210 0.930025
O O1 0.914410 0.310506 0.780378
O O2 0.940094 0.492448 0.870904
O O3 0.086514 0.499907 0.736973
O O4 0.059977 0.409112 0.945506
O O5 0.333334 0.666667 0.863511
O O6 0.244267 0.546340 0.047762
O O7 0.762111 0.317125 0.330100
O O8 0.876606 0.471351 0.487859
O O9 0.973901 0.385064 0.380065
O O10 0.068993 0.844239 0.319895
O O11 0.884608 0.815616 0.455183
O O12 0.955390 0.683784 0.457185
O O13 0.762260 0.169807 0.634182
O O14 0.121936 0.356533 0.151475
#
# Coordination Sequence:
#
# PCOD9574947 Si02
#       8
#     6   2   6   2   6   6   6   6
#     4  11  22  39  63  86 130 164 214 266 308 372
#     4  12  21  39  58  86 121 162 225 253 299 382
#     4  11  23  40  57  93 136 167 208 256 312 392
#     4  12  27  36  61  92 133 180 201 259 329 379
#     4  10  22  40  64  92 119 154 208 257 320 380
#     4  10  23  39  64  92 129 164 209 258 316 386
#     4  11  22  40  63  91 122 166 205 259 322 370
#     4  11  23  39  59  90 120 169 216 258 310 378
#
# _framework density 20.168458000000001
#
# number of rings (size 3 to 8) (size 9 to 14) (size 15 to 20)
#    0.000    1.200    6.000    0.150    4.200    0.000 
#    0.000    1.500    0.000    0.000    0.000    4.200 
#    0.000    0.000    0.000    0.000    0.000    0.000 
#
# Total GULP energy -223148.489320 kJ/mol
# GULP energy per Si atom -5578.712233 kJ/mol
# Density = 2.012255 g / cm^3
# Si number density = 20.168458 Si / 1000 Ang^3
#
#
#
# Elastic Constant Matrix: (Units=GPa)
#
#
# Indices 1 2 3 4 5 6 
#
# 1 59.4463 11.6538 11.5906 -8.6616 -2.5199 0.0003
# 2 11.6538 59.4459 11.5900 8.6617 2.5201 0.0010
# 3 11.5906 11.5900 44.4959 0.0002 -0.0002 0.0004
# 4 -8.6616 8.6617 0.0002 32.1655 0.0003 2.5198
# 5 -2.5199 2.5201 -0.0002 0.0003 32.1656 -8.6614
# 6 0.0003 0.0010 0.0004 2.5198 -8.6614 23.8961
#
#
#
# Elastic Compliance Matrix: (Units=1/GPa)
#
#
# Indices 1 2 3 4 5 6 
#
# 1 0.019386 -0.004016 -0.004004 0.006302 0.001833 0.000000
# 2 -0.004016 0.019386 -0.004003 -0.006301 -0.001834 -0.000001
# 3 -0.004004 -0.004003 0.024560 0.000000 0.000000 0.000000
# 4 0.006302 -0.006301 0.000000 0.034770 0.000000 -0.003666
# 5 0.001833 -0.001834 0.000000 0.000000 0.034770 0.012603
# 6 0.000000 -0.000001 0.000000 -0.003666 0.012603 0.046802
#
#
# Mechanical properties :
#
#
# Convention : Reuss Voigt Hill
#
# Bulk Modulus (GPa) = 25.45477 25.89521 25.67499
# Shear Modulus (GPa) = 23.06120 26.21570 24.63845
#
# Velocity S-wave (km/s) = 3.38513 3.60924 3.49898
# Velocity P-wave (km/s) = 5.28463 5.49874 5.39275
#
# Compressibility (1/GPa) = 0.03928537
#
# Stress axis : x y z
#
# Youngs Moduli (GPa) = 51.58459 51.58451 40.71715
#
# Poissons Ratio (x) = 0.20715 0.16302
# Poissons Ratio (y) = 0.20715 0.16301
# Poissons Ratio (z) = 0.20653 0.20651
#
# Static dielectric constant tensor:
#      x y z
#    x 1.718290 0.000000 0.000000 
#    y 0.000000 1.718290 0.000000 
#    z 0.000000 0.000000 1.729570 
# 
# From -- ./inp_files/823.got.cif
#   From: 2010.05.17/outbox.cif.g08.bks.cpg/sg147_cif.got.tgz:823.got - 2010.05.20 13:49:32.
