data_PCOD9574967
_publ_section_title
;
Structure prediction by ZEFSAII (Michael W. Deem and Ramdas Pophale) SiO2 
 PCOD9574967
Probable space group: P -3
;
_chemical_formula_sum "Si O2"
_cell_formula_units_Z 48
_cell_length_a 11.441005
_cell_length_b 11.441005
_cell_length_c 21.135518
_cell_angle_alpha 90.000000
_cell_angle_beta 90.000000
_cell_angle_gamma 120.000000
_cell_volume 2395.917605
_symmetry_space_group_name_H-M "P -3"
_symmetry_group_IT_number 147
_symmetry_cell_setting 'hexagonal'
loop_
_space_group_symop_operation_xyz
x,y,z
-y,x-y,z
-x+y,-x,z
-x,-y,-z
y,-x+y,-z
x-y,x,-z
loop_
_atom_site_type_symbol
_atom_site_label
_atom_site_fract_x
_atom_site_fract_y
_atom_site_fract_z
Si Si1 0.296963 0.378878 0.344378
Si Si2 0.728051 0.000460 0.208119
Si Si3 0.000659 0.712388 0.797334
Si Si4 0.581237 0.622388 0.333454
Si Si5 0.280795 0.000334 0.065712
Si Si6 0.332423 0.512699 0.564475
Si Si7 0.719942 0.719445 0.929661
Si Si8 0.041768 0.765238 0.475145
O O1 0.326866 0.338011 0.276056
O O2 0.427340 0.524421 0.354027
O O3 0.160465 0.386306 0.344225
O O4 0.270188 0.277353 0.401889
O O5 0.737617 0.863972 0.206469
O O6 0.660640 0.998691 0.139949
O O7 0.868300 0.140340 0.209085
O O8 0.999560 0.653761 0.867084
O O9 0.993287 0.616550 0.740512
O O10 0.663359 0.569890 0.375185
O O11 0.266117 0.133228 0.068618
O O12 0.133109 0.867624 0.067483
O O13 0.345450 0.000481 0.997730
O O14 0.457616 0.665656 0.564182
O O15 0.326199 0.425293 0.504410
O O16 0.916053 0.751007 0.514114
#
# Coordination Sequence:
#
# PCOD9574967 Si02
#       8
#     6   6   6   6   6   6   6   6
#     4  11  25  39  62  80 116 147 195 240 288 342
#     4   9  18  30  49  79 107 149 178 234 279 349
#     4   9  18  30  51  79 114 145 190 225 289 340
#     4  11  23  42  59  87 112 154 193 243 287 343
#     4   8  12  20  37  67 103 145 174 228 265 338
#     4  10  25  43  66  90 118 149 194 241 296 340
#     4   8  12  20  37  65 105 138 183 214 279 328
#     4  12  26  44  65  92 122 155 191 235 290 348
#
# _framework density 20.034078999999998
#
# number of rings (size 3 to 8) (size 9 to 14) (size 15 to 20)
#    0.250    2.000    1.250    1.625    5.250    4.000 
#    0.000    0.000    0.000    0.750    0.000    0.000 
#    0.000    0.000    0.000    0.000    0.000    0.000 
#
# Total GULP energy -267206.434485 kJ/mol
# GULP energy per Si atom -5566.800718 kJ/mol
# Density = 1.998848 g / cm^3
# Si number density = 20.034079 Si / 1000 Ang^3
#
#
#
# Elastic Constant Matrix: (Units=GPa)
#
#
# Indices 1 2 3 4 5 6 
#
# 1 53.3184 18.7659 31.2897 0.7547 1.0471 0.0000
# 2 18.7659 53.3184 31.2897 -0.7547 -1.0471 0.0000
# 3 31.2897 31.2897 159.1737 0.0000 0.0000 0.0000
# 4 0.7547 -0.7547 0.0000 3.9950 0.0000 -1.0471
# 5 1.0471 -1.0471 0.0000 0.0000 3.9950 0.7547
# 6 0.0000 0.0000 0.0000 -1.0471 0.7547 17.2762
#
#
#
# Elastic Compliance Matrix: (Units=1/GPa)
#
#
# Indices 1 2 3 4 5 6 
#
# 1 0.023192 -0.006465 -0.003288 -0.005603 -0.007773 0.000000
# 2 -0.006465 0.023192 -0.003288 0.005603 0.007773 0.000000
# 3 -0.003288 -0.003288 0.007575 0.000000 0.000000 0.000000
# 4 -0.005603 0.005603 0.000000 0.256505 0.000000 0.015546
# 5 -0.007773 0.007773 0.000000 0.000000 0.256505 -0.011206
# 6 0.000000 0.000000 0.000000 0.015546 -0.011206 0.059315
#
#
# Mechanical properties :
#
#
# Convention : Reuss Voigt Hill
#
# Bulk Modulus (GPa) = 35.87186 47.61124 41.74155
# Shear Modulus (GPa) = 7.55675 17.35091 12.45383
#
# Velocity S-wave (km/s) = 1.94426 2.94610 2.49596
# Velocity P-wave (km/s) = 4.79421 5.94890 5.40249
#
# Compressibility (1/GPa) = 0.02787701
#
# Stress axis : x y z
#
# Youngs Moduli (GPa) = 43.11770 43.11770 132.00969
#
# Poissons Ratio (x) = 0.27876 0.43407
# Poissons Ratio (y) = 0.27876 0.43407
# Poissons Ratio (z) = 0.14178 0.14178
#
# Static dielectric constant tensor:
#      x y z
#    x 1.680040 0.000000 0.000000 
#    y 0.000000 1.680040 0.000000 
#    z 0.000000 0.000000 1.805710 
# 
# From -- ./inp_files/1073.got.cif
#   From: 2010.05.17/outbox.cif.g08.bks.cpg/sg147_cif.got.tgz:1073.got - 2010.05.20 13:49:32.
