data_PCOD9574811
_publ_section_title
;
Structure prediction by ZEFSAII (Michael W. Deem and Ramdas Pophale) SiO2 
 PCOD9574811
Probable space group: R 3
;
_chemical_formula_sum "Si O2"
_cell_formula_units_Z 42
_cell_length_a 10.979990
_cell_length_b 10.979990
_cell_length_c 16.026967
_cell_angle_alpha 90.000000
_cell_angle_beta 90.000000
_cell_angle_gamma 120.000000
_cell_volume 1673.346438
_symmetry_space_group_name_H-M "R 3"
_symmetry_group_IT_number 146
_symmetry_cell_setting 'hexagonal'
loop_
_space_group_symop_operation_xyz
x,y,z
-y,x-y,z
-x+y,-x,z
2/3+x,1/3+y,1/3+z
2/3-y,1/3+x-y,1/3+z
2/3-x+y,1/3-x,1/3+z
1/3+x,2/3+y,2/3+z
1/3-y,2/3+x-y,2/3+z
1/3-x+y,2/3-x,2/3+z
loop_
_atom_site_type_symbol
_atom_site_label
_atom_site_fract_x
_atom_site_fract_y
_atom_site_fract_z
Si Si1 0.266344 0.994857 0.461510
Si Si2 0.000000 0.000000 0.435870
Si Si3 0.808195 0.122334 0.173865
Si Si4 0.096443 0.374082 0.298995
Si Si5 0.333334 0.666668 0.903852
Si Si6 0.593413 0.980469 0.322896
O O1 0.294803 0.025149 0.362847
O O2 0.317409 0.105775 0.536706
O O3 0.157526 0.763336 0.339985
O O4 0.098910 0.937999 0.464292
O O5 0.000000 0.000000 0.336719
O O6 0.896579 0.293382 0.154338
O O7 0.691741 0.075746 0.246892
O O8 0.762277 0.052396 0.082388
O O9 0.913709 0.072852 0.207073
O O10 0.073130 0.506037 0.297337
#
# Coordination Sequence:
#
# PCOD9574811 Si02
#       6
#     9   3   9   9   3   9
#     4  11  24  41  70 104 142 188 245 306 372 434
#     4  12  24  45  75 108 145 194 256 315 363 456
#     4  11  26  46  70 106 149 194 246 312 381 446
#     4  11  23  41  68 102 139 190 244 303 367 438
#     4  12  27  45  72 105 145 200 253 303 378 450
#     4  11  24  44  69 101 146 192 246 307 371 446
#
# _framework density 25.099402999999999
#
# number of rings (size 3 to 8) (size 9 to 14) (size 15 to 20)
#    0.000    0.857    0.000    6.857    0.000   10.286 
#    0.000    0.000    0.000    0.857    0.000    0.000 
#    0.000    0.000    0.000    0.000    0.000    0.000 
#
# Total GULP energy -77940.123163 kJ/mol
# GULP energy per Si atom -5567.151655 kJ/mol
# Density = 2.504228 g / cm^3
# Si number density = 25.099403 Si / 1000 Ang^3
#
#
#
# Elastic Constant Matrix: (Units=GPa)
#
#
# Indices 1 2 3 4 5 6 
#
# 1 110.1495 46.3444 59.3418 1.7139 7.7548 0.0001
# 2 46.3444 110.1490 59.3420 -1.7140 -7.7548 0.0001
# 3 59.3418 59.3420 237.8981 0.0002 -0.0001 -0.0002
# 4 1.7139 -1.7140 0.0002 43.0961 -0.0002 -7.7546
# 5 7.7548 -7.7548 -0.0001 -0.0002 43.0962 1.7139
# 6 0.0001 0.0001 -0.0002 -7.7546 1.7139 31.9028
#
#
#
# Elastic Compliance Matrix: (Units=1/GPa)
#
#
# Indices 1 2 3 4 5 6 
#
# 1 0.012154 -0.004273 -0.001966 -0.000653 -0.002956 0.000000
# 2 -0.004273 0.012154 -0.001966 0.000653 0.002956 0.000000
# 3 -0.001966 -0.001966 0.005184 0.000000 0.000000 0.000000
# 4 -0.000653 0.000653 0.000000 0.024320 0.000000 0.005911
# 5 -0.002956 0.002956 0.000000 0.000000 0.024320 -0.001307
# 6 0.000000 0.000000 0.000000 0.005911 -0.001307 0.032852
#
#
# Mechanical properties :
#
#
# Convention : Reuss Voigt Hill
#
# Bulk Modulus (GPa) = 76.43685 87.58365 82.01025
# Shear Modulus (GPa) = 37.94992 43.16359 40.55675
#
# Velocity S-wave (km/s) = 3.89264 4.15143 4.02412
# Velocity P-wave (km/s) = 7.12203 7.61247 7.37133
#
# Compressibility (1/GPa) = 0.01308269
#
# Stress axis : x y z
#
# Youngs Moduli (GPa) = 82.28011 82.27960 192.89367
#
# Poissons Ratio (x) = 0.35156 0.37919
# Poissons Ratio (y) = 0.35156 0.37920
# Poissons Ratio (z) = 0.16175 0.16175
#
# Static dielectric constant tensor:
#      x y z
#    x 2.046210 0.000000 0.000000 
#    y 0.000000 2.046210 0.000000 
#    z 0.000000 0.000000 2.080110 
# 
# From -- ./inp_files/1120.got.cif
#   From: 2010.05.17/outbox.cif.g08.bks.cpg/sg146_cif.got.tgz:1120.got - 2010.05.20 13:48:23.
