data_PCOD9574743
_publ_section_title
;
Structure prediction by ZEFSAII (Michael W. Deem and Ramdas Pophale) SiO2 
 PCOD9574743
Probable space group: R 3
;
_chemical_formula_sum "Si O2"
_cell_formula_units_Z 63
_cell_length_a 15.818702
_cell_length_b 15.818702
_cell_length_c 10.547743
_cell_angle_alpha 90.000000
_cell_angle_beta 90.000000
_cell_angle_gamma 120.000000
_cell_volume 2285.766485
_symmetry_space_group_name_H-M "R 3"
_symmetry_group_IT_number 146
_symmetry_cell_setting 'hexagonal'
loop_
_space_group_symop_operation_xyz
x,y,z
-y,x-y,z
-x+y,-x,z
2/3+x,1/3+y,1/3+z
2/3-y,1/3+x-y,1/3+z
2/3-x+y,1/3-x,1/3+z
1/3+x,2/3+y,2/3+z
1/3-y,2/3+x-y,2/3+z
1/3-x+y,2/3-x,2/3+z
loop_
_atom_site_type_symbol
_atom_site_label
_atom_site_fract_x
_atom_site_fract_y
_atom_site_fract_z
Si Si1 0.684512 0.193008 0.784850
Si Si2 0.359097 0.385354 0.718485
Si Si3 0.756669 0.257316 0.511239
Si Si4 0.200448 0.020696 0.559356
Si Si5 0.379928 0.039203 0.646822
Si Si6 0.518570 0.872829 0.471487
Si Si7 0.163682 0.008781 0.907352
O O1 0.699420 0.244709 0.645902
O O2 0.787096 0.245564 0.856206
O O3 0.603059 0.189949 0.879481
O O4 0.650335 0.082433 0.758490
O O5 0.376117 0.476610 0.805922
O O6 0.390998 0.439981 0.585433
O O7 0.256415 0.283308 0.701467
O O8 0.868552 0.315652 0.559229
O O9 0.769586 0.314355 0.376374
O O10 0.278767 0.040225 0.666834
O O11 0.271900 0.050292 0.437335
O O12 0.346885 0.931102 0.599919
O O13 0.530271 0.783363 0.524048
O O14 0.402830 0.828780 0.469499
#
# Coordination Sequence:
#
# PCOD9574743 Si02
#       7
#     9   9   9   9   9   9   9
#     4  11  22  40  63  97 135 175 230 290 356 415
#     4  11  21  41  65  97 131 189 229 287 347 430
#     4  10  22  39  67  93 131 175 230 288 341 412
#     4  11  23  39  67  98 137 174 231 291 354 416
#     4  11  21  40  63  96 130 180 226 285 336 423
#     4  11  25  41  70  98 145 182 238 294 357 424
#     4  11  24  42  63 101 135 183 234 293 351 420
#
# _framework density 27.561869000000002
#
# number of rings (size 3 to 8) (size 9 to 14) (size 15 to 20)
#    0.000    1.143    4.286    2.286    2.000    3.429 
#    0.000    0.000    0.000    0.000    0.000    6.000 
#    0.000    0.000    0.000    0.000    0.000    0.000 
#
# Total GULP energy -117412.160214 kJ/mol
# GULP energy per Si atom -5591.055248 kJ/mol
# Density = 2.749914 g / cm^3
# Si number density = 27.561869 Si / 1000 Ang^3
#
#
#
# Elastic Constant Matrix: (Units=GPa)
#
#
# Indices 1 2 3 4 5 6 
#
# 1 99.3459 3.7602 -11.6131 5.3136 -4.7742 0.0000
# 2 3.7602 99.3459 -11.6131 -5.3136 4.7742 0.0000
# 3 -11.6131 -11.6131 104.6686 0.0000 0.0000 0.0000
# 4 5.3136 -5.3136 0.0000 24.1608 0.0000 4.7742
# 5 -4.7742 4.7742 0.0000 0.0000 24.1608 5.3136
# 6 0.0000 0.0000 0.0000 4.7742 5.3136 47.7929
#
#
#
# Elastic Compliance Matrix: (Units=1/GPa)
#
#
# Indices 1 2 3 4 5 6 
#
# 1 0.010446 -0.000499 0.001104 -0.002407 0.002163 0.000000
# 2 -0.000499 0.010446 0.001104 0.002407 -0.002163 0.000000
# 3 0.001104 0.001104 0.009799 0.000000 0.000000 0.000000
# 4 -0.002407 0.002407 0.000000 0.043303 0.000000 -0.004326
# 5 0.002163 -0.002163 0.000000 0.000000 0.043303 -0.004814
# 6 0.000000 0.000000 0.000000 -0.004326 -0.004814 0.021891
#
#
# Mechanical properties :
#
#
# Convention : Reuss Voigt Hill
#
# Bulk Modulus (GPa) = 29.31840 29.38095 29.34967
# Shear Modulus (GPa) = 33.98086 40.74463 37.36275
#
# Velocity S-wave (km/s) = 3.51507 3.84903 3.68584
# Velocity P-wave (km/s) = 5.20909 5.51693 5.36522
#
# Compressibility (1/GPa) = 0.03410828
#
# Stress axis : x y z
#
# Youngs Moduli (GPa) = 95.72647 95.72647 102.05256
#
# Poissons Ratio (x) = 0.04777 -0.11263
# Poissons Ratio (y) = 0.04777 -0.11263
# Poissons Ratio (z) = -0.10565 -0.10565
#
# Static dielectric constant tensor:
#      x y z
#    x 2.196840 0.000000 0.000000 
#    y 0.000000 2.196840 0.000000 
#    z 0.000000 0.000000 2.530000 
# 
# From -- ./inp_files/1235.got.cif
#   From: 2010.05.17/outbox.cif.g08.bks.cpg/sg146_cif.got.tgz:1235.got - 2010.05.20 13:48:23.
