data_PCOD9574296
_publ_section_title
;
Structure prediction by ZEFSAII (Michael W. Deem and Ramdas Pophale) SiO2 
 PCOD9574296
Probable space group: P 31
;
_chemical_formula_sum "Si O2"
_cell_formula_units_Z 15
_cell_length_a 12.234968
_cell_length_b 12.234968
_cell_length_c 5.519077
_cell_angle_alpha 90.000000
_cell_angle_beta 90.000000
_cell_angle_gamma 120.000000
_cell_volume 715.488669
_symmetry_space_group_name_H-M "P 31"
_symmetry_group_IT_number 144
_symmetry_cell_setting 'hexagonal'
loop_
_space_group_symop_operation_xyz
x,y,z
-y,x-y,1/3+z
-x+y,-x,2/3+z
loop_
_atom_site_type_symbol
_atom_site_label
_atom_site_fract_x
_atom_site_fract_y
_atom_site_fract_z
Si Si1 0.377619 0.945743 0.574080
Si Si2 0.137453 0.697991 0.022852
Si Si3 0.013249 0.360871 0.406944
Si Si4 0.236589 0.316404 0.856992
Si Si5 0.132853 0.054822 0.036052
O O1 0.425857 0.847320 0.626601
O O2 0.427169 0.013128 0.316774
O O3 0.226157 0.874496 0.543612
O O4 0.413603 0.030969 0.813619
O O5 0.264873 0.833162 0.043318
O O6 0.072959 0.685246 0.284714
O O7 0.058964 0.700925 0.789431
O O8 0.966178 0.213484 0.436409
O O9 0.179515 0.167311 0.840494
O O10 0.072433 0.093912 0.252718
#
# Coordination Sequence:
#
# PCOD9574296 Si02
#       5
#     3   3   3   3   3
#     4  10  19  38  53  77 126 154 214 250 295 398
#     4  10  19  38  53  77 126 154 214 250 295 398
#     4  10  22  36  53  92 114 167 213 243 336 364
#     4  10  22  36  53  92 114 167 213 243 336 364
#     4  12  22  36  62  86 140 168 208 266 312 414
#
# _framework density 20.964690999999998
#
# number of rings (size 3 to 8) (size 9 to 14) (size 15 to 20)
#    0.000    1.600    4.000    3.600    0.000    0.000 
#   28.800    0.000    0.000    0.000    0.000    0.000 
#   30.000    0.000    0.000    0.000    0.000    0.000 
#
# Total GULP energy -83623.105885 kJ/mol
# GULP energy per Si atom -5574.873726 kJ/mol
# Density = 2.091697 g / cm^3
# Si number density = 20.964691 Si / 1000 Ang^3
#
#
#
# Elastic Constant Matrix: (Units=GPa)
#
#
# Indices 1 2 3 4 5 6 
#
# 1 36.0961 17.6925 8.9286 -1.4310 -5.8078 0.0000
# 2 17.6925 36.0961 8.9286 1.4310 5.8078 0.0000
# 3 8.9286 8.9286 204.2645 0.0000 0.0000 0.0000
# 4 -1.4310 1.4310 0.0000 18.7074 0.0000 5.8078
# 5 -5.8078 5.8078 0.0000 0.0000 18.7074 -1.4310
# 6 0.0000 0.0000 0.0000 5.8078 -1.4310 9.2018
#
#
#
# Elastic Compliance Matrix: (Units=1/GPa)
#
#
# Indices 1 2 3 4 5 6 
#
# 1 0.043730 -0.024864 -0.000825 0.005247 0.021295 0.000000
# 2 -0.024864 0.043730 -0.000825 -0.005247 -0.021295 0.000000
# 3 -0.000825 -0.000825 0.004968 0.000000 0.000000 0.000000
# 4 0.005247 -0.005247 0.000000 0.067480 0.000000 -0.042591
# 5 0.021295 -0.021295 0.000000 0.000000 0.067480 0.010494
# 6 0.000000 0.000000 0.000000 -0.042591 0.010494 0.137188
#
#
# Mechanical properties :
#
#
# Convention : Reuss Voigt Hill
#
# Bulk Modulus (GPa) = 25.38108 38.61731 31.99919
# Shear Modulus (GPa) = 11.60806 25.38380 18.49593
#
# Velocity S-wave (km/s) = 2.35563 3.48341 2.97348
# Velocity P-wave (km/s) = 4.41945 5.88549 5.20435
#
# Compressibility (1/GPa) = 0.03939943
#
# Stress axis : x y z
#
# Youngs Moduli (GPa) = 22.86784 22.86784 201.30033
#
# Poissons Ratio (x) = 0.56860 0.16599
# Poissons Ratio (y) = 0.56860 0.16599
# Poissons Ratio (z) = 0.01886 0.01886
#
# Static dielectric constant tensor:
#      x y z
#    x 1.756400 0.000000 0.000000 
#    y 0.000000 1.756400 0.000000 
#    z 0.000000 0.000000 1.918470 
# 
# From -- ./inp_files/54.got.cif
#   From: 2010.05.17/outbox.cif.g08.bks.cpg/sg144_cif.got.tgz:54.got - 2010.05.20 13:46:34.
