data_PCOD9574747
_publ_section_title
;
Structure prediction by ZEFSAII (Michael W. Deem and Ramdas Pophale) SiO2 
 PCOD9574747
Probable space group: R 3
;
_chemical_formula_sum "Si O2"
_cell_formula_units_Z 51
_cell_length_a 13.416551
_cell_length_b 13.416551
_cell_length_c 15.460715
_cell_angle_alpha 90.000000
_cell_angle_beta 90.000000
_cell_angle_gamma 120.000000
_cell_volume 2410.138376
_symmetry_space_group_name_H-M "R 3"
_symmetry_group_IT_number 146
_symmetry_cell_setting 'hexagonal'
loop_
_space_group_symop_operation_xyz
x,y,z
-y,x-y,z
-x+y,-x,z
2/3+x,1/3+y,1/3+z
2/3-y,1/3+x-y,1/3+z
2/3-x+y,1/3-x,1/3+z
1/3+x,2/3+y,2/3+z
1/3-y,2/3+x-y,2/3+z
1/3-x+y,2/3-x,2/3+z
loop_
_atom_site_type_symbol
_atom_site_label
_atom_site_fract_x
_atom_site_fract_y
_atom_site_fract_z
Si Si1 0.666667 0.333335 0.848277
Si Si2 0.684659 0.017665 0.382973
Si Si3 0.741841 0.631286 0.332180
Si Si4 0.747997 0.573034 0.766946
Si Si5 0.519726 0.459153 0.262307
Si Si6 0.448093 0.247609 0.164388
Si Si7 0.000000 0.000000 0.721845
O O1 0.676364 0.448360 0.809716
O O2 0.666668 0.333334 0.951814
O O3 0.781093 0.152369 0.380332
O O4 0.603010 0.994122 0.300056
O O5 0.744144 0.940073 0.386874
O O6 0.590785 0.973431 0.458843
O O7 0.739983 0.742157 0.367209
O O8 0.611698 0.525311 0.337595
O O9 0.764938 0.622186 0.229886
O O10 0.794246 0.659325 0.848523
O O11 0.532935 0.354371 0.226288
O O12 0.535649 0.252150 0.090830
#
# Coordination Sequence:
#
# PCOD9574747 Si02
#       7
#     3   9   9   9   9   9   3
#     4  12  24  42  69 105 145 188 229 297 360 432
#     4  10  23  44  67  98 141 179 235 293 352 432
#     4  11  23  43  70  98 144 177 234 299 352 430
#     4  11  24  44  68 104 142 185 233 286 366 426
#     4  10  23  40  69  96 133 180 234 289 351 410
#     4  10  22  42  67 105 132 184 238 300 349 412
#     4  12  21  39  78 102 145 185 259 294 360 426
#
# _framework density 21.160609999999998
#
# number of rings (size 3 to 8) (size 9 to 14) (size 15 to 20)
#    0.000    1.412    3.529    1.059    2.471    4.235 
#    4.235    0.000    0.000    2.824    0.000    0.000 
#    0.000    0.000    0.000    0.000    0.000    0.000 
#
# Total GULP energy -94799.714963 kJ/mol
# GULP energy per Si atom -5576.453821 kJ/mol
# Density = 2.111245 g / cm^3
# Si number density = 21.160610 Si / 1000 Ang^3
#
#
#
# Elastic Constant Matrix: (Units=GPa)
#
#
# Indices 1 2 3 4 5 6 
#
# 1 94.9815 35.3635 51.1083 4.1244 1.3007 -0.0004
# 2 35.3635 94.9809 51.1081 -4.1243 -1.3002 -0.0003
# 3 51.1083 51.1081 100.9537 0.0000 0.0004 -0.0004
# 4 4.1244 -4.1243 0.0000 39.0360 -0.0003 -1.3001
# 5 1.3007 -1.3002 0.0004 -0.0003 39.0359 4.1245
# 6 -0.0004 -0.0003 -0.0004 -1.3001 4.1245 29.8086
#
#
#
# Elastic Compliance Matrix: (Units=1/GPa)
#
#
# Indices 1 2 3 4 5 6 
#
# 1 0.014885 -0.002162 -0.006441 -0.001801 -0.000568 0.000000
# 2 -0.002162 0.014885 -0.006441 0.001801 0.000568 0.000000
# 3 -0.006441 -0.006441 0.016427 0.000000 0.000000 0.000000
# 4 -0.001801 0.001801 0.000000 0.026036 0.000000 0.001136
# 5 -0.000568 0.000568 0.000000 0.000000 0.026036 -0.003602
# 6 0.000000 0.000000 0.000000 0.001136 -0.003602 0.034095
#
#
# Mechanical properties :
#
#
# Convention : Reuss Voigt Hill
#
# Bulk Modulus (GPa) = 62.07734 62.89731 62.48732
# Shear Modulus (GPa) = 29.79321 31.79850 30.79585
#
# Velocity S-wave (km/s) = 3.75634 3.88070 3.81903
# Velocity P-wave (km/s) = 6.94359 7.06173 7.00291
#
# Compressibility (1/GPa) = 0.01610894
#
# Stress axis : x y z
#
# Youngs Moduli (GPa) = 67.18046 67.18015 60.87465
#
# Poissons Ratio (x) = 0.14526 0.39210
# Poissons Ratio (y) = 0.14526 0.39210
# Poissons Ratio (z) = 0.43272 0.43271
#
# Static dielectric constant tensor:
#      x y z
#    x 1.817180 0.000000 0.000000 
#    y 0.000000 1.817180 0.000000 
#    z 0.000000 0.000000 1.793420 
# 
# From -- ./inp_files/1524.got.cif
#   From: 2010.05.17/outbox.cif.g08.bks.cpg/sg146_cif.got.tgz:1524.got - 2010.05.20 13:48:23.
