data_PCOD9574163
_publ_section_title
;
Structure prediction by ZEFSAII (Michael W. Deem and Ramdas Pophale) SiO2 
 PCOD9574163
Probable space group: I 41/A C D
;
_chemical_formula_sum "Si O2"
_cell_formula_units_Z 176
_cell_length_a 25.559370
_cell_length_b 25.559370
_cell_length_c 13.062781
_cell_angle_alpha 90.000000
_cell_angle_beta 90.000000
_cell_angle_gamma 90.000000
_cell_volume 8533.671792
_symmetry_space_group_name_H-M "I 41/A C D"
_symmetry_group_IT_number 142
_space_group.IT_coordinate_system_code '2'
_symmetry_cell_setting 'tetragonal'
loop_
_space_group_symop_operation_xyz
x,y,z
1/4-y,3/4+x,1/4+z
-x,1/2-y,z
1/4+y,1/4-x,3/4+z
x,-y,1/2-z
1/2-x,y,-z
3/4+y,1/4+x,1/4-z
1/4-y,1/4-x,1/4-z
-x,-y,-z
3/4+y,1/4-x,3/4-z
x,1/2+y,-z
3/4-y,3/4+x,1/4-z
-x,y,1/2+z
1/2+x,-y,z
1/4-y,3/4-x,3/4+z
3/4+y,3/4+x,3/4+z
1/2+x,1/2+y,1/2+z
3/4-y,1/4+x,3/4+z
1/2-x,-y,1/2+z
3/4+y,3/4-x,1/4+z
1/2+x,1/2-y,-z
-x,1/2+y,1/2-z
1/4+y,3/4+x,3/4-z
3/4-y,3/4-x,3/4-z
1/2-x,1/2-y,1/2-z
1/4+y,3/4-x,1/4-z
1/2+x,y,1/2-z
1/4-y,1/4+x,3/4-z
1/2-x,1/2+y,z
x,1/2-y,1/2+z
3/4-y,1/4-x,1/4+z
1/4+y,1/4+x,1/4+z
loop_
_atom_site_type_symbol
_atom_site_label
_atom_site_fract_x
_atom_site_fract_y
_atom_site_fract_z
Si Si1 0.560996 0.810996 0.625000
Si Si2 0.742031 0.593462 0.662314
Si Si3 0.783108 0.400415 0.396000
Si Si4 0.460159 0.385220 0.190220
Si Si5 0.067196 0.000000 0.250000
Si Si6 0.444733 0.805268 0.625000
Si Si7 0.575605 0.875116 0.818436
O O1 0.502870 0.810798 0.575903
O O2 0.566730 0.858624 0.701771
O O3 0.696786 0.553215 0.625000
O O4 0.797456 0.567846 0.635455
O O5 0.743044 0.603535 0.784243
O O6 0.735853 0.645681 0.596155
O O7 0.750000 0.407543 0.500000
O O8 0.818512 0.349586 0.413180
O O9 0.461888 0.446409 0.219555
O O10 0.445107 0.350296 0.289926
O O11 0.415033 0.368064 0.112785
O O12 0.516281 0.370179 0.142391
#
# Coordination Sequence:
#
# PCOD9574163 Si02
#       7
#    16  32  32  32  16  16  32
#     4   9  20  40  68  98 127 170 230 280 331 396
#     4  12  22  45  69  95 129 177 236 279 331 409
#     4  12  26  40  66  98 135 181 225 287 342 401
#     4  11  24  43  68  99 134 176 229 281 345 414
#     4  12  26  42  68 102 136 174 230 284 348 412
#     4   9  20  40  70  96 125 174 224 286 329 388
#     4  11  24  43  66  96 136 176 223 282 344 406
#
# _framework density 20.624182999999999
#
# number of rings (size 3 to 8) (size 9 to 14) (size 15 to 20)
#    0.000    0.909    3.636    2.727    7.636    1.818 
#    0.000    0.909    0.000    0.000    0.000    0.000 
#    0.000    0.000    0.000    0.000    0.000    0.000 
#
# Total GULP energy -490909.121893 kJ/mol
# GULP energy per Si atom -5578.512749 kJ/mol
# Density = 2.057724 g / cm^3
# Si number density = 20.624183 Si / 1000 Ang^3
#
#
#
# Elastic Constant Matrix: (Units=GPa)
#
#
# Indices 1 2 3 4 5 6 
#
# 1 57.2495 -0.9702 5.5369 0.0000 0.0000 0.0000
# 2 -0.9702 57.2462 5.5375 0.0000 0.0000 0.0000
# 3 5.5369 5.5375 77.5306 0.0000 0.0000 0.0000
# 4 0.0000 0.0000 0.0000 21.9833 0.0000 0.0000
# 5 0.0000 0.0000 0.0000 0.0000 21.9820 0.0000
# 6 0.0000 0.0000 0.0000 0.0000 0.0000 28.4620
#
#
#
# Elastic Compliance Matrix: (Units=1/GPa)
#
#
# Indices 1 2 3 4 5 6 
#
# 1 0.017599 0.000423 -0.001287 0.000000 0.000000 0.000000
# 2 0.000423 0.017600 -0.001287 0.000000 0.000000 0.000000
# 3 -0.001287 -0.001287 0.013082 0.000000 0.000000 0.000000
# 4 0.000000 0.000000 0.000000 0.045489 0.000000 0.000000
# 5 0.000000 0.000000 0.000000 0.000000 0.045492 0.000000
# 6 0.000000 0.000000 0.000000 0.000000 0.000000 0.035135
#
#
# Mechanical properties :
#
#
# Convention : Reuss Voigt Hill
#
# Bulk Modulus (GPa) = 22.73860 23.58163 23.16012
# Shear Modulus (GPa) = 25.85862 26.61358 26.23610
#
# Velocity S-wave (km/s) = 3.54475 3.59612 3.57053
# Velocity P-wave (km/s) = 5.27283 5.35738 5.31528
#
# Compressibility (1/GPa) = 0.04397808
#
# Stress axis : x y z
#
# Youngs Moduli (GPa) = 56.82128 56.81785 76.44096
#
# Poissons Ratio (x) = -0.02402 0.09838
# Poissons Ratio (y) = -0.02402 0.09840
# Poissons Ratio (z) = 0.07313 0.07314
#
# Static dielectric constant tensor:
#      x y z
#    x 1.737660 0.000000 0.000000 
#    y 0.000000 1.737660 0.000000 
#    z 0.000000 0.000000 1.834260 
# 
# From -- ./inp_files/5608.got.cif
#   From: 2010.05.17/outbox.cif.g08.bks.cpg/sg142_3_cif.got.tgz:5608.got - 2010.05.20 13:39:18.
