data_PCOD9574157
_publ_section_title
;
Structure prediction by ZEFSAII (Michael W. Deem and Ramdas Pophale) SiO2 
 PCOD9574157
Probable space group: I 41/A C D
;
_chemical_formula_sum "Si O2"
_cell_formula_units_Z 80
_cell_length_a 18.663893
_cell_length_b 18.663893
_cell_length_c 9.932011
_cell_angle_alpha 90.000000
_cell_angle_beta 90.000000
_cell_angle_gamma 90.000000
_cell_volume 3459.725670
_symmetry_space_group_name_H-M "I 41/A C D"
_symmetry_group_IT_number 142
_space_group.IT_coordinate_system_code '2'
_symmetry_cell_setting 'tetragonal'
loop_
_space_group_symop_operation_xyz
x,y,z
1/4-y,3/4+x,1/4+z
-x,1/2-y,z
1/4+y,1/4-x,3/4+z
x,-y,1/2-z
1/2-x,y,-z
3/4+y,1/4+x,1/4-z
1/4-y,1/4-x,1/4-z
-x,-y,-z
3/4+y,1/4-x,3/4-z
x,1/2+y,-z
3/4-y,3/4+x,1/4-z
-x,y,1/2+z
1/2+x,-y,z
1/4-y,3/4-x,3/4+z
3/4+y,3/4+x,3/4+z
1/2+x,1/2+y,1/2+z
3/4-y,1/4+x,3/4+z
1/2-x,-y,1/2+z
3/4+y,3/4-x,1/4+z
1/2+x,1/2-y,-z
-x,1/2+y,1/2-z
1/4+y,3/4+x,3/4-z
3/4-y,3/4-x,3/4-z
1/2-x,1/2-y,1/2-z
1/4+y,3/4-x,1/4-z
1/2+x,y,1/2-z
1/4-y,1/4+x,3/4-z
1/2-x,1/2+y,z
x,1/2-y,1/2+z
3/4-y,1/4-x,1/4+z
1/4+y,1/4+x,1/4+z
loop_
_atom_site_type_symbol
_atom_site_label
_atom_site_fract_x
_atom_site_fract_y
_atom_site_fract_z
Si Si1 0.197046 0.807775 0.609835
Si Si2 0.408608 0.922975 0.451957
Si Si3 0.821777 0.000000 0.250000
O O1 0.250000 0.773570 0.500000
O O2 0.142027 0.855070 0.521494
O O3 0.254027 0.847976 0.709232
O O4 0.159675 0.743254 0.689899
O O5 0.374835 0.939649 0.305102
O O6 0.773298 0.976703 0.375000
#
# Coordination Sequence:
#
# PCOD9574157 Si02
#       3
#    32  32  16
#     4  11  24  43  66  99 137 183 232 286 346 416
#     4  11  24  41  67  97 138 179 231 288 345 410
#     4  12  24  42  68 102 138 178 228 298 348 404
#
# _framework density 23.123221999999998
#
# number of rings (size 3 to 8) (size 9 to 14) (size 15 to 20)
#    0.000    0.800    6.000    1.200    2.800    0.800 
#    0.000    0.000    0.000    4.800    0.000    0.000 
#    0.000    0.000    0.000    0.000    0.000    0.000 
#
# Total GULP energy -222784.651002 kJ/mol
# GULP energy per Si atom -5569.616275 kJ/mol
# Density = 2.307059 g / cm^3
# Si number density = 23.123222 Si / 1000 Ang^3
#
#
#
# Elastic Constant Matrix: (Units=GPa)
#
#
# Indices 1 2 3 4 5 6 
#
# 1 107.5021 88.1780 23.7042 0.0000 0.0000 0.0000
# 2 88.1780 107.5016 23.7036 0.0000 0.0000 0.0000
# 3 23.7042 23.7036 80.3865 0.0000 0.0000 0.0000
# 4 0.0000 0.0000 0.0000 37.2824 0.0000 0.0000
# 5 0.0000 0.0000 0.0000 0.0000 37.2828 0.0000
# 6 0.0000 0.0000 0.0000 0.0000 0.0000 -0.3917
#
#
#
# Elastic Compliance Matrix: (Units=1/GPa)
#
#
# Indices 1 2 3 4 5 6 
#
# 1 0.028627 -0.023123 -0.001623 0.000000 0.000000 0.000000
# 2 -0.023123 0.028627 -0.001623 0.000000 0.000000 0.000000
# 3 -0.001623 -0.001623 0.013397 0.000000 0.000000 0.000000
# 4 0.000000 0.000000 0.000000 0.026822 0.000000 0.000000
# 5 0.000000 0.000000 0.000000 0.000000 0.026822 0.000000
# 6 0.000000 0.000000 0.000000 0.000000 0.000000 -2.553010
#
#
# Mechanical properties :
#
#
# Convention : Reuss Voigt Hill
#
# Bulk Modulus (GPa) = 55.82640 62.95131 59.38886
# Shear Modulus (GPa) = -2.10970 25.48832 11.68931
#
# Velocity S-wave (km/s) = -0.95622 3.32367 2.25082
# Velocity P-wave (km/s) = 4.79336 6.48170 5.70038
#
# Compressibility (1/GPa) = 0.01791267
#
# Stress axis : x y z
#
# Youngs Moduli (GPa) = 34.93264 34.93259 74.64368
#
# Poissons Ratio (x) = 0.80775 0.12115
# Poissons Ratio (y) = 0.80775 0.12112
# Poissons Ratio (z) = 0.05670 0.05668
#
# Static dielectric constant tensor:
#      x y z
#    x 1.922960 0.000000 0.000000 
#    y 0.000000 1.922960 0.000000 
#    z 0.000000 0.000000 1.997080 
# 
# From -- ./inp_files/3064.got.cif
#   From: 2010.05.17/outbox.cif.g08.bks.cpg/sg142_2_cif.got.tgz:3064.got - 2010.05.20 13:39:18.
