data_PCOD9574218
_publ_section_title
;
Structure prediction by ZEFSAII (Michael W. Deem and Ramdas Pophale) SiO2 
 PCOD9574218
Probable space group: I 41/A C D
;
_chemical_formula_sum "Si O2"
_cell_formula_units_Z 136
_cell_length_a 15.698652
_cell_length_b 15.698652
_cell_length_c 21.258950
_cell_angle_alpha 90.000000
_cell_angle_beta 90.000000
_cell_angle_gamma 90.000000
_cell_volume 5239.218792
_symmetry_space_group_name_H-M "I 41/A C D"
_symmetry_group_IT_number 142
_space_group.IT_coordinate_system_code '2'
_symmetry_cell_setting 'tetragonal'
loop_
_space_group_symop_operation_xyz
x,y,z
1/4-y,3/4+x,1/4+z
-x,1/2-y,z
1/4+y,1/4-x,3/4+z
x,-y,1/2-z
1/2-x,y,-z
3/4+y,1/4+x,1/4-z
1/4-y,1/4-x,1/4-z
-x,-y,-z
3/4+y,1/4-x,3/4-z
x,1/2+y,-z
3/4-y,3/4+x,1/4-z
-x,y,1/2+z
1/2+x,-y,z
1/4-y,3/4-x,3/4+z
3/4+y,3/4+x,3/4+z
1/2+x,1/2+y,1/2+z
3/4-y,1/4+x,3/4+z
1/2-x,-y,1/2+z
3/4+y,3/4-x,1/4+z
1/2+x,1/2-y,-z
-x,1/2+y,1/2-z
1/4+y,3/4+x,3/4-z
3/4-y,3/4-x,3/4-z
1/2-x,1/2-y,1/2-z
1/4+y,3/4-x,1/4-z
1/2+x,y,1/2-z
1/4-y,1/4+x,3/4-z
1/2-x,1/2+y,z
x,1/2-y,1/2+z
3/4-y,1/4-x,1/4+z
1/4+y,1/4+x,1/4+z
loop_
_atom_site_type_symbol
_atom_site_label
_atom_site_fract_x
_atom_site_fract_y
_atom_site_fract_z
Si Si1 0.113952 0.688779 0.275000
Si Si2 0.870648 0.297886 0.348424
Si Si3 0.000000 0.750000 0.875000
Si Si4 0.171188 0.777958 0.545563
Si Si5 0.307763 0.490353 0.560764
O O1 0.144016 0.742724 0.214863
O O2 0.083001 0.747642 0.331547
O O3 0.970776 0.861153 0.251644
O O4 0.187367 0.627190 0.298409
O O5 0.964699 0.344842 0.354506
O O6 0.794842 0.295557 0.401802
O O7 0.250000 0.799572 0.500000
O O8 0.148617 0.895842 0.562820
O O9 0.250000 0.493552 0.500000
O O10 0.256888 0.506888 0.625000
#
# Coordination Sequence:
#
# PCOD9574218 Si02
#       5
#    32  32   8  32  32
#     4  12  24  46  72 106 143 191 244 309 374 451
#     4  12  25  46  74 108 147 192 254 311 377 462
#     4  12  24  40  70 104 144 176 248 310 362 450
#     4  12  25  45  76 111 149 197 249 316 386 454
#     4  12  27  49  70 102 147 195 243 304 384 455
#
# _framework density 25.958068000000001
#
# number of rings (size 3 to 8) (size 9 to 14) (size 15 to 20)
#    0.000    0.000    5.882    4.941    0.000    0.000 
#    2.118    0.000    0.000    0.000    0.000    0.000 
#    0.000    0.000    0.000    0.000    0.000    0.000 
#
# Total GULP energy -379332.719463 kJ/mol
# GULP energy per Si atom -5578.422345 kJ/mol
# Density = 2.589899 g / cm^3
# Si number density = 25.958068 Si / 1000 Ang^3
#
#
#
# Elastic Constant Matrix: (Units=GPa)
#
#
# Indices 1 2 3 4 5 6 
#
# 1 134.1360 94.2072 100.2436 0.0000 0.0000 0.0000
# 2 94.2072 134.1360 100.2436 0.0000 0.0000 0.0000
# 3 100.2436 100.2436 234.4230 0.0000 0.0000 0.0000
# 4 0.0000 0.0000 0.0000 40.4673 0.0000 0.0000
# 5 0.0000 0.0000 0.0000 0.0000 40.4673 0.0000
# 6 0.0000 0.0000 0.0000 0.0000 0.0000 62.3186
#
#
#
# Elastic Compliance Matrix: (Units=1/GPa)
#
#
# Indices 1 2 3 4 5 6 
#
# 1 0.016028 -0.009016 -0.002998 0.000000 0.000000 0.000000
# 2 -0.009016 0.016028 -0.002998 0.000000 0.000000 0.000000
# 3 -0.002998 -0.002998 0.006830 0.000000 0.000000 0.000000
# 4 0.000000 0.000000 0.000000 0.024711 0.000000 0.000000
# 5 0.000000 0.000000 0.000000 0.000000 0.024711 0.000000
# 6 0.000000 0.000000 0.000000 0.000000 0.000000 0.016047
#
#
# Mechanical properties :
#
#
# Convention : Reuss Voigt Hill
#
# Bulk Modulus (GPa) = 112.86182 121.34264 117.10223
# Shear Modulus (GPa) = 36.40707 42.51736 39.46222
#
# Velocity S-wave (km/s) = 3.74911 4.05152 3.90324
# Velocity P-wave (km/s) = 7.89392 8.29057 8.09467
#
# Compressibility (1/GPa) = 0.00886039
#
# Stress axis : x y z
#
# Youngs Moduli (GPa) = 62.38956 62.38956 146.40828
#
# Poissons Ratio (x) = 0.56252 0.43900
# Poissons Ratio (y) = 0.56252 0.43900
# Poissons Ratio (z) = 0.18707 0.18707
#
# Static dielectric constant tensor:
#      x y z
#    x 2.162060 0.000000 0.000000 
#    y 0.000000 2.162060 0.000000 
#    z 0.000000 0.000000 2.249050 
# 
# From -- ./inp_files/8818.got.cif
#   From: 2010.05.17/outbox.cif.g08.bks.cpg/sg142_5_cif.got.tgz:8818.got - 2010.05.20 13:39:18.
