data_PCOD9574323
_publ_section_title
;
Structure prediction by ZEFSAII (Michael W. Deem and Ramdas Pophale) SiO2 
 PCOD9574323
Probable space group: P 31
;
_chemical_formula_sum "Si O2"
_cell_formula_units_Z 24
_cell_length_a 13.636894
_cell_length_b 13.636894
_cell_length_c 6.862098
_cell_angle_alpha 90.000000
_cell_angle_beta 90.000000
_cell_angle_gamma 120.000000
_cell_volume 1105.143000
_symmetry_space_group_name_H-M "P 31"
_symmetry_group_IT_number 144
_symmetry_cell_setting 'hexagonal'
loop_
_space_group_symop_operation_xyz
x,y,z
-y,x-y,1/3+z
-x+y,-x,2/3+z
loop_
_atom_site_type_symbol
_atom_site_label
_atom_site_fract_x
_atom_site_fract_y
_atom_site_fract_z
Si Si1 0.365070 0.092036 0.002100
Si Si2 0.526513 0.062287 0.230764
Si Si3 0.574188 0.270886 0.773911
Si Si4 0.039109 0.225964 0.052935
Si Si5 0.520753 0.898236 0.545536
Si Si6 0.960544 0.773692 0.542599
Si Si7 0.264203 0.808469 0.569316
Si Si8 0.582258 0.917056 0.968435
O O1 0.419562 0.078428 0.196502
O O2 0.467431 0.150927 0.840033
O O3 0.315505 0.176693 0.015365
O O4 0.258050 0.977053 0.919927
O O5 0.636669 0.182020 0.193786
O O6 0.535474 0.006090 0.427051
O O7 0.514158 0.974082 0.059951
O O8 0.688595 0.292255 0.884329
O O9 0.129037 0.185982 0.007656
O O10 0.078902 0.332007 0.906808
O O11 0.917713 0.110896 0.060731
O O12 0.389075 0.832656 0.604261
O O13 0.546733 0.820990 0.402256
O O14 0.593025 0.930416 0.739703
O O15 0.017796 0.718780 0.414705
O O16 0.212826 0.740843 0.368819
#
# Coordination Sequence:
#
# PCOD9574323 Si02
#       8
#     3   3   3   3   3   3   3   3
#     4   9  19  37  66  88 134 174 209 278 329 389
#     4  10  20  40  63  95 131 169 210 268 329 403
#     4  10  21  37  61  96 135 168 210 257 324 399
#     4   9  19  40  64  90 127 177 225 277 332 393
#     4  11  25  40  66  96 127 175 230 268 342 401
#     4   9  19  40  64  94 130 178 224 284 332 394
#     4  10  24  41  62  92 134 169 225 280 336 398
#     4  10  21  41  66  89 136 170 213 280 332 395
#
# _framework density 21.716646999999998
#
# number of rings (size 3 to 8) (size 9 to 14) (size 15 to 20)
#    0.750    1.500    1.250    0.750    1.750    5.000 
#    2.250    2.500    0.000    0.000    0.000    0.000 
#    0.000    0.000    0.000    0.000    0.000    0.000 
#
# Total GULP energy -133705.508313 kJ/mol
# GULP energy per Si atom -5571.062846 kJ/mol
# Density = 2.166722 g / cm^3
# Si number density = 21.716647 Si / 1000 Ang^3
#
#
#
# Elastic Constant Matrix: (Units=GPa)
#
#
# Indices 1 2 3 4 5 6 
#
# 1 77.8365 35.7572 21.1058 -1.4330 -6.5288 0.0000
# 2 35.7572 77.8365 21.1058 1.4330 6.5288 0.0000
# 3 21.1058 21.1058 81.0637 0.0000 0.0000 0.0000
# 4 -1.4330 1.4330 0.0000 18.5644 0.0000 6.5288
# 5 -6.5288 6.5288 0.0000 0.0000 18.5644 -1.4330
# 6 0.0000 0.0000 0.0000 6.5288 -1.4330 21.0396
#
#
#
# Elastic Compliance Matrix: (Units=1/GPa)
#
#
# Indices 1 2 3 4 5 6 
#
# 1 0.018290 -0.008544 -0.002538 0.002071 0.009437 0.000000
# 2 -0.008544 0.018290 -0.002538 -0.002071 -0.009437 0.000000
# 3 -0.002538 -0.002538 0.013657 0.000000 0.000000 0.000000
# 4 0.002071 -0.002071 0.000000 0.060824 0.000000 -0.018874
# 5 0.009437 -0.009437 0.000000 0.000000 0.060824 0.004143
# 6 0.000000 0.000000 0.000000 -0.018874 0.004143 0.053668
#
#
# Mechanical properties :
#
#
# Convention : Reuss Voigt Hill
#
# Bulk Modulus (GPa) = 43.47884 43.63045 43.55465
# Shear Modulus (GPa) = 19.19690 22.21821 20.70756
#
# Velocity S-wave (km/s) = 2.97639 3.20206 3.09128
# Velocity P-wave (km/s) = 5.64591 5.81423 5.73069
#
# Compressibility (1/GPa) = 0.02299969
#
# Stress axis : x y z
#
# Youngs Moduli (GPa) = 54.67410 54.67410 73.22083
#
# Poissons Ratio (x) = 0.46713 0.18580
# Poissons Ratio (y) = 0.46713 0.18580
# Poissons Ratio (z) = 0.13874 0.13874
#
# Static dielectric constant tensor:
#      x y z
#    x 1.824830 0.000000 0.000000 
#    y 0.000000 1.824830 0.000000 
#    z 0.000000 0.000000 1.796010 
# 
# From -- ./inp_files/161.got.cif
#   From: 2010.05.17/outbox.cif.g08.bks.cpg/sg144_cif.got.tgz:161.got - 2010.05.20 13:46:34.
