data_PCOD9574706
_publ_section_title
;
Structure prediction by ZEFSAII (Michael W. Deem and Ramdas Pophale) SiO2 
 PCOD9574706
Probable space group: R 3
;
_chemical_formula_sum "Si O2"
_cell_formula_units_Z 48
_cell_length_a 12.443459
_cell_length_b 12.443459
_cell_length_c 18.626012
_cell_angle_alpha 90.000000
_cell_angle_beta 90.000000
_cell_angle_gamma 120.000000
_cell_volume 2497.656744
_symmetry_space_group_name_H-M "R 3"
_symmetry_group_IT_number 146
_symmetry_cell_setting 'hexagonal'
loop_
_space_group_symop_operation_xyz
x,y,z
-y,x-y,z
-x+y,-x,z
2/3+x,1/3+y,1/3+z
2/3-y,1/3+x-y,1/3+z
2/3-x+y,1/3-x,1/3+z
1/3+x,2/3+y,2/3+z
1/3-y,2/3+x-y,2/3+z
1/3-x+y,2/3-x,2/3+z
loop_
_atom_site_type_symbol
_atom_site_label
_atom_site_fract_x
_atom_site_fract_y
_atom_site_fract_z
Si Si1 0.609953 0.778368 0.659510
Si Si2 0.666668 0.333334 0.491527
Si Si3 0.477669 0.421430 0.481926
Si Si4 0.000000 0.000000 0.540736
Si Si5 0.333334 0.666668 0.650688
Si Si6 0.333333 0.666666 0.379434
Si Si7 0.739098 0.140839 0.853765
Si Si8 0.918875 0.349396 0.099903
O O1 0.603478 0.857065 0.727593
O O2 0.471439 0.701254 0.628713
O O3 0.701392 0.865467 0.599026
O O4 0.667490 0.703365 0.699618
O O5 0.568397 0.375471 0.511949
O O6 0.666668 0.333334 0.404226
O O7 0.339686 0.340288 0.510020
O O8 0.538964 0.569955 0.490910
O O9 0.990037 0.872499 0.514831
O O10 0.000000 0.000000 0.627003
O O11 0.463712 0.686197 0.408039
O O12 0.852995 0.202695 0.798147
#
# Coordination Sequence:
#
# PCOD9574706 Si02
#       8
#     9   3   9   3   3   3   9   9
#     4   9  21  36  59  95 124 166 212 287 314 381
#     4   9  18  39  58  77 121 165 195 256 329 364
#     4   9  21  38  61  87 122 165 208 269 320 378
#     4  12  27  39  64  92 139 174 214 251 343 411
#     4   9  18  31  58  84 124 154 213 262 335 358
#     4  12  18  46  58  93 130 169 211 278 328 357
#     4  12  24  38  64  97 124 176 218 261 334 396
#     4  10  21  37  64  89 128 167 213 270 321 379
#
# _framework density 19.218014
#
# number of rings (size 3 to 8) (size 9 to 14) (size 15 to 20)
#    1.125    0.750    3.750    0.000    5.250    0.000 
#    0.000    0.000    0.000    0.000    0.000    0.000 
#    0.000    0.000    0.000    0.000    0.000    0.000 
#
# Total GULP energy -89153.802429 kJ/mol
# GULP energy per Si atom -5572.112652 kJ/mol
# Density = 1.917427 g / cm^3
# Si number density = 19.218014 Si / 1000 Ang^3
#
#
#
# Elastic Constant Matrix: (Units=GPa)
#
#
# Indices 1 2 3 4 5 6 
#
# 1 67.2637 16.5707 9.6189 -5.3875 2.2654 0.0001
# 2 16.5707 67.2618 9.6185 5.3870 -2.2652 -0.0002
# 3 9.6189 9.6185 34.2919 0.0000 0.0000 0.0000
# 4 -5.3875 5.3870 0.0000 19.0148 0.0000 -2.2655
# 5 2.2654 -2.2652 0.0000 0.0000 19.0144 -5.3874
# 6 0.0001 -0.0002 0.0000 -2.2655 -5.3874 25.3466
#
#
#
# Elastic Compliance Matrix: (Units=1/GPa)
#
#
# Indices 1 2 3 4 5 6 
#
# 1 0.016990 -0.004241 -0.003576 0.006015 -0.002530 0.000000
# 2 -0.004241 0.016990 -0.003576 -0.006015 0.002529 0.000000
# 3 -0.003576 -0.003576 0.031168 0.000000 0.000000 0.000000
# 4 0.006015 -0.006015 0.000000 0.056602 0.000000 0.005059
# 5 -0.002530 0.002529 0.000000 0.000000 0.056603 0.012031
# 6 0.000000 0.000000 0.000000 0.005059 0.012031 0.042462
#
#
# Mechanical properties :
#
#
# Convention : Reuss Voigt Hill
#
# Bulk Modulus (GPa) = 23.60637 26.71482 25.16060
# Shear Modulus (GPa) = 19.40070 21.54246 20.47158
#
# Velocity S-wave (km/s) = 3.18072 3.35169 3.26733
# Velocity P-wave (km/s) = 5.07931 5.37676 5.23015
#
# Compressibility (1/GPa) = 0.04236145
#
# Stress axis : x y z
#
# Youngs Moduli (GPa) = 58.85776 58.85656 32.08468
#
# Poissons Ratio (x) = 0.24963 0.11474
# Poissons Ratio (y) = 0.24963 0.11473
# Poissons Ratio (z) = 0.21048 0.21047
#
# Static dielectric constant tensor:
#      x y z
#    x 1.681500 0.000000 0.000000 
#    y 0.000000 1.681500 0.000000 
#    z 0.000000 0.000000 1.673390 
# 
# From -- ./inp_files/2134.got.cif
#   From: 2010.05.17/outbox.cif.g08.bks.cpg/sg146_cif.got.tgz:2134.got - 2010.05.20 13:48:23.
