data_PCOD9574503
_publ_section_title
;
Structure prediction by ZEFSAII (Michael W. Deem and Ramdas Pophale) SiO2 
 PCOD9574503
Probable space group: P 31
;
_chemical_formula_sum "Si O2"
_cell_formula_units_Z 12
_cell_length_a 7.622419
_cell_length_b 7.622419
_cell_length_c 8.312921
_cell_angle_alpha 90.000000
_cell_angle_beta 90.000000
_cell_angle_gamma 120.000000
_cell_volume 418.282718
_symmetry_space_group_name_H-M "P 31"
_symmetry_group_IT_number 144
_symmetry_cell_setting 'hexagonal'
loop_
_space_group_symop_operation_xyz
x,y,z
-y,x-y,1/3+z
-x+y,-x,2/3+z
loop_
_atom_site_type_symbol
_atom_site_label
_atom_site_fract_x
_atom_site_fract_y
_atom_site_fract_z
Si Si1 0.525044 0.266190 0.349570
Si Si2 0.387256 0.882561 0.809465
Si Si3 0.481553 0.927674 0.152536
Si Si4 0.940534 0.885795 0.403989
O O1 0.634937 0.283047 0.518576
O O2 0.416908 0.396264 0.388634
O O3 0.433831 0.034263 0.299003
O O4 0.346641 0.659019 0.840542
O O5 0.218966 0.915911 0.726014
O O6 0.402060 0.973831 0.987444
O O7 0.716469 0.007895 0.111162
O O8 0.013699 0.982420 0.227097
#
# Coordination Sequence:
#
# PCOD9574503 Si02
#       4
#     3   3   3   3
#     4  12  24  56  90 126 188 232 302 384 454 544
#     4  12  28  54  91 135 178 242 307 374 467 553
#     4  12  28  54  91 135 178 242 307 374 467 553
#     4  12  30  60  86 130 186 234 312 390 452 556
#
# _framework density 28.688731000000001
#
# number of rings (size 3 to 8) (size 9 to 14) (size 15 to 20)
#    0.000    0.000    5.000    1.500    3.500   10.000 
#    4.500    0.000    0.000    0.000    0.000    0.000 
#    0.000    0.000    0.000    0.000    0.000    0.000 
#
# Total GULP energy -67252.511272 kJ/mol
# GULP energy per Si atom -5604.375939 kJ/mol
# Density = 2.862343 g / cm^3
# Si number density = 28.688731 Si / 1000 Ang^3
#
#
#
# Elastic Constant Matrix: (Units=GPa)
#
#
# Indices 1 2 3 4 5 6 
#
# 1 155.5113 73.0031 44.9000 3.1041 7.9729 0.0000
# 2 73.0031 155.5113 44.9000 -3.1041 -7.9729 0.0000
# 3 44.9000 44.9000 201.2003 0.0000 0.0000 0.0000
# 4 3.1041 -3.1041 0.0000 52.6632 0.0000 -7.9729
# 5 7.9729 -7.9729 0.0000 0.0000 52.6632 3.1041
# 6 0.0000 0.0000 0.0000 -7.9729 3.1041 41.2541
#
#
#
# Elastic Compliance Matrix: (Units=1/GPa)
#
#
# Indices 1 2 3 4 5 6 
#
# 1 0.008670 -0.003873 -0.001070 -0.000739 -0.001899 0.000000
# 2 -0.003873 0.008670 -0.001070 0.000739 0.001899 0.000000
# 3 -0.001070 -0.001070 0.005448 0.000000 0.000000 0.000000
# 4 -0.000739 0.000739 0.000000 0.019651 0.000000 0.003798
# 5 -0.001899 0.001899 0.000000 0.000000 0.019651 -0.001479
# 6 0.000000 0.000000 0.000000 0.003798 -0.001479 0.025085
#
#
# Mechanical properties :
#
#
# Convention : Reuss Voigt Hill
#
# Bulk Modulus (GPa) = 92.93986 93.09213 93.01599
# Shear Modulus (GPa) = 48.64376 52.61076 50.62726
#
# Velocity S-wave (km/s) = 4.12220 4.28699 4.20540
# Velocity P-wave (km/s) = 7.42448 7.55141 7.48822
#
# Compressibility (1/GPa) = 0.01075965
#
# Stress axis : x y z
#
# Youngs Moduli (GPa) = 115.34446 115.34446 183.55581
#
# Poissons Ratio (x) = 0.44672 0.19649
# Poissons Ratio (y) = 0.44672 0.19649
# Poissons Ratio (z) = 0.12347 0.12347
#
# Static dielectric constant tensor:
#      x y z
#    x 2.245180 0.000000 0.000000 
#    y 0.000000 2.245180 0.000000 
#    z 0.000000 0.000000 2.246100 
# 
# From -- ./inp_files/246.got.cif
#   From: 2010.05.17/outbox.cif.g08.bks.cpg/sg144_cif.got.tgz:246.got - 2010.05.20 13:46:34.
