data_PCOD9574989
_publ_section_title
;
Structure prediction by ZEFSAII (Michael W. Deem and Ramdas Pophale) SiO2 
 PCOD9574989
Probable space group: P -3
;
_chemical_formula_sum "Si O2"
_cell_formula_units_Z 36
_cell_length_a 16.742365
_cell_length_b 16.742365
_cell_length_c 9.273613
_cell_angle_alpha 90.000000
_cell_angle_beta 90.000000
_cell_angle_gamma 120.000000
_cell_volume 2251.195497
_symmetry_space_group_name_H-M "P -3"
_symmetry_group_IT_number 147
_symmetry_cell_setting 'hexagonal'
loop_
_space_group_symop_operation_xyz
x,y,z
-y,x-y,z
-x+y,-x,z
-x,-y,-z
y,-x+y,-z
x-y,x,-z
loop_
_atom_site_type_symbol
_atom_site_label
_atom_site_fract_x
_atom_site_fract_y
_atom_site_fract_z
Si Si1 0.608450 0.893682 0.172628
Si Si2 0.444013 0.555987 0.664491
Si Si3 0.391551 0.285233 0.827372
Si Si4 0.285233 0.893682 0.827372
Si Si5 0.285233 0.391551 0.827372
Si Si6 0.444013 0.555987 0.335509
O O1 0.641139 0.820569 0.206540
O O2 0.511911 0.862763 0.251559
O O3 0.679343 1.000000 0.212774
O O4 0.594264 0.891928 0.000000
O O5 0.511911 0.649149 0.748441
O O6 0.350852 0.488089 0.748442
O O7 0.427288 0.572711 0.500000
O O8 0.500000 0.500000 0.661636
O O9 0.320658 0.320658 0.787226
O O10 0.488089 0.350852 0.748442
O O11 0.405736 0.297664 0.000000
O O12 0.179430 0.820569 0.793460
#
# Coordination Sequence:
#
# PCOD9574989 Si02
#       6
#     6   6   6   6   6   6
#     4   9  17  30  48  68  91 121 155 188 223 267
#     4   9  17  29  45  65  89 115 145 185 229 269
#     4   9  17  30  48  68  91 121 155 188 223 267
#     4   9  17  30  48  68  91 121 155 188 223 267
#     4   9  17  30  48  68  91 121 155 188 223 267
#     4   9  17  29  45  65  89 115 145 185 229 269
#
# _framework density 15.991504000000001
#
# number of rings (size 3 to 8) (size 9 to 14) (size 15 to 20)
#    0.000    3.000    0.000    1.000    0.000    5.333 
#    2.000    0.000    0.000    0.667    0.000    4.667 
#    0.000    0.000    0.000   16.667    0.000   17.333 
#
# Total GULP energy -200423.706314 kJ/mol
# GULP energy per Si atom -5567.325175 kJ/mol
# Density = 1.595511 g / cm^3
# Si number density = 15.991504 Si / 1000 Ang^3
#
#
#
# Elastic Constant Matrix: (Units=GPa)
#
#
# Indices 1 2 3 4 5 6 
#
# 1 98.7790 57.0697 35.6437 0.0000 0.0000 0.0000
# 2 57.0697 98.7790 35.6437 0.0000 0.0000 0.0000
# 3 35.6437 35.6437 30.5276 0.0000 0.0000 0.0000
# 4 0.0000 0.0000 0.0000 10.2252 0.0000 0.0000
# 5 0.0000 0.0000 0.0000 0.0000 10.2252 0.0000
# 6 0.0000 0.0000 0.0000 0.0000 0.0000 20.8547
#
#
#
# Elastic Compliance Matrix: (Units=1/GPa)
#
#
# Indices 1 2 3 4 5 6 
#
# 1 0.018873 -0.005102 -0.016079 0.000000 0.000000 0.000000
# 2 -0.005102 0.018873 -0.016079 0.000000 0.000000 0.000000
# 3 -0.016079 -0.016079 0.070305 0.000000 0.000000 0.000000
# 4 0.000000 0.000000 0.000000 0.097797 0.000000 0.000000
# 5 0.000000 0.000000 0.000000 0.000000 0.097797 0.000000
# 6 0.000000 0.000000 0.000000 0.000000 0.000000 0.047951
#
#
# Mechanical properties :
#
#
# Convention : Reuss Voigt Hill
#
# Bulk Modulus (GPa) = 29.82334 53.86661 41.84498
# Shear Modulus (GPa) = 11.43392 14.90961 13.17176
#
# Velocity S-wave (km/s) = 2.67685 3.05675 2.87308
# Velocity P-wave (km/s) = 5.31451 6.79823 6.10164
#
# Compressibility (1/GPa) = 0.03353078
#
# Stress axis : x y z
#
# Youngs Moduli (GPa) = 52.98461 52.98461 14.22371
#
# Poissons Ratio (x) = 0.27033 0.22871
# Poissons Ratio (y) = 0.27033 0.22871
# Poissons Ratio (z) = 0.85195 0.85195
#
# Static dielectric constant tensor:
#      x y z
#    x 1.533310 0.000000 0.000000 
#    y 0.000000 1.533310 0.000000 
#    z 0.000000 0.000000 1.539040 
# 
# From -- ./inp_files/591.got.cif
#   From: 2010.05.17/outbox.cif.g08.bks.cpg/sg147_cif.got.tgz:591.got - 2010.05.20 13:49:32.
