data_PCOD9574545
_publ_section_title
;
Structure prediction by ZEFSAII (Michael W. Deem and Ramdas Pophale) SiO2 
 PCOD9574545
Probable space group: P 32
;
_chemical_formula_sum "Si O2"
_cell_formula_units_Z 24
_cell_length_a 14.814259
_cell_length_b 14.814259
_cell_length_c 6.275156
_cell_angle_alpha 90.000000
_cell_angle_beta 90.000000
_cell_angle_gamma 120.000000
_cell_volume 1192.655527
_symmetry_space_group_name_H-M "P 32"
_symmetry_group_IT_number 145
_symmetry_cell_setting 'hexagonal'
loop_
_space_group_symop_operation_xyz
x,y,z
-y,x-y,2/3+z
-x+y,-x,1/3+z
loop_
_atom_site_type_symbol
_atom_site_label
_atom_site_fract_x
_atom_site_fract_y
_atom_site_fract_z
Si Si1 0.462061 0.973167 0.476490
Si Si2 0.170363 0.817350 0.086520
Si Si3 0.825103 0.884815 0.096286
Si Si4 0.347818 0.346372 0.057788
Si Si5 0.920080 0.806125 0.447623
Si Si6 0.351029 0.472028 0.434903
Si Si7 0.322208 0.735653 0.508313
Si Si8 0.283887 0.998463 0.399410
O O1 0.490072 0.940877 0.250706
O O2 0.374232 0.857429 0.557462
O O3 0.403544 0.039266 0.458855
O O4 0.566606 0.023562 0.620588
O O5 0.259095 0.907962 0.225111
O O6 0.098502 0.735528 0.261428
O O7 0.109230 0.862795 0.950184
O O8 0.188388 0.749023 0.916634
O O9 0.903913 0.861858 0.237981
O O10 0.749327 0.786113 0.946789
O O11 0.868844 0.981738 0.929601
O O12 0.294527 0.222338 0.041223
O O13 0.343023 0.375930 0.301070
O O14 0.821257 0.756470 0.604654
O O15 0.337172 0.544541 0.267592
O O16 0.304728 0.702362 0.264314
#
# Coordination Sequence:
#
# PCOD9574545 Si02
#       8
#     3   3   3   3   3   3   3   3
#     4  11  25  37  61  94 128 176 223 279 337 397
#     4  10  20  38  61  87 124 173 210 272 322 405
#     4  11  24  44  68  94 142 172 232 283 348 409
#     4  11  22  42  62  88 127 176 225 265 345 396
#     4  11  26  44  67  98 133 186 228 287 344 420
#     4  11  22  35  61  83 131 168 213 268 312 404
#     4  12  22  33  51  87 125 172 212 246 314 388
#     4  11  25  41  63  95 132 171 231 280 346 401
#
# _framework density 20.123163999999999
#
# number of rings (size 3 to 8) (size 9 to 14) (size 15 to 20)
#    0.000    1.000    5.000    1.500    5.250    3.000 
#    0.000    0.000    0.000    0.000    0.000    8.750 
#    0.000    0.000    0.000    0.000    0.000    0.000 
#
# Total GULP energy -133767.103413 kJ/mol
# GULP energy per Si atom -5573.629309 kJ/mol
# Density = 2.007736 g / cm^3
# Si number density = 20.123164 Si / 1000 Ang^3
#
#
#
# Elastic Constant Matrix: (Units=GPa)
#
#
# Indices 1 2 3 4 5 6 
#
# 1 87.0739 28.3796 37.2798 -1.8989 -2.3344 0.0000
# 2 28.3796 87.0739 37.2798 1.8989 2.3344 0.0000
# 3 37.2798 37.2798 102.7957 0.0000 0.0000 0.0000
# 4 -1.8989 1.8989 0.0000 20.1780 0.0000 2.3344
# 5 -2.3344 2.3344 0.0000 0.0000 20.1780 -1.8989
# 6 0.0000 0.0000 0.0000 2.3344 -1.8989 29.3472
#
#
#
# Elastic Compliance Matrix: (Units=1/GPa)
#
#
# Indices 1 2 3 4 5 6 
#
# 1 0.014306 -0.002996 -0.004102 0.001628 0.002002 0.000000
# 2 -0.002996 0.014306 -0.004102 -0.001628 -0.002002 0.000000
# 3 -0.004102 -0.004102 0.012703 0.000000 0.000000 0.000000
# 4 0.001628 -0.001628 0.000000 0.050328 0.000000 -0.004003
# 5 0.002002 -0.002002 0.000000 0.000000 0.050328 0.003256
# 6 0.000000 0.000000 0.000000 -0.004003 0.003256 0.034604
#
#
# Mechanical properties :
#
#
# Convention : Reuss Voigt Hill
#
# Bulk Modulus (GPa) = 52.86329 53.64690 53.25509
# Shear Modulus (GPa) = 24.35685 25.54093 24.94889
#
# Velocity S-wave (km/s) = 3.48284 3.56649 3.52491
# Velocity P-wave (km/s) = 6.51924 6.60885 6.56420
#
# Compressibility (1/GPa) = 0.01891672
#
# Stress axis : x y z
#
# Youngs Moduli (GPa) = 69.89964 69.89964 78.72047
#
# Poissons Ratio (x) = 0.20940 0.32290
# Poissons Ratio (y) = 0.20940 0.32290
# Poissons Ratio (z) = 0.28672 0.28672
#
# Static dielectric constant tensor:
#      x y z
#    x 1.776770 0.000000 0.000000 
#    y 0.000000 1.776770 0.000000 
#    z 0.000000 0.000000 1.800900 
# 
# From -- ./inp_files/138.got.cif
#   From: 2010.05.17/outbox.cif.g08.bks.cpg/sg145_cif.got.tgz:138.got - 2010.05.20 13:47:28.
