data_PCOD9574146
_publ_section_title
;
Structure prediction by ZEFSAII (Michael W. Deem and Ramdas Pophale) SiO2 
 PCOD9574146
Probable space group: I 41/A C D
;
_chemical_formula_sum "Si O2"
_cell_formula_units_Z 136
_cell_length_a 22.936981
_cell_length_b 22.936981
_cell_length_c 10.704728
_cell_angle_alpha 90.000000
_cell_angle_beta 90.000000
_cell_angle_gamma 90.000000
_cell_volume 5631.811967
_symmetry_space_group_name_H-M "I 41/A C D"
_symmetry_group_IT_number 142
_space_group.IT_coordinate_system_code '2'
_symmetry_cell_setting 'tetragonal'
loop_
_space_group_symop_operation_xyz
x,y,z
1/4-y,3/4+x,1/4+z
-x,1/2-y,z
1/4+y,1/4-x,3/4+z
x,-y,1/2-z
1/2-x,y,-z
3/4+y,1/4+x,1/4-z
1/4-y,1/4-x,1/4-z
-x,-y,-z
3/4+y,1/4-x,3/4-z
x,1/2+y,-z
3/4-y,3/4+x,1/4-z
-x,y,1/2+z
1/2+x,-y,z
1/4-y,3/4-x,3/4+z
3/4+y,3/4+x,3/4+z
1/2+x,1/2+y,1/2+z
3/4-y,1/4+x,3/4+z
1/2-x,-y,1/2+z
3/4+y,3/4-x,1/4+z
1/2+x,1/2-y,-z
-x,1/2+y,1/2-z
1/4+y,3/4+x,3/4-z
3/4-y,3/4-x,3/4-z
1/2-x,1/2-y,1/2-z
1/4+y,3/4-x,1/4-z
1/2+x,y,1/2-z
1/4-y,1/4+x,3/4-z
1/2-x,1/2+y,z
x,1/2-y,1/2+z
3/4-y,1/4-x,1/4+z
1/4+y,1/4+x,1/4+z
loop_
_atom_site_type_symbol
_atom_site_label
_atom_site_fract_x
_atom_site_fract_y
_atom_site_fract_z
Si Si1 0.851415 0.432323 0.770442
Si Si2 0.000000 0.250000 0.875000
Si Si3 0.375049 0.780068 0.968175
Si Si4 0.158377 0.474059 0.531005
Si Si5 0.529584 0.059321 0.450613
O O1 0.869940 0.500000 0.750000
O O2 0.902946 0.387940 0.747046
O O3 0.788299 0.413226 0.723290
O O4 0.837596 0.429268 0.917918
O O5 0.012066 0.192306 0.792319
O O6 0.349836 0.775087 0.825437
O O7 0.340159 0.746008 0.077155
O O8 0.210363 0.460363 0.625000
O O9 0.095199 0.460071 0.584439
O O10 0.500000 0.000000 0.500000
#
# Coordination Sequence:
#
# PCOD9574146 Si02
#       5
#    32   8  32  32  32
#     4  11  23  45  69 110 147 193 251 321 391 472
#     4  12  32  54  80 114 164 226 284 346 412 494
#     4  11  28  49  77 108 154 207 270 327 398 480
#     4  11  24  40  72 107 149 188 245 312 394 465
#     4  11  26  48  78 113 152 205 261 327 399 486
#
# _framework density 24.148534000000001
#
# number of rings (size 3 to 8) (size 9 to 14) (size 15 to 20)
#    0.000    0.941    0.000    6.353    9.882    3.765 
#    0.000    0.000    0.000    0.000    0.000    0.000 
#    0.000    0.000    0.000    0.000    0.000    0.000 
#
# Total GULP energy -380034.252202 kJ/mol
# GULP energy per Si atom -5588.739003 kJ/mol
# Density = 2.409357 g / cm^3
# Si number density = 24.148534 Si / 1000 Ang^3
#
#
#
# Elastic Constant Matrix: (Units=GPa)
#
#
# Indices 1 2 3 4 5 6 
#
# 1 171.3705 69.5715 52.9381 0.0000 0.0000 0.0000
# 2 69.5715 171.3705 52.9381 0.0000 0.0000 0.0000
# 3 52.9381 52.9381 92.9111 0.0000 0.0000 0.0000
# 4 0.0000 0.0000 0.0000 19.4866 0.0000 0.0000
# 5 0.0000 0.0000 0.0000 0.0000 19.4866 0.0000
# 6 0.0000 0.0000 0.0000 0.0000 0.0000 19.2697
#
#
#
# Elastic Compliance Matrix: (Units=1/GPa)
#
#
# Indices 1 2 3 4 5 6 
#
# 1 0.007680 -0.002143 -0.003155 0.000000 0.000000 0.000000
# 2 -0.002143 0.007680 -0.003155 0.000000 0.000000 0.000000
# 3 -0.003155 -0.003155 0.014358 0.000000 0.000000 0.000000
# 4 0.000000 0.000000 0.000000 0.051317 0.000000 0.000000
# 5 0.000000 0.000000 0.000000 0.000000 0.051317 0.000000
# 6 0.000000 0.000000 0.000000 0.000000 0.000000 0.051895
#
#
# Mechanical properties :
#
#
# Convention : Reuss Voigt Hill
#
# Bulk Modulus (GPa) = 78.04828 87.39417 82.72123
# Shear Modulus (GPa) = 24.34000 28.99553 26.66776
#
# Velocity S-wave (km/s) = 3.17823 3.46889 3.32674
# Velocity P-wave (km/s) = 6.77189 7.23278 7.00613
#
# Compressibility (1/GPa) = 0.01281258
#
# Stress axis : x y z
#
# Youngs Moduli (GPa) = 130.20941 130.20941 69.64868
#
# Poissons Ratio (x) = 0.27908 0.21971
# Poissons Ratio (y) = 0.27908 0.21971
# Poissons Ratio (z) = 0.41076 0.41076
#
# Static dielectric constant tensor:
#      x y z
#    x 1.966710 0.000000 0.000000 
#    y 0.000000 1.966710 0.000000 
#    z 0.000000 0.000000 2.041020 
# 
# From -- ./inp_files/3604.got.cif
#   From: 2010.05.17/outbox.cif.g08.bks.cpg/sg142_2_cif.got.tgz:3604.got - 2010.05.20 13:39:18.
