data_PCOD9574659
_publ_section_title
;
Structure prediction by ZEFSAII (Michael W. Deem and Ramdas Pophale) SiO2 
 PCOD9574659
Probable space group: P 32
;
_chemical_formula_sum "Si O2"
_cell_formula_units_Z 15
_cell_length_a 8.948918
_cell_length_b 8.948918
_cell_length_c 7.798875
_cell_angle_alpha 90.000000
_cell_angle_beta 90.000000
_cell_angle_gamma 120.000000
_cell_volume 540.883394
_symmetry_space_group_name_H-M "P 32"
_symmetry_group_IT_number 145
_symmetry_cell_setting 'hexagonal'
loop_
_space_group_symop_operation_xyz
x,y,z
-y,x-y,2/3+z
-x+y,-x,1/3+z
loop_
_atom_site_type_symbol
_atom_site_label
_atom_site_fract_x
_atom_site_fract_y
_atom_site_fract_z
Si Si1 0.813611 0.406805 0.619240
Si Si2 0.800414 0.007675 0.981485
Si Si3 0.621838 0.693160 0.729809
Si Si4 0.992325 0.199586 0.590328
Si Si5 0.071322 0.693160 0.175336
O O1 0.702004 0.404008 0.452573
O O2 0.940993 0.597836 0.692658
O O3 0.940994 0.343158 0.545822
O O4 0.895203 0.947601 0.119240
O O5 0.696518 0.823703 0.886847
O O6 0.948118 0.209733 0.945438
O O7 0.502992 0.497008 0.785906
O O8 0.512512 0.756256 0.619239
O O9 0.176297 0.303483 0.684966
O O10 0.790268 0.051883 0.626374
#
# Coordination Sequence:
#
# PCOD9574659 Si02
#       5
#     3   3   3   3   3
#     4  12  30  52  88 126 170 226 290 364 432 516
#     4  12  29  50  83 120 165 219 280 353 433 509
#     4  12  28  50  81 119 163 221 282 351 432 513
#     4  12  29  50  83 120 165 219 280 353 433 509
#     4  12  28  50  81 119 163 221 282 351 432 513
#
# _framework density 27.732409000000001
#
# number of rings (size 3 to 8) (size 9 to 14) (size 15 to 20)
#    0.000    0.000    0.000    8.400   19.600    0.000 
#    0.000    0.000    0.000    0.000    0.000    0.000 
#    0.000    0.000    0.000    0.000    0.000    0.000 
#
# Total GULP energy -83507.103874 kJ/mol
# GULP energy per Si atom -5567.140258 kJ/mol
# Density = 2.766929 g / cm^3
# Si number density = 27.732409 Si / 1000 Ang^3
#
#
#
# Elastic Constant Matrix: (Units=GPa)
#
#
# Indices 1 2 3 4 5 6 
#
# 1 166.0657 78.1916 43.7923 0.0000 3.1492 0.0000
# 2 78.1916 166.0657 43.7923 0.0000 -3.1492 0.0000
# 3 43.7923 43.7923 77.2583 0.0000 0.0000 0.0000
# 4 0.0000 0.0000 0.0000 34.5928 0.0000 -3.1492
# 5 3.1492 -3.1492 0.0000 0.0000 34.5928 0.0000
# 6 0.0000 0.0000 0.0000 -3.1492 0.0000 43.9370
#
#
#
# Elastic Compliance Matrix: (Units=1/GPa)
#
#
# Indices 1 2 3 4 5 6 
#
# 1 0.008297 -0.003158 -0.002913 0.000000 -0.001043 0.000000
# 2 -0.003158 0.008297 -0.002913 0.000000 0.001043 0.000000
# 3 -0.002913 -0.002913 0.016246 0.000000 0.000000 0.000000
# 4 0.000000 0.000000 0.000000 0.029098 0.000000 0.002086
# 5 -0.001043 0.001043 0.000000 0.000000 0.029098 0.000000
# 6 0.000000 0.000000 0.000000 0.002086 0.000000 0.022909
#
#
# Mechanical properties :
#
#
# Convention : Reuss Voigt Hill
#
# Bulk Modulus (GPa) = 67.24085 82.32689 74.78387
# Shear Modulus (GPa) = 36.53176 38.86542 37.69859
#
# Velocity S-wave (km/s) = 3.63339 3.74765 3.69096
# Velocity P-wave (km/s) = 6.47310 6.96255 6.72228
#
# Compressibility (1/GPa) = 0.01487191
#
# Stress axis : x y z
#
# Youngs Moduli (GPa) = 120.53203 120.53203 61.55550
#
# Poissons Ratio (x) = 0.38065 0.17929
# Poissons Ratio (y) = 0.38065 0.17929
# Poissons Ratio (z) = 0.35106 0.35106
#
# Static dielectric constant tensor:
#      x y z
#    x 2.171240 0.000000 0.000000 
#    y 0.000000 2.171240 0.000000 
#    z 0.000000 0.000000 2.956560 
# 
# From -- ./inp_files/270.got.cif
#   From: 2010.05.17/outbox.cif.g08.bks.cpg/sg145_cif.got.tgz:270.got - 2010.05.20 13:47:28.
