data_PCOD9574654
_publ_section_title
;
Structure prediction by ZEFSAII (Michael W. Deem and Ramdas Pophale) SiO2 
 PCOD9574654
Probable space group: P 32
;
_chemical_formula_sum "Si O2"
_cell_formula_units_Z 24
_cell_length_a 14.367280
_cell_length_b 14.367280
_cell_length_c 5.196509
_cell_angle_alpha 90.000000
_cell_angle_beta 90.000000
_cell_angle_gamma 120.000000
_cell_volume 928.948049
_symmetry_space_group_name_H-M "P 32"
_symmetry_group_IT_number 145
_symmetry_cell_setting 'hexagonal'
loop_
_space_group_symop_operation_xyz
x,y,z
-y,x-y,2/3+z
-x+y,-x,1/3+z
loop_
_atom_site_type_symbol
_atom_site_label
_atom_site_fract_x
_atom_site_fract_y
_atom_site_fract_z
Si Si1 0.530884 0.910954 0.925730
Si Si2 0.622913 0.057249 0.431000
Si Si3 0.640192 0.419191 0.517597
Si Si4 0.340179 0.061800 0.145339
Si Si5 0.887885 0.968943 0.582753
Si Si6 0.160063 0.360399 0.017023
Si Si7 0.870609 0.145816 0.322432
Si Si8 0.445777 0.695703 0.362366
O O1 0.581938 0.831435 0.905316
O O2 0.583146 0.994253 0.694546
O O3 0.402634 0.842694 0.868284
O O4 0.565179 0.979701 0.186577
O O5 0.602233 0.156445 0.406616
O O6 0.750078 0.105354 0.412431
O O7 0.585827 0.325086 0.310033
O O8 0.672993 0.535732 0.414705
O O9 0.307648 0.118673 0.367946
O O10 0.310570 0.952075 0.298093
O O11 0.282261 0.049717 0.869943
O O12 0.765385 0.888310 0.665562
O O13 0.950519 0.911723 0.471320
O O14 0.886364 0.043979 0.354890
O O15 0.225322 0.438605 0.782294
O O16 0.378010 0.748304 0.260691
#
# Coordination Sequence:
#
# PCOD9574654 Si02
#       8
#     3   3   3   3   3   3   3   3
#     4  12  28  50  85 117 164 213 277 344 422 489
#     4  12  27  50  80 121 159 219 275 340 415 504
#     4  12  28  48  82 113 168 221 278 337 417 494
#     4  12  28  50  76 117 162 212 275 344 407 495
#     4  12  27  50  82 114 164 214 275 339 426 500
#     4  12  27  52  82 124 163 218 276 347 421 500
#     4  12  26  50  76 111 162 209 272 337 408 487
#     4  12  27  52  79 119 168 214 274 342 416 509
#
# _framework density 25.835677
#
# number of rings (size 3 to 8) (size 9 to 14) (size 15 to 20)
#    0.000    0.000    5.000    3.750    1.750    5.000 
#    0.000    0.000    0.000    0.000    0.000    0.000 
#    0.000    0.000    0.000    0.000    0.000    0.000 
#
# Total GULP energy -134402.076095 kJ/mol
# GULP energy per Si atom -5600.086504 kJ/mol
# Density = 2.577687 g / cm^3
# Si number density = 25.835677 Si / 1000 Ang^3
#
#
#
# Elastic Constant Matrix: (Units=GPa)
#
#
# Indices 1 2 3 4 5 6 
#
# 1 103.2558 -3.0501 4.9406 -0.0977 -4.2711 0.0000
# 2 -3.0501 103.2558 4.9406 0.0977 4.2711 0.0000
# 3 4.9406 4.9406 86.8510 0.0000 0.0000 0.0000
# 4 -0.0977 0.0977 0.0000 30.6666 0.0000 4.2711
# 5 -4.2711 4.2711 0.0000 0.0000 30.6666 -0.0977
# 6 0.0000 0.0000 0.0000 4.2711 -0.0977 53.1530
#
#
#
# Elastic Compliance Matrix: (Units=1/GPa)
#
#
# Indices 1 2 3 4 5 6 
#
# 1 0.009775 0.000261 -0.000571 0.000030 0.001325 0.000000
# 2 0.000261 0.009775 -0.000571 -0.000030 -0.001325 0.000000
# 3 -0.000571 -0.000571 0.011579 0.000000 0.000000 0.000000
# 4 0.000030 -0.000030 0.000000 0.032978 0.000000 -0.002650
# 5 0.001325 -0.001325 0.000000 0.000000 0.032978 0.000061
# 6 0.000000 0.000000 0.000000 -0.002650 0.000061 0.019027
#
#
# Mechanical properties :
#
#
# Convention : Reuss Voigt Hill
#
# Bulk Modulus (GPa) = 34.05197 34.11388 34.08292
# Shear Modulus (GPa) = 39.16631 41.99936 40.58284
#
# Velocity S-wave (km/s) = 3.89778 4.03629 3.96764
# Velocity P-wave (km/s) = 5.78496 5.91228 5.84896
#
# Compressibility (1/GPa) = 0.02936688
#
# Stress axis : x y z
#
# Youngs Moduli (GPa) = 102.30651 102.30651 86.36384
#
# Poissons Ratio (x) = -0.02672 0.04930
# Poissons Ratio (y) = -0.02672 0.04930
# Poissons Ratio (z) = 0.05841 0.05841
#
# Static dielectric constant tensor:
#      x y z
#    x 2.096880 0.000000 0.000000 
#    y 0.000000 2.096880 0.000000 
#    z 0.000000 0.000000 2.046730 
# 
# From -- ./inp_files/183.got.cif
#   From: 2010.05.17/outbox.cif.g08.bks.cpg/sg145_cif.got.tgz:183.got - 2010.05.20 13:47:28.
