data_PCOD9574889
_publ_section_title
;
Structure prediction by ZEFSAII (Michael W. Deem and Ramdas Pophale) SiO2 
 PCOD9574889
Probable space group: P -3
;
_chemical_formula_sum "Si O2"
_cell_formula_units_Z 42
_cell_length_a 12.696701
_cell_length_b 12.696701
_cell_length_c 18.749432
_cell_angle_alpha 90.000000
_cell_angle_beta 90.000000
_cell_angle_gamma 120.000000
_cell_volume 2617.583425
_symmetry_space_group_name_H-M "P -3"
_symmetry_group_IT_number 147
_symmetry_cell_setting 'hexagonal'
loop_
_space_group_symop_operation_xyz
x,y,z
-y,x-y,z
-x+y,-x,z
-x,-y,-z
y,-x+y,-z
x-y,x,-z
loop_
_atom_site_type_symbol
_atom_site_label
_atom_site_fract_x
_atom_site_fract_y
_atom_site_fract_z
Si Si1 0.666212 0.082463 0.707019
Si Si2 0.252193 0.000106 0.843898
Si Si3 0.250959 1.000000 1.000000
Si Si4 0.333567 0.416360 0.568894
Si Si5 0.583749 0.917537 0.292981
Si Si6 0.252087 0.999894 0.156102
Si Si7 0.666433 0.082793 0.431106
O O1 0.551368 0.102736 0.710911
O O2 0.789925 0.210075 0.697441
O O3 0.678923 0.022004 0.779526
O O4 0.644008 0.994865 0.640044
O O5 0.126611 0.873389 0.835602
O O6 0.343081 0.022004 0.779526
O O7 0.226591 0.113296 0.842248
O O8 0.307199 0.002742 0.922677
O O9 0.304457 0.997258 0.077323
O O10 0.118637 0.881363 0.997387
O O11 0.351949 0.351949 0.500000
O O12 0.205533 0.411065 0.567662
O O13 0.444276 0.555724 0.567488
O O14 0.649143 0.005135 0.359956
#
# Coordination Sequence:
#
# PCOD9574889 Si02
#       7
#     6   6   6   6   6   6   6
#     4  10  20  33  49  68  92 124 160 196 232 272
#     4   9  16  27  45  69  95 121 151 190 237 285
#     4   8  13  22  39  64  92 120 150 186 230 280
#     4  10  20  34  53  75  98 124 154 189 227 268
#     4  10  20  33  49  68  92 124 160 196 232 272
#     4   9  16  27  45  69  95 121 151 190 237 285
#     4  10  20  34  53  75  98 124 154 189 227 268
#
# _framework density 16.045335000000001
#
# number of rings (size 3 to 8) (size 9 to 14) (size 15 to 20)
#    0.000    2.571    0.000    2.714    0.000    2.286 
#    0.000    3.571    0.000    7.429    0.000    0.000 
#    0.000    0.000    0.000    0.000    0.000    0.000 
#
# Total GULP energy -233963.791729 kJ/mol
# GULP energy per Si atom -5570.566470 kJ/mol
# Density = 1.600882 g / cm^3
# Si number density = 16.045335 Si / 1000 Ang^3
#
#
#
# Elastic Constant Matrix: (Units=GPa)
#
#
# Indices 1 2 3 4 5 6 
#
# 1 88.5924 55.1650 76.4211 -2.3164 0.0000 0.0000
# 2 55.1650 88.5924 76.4211 2.3164 0.0000 0.0000
# 3 76.4211 76.4211 187.3029 0.0000 0.0000 0.0000
# 4 -2.3164 2.3164 0.0000 23.0551 0.0000 0.0000
# 5 0.0000 0.0000 0.0000 0.0000 23.0551 -2.3164
# 6 0.0000 0.0000 0.0000 0.0000 -2.3164 16.7137
#
#
#
# Elastic Compliance Matrix: (Units=1/GPa)
#
#
# Indices 1 2 3 4 5 6 
#
# 1 0.021312 -0.009026 -0.005013 0.003048 0.000000 0.000000
# 2 -0.009026 0.021312 -0.005013 -0.003048 0.000000 0.000000
# 3 -0.005013 -0.005013 0.009429 0.000000 0.000000 0.000000
# 4 0.003048 -0.003048 0.000000 0.043987 0.000000 0.000000
# 5 0.000000 0.000000 0.000000 0.000000 0.043987 0.006096
# 6 0.000000 0.000000 0.000000 0.000000 0.006096 0.060676
#
#
# Mechanical properties :
#
#
# Convention : Reuss Voigt Hill
#
# Bulk Modulus (GPa) = 71.68464 86.72246 79.20355
# Shear Modulus (GPa) = 20.53761 22.99678 21.76720
#
# Velocity S-wave (km/s) = 3.58155 3.78992 3.68721
# Velocity P-wave (km/s) = 7.86617 8.56254 8.22173
#
# Compressibility (1/GPa) = 0.01394999
#
# Stress axis : x y z
#
# Youngs Moduli (GPa) = 46.92236 46.92236 106.05227
#
# Poissons Ratio (x) = 0.42353 0.53160
# Poissons Ratio (y) = 0.42353 0.53160
# Poissons Ratio (z) = 0.23520 0.23520
#
# Static dielectric constant tensor:
#      x y z
#    x 1.502290 0.000000 0.000000 
#    y 0.000000 1.502290 0.000000 
#    z 0.000000 0.000000 1.570020 
# 
# From -- ./inp_files/1022.got.cif
#   From: 2010.05.17/outbox.cif.g08.bks.cpg/sg147_cif.got.tgz:1022.got - 2010.05.20 13:49:32.
