data_PCOD9574792
_publ_section_title
;
Structure prediction by ZEFSAII (Michael W. Deem and Ramdas Pophale) SiO2 
 PCOD9574792
Probable space group: R 3
;
_chemical_formula_sum "Si O2"
_cell_formula_units_Z 54
_cell_length_a 10.964672
_cell_length_b 10.964672
_cell_length_c 22.266529
_cell_angle_alpha 90.000000
_cell_angle_beta 90.000000
_cell_angle_gamma 120.000000
_cell_volume 2318.325668
_symmetry_space_group_name_H-M "R 3"
_symmetry_group_IT_number 146
_symmetry_cell_setting 'hexagonal'
loop_
_space_group_symop_operation_xyz
x,y,z
-y,x-y,z
-x+y,-x,z
2/3+x,1/3+y,1/3+z
2/3-y,1/3+x-y,1/3+z
2/3-x+y,1/3-x,1/3+z
1/3+x,2/3+y,2/3+z
1/3-y,2/3+x-y,2/3+z
1/3-x+y,2/3-x,2/3+z
loop_
_atom_site_type_symbol
_atom_site_label
_atom_site_fract_x
_atom_site_fract_y
_atom_site_fract_z
Si Si1 0.382582 0.052879 0.076640
Si Si2 0.308195 0.494388 0.143910
Si Si3 0.505314 0.696068 0.989207
Si Si4 0.239050 0.936326 0.881156
Si Si5 0.271095 0.358935 0.580006
Si Si6 0.049135 0.669984 0.381813
O O1 0.342838 0.038964 0.146955
O O2 0.371636 0.188374 0.061227
O O3 0.540637 0.084395 0.061320
O O4 0.294231 0.920718 0.032231
O O5 0.450799 0.648188 0.135554
O O6 0.356730 0.552406 0.999976
O O7 0.324083 0.441631 0.209078
O O8 0.302268 0.379121 0.098237
O O9 0.557835 0.698311 0.922057
O O10 0.071751 0.825556 0.883007
O O11 0.276534 0.085672 0.910423
O O12 0.312312 0.339957 0.646630
#
# Coordination Sequence:
#
# PCOD9574792 Si02
#       6
#     9   9   9   9   9   9
#     4  12  24  48  81 116 158 208 276 336 401 481
#     4  10  26  50  77 122 165 207 269 336 404 474
#     4  10  26  52  78 118 166 215 263 335 410 480
#     4  12  24  50  79 116 161 208 271 338 402 477
#     4  12  26  48  81 119 162 213 271 333 407 480
#     4  12  26  48  80 119 160 213 272 338 402 482
#
# _framework density 23.292672
#
# number of rings (size 3 to 8) (size 9 to 14) (size 15 to 20)
#    0.667    0.000    5.000    1.667    2.333    4.000 
#    0.000    0.000    0.000    0.000    0.000    0.000 
#    0.000    0.000    0.000    0.000    0.000    0.000 
#
# Total GULP energy -100502.384973 kJ/mol
# GULP energy per Si atom -5583.465832 kJ/mol
# Density = 2.323966 g / cm^3
# Si number density = 23.292672 Si / 1000 Ang^3
#
#
#
# Elastic Constant Matrix: (Units=GPa)
#
#
# Indices 1 2 3 4 5 6 
#
# 1 114.8491 15.6039 33.6169 -11.3184 -0.8406 0.0000
# 2 15.6039 114.8491 33.6169 11.3184 0.8406 0.0000
# 3 33.6169 33.6169 112.4265 0.0000 0.0000 0.0000
# 4 -11.3184 11.3184 0.0000 33.5285 0.0000 0.8406
# 5 -0.8406 0.8406 0.0000 0.0000 33.5285 -11.3184
# 6 0.0000 0.0000 0.0000 0.8406 -11.3184 49.6226
#
#
#
# Elastic Compliance Matrix: (Units=1/GPa)
#
#
# Indices 1 2 3 4 5 6 
#
# 1 0.009992 -0.000930 -0.002710 0.003687 0.000274 0.000000
# 2 -0.000930 0.009992 -0.002710 -0.003687 -0.000274 0.000000
# 3 -0.002710 -0.002710 0.010515 0.000000 0.000000 0.000000
# 4 0.003687 -0.003687 0.000000 0.032328 0.000000 -0.000548
# 5 0.000274 -0.000274 0.000000 0.000000 0.032328 0.007374
# 6 0.000000 0.000000 0.000000 -0.000548 0.007374 0.021843
#
#
# Mechanical properties :
#
#
# Convention : Reuss Voigt Hill
#
# Bulk Modulus (GPa) = 56.17765 56.42224 56.29995
# Shear Modulus (GPa) = 36.86485 40.62173 38.74329
#
# Velocity S-wave (km/s) = 3.98261 4.18062 4.08281
# Velocity P-wave (km/s) = 6.73192 6.89777 6.81535
#
# Compressibility (1/GPa) = 0.01780067
#
# Stress axis : x y z
#
# Youngs Moduli (GPa) = 100.08120 100.08120 95.10081
#
# Poissons Ratio (x) = 0.09305 0.25769
# Poissons Ratio (y) = 0.09305 0.25769
# Poissons Ratio (z) = 0.27119 0.27119
#
# Static dielectric constant tensor:
#      x y z
#    x 1.933740 0.000000 0.000000 
#    y 0.000000 1.933740 0.000000 
#    z 0.000000 0.000000 1.894980 
# 
# From -- ./inp_files/1969.got.cif
#   From: 2010.05.17/outbox.cif.g08.bks.cpg/sg146_cif.got.tgz:1969.got - 2010.05.20 13:48:23.
