data_PCOD9574362
_publ_section_title
;
Structure prediction by ZEFSAII (Michael W. Deem and Ramdas Pophale) SiO2 
 PCOD9574362
Probable space group: P 31
;
_chemical_formula_sum "Si O2"
_cell_formula_units_Z 21
_cell_length_a 11.641850
_cell_length_b 11.641850
_cell_length_c 7.180896
_cell_angle_alpha 90.000000
_cell_angle_beta 90.000000
_cell_angle_gamma 120.000000
_cell_volume 842.855776
_symmetry_space_group_name_H-M "P 31"
_symmetry_group_IT_number 144
_symmetry_cell_setting 'hexagonal'
loop_
_space_group_symop_operation_xyz
x,y,z
-y,x-y,1/3+z
-x+y,-x,2/3+z
loop_
_atom_site_type_symbol
_atom_site_label
_atom_site_fract_x
_atom_site_fract_y
_atom_site_fract_z
Si Si1 0.588682 0.347235 0.932970
Si Si2 0.050707 0.340936 0.927222
Si Si3 0.786355 0.180004 0.772426
Si Si4 0.297106 0.152850 0.056535
Si Si5 0.048713 0.932524 0.445073
Si Si6 0.416826 0.488831 0.444481
Si Si7 0.268253 0.873715 0.987728
O O1 0.621900 0.351856 0.717618
O O2 0.436488 0.277012 0.988220
O O3 0.505188 0.189371 0.342191
O O4 0.892082 0.239046 0.938654
O O5 0.086076 0.264484 0.772243
O O6 0.071470 0.489344 0.938781
O O7 0.128152 0.341795 0.112218
O O8 0.822160 0.106107 0.608010
O O9 0.634833 0.073429 0.807084
O O10 0.185387 0.133944 0.913602
O O11 0.299107 0.015661 0.058392
O O12 0.986088 0.928488 0.243335
O O13 0.262905 0.435298 0.417929
O O14 0.475229 0.589467 0.616842
#
# Coordination Sequence:
#
# PCOD9574362 Si02
#       7
#     3   3   3   3   3   3   3
#     4  10  22  38  66 100 133 168 222 290 351 415
#     4  10  23  42  67  99 131 186 231 284 362 420
#     4  11  22  41  71 101 137 174 236 302 359 412
#     4  11  23  41  66 102 135 180 229 290 358 424
#     4  12  24  42  66  99 138 181 232 292 351 429
#     4  10  23  46  69  96 144 190 229 298 354 432
#     4  10  23  46  67  93 142 185 235 280 365 426
#
# _framework density 24.915296000000001
#
# number of rings (size 3 to 8) (size 9 to 14) (size 15 to 20)
#    0.857    0.571    1.429    4.286    4.000    0.000 
#    2.571    1.429    0.000    0.000    0.000    0.000 
#    0.000    0.000    0.000    0.000    0.000    0.000 
#
# Total GULP energy -117214.801210 kJ/mol
# GULP energy per Si atom -5581.657200 kJ/mol
# Density = 2.485859 g / cm^3
# Si number density = 24.915296 Si / 1000 Ang^3
#
#
#
# Elastic Constant Matrix: (Units=GPa)
#
#
# Indices 1 2 3 4 5 6 
#
# 1 121.3746 52.2148 15.8442 -0.9429 11.9914 0.0000
# 2 52.2148 121.3746 15.8442 0.9429 -11.9914 0.0000
# 3 15.8442 15.8442 70.4559 0.0000 0.0000 0.0000
# 4 -0.9429 0.9429 0.0000 38.7469 0.0000 -11.9914
# 5 11.9914 -11.9914 0.0000 0.0000 38.7469 -0.9429
# 6 0.0000 0.0000 0.0000 -11.9914 -0.9429 34.5799
#
#
#
# Elastic Compliance Matrix: (Units=1/GPa)
#
#
# Indices 1 2 3 4 5 6 
#
# 1 0.011108 -0.005101 -0.001351 0.000394 -0.005017 0.000000
# 2 -0.005101 0.011108 -0.001351 -0.000394 0.005017 0.000000
# 3 -0.001351 -0.001351 0.014801 0.000000 0.000000 0.000000
# 4 0.000394 -0.000394 0.000000 0.028933 0.000000 0.010033
# 5 -0.005017 0.005017 0.000000 0.000000 0.028933 0.000789
# 6 0.000000 0.000000 0.000000 0.010033 0.000789 0.032419
#
#
# Mechanical properties :
#
#
# Convention : Reuss Voigt Hill
#
# Bulk Modulus (GPa) = 46.70322 53.44571 50.07446
# Shear Modulus (GPa) = 33.32318 37.70156 35.51237
#
# Velocity S-wave (km/s) = 3.66110 3.89419 3.77944
# Velocity P-wave (km/s) = 6.05450 6.45888 6.25996
#
# Compressibility (1/GPa) = 0.02141180
#
# Stress axis : x y z
#
# Youngs Moduli (GPa) = 90.02140 90.02140 67.56360
#
# Poissons Ratio (x) = 0.45921 0.09127
# Poissons Ratio (y) = 0.45921 0.09127
# Poissons Ratio (z) = 0.12161 0.12161
#
# Static dielectric constant tensor:
#      x y z
#    x 2.012120 0.000000 0.000000 
#    y 0.000000 2.012120 0.000000 
#    z 0.000000 0.000000 2.030640 
# 
# From -- ./inp_files/389.got.cif
#   From: 2010.05.17/outbox.cif.g08.bks.cpg/sg144_cif.got.tgz:389.got - 2010.05.20 13:46:34.
