data_PCOD9574568
_publ_section_title
;
Structure prediction by ZEFSAII (Michael W. Deem and Ramdas Pophale) SiO2 
 PCOD9574568
Probable space group: P 32
;
_chemical_formula_sum "Si O2"
_cell_formula_units_Z 18
_cell_length_a 11.939749
_cell_length_b 11.939749
_cell_length_c 7.562619
_cell_angle_alpha 90.000000
_cell_angle_beta 90.000000
_cell_angle_gamma 120.000000
_cell_volume 933.669662
_symmetry_space_group_name_H-M "P 32"
_symmetry_group_IT_number 145
_symmetry_cell_setting 'hexagonal'
loop_
_space_group_symop_operation_xyz
x,y,z
-y,x-y,2/3+z
-x+y,-x,1/3+z
loop_
_atom_site_type_symbol
_atom_site_label
_atom_site_fract_x
_atom_site_fract_y
_atom_site_fract_z
Si Si1 0.539412 0.844337 0.541660
Si Si2 0.793918 0.971589 0.732168
Si Si3 0.926759 0.184322 0.463633
Si Si4 0.461205 0.822878 0.160951
Si Si5 0.075770 0.482343 0.476863
Si Si6 0.872128 0.028340 0.112876
O O1 0.543790 0.884821 0.337944
O O2 0.433746 0.691335 0.547451
O O3 0.501297 0.931646 0.657865
O O4 0.666664 0.860734 0.636916
O O5 0.789543 0.007696 0.935884
O O6 0.832034 0.097012 0.615962
O O7 0.899584 0.924253 0.726375
O O8 0.968614 0.333332 0.470249
O O9 0.055110 0.173283 0.500848
O O10 0.871542 0.114345 0.275090
O O11 0.506619 0.721778 0.106313
O O12 0.461790 0.909469 0.998738
#
# Coordination Sequence:
#
# PCOD9574568 Si02
#       6
#     3   3   3   3   3   3
#     4  11  22  37  58  87 123 161 203 255 316 376
#     4  11  22  37  58  87 123 161 203 255 316 376
#     4  11  22  37  58  87 123 161 203 255 316 376
#     4  10  22  34  56  84 124 156 194 254 316 370
#     4  11  22  37  58  87 123 161 203 255 316 376
#     4  10  22  34  56  84 124 156 194 254 316 370
#
# _framework density 19.278766000000001
#
# number of rings (size 3 to 8) (size 9 to 14) (size 15 to 20)
#    0.000    1.333    6.667    0.000   18.667    0.000 
#    0.000    0.000    0.000    0.000    8.667    0.000 
#    0.000    0.000    0.000    0.000    0.000    0.000 
#
# Total GULP energy -100411.639608 kJ/mol
# GULP energy per Si atom -5578.424423 kJ/mol
# Density = 1.923489 g / cm^3
# Si number density = 19.278766 Si / 1000 Ang^3
#
#
#
# Elastic Constant Matrix: (Units=GPa)
#
#
# Indices 1 2 3 4 5 6 
#
# 1 37.4607 -7.0197 2.9651 2.9945 0.0002 0.0000
# 2 -7.0197 37.4607 2.9651 -2.9945 -0.0002 0.0000
# 3 2.9651 2.9651 121.0317 0.0000 0.0000 0.0000
# 4 2.9945 -2.9945 0.0000 19.2367 0.0000 -0.0002
# 5 0.0002 -0.0002 0.0000 0.0000 19.2367 2.9945
# 6 0.0000 0.0000 0.0000 -0.0002 2.9945 22.2402
#
#
#
# Elastic Compliance Matrix: (Units=1/GPa)
#
#
# Indices 1 2 3 4 5 6 
#
# 1 0.027986 0.005022 -0.000809 -0.003575 0.000000 0.000000
# 2 0.005022 0.027986 -0.000809 0.003575 0.000000 0.000000
# 3 -0.000809 -0.000809 0.008302 0.000000 0.000000 0.000000
# 4 -0.003575 0.003575 0.000000 0.053097 0.000000 0.000001
# 5 0.000000 0.000000 0.000000 0.000000 0.053097 -0.007149
# 6 0.000000 0.000000 0.000000 0.000001 -0.007149 0.045926
#
#
# Mechanical properties :
#
#
# Convention : Reuss Voigt Hill
#
# Bulk Modulus (GPa) = 14.06800 21.53045 17.79923
# Shear Modulus (GPa) = 21.43375 25.27889 23.35632
#
# Velocity S-wave (km/s) = 3.33795 3.62502 3.48444
# Velocity P-wave (km/s) = 4.70839 5.35847 5.04391
#
# Compressibility (1/GPa) = 0.07108329
#
# Stress axis : x y z
#
# Youngs Moduli (GPa) = 35.73274 35.73274 120.45409
#
# Poissons Ratio (x) = -0.17947 0.09740
# Poissons Ratio (y) = -0.17947 0.09740
# Poissons Ratio (z) = 0.02890 0.02890
#
# Static dielectric constant tensor:
#      x y z
#    x 1.697400 0.000000 0.000000 
#    y 0.000000 1.697400 0.000000 
#    z 0.000000 0.000000 1.739100 
# 
# From -- ./inp_files/314.got.cif
#   From: 2010.05.17/outbox.cif.g08.bks.cpg/sg145_cif.got.tgz:314.got - 2010.05.20 13:47:28.
