data_PCOD9574865
_publ_section_title
;
Structure prediction by ZEFSAII (Michael W. Deem and Ramdas Pophale) SiO2 
 PCOD9574865
Probable space group: P -3
;
_chemical_formula_sum "Si O2"
_cell_formula_units_Z 40
_cell_length_a 13.298238
_cell_length_b 13.298238
_cell_length_c 15.773068
_cell_angle_alpha 90.000000
_cell_angle_beta 90.000000
_cell_angle_gamma 120.000000
_cell_volume 2415.655561
_symmetry_space_group_name_H-M "P -3"
_symmetry_group_IT_number 147
_symmetry_cell_setting 'hexagonal'
loop_
_space_group_symop_operation_xyz
x,y,z
-y,x-y,z
-x+y,-x,z
-x,-y,-z
y,-x+y,-z
x-y,x,-z
loop_
_atom_site_type_symbol
_atom_site_label
_atom_site_fract_x
_atom_site_fract_y
_atom_site_fract_z
Si Si1 0.269104 0.134552 0.000000
Si Si2 0.333335 0.666668 0.102615
Si Si3 0.666666 0.333334 0.102617
Si Si4 0.139533 0.279216 0.313105
Si Si5 0.139533 0.860317 0.686895
Si Si6 0.134566 0.713425 0.157690
Si Si7 0.713424 0.134566 0.157690
Si Si8 0.724138 0.862068 0.500000
O O1 0.348594 0.142643 0.921313
O O2 0.189509 0.189509 0.976742
O O3 0.348595 0.205952 0.078687
O O4 0.218430 0.663538 0.137145
O O5 0.333334 0.666667 0.999999
O O6 0.663535 0.218428 0.137146
O O7 0.189183 0.189184 0.308105
O O8 0.206566 0.374134 0.241081
O O9 0.168806 0.334969 0.407757
O O10 1.000000 0.209585 0.301385
O O11 0.206567 0.832432 0.758919
O O12 0.168807 0.833837 0.592243
O O13 0.000000 0.614467 0.165965
O O14 0.804659 0.804659 0.497816
#
# Coordination Sequence:
#
# PCOD9574865 Si02
#       8
#     6   2   2   6   6   6   6   6
#     4  10  19  32  50  76 107 138 168 204 252 306
#     4  12  24  42  60  76  95 133 171 222 267 304
#     4  12  24  42  60  76  95 133 171 222 267 304
#     4   9  16  28  48  78 112 145 177 213 256 305
#     4   9  16  28  48  78 112 145 177 213 256 305
#     4  10  22  36  53  76 102 132 171 214 259 310
#     4  10  22  36  53  76 102 132 171 214 259 310
#     4   8  13  22  42  72 108 144 177 210 250 300
#
# _framework density 16.558651000000001
#
# number of rings (size 3 to 8) (size 9 to 14) (size 15 to 20)
#    0.000    2.400    1.500    1.500    0.000    5.400 
#    0.000    3.000    0.000    1.800    0.000    8.400 
#    0.000    0.000    0.000    0.000    0.000    0.000 
#
# Total GULP energy -222840.548117 kJ/mol
# GULP energy per Si atom -5571.013703 kJ/mol
# Density = 1.652096 g / cm^3
# Si number density = 16.558651 Si / 1000 Ang^3
#
#
#
# Elastic Constant Matrix: (Units=GPa)
#
#
# Indices 1 2 3 4 5 6 
#
# 1 65.0354 34.8808 35.4362 -0.0007 -4.3821 0.0003
# 2 34.8808 65.0359 35.4365 -0.0002 4.3824 -0.0001
# 3 35.4362 35.4365 135.9739 0.0000 0.0000 0.0000
# 4 -0.0007 -0.0002 0.0000 12.1642 -0.0002 4.3820
# 5 -4.3821 4.3824 0.0000 -0.0002 12.1638 0.0004
# 6 0.0003 -0.0001 0.0000 4.3820 0.0004 15.0777
#
#
#
# Elastic Compliance Matrix: (Units=1/GPa)
#
#
# Indices 1 2 3 4 5 6 
#
# 1 0.024659 -0.012381 -0.003200 0.000002 0.013344 -0.000001
# 2 -0.012381 0.024659 -0.003200 -0.000001 -0.013345 0.000001
# 3 -0.003200 -0.003200 0.009022 0.000000 0.000000 0.000000
# 4 0.000002 -0.000001 0.000000 0.091822 0.000003 -0.026686
# 5 0.013344 -0.013345 0.000000 0.000003 0.091826 -0.000003
# 6 -0.000001 0.000001 0.000000 -0.026686 -0.000003 0.074079
#
#
# Mechanical properties :
#
#
# Convention : Reuss Voigt Hill
#
# Bulk Modulus (GPa) = 48.12541 53.06136 50.59339
# Shear Modulus (GPa) = 13.86747 18.56725 16.21736
#
# Velocity S-wave (km/s) = 2.89706 3.35222 3.13291
# Velocity P-wave (km/s) = 6.34959 6.86274 6.61115
#
# Compressibility (1/GPa) = 0.02077904
#
# Stress axis : x y z
#
# Youngs Moduli (GPa) = 40.55248 40.55255 110.83831
#
# Poissons Ratio (x) = 0.50210 0.35465
# Poissons Ratio (y) = 0.50209 0.35466
# Poissons Ratio (z) = 0.12976 0.12976
#
# Static dielectric constant tensor:
#      x y z
#    x 1.531380 0.000000 0.000000 
#    y 0.000000 1.531380 0.000000 
#    z 0.000000 0.000000 1.591800 
# 
# From -- ./inp_files/1052.got.cif
#   From: 2010.05.17/outbox.cif.g08.bks.cpg/sg147_cif.got.tgz:1052.got - 2010.05.20 13:49:32.
