data_PCOD9574921
_publ_section_title
;
Structure prediction by ZEFSAII (Michael W. Deem and Ramdas Pophale) SiO2 
 PCOD9574921
Probable space group: P -3
;
_chemical_formula_sum "Si O2"
_cell_formula_units_Z 42
_cell_length_a 8.807631
_cell_length_b 8.807631
_cell_length_c 29.635991
_cell_angle_alpha 90.000000
_cell_angle_beta 90.000000
_cell_angle_gamma 120.000000
_cell_volume 1990.986470
_symmetry_space_group_name_H-M "P -3"
_symmetry_group_IT_number 147
_symmetry_cell_setting 'hexagonal'
loop_
_space_group_symop_operation_xyz
x,y,z
-y,x-y,z
-x+y,-x,z
-x,-y,-z
y,-x+y,-z
x-y,x,-z
loop_
_atom_site_type_symbol
_atom_site_label
_atom_site_fract_x
_atom_site_fract_y
_atom_site_fract_z
Si Si1 0.335195 0.324218 0.481029
Si Si2 0.639011 0.990089 0.159392
Si Si3 0.450544 0.549456 0.750000
Si Si4 0.684283 0.672164 0.124431
Si Si5 0.648922 0.009911 0.659392
Si Si6 0.012118 0.327836 0.624431
Si Si7 0.989023 0.324218 0.018971
O O1 0.500000 0.500000 0.500000
O O2 0.165228 0.335643 0.491603
O O3 0.318167 0.273625 0.428298
O O4 0.682956 0.838837 0.146801
O O5 0.491709 0.980232 0.126204
O O6 0.547012 0.983904 0.207565
O O7 0.814874 0.177024 0.151633
O O8 0.518693 0.759347 0.750000
O O9 0.452988 0.436892 0.707565
O O10 0.726375 0.681833 0.071702
O O11 0.637850 0.822976 0.651633
O O12 0.844119 0.161163 0.646801
O O13 0.511477 0.019768 0.626204
O O14 0.170414 0.335643 0.008397
O O15 0.000000 0.500000 0.000000
#
# Coordination Sequence:
#
# PCOD9574921 Si02
#       7
#     6   6   6   6   6   6   6
#     4  12  25  43  67 100 143 191 241 295 350 417
#     4  12  25  45  73 105 142 184 236 296 353 430
#     4  10  20  48  72 100 132 172 224 280 358 414
#     4  12  24  44  70 103 141 190 240 291 356 418
#     4  12  25  45  73 105 142 184 236 296 353 430
#     4  12  24  44  70 103 141 190 240 291 356 418
#     4  12  25  43  67 100 143 191 241 295 350 417
#
# _framework density 21.095068999999999
#
# number of rings (size 3 to 8) (size 9 to 14) (size 15 to 20)
#    0.286    0.000    2.857    7.714    0.000    1.143 
#    0.000    0.000    0.000    0.000    0.000    0.000 
#    0.000    0.000    0.000    0.000    0.000    0.000 
#
# Total GULP energy -234267.635815 kJ/mol
# GULP energy per Si atom -5577.800853 kJ/mol
# Density = 2.104706 g / cm^3
# Si number density = 21.095069 Si / 1000 Ang^3
#
#
#
# Elastic Constant Matrix: (Units=GPa)
#
#
# Indices 1 2 3 4 5 6 
#
# 1 78.8949 -5.6746 -9.2641 0.0000 4.9044 0.0000
# 2 -5.6746 78.8949 -9.2641 0.0000 -4.9044 0.0000
# 3 -9.2641 -9.2641 127.7539 0.0000 0.0000 0.0000
# 4 0.0000 0.0000 0.0000 30.4505 0.0000 -4.9044
# 5 4.9044 -4.9044 0.0000 0.0000 30.4505 0.0000
# 6 0.0000 0.0000 0.0000 -4.9044 0.0000 42.2847
#
#
#
# Elastic Compliance Matrix: (Units=1/GPa)
#
#
# Indices 1 2 3 4 5 6 
#
# 1 0.012981 0.000931 0.001009 0.000000 -0.001941 0.000000
# 2 0.000931 0.012981 0.001009 0.000000 0.001941 0.000000
# 3 0.001009 0.001009 0.007974 0.000000 0.000000 0.000000
# 4 0.000000 0.000000 0.000000 0.033465 0.000000 0.003881
# 5 -0.001941 0.001941 0.000000 0.000000 0.033465 0.000000
# 6 0.000000 0.000000 0.000000 0.003881 0.000000 0.024099
#
#
# Mechanical properties :
#
#
# Convention : Reuss Voigt Hill
#
# Bulk Modulus (GPa) = 25.10371 26.34871 25.72621
# Shear Modulus (GPa) = 37.77976 41.28692 39.53334
#
# Velocity S-wave (km/s) = 4.23653 4.42881 4.33373
# Velocity P-wave (km/s) = 5.98807 6.21852 6.10438
#
# Compressibility (1/GPa) = 0.03983476
#
# Stress axis : x y z
#
# Youngs Moduli (GPa) = 77.03454 77.03454 125.40964
#
# Poissons Ratio (x) = -0.07176 -0.12652
# Poissons Ratio (y) = -0.07176 -0.12652
# Poissons Ratio (z) = -0.07772 -0.07772
#
# Static dielectric constant tensor:
#      x y z
#    x 1.747000 0.000000 0.000000 
#    y 0.000000 1.747000 0.000000 
#    z 0.000000 0.000000 1.879370 
# 
# From -- ./inp_files/1129.got.cif
#   From: 2010.05.17/outbox.cif.g08.bks.cpg/sg147_cif.got.tgz:1129.got - 2010.05.20 13:49:32.
