data_PCOD9574149
_publ_section_title
;
Structure prediction by ZEFSAII (Michael W. Deem and Ramdas Pophale) SiO2 
 PCOD9574149
Probable space group: I 41/A C D
;
_chemical_formula_sum "Si O2"
_cell_formula_units_Z 136
_cell_length_a 15.155565
_cell_length_b 15.155565
_cell_length_c 26.322961
_cell_angle_alpha 90.000000
_cell_angle_beta 90.000000
_cell_angle_gamma 90.000000
_cell_volume 6046.151196
_symmetry_space_group_name_H-M "I 41/A C D"
_symmetry_group_IT_number 142
_space_group.IT_coordinate_system_code '2'
_symmetry_cell_setting 'tetragonal'
loop_
_space_group_symop_operation_xyz
x,y,z
1/4-y,3/4+x,1/4+z
-x,1/2-y,z
1/4+y,1/4-x,3/4+z
x,-y,1/2-z
1/2-x,y,-z
3/4+y,1/4+x,1/4-z
1/4-y,1/4-x,1/4-z
-x,-y,-z
3/4+y,1/4-x,3/4-z
x,1/2+y,-z
3/4-y,3/4+x,1/4-z
-x,y,1/2+z
1/2+x,-y,z
1/4-y,3/4-x,3/4+z
3/4+y,3/4+x,3/4+z
1/2+x,1/2+y,1/2+z
3/4-y,1/4+x,3/4+z
1/2-x,-y,1/2+z
3/4+y,3/4-x,1/4+z
1/2+x,1/2-y,-z
-x,1/2+y,1/2-z
1/4+y,3/4+x,3/4-z
3/4-y,3/4-x,3/4-z
1/2-x,1/2-y,1/2-z
1/4+y,3/4-x,1/4-z
1/2+x,y,1/2-z
1/4-y,1/4+x,3/4-z
1/2-x,1/2+y,z
x,1/2-y,1/2+z
3/4-y,1/4-x,1/4+z
1/4+y,1/4+x,1/4+z
loop_
_atom_site_type_symbol
_atom_site_label
_atom_site_fract_x
_atom_site_fract_y
_atom_site_fract_z
Si Si1 0.777959 0.622773 0.133282
Si Si2 0.911171 0.401812 0.773234
Si Si3 0.000000 0.750000 0.875000
Si Si4 0.150372 0.364453 0.481661
Si Si5 0.006338 0.084842 0.551109
O O1 0.696225 0.553776 0.125000
O O2 0.831221 0.635478 0.081407
O O3 0.844550 0.592111 0.176239
O O4 0.740624 0.712469 0.159654
O O5 0.904908 0.500000 0.750000
O O6 0.854632 0.334355 0.739499
O O7 0.012669 0.370288 0.769933
O O8 0.917172 0.751027 0.838402
O O9 0.250000 0.365566 0.500000
O O10 0.083535 0.417309 0.518526
#
# Coordination Sequence:
#
# PCOD9574149 Si02
#       5
#    32  32   8  32  32
#     4  12  27  44  74 103 145 196 234 305 375 428
#     4  11  23  47  72 104 142 189 249 298 361 437
#     4  12  20  44  80 106 132 196 244 272 354 444
#     4  11  28  46  69 109 144 187 246 305 358 444
#     4  12  24  48  75 105 147 192 242 303 365 440
#
# _framework density 22.493649000000001
#
# number of rings (size 3 to 8) (size 9 to 14) (size 15 to 20)
#    0.000    0.471    5.882    0.706    9.882    1.882 
#    0.000    0.000    0.000    0.000    0.000    0.000 
#    0.000    0.000    0.000    0.000    0.000    0.000 
#
# Total GULP energy -380434.268906 kJ/mol
# GULP energy per Si atom -5594.621602 kJ/mol
# Density = 2.244245 g / cm^3
# Si number density = 22.493649 Si / 1000 Ang^3
#
#
#
# Elastic Constant Matrix: (Units=GPa)
#
#
# Indices 1 2 3 4 5 6 
#
# 1 87.5423 19.2660 41.5085 0.0000 0.0000 0.0000
# 2 19.2660 87.5410 41.5081 0.0000 0.0000 0.0000
# 3 41.5085 41.5081 187.8989 0.0000 0.0000 0.0000
# 4 0.0000 0.0000 0.0000 5.5916 0.0000 0.0000
# 5 0.0000 0.0000 0.0000 0.0000 5.5858 0.0000
# 6 0.0000 0.0000 0.0000 0.0000 0.0000 -66.4629
#
#
#
# Elastic Compliance Matrix: (Units=1/GPa)
#
#
# Indices 1 2 3 4 5 6 
#
# 1 0.012975 -0.001672 -0.002497 0.000000 0.000000 0.000000
# 2 -0.001672 0.012975 -0.002497 0.000000 0.000000 0.000000
# 3 -0.002497 -0.002497 0.006425 0.000000 0.000000 0.000000
# 4 0.000000 0.000000 0.000000 0.178839 0.000000 0.000000
# 5 0.000000 0.000000 0.000000 0.000000 0.179024 0.000000
# 6 0.000000 0.000000 0.000000 0.000000 0.000000 -0.015046
#
#
# Mechanical properties :
#
#
# Convention : Reuss Voigt Hill
#
# Bulk Modulus (GPa) = 52.50984 63.06080 57.78532
# Shear Modulus (GPa) = 12.66235 6.32290 9.49262
#
# Velocity S-wave (km/s) = 2.37519 1.67841 2.05653
# Velocity P-wave (km/s) = 5.56031 5.64375 5.60218
#
# Compressibility (1/GPa) = 0.01904405
#
# Stress axis : x y z
#
# Youngs Moduli (GPa) = 77.07205 77.07090 155.63647
#
# Poissons Ratio (x) = 0.12883 0.38863
# Poissons Ratio (y) = 0.12883 0.38863
# Poissons Ratio (z) = 0.19245 0.19245
#
# Static dielectric constant tensor:
#      x y z
#    x 1.898130 0.000000 0.000000 
#    y 0.000000 1.898130 0.000000 
#    z 0.000000 0.000000 1.786720 
# 
# From -- ./inp_files/8770.got.cif
#   From: 2010.05.17/outbox.cif.g08.bks.cpg/sg142_5_cif.got.tgz:8770.got - 2010.05.20 13:39:18.
