data_PCOD9574500
_publ_section_title
;
Structure prediction by ZEFSAII (Michael W. Deem and Ramdas Pophale) SiO2 
 PCOD9574500
Probable space group: P 31
;
_chemical_formula_sum "Si O2"
_cell_formula_units_Z 15
_cell_length_a 9.190673
_cell_length_b 9.190673
_cell_length_c 7.505172
_cell_angle_alpha 90.000000
_cell_angle_beta 90.000000
_cell_angle_gamma 120.000000
_cell_volume 549.017149
_symmetry_space_group_name_H-M "P 31"
_symmetry_group_IT_number 144
_symmetry_cell_setting 'hexagonal'
loop_
_space_group_symop_operation_xyz
x,y,z
-y,x-y,1/3+z
-x+y,-x,2/3+z
loop_
_atom_site_type_symbol
_atom_site_label
_atom_site_fract_x
_atom_site_fract_y
_atom_site_fract_z
Si Si1 0.133754 0.674721 0.581080
Si Si2 0.125697 0.658616 0.975782
Si Si3 0.862562 0.894798 0.069640
Si Si4 0.333334 0.028371 0.111765
Si Si5 0.561466 0.195896 0.820554
O O1 0.068256 0.666670 0.778430
O O2 0.333336 0.737212 0.611765
O O3 0.127590 0.811836 0.458143
O O4 0.015707 0.490866 0.502713
O O5 0.982419 0.521499 0.098718
O O6 0.191505 0.842470 0.054151
O O7 0.960488 0.922000 0.255322
O O8 0.272922 0.083612 0.286190
O O9 0.393746 0.144021 0.937339
O O10 0.588666 0.293822 0.634873
#
# Coordination Sequence:
#
# PCOD9574500 Si02
#       5
#     3   3   3   3   3
#     4  12  24  50  87 124 158 215 293 351 402 488
#     4  12  24  50  87 124 158 215 293 351 402 488
#     4  12  32  56  80 127 180 226 271 350 440 515
#     4  12  26  52  90 118 164 218 290 346 406 498
#     4  12  32  56  80 127 180 226 271 350 440 515
#
# _framework density 27.321553000000002
#
# number of rings (size 3 to 8) (size 9 to 14) (size 15 to 20)
#    0.000    0.000    6.000    1.200    5.600    9.600 
#    0.000    0.000    0.000    0.000    0.000    0.000 
#    0.000    0.000    0.000    0.000    0.000    0.000 
#
# Total GULP energy -84159.558906 kJ/mol
# GULP energy per Si atom -5610.637260 kJ/mol
# Density = 2.725937 g / cm^3
# Si number density = 27.321553 Si / 1000 Ang^3
#
#
#
# Elastic Constant Matrix: (Units=GPa)
#
#
# Indices 1 2 3 4 5 6 
#
# 1 85.1168 -8.2102 29.5910 3.4224 -0.0005 0.0000
# 2 -8.2102 85.1168 29.5910 -3.4224 0.0005 0.0000
# 3 29.5910 29.5910 226.1055 0.0000 0.0000 0.0000
# 4 3.4224 -3.4224 0.0000 59.6164 0.0000 0.0005
# 5 -0.0005 0.0005 0.0000 0.0000 59.6164 3.4224
# 6 0.0000 0.0000 0.0000 0.0005 3.4224 46.6635
#
#
#
# Elastic Compliance Matrix: (Units=1/GPa)
#
#
# Indices 1 2 3 4 5 6 
#
# 1 0.012610 0.001849 -0.001892 -0.000618 0.000000 0.000000
# 2 0.001849 0.012610 -0.001892 0.000618 0.000000 0.000000
# 3 -0.001892 -0.001892 0.004918 0.000000 0.000000 0.000000
# 4 -0.000618 0.000618 0.000000 0.016845 0.000000 0.000000
# 5 0.000000 0.000000 0.000000 0.000000 0.016845 -0.001235
# 6 0.000000 0.000000 0.000000 0.000000 -0.001235 0.021521
#
#
# Mechanical properties :
#
#
# Convention : Reuss Voigt Hill
#
# Bulk Modulus (GPa) = 38.07088 55.36473 46.71781
# Shear Modulus (GPa) = 51.03411 56.20374 53.61893
#
# Velocity S-wave (km/s) = 4.32662 4.54047 4.43483
# Velocity P-wave (km/s) = 6.23892 6.91346 6.58483
#
# Compressibility (1/GPa) = 0.02626680
#
# Stress axis : x y z
#
# Youngs Moduli (GPa) = 79.30441 79.30441 203.33441
#
# Poissons Ratio (x) = -0.14666 0.38476
# Poissons Ratio (y) = -0.14666 0.38476
# Poissons Ratio (z) = 0.15007 0.15007
#
# Static dielectric constant tensor:
#      x y z
#    x 2.271240 0.000000 0.000000 
#    y 0.000000 2.271240 0.000000 
#    z 0.000000 0.000000 2.062910 
# 
# From -- ./inp_files/253.got.cif
#   From: 2010.05.17/outbox.cif.g08.bks.cpg/sg144_cif.got.tgz:253.got - 2010.05.20 13:46:34.
