data_PCOD9574670
_publ_section_title
;
Structure prediction by ZEFSAII (Michael W. Deem and Ramdas Pophale) SiO2 
 PCOD9574670
Probable space group: R 3
;
_chemical_formula_sum "Si O2"
_cell_formula_units_Z 54
_cell_length_a 20.087130
_cell_length_b 20.087130
_cell_length_c 8.181574
_cell_angle_alpha 90.000000
_cell_angle_beta 90.000000
_cell_angle_gamma 120.000000
_cell_volume 2858.928375
_symmetry_space_group_name_H-M "R 3"
_symmetry_group_IT_number 146
_symmetry_cell_setting 'hexagonal'
loop_
_space_group_symop_operation_xyz
x,y,z
-y,x-y,z
-x+y,-x,z
2/3+x,1/3+y,1/3+z
2/3-y,1/3+x-y,1/3+z
2/3-x+y,1/3-x,1/3+z
1/3+x,2/3+y,2/3+z
1/3-y,2/3+x-y,2/3+z
1/3-x+y,2/3-x,2/3+z
loop_
_atom_site_type_symbol
_atom_site_label
_atom_site_fract_x
_atom_site_fract_y
_atom_site_fract_z
Si Si1 0.101207 0.330714 0.258240
Si Si2 0.112574 0.636282 0.528914
Si Si3 0.848825 0.274792 0.259152
Si Si4 0.264819 0.245356 0.195306
Si Si5 0.938597 0.744709 0.538685
Si Si6 0.080071 0.330817 0.605408
O O1 0.186582 0.397438 0.219007
O O2 0.101915 0.301429 0.441835
O O3 0.040206 0.360640 0.261476
O O4 0.081263 0.272922 0.108863
O O5 0.139668 0.574128 0.554101
O O6 0.128815 0.684897 0.694941
O O7 0.140709 0.680933 0.360233
O O8 0.018944 0.595771 0.520950
O O9 0.910479 0.365081 0.253180
O O10 0.878695 0.240456 0.114341
O O11 0.226066 0.198486 0.359444
O O12 0.267529 0.327543 0.213366
#
# Coordination Sequence:
#
# PCOD9574670 Si02
#       6
#     9   9   9   9   9   9
#     4  11  19  33  51  71 104 140 178 218 270 320
#     4  11  20  30  46  71 104 145 166 201 258 324
#     4  11  19  33  51  71 104 140 178 218 270 320
#     4  10  18  29  42  64 102 134 171 194 242 318
#     4  11  20  30  46  71 104 145 166 201 258 324
#     4  10  22  35  52  76 102 138 183 228 274 312
#
# _framework density 18.888196000000001
#
# number of rings (size 3 to 8) (size 9 to 14) (size 15 to 20)
#    0.000    1.333   10.000    0.000    4.667    0.000 
#    0.000    0.000    0.000    0.000    0.000    0.000 
#   13.333    0.000   46.667    1.167    0.000    0.000 
#
# Total GULP energy -100253.688641 kJ/mol
# GULP energy per Si atom -5569.649369 kJ/mol
# Density = 1.884521 g / cm^3
# Si number density = 18.888196 Si / 1000 Ang^3
#
#
#
# Elastic Constant Matrix: (Units=GPa)
#
#
# Indices 1 2 3 4 5 6 
#
# 1 21.9352 -0.8335 1.0721 0.1741 -2.7011 0.0003
# 2 -0.8335 21.9300 1.0669 -0.1753 2.7044 -0.0007
# 3 1.0721 1.0669 136.9940 0.0000 0.0104 0.0001
# 4 0.1741 -0.1753 0.0000 6.5687 -0.0004 2.7043
# 5 -2.7011 2.7044 0.0104 -0.0004 6.5712 0.1738
# 6 0.0003 -0.0007 0.0001 2.7043 0.1738 11.3831
#
#
#
# Elastic Compliance Matrix: (Units=1/GPa)
#
#
# Indices 1 2 3 4 5 6 
#
# 1 0.048058 -0.000634 -0.000373 -0.001289 0.020016 -0.000001
# 2 -0.000634 0.048076 -0.000368 0.001299 -0.020046 0.000001
# 3 -0.000373 -0.000368 0.007305 0.000000 -0.000013 0.000000
# 4 -0.001289 0.001299 0.000000 0.168817 0.000007 -0.040106
# 5 0.020016 -0.020046 -0.000013 0.000007 0.168724 -0.002580
# 6 -0.000001 0.000001 0.000000 -0.040106 -0.002580 0.097417
#
#
# Mechanical properties :
#
#
# Convention : Reuss Voigt Hill
#
# Bulk Modulus (GPa) = 9.93146 20.38555 15.15850
# Shear Modulus (GPa) = 8.70004 16.87485 12.78745
#
# Velocity S-wave (km/s) = 2.14850 2.99223 2.60476
# Velocity P-wave (km/s) = 3.37997 4.77013 4.13390
#
# Compressibility (1/GPa) = 0.10069015
#
# Stress axis : x y z
#
# Youngs Moduli (GPa) = 20.80819 20.80041 136.88552
#
# Poissons Ratio (x) = 0.01319 0.05101
# Poissons Ratio (y) = 0.01319 0.05036
# Poissons Ratio (z) = 0.00775 0.00765
#
# Static dielectric constant tensor:
#      x y z
#    x 1.668590 0.000000 0.000000 
#    y 0.000000 1.668590 0.000000 
#    z 0.000000 0.000000 1.722370 
# 
# From -- ./inp_files/758.got.cif
#   From: 2010.05.17/outbox.cif.g08.bks.cpg/sg146_cif.got.tgz:758.got - 2010.05.20 13:48:23.
