data_PCOD9574561
_publ_section_title
;
Structure prediction by ZEFSAII (Michael W. Deem and Ramdas Pophale) SiO2 
 PCOD9574561
Probable space group: P 32
;
_chemical_formula_sum "Si O2"
_cell_formula_units_Z 18
_cell_length_a 11.806847
_cell_length_b 11.806847
_cell_length_c 7.028395
_cell_angle_alpha 90.000000
_cell_angle_beta 90.000000
_cell_angle_gamma 120.000000
_cell_volume 848.505504
_symmetry_space_group_name_H-M "P 32"
_symmetry_group_IT_number 145
_symmetry_cell_setting 'hexagonal'
loop_
_space_group_symop_operation_xyz
x,y,z
-y,x-y,2/3+z
-x+y,-x,1/3+z
loop_
_atom_site_type_symbol
_atom_site_label
_atom_site_fract_x
_atom_site_fract_y
_atom_site_fract_z
Si Si1 0.673159 0.749276 0.489730
Si Si2 0.186199 0.706281 0.866664
Si Si3 0.470712 0.096724 0.425649
Si Si4 0.182103 0.491242 0.149821
Si Si5 0.387237 0.280450 0.619480
Si Si6 0.093353 0.089672 0.698708
O O1 0.592838 0.747217 0.306082
O O2 0.648239 0.609098 0.559430
O O3 0.614422 0.793012 0.667688
O O4 0.819862 0.861176 0.458102
O O5 0.246317 0.722673 0.658197
O O6 0.032165 0.657573 0.851075
O O7 0.197710 0.606662 0.011048
O O8 0.444897 0.210077 0.490725
O O9 0.618514 0.127389 0.415626
O O10 0.391517 0.967425 0.556773
O O11 0.251033 0.168289 0.711121
O O12 0.044543 0.070845 0.482044
#
# Coordination Sequence:
#
# PCOD9574561 Si02
#       6
#     3   3   3   3   3   3
#     4   9  22  39  62 102 134 172 230 274 358 412
#     4  10  21  42  68  98 137 177 229 286 351 419
#     4   9  21  45  64  96 138 177 237 280 345 422
#     4   9  22  40  66  97 137 173 221 283 339 422
#     4  10  22  43  69  98 135 186 236 285 351 425
#     4  11  24  41  73 105 139 177 231 300 360 418
#
# _framework density 21.213768000000002
#
# number of rings (size 3 to 8) (size 9 to 14) (size 15 to 20)
#    1.000    1.333    0.000    1.000    4.667    4.000 
#    3.000    0.000    3.667    0.000    0.000    0.000 
#    0.000    0.000    0.000    0.000    0.000    0.000 
#
# Total GULP energy -100286.578662 kJ/mol
# GULP energy per Si atom -5571.476592 kJ/mol
# Density = 2.116548 g / cm^3
# Si number density = 21.213768 Si / 1000 Ang^3
#
#
#
# Elastic Constant Matrix: (Units=GPa)
#
#
# Indices 1 2 3 4 5 6 
#
# 1 85.1783 30.9955 34.7123 -0.4769 7.6696 0.0000
# 2 30.9955 85.1783 34.7123 0.4769 -7.6696 0.0000
# 3 34.7123 34.7123 91.0649 0.0000 0.0000 0.0000
# 4 -0.4769 0.4769 0.0000 17.6750 0.0000 -7.6696
# 5 7.6696 -7.6696 0.0000 0.0000 17.6750 -0.4769
# 6 0.0000 0.0000 0.0000 -7.6696 -0.4769 27.0914
#
#
#
# Elastic Compliance Matrix: (Units=1/GPa)
#
#
# Indices 1 2 3 4 5 6 
#
# 1 0.016100 -0.004953 -0.004249 0.000568 -0.009135 0.000000
# 2 -0.004953 0.016100 -0.004249 -0.000568 0.009135 0.000000
# 3 -0.004249 -0.004249 0.014220 0.000000 0.000000 0.000000
# 4 0.000568 -0.000568 0.000000 0.064536 0.000000 0.018270
# 5 -0.009135 0.009135 0.000000 0.000000 0.064536 0.001136
# 6 0.000000 0.000000 0.000000 0.018270 0.001136 0.042104
#
#
# Mechanical properties :
#
#
# Convention : Reuss Voigt Hill
#
# Bulk Modulus (GPa) = 51.23388 51.36241 51.29815
# Shear Modulus (GPa) = 19.92009 23.22170 21.57090
#
# Velocity S-wave (km/s) = 3.06766 3.31214 3.19224
# Velocity P-wave (km/s) = 6.06227 6.23630 6.14990
#
# Compressibility (1/GPa) = 0.01951833
#
# Stress axis : x y z
#
# Youngs Moduli (GPa) = 62.11346 62.11346 70.32105
#
# Poissons Ratio (x) = 0.30762 0.29880
# Poissons Ratio (y) = 0.30762 0.29880
# Poissons Ratio (z) = 0.26392 0.26392
#
# Static dielectric constant tensor:
#      x y z
#    x 1.814150 0.000000 0.000000 
#    y 0.000000 1.814150 0.000000 
#    z 0.000000 0.000000 1.779190 
# 
# From -- ./inp_files/347.got.cif
#   From: 2010.05.17/outbox.cif.g08.bks.cpg/sg145_cif.got.tgz:347.got - 2010.05.20 13:47:28.
