data_PCOD9574580
_publ_section_title
;
Structure prediction by ZEFSAII (Michael W. Deem and Ramdas Pophale) SiO2 
 PCOD9574580
Probable space group: P 32
;
_chemical_formula_sum "Si O2"
_cell_formula_units_Z 24
_cell_length_a 8.766194
_cell_length_b 8.766194
_cell_length_c 15.133425
_cell_angle_alpha 90.000000
_cell_angle_beta 90.000000
_cell_angle_gamma 120.000000
_cell_volume 1007.140396
_symmetry_space_group_name_H-M "P 32"
_symmetry_group_IT_number 145
_symmetry_cell_setting 'hexagonal'
loop_
_space_group_symop_operation_xyz
x,y,z
-y,x-y,2/3+z
-x+y,-x,1/3+z
loop_
_atom_site_type_symbol
_atom_site_label
_atom_site_fract_x
_atom_site_fract_y
_atom_site_fract_z
Si Si1 0.202851 0.000824 0.418880
Si Si2 0.957055 0.855143 0.112809
Si Si3 0.648114 0.154841 0.086933
Si Si4 0.433603 0.662696 0.806945
Si Si5 0.709511 0.353584 0.260921
Si Si6 0.602893 0.738102 0.349358
Si Si7 0.075171 0.698352 0.271315
Si Si8 0.402397 0.991382 0.827383
O O1 0.324380 0.946785 0.473844
O O2 0.138114 0.855675 0.341285
O O3 0.042520 0.990846 0.472558
O O4 0.310394 0.205527 0.391321
O O5 0.091808 0.882401 0.035453
O O6 0.006940 0.765291 0.189868
O O7 0.750359 0.722774 0.097276
O O8 0.677526 0.201788 0.191042
O O9 0.445456 0.015621 0.062221
O O10 0.706508 0.322601 0.022374
O O11 0.314751 0.542316 0.727290
O O12 0.335938 0.560623 0.896257
O O13 0.463154 0.857657 0.793372
O O14 0.618652 0.446697 0.204181
O O15 0.904175 0.507997 0.288956
O O16 0.598480 0.712461 0.245660
#
# Coordination Sequence:
#
# PCOD9574580 Si02
#       8
#     3   3   3   3   3   3   3   3
#     4  12  24  41  67 101 127 178 234 277 340 426
#     4  10  22  41  67  92 131 173 220 273 345 409
#     4  11  24  42  69 100 134 175 235 277 350 414
#     4  11  23  41  67  93 134 169 226 277 347 398
#     4  10  23  44  66 100 134 180 224 287 348 413
#     4  10  23  44  65  94 135 171 217 285 345 406
#     4  10  23  45  63  94 138 176 217 290 346 405
#     4  10  22  42  64  94 131 172 223 272 341 413
#
# _framework density 23.829847000000001
#
# number of rings (size 3 to 8) (size 9 to 14) (size 15 to 20)
#    0.000    1.500    1.250    3.750    7.000    1.000 
#    2.250    6.250    0.000    0.000    0.000    0.000 
#    0.000    0.000    0.000    0.000    0.000    0.000 
#
# Total GULP energy -133978.240104 kJ/mol
# GULP energy per Si atom -5582.426671 kJ/mol
# Density = 2.377561 g / cm^3
# Si number density = 23.829847 Si / 1000 Ang^3
#
#
#
# Elastic Constant Matrix: (Units=GPa)
#
#
# Indices 1 2 3 4 5 6 
#
# 1 74.8479 18.9835 -5.7047 -2.2462 2.0152 0.0000
# 2 18.9835 74.8479 -5.7047 2.2462 -2.0152 0.0000
# 3 -5.7047 -5.7047 29.8658 0.0000 0.0000 0.0000
# 4 -2.2462 2.2462 0.0000 21.1418 0.0000 -2.0152
# 5 2.0152 -2.0152 0.0000 0.0000 21.1418 -2.2462
# 6 0.0000 0.0000 0.0000 -2.0152 -2.2462 27.9322
#
#
#
# Elastic Compliance Matrix: (Units=1/GPa)
#
#
# Indices 1 2 3 4 5 6 
#
# 1 0.014546 -0.003635 0.002084 0.001932 -0.001733 0.000000
# 2 -0.003635 0.014546 0.002084 -0.001932 0.001733 0.000000
# 3 0.002084 0.002084 0.034279 0.000000 0.000000 0.000000
# 4 0.001932 -0.001932 0.000000 0.048040 0.000000 0.003466
# 5 -0.001733 0.001733 0.000000 0.000000 0.048040 0.003863
# 6 0.000000 0.000000 0.000000 0.003466 0.003863 0.036362
#
#
# Mechanical properties :
#
#
# Convention : Reuss Voigt Hill
#
# Bulk Modulus (GPa) = 15.51894 21.63442 18.57668
# Shear Modulus (GPa) = 23.12392 25.50901 24.31646
#
# Velocity S-wave (km/s) = 3.11847 3.27534 3.19787
# Velocity P-wave (km/s) = 4.41508 4.83759 4.63116
#
# Compressibility (1/GPa) = 0.06443740
#
# Stress axis : x y z
#
# Youngs Moduli (GPa) = 68.74820 68.74820 29.17210
#
# Poissons Ratio (x) = 0.24990 -0.06080
# Poissons Ratio (y) = 0.24990 -0.06080
# Poissons Ratio (z) = -0.14328 -0.14328
#
# Static dielectric constant tensor:
#      x y z
#    x 1.960000 0.000000 0.000000 
#    y 0.000000 1.960000 0.000000 
#    z 0.000000 0.000000 1.913420 
# 
# From -- ./inp_files/865.got.cif
#   From: 2010.05.17/outbox.cif.g08.bks.cpg/sg145_cif.got.tgz:865.got - 2010.05.20 13:47:28.
