data_PCOD9574241
_publ_section_title
;
Structure prediction by ZEFSAII (Michael W. Deem and Ramdas Pophale) SiO2 
 PCOD9574241
Probable space group: I 41/A C D
;
_chemical_formula_sum "Si O2"
_cell_formula_units_Z 128
_cell_length_a 12.969428
_cell_length_b 12.969428
_cell_length_c 25.015958
_cell_angle_alpha 90.000000
_cell_angle_beta 90.000000
_cell_angle_gamma 90.000000
_cell_volume 4207.835799
_symmetry_space_group_name_H-M "I 41/A C D"
_symmetry_group_IT_number 142
_space_group.IT_coordinate_system_code '2'
_symmetry_cell_setting 'tetragonal'
loop_
_space_group_symop_operation_xyz
x,y,z
1/4-y,3/4+x,1/4+z
-x,1/2-y,z
1/4+y,1/4-x,3/4+z
x,-y,1/2-z
1/2-x,y,-z
3/4+y,1/4+x,1/4-z
1/4-y,1/4-x,1/4-z
-x,-y,-z
3/4+y,1/4-x,3/4-z
x,1/2+y,-z
3/4-y,3/4+x,1/4-z
-x,y,1/2+z
1/2+x,-y,z
1/4-y,3/4-x,3/4+z
3/4+y,3/4+x,3/4+z
1/2+x,1/2+y,1/2+z
3/4-y,1/4+x,3/4+z
1/2-x,-y,1/2+z
3/4+y,3/4-x,1/4+z
1/2+x,1/2-y,-z
-x,1/2+y,1/2-z
1/4+y,3/4+x,3/4-z
3/4-y,3/4-x,3/4-z
1/2-x,1/2-y,1/2-z
1/4+y,3/4-x,1/4-z
1/2+x,y,1/2-z
1/4-y,1/4+x,3/4-z
1/2-x,1/2+y,z
x,1/2-y,1/2+z
3/4-y,1/4-x,1/4+z
1/4+y,1/4+x,1/4+z
loop_
_atom_site_type_symbol
_atom_site_label
_atom_site_fract_x
_atom_site_fract_y
_atom_site_fract_z
Si Si1 0.365737 0.051651 0.929489
Si Si2 0.100356 0.125513 0.682824
Si Si3 0.629774 0.813529 0.442716
Si Si4 0.378505 0.915139 0.451850
O O1 0.366206 0.116206 0.875000
O O2 0.314629 0.993195 0.807734
O O3 0.406388 0.092567 0.985710
O O4 0.398462 0.931080 0.924811
O O5 0.076424 0.173577 0.625000
O O6 0.064074 0.142572 0.743618
O O7 0.220926 0.160004 0.684192
O O8 0.594985 0.696640 0.426648
O O9 0.752850 0.822414 0.430844
#
# Coordination Sequence:
#
# PCOD9574241 Si02
#       4
#    32  32  32  32
#     4   9  16  26  42  68 102 126 152 206 242 272
#     4   9  16  26  42  68 102 126 152 206 242 272
#     4   9  16  26  42  68  98 126 160 198 242 292
#     4   9  16  26  42  68  98 126 160 198 242 292
#
# _framework density 30.419436999999999
#
# number of rings (size 3 to 8) (size 9 to 14) (size 15 to 20)
#    0.000    3.000    0.000    9.000    0.000    0.000 
#    0.000    0.000    0.000    0.000    0.000  175.000 
#    0.000  189.000    0.000    0.000    0.000    0.000 
#
# Total GULP energy -356649.453322 kJ/mol
# GULP energy per Si atom -5572.647708 kJ/mol
# Density = 3.035020 g / cm^3
# Si number density = 30.419437 Si / 1000 Ang^3
#
#
#
# Elastic Constant Matrix: (Units=GPa)
#
#
# Indices 1 2 3 4 5 6 
#
# 1 181.3412 116.1874 35.9895 0.0000 0.0000 0.0000
# 2 116.1874 181.3429 35.9913 0.0000 0.0000 0.0000
# 3 35.9895 35.9913 275.5363 0.0000 0.0000 0.0000
# 4 0.0000 0.0000 0.0000 -26.5369 0.0000 0.0000
# 5 0.0000 0.0000 0.0000 0.0000 -26.5358 0.0000
# 6 0.0000 0.0000 0.0000 0.0000 0.0000 52.1095
#
#
#
# Elastic Compliance Matrix: (Units=1/GPa)
#
#
# Indices 1 2 3 4 5 6 
#
# 1 0.009409 -0.005939 -0.000453 0.000000 0.000000 0.000000
# 2 -0.005939 0.009409 -0.000453 0.000000 0.000000 0.000000
# 3 -0.000453 -0.000453 0.003748 0.000000 0.000000 0.000000
# 4 0.000000 0.000000 0.000000 -0.037683 0.000000 0.000000
# 5 0.000000 0.000000 0.000000 0.000000 -0.037685 0.000000
# 6 0.000000 0.000000 0.000000 0.000000 0.000000 0.019190
#
#
# Mechanical properties :
#
#
# Convention : Reuss Voigt Hill
#
# Bulk Modulus (GPa) = 112.66676 112.72855 112.69765
# Shear Modulus (GPa) = -294.77462 29.81084 -132.48189
#
# Velocity S-wave (km/s) = -9.85463 3.13388 -6.60653
# Velocity P-wave (km/s) = 9.61077 7.08756 4.58985
#
# Compressibility (1/GPa) = 0.00887573
#
# Stress axis : x y z
#
# Youngs Moduli (GPa) = 106.27635 106.27710 266.82918
#
# Poissons Ratio (x) = 0.63115 0.12095
# Poissons Ratio (y) = 0.63114 0.12098
# Poissons Ratio (z) = 0.04817 0.04818
#
# Static dielectric constant tensor:
#      x y z
#    x 2.414510 0.000000 0.000000 
#    y 0.000000 2.414510 0.000000 
#    z 0.000000 0.000000 2.383680 
# 
# From -- ./inp_files/7126.got.cif
#   From: 2010.05.17/outbox.cif.g08.bks.cpg/sg142_4_cif.got.tgz:7126.got - 2010.05.20 13:39:18.
