data_PCOD9574390
_publ_section_title
;
Structure prediction by ZEFSAII (Michael W. Deem and Ramdas Pophale) SiO2 
 PCOD9574390
Probable space group: P 31
;
_chemical_formula_sum "Si O2"
_cell_formula_units_Z 21
_cell_length_a 9.446577
_cell_length_b 9.446577
_cell_length_c 10.947697
_cell_angle_alpha 90.000000
_cell_angle_beta 90.000000
_cell_angle_gamma 120.000000
_cell_volume 846.062290
_symmetry_space_group_name_H-M "P 31"
_symmetry_group_IT_number 144
_symmetry_cell_setting 'hexagonal'
loop_
_space_group_symop_operation_xyz
x,y,z
-y,x-y,1/3+z
-x+y,-x,2/3+z
loop_
_atom_site_type_symbol
_atom_site_label
_atom_site_fract_x
_atom_site_fract_y
_atom_site_fract_z
Si Si1 0.817048 0.353684 0.625000
Si Si2 0.243167 0.657274 0.960732
Si Si3 0.304256 0.393654 0.045147
Si Si4 0.990161 0.148351 0.642250
Si Si5 0.985652 0.128006 0.140692
Si Si6 0.488785 0.276456 0.720952
Si Si7 0.586477 0.912751 0.879276
O O1 0.889213 0.238729 0.657442
O O2 0.629168 0.251338 0.663588
O O3 0.835071 0.413608 0.485027
O O4 0.922883 0.529255 0.690811
O O5 0.160469 0.679341 0.841280
O O6 0.429468 0.806388 0.966857
O O7 0.271305 0.503162 0.949891
O O8 0.135280 0.642243 0.078616
O O9 0.138917 0.222429 0.049132
O O10 0.077485 0.133114 0.762296
O O11 0.137912 0.270813 0.553669
O O12 0.883629 0.964718 0.591091
O O13 0.875087 0.214119 0.126693
O O14 0.420846 0.329892 0.605798
#
# Coordination Sequence:
#
# PCOD9574390 Si02
#       7
#     3   3   3   3   3   3   3
#     4  12  26  49  76 112 154 201 259 315 394 457
#     4  10  23  42  80 112 154 196 263 308 392 456
#     4  11  25  44  76 113 153 200 259 320 385 466
#     4  11  25  47  76 101 148 199 254 309 382 463
#     4  11  27  47  70 107 146 200 247 321 382 455
#     4  11  28  47  77 111 157 196 259 326 387 465
#     4  10  22  46  77 114 150 204 251 319 384 464
#
# _framework density 24.820867
#
# number of rings (size 3 to 8) (size 9 to 14) (size 15 to 20)
#    0.000    1.143    1.429    2.571    8.000    5.714 
#    0.000    0.000    0.000    0.000    0.000    0.000 
#    0.000    0.000    0.000    0.000    0.000    0.000 
#
# Total GULP energy -117498.247787 kJ/mol
# GULP energy per Si atom -5595.154657 kJ/mol
# Density = 2.476437 g / cm^3
# Si number density = 24.820867 Si / 1000 Ang^3
#
#
#
# Elastic Constant Matrix: (Units=GPa)
#
#
# Indices 1 2 3 4 5 6 
#
# 1 137.3668 60.6748 22.6965 -9.1826 -1.8701 0.0000
# 2 60.6748 137.3668 22.6965 9.1826 1.8701 0.0000
# 3 22.6965 22.6965 68.4805 0.0000 0.0000 0.0000
# 4 -9.1826 9.1826 0.0000 28.3333 0.0000 1.8701
# 5 -1.8701 1.8701 0.0000 0.0000 28.3333 -9.1826
# 6 0.0000 0.0000 0.0000 1.8701 -9.1826 38.3460
#
#
#
# Elastic Compliance Matrix: (Units=1/GPa)
#
#
# Indices 1 2 3 4 5 6 
#
# 1 0.009825 -0.004361 -0.001811 0.004597 0.000936 0.000000
# 2 -0.004361 0.009825 -0.001811 -0.004597 -0.000936 0.000000
# 3 -0.001811 -0.001811 0.015803 0.000000 0.000000 0.000000
# 4 0.004597 -0.004597 0.000000 0.038398 0.000000 -0.001873
# 5 0.000936 -0.000936 0.000000 0.000000 0.038398 0.009195
# 6 0.000000 0.000000 0.000000 -0.001873 0.009195 0.028372
#
#
# Mechanical properties :
#
#
# Convention : Reuss Voigt Hill
#
# Bulk Modulus (GPa) = 51.31398 61.70552 56.50975
# Shear Modulus (GPa) = 30.65940 34.81230 32.73585
#
# Velocity S-wave (km/s) = 3.51839 3.74911 3.63558
# Velocity P-wave (km/s) = 6.10115 6.60723 6.35923
#
# Compressibility (1/GPa) = 0.01948787
#
# Stress axis : x y z
#
# Youngs Moduli (GPa) = 101.77941 101.77941 63.27827
#
# Poissons Ratio (x) = 0.44382 0.11460
# Poissons Ratio (y) = 0.44382 0.11460
# Poissons Ratio (z) = 0.18433 0.18433
#
# Static dielectric constant tensor:
#      x y z
#    x 1.980200 0.000000 0.000000 
#    y 0.000000 1.980200 0.000000 
#    z 0.000000 0.000000 2.020330 
# 
# From -- ./inp_files/589.got.cif
#   From: 2010.05.17/outbox.cif.g08.bks.cpg/sg144_cif.got.tgz:589.got - 2010.05.20 13:46:34.
