data_PCOD9574725
_publ_section_title
;
Structure prediction by ZEFSAII (Michael W. Deem and Ramdas Pophale) SiO2 
 PCOD9574725
Probable space group: R 3
;
_chemical_formula_sum "Si O2"
_cell_formula_units_Z 60
_cell_length_a 16.254817
_cell_length_b 16.254817
_cell_length_c 11.120350
_cell_angle_alpha 90.000000
_cell_angle_beta 90.000000
_cell_angle_gamma 120.000000
_cell_volume 2544.563288
_symmetry_space_group_name_H-M "R 3"
_symmetry_group_IT_number 146
_symmetry_cell_setting 'hexagonal'
loop_
_space_group_symop_operation_xyz
x,y,z
-y,x-y,z
-x+y,-x,z
2/3+x,1/3+y,1/3+z
2/3-y,1/3+x-y,1/3+z
2/3-x+y,1/3-x,1/3+z
1/3+x,2/3+y,2/3+z
1/3-y,2/3+x-y,2/3+z
1/3-x+y,2/3-x,2/3+z
loop_
_atom_site_type_symbol
_atom_site_label
_atom_site_fract_x
_atom_site_fract_y
_atom_site_fract_z
Si Si1 0.781256 0.254193 0.258590
Si Si2 0.120944 0.564089 0.026366
Si Si3 0.086696 0.306705 0.150205
Si Si4 0.293593 0.067790 0.852510
Si Si5 0.333335 0.666667 0.032914
Si Si6 0.623753 0.042491 0.800128
Si Si7 0.111254 0.718859 0.633277
Si Si8 0.666668 0.333334 0.404796
O O1 0.858637 0.248258 0.345253
O O2 0.850471 0.324432 0.155623
O O3 0.693022 0.151397 0.224701
O O4 0.734577 0.299820 0.342821
O O5 0.114981 0.515443 0.899777
O O6 0.225497 0.599668 0.076267
O O7 0.109282 0.656672 0.028366
O O8 0.027438 0.484558 0.094528
O O9 0.197858 0.378697 0.172109
O O10 0.020119 0.347127 0.189831
O O11 0.280665 0.126387 0.963780
O O12 0.333334 0.666667 0.884025
O O13 0.698080 0.068527 0.906207
O O14 0.596623 0.937430 0.753309
#
# Coordination Sequence:
#
# PCOD9574725 Si02
#       8
#     9   9   9   9   3   9   9   3
#     4  11  23  42  67  98 135 180 235 299 355 426
#     4  11  23  40  64  96 132 179 227 288 353 422
#     4  11  22  40  63  98 134 175 229 292 350 414
#     4  11  24  40  61 100 136 176 221 288 360 423
#     4  12  24  42  69 102 139 179 235 303 360 421
#     4  10  21  41  63  95 130 183 236 279 349 427
#     4  10  22  39  66  90 132 180 225 288 349 428
#     4  12  21  42  69  99 136 176 250 297 360 403
#
# _framework density 23.579685999999999
#
# number of rings (size 3 to 8) (size 9 to 14) (size 15 to 20)
#    0.000    1.200    4.500    1.800    0.000    3.600 
#    0.000    0.000    0.000    0.000    0.000    0.000 
#    0.000    0.000    0.000    0.000    0.000    0.000 
#
# Total GULP energy -111484.610248 kJ/mol
# GULP energy per Si atom -5574.230512 kJ/mol
# Density = 2.352602 g / cm^3
# Si number density = 23.579686 Si / 1000 Ang^3
#
#
#
# Elastic Constant Matrix: (Units=GPa)
#
#
# Indices 1 2 3 4 5 6 
#
# 1 114.5825 39.3909 4.1357 -2.3825 0.2331 -0.0003
# 2 39.3909 114.5838 4.1365 2.3825 -0.2335 -0.0001
# 3 4.1357 4.1365 19.8362 0.0001 -0.0002 0.0002
# 4 -2.3825 2.3825 0.0001 23.4189 0.0000 -0.2333
# 5 0.2331 -0.2335 -0.0002 0.0000 23.4189 -2.3827
# 6 -0.0003 -0.0001 0.0002 -0.2333 -2.3827 37.5955
#
#
#
# Elastic Compliance Matrix: (Units=1/GPa)
#
#
# Indices 1 2 3 4 5 6 
#
# 1 0.009977 -0.003409 -0.001369 0.001362 -0.000133 0.000000
# 2 -0.003409 0.009977 -0.001370 -0.001362 0.000133 0.000000
# 3 -0.001369 -0.001370 0.050984 0.000000 0.000000 0.000000
# 4 0.001362 -0.001362 0.000000 0.042980 0.000000 0.000267
# 5 -0.000133 0.000133 0.000000 0.000000 0.042980 0.002724
# 6 0.000000 0.000000 0.000000 0.000267 0.002724 0.026773
#
#
# Mechanical properties :
#
#
# Convention : Reuss Voigt Hill
#
# Bulk Modulus (GPa) = 17.05260 38.25875 27.65567
# Shear Modulus (GPa) = 23.20012 30.30928 26.75470
#
# Velocity S-wave (km/s) = 3.14013 3.58913 3.37211
# Velocity P-wave (km/s) = 4.51606 5.78242 5.18802
#
# Compressibility (1/GPa) = 0.05864208
#
# Stress axis : x y z
#
# Youngs Moduli (GPa) = 100.22733 100.22816 19.61403
#
# Poissons Ratio (x) = 0.34169 0.02686
# Poissons Ratio (y) = 0.34168 0.02687
# Poissons Ratio (z) = 0.13724 0.13729
#
# Static dielectric constant tensor:
#      x y z
#    x 1.940100 0.000000 0.000000 
#    y 0.000000 1.940100 0.000000 
#    z 0.000000 0.000000 1.997940 
# 
# From -- ./inp_files/1557.got.cif
#   From: 2010.05.17/outbox.cif.g08.bks.cpg/sg146_cif.got.tgz:1557.got - 2010.05.20 13:48:23.
