data_PCOD9574322
_publ_section_title
;
Structure prediction by ZEFSAII (Michael W. Deem and Ramdas Pophale) SiO2 
 PCOD9574322
Probable space group: P 31
;
_chemical_formula_sum "Si O2"
_cell_formula_units_Z 18
_cell_length_a 7.435647
_cell_length_b 7.435647
_cell_length_c 14.169349
_cell_angle_alpha 90.000000
_cell_angle_beta 90.000000
_cell_angle_gamma 120.000000
_cell_volume 678.450328
_symmetry_space_group_name_H-M "P 31"
_symmetry_group_IT_number 144
_symmetry_cell_setting 'hexagonal'
loop_
_space_group_symop_operation_xyz
x,y,z
-y,x-y,1/3+z
-x+y,-x,2/3+z
loop_
_atom_site_type_symbol
_atom_site_label
_atom_site_fract_x
_atom_site_fract_y
_atom_site_fract_z
Si Si1 0.137894 0.322654 0.888400
Si Si2 0.650539 0.264577 0.723644
Si Si3 0.678514 0.970180 0.415728
Si Si4 0.198260 0.648494 0.380203
Si Si5 0.285311 0.358058 0.281464
Si Si6 0.932864 0.616258 0.228472
O O1 0.307704 0.403737 0.805005
O O2 0.107976 0.519331 0.919002
O O3 0.910802 0.148976 0.854228
O O4 0.183711 0.231632 0.982669
O O5 0.495040 0.286237 0.653661
O O6 0.561692 0.115229 0.814621
O O7 0.816334 0.492258 0.757003
O O8 0.749669 0.151964 0.662347
O O9 0.438770 0.793904 0.402967
O O10 0.747413 0.927398 0.516508
O O11 0.161137 0.419012 0.356341
O O12 0.152880 0.719529 0.278821
#
# Coordination Sequence:
#
# PCOD9574322 Si02
#       6
#     3   3   3   3   3   3
#     4   9  20  39  59  88 124 163 209 258 315 386
#     4  11  21  41  58  91 125 162 207 267 321 374
#     4  10  20  40  62  87 124 163 206 262 320 382
#     4  10  21  38  63  91 116 168 210 258 321 382
#     4   9  20  36  63  90 117 163 212 256 307 395
#     4  11  24  38  63  89 130 161 212 273 314 395
#
# _framework density 26.531047999999998
#
# number of rings (size 3 to 8) (size 9 to 14) (size 15 to 20)
#    0.000    2.000    5.000    0.000   14.000    0.000 
#    0.000    3.333    0.000    0.000    0.000    0.000 
#    0.000    0.000    0.000    0.000    0.000    0.000 
#
# Total GULP energy -100526.747738 kJ/mol
# GULP energy per Si atom -5584.819319 kJ/mol
# Density = 2.647066 g / cm^3
# Si number density = 26.531048 Si / 1000 Ang^3
#
#
#
# Elastic Constant Matrix: (Units=GPa)
#
#
# Indices 1 2 3 4 5 6 
#
# 1 55.4774 14.9527 20.9108 2.6643 3.1552 0.0000
# 2 14.9527 55.4774 20.9108 -2.6643 -3.1552 0.0000
# 3 20.9108 20.9108 126.9412 0.0000 0.0000 0.0000
# 4 2.6643 -2.6643 0.0000 38.2879 0.0000 -3.1552
# 5 3.1552 -3.1552 0.0000 0.0000 38.2879 2.6643
# 6 0.0000 0.0000 0.0000 -3.1552 2.6643 20.2624
#
#
#
# Elastic Compliance Matrix: (Units=1/GPa)
#
#
# Indices 1 2 3 4 5 6 
#
# 1 0.020484 -0.004747 -0.002592 -0.001756 -0.002079 0.000000
# 2 -0.004747 0.020484 -0.002592 0.001756 0.002079 0.000000
# 3 -0.002592 -0.002592 0.008732 0.000000 0.000000 0.000000
# 4 -0.001756 0.001756 0.000000 0.026705 0.000000 0.004158
# 5 -0.002079 0.002079 0.000000 0.000000 0.026705 -0.003511
# 6 0.000000 0.000000 0.000000 0.004158 -0.003511 0.050462
#
#
# Mechanical properties :
#
#
# Convention : Reuss Voigt Hill
#
# Bulk Modulus (GPa) = 33.51470 39.04939 36.28205
# Shear Modulus (GPa) = 27.26562 31.44240 29.35401
#
# Velocity S-wave (km/s) = 3.20923 3.44629 3.32987
# Velocity P-wave (km/s) = 5.13731 5.53048 5.33751
#
# Compressibility (1/GPa) = 0.02983765
#
# Stress axis : x y z
#
# Youngs Moduli (GPa) = 48.81763 48.81763 114.52440
#
# Poissons Ratio (x) = 0.23171 0.29690
# Poissons Ratio (y) = 0.23171 0.29690
# Poissons Ratio (z) = 0.12656 0.12656
#
# Static dielectric constant tensor:
#      x y z
#    x 2.163270 0.000000 0.000000 
#    y 0.000000 2.163270 0.000000 
#    z 0.000000 0.000000 2.187920 
# 
# From -- ./inp_files/568.got.cif
#   From: 2010.05.17/outbox.cif.g08.bks.cpg/sg144_cif.got.tgz:568.got - 2010.05.20 13:46:34.
