data_PCOD9574284
_publ_section_title
;
Structure prediction by ZEFSAII (Michael W. Deem and Ramdas Pophale) SiO2 
 PCOD9574284
Probable space group: P 31
;
_chemical_formula_sum "Si O2"
_cell_formula_units_Z 12
_cell_length_a 9.470005
_cell_length_b 9.470005
_cell_length_c 5.677662
_cell_angle_alpha 90.000000
_cell_angle_beta 90.000000
_cell_angle_gamma 120.000000
_cell_volume 440.961408
_symmetry_space_group_name_H-M "P 31"
_symmetry_group_IT_number 144
_symmetry_cell_setting 'hexagonal'
loop_
_space_group_symop_operation_xyz
x,y,z
-y,x-y,1/3+z
-x+y,-x,2/3+z
loop_
_atom_site_type_symbol
_atom_site_label
_atom_site_fract_x
_atom_site_fract_y
_atom_site_fract_z
Si Si1 0.269540 0.899516 0.718380
Si Si2 0.501935 0.269893 0.732937
Si Si3 0.566183 0.602873 0.888321
Si Si4 0.898709 0.063441 0.540427
O O1 0.333333 0.869635 0.970017
O O2 0.342383 0.095978 0.717519
O O3 0.333335 0.867362 0.470017
O O4 0.076048 0.824645 0.727653
O O5 0.590068 0.368759 0.500146
O O6 0.491312 0.409381 0.879043
O O7 0.324284 0.086929 0.222518
O O8 0.887976 0.964574 0.773218
#
# Coordination Sequence:
#
# PCOD9574284 Si02
#       4
#     3   3   3   3
#     4  10  20  30  48  70 102 142 170 216 266 322
#     4  10  18  31  48  70 106 139 174 210 270 320
#     4  10  20  30  48  70 102 142 170 216 266 322
#     4  10  18  31  48  70 106 139 174 210 270 320
#
# _framework density 27.213263000000001
#
# number of rings (size 3 to 8) (size 9 to 14) (size 15 to 20)
#    0.000    2.000    5.000    0.000    0.000    0.000 
#    0.000    0.000    0.000    0.000    0.000    0.000 
#    0.000  108.000    0.000    0.000    0.000    0.000 
#
# Total GULP energy -67026.705685 kJ/mol
# GULP energy per Si atom -5585.558807 kJ/mol
# Density = 2.715132 g / cm^3
# Si number density = 27.213263 Si / 1000 Ang^3
#
#
#
# Elastic Constant Matrix: (Units=GPa)
#
#
# Indices 1 2 3 4 5 6 
#
# 1 116.1860 46.1654 24.6053 -15.2308 -0.0001 0.0000
# 2 46.1654 116.1860 24.6053 15.2308 0.0001 0.0000
# 3 24.6053 24.6053 195.5442 0.0000 0.0000 0.0000
# 4 -15.2308 15.2308 0.0000 29.3183 0.0000 0.0001
# 5 -0.0001 0.0001 0.0000 0.0000 29.3183 -15.2308
# 6 0.0000 0.0000 0.0000 0.0001 -15.2308 35.0103
#
#
#
# Elastic Compliance Matrix: (Units=1/GPa)
#
#
# Indices 1 2 3 4 5 6 
#
# 1 0.012428 -0.006024 -0.000806 0.009586 0.000000 0.000000
# 2 -0.006024 0.012428 -0.000806 -0.009586 0.000000 0.000000
# 3 -0.000806 -0.000806 0.005317 0.000000 0.000000 0.000000
# 4 0.009586 -0.009586 0.000000 0.044068 0.000000 0.000000
# 5 0.000000 0.000000 0.000000 0.000000 0.044068 0.019171
# 6 0.000000 0.000000 0.000000 0.000000 0.019171 0.036903
#
#
# Mechanical properties :
#
#
# Convention : Reuss Voigt Hill
#
# Bulk Modulus (GPa) = 67.10941 68.74091 67.92516
# Shear Modulus (GPa) = 28.49839 40.89874 34.69856
#
# Velocity S-wave (km/s) = 3.23960 3.88093 3.57467
# Velocity P-wave (km/s) = 6.22153 6.73773 6.48477
#
# Compressibility (1/GPa) = 0.01490104
#
# Stress axis : x y z
#
# Youngs Moduli (GPa) = 80.46571 80.46571 188.08599
#
# Poissons Ratio (x) = 0.48472 0.15156
# Poissons Ratio (y) = 0.48472 0.15156
# Poissons Ratio (z) = 0.06484 0.06484
#
# Static dielectric constant tensor:
#      x y z
#    x 2.069510 0.000000 0.000000 
#    y 0.000000 2.069510 0.000000 
#    z 0.000000 0.000000 2.447170 
# 
# From -- ./inp_files/209.got.cif
#   From: 2010.05.17/outbox.cif.g08.bks.cpg/sg144_cif.got.tgz:209.got - 2010.05.20 13:46:34.
