data_PCOD9574854
_publ_section_title
;
Structure prediction by ZEFSAII (Michael W. Deem and Ramdas Pophale) SiO2 
 PCOD9574854
Probable space group: P -3
;
_chemical_formula_sum "Si O2"
_cell_formula_units_Z 42
_cell_length_a 11.387407
_cell_length_b 11.387407
_cell_length_c 17.382928
_cell_angle_alpha 90.000000
_cell_angle_beta 90.000000
_cell_angle_gamma 120.000000
_cell_volume 1952.105339
_symmetry_space_group_name_H-M "P -3"
_symmetry_group_IT_number 147
_symmetry_cell_setting 'hexagonal'
loop_
_space_group_symop_operation_xyz
x,y,z
-y,x-y,z
-x+y,-x,z
-x,-y,-z
y,-x+y,-z
x-y,x,-z
loop_
_atom_site_type_symbol
_atom_site_label
_atom_site_fract_x
_atom_site_fract_y
_atom_site_fract_z
Si Si1 0.937099 0.220363 0.965913
Si Si2 0.306719 0.242035 0.330880
Si Si3 0.064113 0.622235 0.905077
Si Si4 0.333363 0.819916 0.195738
Si Si5 0.692779 0.757257 0.501571
Si Si6 0.065871 0.312006 0.333791
Si Si7 0.388927 0.286262 0.163991
O O1 0.906207 0.329664 0.006720
O O2 0.070708 0.246277 0.012707
O O3 0.982761 0.256430 0.878197
O O4 0.374302 0.296166 0.414931
O O5 0.175346 0.261021 0.327840
O O6 0.393032 0.308891 0.254671
O O7 0.265626 0.083916 0.326692
O O8 0.149738 0.758979 0.855845
O O9 0.109834 0.516764 0.879067
O O10 0.907593 0.555027 0.879543
O O11 0.207730 0.667043 0.198226
O O12 0.322569 0.900326 0.268004
O O13 0.824307 0.740127 0.499393
O O14 0.623169 0.703367 0.419043
#
# Coordination Sequence:
#
# PCOD9574854 Si02
#       7
#     6   6   6   6   6   6   6
#     4  10  24  40  63  91 125 157 189 244 302 361
#     4  10  19  31  59  88 118 153 193 250 301 355
#     4  11  23  43  61  91 117 159 203 248 301 352
#     4  10  23  38  60  86 121 160 203 254 292 354
#     4   8  15  27  50  81 120 150 187 239 299 357
#     4  10  18  35  55  90 122 152 197 243 308 361
#     4  11  23  40  64  83 120 153 206 251 295 355
#
# _framework density 21.515234
#
# number of rings (size 3 to 8) (size 9 to 14) (size 15 to 20)
#    0.286    1.714    1.429    2.143    4.000    2.286 
#    0.000    0.000    3.143    3.429    0.000    0.000 
#    0.000    0.000    0.000    0.000    0.000    0.000 
#
# Total GULP energy -234374.758680 kJ/mol
# GULP energy per Si atom -5580.351397 kJ/mol
# Density = 2.146626 g / cm^3
# Si number density = 21.515234 Si / 1000 Ang^3
#
#
#
# Elastic Constant Matrix: (Units=GPa)
#
#
# Indices 1 2 3 4 5 6 
#
# 1 59.7346 11.5956 17.0855 1.8244 4.8518 0.0000
# 2 11.5956 59.7346 17.0855 -1.8244 -4.8518 0.0000
# 3 17.0855 17.0855 121.9692 0.0000 0.0000 0.0000
# 4 1.8244 -1.8244 0.0000 17.1825 0.0000 -4.8518
# 5 4.8518 -4.8518 0.0000 0.0000 17.1825 1.8244
# 6 0.0000 0.0000 0.0000 -4.8518 1.8244 24.0695
#
#
#
# Elastic Compliance Matrix: (Units=1/GPa)
#
#
# Indices 1 2 3 4 5 6 
#
# 1 0.018622 -0.003594 -0.002105 -0.002359 -0.006273 0.000000
# 2 -0.003594 0.018622 -0.002105 0.002359 0.006273 0.000000
# 3 -0.002105 -0.002105 0.008789 0.000000 0.000000 0.000000
# 4 -0.002359 0.002359 0.000000 0.062242 0.000000 0.012546
# 5 -0.006273 0.006273 0.000000 0.000000 0.062242 -0.004718
# 6 0.000000 0.000000 0.000000 0.012546 -0.004718 0.044433
#
#
# Mechanical properties :
#
#
# Convention : Reuss Voigt Hill
#
# Bulk Modulus (GPa) = 32.86911 36.99685 34.93298
# Shear Modulus (GPa) = 20.77268 24.73169 22.75218
#
# Velocity S-wave (km/s) = 3.11060 3.39410 3.25544
# Velocity P-wave (km/s) = 5.31144 5.70902 5.51381
#
# Compressibility (1/GPa) = 0.03042370
#
# Stress axis : x y z
#
# Youngs Moduli (GPa) = 53.69950 53.69950 113.78425
#
# Poissons Ratio (x) = 0.19302 0.23953
# Poissons Ratio (y) = 0.19302 0.23953
# Poissons Ratio (z) = 0.11304 0.11304
#
# Static dielectric constant tensor:
#      x y z
#    x 1.788980 0.000000 0.000000 
#    y 0.000000 1.788980 0.000000 
#    z 0.000000 0.000000 1.840910 
# 
# From -- ./inp_files/1048.got.cif
#   From: 2010.05.17/outbox.cif.g08.bks.cpg/sg147_cif.got.tgz:1048.got - 2010.05.20 13:49:32.
