data_PCOD9574470
_publ_section_title
;
Structure prediction by ZEFSAII (Michael W. Deem and Ramdas Pophale) SiO2 
 PCOD9574470
Probable space group: P 31
;
_chemical_formula_sum "Si O2"
_cell_formula_units_Z 18
_cell_length_a 12.397816
_cell_length_b 12.397816
_cell_length_c 5.366644
_cell_angle_alpha 90.000000
_cell_angle_beta 90.000000
_cell_angle_gamma 120.000000
_cell_volume 714.370960
_symmetry_space_group_name_H-M "P 31"
_symmetry_group_IT_number 144
_symmetry_cell_setting 'hexagonal'
loop_
_space_group_symop_operation_xyz
x,y,z
-y,x-y,1/3+z
-x+y,-x,2/3+z
loop_
_atom_site_type_symbol
_atom_site_label
_atom_site_fract_x
_atom_site_fract_y
_atom_site_fract_z
Si Si1 0.823460 0.793812 0.349130
Si Si2 0.327192 0.885956 0.823697
Si Si3 0.839040 0.050175 0.511811
Si Si4 0.585064 0.513181 0.862146
Si Si5 0.557406 0.920674 0.575309
Si Si6 0.537383 0.306878 0.476537
O O1 0.676415 0.698116 0.321272
O O2 0.880965 0.750681 0.575242
O O3 0.838873 0.922858 0.449483
O O4 0.883660 0.813207 0.077807
O O5 0.447977 0.874198 0.775775
O O6 0.204788 0.752724 0.804278
O O7 0.358978 0.961356 0.081913
O O8 0.703249 0.009629 0.626946
O O9 0.516390 0.397672 0.662210
O O10 0.479390 0.474009 0.067719
O O11 0.718401 0.527861 0.945550
O O12 0.588173 0.241910 0.661482
#
# Coordination Sequence:
#
# PCOD9574470 Si02
#       6
#     3   3   3   3   3   3
#     4  11  25  49  82 117 156 198 258 334 410 483
#     4  11  29  50  75 109 150 210 270 326 386 480
#     4  11  25  49  82 117 156 198 258 334 410 483
#     4  11  24  46  74 110 158 208 255 320 414 481
#     4  11  29  50  75 109 150 210 270 326 386 480
#     4   9  20  42  70 110 154 192 237 316 406 489
#
# _framework density 25.196992999999999
#
# number of rings (size 3 to 8) (size 9 to 14) (size 15 to 20)
#    0.000    1.333    0.000    3.000    7.000    6.667 
#    6.000    0.000    3.667    0.000    0.000    0.000 
#    0.000    0.000    0.000    0.000    0.000    0.000 
#
# Total GULP energy -100484.355475 kJ/mol
# GULP energy per Si atom -5582.464193 kJ/mol
# Density = 2.513964 g / cm^3
# Si number density = 25.196993 Si / 1000 Ang^3
#
#
#
# Elastic Constant Matrix: (Units=GPa)
#
#
# Indices 1 2 3 4 5 6 
#
# 1 99.8095 54.4934 18.5229 -15.1111 -21.6896 0.0000
# 2 54.4934 99.8095 18.5229 15.1111 21.6896 0.0000
# 3 18.5229 18.5229 81.3250 0.0000 0.0000 0.0000
# 4 -15.1111 15.1111 0.0000 14.2021 0.0000 21.6896
# 5 -21.6896 21.6896 0.0000 0.0000 14.2021 -15.1111
# 6 0.0000 0.0000 0.0000 21.6896 -15.1111 22.6580
#
#
#
# Elastic Compliance Matrix: (Units=1/GPa)
#
#
# Indices 1 2 3 4 5 6 
#
# 1 -0.005990 0.012846 -0.001561 -0.020042 -0.028767 0.000000
# 2 0.012846 -0.005990 -0.001561 0.020042 0.028767 0.000000
# 3 -0.001561 -0.001561 0.013008 0.000000 0.000000 0.000000
# 4 -0.020042 0.020042 0.000000 -0.060102 0.000000 0.057533
# 5 -0.028767 0.028767 0.000000 0.000000 -0.060102 -0.040083
# 6 0.000000 0.000000 0.000000 0.057533 -0.040083 -0.037672
#
#
# Mechanical properties :
#
#
# Convention : Reuss Voigt Hill
#
# Bulk Modulus (GPa) = 48.84470 51.55804 50.20137
# Shear Modulus (GPa) = -29.50353 22.83943 -3.33205
#
# Velocity S-wave (km/s) = -3.42558 3.01397 -1.15120
# Velocity P-wave (km/s) = 1.94451 5.71126 4.26612
#
# Compressibility (1/GPa) = 0.02047305
#
# Stress axis : x y z
#
# Youngs Moduli (GPa) = -166.93788 -166.93788 76.87798
#
# Poissons Ratio (x) = 2.14447 0.12004
# Poissons Ratio (y) = 2.14447 0.12004
# Poissons Ratio (z) = -0.26067 -0.26067
#
# Static dielectric constant tensor:
#      x y z
#    x 2.198670 0.000000 0.000000 
#    y 0.000000 2.198670 0.000000 
#    z 0.000000 0.000000 2.101020 
# 
# From -- ./inp_files/109.got.cif
#   From: 2010.05.17/outbox.cif.g08.bks.cpg/sg144_cif.got.tgz:109.got - 2010.05.20 13:46:34.
