data_PCOD9574995
_publ_section_title
;
Structure prediction by ZEFSAII (Michael W. Deem and Ramdas Pophale) SiO2 
 PCOD9574995
Probable space group: R -3
;
_chemical_formula_sum "Si O2"
_cell_formula_units_Z 54
_cell_length_a 18.422761
_cell_length_b 18.422761
_cell_length_c 7.813313
_cell_angle_alpha 90.000000
_cell_angle_beta 90.000000
_cell_angle_gamma 120.000000
_cell_volume 2296.546747
_symmetry_space_group_name_H-M "R -3"
_symmetry_group_IT_number 148
_symmetry_cell_setting 'hexagonal'
loop_
_space_group_symop_operation_xyz
x,y,z
-y,x-y,z
-x+y,-x,z
-x,-y,-z
y,-x+y,-z
x-y,x,-z
2/3+x,1/3+y,1/3+z
2/3-y,1/3+x-y,1/3+z
2/3-x+y,1/3-x,1/3+z
2/3-x,1/3-y,1/3-z
2/3+y,1/3-x+y,1/3-z
2/3+x-y,1/3+x,1/3-z
1/3+x,2/3+y,2/3+z
1/3-y,2/3+x-y,2/3+z
1/3-x+y,2/3-x,2/3+z
1/3-x,2/3-y,2/3-z
1/3+y,2/3-x+y,2/3-z
1/3+x-y,2/3+x,2/3-z
loop_
_atom_site_type_symbol
_atom_site_label
_atom_site_fract_x
_atom_site_fract_y
_atom_site_fract_z
Si Si1 0.086215 0.568374 0.392993
Si Si2 0.399540 0.134265 0.486224
Si Si3 0.806778 0.769940 0.641207
O O1 0.113915 0.640287 0.535581
O O2 0.111594 0.497607 0.385558
O O3 0.129925 0.622489 0.218346
O O4 0.988764 0.532249 0.340915
O O5 0.327989 0.063343 0.612273
O O6 0.432415 0.222331 0.579450
#
# Coordination Sequence:
#
# PCOD9574995 Si02
#       3
#    18  18  18
#     4  10  16  31  50  67 103 129 155 204 238 289
#     4   9  18  30  46  73 100 127 162 196 242 295
#     4   9  15  28  48  68  98 129 149 203 247 281
#
# _framework density 23.513566999999998
#
# number of rings (size 3 to 8) (size 9 to 14) (size 15 to 20)
#    2.000    0.667    3.333    0.000    0.000    0.000 
#    2.000    3.333    0.000    0.000    0.000    0.000 
#    0.000    2.667    0.000    0.000    0.000    0.000 
#
# Total GULP energy -100423.210121 kJ/mol
# GULP energy per Si atom -5579.067229 kJ/mol
# Density = 2.346005 g / cm^3
# Si number density = 23.513567 Si / 1000 Ang^3
#
#
#
# Elastic Constant Matrix: (Units=GPa)
#
#
# Indices 1 2 3 4 5 6 
#
# 1 155.8315 80.2758 27.7584 -9.3298 8.8872 0.0001
# 2 80.2758 155.8306 27.7569 9.3306 -8.8857 0.0001
# 3 27.7584 27.7569 39.3552 0.0011 0.0026 0.0002
# 4 -9.3298 9.3306 0.0011 28.9351 0.0006 -8.8860
# 5 8.8872 -8.8857 0.0026 0.0006 28.9360 -9.3303
# 6 0.0001 0.0001 0.0002 -8.8860 -9.3303 37.7775
#
#
#
# Elastic Compliance Matrix: (Units=1/GPa)
#
#
# Indices 1 2 3 4 5 6 
#
# 1 0.010341 -0.005264 -0.003581 0.005032 -0.004793 0.000000
# 2 -0.005264 0.010341 -0.003581 -0.005032 0.004793 0.000000
# 3 -0.003581 -0.003581 0.030461 -0.000002 -0.000003 -0.000001
# 4 0.005032 -0.005032 -0.000002 0.040749 -0.000001 0.009585
# 5 -0.004793 0.004793 -0.000003 -0.000001 0.040748 0.010064
# 6 0.000000 0.000000 -0.000001 0.009585 0.010064 0.031211
#
#
# Mechanical properties :
#
#
# Convention : Reuss Voigt Hill
#
# Bulk Modulus (GPa) = 38.03517 69.17773 53.60645
# Shear Modulus (GPa) = 25.32055 33.47815 29.39935
#
# Velocity S-wave (km/s) = 3.28510 3.77739 3.53981
# Velocity P-wave (km/s) = 5.53174 6.96485 6.28925
#
# Compressibility (1/GPa) = 0.02629145
#
# Stress axis : x y z
#
# Youngs Moduli (GPa) = 96.69778 96.69807 32.82860
#
# Poissons Ratio (x) = 0.50903 0.11757
# Poissons Ratio (y) = 0.50903 0.11756
# Poissons Ratio (z) = 0.34630 0.34628
#
# Static dielectric constant tensor:
#      x y z
#    x 1.878640 0.000000 0.000000 
#    y 0.000000 1.878640 0.000000 
#    z 0.000000 0.000000 2.013860 
# 
# From -- ./inp_files/1291.got.cif
#   From: 2010.05.17/outbox.cif.g08.bks.cpg/sg148_1_cif.got.tgz:1291.got - 2010.05.20 13:50:20.
