data_PCOD9574172
_publ_section_title
;
Structure prediction by ZEFSAII (Michael W. Deem and Ramdas Pophale) SiO2 
 PCOD9574172
Probable space group: I 41/A C D
;
_chemical_formula_sum "Si O2"
_cell_formula_units_Z 160
_cell_length_a 16.120978
_cell_length_b 16.120978
_cell_length_c 27.643933
_cell_angle_alpha 90.000000
_cell_angle_beta 90.000000
_cell_angle_gamma 90.000000
_cell_volume 7184.269283
_symmetry_space_group_name_H-M "I 41/A C D"
_symmetry_group_IT_number 142
_space_group.IT_coordinate_system_code '2'
_symmetry_cell_setting 'tetragonal'
loop_
_space_group_symop_operation_xyz
x,y,z
1/4-y,3/4+x,1/4+z
-x,1/2-y,z
1/4+y,1/4-x,3/4+z
x,-y,1/2-z
1/2-x,y,-z
3/4+y,1/4+x,1/4-z
1/4-y,1/4-x,1/4-z
-x,-y,-z
3/4+y,1/4-x,3/4-z
x,1/2+y,-z
3/4-y,3/4+x,1/4-z
-x,y,1/2+z
1/2+x,-y,z
1/4-y,3/4-x,3/4+z
3/4+y,3/4+x,3/4+z
1/2+x,1/2+y,1/2+z
3/4-y,1/4+x,3/4+z
1/2-x,-y,1/2+z
3/4+y,3/4-x,1/4+z
1/2+x,1/2-y,-z
-x,1/2+y,1/2-z
1/4+y,3/4+x,3/4-z
3/4-y,3/4-x,3/4-z
1/2-x,1/2-y,1/2-z
1/4+y,3/4-x,1/4-z
1/2+x,y,1/2-z
1/4-y,1/4+x,3/4-z
1/2-x,1/2+y,z
x,1/2-y,1/2+z
3/4-y,1/4-x,1/4+z
1/4+y,1/4+x,1/4+z
loop_
_atom_site_type_symbol
_atom_site_label
_atom_site_fract_x
_atom_site_fract_y
_atom_site_fract_z
Si Si1 0.583946 0.449027 0.008763
Si Si2 0.121689 0.563969 0.659605
Si Si3 0.548019 0.993585 0.693009
Si Si4 0.725783 0.944300 0.813764
Si Si5 0.417594 0.196455 0.928796
O O1 0.607216 0.412478 0.061796
O O2 0.500000 0.500000 0.000000
O O3 0.655501 0.511419 0.989151
O O4 0.585778 0.372247 0.970803
O O5 0.026368 0.554795 0.676114
O O6 0.121633 0.546646 0.602208
O O7 0.188633 0.492897 0.675732
O O8 0.642539 0.003349 0.676701
O O9 0.550811 0.000000 0.750000
O O10 0.512062 0.905209 0.681044
O O11 0.500000 0.250000 0.933278
O O12 0.409962 0.159962 0.875000
#
# Coordination Sequence:
#
# PCOD9574172 Si02
#       5
#    32  32  32  32  32
#     4  12  26  44  70 102 144 183 232 293 357 424
#     4  11  24  46  69 102 136 181 235 285 347 424
#     4  12  23  44  71  96 138 179 227 281 349 418
#     4  11  26  43  72 102 136 185 233 285 355 421
#     4  11  26  44  69 101 135 175 233 293 348 415
#
# _framework density 22.270879000000001
#
# number of rings (size 3 to 8) (size 9 to 14) (size 15 to 20)
#    0.000    0.600    4.000    3.000   11.200    1.600 
#    0.000    0.000    0.000    0.000    0.000    0.000 
#    0.000    0.000    0.000    0.000    0.000    0.000 
#
# Total GULP energy -446177.687125 kJ/mol
# GULP energy per Si atom -5577.221089 kJ/mol
# Density = 2.222019 g / cm^3
# Si number density = 22.270879 Si / 1000 Ang^3
#
#
#
# Elastic Constant Matrix: (Units=GPa)
#
#
# Indices 1 2 3 4 5 6 
#
# 1 85.0288 34.9908 -15.1888 0.0000 0.0000 0.0000
# 2 34.9908 85.0288 -15.1888 0.0000 0.0000 0.0000
# 3 -15.1888 -15.1888 48.9400 0.0000 0.0000 0.0000
# 4 0.0000 0.0000 0.0000 26.5149 0.0000 0.0000
# 5 0.0000 0.0000 0.0000 0.0000 26.5149 0.0000
# 6 0.0000 0.0000 0.0000 0.0000 0.0000 41.7645
#
#
#
# Elastic Compliance Matrix: (Units=1/GPa)
#
#
# Indices 1 2 3 4 5 6 
#
# 1 0.014514 -0.005471 0.002806 0.000000 0.000000 0.000000
# 2 -0.005471 0.014514 0.002806 0.000000 0.000000 0.000000
# 3 0.002806 0.002806 0.022175 0.000000 0.000000 0.000000
# 4 0.000000 0.000000 0.000000 0.037715 0.000000 0.000000
# 5 0.000000 0.000000 0.000000 0.000000 0.037715 0.000000
# 6 0.000000 0.000000 0.000000 0.000000 0.000000 0.023944
#
#
# Mechanical properties :
#
#
# Convention : Reuss Voigt Hill
#
# Bulk Modulus (GPa) = 19.42318 25.35824 22.39071
# Shear Modulus (GPa) = 29.85893 33.25116 31.55505
#
# Velocity S-wave (km/s) = 3.66555 3.86817 3.76822
# Velocity P-wave (km/s) = 5.16288 5.60012 5.38594
#
# Compressibility (1/GPa) = 0.05148487
#
# Stress axis : x y z
#
# Youngs Moduli (GPa) = 68.90123 68.90123 45.09562
#
# Poissons Ratio (x) = 0.37698 -0.12655
# Poissons Ratio (y) = 0.37698 -0.12655
# Poissons Ratio (z) = -0.19336 -0.19336
#
# Static dielectric constant tensor:
#      x y z
#    x 1.860580 0.000000 0.000000 
#    y 0.000000 1.860580 0.000000 
#    z 0.000000 0.000000 1.956280 
# 
# From -- ./inp_files/11294.got.cif
#   From: 2010.05.17/outbox.cif.g08.bks.cpg/sg142_6_cif.got.tgz:11294.got - 2010.05.20 13:39:18.
