data_PCOD9574005
_publ_section_title
;
Structure prediction by ZEFSAII (Michael W. Deem and Ramdas Pophale) SiO2 
 PCOD9574005
Probable space group: I 41/A C D
;
_chemical_formula_sum "Si O2"
_cell_formula_units_Z 72
_cell_length_a 21.812078
_cell_length_b 21.812078
_cell_length_c 7.415427
_cell_angle_alpha 90.000000
_cell_angle_beta 90.000000
_cell_angle_gamma 90.000000
_cell_volume 3528.013579
_symmetry_space_group_name_H-M "I 41/A C D"
_symmetry_group_IT_number 142
_space_group.IT_coordinate_system_code '2'
_symmetry_cell_setting 'tetragonal'
loop_
_space_group_symop_operation_xyz
x,y,z
1/4-y,3/4+x,1/4+z
-x,1/2-y,z
1/4+y,1/4-x,3/4+z
x,-y,1/2-z
1/2-x,y,-z
3/4+y,1/4+x,1/4-z
1/4-y,1/4-x,1/4-z
-x,-y,-z
3/4+y,1/4-x,3/4-z
x,1/2+y,-z
3/4-y,3/4+x,1/4-z
-x,y,1/2+z
1/2+x,-y,z
1/4-y,3/4-x,3/4+z
3/4+y,3/4+x,3/4+z
1/2+x,1/2+y,1/2+z
3/4-y,1/4+x,3/4+z
1/2-x,-y,1/2+z
3/4+y,3/4-x,1/4+z
1/2+x,1/2-y,-z
-x,1/2+y,1/2-z
1/4+y,3/4+x,3/4-z
3/4-y,3/4-x,3/4-z
1/2-x,1/2-y,1/2-z
1/4+y,3/4-x,1/4-z
1/2+x,y,1/2-z
1/4-y,1/4+x,3/4-z
1/2-x,1/2+y,z
x,1/2-y,1/2+z
3/4-y,1/4-x,1/4+z
1/4+y,1/4+x,1/4+z
loop_
_atom_site_type_symbol
_atom_site_label
_atom_site_fract_x
_atom_site_fract_y
_atom_site_fract_z
Si Si1 0.923357 0.673357 0.875000
Si Si2 0.750000 0.413092 0.000000
Si Si3 0.000000 0.750000 0.625000
Si Si4 0.780772 0.184870 0.192460
O O1 0.971809 0.692339 0.724537
O O2 0.853432 0.687675 0.833267
O O3 0.705385 0.455385 0.875000
O O4 0.774775 0.366305 0.847779
O O5 0.750000 0.250000 0.250000
O O6 0.750000 0.166799 0.000000
#
# Coordination Sequence:
#
# PCOD9574005 Si02
#       4
#    16  16   8  32
#     4  11  24  44  68 104 146 178 244 296 364 443
#     4  12  30  48  74 110 154 200 252 314 388 456
#     4  10  24  42  68 102 144 190 220 298 372 426
#     4  12  25  48  76 110 144 198 256 314 382 459
#
# _framework density 20.408086000000001
#
# number of rings (size 3 to 8) (size 9 to 14) (size 15 to 20)
#    0.000    0.444    2.222    5.333    6.222    0.000 
#    0.000    0.000    0.000    0.000    0.000    0.000 
#    0.000    0.000    0.000    0.000    0.000    0.000 
#
# Total GULP energy -200615.536803 kJ/mol
# GULP energy per Si atom -5572.653800 kJ/mol
# Density = 2.036164 g / cm^3
# Si number density = 20.408086 Si / 1000 Ang^3
#
#
#
# Elastic Constant Matrix: (Units=GPa)
#
#
# Indices 1 2 3 4 5 6 
#
# 1 175.4912 85.4224 73.3049 0.0000 0.0000 0.0000
# 2 85.4224 175.4912 73.3049 0.0000 0.0000 0.0000
# 3 73.3049 73.3049 161.1958 0.0000 0.0000 0.0000
# 4 0.0000 0.0000 0.0000 89.6119 0.0000 0.0000
# 5 0.0000 0.0000 0.0000 0.0000 89.6119 0.0000
# 6 0.0000 0.0000 0.0000 0.0000 0.0000 22.3862
#
#
#
# Elastic Compliance Matrix: (Units=1/GPa)
#
#
# Indices 1 2 3 4 5 6 
#
# 1 0.008125 -0.002977 -0.002341 0.000000 0.000000 0.000000
# 2 -0.002977 0.008125 -0.002341 0.000000 0.000000 0.000000
# 3 -0.002341 -0.002341 0.008333 0.000000 0.000000 0.000000
# 4 0.000000 0.000000 0.000000 0.011159 0.000000 0.000000
# 5 0.000000 0.000000 0.000000 0.000000 0.011159 0.000000
# 6 0.000000 0.000000 0.000000 0.000000 0.000000 0.044670
#
#
# Mechanical properties :
#
#
# Convention : Reuss Voigt Hill
#
# Bulk Modulus (GPa) = 107.93695 108.47138 108.20416
# Shear Modulus (GPa) = 45.46277 58.99841 52.23059
#
# Velocity S-wave (km/s) = 4.72496 5.38257 5.06445
# Velocity P-wave (km/s) = 9.09786 9.58624 9.34524
#
# Compressibility (1/GPa) = 0.00926467
#
# Stress axis : x y z
#
# Youngs Moduli (GPa) = 123.07049 123.07049 120.00513
#
# Poissons Ratio (x) = 0.36641 0.28095
# Poissons Ratio (y) = 0.36641 0.28095
# Poissons Ratio (z) = 0.28813 0.28813
#
# Static dielectric constant tensor:
#      x y z
#    x 1.624640 0.000000 0.000000 
#    y 0.000000 1.624640 0.000000 
#    z 0.000000 0.000000 4.904230 
# 
# From -- ./inp_files/1435.got.cif
#   From: 2010.05.17/outbox.cif.g08.bks.cpg/sg142_1_cif.got.tgz:1435.got - 2010.05.20 13:39:18.
