data_PCOD9574348
_publ_section_title
;
Structure prediction by ZEFSAII (Michael W. Deem and Ramdas Pophale) SiO2 
 PCOD9574348
Probable space group: P 31
;
_chemical_formula_sum "Si O2"
_cell_formula_units_Z 18
_cell_length_a 11.901943
_cell_length_b 11.901943
_cell_length_c 6.468564
_cell_angle_alpha 90.000000
_cell_angle_beta 90.000000
_cell_angle_gamma 120.000000
_cell_volume 793.549904
_symmetry_space_group_name_H-M "P 31"
_symmetry_group_IT_number 144
_symmetry_cell_setting 'hexagonal'
loop_
_space_group_symop_operation_xyz
x,y,z
-y,x-y,1/3+z
-x+y,-x,2/3+z
loop_
_atom_site_type_symbol
_atom_site_label
_atom_site_fract_x
_atom_site_fract_y
_atom_site_fract_z
Si Si1 0.433659 0.030798 0.440910
Si Si2 0.521087 0.765715 0.008041
Si Si3 0.328536 0.835612 0.779741
Si Si4 0.874022 0.159623 0.502392
Si Si5 0.546915 0.295762 0.949192
Si Si6 0.111178 0.840619 0.055843
O O1 0.364815 0.896745 0.308092
O O2 0.412655 0.976487 0.673132
O O3 0.350595 0.095641 0.366320
O O4 0.580757 0.132048 0.394961
O O5 0.418942 0.789152 0.885286
O O6 0.662494 0.884472 0.942534
O O7 0.254407 0.503244 0.919542
O O8 0.224244 0.833151 0.932778
O O9 0.815216 0.214492 0.328754
O O10 0.007958 0.171367 0.425056
O O11 0.782130 0.017076 0.589262
O O12 0.646123 0.258119 0.061198
#
# Coordination Sequence:
#
# PCOD9574348 Si02
#       6
#     3   3   3   3   3   3
#     4   8  20  43  66  98 140 177 229 290 352 437
#     4   9  22  43  68 101 142 182 232 293 374 441
#     4  10  22  43  68 102 138 185 231 293 371 430
#     4  10  23  45  66  99 142 183 253 291 364 428
#     4  10  21  40  68  98 132 179 229 287 347 426
#     4  11  24  44  68  98 144 188 242 312 350 436
#
# _framework density 22.682881999999999
#
# number of rings (size 3 to 8) (size 9 to 14) (size 15 to 20)
#    1.000    1.333    0.000    1.000    2.333    4.000 
#    9.000    0.000    3.667    0.000    0.000    0.000 
#    0.000    0.000    0.000    0.000    0.000    0.000 
#
# Total GULP energy -100434.173687 kJ/mol
# GULP energy per Si atom -5579.676316 kJ/mol
# Density = 2.263126 g / cm^3
# Si number density = 22.682882 Si / 1000 Ang^3
#
#
#
# Elastic Constant Matrix: (Units=GPa)
#
#
# Indices 1 2 3 4 5 6 
#
# 1 81.7486 26.0222 15.8384 1.3319 3.3356 0.0000
# 2 26.0222 81.7486 15.8384 -1.3319 -3.3356 0.0000
# 3 15.8384 15.8384 56.0498 0.0000 0.0000 0.0000
# 4 1.3319 -1.3319 0.0000 31.2011 0.0000 -3.3356
# 5 3.3356 -3.3356 0.0000 0.0000 31.2011 1.3319
# 6 0.0000 0.0000 0.0000 -3.3356 1.3319 27.8632
#
#
#
# Elastic Compliance Matrix: (Units=1/GPa)
#
#
# Indices 1 2 3 4 5 6 
#
# 1 0.014167 -0.004048 -0.002860 -0.000778 -0.001947 0.000000
# 2 -0.004048 0.014167 -0.002860 0.000778 0.001947 0.000000
# 3 -0.002860 -0.002860 0.019457 0.000000 0.000000 0.000000
# 4 -0.000778 0.000778 0.000000 0.032533 0.000000 0.003895
# 5 -0.001947 0.001947 0.000000 0.000000 0.032533 -0.001555
# 6 0.000000 0.000000 0.000000 0.003895 -0.001555 0.036430
#
#
# Mechanical properties :
#
#
# Convention : Reuss Voigt Hill
#
# Bulk Modulus (GPa) = 35.38804 37.21612 36.30208
# Shear Modulus (GPa) = 28.05189 28.84293 28.44741
#
# Velocity S-wave (km/s) = 3.52049 3.56978 3.54522
# Velocity P-wave (km/s) = 5.67100 5.78220 5.72687
#
# Compressibility (1/GPa) = 0.02825814
#
# Stress axis : x y z
#
# Youngs Moduli (GPa) = 70.58523 70.58523 51.39442
#
# Poissons Ratio (x) = 0.28572 0.14696
# Poissons Ratio (y) = 0.28572 0.14696
# Poissons Ratio (z) = 0.20184 0.20184
#
# Static dielectric constant tensor:
#      x y z
#    x 1.855670 0.000000 0.000000 
#    y 0.000000 1.855670 0.000000 
#    z 0.000000 0.000000 1.909340 
# 
# From -- ./inp_files/372.got.cif
#   From: 2010.05.17/outbox.cif.g08.bks.cpg/sg144_cif.got.tgz:372.got - 2010.05.20 13:46:34.
