data_PCOD9574176
_publ_section_title
;
Structure prediction by ZEFSAII (Michael W. Deem and Ramdas Pophale) SiO2 
 PCOD9574176
Probable space group: I 41/A C D
;
_chemical_formula_sum "Si O2"
_cell_formula_units_Z 80
_cell_length_a 20.488301
_cell_length_b 20.488301
_cell_length_c 8.540581
_cell_angle_alpha 90.000000
_cell_angle_beta 90.000000
_cell_angle_gamma 90.000000
_cell_volume 3585.083768
_symmetry_space_group_name_H-M "I 41/A C D"
_symmetry_group_IT_number 142
_space_group.IT_coordinate_system_code '2'
_symmetry_cell_setting 'tetragonal'
loop_
_space_group_symop_operation_xyz
x,y,z
1/4-y,3/4+x,1/4+z
-x,1/2-y,z
1/4+y,1/4-x,3/4+z
x,-y,1/2-z
1/2-x,y,-z
3/4+y,1/4+x,1/4-z
1/4-y,1/4-x,1/4-z
-x,-y,-z
3/4+y,1/4-x,3/4-z
x,1/2+y,-z
3/4-y,3/4+x,1/4-z
-x,y,1/2+z
1/2+x,-y,z
1/4-y,3/4-x,3/4+z
3/4+y,3/4+x,3/4+z
1/2+x,1/2+y,1/2+z
3/4-y,1/4+x,3/4+z
1/2-x,-y,1/2+z
3/4+y,3/4-x,1/4+z
1/2+x,1/2-y,-z
-x,1/2+y,1/2-z
1/4+y,3/4+x,3/4-z
3/4-y,3/4-x,3/4-z
1/2-x,1/2-y,1/2-z
1/4+y,3/4-x,1/4-z
1/2+x,y,1/2-z
1/4-y,1/4+x,3/4-z
1/2-x,1/2+y,z
x,1/2-y,1/2+z
3/4-y,1/4-x,1/4+z
1/4+y,1/4+x,1/4+z
loop_
_atom_site_type_symbol
_atom_site_label
_atom_site_fract_x
_atom_site_fract_y
_atom_site_fract_z
Si Si1 0.750000 0.080992 0.000000
Si Si2 0.914466 0.204742 0.300960
Si Si3 0.327510 0.384627 0.540566
O O1 0.807493 0.109882 0.895581
O O2 0.712381 0.037620 0.875000
O O3 0.922892 0.281185 0.333654
O O4 0.844457 0.179026 0.358608
O O5 0.933042 0.183042 0.125000
O O6 0.250000 0.393473 0.500000
O O7 0.362315 0.387686 0.375000
#
# Coordination Sequence:
#
# PCOD9574176 Si02
#       3
#    16  32  32
#     4  12  18  36  58  90 130 180 210 264 332 394
#     4  11  24  47  72  96 131 180 226 275 337 398
#     4  12  23  39  66 100 138 176 226 273 336 398
#
# _framework density 22.314681
#
# number of rings (size 3 to 8) (size 9 to 14) (size 15 to 20)
#    0.000    0.400    6.000    6.000    0.000    0.000 
#    3.600    4.000    0.000    0.000    0.000    0.000 
#    0.000    0.000    0.000    0.000    0.000    0.000 
#
# Total GULP energy -223019.794342 kJ/mol
# GULP energy per Si atom -5575.494859 kJ/mol
# Density = 2.226389 g / cm^3
# Si number density = 22.314681 Si / 1000 Ang^3
#
#
#
# Elastic Constant Matrix: (Units=GPa)
#
#
# Indices 1 2 3 4 5 6 
#
# 1 39.6655 40.4975 25.1214 0.0000 0.0000 0.0000
# 2 40.4975 39.6676 25.1220 0.0000 0.0000 0.0000
# 3 25.1214 25.1220 188.0764 0.0000 0.0000 0.0000
# 4 0.0000 0.0000 0.0000 12.9336 0.0000 0.0000
# 5 0.0000 0.0000 0.0000 0.0000 12.9397 0.0000
# 6 0.0000 0.0000 0.0000 0.0000 0.0000 89.0544
#
#
#
# Elastic Compliance Matrix: (Units=1/GPa)
#
#
# Indices 1 2 3 4 5 6 
#
# 1 -0.594895 0.608493 -0.001818 0.000000 0.000000 0.000000
# 2 0.608493 -0.594864 -0.001818 0.000000 0.000000 0.000000
# 3 -0.001818 -0.001818 0.005803 0.000000 0.000000 0.000000
# 4 0.000000 0.000000 0.000000 0.077318 0.000000 0.000000
# 5 0.000000 0.000000 0.000000 0.000000 0.077282 0.000000
# 6 0.000000 0.000000 0.000000 0.000000 0.000000 0.011229
#
#
# Mechanical properties :
#
#
# Convention : Reuss Voigt Hill
#
# Bulk Modulus (GPa) = 38.82407 49.87681 44.35044
# Shear Modulus (GPa) = -2.25301 34.76345 16.25522
#
# Velocity S-wave (km/s) = -1.00591 3.95127 2.70192
# Velocity P-wave (km/s) = 4.01087 6.57395 5.44536
#
# Compressibility (1/GPa) = 0.02575722
#
# Stress axis : x y z
#
# Youngs Moduli (GPa) = -1.68097 -1.68106 172.33123
#
# Poissons Ratio (x) = 1.02291 0.31338
# Poissons Ratio (y) = 1.02286 0.31338
# Poissons Ratio (z) = -0.00306 -0.00306
#
# Static dielectric constant tensor:
#      x y z
#    x 2.000140 0.000000 0.000000 
#    y 0.000000 2.000240 0.000000 
#    z 0.000000 0.000000 1.862100 
# 
# From -- ./inp_files/1485.got.cif
#   From: 2010.05.17/outbox.cif.g08.bks.cpg/sg142_1_cif.got.tgz:1485.got - 2010.05.20 13:39:18.
