data_PCOD9574762
_publ_section_title
;
Structure prediction by ZEFSAII (Michael W. Deem and Ramdas Pophale) SiO2 
 PCOD9574762
Probable space group: R 3
;
_chemical_formula_sum "Si O2"
_cell_formula_units_Z 36
_cell_length_a 16.441127
_cell_length_b 16.441127
_cell_length_c 5.724301
_cell_angle_alpha 90.000000
_cell_angle_beta 90.000000
_cell_angle_gamma 120.000000
_cell_volume 1340.035371
_symmetry_space_group_name_H-M "R 3"
_symmetry_group_IT_number 146
_symmetry_cell_setting 'hexagonal'
loop_
_space_group_symop_operation_xyz
x,y,z
-y,x-y,z
-x+y,-x,z
2/3+x,1/3+y,1/3+z
2/3-y,1/3+x-y,1/3+z
2/3-x+y,1/3-x,1/3+z
1/3+x,2/3+y,2/3+z
1/3-y,2/3+x-y,2/3+z
1/3-x+y,2/3-x,2/3+z
loop_
_atom_site_type_symbol
_atom_site_label
_atom_site_fract_x
_atom_site_fract_y
_atom_site_fract_z
Si Si1 0.126086 0.305979 0.296440
Si Si2 0.156741 0.024217 0.099138
Si Si3 0.149333 0.992821 0.603040
Si Si4 0.086300 0.682408 0.726395
O O1 0.169690 0.415905 0.279267
O O2 0.198905 0.273697 0.219278
O O3 0.033364 0.246275 0.134478
O O4 0.089287 0.262329 0.551409
O O5 0.106658 0.999439 0.353781
O O6 0.216396 0.135710 0.074322
O O7 0.102995 0.983852 0.853831
O O8 0.032413 0.735050 0.819220
#
# Coordination Sequence:
#
# PCOD9574762 Si02
#       4
#     9   9   9   9
#     4  10  24  41  70 103 137 187 233 299 349 432
#     4  10  25  43  62 103 134 186 231 289 347 427
#     4  10  23  41  67 100 133 174 239 286 350 412
#     4  12  24  45  71 106 150 189 237 298 366 427
#
# _framework density 26.864961000000001
#
# number of rings (size 3 to 8) (size 9 to 14) (size 15 to 20)
#    1.500    0.000    2.500    1.500    7.000    2.000 
#    1.500    0.000    0.000    0.000    0.000    0.000 
#    0.000    0.000    0.000    0.000    0.000    0.000 
#
# Total GULP energy -66988.961259 kJ/mol
# GULP energy per Si atom -5582.413438 kJ/mol
# Density = 2.680381 g / cm^3
# Si number density = 26.864961 Si / 1000 Ang^3
#
#
#
# Elastic Constant Matrix: (Units=GPa)
#
#
# Indices 1 2 3 4 5 6 
#
# 1 95.4774 11.4964 17.8109 8.8658 -4.8406 0.0032
# 2 11.4964 95.4804 17.8103 -8.8537 4.8442 0.0029
# 3 17.8109 17.8103 222.7758 0.0123 0.0085 0.0046
# 4 8.8658 -8.8537 0.0123 12.0780 -0.0037 4.8459
# 5 -4.8406 4.8442 0.0085 -0.0037 12.0759 8.8651
# 6 0.0032 0.0029 0.0046 4.8459 8.8651 41.9913
#
#
#
# Elastic Compliance Matrix: (Units=1/GPa)
#
#
# Indices 1 2 3 4 5 6 
#
# 1 0.012254 -0.002649 -0.000768 -0.010935 0.005972 0.000001
# 2 -0.002649 0.012252 -0.000768 0.010925 -0.005972 0.000000
# 3 -0.000768 -0.000768 0.004612 -0.000005 -0.000003 0.000001
# 4 -0.010935 0.010925 -0.000005 0.103633 0.000055 -0.011971
# 5 0.005972 -0.005972 -0.000003 0.000055 0.103672 -0.021893
# 6 0.000001 0.000000 0.000001 -0.011971 -0.021893 0.029818
#
#
# Mechanical properties :
#
#
# Convention : Reuss Voigt Hill
#
# Bulk Modulus (GPa) = 48.19826 56.44098 52.31962
# Shear Modulus (GPa) = 17.76043 37.67010 27.71527
#
# Velocity S-wave (km/s) = 2.57398 3.74866 3.21542
# Velocity P-wave (km/s) = 5.17819 6.30804 5.77083
#
# Compressibility (1/GPa) = 0.02074763
#
# Stress axis : x y z
#
# Youngs Moduli (GPa) = 81.60626 81.62184 216.84508
#
# Poissons Ratio (x) = 0.21623 0.16644
# Poissons Ratio (y) = 0.21619 0.16655
# Poissons Ratio (z) = 0.06264 0.06269
#
# Static dielectric constant tensor:
#      x y z
#    x 2.058610 0.000000 0.000000 
#    y 0.000000 2.058610 0.000000 
#    z 0.000000 0.000000 2.214440 
# 
# From -- ./inp_files/202.got.cif
#   From: 2010.05.17/outbox.cif.g08.bks.cpg/sg146_cif.got.tgz:202.got - 2010.05.20 13:48:23.
