data_PCOD9574604
_publ_section_title
;
Structure prediction by ZEFSAII (Michael W. Deem and Ramdas Pophale) SiO2 
 PCOD9574604
Probable space group: P 32
;
_chemical_formula_sum "Si O2"
_cell_formula_units_Z 21
_cell_length_a 8.611537
_cell_length_b 8.611537
_cell_length_c 14.252465
_cell_angle_alpha 90.000000
_cell_angle_beta 90.000000
_cell_angle_gamma 120.000000
_cell_volume 915.338983
_symmetry_space_group_name_H-M "P 32"
_symmetry_group_IT_number 145
_symmetry_cell_setting 'hexagonal'
loop_
_space_group_symop_operation_xyz
x,y,z
-y,x-y,2/3+z
-x+y,-x,1/3+z
loop_
_atom_site_type_symbol
_atom_site_label
_atom_site_fract_x
_atom_site_fract_y
_atom_site_fract_z
Si Si1 0.000014 0.241556 0.353910
Si Si2 0.369001 0.573964 0.280652
Si Si3 0.758450 0.000013 0.687243
Si Si4 0.426066 0.631009 0.760515
Si Si5 0.795050 0.426061 0.093840
Si Si6 0.000000 0.000010 0.853907
Si Si7 0.630997 0.426041 0.280644
O O1 0.818106 0.241689 0.380369
O O2 0.181899 0.423622 0.327458
O O3 0.037004 0.158382 0.447780
O O4 0.963048 0.121413 0.260034
O O5 0.466421 0.733235 0.353911
O O6 0.319520 0.639032 0.187245
O O7 0.500002 0.500008 0.256679
O O8 0.758268 0.181894 0.660781
O O9 0.878624 0.037021 0.781111
O O10 0.576413 0.818111 0.713712
O O11 0.841616 0.963028 0.593368
O O12 0.500008 0.500003 0.784504
O O13 0.680462 0.360968 0.187234
O O14 0.733230 0.266810 0.020570
#
# Coordination Sequence:
#
# PCOD9574604 Si02
#       7
#     3   3   3   3   3   3   3
#     4  11  23  46  72 108 148 196 252 308 380 440
#     4  12  28  47  74 107 150 197 252 311 376 448
#     4  11  23  46  72 108 148 196 252 308 380 440
#     4  12  28  47  74 107 150 197 252 311 376 448
#     4  12  28  47  74 107 150 197 252 311 376 448
#     4  10  24  38  78 102 146 186 250 302 372 430
#     4  12  28  47  74 107 150 197 252 311 376 448
#
# _framework density 22.942322000000001
#
# number of rings (size 3 to 8) (size 9 to 14) (size 15 to 20)
#    0.000    0.571    2.857    4.286    8.000    1.143 
#    0.000    0.000    0.000    0.000    0.000    0.000 
#    0.000    0.000    0.000    0.000    0.000    0.000 
#
# Total GULP energy -117546.465341 kJ/mol
# GULP energy per Si atom -5597.450731 kJ/mol
# Density = 2.289010 g / cm^3
# Si number density = 22.942322 Si / 1000 Ang^3
#
#
#
# Elastic Constant Matrix: (Units=GPa)
#
#
# Indices 1 2 3 4 5 6 
#
# 1 49.3358 -14.3825 14.5847 0.0005 0.0000 0.0000
# 2 -14.3825 49.3358 14.5847 -0.0005 0.0000 0.0000
# 3 14.5847 14.5847 173.4122 0.0000 0.0000 0.0000
# 4 0.0005 -0.0005 0.0000 32.4664 0.0000 0.0000
# 5 0.0000 0.0000 0.0000 0.0000 32.4664 0.0005
# 6 0.0000 0.0000 0.0000 0.0000 0.0005 31.8591
#
#
#
# Elastic Compliance Matrix: (Units=1/GPa)
#
#
# Indices 1 2 3 4 5 6 
#
# 1 0.023232 0.007538 -0.002588 0.000000 0.000000 0.000000
# 2 0.007538 0.023232 -0.002588 0.000000 0.000000 0.000000
# 3 -0.002588 -0.002588 0.006202 0.000000 0.000000 0.000000
# 4 0.000000 0.000000 0.000000 0.030801 0.000000 0.000000
# 5 0.000000 0.000000 0.000000 0.000000 0.030801 -0.000001
# 6 0.000000 0.000000 0.000000 0.000000 -0.000001 0.031388
#
#
# Mechanical properties :
#
#
# Convention : Reuss Voigt Hill
#
# Bulk Modulus (GPa) = 17.42496 33.51754 25.47125
# Shear Modulus (GPa) = 31.23801 36.51149 33.87475
#
# Velocity S-wave (km/s) = 3.69397 3.99362 3.84672
# Velocity P-wave (km/s) = 5.07991 5.99221 5.55482
#
# Compressibility (1/GPa) = 0.05738894
#
# Stress axis : x y z
#
# Youngs Moduli (GPa) = 43.04476 43.04476 161.24087
#
# Poissons Ratio (x) = -0.32445 0.41726
# Poissons Ratio (y) = -0.32445 0.41726
# Poissons Ratio (z) = 0.11139 0.11139
#
# Static dielectric constant tensor:
#      x y z
#    x 1.873960 0.000000 0.000000 
#    y 0.000000 1.873960 0.000000 
#    z 0.000000 0.000000 1.857400 
# 
# From -- ./inp_files/638.got.cif
#   From: 2010.05.17/outbox.cif.g08.bks.cpg/sg145_cif.got.tgz:638.got - 2010.05.20 13:47:28.
