data_PCOD9574100
_publ_section_title
;
Structure prediction by ZEFSAII (Michael W. Deem and Ramdas Pophale) SiO2 
 PCOD9574100
Probable space group: I 41/A C D
;
_chemical_formula_sum "Si O2"
_cell_formula_units_Z 128
_cell_length_a 20.674280
_cell_length_b 20.674280
_cell_length_c 11.219066
_cell_angle_alpha 90.000000
_cell_angle_beta 90.000000
_cell_angle_gamma 90.000000
_cell_volume 4795.318861
_symmetry_space_group_name_H-M "I 41/A C D"
_symmetry_group_IT_number 142
_space_group.IT_coordinate_system_code '2'
_symmetry_cell_setting 'tetragonal'
loop_
_space_group_symop_operation_xyz
x,y,z
1/4-y,3/4+x,1/4+z
-x,1/2-y,z
1/4+y,1/4-x,3/4+z
x,-y,1/2-z
1/2-x,y,-z
3/4+y,1/4+x,1/4-z
1/4-y,1/4-x,1/4-z
-x,-y,-z
3/4+y,1/4-x,3/4-z
x,1/2+y,-z
3/4-y,3/4+x,1/4-z
-x,y,1/2+z
1/2+x,-y,z
1/4-y,3/4-x,3/4+z
3/4+y,3/4+x,3/4+z
1/2+x,1/2+y,1/2+z
3/4-y,1/4+x,3/4+z
1/2-x,-y,1/2+z
3/4+y,3/4-x,1/4+z
1/2+x,1/2-y,-z
-x,1/2+y,1/2-z
1/4+y,3/4+x,3/4-z
3/4-y,3/4-x,3/4-z
1/2-x,1/2-y,1/2-z
1/4+y,3/4-x,1/4-z
1/2+x,y,1/2-z
1/4-y,1/4+x,3/4-z
1/2-x,1/2+y,z
x,1/2-y,1/2+z
3/4-y,1/4-x,1/4+z
1/4+y,1/4+x,1/4+z
loop_
_atom_site_type_symbol
_atom_site_label
_atom_site_fract_x
_atom_site_fract_y
_atom_site_fract_z
Si Si1 0.092571 0.479843 0.907235
Si Si2 0.020961 0.116917 0.832125
Si Si3 0.347892 0.461959 0.635677
Si Si4 0.870779 0.214365 0.658556
O O1 0.041109 0.427514 0.862748
O O2 0.158858 0.454577 0.843320
O O3 0.046378 0.543784 0.903929
O O4 0.122291 0.488493 0.039432
O O5 0.010001 0.142478 0.699075
O O6 0.088743 0.079237 0.826752
O O7 0.023165 0.151579 0.961404
O O8 0.322546 0.500000 0.750000
O O9 0.893322 0.143322 0.625000
#
# Coordination Sequence:
#
# PCOD9574100 Si02
#       4
#    32  32  32  32
#     4  11  23  39  63  93 130 171 214 264 323 390
#     4  11  22  42  68  94 128 171 222 263 310 387
#     4  11  22  38  63  95 131 171 213 269 330 385
#     4  11  24  43  69  98 128 169 215 267 324 383
#
# _framework density 26.692699000000001
#
# number of rings (size 3 to 8) (size 9 to 14) (size 15 to 20)
#    0.000    1.000    0.000   10.500    0.000    2.000 
#    0.000    3.750    0.000   18.000    0.000    0.000 
#    0.000    0.000    0.000    0.000    0.000    0.000 
#
# Total GULP energy -356507.448047 kJ/mol
# GULP energy per Si atom -5570.428876 kJ/mol
# Density = 2.663195 g / cm^3
# Si number density = 26.692699 Si / 1000 Ang^3
#
#
#
# Elastic Constant Matrix: (Units=GPa)
#
#
# Indices 1 2 3 4 5 6 
#
# 1 49.9543 32.6633 28.4935 0.0000 0.0000 0.0000
# 2 32.6633 49.9543 28.4935 0.0000 0.0000 0.0000
# 3 28.4935 28.4935 173.2457 0.0000 0.0000 0.0000
# 4 0.0000 0.0000 0.0000 11.1876 0.0000 0.0000
# 5 0.0000 0.0000 0.0000 0.0000 11.1876 0.0000
# 6 0.0000 0.0000 0.0000 0.0000 0.0000 23.4365
#
#
#
# Elastic Compliance Matrix: (Units=1/GPa)
#
#
# Indices 1 2 3 4 5 6 
#
# 1 0.035743 -0.022090 -0.002245 0.000000 0.000000 0.000000
# 2 -0.022090 0.035743 -0.002245 0.000000 0.000000 0.000000
# 3 -0.002245 -0.002245 0.006511 0.000000 0.000000 0.000000
# 4 0.000000 0.000000 0.000000 0.089385 0.000000 0.000000
# 5 0.000000 0.000000 0.000000 0.000000 0.089385 0.000000
# 6 0.000000 0.000000 0.000000 0.000000 0.000000 0.042668
#
#
# Mechanical properties :
#
#
# Convention : Reuss Voigt Hill
#
# Bulk Modulus (GPa) = 40.26652 50.27277 45.26965
# Shear Modulus (GPa) = 13.85519 21.39595 17.62557
#
# Velocity S-wave (km/s) = 2.28077 2.83427 2.57245
# Velocity P-wave (km/s) = 4.69615 5.43926 5.08131
#
# Compressibility (1/GPa) = 0.02483452
#
# Stress axis : x y z
#
# Youngs Moduli (GPa) = 27.97736 27.97736 153.59178
#
# Poissons Ratio (x) = 0.61803 0.34488
# Poissons Ratio (y) = 0.61803 0.34488
# Poissons Ratio (z) = 0.06282 0.06282
#
# Static dielectric constant tensor:
#      x y z
#    x 2.047420 0.000000 0.000000 
#    y 0.000000 2.047420 0.000000 
#    z 0.000000 0.000000 2.340280 
# 
# From -- ./inp_files/3477.got.cif
#   From: 2010.05.17/outbox.cif.g08.bks.cpg/sg142_2_cif.got.tgz:3477.got - 2010.05.20 13:39:18.
