data_PCOD9574534
_publ_section_title
;
Structure prediction by ZEFSAII (Michael W. Deem and Ramdas Pophale) SiO2 
 PCOD9574534
Probable space group: P 32
;
_chemical_formula_sum "Si O2"
_cell_formula_units_Z 18
_cell_length_a 9.919317
_cell_length_b 9.919317
_cell_length_c 7.284708
_cell_angle_alpha 90.000000
_cell_angle_beta 90.000000
_cell_angle_gamma 120.000000
_cell_volume 620.735122
_symmetry_space_group_name_H-M "P 32"
_symmetry_group_IT_number 145
_symmetry_cell_setting 'hexagonal'
loop_
_space_group_symop_operation_xyz
x,y,z
-y,x-y,2/3+z
-x+y,-x,1/3+z
loop_
_atom_site_type_symbol
_atom_site_label
_atom_site_fract_x
_atom_site_fract_y
_atom_site_fract_z
Si Si1 0.358999 0.872752 0.492170
Si Si2 0.864380 0.734987 0.463096
Si Si3 0.615037 0.214658 0.228637
Si Si4 0.155589 0.803309 0.144426
Si Si5 0.365274 0.421956 0.329896
Si Si6 0.326888 0.005519 0.816482
O O1 0.303151 0.847198 0.282973
O O2 0.537711 0.917670 0.502034
O O3 0.334918 0.001577 0.599819
O O4 0.243015 0.720671 0.617450
O O5 0.728273 0.565118 0.526058
O O6 0.816807 0.861629 0.522568
O O7 0.016693 0.750958 0.549717
O O8 0.840278 0.711836 0.242407
O O9 0.722059 0.363351 0.100839
O O10 0.631977 0.067524 0.165003
O O11 0.201293 0.847787 0.928107
O O12 0.527871 0.516542 0.217155
#
# Coordination Sequence:
#
# PCOD9574534 Si02
#       6
#     3   3   3   3   3   3
#     4  12  21  35  66  96 122 163 218 278 327 395
#     4   8  20  41  53  83 134 168 197 273 326 403
#     4   9  18  36  54  76 120 167 203 252 315 390
#     4  10  23  35  60  93 134 159 211 276 348 373
#     4  10  19  36  59  89 133 163 207 274 330 392
#     4   9  21  37  60  89 127 162 208 271 328 385
#
# _framework density 28.997876999999999
#
# number of rings (size 3 to 8) (size 9 to 14) (size 15 to 20)
#    1.000    1.333    1.667    1.000    2.333    0.000 
#   18.000    3.333    0.000    2.000    0.000    0.000 
#    0.000    0.000    0.000    0.000    0.000    0.000 
#
# Total GULP energy -100239.476783 kJ/mol
# GULP energy per Si atom -5568.859821 kJ/mol
# Density = 2.893188 g / cm^3
# Si number density = 28.997877 Si / 1000 Ang^3
#
#
#
# Elastic Constant Matrix: (Units=GPa)
#
#
# Indices 1 2 3 4 5 6 
#
# 1 132.1249 40.0759 31.1871 10.9405 18.0248 0.0000
# 2 40.0759 132.1249 31.1871 -10.9405 -18.0248 0.0000
# 3 31.1871 31.1871 101.8559 0.0000 0.0000 0.0000
# 4 10.9405 -10.9405 0.0000 33.7115 0.0000 -18.0248
# 5 18.0248 -18.0248 0.0000 0.0000 33.7115 10.9405
# 6 0.0000 0.0000 0.0000 -18.0248 10.9405 46.0245
#
#
#
# Elastic Compliance Matrix: (Units=1/GPa)
#
#
# Indices 1 2 3 4 5 6 
#
# 1 0.010879 -0.004348 -0.002000 -0.004942 -0.008142 0.000000
# 2 -0.004348 0.010879 -0.002000 0.004942 0.008142 0.000000
# 3 -0.002000 -0.002000 0.011042 0.000000 0.000000 0.000000
# 4 -0.004942 0.004942 0.000000 0.041577 0.000000 0.016283
# 5 -0.008142 0.008142 0.000000 0.000000 0.041577 -0.009883
# 6 0.000000 0.000000 0.000000 0.016283 -0.009883 0.030454
#
#
# Mechanical properties :
#
#
# Convention : Reuss Voigt Hill
#
# Bulk Modulus (GPa) = 62.08847 63.44511 62.76679
# Shear Modulus (GPa) = 29.67840 40.26652 34.97246
#
# Velocity S-wave (km/s) = 3.20264 3.73044 3.47657
# Velocity P-wave (km/s) = 5.92737 6.36252 6.14879
#
# Compressibility (1/GPa) = 0.01610605
#
# Stress axis : x y z
#
# Youngs Moduli (GPa) = 91.91799 91.91799 90.55933
#
# Poissons Ratio (x) = 0.39963 0.18111
# Poissons Ratio (y) = 0.39963 0.18111
# Poissons Ratio (z) = 0.18383 0.18383
#
# Static dielectric constant tensor:
#      x y z
#    x 2.313490 0.000000 0.000000 
#    y 0.000000 2.313490 0.000000 
#    z 0.000000 0.000000 2.382240 
# 
# From -- ./inp_files/392.got.cif
#   From: 2010.05.17/outbox.cif.g08.bks.cpg/sg145_cif.got.tgz:392.got - 2010.05.20 13:47:28.
