data_PCOD9574952
_publ_section_title
;
Structure prediction by ZEFSAII (Michael W. Deem and Ramdas Pophale) SiO2 
 PCOD9574952
Probable space group: P -3
;
_chemical_formula_sum "Si O2"
_cell_formula_units_Z 34
_cell_length_a 11.292876
_cell_length_b 11.292876
_cell_length_c 15.941556
_cell_angle_alpha 90.000000
_cell_angle_beta 90.000000
_cell_angle_gamma 120.000000
_cell_volume 1760.639576
_symmetry_space_group_name_H-M "P -3"
_symmetry_group_IT_number 147
_symmetry_cell_setting 'hexagonal'
loop_
_space_group_symop_operation_xyz
x,y,z
-y,x-y,z
-x+y,-x,z
-x,-y,-z
y,-x+y,-z
x-y,x,-z
loop_
_atom_site_type_symbol
_atom_site_label
_atom_site_fract_x
_atom_site_fract_y
_atom_site_fract_z
Si Si1 0.006053 0.270286 0.683376
Si Si2 0.987986 0.721396 0.675084
Si Si3 0.339029 0.933776 0.510706
Si Si4 0.423762 0.849104 0.045343
Si Si5 0.666668 0.333334 0.673492
Si Si6 0.333334 0.666668 0.524702
Si Si7 0.471444 0.518474 0.235903
O O1 0.125486 0.235271 0.680996
O O2 0.992527 0.303425 0.586623
O O3 0.861969 0.146497 0.712003
O O4 0.039648 0.398905 0.742109
O O5 0.953315 0.667625 0.578791
O O6 0.024241 0.624756 0.730027
O O7 0.290391 0.779784 0.544702
O O8 0.500000 0.000000 0.500000
O O9 0.259112 0.739655 0.029940
O O10 0.445413 0.894035 0.142664
O O11 0.500000 0.000000 0.000000
O O12 0.666668 0.333334 0.575204
O O13 0.605447 0.424373 0.705832
#
# Coordination Sequence:
#
# PCOD9574952 Si02
#       7
#     6   6   6   6   2   2   6
#     4  12  25  39  59  87 123 165 213 270 326 373
#     4  12  24  40  59  86 124 165 214 270 325 374
#     4  12  22  37  55  86 115 165 220 272 321 377
#     4  10  22  42  72 104 136 175 214 263 330 408
#     4  12  15  39  69  90 103 161 229 258 276 375
#     4  12  21  33  63  81 121 161 229 270 312 372
#     4  12  21  41  68  91 119 166 218 247 305 394
#
# _framework density 19.311164000000002
#
# number of rings (size 3 to 8) (size 9 to 14) (size 15 to 20)
#    0.353    0.000    7.059    3.529    0.000    1.412 
#    1.059    1.765    0.000    0.353    0.000    0.000 
#    0.000    0.000    0.000    0.000    0.000    0.000 
#
# Total GULP energy -189644.858334 kJ/mol
# GULP energy per Si atom -5577.789951 kJ/mol
# Density = 1.926721 g / cm^3
# Si number density = 19.311164 Si / 1000 Ang^3
#
#
#
# Elastic Constant Matrix: (Units=GPa)
#
#
# Indices 1 2 3 4 5 6 
#
# 1 76.4096 5.8588 18.6795 7.3080 0.0155 0.0006
# 2 5.8588 76.4090 18.6795 -7.3084 -0.0145 0.0003
# 3 18.6795 18.6795 61.7759 -0.0001 -0.0001 -0.0001
# 4 7.3080 -7.3084 -0.0001 15.5374 -0.0007 -0.0151
# 5 0.0155 -0.0145 -0.0001 -0.0007 15.5373 7.3084
# 6 0.0006 0.0003 -0.0001 -0.0151 7.3084 35.2752
#
#
#
# Elastic Compliance Matrix: (Units=1/GPa)
#
#
# Indices 1 2 3 4 5 6 
#
# 1 0.014897 -0.000807 -0.004260 -0.007387 -0.000016 0.000000
# 2 -0.000807 0.014897 -0.004261 0.007387 0.000015 0.000000
# 3 -0.004260 -0.004261 0.018764 0.000000 0.000000 0.000000
# 4 -0.007387 0.007387 0.000000 0.071310 0.000003 0.000030
# 5 -0.000016 0.000015 0.000000 0.000003 0.071311 -0.014774
# 6 0.000000 0.000000 0.000000 0.000030 -0.014774 0.031409
#
#
# Mechanical properties :
#
#
# Convention : Reuss Voigt Hill
#
# Bulk Modulus (GPa) = 33.44223 33.44780 33.44502
# Shear Modulus (GPa) = 19.90344 24.69510 22.29927
#
# Velocity S-wave (km/s) = 3.21389 3.57991 3.40183
# Velocity P-wave (km/s) = 5.57918 5.86905 5.72595
#
# Compressibility (1/GPa) = 0.02990231
#
# Stress axis : x y z
#
# Youngs Moduli (GPa) = 67.12641 67.12536 53.29333
#
# Poissons Ratio (x) = 0.05419 0.22705
# Poissons Ratio (y) = 0.05419 0.22706
# Poissons Ratio (z) = 0.28599 0.28599
#
# Static dielectric constant tensor:
#      x y z
#    x 1.741490 0.000000 0.000000 
#    y 0.000000 1.741500 0.000000 
#    z 0.000000 0.000000 1.646990 
# 
# From -- ./inp_files/952.got.cif
#   From: 2010.05.17/outbox.cif.g08.bks.cpg/sg147_cif.got.tgz:952.got - 2010.05.20 13:49:32.
