data_PCOD9574382
_publ_section_title
;
Structure prediction by ZEFSAII (Michael W. Deem and Ramdas Pophale) SiO2 
 PCOD9574382
Probable space group: P 31
;
_chemical_formula_sum "Si O2"
_cell_formula_units_Z 15
_cell_length_a 9.940502
_cell_length_b 9.940502
_cell_length_c 7.400140
_cell_angle_alpha 90.000000
_cell_angle_beta 90.000000
_cell_angle_gamma 120.000000
_cell_volume 633.267502
_symmetry_space_group_name_H-M "P 31"
_symmetry_group_IT_number 144
_symmetry_cell_setting 'hexagonal'
loop_
_space_group_symop_operation_xyz
x,y,z
-y,x-y,1/3+z
-x+y,-x,2/3+z
loop_
_atom_site_type_symbol
_atom_site_label
_atom_site_fract_x
_atom_site_fract_y
_atom_site_fract_z
Si Si1 0.989891 0.094048 0.620740
Si Si2 0.268083 0.843562 0.097810
Si Si3 0.425553 0.280076 0.183011
Si Si4 0.481714 0.981526 0.789065
Si Si5 0.585258 0.074799 0.157563
O O1 0.817091 0.072135 0.603296
O O2 0.032470 0.996112 0.482947
O O3 0.094733 0.272377 0.555130
O O4 0.323183 0.930559 0.900819
O O5 0.173676 0.661030 0.085541
O O6 0.437770 0.903147 0.183814
O O7 0.527712 0.449793 0.273548
O O8 0.520154 0.190189 0.201570
O O9 0.396770 0.287241 0.970434
O O10 0.611896 0.081063 0.943750
#
# Coordination Sequence:
#
# PCOD9574382 Si02
#       5
#     3   3   3   3   3
#     4  11  24  43  66  96 133 174 228 277 340 408
#     4   9  22  44  60 100 125 172 220 268 339 392
#     4  11  23  44  66  99 127 179 223 276 348 389
#     4  10  22  44  62  93 142 159 235 272 326 429
#     4   9  25  39  66  96 129 174 220 279 337 400
#
# _framework density 23.686668999999998
#
# number of rings (size 3 to 8) (size 9 to 14) (size 15 to 20)
#    1.200    0.800    2.000    0.000    5.600    1.600 
#   10.800    0.000    0.000    0.000    0.000    0.000 
#    0.000    0.000    0.000    0.000    0.000    0.000 
#
# Total GULP energy -83553.480727 kJ/mol
# GULP energy per Si atom -5570.232048 kJ/mol
# Density = 2.363276 g / cm^3
# Si number density = 23.686669 Si / 1000 Ang^3
#
#
#
# Elastic Constant Matrix: (Units=GPa)
#
#
# Indices 1 2 3 4 5 6 
#
# 1 47.4080 14.9933 -3.0380 2.9266 -0.8905 0.0000
# 2 14.9933 47.4080 -3.0380 -2.9266 0.8905 0.0000
# 3 -3.0380 -3.0380 57.2251 0.0000 0.0000 0.0000
# 4 2.9266 -2.9266 0.0000 35.1287 0.0000 0.8905
# 5 -0.8905 0.8905 0.0000 0.0000 35.1287 2.9266
# 6 0.0000 0.0000 0.0000 0.8905 2.9266 16.2074
#
#
#
# Elastic Compliance Matrix: (Units=1/GPa)
#
#
# Indices 1 2 3 4 5 6 
#
# 1 0.023737 -0.007629 0.000855 -0.002613 0.000795 0.000000
# 2 -0.007629 0.023737 0.000855 0.002613 -0.000795 0.000000
# 3 0.000855 0.000855 0.017566 0.000000 0.000000 0.000000
# 4 -0.002613 0.002613 0.000000 0.028942 0.000000 -0.001590
# 5 0.000795 -0.000795 0.000000 0.000000 0.028942 -0.005226
# 6 0.000000 0.000000 0.000000 -0.001590 -0.005226 0.062731
#
#
# Mechanical properties :
#
#
# Convention : Reuss Voigt Hill
#
# Bulk Modulus (GPa) = 18.79573 18.87506 18.83540
# Shear Modulus (GPa) = 23.23127 26.83454 25.03290
#
# Velocity S-wave (km/s) = 3.13513 3.36950 3.25443
# Velocity P-wave (km/s) = 4.58887 4.80874 4.70009
#
# Compressibility (1/GPa) = 0.05320357
#
# Stress axis : x y z
#
# Youngs Moduli (GPa) = 42.12808 42.12808 56.92930
#
# Poissons Ratio (x) = 0.32138 -0.04869
# Poissons Ratio (y) = 0.32138 -0.04869
# Poissons Ratio (z) = -0.03603 -0.03603
#
# Static dielectric constant tensor:
#      x y z
#    x 1.951560 0.000000 0.000000 
#    y 0.000000 1.951560 0.000000 
#    z 0.000000 0.000000 1.905490 
# 
# From -- ./inp_files/90.got.cif
#   From: 2010.05.17/outbox.cif.g08.bks.cpg/sg144_cif.got.tgz:90.got - 2010.05.20 13:46:34.
