data_PCOD9574237
_publ_section_title
;
Structure prediction by ZEFSAII (Michael W. Deem and Ramdas Pophale) SiO2 
 PCOD9574237
Probable space group: I 41/A C D
;
_chemical_formula_sum "Si O2"
_cell_formula_units_Z 80
_cell_length_a 12.181046
_cell_length_b 12.181046
_cell_length_c 20.991418
_cell_angle_alpha 90.000000
_cell_angle_beta 90.000000
_cell_angle_gamma 90.000000
_cell_volume 3114.662136
_symmetry_space_group_name_H-M "I 41/A C D"
_symmetry_group_IT_number 142
_space_group.IT_coordinate_system_code '2'
_symmetry_cell_setting 'tetragonal'
loop_
_space_group_symop_operation_xyz
x,y,z
1/4-y,3/4+x,1/4+z
-x,1/2-y,z
1/4+y,1/4-x,3/4+z
x,-y,1/2-z
1/2-x,y,-z
3/4+y,1/4+x,1/4-z
1/4-y,1/4-x,1/4-z
-x,-y,-z
3/4+y,1/4-x,3/4-z
x,1/2+y,-z
3/4-y,3/4+x,1/4-z
-x,y,1/2+z
1/2+x,-y,z
1/4-y,3/4-x,3/4+z
3/4+y,3/4+x,3/4+z
1/2+x,1/2+y,1/2+z
3/4-y,1/4+x,3/4+z
1/2-x,-y,1/2+z
3/4+y,3/4-x,1/4+z
1/2+x,1/2-y,-z
-x,1/2+y,1/2-z
1/4+y,3/4+x,3/4-z
3/4-y,3/4-x,3/4-z
1/2-x,1/2-y,1/2-z
1/4+y,3/4-x,1/4-z
1/2+x,y,1/2-z
1/4-y,1/4+x,3/4-z
1/2-x,1/2+y,z
x,1/2-y,1/2+z
3/4-y,1/4-x,1/4+z
1/4+y,1/4+x,1/4+z
loop_
_atom_site_type_symbol
_atom_site_label
_atom_site_fract_x
_atom_site_fract_y
_atom_site_fract_z
Si Si1 0.500000 0.250000 0.019131
Si Si2 0.032371 0.933154 0.416163
Si Si3 0.692159 0.360811 0.569073
O O1 0.391916 0.259365 0.060597
O O2 0.503452 0.363664 0.979178
O O3 0.088926 0.838926 0.375000
O O4 0.929080 0.984088 0.378430
O O5 0.124317 0.027472 0.422481
O O6 0.750000 0.367095 0.500000
#
# Coordination Sequence:
#
# PCOD9574237 Si02
#       3
#    16  32  32
#     4  12  27  55  74 112 156 201 256 325 382 458
#     4  12  28  48  78 113 155 197 263 316 376 471
#     4  12  28  46  79 109 153 206 251 313 393 446
#
# _framework density 25.684968999999999
#
# number of rings (size 3 to 8) (size 9 to 14) (size 15 to 20)
#    0.000    0.000    4.000    4.200   11.200    0.000 
#    0.000    0.000    0.000    0.000    0.000    0.000 
#    0.000    0.000    0.000    0.000    0.000    0.000 
#
# Total GULP energy -224161.764709 kJ/mol
# GULP energy per Si atom -5604.044118 kJ/mol
# Density = 2.562651 g / cm^3
# Si number density = 25.684969 Si / 1000 Ang^3
#
#
#
# Elastic Constant Matrix: (Units=GPa)
#
#
# Indices 1 2 3 4 5 6 
#
# 1 141.2679 74.5020 41.2970 0.0000 0.0000 0.0000
# 2 74.5020 141.2679 41.2970 0.0000 0.0000 0.0000
# 3 41.2970 41.2970 72.3548 0.0000 0.0000 0.0000
# 4 0.0000 0.0000 0.0000 12.3185 0.0000 0.0000
# 5 0.0000 0.0000 0.0000 0.0000 12.3185 0.0000
# 6 0.0000 0.0000 0.0000 0.0000 0.0000 82.3313
#
#
#
# Elastic Compliance Matrix: (Units=1/GPa)
#
#
# Indices 1 2 3 4 5 6 
#
# 1 0.010454 -0.004524 -0.003385 0.000000 0.000000 0.000000
# 2 -0.004524 0.010454 -0.003385 0.000000 0.000000 0.000000
# 3 -0.003385 -0.003385 0.017684 0.000000 0.000000 0.000000
# 4 0.000000 0.000000 0.000000 0.081179 0.000000 0.000000
# 5 0.000000 0.000000 0.000000 0.000000 0.081179 0.000000
# 6 0.000000 0.000000 0.000000 0.000000 0.000000 0.012146
#
#
# Mechanical properties :
#
#
# Convention : Reuss Voigt Hill
#
# Bulk Modulus (GPa) = 62.47638 74.34253 68.40946
# Shear Modulus (GPa) = 20.74533 34.57994 27.66264
#
# Velocity S-wave (km/s) = 2.84506 3.67319 3.28532
# Velocity P-wave (km/s) = 5.93038 6.85541 6.40960
#
# Compressibility (1/GPa) = 0.01600605
#
# Stress axis : x y z
#
# Youngs Moduli (GPa) = 95.65766 95.65766 56.54682
#
# Poissons Ratio (x) = 0.43273 0.19139
# Poissons Ratio (y) = 0.43273 0.19139
# Poissons Ratio (z) = 0.32377 0.32377
#
# Static dielectric constant tensor:
#      x y z
#    x 2.027430 0.000000 0.000000 
#    y 0.000000 2.027430 0.000000 
#    z 0.000000 0.000000 2.870980 
# 
# From -- ./inp_files/11906.got.cif
#   From: 2010.05.17/outbox.cif.g08.bks.cpg/sg142_6_cif.got.tgz:11906.got - 2010.05.20 13:39:18.
