data_PCOD9574154
_publ_section_title
;
Structure prediction by ZEFSAII (Michael W. Deem and Ramdas Pophale) SiO2 
 PCOD9574154
Probable space group: I 41/A C D
;
_chemical_formula_sum "Si O2"
_cell_formula_units_Z 112
_cell_length_a 12.355289
_cell_length_b 12.355289
_cell_length_c 30.370650
_cell_angle_alpha 90.000000
_cell_angle_beta 90.000000
_cell_angle_gamma 90.000000
_cell_volume 4636.175884
_symmetry_space_group_name_H-M "I 41/A C D"
_symmetry_group_IT_number 142
_space_group.IT_coordinate_system_code '2'
_symmetry_cell_setting 'tetragonal'
loop_
_space_group_symop_operation_xyz
x,y,z
1/4-y,3/4+x,1/4+z
-x,1/2-y,z
1/4+y,1/4-x,3/4+z
x,-y,1/2-z
1/2-x,y,-z
3/4+y,1/4+x,1/4-z
1/4-y,1/4-x,1/4-z
-x,-y,-z
3/4+y,1/4-x,3/4-z
x,1/2+y,-z
3/4-y,3/4+x,1/4-z
-x,y,1/2+z
1/2+x,-y,z
1/4-y,3/4-x,3/4+z
3/4+y,3/4+x,3/4+z
1/2+x,1/2+y,1/2+z
3/4-y,1/4+x,3/4+z
1/2-x,-y,1/2+z
3/4+y,3/4-x,1/4+z
1/2+x,1/2-y,-z
-x,1/2+y,1/2-z
1/4+y,3/4+x,3/4-z
3/4-y,3/4-x,3/4-z
1/2-x,1/2-y,1/2-z
1/4+y,3/4-x,1/4-z
1/2+x,y,1/2-z
1/4-y,1/4+x,3/4-z
1/2-x,1/2+y,z
x,1/2-y,1/2+z
3/4-y,1/4-x,1/4+z
1/4+y,1/4+x,1/4+z
loop_
_atom_site_type_symbol
_atom_site_label
_atom_site_fract_x
_atom_site_fract_y
_atom_site_fract_z
Si Si1 0.684297 0.389007 0.543814
Si Si2 0.153383 0.169465 0.173436
Si Si3 0.500000 0.750000 0.249053
Si Si4 0.033697 0.071062 0.876622
O O1 0.750000 0.392876 0.500000
O O2 0.669879 0.508936 0.562703
O O3 0.573188 0.326337 0.530222
O O4 0.737482 0.317256 0.581774
O O5 0.103907 0.146094 0.125000
O O6 0.233290 0.272637 0.164867
O O7 0.075244 0.185365 0.214542
O O8 0.917786 0.129740 0.868778
#
# Coordination Sequence:
#
# PCOD9574154 Si02
#       4
#    32  32  16  32
#     4  11  24  40  65  95 127 166 210 264 317 373
#     4  11  24  40  63  91 127 169 211 258 317 385
#     4  12  25  44  65  96 130 166 212 270 321 370
#     4   9  19  40  65  89 121 167 212 256 315 383
#
# _framework density 24.157841000000001
#
# number of rings (size 3 to 8) (size 9 to 14) (size 15 to 20)
#    0.000    1.429    0.000    6.429    0.000    8.000 
#    0.000    0.000    0.000    0.000    0.000    0.000 
#    0.000    0.000    0.000    0.000    0.000    0.000 
#
# Total GULP energy -313044.448638 kJ/mol
# GULP energy per Si atom -5590.079440 kJ/mol
# Density = 2.410286 g / cm^3
# Si number density = 24.157841 Si / 1000 Ang^3
#
#
#
# Elastic Constant Matrix: (Units=GPa)
#
#
# Indices 1 2 3 4 5 6 
#
# 1 42.2406 9.1192 -0.6084 0.0000 0.0000 0.0000
# 2 9.1192 42.2404 -0.6085 0.0000 0.0000 0.0000
# 3 -0.6084 -0.6085 81.9087 0.0000 0.0000 0.0000
# 4 0.0000 0.0000 0.0000 48.9863 0.0000 0.0000
# 5 0.0000 0.0000 0.0000 0.0000 48.9864 0.0000
# 6 0.0000 0.0000 0.0000 0.0000 0.0000 18.0312
#
#
#
# Elastic Compliance Matrix: (Units=1/GPa)
#
#
# Indices 1 2 3 4 5 6 
#
# 1 0.024833 -0.005359 0.000145 0.000000 0.000000 0.000000
# 2 -0.005359 0.024833 0.000145 0.000000 0.000000 0.000000
# 3 0.000145 0.000145 0.012211 0.000000 0.000000 0.000000
# 4 0.000000 0.000000 0.000000 0.020414 0.000000 0.000000
# 5 0.000000 0.000000 0.000000 0.000000 0.020414 0.000000
# 6 0.000000 0.000000 0.000000 0.000000 0.000000 0.055459
#
#
# Mechanical properties :
#
#
# Convention : Reuss Voigt Hill
#
# Bulk Modulus (GPa) = 19.32836 20.24379 19.78608
# Shear Modulus (GPa) = 26.94707 33.76662 30.35684
#
# Velocity S-wave (km/s) = 3.34347 3.74271 3.54871
# Velocity P-wave (km/s) = 4.78783 5.20338 4.99992
#
# Compressibility (1/GPa) = 0.05173743
#
# Stress axis : x y z
#
# Youngs Moduli (GPa) = 40.26916 40.26896 81.89426
#
# Poissons Ratio (x) = 0.21580 -0.01185
# Poissons Ratio (y) = 0.21580 -0.01185
# Poissons Ratio (z) = -0.00582 -0.00583
#
# Static dielectric constant tensor:
#      x y z
#    x 1.972960 0.000000 0.000000 
#    y 0.000000 1.972960 0.000000 
#    z 0.000000 0.000000 1.877380 
# 
# From -- ./inp_files/11040.got.cif
#   From: 2010.05.17/outbox.cif.g08.bks.cpg/sg142_6_cif.got.tgz:11040.got - 2010.05.20 13:39:18.
