data_PCOD9574337
_publ_section_title
;
Structure prediction by ZEFSAII (Michael W. Deem and Ramdas Pophale) SiO2 
 PCOD9574337
Probable space group: P 31
;
_chemical_formula_sum "Si O2"
_cell_formula_units_Z 18
_cell_length_a 8.535694
_cell_length_b 8.535694
_cell_length_c 12.951487
_cell_angle_alpha 90.000000
_cell_angle_beta 90.000000
_cell_angle_gamma 120.000000
_cell_volume 817.199215
_symmetry_space_group_name_H-M "P 31"
_symmetry_group_IT_number 144
_symmetry_cell_setting 'hexagonal'
loop_
_space_group_symop_operation_xyz
x,y,z
-y,x-y,1/3+z
-x+y,-x,2/3+z
loop_
_atom_site_type_symbol
_atom_site_label
_atom_site_fract_x
_atom_site_fract_y
_atom_site_fract_z
Si Si1 0.529468 0.772332 0.452310
Si Si2 0.672059 0.537155 0.472400
Si Si3 0.016050 0.922528 0.407310
Si Si4 0.893851 0.779412 0.871240
Si Si5 0.295361 0.900167 0.556063
Si Si6 0.727548 0.391616 0.944542
O O1 0.510983 0.580842 0.479521
O O2 0.361011 0.792974 0.482135
O O3 0.575495 0.786283 0.329779
O O4 0.692433 0.917510 0.525963
O O5 0.611963 0.362494 0.400498
O O6 0.701516 0.469322 0.580671
O O7 0.842600 0.719826 0.425021
O O8 0.153535 0.930083 0.493146
O O9 0.105614 0.977488 0.295856
O O10 0.973049 0.082855 0.433968
O O11 0.750191 0.573771 0.895559
O O12 0.472255 0.096214 0.578517
#
# Coordination Sequence:
#
# PCOD9574337 Si02
#       6
#     3   3   3   3   3   3
#     4   9  21  40  62  88 125 164 208 267 330 393
#     4  10  22  38  59  89 121 160 208 264 325 398
#     4  11  22  38  61  90 122 164 219 267 330 401
#     4  10  21  38  61  85 120 167 207 263 325 394
#     4  10  21  40  62  90 124 165 214 269 331 400
#     4  10  21  38  59  84 118 158 202 256 321 386
#
# _framework density 22.026451000000002
#
# number of rings (size 3 to 8) (size 9 to 14) (size 15 to 20)
#    0.000    2.000    0.000    4.000    0.000    8.000 
#    0.000    8.333    0.000    0.000    0.000    0.000 
#    0.000    0.000    0.000    0.000    0.000    0.000 
#
# Total GULP energy -100230.179294 kJ/mol
# GULP energy per Si atom -5568.343294 kJ/mol
# Density = 2.197632 g / cm^3
# Si number density = 22.026451 Si / 1000 Ang^3
#
#
#
# Elastic Constant Matrix: (Units=GPa)
#
#
# Indices 1 2 3 4 5 6 
#
# 1 63.3914 10.9738 24.0059 14.2793 -1.8061 0.0000
# 2 10.9738 63.3914 24.0059 -14.2793 1.8061 0.0000
# 3 24.0059 24.0059 56.2559 0.0000 0.0000 0.0000
# 4 14.2793 -14.2793 0.0000 38.9771 0.0000 1.8061
# 5 -1.8061 1.8061 0.0000 0.0000 38.9771 14.2793
# 6 0.0000 0.0000 0.0000 1.8061 14.2793 26.2088
#
#
#
# Elastic Compliance Matrix: (Units=1/GPa)
#
#
# Indices 1 2 3 4 5 6 
#
# 1 0.021246 -0.002685 -0.007920 -0.008767 0.001109 0.000000
# 2 -0.002685 0.021246 -0.007920 0.008767 -0.001109 0.000000
# 3 -0.007920 -0.007920 0.024536 0.000000 0.000000 0.000000
# 4 -0.008767 0.008767 0.000000 0.032182 0.000000 -0.002218
# 5 0.001109 -0.001109 0.000000 0.000000 0.032182 -0.017534
# 6 0.000000 0.000000 0.000000 -0.002218 -0.017534 0.047861
#
#
# Mechanical properties :
#
#
# Convention : Reuss Voigt Hill
#
# Bulk Modulus (GPa) = 33.36048 33.44552 33.40300
# Shear Modulus (GPa) = 22.09499 29.10282 25.59890
#
# Velocity S-wave (km/s) = 3.17063 3.63887 3.41279
# Velocity P-wave (km/s) = 5.34625 5.73344 5.54323
#
# Compressibility (1/GPa) = 0.02997559
#
# Stress axis : x y z
#
# Youngs Moduli (GPa) = 47.06856 47.06856 40.75717
#
# Poissons Ratio (x) = 0.12637 0.32281
# Poissons Ratio (y) = 0.12637 0.32281
# Poissons Ratio (z) = 0.37280 0.37280
#
# Static dielectric constant tensor:
#      x y z
#    x 1.830260 0.000000 0.000000 
#    y 0.000000 1.830260 0.000000 
#    z 0.000000 0.000000 1.837230 
# 
# From -- ./inp_files/494.got.cif
#   From: 2010.05.17/outbox.cif.g08.bks.cpg/sg144_cif.got.tgz:494.got - 2010.05.20 13:46:34.
