data_PCOD9574168
_publ_section_title
;
Structure prediction by ZEFSAII (Michael W. Deem and Ramdas Pophale) SiO2 
 PCOD9574168
Probable space group: I 41/A C D
;
_chemical_formula_sum "Si O2"
_cell_formula_units_Z 80
_cell_length_a 21.152153
_cell_length_b 21.152153
_cell_length_c 8.704840
_cell_angle_alpha 90.000000
_cell_angle_beta 90.000000
_cell_angle_gamma 90.000000
_cell_volume 3894.663598
_symmetry_space_group_name_H-M "I 41/A C D"
_symmetry_group_IT_number 142
_space_group.IT_coordinate_system_code '2'
_symmetry_cell_setting 'tetragonal'
loop_
_space_group_symop_operation_xyz
x,y,z
1/4-y,3/4+x,1/4+z
-x,1/2-y,z
1/4+y,1/4-x,3/4+z
x,-y,1/2-z
1/2-x,y,-z
3/4+y,1/4+x,1/4-z
1/4-y,1/4-x,1/4-z
-x,-y,-z
3/4+y,1/4-x,3/4-z
x,1/2+y,-z
3/4-y,3/4+x,1/4-z
-x,y,1/2+z
1/2+x,-y,z
1/4-y,3/4-x,3/4+z
3/4+y,3/4+x,3/4+z
1/2+x,1/2+y,1/2+z
3/4-y,1/4+x,3/4+z
1/2-x,-y,1/2+z
3/4+y,3/4-x,1/4+z
1/2+x,1/2-y,-z
-x,1/2+y,1/2-z
1/4+y,3/4+x,3/4-z
3/4-y,3/4-x,3/4-z
1/2-x,1/2-y,1/2-z
1/4+y,3/4-x,1/4-z
1/2+x,y,1/2-z
1/4-y,1/4+x,3/4-z
1/2-x,1/2+y,z
x,1/2-y,1/2+z
3/4-y,1/4-x,1/4+z
1/4+y,1/4+x,1/4+z
loop_
_atom_site_type_symbol
_atom_site_label
_atom_site_fract_x
_atom_site_fract_y
_atom_site_fract_z
Si Si1 0.250000 0.076356 0.000000
Si Si2 0.142756 0.339045 0.358110
Si Si3 0.466478 0.423195 0.773307
O O1 0.284830 0.034830 0.875000
O O2 0.201142 0.118797 0.908244
O O3 0.084148 0.386511 0.334268
O O4 0.141044 0.283481 0.483789
O O5 0.158512 0.305245 0.196385
O O6 0.468508 0.500000 0.750000
#
# Coordination Sequence:
#
# PCOD9574168 Si02
#       3
#    16  32  32
#     4  12  28  44  70 108 142 190 240 306 378 444
#     4  11  26  43  72 100 143 189 236 305 357 438
#     4  11  24  45  69 103 142 187 243 295 365 439
#
# _framework density 20.540928000000001
#
# number of rings (size 3 to 8) (size 9 to 14) (size 15 to 20)
#    0.000    0.800    2.000    3.600   14.000    0.800 
#    0.000    4.000    0.000    0.000    0.000    0.000 
#    0.000    0.000    0.000    0.000    0.000    0.000 
#
# Total GULP energy -223640.067353 kJ/mol
# GULP energy per Si atom -5591.001684 kJ/mol
# Density = 2.049418 g / cm^3
# Si number density = 20.540928 Si / 1000 Ang^3
#
#
#
# Elastic Constant Matrix: (Units=GPa)
#
#
# Indices 1 2 3 4 5 6 
#
# 1 182.9729 -1.3223 47.1186 0.0000 0.0000 0.0000
# 2 -1.3223 182.9729 47.1186 0.0000 0.0000 0.0000
# 3 47.1186 47.1186 99.5712 0.0000 0.0000 0.0000
# 4 0.0000 0.0000 0.0000 183.0142 0.0000 0.0000
# 5 0.0000 0.0000 0.0000 0.0000 183.0142 0.0000
# 6 0.0000 0.0000 0.0000 0.0000 0.0000 6.5317
#
#
#
# Elastic Compliance Matrix: (Units=1/GPa)
#
#
# Indices 1 2 3 4 5 6 
#
# 1 0.006361 0.000935 -0.003453 0.000000 0.000000 0.000000
# 2 0.000935 0.006361 -0.003453 0.000000 0.000000 0.000000
# 3 -0.003453 -0.003453 0.013311 0.000000 0.000000 0.000000
# 4 0.000000 0.000000 0.000000 0.005464 0.000000 0.000000
# 5 0.000000 0.000000 0.000000 0.000000 0.005464 0.000000
# 6 0.000000 0.000000 0.000000 0.000000 0.000000 0.153100
#
#
# Mechanical properties :
#
#
# Convention : Reuss Voigt Hill
#
# Bulk Modulus (GPa) = 70.95955 72.37185 71.66570
# Shear Modulus (GPa) = 24.18966 99.35215 61.77091
#
# Velocity S-wave (km/s) = 3.43539 6.96225 5.48975
# Velocity P-wave (km/s) = 7.09622 9.99700 8.66880
#
# Compressibility (1/GPa) = 0.01409254
#
# Stress axis : x y z
#
# Youngs Moduli (GPa) = 157.20356 157.20356 75.12692
#
# Poissons Ratio (x) = -0.14700 0.25939
# Poissons Ratio (y) = -0.14700 0.25939
# Poissons Ratio (z) = 0.54278 0.54278
#
# Static dielectric constant tensor:
#      x y z
#    x 1.715780 0.000000 0.000000 
#    y 0.000000 1.715780 0.000000 
#    z 0.000000 0.000000 1.719040 
# 
# From -- ./inp_files/1512.got.cif
#   From: 2010.05.17/outbox.cif.g08.bks.cpg/sg142_1_cif.got.tgz:1512.got - 2010.05.20 13:39:18.
