data_PCOD9574369
_publ_section_title
;
Structure prediction by ZEFSAII (Michael W. Deem and Ramdas Pophale) SiO2 
 PCOD9574369
Probable space group: P 31
;
_chemical_formula_sum "Si O2"
_cell_formula_units_Z 24
_cell_length_a 8.681278
_cell_length_b 8.681278
_cell_length_c 15.763726
_cell_angle_alpha 90.000000
_cell_angle_beta 90.000000
_cell_angle_gamma 120.000000
_cell_volume 1028.861312
_symmetry_space_group_name_H-M "P 31"
_symmetry_group_IT_number 144
_symmetry_cell_setting 'hexagonal'
loop_
_space_group_symop_operation_xyz
x,y,z
-y,x-y,1/3+z
-x+y,-x,2/3+z
loop_
_atom_site_type_symbol
_atom_site_label
_atom_site_fract_x
_atom_site_fract_y
_atom_site_fract_z
Si Si1 0.139456 0.482061 0.003320
Si Si2 0.199224 0.376901 0.258865
Si Si3 0.528928 0.464660 0.499413
Si Si4 0.839688 0.097324 0.965294
Si Si5 0.443309 0.419661 0.991308
Si Si6 0.346696 0.044628 0.069061
Si Si7 0.908973 0.585641 0.466844
Si Si8 0.803665 0.731278 0.924067
O O1 0.033307 0.529181 0.074615
O O2 0.223686 0.646872 0.939755
O O3 0.305361 0.465362 0.037180
O O4 0.000752 0.298936 0.957375
O O5 0.046810 0.383068 0.205134
O O6 0.092680 0.284472 0.344301
O O7 0.293263 0.264617 0.237980
O O8 0.390400 0.317175 0.565215
O O9 0.700353 0.441307 0.484022
O O10 0.870242 0.933679 0.948259
O O11 0.815699 0.088581 0.068618
O O12 0.374170 0.365651 0.893364
O O13 0.646457 0.583082 0.983390
O O14 0.421358 0.243048 0.034505
O O15 0.508298 0.005663 0.070912
O O16 0.291328 0.012337 0.165343
#
# Coordination Sequence:
#
# PCOD9574369 Si02
#       8
#     3   3   3   3   3   3   3   3
#     4  11  27  43  70 104 139 183 240 284 360 418
#     4  12  24  44  68 104 140 182 230 292 346 426
#     4  11  23  45  72  96 142 180 234 290 350 423
#     4  11  23  47  68 103 140 183 235 293 350 427
#     4  11  23  47  68 103 140 183 235 293 350 427
#     4  11  23  45  72  96 142 180 234 290 350 423
#     4  10  22  40  76  98 132 184 230 284 356 406
#     4  11  27  43  70 104 139 183 240 284 360 418
#
# _framework density 23.326758999999999
#
# number of rings (size 3 to 8) (size 9 to 14) (size 15 to 20)
#    0.000    1.000    2.500    3.000    7.000    2.000 
#    4.500    0.000    0.000    0.000    0.000    0.000 
#    0.000    0.000    0.000    0.000    0.000    0.000 
#
# Total GULP energy -133834.970014 kJ/mol
# GULP energy per Si atom -5576.457084 kJ/mol
# Density = 2.327367 g / cm^3
# Si number density = 23.326759 Si / 1000 Ang^3
#
#
#
# Elastic Constant Matrix: (Units=GPa)
#
#
# Indices 1 2 3 4 5 6 
#
# 1 81.1508 19.4654 10.0355 2.8540 5.0889 0.0000
# 2 19.4654 81.1508 10.0355 -2.8540 -5.0889 0.0000
# 3 10.0355 10.0355 39.4188 0.0000 0.0000 0.0000
# 4 2.8540 -2.8540 0.0000 25.1308 0.0000 -5.0889
# 5 5.0889 -5.0889 0.0000 0.0000 25.1308 2.8540
# 6 0.0000 0.0000 0.0000 -5.0889 2.8540 30.8427
#
#
#
# Elastic Compliance Matrix: (Units=1/GPa)
#
#
# Indices 1 2 3 4 5 6 
#
# 1 0.013713 -0.003243 -0.002666 -0.001926 -0.003434 0.000000
# 2 -0.003243 0.013713 -0.002666 0.001926 0.003434 0.000000
# 3 -0.002666 -0.002666 0.026726 0.000000 0.000000 0.000000
# 4 -0.001926 0.001926 0.000000 0.041620 0.000000 0.006867
# 5 -0.003434 0.003434 0.000000 0.000000 0.041620 -0.003851
# 6 0.000000 0.000000 0.000000 0.006867 -0.003851 0.033912
#
#
# Mechanical properties :
#
#
# Convention : Reuss Voigt Hill
#
# Bulk Modulus (GPa) = 27.02389 31.19925 29.11157
# Shear Modulus (GPa) = 24.90204 27.03313 25.96758
#
# Velocity S-wave (km/s) = 3.27085 3.40794 3.34010
# Velocity P-wave (km/s) = 5.08672 5.37488 5.23278
#
# Compressibility (1/GPa) = 0.03700429
#
# Stress axis : x y z
#
# Youngs Moduli (GPa) = 72.92224 72.92224 37.41689
#
# Poissons Ratio (x) = 0.23647 0.09974
# Poissons Ratio (y) = 0.23647 0.09974
# Poissons Ratio (z) = 0.19439 0.19439
#
# Static dielectric constant tensor:
#      x y z
#    x 1.945970 0.000000 0.000000 
#    y 0.000000 1.945970 0.000000 
#    z 0.000000 0.000000 1.935580 
# 
# From -- ./inp_files/859.got.cif
#   From: 2010.05.17/outbox.cif.g08.bks.cpg/sg144_cif.got.tgz:859.got - 2010.05.20 13:46:34.
