data_PCOD9574798
_publ_section_title
;
Structure prediction by ZEFSAII (Michael W. Deem and Ramdas Pophale) SiO2 
 PCOD9574798
Probable space group: R 3
;
_chemical_formula_sum "Si O2"
_cell_formula_units_Z 51
_cell_length_a 16.728993
_cell_length_b 16.728993
_cell_length_c 9.625116
_cell_angle_alpha 90.000000
_cell_angle_beta 90.000000
_cell_angle_gamma 120.000000
_cell_volume 2332.792997
_symmetry_space_group_name_H-M "R 3"
_symmetry_group_IT_number 146
_symmetry_cell_setting 'hexagonal'
loop_
_space_group_symop_operation_xyz
x,y,z
-y,x-y,z
-x+y,-x,z
2/3+x,1/3+y,1/3+z
2/3-y,1/3+x-y,1/3+z
2/3-x+y,1/3-x,1/3+z
1/3+x,2/3+y,2/3+z
1/3-y,2/3+x-y,2/3+z
1/3-x+y,2/3-x,2/3+z
loop_
_atom_site_type_symbol
_atom_site_label
_atom_site_fract_x
_atom_site_fract_y
_atom_site_fract_z
Si Si1 0.270368 0.489284 0.027210
Si Si2 0.170680 0.077698 0.664796
Si Si3 0.000000 0.000000 0.847539
Si Si4 0.699563 0.773361 0.629604
Si Si5 0.333335 0.666667 0.844431
Si Si6 0.120699 0.831505 0.352332
Si Si7 0.096652 0.409342 0.882490
O O1 0.274320 0.533998 0.176617
O O2 0.345415 0.457581 0.015604
O O3 0.291891 0.564694 0.908185
O O4 0.165039 0.411539 0.001493
O O5 0.269652 0.170982 0.658421
O O6 0.191257 0.993753 0.687659
O O7 0.099724 0.069969 0.781080
O O8 0.000000 0.000000 0.012349
O O9 0.711722 0.842739 0.507338
O O10 0.618564 0.747540 0.741579
O O11 0.667805 0.674122 0.562442
O O12 0.168083 0.920641 0.248430
#
# Coordination Sequence:
#
# PCOD9574798 Si02
#       7
#     9   9   3   9   3   9   9
#     4  12  23  44  69 101 144 186 234 289 371 427
#     4  11  23  45  72  99 135 188 236 288 360 434
#     4  12  28  44  70 108 139 182 238 306 358 419
#     4  11  20  39  70 105 130 175 248 295 339 430
#     4  12  25  41  70 105 136 179 232 306 352 428
#     4  11  23  41  68 104 136 184 242 290 359 432
#     4  11  20  36  69 102 132 182 236 300 341 422
#
# _framework density 21.862203999999998
#
# number of rings (size 3 to 8) (size 9 to 14) (size 15 to 20)
#    0.000    0.706    7.059    3.176    2.471    0.000 
#    3.176    3.529    0.000    0.000    0.000    0.000 
#    0.000    0.000    0.000    0.000    0.000    0.000 
#
# Total GULP energy -94924.621229 kJ/mol
# GULP energy per Si atom -5583.801249 kJ/mol
# Density = 2.181244 g / cm^3
# Si number density = 21.862204 Si / 1000 Ang^3
#
#
#
# Elastic Constant Matrix: (Units=GPa)
#
#
# Indices 1 2 3 4 5 6 
#
# 1 85.5082 25.7317 25.2751 1.9268 -5.9547 0.0001
# 2 25.7317 85.5074 25.2753 -1.9268 5.9549 0.0001
# 3 25.2751 25.2753 123.5841 0.0002 -0.0001 -0.0002
# 4 1.9268 -1.9268 0.0002 27.5822 0.0001 5.9549
# 5 -5.9547 5.9549 -0.0001 0.0001 27.5822 1.9268
# 6 0.0001 0.0001 -0.0002 5.9549 1.9268 29.8882
#
#
#
# Elastic Compliance Matrix: (Units=1/GPa)
#
#
# Indices 1 2 3 4 5 6 
#
# 1 0.013737 -0.003826 -0.002027 -0.001227 0.003792 0.000000
# 2 -0.003826 0.013737 -0.002027 0.001227 -0.003792 0.000000
# 3 -0.002027 -0.002027 0.008921 0.000000 0.000000 0.000000
# 4 -0.001227 0.001227 0.000000 0.038064 0.000000 -0.007584
# 5 0.003792 -0.003792 0.000000 0.000000 0.038064 -0.002454
# 6 0.000000 0.000000 0.000000 -0.007584 -0.002454 0.035127
#
#
# Mechanical properties :
#
#
# Convention : Reuss Voigt Hill
#
# Bulk Modulus (GPa) = 48.46259 49.68487 49.07373
# Shear Modulus (GPa) = 29.36183 31.56502 30.46343
#
# Velocity S-wave (km/s) = 3.66873 3.80388 3.73692
# Velocity P-wave (km/s) = 6.33731 6.48602 6.41209
#
# Compressibility (1/GPa) = 0.02063447
#
# Stress axis : x y z
#
# Youngs Moduli (GPa) = 72.79551 72.79467 112.09833
#
# Poissons Ratio (x) = 0.27855 0.22721
# Poissons Ratio (y) = 0.27855 0.22722
# Poissons Ratio (z) = 0.14755 0.14755
#
# Static dielectric constant tensor:
#      x y z
#    x 1.822280 0.000000 0.000000 
#    y 0.000000 1.822280 0.000000 
#    z 0.000000 0.000000 1.895030 
# 
# From -- ./inp_files/704.got.cif
#   From: 2010.05.17/outbox.cif.g08.bks.cpg/sg146_cif.got.tgz:704.got - 2010.05.20 13:48:23.
