data_PCOD9574761
_publ_section_title
;
Structure prediction by ZEFSAII (Michael W. Deem and Ramdas Pophale) SiO2 
 PCOD9574761
Probable space group: R 3
;
_chemical_formula_sum "Si O2"
_cell_formula_units_Z 60
_cell_length_a 16.090189
_cell_length_b 16.090189
_cell_length_c 10.982779
_cell_angle_alpha 90.000000
_cell_angle_beta 90.000000
_cell_angle_gamma 120.000000
_cell_volume 2462.437222
_symmetry_space_group_name_H-M "R 3"
_symmetry_group_IT_number 146
_symmetry_cell_setting 'hexagonal'
loop_
_space_group_symop_operation_xyz
x,y,z
-y,x-y,z
-x+y,-x,z
2/3+x,1/3+y,1/3+z
2/3-y,1/3+x-y,1/3+z
2/3-x+y,1/3-x,1/3+z
1/3+x,2/3+y,2/3+z
1/3-y,2/3+x-y,2/3+z
1/3-x+y,2/3-x,2/3+z
loop_
_atom_site_type_symbol
_atom_site_label
_atom_site_fract_x
_atom_site_fract_y
_atom_site_fract_z
Si Si1 0.116169 0.810506 0.613570
Si Si2 0.631752 0.968257 0.042973
Si Si3 0.333335 0.666668 0.497662
Si Si4 0.870035 0.292926 0.781477
Si Si5 0.165281 0.456614 0.500589
Si Si6 0.000000 0.000000 0.125442
Si Si7 0.111770 0.180288 0.237990
Si Si8 0.177057 0.885427 0.023443
O O1 0.166123 0.924225 0.586388
O O2 0.204857 0.791130 0.601665
O O3 0.045744 0.764075 0.497281
O O4 0.043364 0.748038 0.716914
O O5 0.683741 0.907585 0.016194
O O6 0.552508 0.930360 0.935233
O O7 0.251173 0.559462 0.459072
O O8 0.333334 0.666667 0.646904
O O9 0.913346 0.221277 0.752364
O O10 0.782258 0.274478 0.696441
O O11 0.951997 0.397291 0.747866
O O12 0.083111 0.469963 0.567259
O O13 0.918126 0.016233 0.187014
O O14 0.068960 0.212530 0.128358
#
# Coordination Sequence:
#
# PCOD9574761 Si02
#       8
#     9   9   3   9   9   3   9   9
#     4   9  22  42  62  95 135 178 219 277 339 414
#     4  11  21  41  69  96 130 182 230 278 342 418
#     4  12  21  42  63 105 133 182 229 297 345 406
#     4   9  23  42  58  94 134 177 219 279 338 412
#     4  10  23  41  63  92 138 172 222 284 341 412
#     4  12  24  39  63 105 142 170 229 300 354 394
#     4  11  23  39  64  95 134 176 225 286 346 411
#     4  12  21  40  68  96 128 175 233 279 343 401
#
# _framework density 24.366102000000001
#
# number of rings (size 3 to 8) (size 9 to 14) (size 15 to 20)
#    0.900    0.600    3.000    2.700    0.000    0.000 
#    8.100    0.000    0.000    0.000    0.000    0.000 
#    0.000    0.000    0.000    0.000    0.000    0.000 
#
# Total GULP energy -111423.821026 kJ/mol
# GULP energy per Si atom -5571.191051 kJ/mol
# Density = 2.431064 g / cm^3
# Si number density = 24.366102 Si / 1000 Ang^3
#
#
#
# Elastic Constant Matrix: (Units=GPa)
#
#
# Indices 1 2 3 4 5 6 
#
# 1 74.7332 -8.3485 12.4297 0.2443 0.9955 0.0004
# 2 -8.3485 74.7325 12.4297 -0.2442 -0.9954 0.0002
# 3 12.4297 12.4297 29.8947 0.0000 0.0001 0.0003
# 4 0.2443 -0.2442 0.0000 27.7184 0.0002 -0.9954
# 5 0.9955 -0.9954 0.0001 0.0002 27.7185 0.2442
# 6 0.0004 0.0002 0.0003 -0.9954 0.2442 41.5406
#
#
#
# Elastic Compliance Matrix: (Units=1/GPa)
#
#
# Indices 1 2 3 4 5 6 
#
# 1 0.014945 0.002897 -0.007418 -0.000106 -0.000433 0.000000
# 2 0.002897 0.014945 -0.007418 0.000106 0.000433 0.000000
# 3 -0.007418 -0.007418 0.039620 0.000000 0.000000 0.000000
# 4 -0.000106 0.000106 0.000000 0.036110 0.000000 0.000865
# 5 -0.000433 0.000433 0.000000 0.000000 0.036110 -0.000212
# 6 0.000000 0.000000 0.000000 0.000865 -0.000212 0.024095
#
#
# Mechanical properties :
#
#
# Convention : Reuss Voigt Hill
#
# Bulk Modulus (GPa) = 21.91546 23.59803 22.75674
# Shear Modulus (GPa) = 24.40066 30.25212 27.32639
#
# Velocity S-wave (km/s) = 3.16795 3.52741 3.35250
# Velocity P-wave (km/s) = 4.73234 5.12796 4.93411
#
# Compressibility (1/GPa) = 0.04562989
#
# Stress axis : x y z
#
# Youngs Moduli (GPa) = 66.91417 66.91353 25.24003
#
# Poissons Ratio (x) = -0.19386 0.18724
# Poissons Ratio (y) = -0.19386 0.18724
# Poissons Ratio (z) = 0.49639 0.49639
#
# Static dielectric constant tensor:
#      x y z
#    x 2.051960 0.000000 0.000000 
#    y 0.000000 2.051960 0.000000 
#    z 0.000000 0.000000 2.037750 
# 
# From -- ./inp_files/1256.got.cif
#   From: 2010.05.17/outbox.cif.g08.bks.cpg/sg146_cif.got.tgz:1256.got - 2010.05.20 13:48:23.
