data_PCOD9574262
_publ_section_title
;
Structure prediction by ZEFSAII (Michael W. Deem and Ramdas Pophale) SiO2 
 PCOD9574262
Probable space group: I 41/A C D
;
_chemical_formula_sum "Si O2"
_cell_formula_units_Z 88
_cell_length_a 18.000000
_cell_length_b 18.000000
_cell_length_c 27.000000
_cell_angle_alpha 90.000000
_cell_angle_beta 90.000000
_cell_angle_gamma 90.000000
_cell_volume 8748.000000
_symmetry_space_group_name_H-M "I 41/A C D"
_symmetry_group_IT_number 142
_space_group.IT_coordinate_system_code '2'
_symmetry_cell_setting 'tetragonal'
loop_
_space_group_symop_operation_xyz
x,y,z
1/4-y,3/4+x,1/4+z
-x,1/2-y,z
1/4+y,1/4-x,3/4+z
x,-y,1/2-z
1/2-x,y,-z
3/4+y,1/4+x,1/4-z
1/4-y,1/4-x,1/4-z
-x,-y,-z
3/4+y,1/4-x,3/4-z
x,1/2+y,-z
3/4-y,3/4+x,1/4-z
-x,y,1/2+z
1/2+x,-y,z
1/4-y,3/4-x,3/4+z
3/4+y,3/4+x,3/4+z
1/2+x,1/2+y,1/2+z
3/4-y,1/4+x,3/4+z
1/2-x,-y,1/2+z
3/4+y,3/4-x,1/4+z
1/2+x,1/2-y,-z
-x,1/2+y,1/2-z
1/4+y,3/4+x,3/4-z
3/4-y,3/4-x,3/4-z
1/2-x,1/2-y,1/2-z
1/4+y,3/4-x,1/4-z
1/2+x,y,1/2-z
1/4-y,1/4+x,3/4-z
1/2-x,1/2+y,z
x,1/2-y,1/2+z
3/4-y,1/4-x,1/4+z
1/4+y,1/4+x,1/4+z
loop_
_atom_site_type_symbol
_atom_site_label
_atom_site_fract_x
_atom_site_fract_y
_atom_site_fract_z
Si Si1 0.318007 0.459107 0.432292
Si Si2 0.002141 0.609790 0.179999
Si Si3 0.663190 0.462572 0.426952
Si Si4 0.584962 0.500000 0.750000
Si Si5 0.090118 0.410720 0.975374
Si Si6 0.445700 0.898668 0.428949
O O1 0.317007 0.432994 0.375000
O O2 0.246784 0.513021 0.438846
O O3 0.304954 0.389816 0.469160
O O4 0.383607 0.514981 0.446489
O O5 0.083283 0.634508 0.199613
O O6 0.010608 0.590825 0.122414
O O7 0.967714 0.543315 0.212048
O O8 0.936534 0.670354 0.182155
O O9 0.669198 0.419198 0.375000
O O10 0.625959 0.415858 0.470474
O O11 0.619919 0.541368 0.425415
O O12 0.001252 0.412612 0.974018
#
# Coordination Sequence:
#
# PCOD9574262 Si02
#       6
#    32  32  32  16  32  32
#     4  11  21  42  63  98 133 175 221 284 333 401
#     4  12  25  41  67 102 132 176 223 283 334 413
#     4  11  24  42  66  96 134 178 228 278 338 405
#     4  12  24  40  66  98 138 166 230 276 336 396
#     4  12  24  40  70  94 136 176 225 276 342 404
#     4  12  24  45  65 100 136 177 223 278 345 401
#
# _framework density 10.059442000000001
#
# number of rings (size 3 to 8) (size 9 to 14) (size 15 to 20)
#    0.000    0.364    5.455    4.364    5.091    0.000 
#    0.000    0.000    0.000    1.091    0.000    0.000 
#    0.000    0.000    0.000    0.000    0.000    0.000 
#
# Total GULP energy -492001.775805 kJ/mol
# GULP energy per Si atom -5590.929271 kJ/mol
# Density = 1.003655 g / cm^3
# Si number density = 10.059442 Si / 1000 Ang^3
#
#
#
# Elastic Constant Matrix: (Units=GPa)
#
#
# Indices 1 2 3 4 5 6 
#
# 1 54.6404 17.7687 12.1665 0.0000 0.0000 0.0000
# 2 17.7687 54.6389 12.1674 0.0000 0.0000 0.0000
# 3 12.1665 12.1674 77.1223 0.0000 0.0000 0.0000
# 4 0.0000 0.0000 0.0000 29.3402 0.0000 0.0000
# 5 0.0000 0.0000 0.0000 0.0000 29.3406 0.0000
# 6 0.0000 0.0000 0.0000 0.0000 0.0000 38.7276
#
#
#
# Elastic Compliance Matrix: (Units=1/GPa)
#
#
# Indices 1 2 3 4 5 6 
#
# 1 0.020852 -0.006269 -0.002301 0.000000 0.000000 0.000000
# 2 -0.006269 0.020853 -0.002301 0.000000 0.000000 0.000000
# 3 -0.002301 -0.002301 0.013692 0.000000 0.000000 0.000000
# 4 0.000000 0.000000 0.000000 0.034083 0.000000 0.000000
# 5 0.000000 0.000000 0.000000 0.000000 0.034082 0.000000
# 6 0.000000 0.000000 0.000000 0.000000 0.000000 0.025821
#
#
# Mechanical properties :
#
#
# Convention : Reuss Voigt Hill
#
# Bulk Modulus (GPa) = 29.71162 30.06742 29.88952
# Shear Modulus (GPa) = 27.42064 29.10161 28.26112
#
# Velocity S-wave (km/s) = 3.69579 3.80739 3.75201
# Velocity P-wave (km/s) = 5.74560 5.85710 5.80162
#
# Compressibility (1/GPa) = 0.03365686
#
# Stress axis : x y z
#
# Youngs Moduli (GPa) = 47.95621 47.95461 73.03339
#
# Poissons Ratio (x) = 0.30062 0.16802
# Poissons Ratio (y) = 0.30063 0.16805
# Poissons Ratio (z) = 0.11033 0.11034
#
# Static dielectric constant tensor:
#      x y z
#    x 1.722830 0.000000 0.000000 
#    y 0.000000 1.722820 0.000000 
#    z 0.000000 0.000000 1.735470 
# 
# From -- ./inp_files/11476.got.cif
#   From: 2010.05.17/outbox.ucp.g08.bks.cvg/sg142_6_cif.got.tgz:11476.got - 2010.06.11 11:43:53.
