data_PCOD9574058
_publ_section_title
;
Structure prediction by ZEFSAII (Michael W. Deem and Ramdas Pophale) SiO2 
 PCOD9574058
Probable space group: I 41/A C D
;
_chemical_formula_sum "Si O2"
_cell_formula_units_Z 136
_cell_length_a 21.372249
_cell_length_b 21.372249
_cell_length_c 14.655200
_cell_angle_alpha 90.000000
_cell_angle_beta 90.000000
_cell_angle_gamma 90.000000
_cell_volume 6694.100070
_symmetry_space_group_name_H-M "I 41/A C D"
_symmetry_group_IT_number 142
_space_group.IT_coordinate_system_code '2'
_symmetry_cell_setting 'tetragonal'
loop_
_space_group_symop_operation_xyz
x,y,z
1/4-y,3/4+x,1/4+z
-x,1/2-y,z
1/4+y,1/4-x,3/4+z
x,-y,1/2-z
1/2-x,y,-z
3/4+y,1/4+x,1/4-z
1/4-y,1/4-x,1/4-z
-x,-y,-z
3/4+y,1/4-x,3/4-z
x,1/2+y,-z
3/4-y,3/4+x,1/4-z
-x,y,1/2+z
1/2+x,-y,z
1/4-y,3/4-x,3/4+z
3/4+y,3/4+x,3/4+z
1/2+x,1/2+y,1/2+z
3/4-y,1/4+x,3/4+z
1/2-x,-y,1/2+z
3/4+y,3/4-x,1/4+z
1/2+x,1/2-y,-z
-x,1/2+y,1/2-z
1/4+y,3/4+x,3/4-z
3/4-y,3/4-x,3/4-z
1/2-x,1/2-y,1/2-z
1/4+y,3/4-x,1/4-z
1/2+x,y,1/2-z
1/4-y,1/4+x,3/4-z
1/2-x,1/2+y,z
x,1/2-y,1/2+z
3/4-y,1/4-x,1/4+z
1/4+y,1/4+x,1/4+z
loop_
_atom_site_type_symbol
_atom_site_label
_atom_site_fract_x
_atom_site_fract_y
_atom_site_fract_z
Si Si1 0.274654 0.925717 0.898845
Si Si2 0.000000 0.750000 0.875000
Si Si3 0.078123 0.566701 0.404029
Si Si4 0.623473 0.760363 0.500408
Si Si5 0.587443 0.110958 0.094355
O O1 0.246360 0.868322 0.840929
O O2 0.348493 0.927326 0.894487
O O3 0.240025 0.990025 0.875000
O O4 0.250000 0.910142 0.000000
O O5 0.999839 0.811365 0.811345
O O6 0.130010 0.619990 0.375000
O O7 0.028583 0.572441 0.322805
O O8 0.053242 0.584716 0.503546
O O9 0.608649 0.819238 0.434721
O O10 0.638647 0.703365 0.434475
#
# Coordination Sequence:
#
# PCOD9574058 Si02
#       5
#    32   8  32  32  32
#     4  11  19  39  74  91 121 178 236 273 327 408
#     4  12  20  38  64  96 146 176 220 274 336 408
#     4   9  18  37  62  92 122 172 218 262 329 399
#     4  11  21  35  60  97 132 171 214 269 332 401
#     4  11  21  38  66 100 129 174 222 272 339 402
#
# _framework density 20.316396999999998
#
# number of rings (size 3 to 8) (size 9 to 14) (size 15 to 20)
#    0.000    1.412   10.588    1.412    0.000    0.000 
#    0.000    1.176   12.941    0.000    0.000    0.000 
#    0.000    0.000    0.000    0.000    0.000    0.000 
#
# Total GULP energy -379665.283594 kJ/mol
# GULP energy per Si atom -5583.312994 kJ/mol
# Density = 2.027016 g / cm^3
# Si number density = 20.316397 Si / 1000 Ang^3
#
#
#
# Elastic Constant Matrix: (Units=GPa)
#
#
# Indices 1 2 3 4 5 6 
#
# 1 77.9995 29.9999 55.2713 0.0000 0.0000 0.0000
# 2 29.9999 77.9995 55.2713 0.0000 0.0000 0.0000
# 3 55.2713 55.2713 131.3508 0.0000 0.0000 0.0000
# 4 0.0000 0.0000 0.0000 25.2498 0.0000 0.0000
# 5 0.0000 0.0000 0.0000 0.0000 25.2498 0.0000
# 6 0.0000 0.0000 0.0000 0.0000 0.0000 14.6808
#
#
#
# Elastic Compliance Matrix: (Units=1/GPa)
#
#
# Indices 1 2 3 4 5 6 
#
# 1 0.018549 -0.002285 -0.006844 0.000000 0.000000 0.000000
# 2 -0.002285 0.018549 -0.006844 0.000000 0.000000 0.000000
# 3 -0.006844 -0.006844 0.013373 0.000000 0.000000 0.000000
# 4 0.000000 0.000000 0.000000 0.039604 0.000000 0.000000
# 5 0.000000 0.000000 0.000000 0.000000 0.039604 0.000000
# 6 0.000000 0.000000 0.000000 0.000000 0.000000 0.068116
#
#
# Mechanical properties :
#
#
# Convention : Reuss Voigt Hill
#
# Bulk Modulus (GPa) = 53.97812 63.15941 58.56876
# Shear Modulus (GPa) = 21.19402 22.82324 22.00863
#
# Velocity S-wave (km/s) = 3.23336 3.35534 3.29491
# Velocity P-wave (km/s) = 6.36914 6.79459 6.58530
#
# Compressibility (1/GPa) = 0.01852603
#
# Stress axis : x y z
#
# Youngs Moduli (GPa) = 53.91144 53.91144 74.77803
#
# Poissons Ratio (x) = 0.12316 0.51177
# Poissons Ratio (y) = 0.12316 0.51177
# Poissons Ratio (z) = 0.36896 0.36896
#
# Static dielectric constant tensor:
#      x y z
#    x 1.760890 0.000000 0.000000 
#    y 0.000000 1.760890 0.000000 
#    z 0.000000 0.000000 1.776420 
# 
# From -- ./inp_files/5325.got.cif
#   From: 2010.05.17/outbox.cif.g08.bks.cpg/sg142_3_cif.got.tgz:5325.got - 2010.05.20 13:39:18.
