data_PCOD9574648
_publ_section_title
;
Structure prediction by ZEFSAII (Michael W. Deem and Ramdas Pophale) SiO2 
 PCOD9574648
Probable space group: P 32
;
_chemical_formula_sum "Si O2"
_cell_formula_units_Z 18
_cell_length_a 8.255992
_cell_length_b 8.255992
_cell_length_c 11.272786
_cell_angle_alpha 90.000000
_cell_angle_beta 90.000000
_cell_angle_gamma 120.000000
_cell_volume 665.427004
_symmetry_space_group_name_H-M "P 32"
_symmetry_group_IT_number 145
_symmetry_cell_setting 'hexagonal'
loop_
_space_group_symop_operation_xyz
x,y,z
-y,x-y,2/3+z
-x+y,-x,1/3+z
loop_
_atom_site_type_symbol
_atom_site_label
_atom_site_fract_x
_atom_site_fract_y
_atom_site_fract_z
Si Si1 0.883131 0.905784 0.463620
Si Si2 0.577815 0.519925 0.041197
Si Si3 0.969565 0.606375 0.012789
Si Si4 0.720944 0.626842 0.301886
Si Si5 0.131852 0.663127 0.758836
Si Si6 0.281842 0.067818 0.377927
O O1 0.856099 0.847319 0.319669
O O2 0.787632 0.768172 0.572838
O O3 0.755996 0.003169 0.450004
O O4 0.102038 0.964407 0.464487
O O5 0.765449 0.566159 0.968038
O O6 0.632726 0.536303 0.179145
O O7 0.448742 0.301012 0.018627
O O8 0.508315 0.674130 0.038169
O O9 0.956209 0.417863 0.066061
O O10 0.112980 0.663409 0.902016
O O11 0.546895 0.602092 0.382065
O O12 0.960697 0.686364 0.716453
#
# Coordination Sequence:
#
# PCOD9574648 Si02
#       6
#     3   3   3   3   3   3
#     4  12  25  47  72 113 156 193 258 323 385 473
#     4  12  26  46  80 110 150 209 255 322 398 468
#     4  12  25  48  79 109 155 201 258 324 395 466
#     4  12  25  47  72 113 156 193 258 323 385 473
#     4  12  25  48  79 109 155 201 258 324 395 466
#     4  12  26  46  80 110 150 209 255 322 398 468
#
# _framework density 27.050301999999999
#
# number of rings (size 3 to 8) (size 9 to 14) (size 15 to 20)
#    0.000    0.000    6.667    4.000    0.000    1.333 
#    0.000    0.000    0.000    0.000    0.000    0.000 
#    0.000    0.000    0.000    0.000    0.000    0.000 
#
# Total GULP energy -100308.545752 kJ/mol
# GULP energy per Si atom -5572.696986 kJ/mol
# Density = 2.698873 g / cm^3
# Si number density = 27.050302 Si / 1000 Ang^3
#
#
#
# Elastic Constant Matrix: (Units=GPa)
#
#
# Indices 1 2 3 4 5 6 
#
# 1 134.9499 32.2759 39.4779 -4.6711 -8.5150 0.0000
# 2 32.2759 134.9499 39.4779 4.6711 8.5150 0.0000
# 3 39.4779 39.4779 96.5756 0.0000 0.0000 0.0000
# 4 -4.6711 4.6711 0.0000 37.7173 0.0000 8.5150
# 5 -8.5150 8.5150 0.0000 0.0000 37.7173 -4.6711
# 6 0.0000 0.0000 0.0000 8.5150 -4.6711 51.3370
#
#
#
# Elastic Compliance Matrix: (Units=1/GPa)
#
#
# Indices 1 2 3 4 5 6 
#
# 1 0.008824 -0.001414 -0.003029 0.001268 0.002311 0.000000
# 2 -0.001414 0.008824 -0.003029 -0.001268 -0.002311 0.000000
# 3 -0.003029 -0.003029 0.012831 0.000000 0.000000 0.000000
# 4 0.001268 -0.001268 0.000000 0.027871 0.000000 -0.004623
# 5 0.002311 -0.002311 0.000000 0.000000 0.027871 0.002536
# 6 0.000000 0.000000 0.000000 -0.004623 0.002536 0.020477
#
#
# Mechanical properties :
#
#
# Convention : Reuss Voigt Hill
#
# Bulk Modulus (GPa) = 64.37109 65.43763 64.90436
# Shear Modulus (GPa) = 39.42585 42.37058 40.89822
#
# Velocity S-wave (km/s) = 3.82187 3.96202 3.89258
# Velocity P-wave (km/s) = 6.58210 6.72114 6.65198
#
# Compressibility (1/GPa) = 0.01553492
#
# Stress axis : x y z
#
# Youngs Moduli (GPa) = 113.32449 113.32449 77.93611
#
# Poissons Ratio (x) = 0.16025 0.23608
# Poissons Ratio (y) = 0.16025 0.23608
# Poissons Ratio (z) = 0.34327 0.34327
#
# Static dielectric constant tensor:
#      x y z
#    x 2.433270 0.000000 0.000000 
#    y 0.000000 2.433270 0.000000 
#    z 0.000000 0.000000 2.310640 
# 
# From -- ./inp_files/537.got.cif
#   From: 2010.05.17/outbox.cif.g08.bks.cpg/sg145_cif.got.tgz:537.got - 2010.05.20 13:47:28.
