data_PCOD9574066
_publ_section_title
;
Structure prediction by ZEFSAII (Michael W. Deem and Ramdas Pophale) SiO2 
 PCOD9574066
Probable space group: I 41/A C D
;
_chemical_formula_sum "Si O2"
_cell_formula_units_Z 160
_cell_length_a 20.593365
_cell_length_b 20.593365
_cell_length_c 19.244963
_cell_angle_alpha 90.000000
_cell_angle_beta 90.000000
_cell_angle_gamma 90.000000
_cell_volume 8161.532504
_symmetry_space_group_name_H-M "I 41/A C D"
_symmetry_group_IT_number 142
_space_group.IT_coordinate_system_code '2'
_symmetry_cell_setting 'tetragonal'
loop_
_space_group_symop_operation_xyz
x,y,z
1/4-y,3/4+x,1/4+z
-x,1/2-y,z
1/4+y,1/4-x,3/4+z
x,-y,1/2-z
1/2-x,y,-z
3/4+y,1/4+x,1/4-z
1/4-y,1/4-x,1/4-z
-x,-y,-z
3/4+y,1/4-x,3/4-z
x,1/2+y,-z
3/4-y,3/4+x,1/4-z
-x,y,1/2+z
1/2+x,-y,z
1/4-y,3/4-x,3/4+z
3/4+y,3/4+x,3/4+z
1/2+x,1/2+y,1/2+z
3/4-y,1/4+x,3/4+z
1/2-x,-y,1/2+z
3/4+y,3/4-x,1/4+z
1/2+x,1/2-y,-z
-x,1/2+y,1/2-z
1/4+y,3/4+x,3/4-z
3/4-y,3/4-x,3/4-z
1/2-x,1/2-y,1/2-z
1/4+y,3/4-x,1/4-z
1/2+x,y,1/2-z
1/4-y,1/4+x,3/4-z
1/2-x,1/2+y,z
x,1/2-y,1/2+z
3/4-y,1/4-x,1/4+z
1/4+y,1/4+x,1/4+z
loop_
_atom_site_type_symbol
_atom_site_label
_atom_site_fract_x
_atom_site_fract_y
_atom_site_fract_z
Si Si1 0.999617 0.353485 0.100943
Si Si2 0.688338 0.793675 0.268037
Si Si3 0.518678 0.569229 0.724620
Si Si4 0.396179 0.230588 0.606281
Si Si5 0.674535 0.064776 0.291563
O O1 0.936067 0.313934 0.125000
O O2 0.004476 0.417147 0.147382
O O3 0.058209 0.308209 0.125000
O O4 0.987106 0.376535 0.023473
O O5 0.750000 0.750000 0.250000
O O6 0.665477 0.790207 0.347542
O O7 0.699612 0.866914 0.240066
O O8 0.495692 0.500000 0.750000
O O9 0.493730 0.624129 0.777479
O O10 0.596872 0.568446 0.721521
O O11 0.452032 0.176968 0.615760
O O12 0.687585 0.062416 0.375000
O O13 0.697385 0.000000 0.250000
#
# Coordination Sequence:
#
# PCOD9574066 Si02
#       5
#    32  32  32  32  32
#     4  11  20  37  60  87 123 160 210 270 334 393
#     4  12  23  38  62  95 127 169 232 276 335 405
#     4  11  20  36  60  87 124 164 216 262 329 404
#     4  11  22  36  56  91 131 164 205 279 355 400
#     4  11  23  43  69  96 130 176 231 277 333 412
#
# _framework density 19.604161999999999
#
# number of rings (size 3 to 8) (size 9 to 14) (size 15 to 20)
#    0.000    0.800    6.000    2.400    2.800    3.200 
#    0.000    1.000    0.000    6.000    0.000    0.000 
#    0.000    0.000    0.000    0.000    0.000    0.000 
#
# Total GULP energy -446571.375583 kJ/mol
# GULP energy per Si atom -5582.142195 kJ/mol
# Density = 1.955954 g / cm^3
# Si number density = 19.604162 Si / 1000 Ang^3
#
#
#
# Elastic Constant Matrix: (Units=GPa)
#
#
# Indices 1 2 3 4 5 6 
#
# 1 62.5607 31.2641 12.5533 0.0000 0.0000 0.0000
# 2 31.2641 62.5574 12.5530 0.0000 0.0000 0.0000
# 3 12.5533 12.5530 91.6927 0.0000 0.0000 0.0000
# 4 0.0000 0.0000 0.0000 30.8290 0.0000 0.0000
# 5 0.0000 0.0000 0.0000 0.0000 30.8287 0.0000
# 6 0.0000 0.0000 0.0000 0.0000 0.0000 25.3111
#
#
#
# Elastic Compliance Matrix: (Units=1/GPa)
#
#
# Indices 1 2 3 4 5 6 
#
# 1 0.021508 -0.010445 -0.001515 0.000000 0.000000 0.000000
# 2 -0.010445 0.021509 -0.001515 0.000000 0.000000 0.000000
# 3 -0.001515 -0.001515 0.011321 0.000000 0.000000 0.000000
# 4 0.000000 0.000000 0.000000 0.032437 0.000000 0.000000
# 5 0.000000 0.000000 0.000000 0.000000 0.032437 0.000000
# 6 0.000000 0.000000 0.000000 0.000000 0.000000 0.039508
#
#
# Mechanical properties :
#
#
# Convention : Reuss Voigt Hill
#
# Bulk Modulus (GPa) = 36.51050 36.61685 36.56368
# Shear Modulus (GPa) = 25.66735 28.08977 26.87856
#
# Velocity S-wave (km/s) = 3.62232 3.78940 3.70681
# Velocity P-wave (km/s) = 6.01326 6.15343 6.08375
#
# Compressibility (1/GPa) = 0.02738938
#
# Stress axis : x y z
#
# Youngs Moduli (GPa) = 46.49374 46.49125 88.33355
#
# Poissons Ratio (x) = 0.48561 0.13379
# Poissons Ratio (y) = 0.48564 0.13380
# Poissons Ratio (z) = 0.07042 0.07042
#
# Static dielectric constant tensor:
#      x y z
#    x 1.698810 0.000000 0.000000 
#    y 0.000000 1.698810 0.000000 
#    z 0.000000 0.000000 1.711530 
# 
# From -- ./inp_files/7351.got.cif
#   From: 2010.05.17/outbox.cif.g08.bks.cpg/sg142_4_cif.got.tgz:7351.got - 2010.05.20 13:39:18.
