data_PCOD9574667
_publ_section_title
;
Structure prediction by ZEFSAII (Michael W. Deem and Ramdas Pophale) SiO2 
 PCOD9574667
Probable space group: R 3
;
_chemical_formula_sum "Si O2"
_cell_formula_units_Z 63
_cell_length_a 20.168445
_cell_length_b 20.168445
_cell_length_c 8.528326
_cell_angle_alpha 90.000000
_cell_angle_beta 90.000000
_cell_angle_gamma 120.000000
_cell_volume 3004.272034
_symmetry_space_group_name_H-M "R 3"
_symmetry_group_IT_number 146
_symmetry_cell_setting 'hexagonal'
loop_
_space_group_symop_operation_xyz
x,y,z
-y,x-y,z
-x+y,-x,z
2/3+x,1/3+y,1/3+z
2/3-y,1/3+x-y,1/3+z
2/3-x+y,1/3-x,1/3+z
1/3+x,2/3+y,2/3+z
1/3-y,2/3+x-y,2/3+z
1/3-x+y,2/3-x,2/3+z
loop_
_atom_site_type_symbol
_atom_site_label
_atom_site_fract_x
_atom_site_fract_y
_atom_site_fract_z
Si Si1 0.660116 0.903793 0.410590
Si Si2 0.206318 0.691210 0.355420
Si Si3 0.693039 0.492376 0.890652
Si Si4 0.264188 0.345693 0.762647
Si Si5 0.754497 0.568863 0.587612
Si Si6 0.163480 0.206992 0.993620
Si Si7 0.968334 0.346338 0.974053
O O1 0.577153 0.843955 0.338357
O O2 0.663594 0.887262 0.594375
O O3 0.727238 0.900213 0.325746
O O4 0.658574 0.982630 0.406399
O O5 0.289959 0.748203 0.291627
O O6 0.172864 0.610254 0.269565
O O7 0.195031 0.668021 0.538478
O O8 0.694954 0.504067 0.703442
O O9 0.682981 0.561521 0.957404
O O10 0.205869 0.286259 0.889860
O O11 0.313520 0.437151 0.773671
O O12 0.760995 0.538268 0.419908
O O13 0.742137 0.641190 0.592086
O O14 0.989005 0.307036 0.827704
#
# Coordination Sequence:
#
# PCOD9574667 Si02
#       7
#     9   9   9   9   9   9   9
#     4  10  17  34  57  94 126 163 211 262 337 403
#     4  10  22  40  64  90 124 175 224 265 339 407
#     4  11  23  44  66  90 127 183 221 276 337 413
#     4   8  17  31  55  86 134 160 194 264 331 406
#     4  11  21  37  65  97 127 167 227 282 332 396
#     4  10  20  34  57  96 126 165 210 272 334 398
#     4  10  24  44  68  99 132 175 231 289 346 403
#
# _framework density 20.970137999999999
#
# number of rings (size 3 to 8) (size 9 to 14) (size 15 to 20)
#    0.000    2.286    1.429    3.714    2.000    1.143 
#    0.000    1.429    0.000    0.000    0.000    0.000 
#    0.000    0.000    0.000    0.000    0.000    0.000 
#
# Total GULP energy -116966.630037 kJ/mol
# GULP energy per Si atom -5569.839526 kJ/mol
# Density = 2.092241 g / cm^3
# Si number density = 20.970138 Si / 1000 Ang^3
#
#
#
# Elastic Constant Matrix: (Units=GPa)
#
#
# Indices 1 2 3 4 5 6 
#
# 1 66.2078 36.4976 38.8318 2.9686 -0.9477 0.0034
# 2 36.4976 66.2005 38.8274 -2.9662 0.9538 -0.0003
# 3 38.8318 38.8274 68.5578 0.0003 -0.0005 0.0027
# 4 2.9686 -2.9662 0.0003 23.8697 0.0015 0.9543
# 5 -0.9477 0.9538 -0.0005 0.0015 23.8733 2.9683
# 6 0.0034 -0.0003 0.0027 0.9543 2.9683 14.8537
#
#
#
# Elastic Compliance Matrix: (Units=1/GPa)
#
#
# Indices 1 2 3 4 5 6 
#
# 1 0.025820 -0.008790 -0.009646 -0.004303 0.001377 -0.000003
# 2 -0.008790 0.025821 -0.009645 0.004302 -0.001382 0.000004
# 3 -0.009646 -0.009645 0.025513 0.000001 0.000003 -0.000003
# 4 -0.004303 0.004302 0.000001 0.043075 -0.000001 -0.002766
# 5 0.001377 -0.001382 0.000003 -0.000001 0.043068 -0.008607
# 6 -0.000003 0.000004 -0.000003 -0.002766 -0.008607 0.069221
#
#
# Mechanical properties :
#
#
# Convention : Reuss Voigt Hill
#
# Bulk Modulus (GPa) = 47.64000 47.69774 47.66887
# Shear Modulus (GPa) = 16.91035 18.30662 17.60848
#
# Velocity S-wave (km/s) = 2.84280 2.95784 2.90089
# Velocity P-wave (km/s) = 5.79161 5.87026 5.83107
#
# Compressibility (1/GPa) = 0.02099076
#
# Stress axis : x y z
#
# Youngs Moduli (GPa) = 38.72988 38.72771 39.19634
#
# Poissons Ratio (x) = 0.34041 0.37811
# Poissons Ratio (y) = 0.34043 0.37806
# Poissons Ratio (z) = 0.37361 0.37354
#
# Static dielectric constant tensor:
#      x y z
#    x 1.772110 0.000000 0.000000 
#    y 0.000000 1.772110 0.000000 
#    z 0.000000 0.000000 1.852420 
# 
# From -- ./inp_files/796.got.cif
#   From: 2010.05.17/outbox.cif.g08.bks.cpg/sg146_cif.got.tgz:796.got - 2010.05.20 13:48:23.
