data_PCOD9574519
_publ_section_title
;
Structure prediction by ZEFSAII (Michael W. Deem and Ramdas Pophale) SiO2 
 PCOD9574519
Probable space group: P 31
;
_chemical_formula_sum "Si O2"
_cell_formula_units_Z 18
_cell_length_a 10.108624
_cell_length_b 10.108624
_cell_length_c 8.641231
_cell_angle_alpha 90.000000
_cell_angle_beta 90.000000
_cell_angle_gamma 120.000000
_cell_volume 764.698666
_symmetry_space_group_name_H-M "P 31"
_symmetry_group_IT_number 144
_symmetry_cell_setting 'hexagonal'
loop_
_space_group_symop_operation_xyz
x,y,z
-y,x-y,1/3+z
-x+y,-x,2/3+z
loop_
_atom_site_type_symbol
_atom_site_label
_atom_site_fract_x
_atom_site_fract_y
_atom_site_fract_z
Si Si1 0.825049 0.594746 0.375000
Si Si2 0.508284 0.436364 0.183987
Si Si3 0.416977 0.030829 0.956874
Si Si4 0.364162 0.083643 0.268780
Si Si5 0.047005 0.080268 0.698126
Si Si6 0.300070 0.586399 0.194194
O O1 0.666666 0.518589 0.279494
O O2 0.907564 0.499558 0.335619
O O3 0.759633 0.588838 0.545235
O O4 0.941922 0.771281 0.345219
O O5 0.425768 0.258659 0.223369
O O6 0.391411 0.496025 0.213768
O O7 0.573700 0.495871 0.013753
O O8 0.350675 0.880964 0.853203
O O9 0.319065 0.985731 0.112827
O O10 0.214297 0.017341 0.372451
O O11 0.009424 0.994796 0.866032
O O12 0.328130 0.676091 0.359621
#
# Coordination Sequence:
#
# PCOD9574519 Si02
#       6
#     3   3   3   3   3   3
#     4  12  26  49  78 113 157 205 271 323 394 479
#     4  12  26  49  78 113 157 205 271 323 394 479
#     4  12  27  48  82 113 158 210 266 331 402 473
#     4  12  27  48  82 113 158 210 266 331 402 473
#     4  12  29  49  78 117 162 208 264 328 403 473
#     4  12  29  49  78 117 162 208 264 328 403 473
#
# _framework density 23.538681
#
# number of rings (size 3 to 8) (size 9 to 14) (size 15 to 20)
#    0.000    0.000    3.333    6.000    9.333    0.000 
#    0.000    0.000    0.000    0.000    0.000    0.000 
#    0.000    0.000    0.000    0.000    0.000    0.000 
#
# Total GULP energy -100665.658942 kJ/mol
# GULP energy per Si atom -5592.536608 kJ/mol
# Density = 2.348511 g / cm^3
# Si number density = 23.538681 Si / 1000 Ang^3
#
#
#
# Elastic Constant Matrix: (Units=GPa)
#
#
# Indices 1 2 3 4 5 6 
#
# 1 103.6286 48.0129 17.7111 15.5214 -0.0001 0.0000
# 2 48.0129 103.6286 17.7111 -15.5214 0.0001 0.0000
# 3 17.7111 17.7111 110.4392 0.0000 0.0000 0.0000
# 4 15.5214 -15.5214 0.0000 -2.4929 0.0000 0.0001
# 5 -0.0001 0.0001 0.0000 0.0000 -2.4929 15.5214
# 6 0.0000 0.0000 0.0000 0.0001 15.5214 27.8079
#
#
#
# Elastic Compliance Matrix: (Units=1/GPa)
#
#
# Indices 1 2 3 4 5 6 
#
# 1 0.005434 0.001417 -0.001099 0.025015 0.000000 0.000000
# 2 0.001417 0.005434 -0.001099 -0.025015 0.000000 0.000000
# 3 -0.001099 -0.001099 0.009407 0.000000 0.000000 0.000000
# 4 0.025015 -0.025015 0.000000 -0.089634 0.000000 0.000000
# 5 0.000000 0.000000 0.000000 0.000000 -0.089634 0.050031
# 6 0.000000 0.000000 0.000000 0.000000 0.050031 0.008036
#
#
# Mechanical properties :
#
#
# Convention : Reuss Voigt Hill
#
# Bulk Modulus (GPa) = 53.43422 53.84071 53.63747
# Shear Modulus (GPa) = -34.92679 20.18182 -7.37249
#
# Velocity S-wave (km/s) = -3.85620 2.93130 -1.77169
# Velocity P-wave (km/s) = 1.70964 5.86341 4.31871
#
# Compressibility (1/GPa) = 0.01871460
#
# Stress axis : x y z
#
# Youngs Moduli (GPa) = 184.01054 184.01054 106.30205
#
# Poissons Ratio (x) = -0.26068 0.11680
# Poissons Ratio (y) = -0.26068 0.11680
# Poissons Ratio (z) = 0.20218 0.20218
#
# Static dielectric constant tensor:
#      x y z
#    x 1.839250 0.000000 0.000000 
#    y 0.000000 1.839250 0.000000 
#    z 0.000000 0.000000 2.075350 
# 
# From -- ./inp_files/259.got.cif
#   From: 2010.05.17/outbox.cif.g08.bks.cpg/sg144_cif.got.tgz:259.got - 2010.05.20 13:46:34.
