data_PCOD9574881
_publ_section_title
;
Structure prediction by ZEFSAII (Michael W. Deem and Ramdas Pophale) SiO2 
 PCOD9574881
Probable space group: P -3
;
_chemical_formula_sum "Si O2"
_cell_formula_units_Z 30
_cell_length_a 13.288746
_cell_length_b 13.288746
_cell_length_c 12.906938
_cell_angle_alpha 90.000000
_cell_angle_beta 90.000000
_cell_angle_gamma 120.000000
_cell_volume 1973.885044
_symmetry_space_group_name_H-M "P -3"
_symmetry_group_IT_number 147
_symmetry_cell_setting 'hexagonal'
loop_
_space_group_symop_operation_xyz
x,y,z
-y,x-y,z
-x+y,-x,z
-x,-y,-z
y,-x+y,-z
x-y,x,-z
loop_
_atom_site_type_symbol
_atom_site_label
_atom_site_fract_x
_atom_site_fract_y
_atom_site_fract_z
Si Si1 0.096273 0.666879 0.415292
Si Si2 0.760027 1.000000 1.000000
Si Si3 0.903727 0.570606 0.584708
Si Si4 0.904593 0.333808 0.823034
Si Si5 0.666192 0.095407 0.823034
O O1 0.123459 0.561730 0.425197
O O2 0.211558 0.788442 0.432151
O O3 0.057121 0.662660 0.296230
O O4 1.000000 0.644363 0.500000
O O5 0.699794 0.024172 0.901941
O O6 0.885685 0.114315 0.014661
O O7 0.675623 0.975828 0.098059
O O8 0.942879 0.605539 0.703770
O O9 0.770313 0.229687 0.828662
O O10 0.913277 0.456638 0.847451
#
# Coordination Sequence:
#
# PCOD9574881 Si02
#       5
#     6   6   6   6   6
#     4   9  17  29  46  67  90 116 145 178 216 257
#     4  10  20  32  46  64  88 118 148 178 214 258
#     4   9  17  29  46  67  90 116 145 178 216 257
#     4   9  17  30  48  68  88 112 144 182 221 258
#     4   9  17  30  48  68  88 112 144 182 221 258
#
# _framework density 15.198454
#
# number of rings (size 3 to 8) (size 9 to 14) (size 15 to 20)
#    0.000    2.800    0.000    1.600    0.000    4.800 
#    0.000    0.000    0.000    1.200    0.000    0.000 
#    0.000    0.000    0.000    0.000    0.000    0.000 
#
# Total GULP energy -167139.887419 kJ/mol
# GULP energy per Si atom -5571.329581 kJ/mol
# Density = 1.516386 g / cm^3
# Si number density = 15.198454 Si / 1000 Ang^3
#
#
#
# Elastic Constant Matrix: (Units=GPa)
#
#
# Indices 1 2 3 4 5 6 
#
# 1 99.7508 68.9357 87.2888 0.8412 0.0000 0.0000
# 2 68.9357 99.7508 87.2888 -0.8412 0.0000 0.0000
# 3 87.2888 87.2888 127.5131 0.0000 0.0000 0.0000
# 4 0.8412 -0.8412 0.0000 24.5992 0.0000 0.0000
# 5 0.0000 0.0000 0.0000 0.0000 24.5992 0.8412
# 6 0.0000 0.0000 0.0000 0.0000 0.8412 15.4075
#
#
#
# Elastic Compliance Matrix: (Units=1/GPa)
#
#
# Indices 1 2 3 4 5 6 
#
# 1 0.026423 -0.006089 -0.013919 -0.001112 0.000000 0.000000
# 2 -0.006089 0.026423 -0.013919 0.001112 0.000000 0.000000
# 3 -0.013919 -0.013919 0.026899 0.000000 0.000000 0.000000
# 4 -0.001112 0.001112 0.000000 0.040728 0.000000 0.000000
# 5 0.000000 0.000000 0.000000 0.000000 0.040728 -0.002224
# 6 0.000000 0.000000 0.000000 0.000000 -0.002224 0.065025
#
#
# Mechanical properties :
#
#
# Convention : Reuss Voigt Hill
#
# Bulk Modulus (GPa) = 84.11051 90.44902 87.27977
# Shear Modulus (GPa) = 16.77602 18.48793 17.63198
#
# Velocity S-wave (km/s) = 3.32595 3.49153 3.40974
# Velocity P-wave (km/s) = 8.37919 8.71180 8.54712
#
# Compressibility (1/GPa) = 0.01188912
#
# Stress axis : x y z
#
# Youngs Moduli (GPa) = 37.84588 37.84588 37.17591
#
# Poissons Ratio (x) = 0.23046 0.51746
# Poissons Ratio (y) = 0.23046 0.51746
# Poissons Ratio (z) = 0.52679 0.52679
#
# Static dielectric constant tensor:
#      x y z
#    x 1.479670 0.000000 0.000000 
#    y 0.000000 1.479670 0.000000 
#    z 0.000000 0.000000 1.506490 
# 
# From -- ./inp_files/897.got.cif
#   From: 2010.05.17/outbox.cif.g08.bks.cpg/sg147_cif.got.tgz:897.got - 2010.05.20 13:49:32.
