data_PCOD9574812
_publ_section_title
;
Structure prediction by ZEFSAII (Michael W. Deem and Ramdas Pophale) SiO2 
 PCOD9574812
Probable space group: R 3
;
_chemical_formula_sum "Si O2"
_cell_formula_units_Z 45
_cell_length_a 13.685146
_cell_length_b 13.685146
_cell_length_c 11.032419
_cell_angle_alpha 90.000000
_cell_angle_beta 90.000000
_cell_angle_gamma 120.000000
_cell_volume 1789.370402
_symmetry_space_group_name_H-M "R 3"
_symmetry_group_IT_number 146
_symmetry_cell_setting 'hexagonal'
loop_
_space_group_symop_operation_xyz
x,y,z
-y,x-y,z
-x+y,-x,z
2/3+x,1/3+y,1/3+z
2/3-y,1/3+x-y,1/3+z
2/3-x+y,1/3-x,1/3+z
1/3+x,2/3+y,2/3+z
1/3-y,2/3+x-y,2/3+z
1/3-x+y,2/3-x,2/3+z
loop_
_atom_site_type_symbol
_atom_site_label
_atom_site_fract_x
_atom_site_fract_y
_atom_site_fract_z
Si Si1 0.199461 0.197068 0.952290
Si Si2 0.301983 0.043485 0.869077
Si Si3 0.332263 0.870334 0.012325
Si Si4 0.128995 0.664898 0.904371
Si Si5 0.364481 0.798619 0.399909
O O1 0.263855 0.129339 0.917603
O O2 0.281364 0.329732 0.922220
O O3 0.084760 0.145696 0.872725
O O4 0.178034 0.183882 0.095152
O O5 0.429117 0.112724 0.818929
O O6 0.277710 0.937336 0.948315
O O7 0.224565 0.988235 0.745963
O O8 0.244826 0.743349 0.976787
O O9 0.455283 0.913298 0.957280
O O10 0.245362 0.692654 0.351880
#
# Coordination Sequence:
#
# PCOD9574812 Si02
#       5
#     9   9   9   9   9
#     4  11  23  43  71 101 141 179 240 291 351 422
#     4  11  23  42  69 101 139 178 235 292 352 412
#     4  12  26  44  68 102 142 191 237 290 350 420
#     4  12  26  43  69 100 143 188 239 286 354 417
#     4   8  18  36  67  98 133 168 229 281 343 405
#
# _framework density 25.148508
#
# number of rings (size 3 to 8) (size 9 to 14) (size 15 to 20)
#    0.400    0.800    2.000    4.000    5.600    0.000 
#    0.000    0.000    0.000    0.800    0.000    0.000 
#    0.000    0.000    0.000    0.000    0.000    0.000 
#
# Total GULP energy -83558.165495 kJ/mol
# GULP energy per Si atom -5570.544366 kJ/mol
# Density = 2.509127 g / cm^3
# Si number density = 25.148508 Si / 1000 Ang^3
#
#
#
# Elastic Constant Matrix: (Units=GPa)
#
#
# Indices 1 2 3 4 5 6 
#
# 1 104.8283 24.4774 -9.3473 5.8264 -3.9877 0.0000
# 2 24.4774 104.8283 -9.3473 -5.8264 3.9877 0.0000
# 3 -9.3473 -9.3473 72.9245 0.0000 0.0000 0.0000
# 4 5.8264 -5.8264 0.0000 31.6880 0.0000 3.9877
# 5 -3.9877 3.9877 0.0000 0.0000 31.6880 5.8264
# 6 0.0000 0.0000 0.0000 3.9877 5.8264 40.1754
#
#
#
# Elastic Compliance Matrix: (Units=1/GPa)
#
#
# Indices 1 2 3 4 5 6 
#
# 1 0.010416 -0.002536 0.001010 -0.002382 0.001630 0.000000
# 2 -0.002536 0.010416 0.001010 0.002382 -0.001630 0.000000
# 3 0.001010 0.001010 0.013972 0.000000 0.000000 0.000000
# 4 -0.002382 0.002382 0.000000 0.032844 0.000000 -0.003260
# 5 0.001630 -0.001630 0.000000 0.000000 0.032844 -0.004763
# 6 0.000000 0.000000 0.000000 -0.003260 -0.004763 0.025905
#
#
# Mechanical properties :
#
#
# Convention : Reuss Voigt Hill
#
# Bulk Modulus (GPa) = 29.61120 32.68293 31.14707
# Shear Modulus (GPa) = 36.05254 39.16351 37.60803
#
# Velocity S-wave (km/s) = 3.79038 3.95053 3.87128
# Velocity P-wave (km/s) = 5.56382 5.81662 5.69163
#
# Compressibility (1/GPa) = 0.03377101
#
# Stress axis : x y z
#
# Youngs Moduli (GPa) = 96.00512 96.00512 71.57306
#
# Poissons Ratio (x) = 0.24351 -0.07229
# Poissons Ratio (y) = 0.24351 -0.07229
# Poissons Ratio (z) = -0.09697 -0.09697
#
# Static dielectric constant tensor:
#      x y z
#    x 2.045500 0.000000 0.000000 
#    y 0.000000 2.045500 0.000000 
#    z 0.000000 0.000000 2.057700 
# 
# From -- ./inp_files/1094.got.cif
#   From: 2010.05.17/outbox.cif.g08.bks.cpg/sg146_cif.got.tgz:1094.got - 2010.05.20 13:48:23.
