data_PCOD9574175
_publ_section_title
;
Structure prediction by ZEFSAII (Michael W. Deem and Ramdas Pophale) SiO2 
 PCOD9574175
Probable space group: I 41/A C D
;
_chemical_formula_sum "Si O2"
_cell_formula_units_Z 96
_cell_length_a 18.509217
_cell_length_b 18.509217
_cell_length_c 13.015766
_cell_angle_alpha 90.000000
_cell_angle_beta 90.000000
_cell_angle_gamma 90.000000
_cell_volume 4459.085773
_symmetry_space_group_name_H-M "I 41/A C D"
_symmetry_group_IT_number 142
_space_group.IT_coordinate_system_code '2'
_symmetry_cell_setting 'tetragonal'
loop_
_space_group_symop_operation_xyz
x,y,z
1/4-y,3/4+x,1/4+z
-x,1/2-y,z
1/4+y,1/4-x,3/4+z
x,-y,1/2-z
1/2-x,y,-z
3/4+y,1/4+x,1/4-z
1/4-y,1/4-x,1/4-z
-x,-y,-z
3/4+y,1/4-x,3/4-z
x,1/2+y,-z
3/4-y,3/4+x,1/4-z
-x,y,1/2+z
1/2+x,-y,z
1/4-y,3/4-x,3/4+z
3/4+y,3/4+x,3/4+z
1/2+x,1/2+y,1/2+z
3/4-y,1/4+x,3/4+z
1/2-x,-y,1/2+z
3/4+y,3/4-x,1/4+z
1/2+x,1/2-y,-z
-x,1/2+y,1/2-z
1/4+y,3/4+x,3/4-z
3/4-y,3/4-x,3/4-z
1/2-x,1/2-y,1/2-z
1/4+y,3/4-x,1/4-z
1/2+x,y,1/2-z
1/4-y,1/4+x,3/4-z
1/2-x,1/2+y,z
x,1/2-y,1/2+z
3/4-y,1/4-x,1/4+z
1/4+y,1/4+x,1/4+z
loop_
_atom_site_type_symbol
_atom_site_label
_atom_site_fract_x
_atom_site_fract_y
_atom_site_fract_z
Si Si1 0.090906 0.840906 0.375000
Si Si2 0.215185 0.169655 0.748696
Si Si3 0.170995 0.428767 0.804725
Si Si4 0.423570 0.673570 0.625000
O O1 0.287902 0.867565 0.360617
O O2 0.094504 0.756116 0.402452
O O3 0.250000 0.250000 0.750000
O O4 0.369663 0.123866 0.776818
O O5 0.132207 0.163651 0.716442
O O6 0.261521 0.121941 0.667951
O O7 0.201653 0.500000 0.750000
#
# Coordination Sequence:
#
# PCOD9574175 Si02
#       4
#    16  32  32  16
#     4  11  24  47  68 104 144 199 242 323 362 464
#     4  12  27  47  73 110 143 197 248 315 376 461
#     4  12  24  47  71 102 149 189 246 305 382 443
#     4  11  26  43  70 104 146 189 258 295 392 442
#
# _framework density 21.529076
#
# number of rings (size 3 to 8) (size 9 to 14) (size 15 to 20)
#    0.000    0.333    6.667    0.000    9.333    0.000 
#    0.000    3.333    0.000    0.000    0.000    0.000 
#    0.000    0.000    0.000    0.000    0.000    0.000 
#
# Total GULP energy -267419.776519 kJ/mol
# GULP energy per Si atom -5571.245344 kJ/mol
# Density = 2.148008 g / cm^3
# Si number density = 21.529076 Si / 1000 Ang^3
#
#
#
# Elastic Constant Matrix: (Units=GPa)
#
#
# Indices 1 2 3 4 5 6 
#
# 1 52.5262 109.2407 15.9312 0.0000 0.0000 0.0000
# 2 109.2407 52.5262 15.9312 0.0000 0.0000 0.0000
# 3 15.9312 15.9312 40.7397 0.0000 0.0000 0.0000
# 4 0.0000 0.0000 0.0000 30.1080 0.0000 0.0000
# 5 0.0000 0.0000 0.0000 0.0000 30.1080 0.0000
# 6 0.0000 0.0000 0.0000 0.0000 0.0000 40.6197
#
#
#
# Elastic Compliance Matrix: (Units=1/GPa)
#
#
# Indices 1 2 3 4 5 6 
#
# 1 -0.005467 0.012165 -0.002619 0.000000 0.000000 0.000000
# 2 0.012165 -0.005467 -0.002619 0.000000 0.000000 0.000000
# 3 -0.002619 -0.002619 0.026594 0.000000 0.000000 0.000000
# 4 0.000000 0.000000 0.000000 0.033214 0.000000 0.000000
# 5 0.000000 0.000000 0.000000 0.000000 0.033214 0.000000
# 6 0.000000 0.000000 0.000000 0.000000 0.000000 0.024619
#
#
# Mechanical properties :
#
#
# Convention : Reuss Voigt Hill
#
# Bulk Modulus (GPa) = 33.88302 47.55535 40.71918
# Shear Modulus (GPa) = 48.69012 20.47976 34.58494
#
# Velocity S-wave (km/s) = 4.76079 3.08760 4.01238
# Velocity P-wave (km/s) = 6.78178 5.90321 6.35769
#
# Compressibility (1/GPa) = 0.02951331
#
# Stress axis : x y z
#
# Youngs Moduli (GPa) = -182.90646 -182.90646 37.60187
#
# Poissons Ratio (x) = 2.22503 0.09848
# Poissons Ratio (y) = 2.22503 0.09848
# Poissons Ratio (z) = -0.47905 -0.47905
#
# Static dielectric constant tensor:
#      x y z
#    x 1.877400 0.000000 0.000000 
#    y 0.000000 1.877400 0.000000 
#    z 0.000000 0.000000 1.818100 
# 
# From -- ./inp_files/12112.got.cif
#   From: 2010.05.17/outbox.cif.g08.bks.cpg/sg142_7_cif.got.tgz:12112.got - 2010.05.20 13:39:18.
