data_PCOD9574982
_publ_section_title
;
Structure prediction by ZEFSAII (Michael W. Deem and Ramdas Pophale) SiO2 
 PCOD9574982
Probable space group: P -3
;
_chemical_formula_sum "Si O2"
_cell_formula_units_Z 42
_cell_length_a 14.734291
_cell_length_b 14.734291
_cell_length_c 11.372365
_cell_angle_alpha 90.000000
_cell_angle_beta 90.000000
_cell_angle_gamma 120.000000
_cell_volume 2138.158557
_symmetry_space_group_name_H-M "P -3"
_symmetry_group_IT_number 147
_symmetry_cell_setting 'hexagonal'
loop_
_space_group_symop_operation_xyz
x,y,z
-y,x-y,z
-x+y,-x,z
-x,-y,-z
y,-x+y,-z
x-y,x,-z
loop_
_atom_site_type_symbol
_atom_site_label
_atom_site_fract_x
_atom_site_fract_y
_atom_site_fract_z
Si Si1 0.867105 0.347109 0.320645
Si Si2 0.505803 0.623160 0.296933
Si Si3 0.507637 0.685475 0.808202
Si Si4 0.286699 0.453883 0.407337
Si Si5 0.166399 0.951676 0.967969
Si Si6 0.747311 0.194632 0.938383
Si Si7 0.703189 0.658246 0.797402
O O1 0.801075 0.239023 0.249153
O O2 0.813944 0.413386 0.270977
O O3 0.848771 0.317844 0.457411
O O4 0.992311 0.416448 0.303142
O O5 0.388837 0.542679 0.338827
O O6 0.540421 0.723304 0.381300
O O7 0.508229 0.663581 0.165412
O O8 0.588110 0.641750 0.809357
O O9 0.485821 0.704187 0.942671
O O10 0.271798 0.352597 0.337144
O O11 0.227379 0.006744 0.849463
O O12 0.226819 0.896148 0.023414
O O13 0.046234 0.866804 0.951409
O O14 0.857894 0.280103 0.880234
#
# Coordination Sequence:
#
# PCOD9574982 Si02
#       7
#     6   6   6   6   6   6   6
#     4  12  26  40  68  97 130 175 228 272 342 388
#     4  11  24  41  68  95 125 182 218 275 337 396
#     4  11  24  41  65  94 132 167 215 279 329 396
#     4  11  23  43  62  92 130 164 227 270 321 397
#     4   9  17  32  56  88 124 158 206 265 331 396
#     4   9  22  39  61  92 128 160 216 258 340 397
#     4   9  20  38  60  84 123 169 203 266 321 391
#
# _framework density 19.643070999999999
#
# number of rings (size 3 to 8) (size 9 to 14) (size 15 to 20)
#    0.000    1.714    1.429    2.000   10.000    2.857 
#    0.000    0.000    0.000    0.000    0.000    0.000 
#    0.000    8.857    0.000    0.000    0.000    0.000 
#
# Total GULP energy -234208.291272 kJ/mol
# GULP energy per Si atom -5576.387887 kJ/mol
# Density = 1.959836 g / cm^3
# Si number density = 19.643071 Si / 1000 Ang^3
#
#
#
# Elastic Constant Matrix: (Units=GPa)
#
#
# Indices 1 2 3 4 5 6 
#
# 1 76.5857 40.1233 46.7422 0.5235 6.2777 0.0000
# 2 40.1233 76.5857 46.7422 -0.5235 -6.2777 0.0000
# 3 46.7422 46.7422 151.0556 0.0000 0.0000 0.0000
# 4 0.5235 -0.5235 0.0000 19.1701 0.0000 -6.2777
# 5 6.2777 -6.2777 0.0000 0.0000 19.1701 0.5235
# 6 0.0000 0.0000 0.0000 -6.2777 0.5235 18.2312
#
#
#
# Elastic Compliance Matrix: (Units=1/GPa)
#
#
# Indices 1 2 3 4 5 6 
#
# 1 0.021165 -0.009773 -0.003525 -0.000845 -0.010132 0.000000
# 2 -0.009773 0.021165 -0.003525 0.000845 0.010132 0.000000
# 3 -0.003525 -0.003525 0.008802 0.000000 0.000000 0.000000
# 4 -0.000845 0.000845 0.000000 0.058847 0.000000 0.020263
# 5 -0.010132 0.010132 0.000000 0.000000 0.058847 -0.001690
# 6 0.000000 0.000000 0.000000 0.020263 -0.001690 0.061877
#
#
# Mechanical properties :
#
#
# Convention : Reuss Voigt Hill
#
# Bulk Modulus (GPa) = 57.19133 63.49364 60.34248
# Shear Modulus (GPa) = 18.50636 22.68889 20.59762
#
# Velocity S-wave (km/s) = 3.07275 3.40230 3.24171
# Velocity P-wave (km/s) = 6.46278 6.91578 6.69311
#
# Compressibility (1/GPa) = 0.01748517
#
# Stress axis : x y z
#
# Youngs Moduli (GPa) = 47.24734 47.24734 113.61488
#
# Poissons Ratio (x) = 0.46176 0.40050
# Poissons Ratio (y) = 0.46176 0.40050
# Poissons Ratio (z) = 0.16655 0.16655
#
# Static dielectric constant tensor:
#      x y z
#    x 1.737010 0.000000 0.000000 
#    y 0.000000 1.737010 0.000000 
#    z 0.000000 0.000000 1.700800 
# 
# From -- ./inp_files/845.got.cif
#   From: 2010.05.17/outbox.cif.g08.bks.cpg/sg147_cif.got.tgz:845.got - 2010.05.20 13:49:32.
