data_PCOD9574950
_publ_section_title
;
Structure prediction by ZEFSAII (Michael W. Deem and Ramdas Pophale) SiO2 
 PCOD9574950
Probable space group: P -3
;
_chemical_formula_sum "Si O2"
_cell_formula_units_Z 24
_cell_length_a 13.431661
_cell_length_b 13.431661
_cell_length_c 6.746413
_cell_angle_alpha 90.000000
_cell_angle_beta 90.000000
_cell_angle_gamma 120.000000
_cell_volume 1054.054339
_symmetry_space_group_name_H-M "P -3"
_symmetry_group_IT_number 147
_symmetry_cell_setting 'hexagonal'
loop_
_space_group_symop_operation_xyz
x,y,z
-y,x-y,z
-x+y,-x,z
-x,-y,-z
y,-x+y,-z
x-y,x,-z
loop_
_atom_site_type_symbol
_atom_site_label
_atom_site_fract_x
_atom_site_fract_y
_atom_site_fract_z
Si Si1 0.739422 0.857251 0.571485
Si Si2 0.597768 0.474332 0.338665
Si Si3 0.263489 0.831017 0.881283
Si Si4 0.460360 0.326924 0.663879
O O1 0.815074 0.804414 0.488814
O O2 0.696942 0.822015 0.799778
O O3 0.617570 0.789047 0.457950
O O4 0.702336 0.491245 0.203525
O O5 0.480287 0.386606 0.223603
O O6 0.579422 0.409801 0.549376
O O7 0.600029 0.594318 0.351058
O O8 0.288754 0.833919 0.111828
#
# Coordination Sequence:
#
# PCOD9574950 Si02
#       4
#     6   6   6   6
#     4  11  24  42  65  97 136 184 238 292 341 405
#     4  10  22  42  62 103 135 174 228 281 345 420
#     4  11  23  40  71  98 136 178 233 278 358 413
#     4  10  23  42  67  95 140 180 224 285 346 419
#
# _framework density 22.769224999999999
#
# number of rings (size 3 to 8) (size 9 to 14) (size 15 to 20)
#    0.000    1.500    2.500    1.500    3.500    4.000 
#    0.000    0.000    0.000    3.000    0.000    0.000 
#    0.000    0.000    0.000    0.000    0.000    0.000 
#
# Total GULP energy -134051.335685 kJ/mol
# GULP energy per Si atom -5585.472320 kJ/mol
# Density = 2.271740 g / cm^3
# Si number density = 22.769225 Si / 1000 Ang^3
#
#
#
# Elastic Constant Matrix: (Units=GPa)
#
#
# Indices 1 2 3 4 5 6 
#
# 1 104.9937 39.6950 47.2359 2.8615 -4.7926 0.0000
# 2 39.6950 104.9937 47.2359 -2.8615 4.7926 0.0000
# 3 47.2359 47.2359 202.5599 0.0000 0.0000 0.0000
# 4 2.8615 -2.8615 0.0000 23.2200 0.0000 4.7926
# 5 -4.7926 4.7926 0.0000 0.0000 23.2200 2.8615
# 6 0.0000 0.0000 0.0000 4.7926 2.8615 32.6494
#
#
#
# Elastic Compliance Matrix: (Units=1/GPa)
#
#
# Indices 1 2 3 4 5 6 
#
# 1 0.012062 -0.003909 -0.001901 -0.001968 0.003296 0.000000
# 2 -0.003909 0.012062 -0.001901 0.001968 -0.003296 0.000000
# 3 -0.001901 -0.001901 0.005823 0.000000 0.000000 0.000000
# 4 -0.001968 0.001968 0.000000 0.044912 0.000000 -0.006593
# 5 0.003296 -0.003296 0.000000 0.000000 0.044912 -0.003936
# 6 0.000000 0.000000 0.000000 -0.006593 -0.003936 0.031941
#
#
# Mechanical properties :
#
#
# Convention : Reuss Voigt Hill
#
# Bulk Modulus (GPa) = 68.85036 75.65345 72.25190
# Shear Modulus (GPa) = 29.07374 34.37656 31.72515
#
# Velocity S-wave (km/s) = 3.57723 3.88981 3.73679
# Velocity P-wave (km/s) = 6.88230 7.31249 7.10065
#
# Compressibility (1/GPa) = 0.01452425
#
# Stress axis : x y z
#
# Youngs Moduli (GPa) = 82.90730 82.90730 171.71814
#
# Poissons Ratio (x) = 0.32408 0.32647
# Poissons Ratio (y) = 0.32408 0.32647
# Poissons Ratio (z) = 0.15762 0.15762
#
# Static dielectric constant tensor:
#      x y z
#    x 1.878080 0.000000 0.000000 
#    y 0.000000 1.878080 0.000000 
#    z 0.000000 0.000000 1.912870 
# 
# From -- ./inp_files/111.got.cif
#   From: 2010.05.17/outbox.cif.g08.bks.cpg/sg147_cif.got.tgz:111.got - 2010.05.20 13:49:32.
