data_PCOD9574570
_publ_section_title
;
Structure prediction by ZEFSAII (Michael W. Deem and Ramdas Pophale) SiO2 
 PCOD9574570
Probable space group: P 32
;
_chemical_formula_sum "Si O2"
_cell_formula_units_Z 21
_cell_length_a 10.920762
_cell_length_b 10.920762
_cell_length_c 10.763607
_cell_angle_alpha 90.000000
_cell_angle_beta 90.000000
_cell_angle_gamma 120.000000
_cell_volume 1111.717262
_symmetry_space_group_name_H-M "P 32"
_symmetry_group_IT_number 145
_symmetry_cell_setting 'hexagonal'
loop_
_space_group_symop_operation_xyz
x,y,z
-y,x-y,2/3+z
-x+y,-x,1/3+z
loop_
_atom_site_type_symbol
_atom_site_label
_atom_site_fract_x
_atom_site_fract_y
_atom_site_fract_z
Si Si1 0.757057 0.877871 0.731960
Si Si2 0.126708 0.723792 0.829344
Si Si3 0.285257 0.965477 0.652229
Si Si4 0.754579 0.069876 0.389343
Si Si5 0.526267 0.896858 0.580968
Si Si6 0.821572 0.830404 0.465952
Si Si7 0.326801 0.838379 0.051070
O O1 0.739856 0.787763 0.853259
O O2 0.611746 0.870734 0.689696
O O3 0.805923 0.822520 0.614170
O O4 0.871761 0.040771 0.754234
O O5 0.163783 0.858754 0.746042
O O6 0.110813 0.598903 0.741847
O O7 0.998528 0.675043 0.925833
O O8 0.263990 0.774502 0.917667
O O9 0.399936 0.915794 0.631233
O O10 0.352869 0.123538 0.704763
O O11 0.638530 0.031217 0.497508
O O12 0.827548 0.976672 0.426574
O O13 0.483293 0.767911 0.484392
O O14 0.673019 0.711714 0.408644
#
# Coordination Sequence:
#
# PCOD9574570 Si02
#       7
#     3   3   3   3   3   3   3
#     4  10  22  36  61  89 115 153 197 245 298 350
#     4  10  22  36  61  89 115 153 197 245 298 350
#     4  12  24  36  62  86 124 152 204 238 290 374
#     4   9  23  39  59  85 122 153 190 249 302 339
#     4   9  23  39  59  85 122 153 190 249 302 339
#     4   9  20  37  62  85 118 148 194 252 296 344
#     4   9  20  37  62  85 118 148 194 252 296 344
#
# _framework density 18.889693999999999
#
# number of rings (size 3 to 8) (size 9 to 14) (size 15 to 20)
#    0.000    2.857    0.000    1.714   24.000    0.000 
#    0.000    1.429    0.000    0.000    0.000    0.000 
#    0.000    0.000    0.000    0.000    0.000    0.000 
#
# Total GULP energy -117175.739146 kJ/mol
# GULP energy per Si atom -5579.797102 kJ/mol
# Density = 1.884670 g / cm^3
# Si number density = 18.889694 Si / 1000 Ang^3
#
#
#
# Elastic Constant Matrix: (Units=GPa)
#
#
# Indices 1 2 3 4 5 6 
#
# 1 28.2839 -2.3664 -8.7965 2.7963 0.9930 0.0000
# 2 -2.3664 28.2839 -8.7965 -2.7963 -0.9930 0.0000
# 3 -8.7965 -8.7965 42.2125 0.0000 0.0000 0.0000
# 4 2.7963 -2.7963 0.0000 12.7875 0.0000 -0.9930
# 5 0.9930 -0.9930 0.0000 0.0000 12.7875 2.7963
# 6 0.0000 0.0000 0.0000 -0.9930 2.7963 15.3252
#
#
#
# Elastic Compliance Matrix: (Units=1/GPa)
#
#
# Indices 1 2 3 4 5 6 
#
# 1 0.039551 0.005390 0.009365 -0.007470 -0.002653 0.000000
# 2 0.005390 0.039551 0.009365 0.007470 0.002653 0.000000
# 3 0.009365 0.009365 0.027593 0.000000 0.000000 0.000000
# 4 -0.007470 0.007470 0.000000 0.081880 0.000000 0.005305
# 5 -0.002653 0.002653 0.000000 0.000000 0.081880 -0.014940
# 6 0.000000 0.000000 0.000000 0.005305 -0.014940 0.068322
#
#
# Mechanical properties :
#
#
# Convention : Reuss Voigt Hill
#
# Bulk Modulus (GPa) = 6.45433 6.54019 6.49726
# Shear Modulus (GPa) = 14.61212 16.09603 15.35408
#
# Velocity S-wave (km/s) = 2.78429 2.92225 2.85411
# Velocity P-wave (km/s) = 3.70954 3.85434 3.78263
#
# Compressibility (1/GPa) = 0.15493476
#
# Stress axis : x y z
#
# Youngs Moduli (GPa) = 25.28385 25.28385 36.24144
#
# Poissons Ratio (x) = -0.13628 -0.33940
# Poissons Ratio (y) = -0.13628 -0.33940
# Poissons Ratio (z) = -0.23678 -0.23678
#
# Static dielectric constant tensor:
#      x y z
#    x 1.657020 0.000000 0.000000 
#    y 0.000000 1.657020 0.000000 
#    z 0.000000 0.000000 1.666530 
# 
# From -- ./inp_files/361.got.cif
#   From: 2010.05.17/outbox.cif.g08.bks.cpg/sg145_cif.got.tgz:361.got - 2010.05.20 13:47:28.
