data_PCOD9574201
_publ_section_title
;
Structure prediction by ZEFSAII (Michael W. Deem and Ramdas Pophale) SiO2 
 PCOD9574201
Probable space group: I 41/A C D
;
_chemical_formula_sum "Si O2"
_cell_formula_units_Z 128
_cell_length_a 20.848618
_cell_length_b 20.848618
_cell_length_c 14.651899
_cell_angle_alpha 90.000000
_cell_angle_beta 90.000000
_cell_angle_gamma 90.000000
_cell_volume 6368.665811
_symmetry_space_group_name_H-M "I 41/A C D"
_symmetry_group_IT_number 142
_space_group.IT_coordinate_system_code '2'
_symmetry_cell_setting 'tetragonal'
loop_
_space_group_symop_operation_xyz
x,y,z
1/4-y,3/4+x,1/4+z
-x,1/2-y,z
1/4+y,1/4-x,3/4+z
x,-y,1/2-z
1/2-x,y,-z
3/4+y,1/4+x,1/4-z
1/4-y,1/4-x,1/4-z
-x,-y,-z
3/4+y,1/4-x,3/4-z
x,1/2+y,-z
3/4-y,3/4+x,1/4-z
-x,y,1/2+z
1/2+x,-y,z
1/4-y,3/4-x,3/4+z
3/4+y,3/4+x,3/4+z
1/2+x,1/2+y,1/2+z
3/4-y,1/4+x,3/4+z
1/2-x,-y,1/2+z
3/4+y,3/4-x,1/4+z
1/2+x,1/2-y,-z
-x,1/2+y,1/2-z
1/4+y,3/4+x,3/4-z
3/4-y,3/4-x,3/4-z
1/2-x,1/2-y,1/2-z
1/4+y,3/4-x,1/4-z
1/2+x,y,1/2-z
1/4-y,1/4+x,3/4-z
1/2-x,1/2+y,z
x,1/2-y,1/2+z
3/4-y,1/4-x,1/4+z
1/4+y,1/4+x,1/4+z
loop_
_atom_site_type_symbol
_atom_site_label
_atom_site_fract_x
_atom_site_fract_y
_atom_site_fract_z
Si Si1 0.750000 0.675736 0.000000
Si Si2 0.814379 0.933476 0.707237
Si Si3 0.883508 0.366493 0.125000
Si Si4 0.137859 0.428412 0.993105
Si Si5 0.989352 0.055810 0.075942
O O1 0.689546 0.627666 0.001160
O O2 0.764317 0.720734 0.914384
O O3 0.858387 0.900934 0.783159
O O4 0.853516 0.944521 0.614224
O O5 0.744884 0.899303 0.700773
O O6 0.793754 0.000000 0.750000
O O7 0.856341 0.294777 0.145409
O O8 0.069947 0.405742 0.030984
O O9 0.000000 0.000000 0.000000
#
# Coordination Sequence:
#
# PCOD9574201 Si02
#       5
#    16  32  16  32  32
#     4  12  26  44  70 104 142 188 246 322 376 442
#     4  12  21  38  71 103 149 181 242 322 397 437
#     4  12  26  44  69 108 150 200 244 313 380 482
#     4  12  23  41  68 107 145 187 241 322 383 447
#     4  12  26  45  69 108 148 195 248 306 386 464
#
# _framework density 20.098400999999999
#
# number of rings (size 3 to 8) (size 9 to 14) (size 15 to 20)
#    0.000    0.000    8.750    0.750    5.250    0.000 
#    0.000    2.500    0.000    0.000    0.000    0.000 
#    0.000    0.000    0.000    0.000    0.000    0.000 
#
# Total GULP energy -356772.591311 kJ/mol
# GULP energy per Si atom -5574.571739 kJ/mol
# Density = 2.005266 g / cm^3
# Si number density = 20.098401 Si / 1000 Ang^3
#
#
#
# Elastic Constant Matrix: (Units=GPa)
#
#
# Indices 1 2 3 4 5 6 
#
# 1 104.4495 81.5204 39.6604 0.0000 0.0000 0.0000
# 2 81.5204 104.4458 39.6563 0.0000 0.0000 0.0000
# 3 39.6604 39.6563 133.1452 0.0000 0.0000 0.0000
# 4 0.0000 0.0000 0.0000 24.3591 0.0000 0.0000
# 5 0.0000 0.0000 0.0000 0.0000 24.3572 0.0000
# 6 0.0000 0.0000 0.0000 0.0000 0.0000 -3.5954
#
#
#
# Elastic Compliance Matrix: (Units=1/GPa)
#
#
# Indices 1 2 3 4 5 6 
#
# 1 0.024888 -0.018728 -0.001835 0.000000 0.000000 0.000000
# 2 -0.018728 0.024888 -0.001834 0.000000 0.000000 0.000000
# 3 -0.001835 -0.001834 0.008604 0.000000 0.000000 0.000000
# 4 0.000000 0.000000 0.000000 0.041052 0.000000 0.000000
# 5 0.000000 0.000000 0.000000 0.000000 0.041056 0.000000
# 6 0.000000 0.000000 0.000000 0.000000 0.000000 -0.278132
#
#
# Mechanical properties :
#
#
# Convention : Reuss Voigt Hill
#
# Bulk Modulus (GPa) = 73.61491 73.74607 73.68049
# Shear Modulus (GPa) = -56.61201 21.10440 -17.75380
#
# Velocity S-wave (km/s) = -5.31306 3.24397 -2.97533
# Velocity P-wave (km/s) = 0.96505 7.12764 4.99359
#
# Compressibility (1/GPa) = 0.01358421
#
# Stress axis : x y z
#
# Youngs Moduli (GPa) = 40.18026 40.17973 116.23066
#
# Poissons Ratio (x) = 0.75249 0.21333
# Poissons Ratio (y) = 0.75250 0.21318
# Poissons Ratio (z) = 0.07375 0.07369
#
# Static dielectric constant tensor:
#      x y z
#    x 1.823570 0.000000 0.000000 
#    y 0.000000 1.823560 0.000000 
#    z 0.000000 0.000000 1.671350 
# 
# From -- ./inp_files/5133.got.cif
#   From: 2010.05.17/outbox.cif.g08.bks.cpg/sg142_3_cif.got.tgz:5133.got - 2010.05.20 13:39:18.
