data_PCOD9574375
_publ_section_title
;
Structure prediction by ZEFSAII (Michael W. Deem and Ramdas Pophale) SiO2 
 PCOD9574375
Probable space group: P 31
;
_chemical_formula_sum "Si O2"
_cell_formula_units_Z 24
_cell_length_a 13.541553
_cell_length_b 13.541553
_cell_length_c 6.658172
_cell_angle_alpha 90.000000
_cell_angle_beta 90.000000
_cell_angle_gamma 120.000000
_cell_volume 1057.359300
_symmetry_space_group_name_H-M "P 31"
_symmetry_group_IT_number 144
_symmetry_cell_setting 'hexagonal'
loop_
_space_group_symop_operation_xyz
x,y,z
-y,x-y,1/3+z
-x+y,-x,2/3+z
loop_
_atom_site_type_symbol
_atom_site_label
_atom_site_fract_x
_atom_site_fract_y
_atom_site_fract_z
Si Si1 0.423639 0.649123 0.062830
Si Si2 0.057332 0.336704 0.548365
Si Si3 0.080202 0.004023 0.706308
Si Si4 0.530196 0.135300 0.142100
Si Si5 0.821144 0.700986 0.218532
Si Si6 0.759825 0.950460 0.629352
Si Si7 0.792000 0.477695 0.110285
Si Si8 0.420469 0.421451 0.134531
O O1 0.398640 0.720933 0.228911
O O2 0.433225 0.545171 0.162155
O O3 0.545838 0.715046 0.951449
O O4 0.109732 0.275190 0.415822
O O5 0.962363 0.359737 0.442060
O O6 0.982481 0.265430 0.741344
O O7 0.045673 0.973751 0.476411
O O8 0.214694 0.065173 0.736049
O O9 0.023271 0.885785 0.817671
O O10 0.546155 0.237919 0.287326
O O11 0.578633 0.063219 0.262570
O O12 0.592722 0.194329 0.937216
O O13 0.782222 0.570927 0.249639
O O14 0.944396 0.748042 0.114127
O O15 0.663092 0.949135 0.489365
O O16 0.905289 0.524235 0.973670
#
# Coordination Sequence:
#
# PCOD9574375 Si02
#       8
#     3   3   3   3   3   3   3   3
#     4  11  25  45  72 105 148 189 242 292 364 429
#     4  10  23  46  68 104 146 187 241 296 359 441
#     4  12  23  38  62  97 135 180 227 281 349 420
#     4  10  24  48  73 102 141 187 245 305 364 441
#     4  10  22  42  65 101 136 183 237 289 352 429
#     4  11  22  40  69  98 141 181 233 290 358 423
#     4  10  24  47  73  97 140 184 243 301 366 427
#     4  10  25  42  68 108 133 185 246 290 356 434
#
# _framework density 22.698058
#
# number of rings (size 3 to 8) (size 9 to 14) (size 15 to 20)
#    0.000    1.500    1.250    2.250    3.500    9.000 
#    4.500    0.000    0.000    0.000    0.000    0.000 
#    0.000    0.000    0.000    0.000    0.000    0.000 
#
# Total GULP energy -133929.457572 kJ/mol
# GULP energy per Si atom -5580.394065 kJ/mol
# Density = 2.264640 g / cm^3
# Si number density = 22.698058 Si / 1000 Ang^3
#
#
#
# Elastic Constant Matrix: (Units=GPa)
#
#
# Indices 1 2 3 4 5 6 
#
# 1 107.0927 29.7499 42.4808 -2.0484 -1.4960 0.0000
# 2 29.7499 107.0927 42.4808 2.0484 1.4960 0.0000
# 3 42.4808 42.4808 62.2622 0.0000 0.0000 0.0000
# 4 -2.0484 2.0484 0.0000 28.4979 0.0000 1.4960
# 5 -1.4960 1.4960 0.0000 0.0000 28.4979 -2.0484
# 6 0.0000 0.0000 0.0000 1.4960 -2.0484 38.6714
#
#
#
# Elastic Compliance Matrix: (Units=1/GPa)
#
#
# Indices 1 2 3 4 5 6 
#
# 1 0.012842 -0.000163 -0.008650 0.000935 0.000683 0.000000
# 2 -0.000163 0.012842 -0.008650 -0.000935 -0.000683 0.000000
# 3 -0.008650 -0.008650 0.027865 0.000000 0.000000 0.000000
# 4 0.000935 -0.000935 0.000000 0.035296 0.000000 -0.001365
# 5 0.000683 -0.000683 0.000000 0.000000 0.035296 0.001870
# 6 0.000000 0.000000 0.000000 -0.001365 0.001870 0.026011
#
#
# Mechanical properties :
#
#
# Convention : Reuss Voigt Hill
#
# Bulk Modulus (GPa) = 53.70386 56.20786 54.95586
# Shear Modulus (GPa) = 26.13860 29.91581 28.02721
#
# Velocity S-wave (km/s) = 3.39717 3.63435 3.51776
# Velocity P-wave (km/s) = 6.25293 6.51371 6.38465
#
# Compressibility (1/GPa) = 0.01862063
#
# Stress axis : x y z
#
# Youngs Moduli (GPa) = 77.87004 77.87004 35.88702
#
# Poissons Ratio (x) = 0.01273 0.31044
# Poissons Ratio (y) = 0.01273 0.31044
# Poissons Ratio (z) = 0.67360 0.67360
#
# Static dielectric constant tensor:
#      x y z
#    x 1.893180 0.000000 0.000000 
#    y 0.000000 1.893180 0.000000 
#    z 0.000000 0.000000 1.897450 
# 
# From -- ./inp_files/140.got.cif
#   From: 2010.05.17/outbox.cif.g08.bks.cpg/sg144_cif.got.tgz:140.got - 2010.05.20 13:46:34.
