data_PCOD9574846
_publ_section_title
;
Structure prediction by ZEFSAII (Michael W. Deem and Ramdas Pophale) SiO2 
 PCOD9574846
Probable space group: P -3
;
_chemical_formula_sum "Si O2"
_cell_formula_units_Z 42
_cell_length_a 20.566031
_cell_length_b 20.566031
_cell_length_c 6.456026
_cell_angle_alpha 90.000000
_cell_angle_beta 90.000000
_cell_angle_gamma 120.000000
_cell_volume 2364.813384
_symmetry_space_group_name_H-M "P -3"
_symmetry_group_IT_number 147
_symmetry_cell_setting 'hexagonal'
loop_
_space_group_symop_operation_xyz
x,y,z
-y,x-y,z
-x+y,-x,z
-x,-y,-z
y,-x+y,-z
x-y,x,-z
loop_
_atom_site_type_symbol
_atom_site_label
_atom_site_fract_x
_atom_site_fract_y
_atom_site_fract_z
Si Si1 0.905625 0.413860 0.564080
Si Si2 0.345493 0.887061 0.253026
Si Si3 0.945359 0.686970 0.467931
Si Si4 0.319904 0.433262 0.821775
Si Si5 0.118291 0.792639 0.483115
Si Si6 0.601713 0.622133 0.866906
Si Si7 0.201191 0.732390 0.208352
O O1 0.901450 0.487843 0.599525
O O2 0.909272 0.390363 0.329505
O O3 0.830299 0.342750 0.656231
O O4 0.974349 0.419328 0.702088
O O5 0.302664 0.928364 0.350087
O O6 0.284833 0.799059 0.243276
O O7 0.377775 0.919103 0.024484
O O8 0.880553 0.708127 0.483036
O O9 0.942367 0.641843 0.259992
O O10 0.029183 0.757404 0.472994
O O11 0.251541 0.380633 0.673736
O O12 0.342489 0.387201 0.977004
O O13 0.294212 0.478057 0.971851
O O14 0.149485 0.767660 0.285747
#
# Coordination Sequence:
#
# PCOD9574846 Si02
#       7
#     6   6   6   6   6   6   6
#     4  10  21  35  53  81 112 144 188 243 275 331
#     4  11  22  35  56  82 108 154 187 232 290 330
#     4  11  21  35  57  83 112 139 187 229 282 338
#     4  10  17  36  55  75 115 142 180 235 279 324
#     4  10  19  36  54  81 110 140 179 230 278 336
#     4  11  19  34  54  82 109 144 181 230 280 339
#     4   9  20  37  53  75 109 148 190 231 275 335
#
# _framework density 17.760387000000001
#
# number of rings (size 3 to 8) (size 9 to 14) (size 15 to 20)
#    0.000    1.714    5.714    1.286    0.000    4.571 
#    0.857    0.000    0.000    0.286    3.714    0.000 
#    0.000    1.143    0.000    0.000    0.000    0.000 
#
# Total GULP energy -234225.159551 kJ/mol
# GULP energy per Si atom -5576.789513 kJ/mol
# Density = 1.771996 g / cm^3
# Si number density = 17.760387 Si / 1000 Ang^3
#
#
#
# Elastic Constant Matrix: (Units=GPa)
#
#
# Indices 1 2 3 4 5 6 
#
# 1 82.6688 45.0665 24.1100 -1.5908 -4.1279 0.0000
# 2 45.0665 82.6688 24.1100 1.5908 4.1279 0.0000
# 3 24.1100 24.1100 95.8463 0.0000 0.0000 0.0000
# 4 -1.5908 1.5908 0.0000 13.5094 0.0000 4.1279
# 5 -4.1279 4.1279 0.0000 0.0000 13.5094 -1.5908
# 6 0.0000 0.0000 0.0000 4.1279 -1.5908 18.8012
#
#
#
# Elastic Compliance Matrix: (Units=1/GPa)
#
#
# Indices 1 2 3 4 5 6 
#
# 1 0.018732 -0.010082 -0.002176 0.003393 0.008804 0.000000
# 2 -0.010082 0.018732 -0.002176 -0.003393 -0.008804 0.000000
# 3 -0.002176 -0.002176 0.011528 0.000000 0.000000 0.000000
# 4 0.003393 -0.003393 0.000000 0.080202 0.000000 -0.017609
# 5 0.008804 -0.008804 0.000000 0.000000 0.080202 0.006786
# 6 0.000000 0.000000 0.000000 -0.017609 0.006786 0.057628
#
#
# Mechanical properties :
#
#
# Convention : Reuss Voigt Hill
#
# Bulk Modulus (GPa) = 49.69046 49.75077 49.72062
# Shear Modulus (GPa) = 16.52338 20.35714 18.44026
#
# Velocity S-wave (km/s) = 3.05347 3.38925 3.22573
# Velocity P-wave (km/s) = 6.36165 6.58703 6.47532
#
# Compressibility (1/GPa) = 0.02012459
#
# Stress axis : x y z
#
# Youngs Moduli (GPa) = 53.38411 53.38411 86.74475
#
# Poissons Ratio (x) = 0.53822 0.18875
# Poissons Ratio (y) = 0.53822 0.18875
# Poissons Ratio (z) = 0.11616 0.11616
#
# Static dielectric constant tensor:
#      x y z
#    x 1.616750 0.000000 0.000000 
#    y 0.000000 1.616750 0.000000 
#    z 0.000000 0.000000 1.645280 
# 
# From -- ./inp_files/235.got.cif
#   From: 2010.05.17/outbox.cif.g08.bks.cpg/sg147_cif.got.tgz:235.got - 2010.05.20 13:49:32.
