data_PCOD9574925
_publ_section_title
;
Structure prediction by ZEFSAII (Michael W. Deem and Ramdas Pophale) SiO2 
 PCOD9574925
Probable space group: P -3
;
_chemical_formula_sum "Si O2"
_cell_formula_units_Z 42
_cell_length_a 14.306324
_cell_length_b 14.306324
_cell_length_c 12.525122
_cell_angle_alpha 90.000000
_cell_angle_beta 90.000000
_cell_angle_gamma 120.000000
_cell_volume 2220.080434
_symmetry_space_group_name_H-M "P -3"
_symmetry_group_IT_number 147
_symmetry_cell_setting 'hexagonal'
loop_
_space_group_symop_operation_xyz
x,y,z
-y,x-y,z
-x+y,-x,z
-x,-y,-z
y,-x+y,-z
x-y,x,-z
loop_
_atom_site_type_symbol
_atom_site_label
_atom_site_fract_x
_atom_site_fract_y
_atom_site_fract_z
Si Si1 0.161045 0.425582 0.799168
Si Si2 0.396308 0.522545 0.845622
Si Si3 0.155911 0.907243 0.626917
Si Si4 0.080035 0.390987 0.197423
Si Si5 0.585644 0.392014 0.927877
Si Si6 0.172459 0.915813 0.997235
Si Si7 0.749440 0.843147 0.372829
O O1 0.283243 0.519074 0.828009
O O2 0.105322 0.498251 0.782077
O O3 0.148576 0.357594 0.694128
O O4 0.112820 0.337481 0.895507
O O5 0.355074 0.399576 0.815677
O O6 0.436416 0.558882 0.967320
O O7 0.168391 0.899245 0.499923
O O8 0.027951 0.845956 0.650316
O O9 0.211606 0.033479 0.656412
O O10 0.130203 0.518405 0.174185
O O11 0.109347 0.352562 0.305191
O O12 0.103375 0.330252 0.101536
O O13 0.551769 0.265785 0.929422
O O14 0.042559 0.836652 0.001599
#
# Coordination Sequence:
#
# PCOD9574925 Si02
#       7
#     6   6   6   6   6   6   6
#     4  12  23  39  64  91 121 164 214 262 312 370
#     4  12  21  39  61  89 120 162 212 260 305 374
#     4  10  21  41  67  95 126 167 208 258 315 385
#     4  12  23  36  61  90 123 159 207 262 310 371
#     4  10  21  37  58  82 118 159 210 254 301 369
#     4  12  24  38  58  90 133 164 200 250 327 388
#     4  10  21  40  67  95 128 162 211 257 314 381
#
# _framework density 18.918233000000001
#
# number of rings (size 3 to 8) (size 9 to 14) (size 15 to 20)
#    0.286    0.571    5.714    2.000    0.000    2.286 
#    0.000    3.571    3.143    0.000    0.000    0.000 
#    0.000    0.000    0.000    0.000    0.000    0.000 
#
# Total GULP energy -233940.120340 kJ/mol
# GULP energy per Si atom -5570.002865 kJ/mol
# Density = 1.887517 g / cm^3
# Si number density = 18.918233 Si / 1000 Ang^3
#
#
#
# Elastic Constant Matrix: (Units=GPa)
#
#
# Indices 1 2 3 4 5 6 
#
# 1 98.1652 35.5398 32.5588 0.3810 2.2251 0.0000
# 2 35.5398 98.1652 32.5588 -0.3810 -2.2251 0.0000
# 3 32.5588 32.5588 50.3828 0.0000 0.0000 0.0000
# 4 0.3810 -0.3810 0.0000 26.4112 0.0000 -2.2251
# 5 2.2251 -2.2251 0.0000 0.0000 26.4112 0.3810
# 6 0.0000 0.0000 0.0000 -2.2251 0.3810 31.3127
#
#
#
# Elastic Compliance Matrix: (Units=1/GPa)
#
#
# Indices 1 2 3 4 5 6 
#
# 1 0.013491 -0.002576 -0.007053 -0.000232 -0.001354 0.000000
# 2 -0.002576 0.013491 -0.007053 0.000232 0.001354 0.000000
# 3 -0.007053 -0.007053 0.028964 0.000000 0.000000 0.000000
# 4 -0.000232 0.000232 0.000000 0.038097 0.000000 0.002707
# 5 -0.001354 0.001354 0.000000 0.000000 0.038097 -0.000464
# 6 0.000000 0.000000 0.000000 0.002707 -0.000464 0.032134
#
#
# Mechanical properties :
#
#
# Convention : Reuss Voigt Hill
#
# Bulk Modulus (GPa) = 44.28708 49.78089 47.03399
# Shear Modulus (GPa) = 24.37057 26.56408 25.46733
#
# Velocity S-wave (km/s) = 3.59305 3.75127 3.67301
# Velocity P-wave (km/s) = 6.37761 6.71815 6.55009
#
# Compressibility (1/GPa) = 0.02257995
#
# Stress axis : x y z
#
# Youngs Moduli (GPa) = 74.12585 74.12585 34.52582
#
# Poissons Ratio (x) = 0.19098 0.24351
# Poissons Ratio (y) = 0.19098 0.24351
# Poissons Ratio (z) = 0.52281 0.52281
#
# Static dielectric constant tensor:
#      x y z
#    x 1.743510 0.000000 0.000000 
#    y 0.000000 1.743510 0.000000 
#    z 0.000000 0.000000 1.646720 
# 
# From -- ./inp_files/848.got.cif
#   From: 2010.05.17/outbox.cif.g08.bks.cpg/sg147_cif.got.tgz:848.got - 2010.05.20 13:49:32.
