data_PCOD9574477
_publ_section_title
;
Structure prediction by ZEFSAII (Michael W. Deem and Ramdas Pophale) SiO2 
 PCOD9574477
Probable space group: P 31
;
_chemical_formula_sum "Si O2"
_cell_formula_units_Z 21
_cell_length_a 6.988097
_cell_length_b 6.988097
_cell_length_c 21.081382
_cell_angle_alpha 90.000000
_cell_angle_beta 90.000000
_cell_angle_gamma 120.000000
_cell_volume 891.553807
_symmetry_space_group_name_H-M "P 31"
_symmetry_group_IT_number 144
_symmetry_cell_setting 'hexagonal'
loop_
_space_group_symop_operation_xyz
x,y,z
-y,x-y,1/3+z
-x+y,-x,2/3+z
loop_
_atom_site_type_symbol
_atom_site_label
_atom_site_fract_x
_atom_site_fract_y
_atom_site_fract_z
Si Si1 0.107111 0.051966 0.962660
Si Si2 0.005013 0.640771 0.915065
Si Si3 0.808044 0.618677 0.376962
Si Si4 0.567297 0.161897 0.304594
Si Si5 0.075650 0.481886 0.153660
Si Si6 0.275724 0.081175 0.523320
Si Si7 0.207185 0.486424 0.738941
O O1 0.058716 0.804419 0.975608
O O2 0.741463 0.557451 0.909645
O O3 0.364677 0.218937 0.956580
O O4 0.989919 0.138346 0.011796
O O5 0.994358 0.408564 0.902199
O O6 0.209475 0.803044 0.870609
O O7 0.997808 0.049868 0.895012
O O8 0.640778 0.390837 0.342123
O O9 0.720680 0.612310 0.447055
O O10 0.039721 0.627596 0.379201
O O11 0.421098 0.952292 0.348572
O O12 0.274289 0.619563 0.103771
O O13 0.954523 0.609786 0.180539
O O14 0.259985 0.953342 0.458229
#
# Coordination Sequence:
#
# PCOD9574477 Si02
#       7
#     3   3   3   3   3   3   3
#     4  12  26  44  72 107 142 192 242 292 367 431
#     4  11  25  44  74 106 141 189 239 296 363 427
#     4  12  25  45  73 103 143 190 239 298 361 433
#     4  12  25  46  73 105 147 187 246 305 361 444
#     4  11  25  48  73 106 144 190 246 299 364 441
#     4  11  25  47  70 104 145 188 241 300 355 440
#     4  11  25  46  73 103 140 190 237 296 367 428
#
# _framework density 23.554383999999999
#
# number of rings (size 3 to 8) (size 9 to 14) (size 15 to 20)
#    0.000    0.571    5.714    1.714    0.000    6.857 
#    0.000    0.000    0.000    0.000    0.000    0.000 
#    0.000    0.000    0.000    0.000    0.000    0.000 
#
# Total GULP energy -117218.297976 kJ/mol
# GULP energy per Si atom -5581.823713 kJ/mol
# Density = 2.350077 g / cm^3
# Si number density = 23.554384 Si / 1000 Ang^3
#
#
#
# Elastic Constant Matrix: (Units=GPa)
#
#
# Indices 1 2 3 4 5 6 
#
# 1 132.1877 58.5267 17.7453 -0.8254 6.7550 0.0000
# 2 58.5267 132.1877 17.7453 0.8254 -6.7550 0.0000
# 3 17.7453 17.7453 25.8026 0.0000 0.0000 0.0000
# 4 -0.8254 0.8254 0.0000 39.9902 0.0000 -6.7550
# 5 6.7550 -6.7550 0.0000 0.0000 39.9902 -0.8254
# 6 0.0000 0.0000 0.0000 -6.7550 -0.8254 36.8305
#
#
#
# Elastic Compliance Matrix: (Units=1/GPa)
#
#
# Indices 1 2 3 4 5 6 
#
# 1 0.010015 -0.004002 -0.004135 0.000289 -0.002368 0.000000
# 2 -0.004002 0.010015 -0.004135 -0.000289 0.002368 0.000000
# 3 -0.004135 -0.004135 0.044444 0.000000 0.000000 0.000000
# 4 0.000289 -0.000289 0.000000 0.025818 0.000000 0.004735
# 5 -0.002368 0.002368 0.000000 0.000000 0.025818 0.000579
# 6 0.000000 0.000000 0.000000 0.004735 0.000579 0.028033
#
#
# Mechanical properties :
#
#
# Convention : Reuss Voigt Hill
#
# Bulk Modulus (GPa) = 25.04477 53.13471 39.08974
# Shear Modulus (GPa) = 27.47309 36.43956 31.95632
#
# Velocity S-wave (km/s) = 3.41892 3.93751 3.68734
# Velocity P-wave (km/s) = 5.12261 6.57870 5.89578
#
# Compressibility (1/GPa) = 0.03992849
#
# Stress axis : x y z
#
# Youngs Moduli (GPa) = 99.85309 99.85309 22.50031
#
# Poissons Ratio (x) = 0.39958 0.09305
# Poissons Ratio (y) = 0.39958 0.09305
# Poissons Ratio (z) = 0.41293 0.41293
#
# Static dielectric constant tensor:
#      x y z
#    x 1.901510 0.000000 0.000000 
#    y 0.000000 1.901510 0.000000 
#    z 0.000000 0.000000 1.926810 
# 
# From -- ./inp_files/1054.got.cif
#   From: 2010.05.17/outbox.cif.g08.bks.cpg/sg144_cif.got.tgz:1054.got - 2010.05.20 13:46:34.
