data_PCOD9574029
_publ_section_title
;
Structure prediction by ZEFSAII (Michael W. Deem and Ramdas Pophale) SiO2 
 PCOD9574029
Probable space group: I 41/A C D
;
_chemical_formula_sum "Si O2"
_cell_formula_units_Z 160
_cell_length_a 26.781063
_cell_length_b 26.781063
_cell_length_c 11.257482
_cell_angle_alpha 90.000000
_cell_angle_beta 90.000000
_cell_angle_gamma 90.000000
_cell_volume 8074.151303
_symmetry_space_group_name_H-M "I 41/A C D"
_symmetry_group_IT_number 142
_space_group.IT_coordinate_system_code '2'
_symmetry_cell_setting 'tetragonal'
loop_
_space_group_symop_operation_xyz
x,y,z
1/4-y,3/4+x,1/4+z
-x,1/2-y,z
1/4+y,1/4-x,3/4+z
x,-y,1/2-z
1/2-x,y,-z
3/4+y,1/4+x,1/4-z
1/4-y,1/4-x,1/4-z
-x,-y,-z
3/4+y,1/4-x,3/4-z
x,1/2+y,-z
3/4-y,3/4+x,1/4-z
-x,y,1/2+z
1/2+x,-y,z
1/4-y,3/4-x,3/4+z
3/4+y,3/4+x,3/4+z
1/2+x,1/2+y,1/2+z
3/4-y,1/4+x,3/4+z
1/2-x,-y,1/2+z
3/4+y,3/4-x,1/4+z
1/2+x,1/2-y,-z
-x,1/2+y,1/2-z
1/4+y,3/4+x,3/4-z
3/4-y,3/4-x,3/4-z
1/2-x,1/2-y,1/2-z
1/4+y,3/4-x,1/4-z
1/2+x,y,1/2-z
1/4-y,1/4+x,3/4-z
1/2-x,1/2+y,z
x,1/2-y,1/2+z
3/4-y,1/4-x,1/4+z
1/4+y,1/4+x,1/4+z
loop_
_atom_site_type_symbol
_atom_site_label
_atom_site_fract_x
_atom_site_fract_y
_atom_site_fract_z
Si Si1 0.084651 0.665350 0.875000
Si Si2 0.750000 0.465482 0.500000
Si Si3 0.102736 0.776801 0.813496
Si Si4 0.436087 0.901963 0.841225
Si Si5 0.145686 0.095556 0.763778
Si Si6 0.461060 0.440425 0.745487
O O1 0.088192 0.719215 0.813961
O O2 0.084477 0.621054 0.779997
O O3 0.755533 0.494468 0.625000
O O4 0.797242 0.429608 0.484682
O O5 0.060653 0.810653 0.875000
O O6 0.108625 0.795640 0.679948
O O7 0.155966 0.781477 0.885328
O O8 0.485908 0.933878 0.820599
O O9 0.389275 0.922934 0.913918
O O10 0.140233 0.109768 0.625000
O O11 0.089627 0.083421 0.809792
O O12 0.451724 0.500000 0.750000
#
# Coordination Sequence:
#
# PCOD9574029 Si02
#       6
#    16  16  32  32  32  32
#     4  10  25  36  56  96 126 176 206 256 324 372
#     4  10  24  46  76 100 126 172 234 286 340 402
#     4  11  21  40  60  87 127 165 215 258 311 389
#     4  11  22  40  62  90 132 165 209 269 321 389
#     4  11  20  43  69  91 128 178 218 269 326 404
#     4  11  22  38  62  96 124 165 218 261 326 396
#
# _framework density 19.816324000000002
#
# number of rings (size 3 to 8) (size 9 to 14) (size 15 to 20)
#    0.000    1.200    5.000    1.500    2.800    0.800 
#    3.600    4.000    0.000    0.000    0.000    0.000 
#    0.000    0.000    0.000    0.000    0.000    0.000 
#
# Total GULP energy -445818.368083 kJ/mol
# GULP energy per Si atom -5572.729601 kJ/mol
# Density = 1.977122 g / cm^3
# Si number density = 19.816324 Si / 1000 Ang^3
#
#
#
# Elastic Constant Matrix: (Units=GPa)
#
#
# Indices 1 2 3 4 5 6 
#
# 1 91.3144 12.6447 11.8165 0.0000 0.0000 0.0000
# 2 12.6447 91.3167 11.8164 0.0000 0.0000 0.0000
# 3 11.8165 11.8164 60.9895 0.0000 0.0000 0.0000
# 4 0.0000 0.0000 0.0000 22.0621 0.0000 0.0000
# 5 0.0000 0.0000 0.0000 0.0000 22.0617 0.0000
# 6 0.0000 0.0000 0.0000 0.0000 0.0000 30.4664
#
#
#
# Elastic Compliance Matrix: (Units=1/GPa)
#
#
# Indices 1 2 3 4 5 6 
#
# 1 0.011387 -0.001324 -0.001950 0.000000 0.000000 0.000000
# 2 -0.001324 0.011387 -0.001949 0.000000 0.000000 0.000000
# 3 -0.001950 -0.001949 0.017152 0.000000 0.000000 0.000000
# 4 0.000000 0.000000 0.000000 0.045327 0.000000 0.000000
# 5 0.000000 0.000000 0.000000 0.000000 0.045327 0.000000
# 6 0.000000 0.000000 0.000000 0.000000 0.000000 0.032823
#
#
# Mechanical properties :
#
#
# Convention : Reuss Voigt Hill
#
# Bulk Modulus (GPa) = 33.92349 35.13064 34.52707
# Shear Modulus (GPa) = 27.22197 28.74091 27.98144
#
# Velocity S-wave (km/s) = 3.71039 3.81250 3.76179
# Velocity P-wave (km/s) = 5.95920 6.09482 6.02739
#
# Compressibility (1/GPa) = 0.02947810
#
# Stress axis : x y z
#
# Youngs Moduli (GPa) = 87.82048 87.82279 58.30337
#
# Poissons Ratio (x) = 0.11632 0.11366
# Poissons Ratio (y) = 0.11632 0.11366
# Poissons Ratio (z) = 0.17121 0.17121
#
# Static dielectric constant tensor:
#      x y z
#    x 1.717880 0.000000 0.000000 
#    y 0.000000 1.717880 0.000000 
#    z 0.000000 0.000000 1.733850 
# 
# From -- ./inp_files/3910.got.cif
#   From: 2010.05.17/outbox.cif.g08.bks.cpg/sg142_2_cif.got.tgz:3910.got - 2010.05.20 13:39:18.
