data_PCOD9574198
_publ_section_title
;
Structure prediction by ZEFSAII (Michael W. Deem and Ramdas Pophale) SiO2 
 PCOD9574198
Probable space group: I 41/A C D
;
_chemical_formula_sum "Si O2"
_cell_formula_units_Z 104
_cell_length_a 19.640341
_cell_length_b 19.640341
_cell_length_c 11.540419
_cell_angle_alpha 90.000000
_cell_angle_beta 90.000000
_cell_angle_gamma 90.000000
_cell_volume 4451.635784
_symmetry_space_group_name_H-M "I 41/A C D"
_symmetry_group_IT_number 142
_space_group.IT_coordinate_system_code '2'
_symmetry_cell_setting 'tetragonal'
loop_
_space_group_symop_operation_xyz
x,y,z
1/4-y,3/4+x,1/4+z
-x,1/2-y,z
1/4+y,1/4-x,3/4+z
x,-y,1/2-z
1/2-x,y,-z
3/4+y,1/4+x,1/4-z
1/4-y,1/4-x,1/4-z
-x,-y,-z
3/4+y,1/4-x,3/4-z
x,1/2+y,-z
3/4-y,3/4+x,1/4-z
-x,y,1/2+z
1/2+x,-y,z
1/4-y,3/4-x,3/4+z
3/4+y,3/4+x,3/4+z
1/2+x,1/2+y,1/2+z
3/4-y,1/4+x,3/4+z
1/2-x,-y,1/2+z
3/4+y,3/4-x,1/4+z
1/2+x,1/2-y,-z
-x,1/2+y,1/2-z
1/4+y,3/4+x,3/4-z
3/4-y,3/4-x,3/4-z
1/2-x,1/2-y,1/2-z
1/4+y,3/4-x,1/4-z
1/2+x,y,1/2-z
1/4-y,1/4+x,3/4-z
1/2-x,1/2+y,z
x,1/2-y,1/2+z
3/4-y,1/4-x,1/4+z
1/4+y,1/4+x,1/4+z
loop_
_atom_site_type_symbol
_atom_site_label
_atom_site_fract_x
_atom_site_fract_y
_atom_site_fract_z
Si Si1 0.763804 0.325588 0.199500
Si Si2 0.488155 0.886234 0.720016
Si Si3 0.500000 0.250000 0.875000
Si Si4 0.381085 0.620739 0.866581
O O1 0.750000 0.250000 0.250000
O O2 0.803980 0.307244 0.081863
O O3 0.693579 0.365580 0.183704
O O4 0.813885 0.365830 0.284265
O O5 0.499646 0.833049 0.616938
O O6 0.561325 0.901270 0.774795
O O7 0.443502 0.851446 0.822214
#
# Coordination Sequence:
#
# PCOD9574198 Si02
#       4
#    32  32   8  32
#     4  12  26  49  80 113 163 205 266 334 397 478
#     4  12  24  45  75 112 152 200 265 324 391 461
#     4  12  20  38  72 112 142 192 268 326 372 458
#     4  12  25  47  82 111 156 209 258 328 400 471
#
# _framework density 23.362199
#
# number of rings (size 3 to 8) (size 9 to 14) (size 15 to 20)
#    0.000    0.000    6.154    4.615    0.000    0.000 
#    0.000    0.000   47.385    0.000    0.000    0.000 
#    0.000    0.000    0.000    0.000    0.000    0.000 
#
# Total GULP energy -289790.860836 kJ/mol
# GULP energy per Si atom -5572.901170 kJ/mol
# Density = 2.330903 g / cm^3
# Si number density = 23.362199 Si / 1000 Ang^3
#
#
#
# Elastic Constant Matrix: (Units=GPa)
#
#
# Indices 1 2 3 4 5 6 
#
# 1 171.2735 50.8911 53.3197 0.0000 0.0000 0.0000
# 2 50.8911 171.2735 53.3197 0.0000 0.0000 0.0000
# 3 53.3197 53.3197 65.2964 0.0000 0.0000 0.0000
# 4 0.0000 0.0000 0.0000 32.0351 0.0000 0.0000
# 5 0.0000 0.0000 0.0000 0.0000 32.0351 0.0000
# 6 0.0000 0.0000 0.0000 0.0000 0.0000 32.3351
#
#
#
# Elastic Compliance Matrix: (Units=1/GPa)
#
#
# Indices 1 2 3 4 5 6 
#
# 1 0.007855 -0.000452 -0.006045 0.000000 0.000000 0.000000
# 2 -0.000452 0.007855 -0.006045 0.000000 0.000000 0.000000
# 3 -0.006045 -0.006045 0.025187 0.000000 0.000000 0.000000
# 4 0.000000 0.000000 0.000000 0.031216 0.000000 0.000000
# 5 0.000000 0.000000 0.000000 0.000000 0.031216 0.000000
# 6 0.000000 0.000000 0.000000 0.000000 0.000000 0.030926
#
#
# Mechanical properties :
#
#
# Convention : Reuss Voigt Hill
#
# Bulk Modulus (GPa) = 63.23956 80.32272 71.78114
# Shear Modulus (GPa) = 30.37496 35.96859 33.17178
#
# Velocity S-wave (km/s) = 3.60971 3.92804 3.77223
# Velocity P-wave (km/s) = 6.67093 7.41814 7.05443
#
# Compressibility (1/GPa) = 0.01581289
#
# Stress axis : x y z
#
# Youngs Moduli (GPa) = 127.31054 127.31054 39.70277
#
# Poissons Ratio (x) = 0.05755 0.24000
# Poissons Ratio (y) = 0.05755 0.24000
# Poissons Ratio (z) = 0.76959 0.76959
#
# Static dielectric constant tensor:
#      x y z
#    x 1.929910 0.000000 0.000000 
#    y 0.000000 1.929910 0.000000 
#    z 0.000000 0.000000 2.040800 
# 
# From -- ./inp_files/4945.got.cif
#   From: 2010.05.17/outbox.cif.g08.bks.cpg/sg142_3_cif.got.tgz:4945.got - 2010.05.20 13:39:18.
