data_PCOD9574320
_publ_section_title
;
Structure prediction by ZEFSAII (Michael W. Deem and Ramdas Pophale) SiO2 
 PCOD9574320
Probable space group: P 31
;
_chemical_formula_sum "Si O2"
_cell_formula_units_Z 18
_cell_length_a 10.720590
_cell_length_b 10.720590
_cell_length_c 7.427646
_cell_angle_alpha 90.000000
_cell_angle_beta 90.000000
_cell_angle_gamma 120.000000
_cell_volume 739.297441
_symmetry_space_group_name_H-M "P 31"
_symmetry_group_IT_number 144
_symmetry_cell_setting 'hexagonal'
loop_
_space_group_symop_operation_xyz
x,y,z
-y,x-y,1/3+z
-x+y,-x,2/3+z
loop_
_atom_site_type_symbol
_atom_site_label
_atom_site_fract_x
_atom_site_fract_y
_atom_site_fract_z
Si Si1 0.970177 0.341330 0.229550
Si Si2 0.402536 0.772530 0.794816
Si Si3 0.141504 0.179339 0.300167
Si Si4 0.714288 0.074039 0.317458
Si Si5 0.054904 0.441344 0.631998
Si Si6 0.102173 0.884505 0.364762
O O1 0.800158 0.229511 0.219470
O O2 0.066063 0.493163 0.129797
O O3 0.044786 0.241072 0.213265
O O4 0.987846 0.389082 0.436306
O O5 0.431128 0.742835 0.588725
O O6 0.479682 0.706042 0.921416
O O7 0.183934 0.252649 0.497019
O O8 0.062994 0.010039 0.347204
O O9 0.270452 0.210840 0.165326
O O10 0.548404 0.013234 0.360815
O O11 0.732027 0.971032 0.175644
O O12 0.031783 0.304561 0.743759
#
# Coordination Sequence:
#
# PCOD9574320 Si02
#       6
#     3   3   3   3   3   3
#     4  10  22  39  67 103 138 173 240 298 348 435
#     4  10  20  39  64  97 133 181 234 295 347 421
#     4  11  22  39  67 102 137 173 241 293 352 431
#     4  12  24  42  74 100 144 196 229 312 373 422
#     4  10  22  44  69  95 139 187 239 292 360 436
#     4  11  24  41  69 103 137 184 237 296 356 439
#
# _framework density 24.347436999999999
#
# number of rings (size 3 to 8) (size 9 to 14) (size 15 to 20)
#    0.000    1.333    3.333    4.000    2.333    0.000 
#    0.000    3.333   14.667    0.000    0.000    0.000 
#    0.000    0.000    0.000    0.000    0.000    0.000 
#
# Total GULP energy -100318.952220 kJ/mol
# GULP energy per Si atom -5573.275123 kJ/mol
# Density = 2.429202 g / cm^3
# Si number density = 24.347437 Si / 1000 Ang^3
#
#
#
# Elastic Constant Matrix: (Units=GPa)
#
#
# Indices 1 2 3 4 5 6 
#
# 1 84.7657 16.4710 15.3631 8.1784 3.9757 0.0000
# 2 16.4710 84.7657 15.3631 -8.1784 -3.9757 0.0000
# 3 15.3631 15.3631 84.5928 0.0000 0.0000 0.0000
# 4 8.1784 -8.1784 0.0000 23.9911 0.0000 -3.9757
# 5 3.9757 -3.9757 0.0000 0.0000 23.9911 8.1784
# 6 0.0000 0.0000 0.0000 -3.9757 8.1784 34.1474
#
#
#
# Elastic Compliance Matrix: (Units=1/GPa)
#
#
# Indices 1 2 3 4 5 6 
#
# 1 0.013370 -0.002916 -0.001899 -0.005552 -0.002699 0.000000
# 2 -0.002916 0.013370 -0.001899 0.005552 0.002699 0.000000
# 3 -0.001899 -0.001899 0.012511 0.000000 0.000000 0.000000
# 4 -0.005552 0.005552 0.000000 0.046362 0.000000 0.005398
# 5 -0.002699 0.002699 0.000000 0.000000 0.046362 -0.011104
# 6 0.000000 0.000000 0.000000 0.005398 -0.011104 0.032573
#
#
# Mechanical properties :
#
#
# Convention : Reuss Voigt Hill
#
# Bulk Modulus (GPa) = 38.72251 38.72425 38.72338
# Shear Modulus (GPa) = 26.79772 30.22103 28.50937
#
# Velocity S-wave (km/s) = 3.32119 3.52695 3.42561
# Velocity P-wave (km/s) = 5.53586 5.70309 5.62009
#
# Compressibility (1/GPa) = 0.02582477
#
# Stress axis : x y z
#
# Youngs Moduli (GPa) = 74.79304 74.79304 79.92994
#
# Poissons Ratio (x) = 0.21811 0.15175
# Poissons Ratio (y) = 0.21811 0.15175
# Poissons Ratio (z) = 0.14200 0.14200
#
# Static dielectric constant tensor:
#      x y z
#    x 2.085960 0.000000 0.000000 
#    y 0.000000 2.085960 0.000000 
#    z 0.000000 0.000000 1.977270 
# 
# From -- ./inp_files/373.got.cif
#   From: 2010.05.17/outbox.cif.g08.bks.cpg/sg144_cif.got.tgz:373.got - 2010.05.20 13:46:34.
