data_PCOD9574366
_publ_section_title
;
Structure prediction by ZEFSAII (Michael W. Deem and Ramdas Pophale) SiO2 
 PCOD9574366
Probable space group: P 31
;
_chemical_formula_sum "Si O2"
_cell_formula_units_Z 24
_cell_length_a 12.550585
_cell_length_b 12.550585
_cell_length_c 8.245838
_cell_angle_alpha 90.000000
_cell_angle_beta 90.000000
_cell_angle_gamma 120.000000
_cell_volume 1124.846778
_symmetry_space_group_name_H-M "P 31"
_symmetry_group_IT_number 144
_symmetry_cell_setting 'hexagonal'
loop_
_space_group_symop_operation_xyz
x,y,z
-y,x-y,1/3+z
-x+y,-x,2/3+z
loop_
_atom_site_type_symbol
_atom_site_label
_atom_site_fract_x
_atom_site_fract_y
_atom_site_fract_z
Si Si1 0.331022 0.182504 0.600480
Si Si2 0.577566 0.576706 0.686594
Si Si3 0.020564 0.204115 0.191351
Si Si4 0.412232 0.743231 0.017886
Si Si5 0.760362 0.684379 0.931307
Si Si6 0.806733 0.026711 0.365222
Si Si7 0.604494 0.341673 0.671326
Si Si8 0.188139 0.303962 0.699854
O O1 0.358994 0.151509 0.426213
O O2 0.460148 0.240244 0.693394
O O3 0.271511 0.269872 0.586957
O O4 0.232456 0.058805 0.693438
O O5 0.679709 0.701013 0.601509
O O6 0.450006 0.571615 0.662502
O O7 0.621770 0.598049 0.872911
O O8 0.589852 0.460775 0.637529
O O9 0.155495 0.231250 0.164753
O O10 0.945634 0.082035 0.298569
O O11 0.337911 0.688856 0.187996
O O12 0.554224 0.778138 0.033424
O O13 0.850996 0.680708 0.791737
O O14 0.771703 0.817119 0.974886
O O15 0.726414 0.955635 0.208137
O O16 0.670511 0.329755 0.507547
#
# Coordination Sequence:
#
# PCOD9574366 Si02
#       8
#     3   3   3   3   3   3   3   3
#     4  11  23  41  66 101 134 183 230 286 364 421
#     4  11  24  47  69  98 142 178 241 304 355 432
#     4  10  22  39  63  96 137 176 217 290 344 428
#     4  12  28  50  76 104 143 201 249 306 368 437
#     4  11  24  41  69 103 137 186 231 296 368 434
#     4  10  24  36  63  96 136 178 219 278 364 421
#     4  12  25  47  73 100 137 183 242 301 364 434
#     4  11  24  45  65 100 150 177 237 299 349 447
#
# _framework density 21.336238000000002
#
# number of rings (size 3 to 8) (size 9 to 14) (size 15 to 20)
#    0.000    1.000    5.000    0.750    8.750    0.000 
#    0.000    0.000    0.000    0.000    0.000    0.000 
#    0.000    0.000    0.000    0.000    0.000    0.000 
#
# Total GULP energy -133626.147316 kJ/mol
# GULP energy per Si atom -5567.756138 kJ/mol
# Density = 2.128768 g / cm^3
# Si number density = 21.336238 Si / 1000 Ang^3
#
#
#
# Elastic Constant Matrix: (Units=GPa)
#
#
# Indices 1 2 3 4 5 6 
#
# 1 65.2212 18.2163 12.8789 4.8286 -1.7991 0.0000
# 2 18.2163 65.2212 12.8789 -4.8286 1.7991 0.0000
# 3 12.8789 12.8789 78.8332 0.0000 0.0000 0.0000
# 4 4.8286 -4.8286 0.0000 30.7108 0.0000 1.7991
# 5 -1.7991 1.7991 0.0000 0.0000 30.7108 4.8286
# 6 0.0000 0.0000 0.0000 1.7991 4.8286 23.5024
#
#
#
# Elastic Compliance Matrix: (Units=1/GPa)
#
#
# Indices 1 2 3 4 5 6 
#
# 1 0.017354 -0.004733 -0.002062 -0.003473 0.001294 0.000000
# 2 -0.004733 0.017354 -0.002062 0.003473 -0.001294 0.000000
# 3 -0.002062 -0.002062 0.013359 0.000000 0.000000 0.000000
# 4 -0.003473 0.003473 0.000000 0.033805 0.000000 -0.002588
# 5 0.001294 -0.001294 0.000000 0.000000 0.033805 -0.006945
# 6 0.000000 0.000000 0.000000 -0.002588 -0.006945 0.044174
#
#
# Mechanical properties :
#
#
# Convention : Reuss Voigt Hill
#
# Bulk Modulus (GPa) = 32.94459 33.02484 32.98471
# Shear Modulus (GPa) = 26.64065 28.00490 27.32277
#
# Velocity S-wave (km/s) = 3.53740 3.62684 3.58240
# Velocity P-wave (km/s) = 5.67084 5.74896 5.71004
#
# Compressibility (1/GPa) = 0.03035400
#
# Stress axis : x y z
#
# Youngs Moduli (GPa) = 57.62281 57.62281 74.85736
#
# Poissons Ratio (x) = 0.27271 0.15435
# Poissons Ratio (y) = 0.27271 0.15435
# Poissons Ratio (z) = 0.11882 0.11882
#
# Static dielectric constant tensor:
#      x y z
#    x 1.813320 0.000000 0.000000 
#    y 0.000000 1.813320 0.000000 
#    z 0.000000 0.000000 1.875280 
# 
# From -- ./inp_files/414.got.cif
#   From: 2010.05.17/outbox.cif.g08.bks.cpg/sg144_cif.got.tgz:414.got - 2010.05.20 13:46:34.
