data_PCOD9574796
_publ_section_title
;
Structure prediction by ZEFSAII (Michael W. Deem and Ramdas Pophale) SiO2 
 PCOD9574796
Probable space group: R 3
;
_chemical_formula_sum "Si O2"
_cell_formula_units_Z 60
_cell_length_a 17.054293
_cell_length_b 17.054293
_cell_length_c 11.466391
_cell_angle_alpha 90.000000
_cell_angle_beta 90.000000
_cell_angle_gamma 120.000000
_cell_volume 2888.183741
_symmetry_space_group_name_H-M "R 3"
_symmetry_group_IT_number 146
_symmetry_cell_setting 'hexagonal'
loop_
_space_group_symop_operation_xyz
x,y,z
-y,x-y,z
-x+y,-x,z
2/3+x,1/3+y,1/3+z
2/3-y,1/3+x-y,1/3+z
2/3-x+y,1/3-x,1/3+z
1/3+x,2/3+y,2/3+z
1/3-y,2/3+x-y,2/3+z
1/3-x+y,2/3-x,2/3+z
loop_
_atom_site_type_symbol
_atom_site_label
_atom_site_fract_x
_atom_site_fract_y
_atom_site_fract_z
Si Si1 0.666667 0.333333 0.660075
Si Si2 0.333334 0.666667 0.276712
Si Si3 0.958828 0.264842 0.323959
Si Si4 0.113228 0.377512 0.487799
Si Si5 0.822399 0.356861 0.496648
Si Si6 0.142400 0.231739 0.005425
Si Si7 0.146889 0.566372 0.411259
Si Si8 0.951174 0.523125 0.329530
O O1 0.666668 0.333334 0.801387
O O2 0.765331 0.366953 0.601652
O O3 0.232855 0.629353 0.331645
O O4 0.956085 0.351661 0.273711
O O5 0.985025 0.222385 0.218133
O O6 0.853669 0.198205 0.351224
O O7 0.036122 0.292037 0.419330
O O8 0.135148 0.466144 0.414632
O O9 0.204158 0.382488 0.531751
O O10 0.758331 0.263326 0.430344
O O11 0.874310 0.439449 0.406325
O O12 0.246317 0.257692 0.008968
O O13 0.105423 0.181076 0.881122
O O14 0.052150 0.557365 0.372562
#
# Coordination Sequence:
#
# PCOD9574796 Si02
#       8
#     3   3   9   9   9   9   9   9
#     4  12  30  43  65  97 141 192 229 281 370 453
#     4  12  30  49  62 100 144 198 232 284 364 456
#     4  11  20  37  65 103 135 181 227 287 358 431
#     4  11  19  36  69 103 131 175 230 290 349 429
#     4  12  22  40  69 100 138 179 233 297 355 434
#     4  11  22  39  69 103 130 172 236 297 351 407
#     4  11  23  43  70  96 136 180 230 294 352 422
#     4  12  22  39  67 104 135 173 239 300 353 414
#
# _framework density 20.774301999999999
#
# number of rings (size 3 to 8) (size 9 to 14) (size 15 to 20)
#    0.000    0.600   10.500    0.900    2.100    0.000 
#    0.000    1.500    6.600    0.000    0.000    0.000 
#    0.000    0.000    0.000    0.000    0.000    0.000 
#
# Total GULP energy -111521.707772 kJ/mol
# GULP energy per Si atom -5576.085389 kJ/mol
# Density = 2.072702 g / cm^3
# Si number density = 20.774302 Si / 1000 Ang^3
#
#
#
# Elastic Constant Matrix: (Units=GPa)
#
#
# Indices 1 2 3 4 5 6 
#
# 1 84.4648 28.5965 37.5359 5.8002 -7.0940 0.0001
# 2 28.5965 84.4653 37.5361 -5.8002 7.0937 0.0001
# 3 37.5359 37.5361 90.0157 -0.0002 -0.0001 0.0001
# 4 5.8002 -5.8002 -0.0002 16.0158 -0.0001 7.0938
# 5 -7.0940 7.0937 -0.0001 -0.0001 16.0157 5.8001
# 6 0.0001 0.0001 0.0001 7.0938 5.8001 27.9342
#
#
#
# Elastic Compliance Matrix: (Units=1/GPa)
#
#
# Indices 1 2 3 4 5 6 
#
# 1 0.017133 -0.004902 -0.005100 -0.007980 0.009760 0.000000
# 2 -0.004902 0.017133 -0.005100 0.007980 -0.009760 0.000000
# 3 -0.005100 -0.005100 0.015363 0.000000 0.000000 0.000000
# 4 -0.007980 0.007980 0.000000 0.076864 0.000000 -0.019519
# 5 0.009760 -0.009760 0.000000 0.000000 0.076864 -0.015960
# 6 0.000000 0.000000 0.000000 -0.019519 -0.015960 0.044069
#
#
# Mechanical properties :
#
#
# Convention : Reuss Voigt Hill
#
# Bulk Modulus (GPa) = 51.48281 51.80921 51.64601
# Shear Modulus (GPa) = 17.59910 22.34497 19.97204
#
# Velocity S-wave (km/s) = 2.91375 3.28320 3.10398
# Velocity P-wave (km/s) = 6.01296 6.27422 6.14498
#
# Compressibility (1/GPa) = 0.01942396
#
# Stress axis : x y z
#
# Youngs Moduli (GPa) = 58.36680 58.36726 65.09207
#
# Poissons Ratio (x) = 0.28609 0.33200
# Poissons Ratio (y) = 0.28609 0.33200
# Poissons Ratio (z) = 0.29769 0.29770
#
# Static dielectric constant tensor:
#      x y z
#    x 1.786070 0.000000 0.000000 
#    y 0.000000 1.786070 0.000000 
#    z 0.000000 0.000000 1.771720 
# 
# From -- ./inp_files/1262.got.cif
#   From: 2010.05.17/outbox.cif.g08.bks.cpg/sg146_cif.got.tgz:1262.got - 2010.05.20 13:48:23.
