data_PCOD9574897
_publ_section_title
;
Structure prediction by ZEFSAII (Michael W. Deem and Ramdas Pophale) SiO2 
 PCOD9574897
Probable space group: P -3
;
_chemical_formula_sum "Si O2"
_cell_formula_units_Z 48
_cell_length_a 19.323870
_cell_length_b 19.323870
_cell_length_c 7.624798
_cell_angle_alpha 90.000000
_cell_angle_beta 90.000000
_cell_angle_gamma 120.000000
_cell_volume 2465.739478
_symmetry_space_group_name_H-M "P -3"
_symmetry_group_IT_number 147
_symmetry_cell_setting 'hexagonal'
loop_
_space_group_symop_operation_xyz
x,y,z
-y,x-y,z
-x+y,-x,z
-x,-y,-z
y,-x+y,-z
x-y,x,-z
loop_
_atom_site_type_symbol
_atom_site_label
_atom_site_fract_x
_atom_site_fract_y
_atom_site_fract_z
Si Si1 0.172731 0.659348 0.964149
Si Si2 0.771964 0.096464 0.546693
Si Si3 0.493542 0.671870 0.537434
Si Si4 0.334729 0.076120 0.454662
Si Si5 0.827269 0.340652 0.464150
Si Si6 0.493542 0.671870 0.962566
Si Si7 0.903536 0.675500 0.953307
Si Si8 0.665271 0.923880 0.954662
O O1 0.170182 0.658025 0.750000
O O2 0.260897 0.731291 0.011241
O O3 0.159013 0.574204 0.022382
O O4 0.110460 0.686249 0.028283
O O5 0.703984 0.121536 0.531321
O O6 0.851534 0.168097 0.463246
O O7 0.792709 0.096413 0.750000
O O8 0.733434 0.007545 0.469825
O O9 0.425796 0.584809 0.477618
O O10 0.470393 0.739103 0.488759
O O11 0.497525 0.671548 0.750000
O O12 0.424211 0.110460 0.528284
O O13 0.339859 0.059084 0.250000
O O14 0.582448 0.703984 0.031320
O O15 0.992455 0.725889 0.030175
O O16 0.831903 0.683437 0.036755
#
# Coordination Sequence:
#
# PCOD9574897 Si02
#       8
#     6   6   6   6   6   6   6   6
#     4   8  14  26  45  67  92 128 169 198 223 264
#     4  10  20  33  50  73  98 123 155 197 242 286
#     4   9  16  28  47  69  96 133 172 202 230 271
#     4   9  19  35  52  71  96 125 158 195 237 290
#     4   8  14  26  45  67  92 128 169 198 223 264
#     4   9  16  28  47  69  96 133 172 202 230 271
#     4  10  20  33  50  73  98 123 155 197 242 286
#     4   9  19  35  52  71  96 125 158 195 237 290
#
# _framework density 19.466778000000001
#
# number of rings (size 3 to 8) (size 9 to 14) (size 15 to 20)
#    0.000    3.000    0.000    2.750    0.000    5.000 
#    0.000    5.000    0.000    0.500    0.000    0.000 
#    0.000    0.000    0.000    0.000    0.000    0.000 
#
# Total GULP energy -267598.820395 kJ/mol
# GULP energy per Si atom -5574.975425 kJ/mol
# Density = 1.942247 g / cm^3
# Si number density = 19.466778 Si / 1000 Ang^3
#
#
#
# Elastic Constant Matrix: (Units=GPa)
#
#
# Indices 1 2 3 4 5 6 
#
# 1 91.5742 74.5584 -8.8803 0.0000 0.0000 0.0000
# 2 74.5584 91.5742 -8.8803 0.0000 0.0000 0.0000
# 3 -8.8803 -8.8803 35.9612 0.0000 0.0000 0.0000
# 4 0.0000 0.0000 0.0000 10.7493 0.0000 0.0000
# 5 0.0000 0.0000 0.0000 0.0000 10.7493 0.0000
# 6 0.0000 0.0000 0.0000 0.0000 0.0000 8.5079
#
#
#
# Elastic Compliance Matrix: (Units=1/GPa)
#
#
# Indices 1 2 3 4 5 6 
#
# 1 0.032476 -0.026293 0.001527 0.000000 0.000000 0.000000
# 2 -0.026293 0.032476 0.001527 0.000000 0.000000 0.000000
# 3 0.001527 0.001527 0.028562 0.000000 0.000000 0.000000
# 4 0.000000 0.000000 0.000000 0.093029 0.000000 0.000000
# 5 0.000000 0.000000 0.000000 0.000000 0.093029 0.000000
# 6 0.000000 0.000000 0.000000 0.000000 0.000000 0.117538
#
#
# Mechanical properties :
#
#
# Convention : Reuss Voigt Hill
#
# Bulk Modulus (GPa) = 21.26140 36.96724 29.11432
# Shear Modulus (GPa) = 10.88691 16.82209 13.85450
#
# Velocity S-wave (km/s) = 2.36743 2.94282 2.67066
# Velocity P-wave (km/s) = 4.29168 5.52974 4.94958
#
# Compressibility (1/GPa) = 0.04703360
#
# Stress axis : x y z
#
# Youngs Moduli (GPa) = 30.79224 30.79224 35.01187
#
# Poissons Ratio (x) = 0.80963 -0.05345
# Poissons Ratio (y) = 0.80963 -0.05345
# Poissons Ratio (z) = -0.04701 -0.04701
#
# Static dielectric constant tensor:
#      x y z
#    x 1.677560 0.000000 0.000000 
#    y 0.000000 1.677560 0.000000 
#    z 0.000000 0.000000 1.722430 
# 
# From -- ./inp_files/672.got.cif
#   From: 2010.05.17/outbox.cif.g08.bks.cpg/sg147_cif.got.tgz:672.got - 2010.05.20 13:49:32.
