data_PCOD9574388
_publ_section_title
;
Structure prediction by ZEFSAII (Michael W. Deem and Ramdas Pophale) SiO2 
 PCOD9574388
Probable space group: P 31
;
_chemical_formula_sum "Si O2"
_cell_formula_units_Z 24
_cell_length_a 14.020248
_cell_length_b 14.020248
_cell_length_c 5.472194
_cell_angle_alpha 90.000000
_cell_angle_beta 90.000000
_cell_angle_gamma 120.000000
_cell_volume 931.544292
_symmetry_space_group_name_H-M "P 31"
_symmetry_group_IT_number 144
_symmetry_cell_setting 'hexagonal'
loop_
_space_group_symop_operation_xyz
x,y,z
-y,x-y,1/3+z
-x+y,-x,2/3+z
loop_
_atom_site_type_symbol
_atom_site_label
_atom_site_fract_x
_atom_site_fract_y
_atom_site_fract_z
Si Si1 0.649740 0.615805 0.326460
Si Si2 0.114266 0.289729 0.213328
Si Si3 0.049547 0.572987 0.731747
Si Si4 0.882846 0.446203 0.354467
Si Si5 0.268557 0.721510 0.906979
Si Si6 0.760923 0.246305 0.679023
Si Si7 0.294288 0.257901 0.284443
Si Si8 0.884594 0.973111 0.901576
O O1 0.712944 0.744638 0.348976
O O2 0.546381 0.572074 0.146190
O O3 0.602857 0.559585 0.586675
O O4 0.722470 0.565877 0.236383
O O5 0.182555 0.420194 0.296929
O O6 0.200640 0.254691 0.108718
O O7 0.054530 0.195170 0.416672
O O8 0.965384 0.551891 0.512767
O O9 0.016486 0.626053 0.957154
O O10 0.178092 0.652439 0.694727
O O11 0.792261 0.355543 0.533718
O O12 0.818427 0.459969 0.129738
O O13 0.244503 0.631572 0.120689
O O14 0.783016 0.159188 0.533403
O O15 0.221715 0.196200 0.524198
O O16 0.933697 0.934748 0.119161
#
# Coordination Sequence:
#
# PCOD9574388 Si02
#       8
#     3   3   3   3   3   3   3   3
#     4  11  23  43  70 101 141 177 238 285 352 420
#     4   9  23  41  70  99 140 176 226 294 337 415
#     4  10  22  46  62 101 139 180 227 290 350 425
#     4  11  27  44  71  99 139 185 238 283 363 417
#     4  11  23  42  70 101 142 184 235 288 353 421
#     4  11  26  45  70 102 140 186 234 293 349 424
#     4   9  22  45  66  96 138 177 229 280 342 408
#     4  10  24  44  67  97 135 181 233 281 342 406
#
# _framework density 25.763672
#
# number of rings (size 3 to 8) (size 9 to 14) (size 15 to 20)
#    0.750    1.000    2.500    0.000    7.000    1.000 
#    0.000    1.250    0.000    0.000    0.000    0.000 
#    0.000    0.000    0.000    0.000    0.000    0.000 
#
# Total GULP energy -133750.081117 kJ/mol
# GULP energy per Si atom -5572.920047 kJ/mol
# Density = 2.570503 g / cm^3
# Si number density = 25.763672 Si / 1000 Ang^3
#
#
#
# Elastic Constant Matrix: (Units=GPa)
#
#
# Indices 1 2 3 4 5 6 
#
# 1 105.2889 36.3950 22.7300 -7.4878 -2.2646 0.0000
# 2 36.3950 105.2889 22.7300 7.4878 2.2646 0.0000
# 3 22.7300 22.7300 56.7766 0.0000 0.0000 0.0000
# 4 -7.4878 7.4878 0.0000 24.0628 0.0000 2.2646
# 5 -2.2646 2.2646 0.0000 0.0000 24.0628 -7.4878
# 6 0.0000 0.0000 0.0000 2.2646 -7.4878 34.4470
#
#
#
# Elastic Compliance Matrix: (Units=1/GPa)
#
#
# Indices 1 2 3 4 5 6 
#
# 1 0.011885 -0.003787 -0.003242 0.004877 0.001475 0.000000
# 2 -0.003787 0.011885 -0.003242 -0.004877 -0.001475 0.000000
# 3 -0.003242 -0.003242 0.020209 0.000000 0.000000 0.000000
# 4 0.004877 -0.004877 0.000000 0.044871 0.000000 -0.002950
# 5 0.001475 -0.001475 0.000000 0.000000 0.044871 0.009754
# 6 0.000000 0.000000 0.000000 -0.002950 0.009754 0.031344
#
#
# Mechanical properties :
#
#
# Convention : Reuss Voigt Hill
#
# Bulk Modulus (GPa) = 42.66762 47.89602 45.28182
# Shear Modulus (GPa) = 25.85063 28.88115 27.36589
#
# Velocity S-wave (km/s) = 3.17105 3.35177 3.26266
# Velocity P-wave (km/s) = 5.47764 5.79742 5.63979
#
# Compressibility (1/GPa) = 0.02343698
#
# Stress axis : x y z
#
# Youngs Moduli (GPa) = 84.13860 84.13860 49.48355
#
# Poissons Ratio (x) = 0.31863 0.16043
# Poissons Ratio (y) = 0.31863 0.16043
# Poissons Ratio (z) = 0.27278 0.27278
#
# Static dielectric constant tensor:
#      x y z
#    x 2.074900 0.000000 0.000000 
#    y 0.000000 2.074900 0.000000 
#    z 0.000000 0.000000 2.068040 
# 
# From -- ./inp_files/134.got.cif
#   From: 2010.05.17/outbox.cif.g08.bks.cpg/sg144_cif.got.tgz:134.got - 2010.05.20 13:46:34.
