data_PCOD9574861
_publ_section_title
;
Structure prediction by ZEFSAII (Michael W. Deem and Ramdas Pophale) SiO2 
 PCOD9574861
Probable space group: P -3
;
_chemical_formula_sum "Si O2"
_cell_formula_units_Z 24
_cell_length_a 13.557986
_cell_length_b 13.557986
_cell_length_c 5.554986
_cell_angle_alpha 90.000000
_cell_angle_beta 90.000000
_cell_angle_gamma 120.000000
_cell_volume 884.308832
_symmetry_space_group_name_H-M "P -3"
_symmetry_group_IT_number 147
_symmetry_cell_setting 'hexagonal'
loop_
_space_group_symop_operation_xyz
x,y,z
-y,x-y,z
-x+y,-x,z
-x,-y,-z
y,-x+y,-z
x-y,x,-z
loop_
_atom_site_type_symbol
_atom_site_label
_atom_site_fract_x
_atom_site_fract_y
_atom_site_fract_z
Si Si1 0.412271 0.865876 0.051209
Si Si2 0.766030 0.063161 0.341137
Si Si3 0.683576 0.826496 0.157197
Si Si4 0.134755 0.549031 0.551563
O O1 0.291504 0.859232 0.103086
O O2 0.426692 0.815457 0.300967
O O3 0.432384 0.818161 0.802169
O O4 0.500000 0.000000 0.000000
O O5 0.677801 0.936204 0.247508
O O6 0.810361 0.063473 0.610442
O O7 0.702632 0.134778 0.393691
O O8 0.849173 0.112311 0.111143
O O9 0.000000 0.500000 0.500000
#
# Coordination Sequence:
#
# PCOD9574861 Si02
#       4
#     6   6   6   6
#     4   8  14  25  42  65  92 119 150 197 252 294
#     4  10  19  31  48  69  97 131 170 216 260 306
#     4  10  19  31  48  69  97 131 170 216 260 306
#     4   8  14  25  42  65  92 119 150 197 252 294
#
# _framework density 27.139841000000001
#
# number of rings (size 3 to 8) (size 9 to 14) (size 15 to 20)
#    0.000    3.000    0.000    1.500    0.000    0.000 
#    0.000    0.000    0.000   10.000    0.000    0.000 
#  160.000    0.000  168.000    0.000   32.000    0.000 
#
# Total GULP energy -133619.532371 kJ/mol
# GULP energy per Si atom -5567.480515 kJ/mol
# Density = 2.707807 g / cm^3
# Si number density = 27.139841 Si / 1000 Ang^3
#
#
#
# Elastic Constant Matrix: (Units=GPa)
#
#
# Indices 1 2 3 4 5 6 
#
# 1 100.8131 36.7368 44.4054 -3.8378 2.4368 0.0000
# 2 36.7368 100.8131 44.4054 3.8378 -2.4368 0.0000
# 3 44.4054 44.4054 417.5186 0.0000 0.0000 0.0000
# 4 -3.8378 3.8378 0.0000 7.0737 0.0000 -2.4368
# 5 2.4368 -2.4368 0.0000 0.0000 7.0737 -3.8378
# 6 0.0000 0.0000 0.0000 -2.4368 -3.8378 32.0381
#
#
#
# Elastic Compliance Matrix: (Units=1/GPa)
#
#
# Indices 1 2 3 4 5 6 
#
# 1 0.012489 -0.004683 -0.000830 0.009317 -0.005916 0.000000
# 2 -0.004683 0.012489 -0.000830 -0.009317 0.005916 0.000000
# 3 -0.000830 -0.000830 0.002572 0.000000 0.000000 0.000000
# 4 0.009317 -0.009317 0.000000 0.155555 0.000000 0.011831
# 5 -0.005916 0.005916 0.000000 0.000000 0.155555 0.018634
# 6 0.000000 0.000000 0.000000 0.011831 0.018634 0.034345
#
#
# Mechanical properties :
#
#
# Convention : Reuss Voigt Hill
#
# Bulk Modulus (GPa) = 67.28089 96.69336 81.98712
# Shear Modulus (GPa) = 12.79928 42.14357 27.47142
#
# Velocity S-wave (km/s) = 2.17400 3.94487 3.18499
# Velocity P-wave (km/s) = 5.58086 7.51362 6.61818
#
# Compressibility (1/GPa) = 0.01486306
#
# Stress axis : x y z
#
# Youngs Moduli (GPa) = 80.06875 80.06875 388.84775
#
# Poissons Ratio (x) = 0.37497 0.32283
# Poissons Ratio (y) = 0.37497 0.32283
# Poissons Ratio (z) = 0.06648 0.06648
#
# Static dielectric constant tensor:
#      x y z
#    x 2.200450 0.000000 0.000000 
#    y 0.000000 2.200450 0.000000 
#    z 0.000000 0.000000 2.720320 
# 
# From -- ./inp_files/118.got.cif
#   From: 2010.05.17/outbox.cif.g08.bks.cpg/sg147_cif.got.tgz:118.got - 2010.05.20 13:49:32.
