data_PCOD9574314
_publ_section_title
;
Structure prediction by ZEFSAII (Michael W. Deem and Ramdas Pophale) SiO2 
 PCOD9574314
Probable space group: P 31
;
_chemical_formula_sum "Si O2"
_cell_formula_units_Z 24
_cell_length_a 10.874679
_cell_length_b 10.874679
_cell_length_c 11.304579
_cell_angle_alpha 90.000000
_cell_angle_beta 90.000000
_cell_angle_gamma 120.000000
_cell_volume 1157.758338
_symmetry_space_group_name_H-M "P 31"
_symmetry_group_IT_number 144
_symmetry_cell_setting 'hexagonal'
loop_
_space_group_symop_operation_xyz
x,y,z
-y,x-y,1/3+z
-x+y,-x,2/3+z
loop_
_atom_site_type_symbol
_atom_site_label
_atom_site_fract_x
_atom_site_fract_y
_atom_site_fract_z
Si Si1 0.273832 0.168310 0.338280
Si Si2 0.928109 0.026322 0.081013
Si Si3 0.101890 0.703552 0.830669
Si Si4 0.936181 0.758750 0.664529
Si Si5 0.003006 0.725720 0.228727
Si Si6 0.302213 0.989090 0.146618
Si Si7 0.458056 0.682553 0.302509
Si Si8 0.162561 0.635552 0.409438
O O1 0.240534 0.273575 0.261433
O O2 0.356570 0.259375 0.452683
O O3 0.131444 0.030749 0.386209
O O4 0.343512 0.101417 0.253710
O O5 0.853081 0.036425 0.198917
O O6 0.862321 0.071450 0.974992
O O7 0.096498 0.121340 0.074688
O O8 0.990665 0.657834 0.720478
O O9 0.249994 0.799425 0.756645
O O10 0.118500 0.586559 0.907194
O O11 0.773457 0.698894 0.698299
O O12 0.144476 0.860129 0.174541
O O13 0.062622 0.653739 0.316588
O O14 0.397078 0.918870 0.127260
O O15 0.306207 0.666075 0.341146
O O16 0.525743 0.788618 0.190982
#
# Coordination Sequence:
#
# PCOD9574314 Si02
#       8
#     3   3   3   3   3   3   3   3
#     4  10  20  37  56  87 125 162 205 261 315 371
#     4  11  20  34  57  88 122 152 203 258 310 376
#     4  10  22  36  55  82 124 161 200 251 319 375
#     4  11  20  35  58  87 123 161 200 257 320 369
#     4  11  20  35  58  85 125 162 204 255 320 370
#     4  10  21  35  57  87 125 166 200 255 315 377
#     4  10  22  37  54  88 124 161 207 254 309 393
#     4  11  21  37  57  84 128 169 205 249 314 387
#
# _framework density 20.729714000000001
#
# number of rings (size 3 to 8) (size 9 to 14) (size 15 to 20)
#    0.000    1.500    3.750    3.000    3.500    0.000 
#    0.000    0.000    0.000    0.000    0.000   26.250 
#    0.000    0.000    0.000    0.000    0.000    0.000 
#
# Total GULP energy -133691.516759 kJ/mol
# GULP energy per Si atom -5570.479865 kJ/mol
# Density = 2.068253 g / cm^3
# Si number density = 20.729714 Si / 1000 Ang^3
#
#
#
# Elastic Constant Matrix: (Units=GPa)
#
#
# Indices 1 2 3 4 5 6 
#
# 1 25.6910 0.9174 23.0855 -4.0679 -7.4643 0.0000
# 2 0.9174 25.6910 23.0855 4.0679 7.4643 0.0000
# 3 23.0855 23.0855 144.8883 0.0000 0.0000 0.0000
# 4 -4.0679 4.0679 0.0000 23.4239 0.0000 7.4643
# 5 -7.4643 7.4643 0.0000 0.0000 23.4239 -4.0679
# 6 0.0000 0.0000 0.0000 7.4643 -4.0679 12.3868
#
#
#
# Elastic Compliance Matrix: (Units=1/GPa)
#
#
# Indices 1 2 3 4 5 6 
#
# 1 0.052848 -0.000905 -0.008276 0.009335 0.017129 0.000000
# 2 -0.000905 0.052848 -0.008276 -0.009335 -0.017129 0.000000
# 3 -0.008276 -0.008276 0.009539 0.000000 0.000000 0.000000
# 4 0.009335 -0.009335 0.000000 0.056850 0.000000 -0.034258
# 5 0.017129 -0.017129 0.000000 0.000000 0.056850 0.018670
# 6 0.000000 0.000000 0.000000 -0.034258 0.018670 0.107506
#
#
# Mechanical properties :
#
#
# Convention : Reuss Voigt Hill
#
# Bulk Modulus (GPa) = 12.45016 32.27191 22.36104
# Shear Modulus (GPa) = 12.55870 21.79240 17.17555
#
# Velocity S-wave (km/s) = 2.46403 3.24584 2.88157
# Velocity P-wave (km/s) = 3.75690 5.44509 4.67778
#
# Compressibility (1/GPa) = 0.08032024
#
# Stress axis : x y z
#
# Youngs Moduli (GPa) = 18.92219 18.92219 104.83031
#
# Poissons Ratio (x) = 0.01713 0.86760
# Poissons Ratio (y) = 0.01713 0.86760
# Poissons Ratio (z) = 0.15660 0.15660
#
# Static dielectric constant tensor:
#      x y z
#    x 1.781800 0.000000 0.000000 
#    y 0.000000 1.781800 0.000000 
#    z 0.000000 0.000000 1.839410 
# 
# From -- ./inp_files/684.got.cif
#   From: 2010.05.17/outbox.cif.g08.bks.cpg/sg144_cif.got.tgz:684.got - 2010.05.20 13:46:34.
