data_PCOD9574577
_publ_section_title
;
Structure prediction by ZEFSAII (Michael W. Deem and Ramdas Pophale) SiO2 
 PCOD9574577
Probable space group: P 32
;
_chemical_formula_sum "Si O2"
_cell_formula_units_Z 15
_cell_length_a 10.042080
_cell_length_b 10.042080
_cell_length_c 6.809300
_cell_angle_alpha 90.000000
_cell_angle_beta 90.000000
_cell_angle_gamma 120.000000
_cell_volume 594.676058
_symmetry_space_group_name_H-M "P 32"
_symmetry_group_IT_number 145
_symmetry_cell_setting 'hexagonal'
loop_
_space_group_symop_operation_xyz
x,y,z
-y,x-y,2/3+z
-x+y,-x,1/3+z
loop_
_atom_site_type_symbol
_atom_site_label
_atom_site_fract_x
_atom_site_fract_y
_atom_site_fract_z
Si Si1 0.548075 0.267865 0.099470
Si Si2 0.488045 0.966927 0.329629
Si Si3 0.849411 0.083909 0.950455
Si Si4 0.211549 0.874098 0.066196
Si Si5 0.714049 0.722517 0.972511
O O1 0.681770 0.416544 0.207193
O O2 0.386717 0.250393 0.156113
O O3 0.548017 0.126831 0.213827
O O4 0.607929 0.908908 0.351155
O O5 0.408852 0.968760 0.535306
O O6 0.340524 0.861260 0.192767
O O7 0.874347 0.155433 0.169556
O O8 0.820689 0.842820 0.521959
O O9 0.766573 0.902722 0.945724
O O10 0.287456 0.976910 0.872210
#
# Coordination Sequence:
#
# PCOD9574577 Si02
#       5
#     3   3   3   3   3
#     4  10  22  40  62  90 130 172 220 262 338 410
#     4  10  25  42  64 105 128 181 227 287 349 411
#     4  10  25  42  64 105 128 181 227 287 349 411
#     4  10  23  41  67  96 143 173 230 286 351 418
#     4  10  23  41  67  96 143 173 230 286 351 418
#
# _framework density 25.223815999999999
#
# number of rings (size 3 to 8) (size 9 to 14) (size 15 to 20)
#    0.000    2.400    0.000    1.200    5.600   12.800 
#    0.000    0.000    0.000    0.000    0.000    0.000 
#    0.000    0.000    0.000    0.000    0.000    0.000 
#
# Total GULP energy -83841.238220 kJ/mol
# GULP energy per Si atom -5589.415881 kJ/mol
# Density = 2.516641 g / cm^3
# Si number density = 25.223816 Si / 1000 Ang^3
#
#
#
# Elastic Constant Matrix: (Units=GPa)
#
#
# Indices 1 2 3 4 5 6 
#
# 1 84.3085 25.0322 -3.4827 -11.3298 -0.6096 0.0000
# 2 25.0322 84.3085 -3.4827 11.3298 0.6096 0.0000
# 3 -3.4827 -3.4827 110.1822 0.0000 0.0000 0.0000
# 4 -11.3298 11.3298 0.0000 34.6312 0.0000 0.6096
# 5 -0.6096 0.6096 0.0000 0.0000 34.6312 -11.3298
# 6 0.0000 0.0000 0.0000 0.6096 -11.3298 29.6381
#
#
#
# Elastic Compliance Matrix: (Units=1/GPa)
#
#
# Indices 1 2 3 4 5 6 
#
# 1 0.014227 -0.005063 0.000290 0.006311 0.000340 0.000000
# 2 -0.005063 0.014227 0.000290 -0.006311 -0.000340 0.000000
# 3 0.000290 0.000290 0.009094 0.000000 0.000000 0.000000
# 4 0.006311 -0.006311 0.000000 0.033017 0.000000 -0.000679
# 5 0.000340 -0.000340 0.000000 0.000000 0.033017 0.012621
# 6 0.000000 0.000000 0.000000 -0.000679 0.012621 0.038579
#
#
# Mechanical properties :
#
#
# Convention : Reuss Voigt Hill
#
# Bulk Modulus (GPa) = 34.98800 34.99251 34.99026
# Shear Modulus (GPa) = 31.12271 37.16225 34.14248
#
# Velocity S-wave (km/s) = 3.51645 3.84252 3.68310
# Velocity P-wave (km/s) = 5.51256 5.79565 5.65588
#
# Compressibility (1/GPa) = 0.02858123
#
# Stress axis : x y z
#
# Youngs Moduli (GPa) = 70.28960 70.28960 109.96033
#
# Poissons Ratio (x) = 0.35585 -0.03185
# Poissons Ratio (y) = 0.35585 -0.03185
# Poissons Ratio (z) = -0.02036 -0.02036
#
# Static dielectric constant tensor:
#      x y z
#    x 1.996490 0.000000 0.000000 
#    y 0.000000 1.996490 0.000000 
#    z 0.000000 0.000000 2.015960 
# 
# From -- ./inp_files/63.got.cif
#   From: 2010.05.17/outbox.cif.g08.bks.cpg/sg145_cif.got.tgz:63.got - 2010.05.20 13:47:28.
