data_PCOD9574140
_publ_section_title
;
Structure prediction by ZEFSAII (Michael W. Deem and Ramdas Pophale) SiO2 
 PCOD9574140
Probable space group: I 41/A C D
;
_chemical_formula_sum "Si O2"
_cell_formula_units_Z 144
_cell_length_a 15.745234
_cell_length_b 15.745234
_cell_length_c 24.460494
_cell_angle_alpha 90.000000
_cell_angle_beta 90.000000
_cell_angle_gamma 90.000000
_cell_volume 6064.059619
_symmetry_space_group_name_H-M "I 41/A C D"
_symmetry_group_IT_number 142
_space_group.IT_coordinate_system_code '2'
_symmetry_cell_setting 'tetragonal'
loop_
_space_group_symop_operation_xyz
x,y,z
1/4-y,3/4+x,1/4+z
-x,1/2-y,z
1/4+y,1/4-x,3/4+z
x,-y,1/2-z
1/2-x,y,-z
3/4+y,1/4+x,1/4-z
1/4-y,1/4-x,1/4-z
-x,-y,-z
3/4+y,1/4-x,3/4-z
x,1/2+y,-z
3/4-y,3/4+x,1/4-z
-x,y,1/2+z
1/2+x,-y,z
1/4-y,3/4-x,3/4+z
3/4+y,3/4+x,3/4+z
1/2+x,1/2+y,1/2+z
3/4-y,1/4+x,3/4+z
1/2-x,-y,1/2+z
3/4+y,3/4-x,1/4+z
1/2+x,1/2-y,-z
-x,1/2+y,1/2-z
1/4+y,3/4+x,3/4-z
3/4-y,3/4-x,3/4-z
1/2-x,1/2-y,1/2-z
1/4+y,3/4-x,1/4-z
1/2+x,y,1/2-z
1/4-y,1/4+x,3/4-z
1/2-x,1/2+y,z
x,1/2-y,1/2+z
3/4-y,1/4-x,1/4+z
1/4+y,1/4+x,1/4+z
loop_
_atom_site_type_symbol
_atom_site_label
_atom_site_fract_x
_atom_site_fract_y
_atom_site_fract_z
Si Si1 0.885963 0.738470 0.157721
Si Si2 0.687032 0.356731 0.451177
Si Si3 0.904143 0.756490 0.781481
Si Si4 0.743723 0.506278 0.625000
Si Si5 0.711083 0.697827 0.625710
O O1 0.922523 0.679955 0.109316
O O2 0.906428 0.710892 0.219113
O O3 0.787833 0.751781 0.153811
O O4 0.750000 0.335463 0.500000
O O5 0.590664 0.380618 0.468330
O O6 0.731255 0.436417 0.420487
O O7 0.679674 0.269580 0.416299
O O8 0.854907 0.814067 0.824681
O O9 0.000000 0.750000 0.800555
O O10 0.747614 0.606081 0.607308
#
# Coordination Sequence:
#
# PCOD9574140 Si02
#       5
#    32  32  32  16  32
#     4  11  23  44  72 109 151 192 253 313 381 467
#     4  12  27  49  73 112 158 204 259 339 402 475
#     4  12  24  46  77 112 150 205 258 324 396 471
#     4  12  26  50  72 112 156 204 264 326 404 480
#     4  12  25  45  75 105 152 204 260 321 393 475
#
# _framework density 23.746469000000001
#
# number of rings (size 3 to 8) (size 9 to 14) (size 15 to 20)
#    0.000    0.222    4.444    6.000    0.000    1.778 
#    0.000    0.000    0.000    0.000    0.000    0.000 
#    0.000    0.000    0.000    0.000    0.000    0.000 
#
# Total GULP energy -402379.638771 kJ/mol
# GULP energy per Si atom -5588.606094 kJ/mol
# Density = 2.369242 g / cm^3
# Si number density = 23.746469 Si / 1000 Ang^3
#
#
#
# Elastic Constant Matrix: (Units=GPa)
#
#
# Indices 1 2 3 4 5 6 
#
# 1 82.0253 -8.5738 28.9628 0.0000 0.0000 0.0000
# 2 -8.5738 82.0276 28.9629 0.0000 0.0000 0.0000
# 3 28.9628 28.9629 119.1944 0.0000 0.0000 0.0000
# 4 0.0000 0.0000 0.0000 15.7959 0.0000 0.0000
# 5 0.0000 0.0000 0.0000 0.0000 15.7955 0.0000
# 6 0.0000 0.0000 0.0000 0.0000 0.0000 28.3617
#
#
#
# Elastic Compliance Matrix: (Units=1/GPa)
#
#
# Indices 1 2 3 4 5 6 
#
# 1 0.013940 0.002902 -0.004092 0.000000 0.000000 0.000000
# 2 0.002902 0.013939 -0.004092 0.000000 0.000000 0.000000
# 3 -0.004092 -0.004092 0.010378 0.000000 0.000000 0.000000
# 4 0.000000 0.000000 0.000000 0.063308 0.000000 0.000000
# 5 0.000000 0.000000 0.000000 0.000000 0.063309 0.000000
# 6 0.000000 0.000000 0.000000 0.000000 0.000000 0.035259
#
#
# Mechanical properties :
#
#
# Convention : Reuss Voigt Hill
#
# Bulk Modulus (GPa) = 36.11130 42.43903 39.27517
# Shear Modulus (GPa) = 22.73462 27.58364 25.15913
#
# Velocity S-wave (km/s) = 3.09753 3.41191 3.25851
# Velocity P-wave (km/s) = 5.29461 5.78204 5.54369
#
# Compressibility (1/GPa) = 0.02769216
#
# Stress axis : x y z
#
# Youngs Moduli (GPa) = 71.73773 71.73988 96.35395
#
# Poissons Ratio (x) = -0.20819 0.39431
# Poissons Ratio (y) = -0.20818 0.39430
# Poissons Ratio (z) = 0.29357 0.29358
#
# Static dielectric constant tensor:
#      x y z
#    x 1.973300 0.000000 0.000000 
#    y 0.000000 1.973290 0.000000 
#    z 0.000000 0.000000 1.882900 
# 
# From -- ./inp_files/10135.got.cif
#   From: 2010.05.17/outbox.cif.g08.bks.cpg/sg142_6_cif.got.tgz:10135.got - 2010.05.20 13:39:18.
