data_PCOD9574381
_publ_section_title
;
Structure prediction by ZEFSAII (Michael W. Deem and Ramdas Pophale) SiO2 
 PCOD9574381
Probable space group: P 31
;
_chemical_formula_sum "Si O2"
_cell_formula_units_Z 21
_cell_length_a 11.139882
_cell_length_b 11.139882
_cell_length_c 7.956902
_cell_angle_alpha 90.000000
_cell_angle_beta 90.000000
_cell_angle_gamma 120.000000
_cell_volume 855.137244
_symmetry_space_group_name_H-M "P 31"
_symmetry_group_IT_number 144
_symmetry_cell_setting 'hexagonal'
loop_
_space_group_symop_operation_xyz
x,y,z
-y,x-y,1/3+z
-x+y,-x,2/3+z
loop_
_atom_site_type_symbol
_atom_site_label
_atom_site_fract_x
_atom_site_fract_y
_atom_site_fract_z
Si Si1 0.639912 0.821208 0.593260
Si Si2 0.703590 0.119587 0.139140
Si Si3 0.960958 0.522903 0.984100
Si Si4 0.385655 0.517295 0.659130
Si Si5 0.678039 0.762514 0.939447
Si Si6 0.271311 0.022037 0.617420
Si Si7 0.716992 0.516856 0.810607
O O1 0.495021 0.679046 0.637822
O O2 0.725557 0.853318 0.768222
O O3 0.718985 0.800055 0.439916
O O4 0.670672 0.621217 0.883183
O O5 0.823520 0.139622 0.010908
O O6 0.578982 0.961968 0.144585
O O7 0.623525 0.202927 0.094710
O O8 0.775194 0.188477 0.314684
O O9 0.063255 0.663613 0.887727
O O10 0.808562 0.495145 0.948482
O O11 0.973500 0.392083 0.929067
O O12 0.019257 0.561770 0.173002
O O13 0.223821 0.468648 0.644825
O O14 0.770244 0.806853 0.108000
#
# Coordination Sequence:
#
# PCOD9574381 Si02
#       7
#     3   3   3   3   3   3   3
#     4  10  22  44  61 102 137 181 229 296 344 425
#     4  12  23  42  69 103 146 176 242 296 360 423
#     4  10  23  39  66  98 136 180 231 285 353 428
#     4  10  23  43  68  95 143 182 232 299 345 422
#     4  11  23  41  67  97 137 182 234 281 357 421
#     4  11  23  40  68  98 139 179 230 289 360 414
#     4  12  23  41  69 103 140 182 232 296 361 421
#
# _framework density 24.557461
#
# number of rings (size 3 to 8) (size 9 to 14) (size 15 to 20)
#    0.000    1.143    2.857    3.429    2.000    3.429 
#    0.000    0.000    9.429    0.000    0.000    0.000 
#    0.000    0.000    0.000    0.000    0.000    0.000 
#
# Total GULP energy -117364.079273 kJ/mol
# GULP energy per Si atom -5588.765680 kJ/mol
# Density = 2.450157 g / cm^3
# Si number density = 24.557461 Si / 1000 Ang^3
#
#
#
# Elastic Constant Matrix: (Units=GPa)
#
#
# Indices 1 2 3 4 5 6 
#
# 1 78.9514 33.2557 18.8693 5.6122 4.5038 0.0000
# 2 33.2557 78.9514 18.8693 -5.6122 -4.5038 0.0000
# 3 18.8693 18.8693 115.4735 0.0000 0.0000 0.0000
# 4 5.6122 -5.6122 0.0000 30.9944 0.0000 -4.5038
# 5 4.5038 -4.5038 0.0000 0.0000 30.9944 5.6122
# 6 0.0000 0.0000 0.0000 -4.5038 5.6122 22.8478
#
#
#
# Elastic Compliance Matrix: (Units=1/GPa)
#
#
# Indices 1 2 3 4 5 6 
#
# 1 0.016520 -0.007090 -0.001541 -0.004275 -0.003431 0.000000
# 2 -0.007090 0.016520 -0.001541 0.004275 0.003431 0.000000
# 3 -0.001541 -0.001541 0.009164 0.000000 0.000000 0.000000
# 4 -0.004275 0.004275 0.000000 0.034809 0.000000 0.006862
# 5 -0.003431 0.003431 0.000000 0.000000 0.034809 -0.008550
# 6 0.000000 0.000000 0.000000 0.006862 -0.008550 0.047221
#
#
# Mechanical properties :
#
#
# Convention : Reuss Voigt Hill
#
# Bulk Modulus (GPa) = 45.74489 46.15167 45.94828
# Shear Modulus (GPa) = 26.78466 30.45945 28.62206
#
# Velocity S-wave (km/s) = 3.30615 3.52566 3.41767
# Velocity P-wave (km/s) = 5.76561 5.95045 5.85876
#
# Compressibility (1/GPa) = 0.02186037
#
# Stress axis : x y z
#
# Youngs Moduli (GPa) = 60.53138 60.53138 109.12719
#
# Poissons Ratio (x) = 0.42917 0.16817
# Poissons Ratio (y) = 0.42917 0.16817
# Poissons Ratio (z) = 0.09328 0.09328
#
# Static dielectric constant tensor:
#      x y z
#    x 1.943130 0.000000 0.000000 
#    y 0.000000 1.943130 0.000000 
#    z 0.000000 0.000000 2.058140 
# 
# From -- ./inp_files/352.got.cif
#   From: 2010.05.17/outbox.cif.g08.bks.cpg/sg144_cif.got.tgz:352.got - 2010.05.20 13:46:34.
