data_PCOD9574461
_publ_section_title
;
Structure prediction by ZEFSAII (Michael W. Deem and Ramdas Pophale) SiO2 
 PCOD9574461
Probable space group: P 31
;
_chemical_formula_sum "Si O2"
_cell_formula_units_Z 21
_cell_length_a 9.152775
_cell_length_b 9.152775
_cell_length_c 11.410772
_cell_angle_alpha 90.000000
_cell_angle_beta 90.000000
_cell_angle_gamma 120.000000
_cell_volume 827.849198
_symmetry_space_group_name_H-M "P 31"
_symmetry_group_IT_number 144
_symmetry_cell_setting 'hexagonal'
loop_
_space_group_symop_operation_xyz
x,y,z
-y,x-y,1/3+z
-x+y,-x,2/3+z
loop_
_atom_site_type_symbol
_atom_site_label
_atom_site_fract_x
_atom_site_fract_y
_atom_site_fract_z
Si Si1 0.005695 0.245629 0.372570
Si Si2 0.607696 0.073048 0.107785
Si Si3 0.424993 0.040105 0.482100
Si Si4 0.638481 0.203684 0.709857
Si Si5 0.630497 0.918748 0.871074
Si Si6 0.512945 0.748859 0.501827
Si Si7 0.716657 0.889181 0.277139
O O1 0.101133 0.252162 0.492339
O O2 0.146504 0.352878 0.273289
O O3 0.928506 0.366400 0.401732
O O4 0.877045 0.057640 0.328301
O O5 0.742262 0.269066 0.120903
O O6 0.607826 0.960715 0.213973
O O7 0.663689 0.000046 0.998008
O O8 0.548426 0.154146 0.586083
O O9 0.499786 0.162270 0.370914
O O10 0.450113 0.880462 0.480888
O O11 0.230934 0.971980 0.518019
O O12 0.641821 0.053732 0.777286
O O13 0.431192 0.782485 0.863577
O O14 0.612682 0.762091 0.382636
#
# Coordination Sequence:
#
# PCOD9574461 Si02
#       7
#     3   3   3   3   3   3   3
#     4  11  25  46  75 111 151 192 244 314 376 440
#     4  11  25  47  76 108 146 201 248 304 376 460
#     4  12  27  46  75 105 147 203 247 304 368 452
#     4  12  24  48  70 103 145 198 246 294 375 444
#     4  11  23  48  76 102 147 193 243 310 377 436
#     4  11  23  47  75 108 148 192 249 301 369 452
#     4  12  27  46  73 117 152 189 251 319 373 442
#
# _framework density 25.366935999999999
#
# number of rings (size 3 to 8) (size 9 to 14) (size 15 to 20)
#    0.000    0.571    4.286    3.429    2.000    4.571 
#    2.571    0.000    0.000    0.000    0.000    0.000 
#    0.000    0.000    0.000    0.000    0.000    0.000 
#
# Total GULP energy -117656.903845 kJ/mol
# GULP energy per Si atom -5602.709707 kJ/mol
# Density = 2.530920 g / cm^3
# Si number density = 25.366936 Si / 1000 Ang^3
#
#
#
# Elastic Constant Matrix: (Units=GPa)
#
#
# Indices 1 2 3 4 5 6 
#
# 1 111.5701 42.7066 23.6774 4.1488 -4.6348 0.0000
# 2 42.7066 111.5701 23.6774 -4.1488 4.6348 0.0000
# 3 23.6774 23.6774 58.2157 0.0000 0.0000 0.0000
# 4 4.1488 -4.1488 0.0000 36.0834 0.0000 4.6348
# 5 -4.6348 4.6348 0.0000 0.0000 36.0834 4.1488
# 6 0.0000 0.0000 0.0000 4.6348 4.1488 34.4318
#
#
#
# Elastic Compliance Matrix: (Units=1/GPa)
#
#
# Indices 1 2 3 4 5 6 
#
# 1 0.011197 -0.003791 -0.003012 -0.001723 0.001925 0.000000
# 2 -0.003791 0.011197 -0.003012 0.001723 -0.001925 0.000000
# 3 -0.003012 -0.003012 0.019628 0.000000 0.000000 0.000000
# 4 -0.001723 0.001723 0.000000 0.028604 0.000000 -0.003850
# 5 0.001925 -0.001925 0.000000 0.000000 0.028604 -0.003447
# 6 0.000000 0.000000 0.000000 -0.003850 -0.003447 0.029977
#
#
# Mechanical properties :
#
#
# Convention : Reuss Voigt Hill
#
# Bulk Modulus (GPa) = 44.65997 51.27542 47.96769
# Shear Modulus (GPa) = 31.98914 34.07268 33.03091
#
# Velocity S-wave (km/s) = 3.55499 3.66894 3.61241
# Velocity P-wave (km/s) = 5.87319 6.18106 6.02909
#
# Compressibility (1/GPa) = 0.02239142
#
# Stress axis : x y z
#
# Youngs Moduli (GPa) = 89.30659 89.30659 50.94799
#
# Poissons Ratio (x) = 0.33855 0.15347
# Poissons Ratio (y) = 0.33855 0.15347
# Poissons Ratio (z) = 0.26902 0.26902
#
# Static dielectric constant tensor:
#      x y z
#    x 2.027630 0.000000 0.000000 
#    y 0.000000 2.027630 0.000000 
#    z 0.000000 0.000000 2.006970 
# 
# From -- ./inp_files/587.got.cif
#   From: 2010.05.17/outbox.cif.g08.bks.cpg/sg144_cif.got.tgz:587.got - 2010.05.20 13:46:34.
