data_PCOD9574416
_publ_section_title
;
Structure prediction by ZEFSAII (Michael W. Deem and Ramdas Pophale) SiO2 
 PCOD9574416
Probable space group: P 31
;
_chemical_formula_sum "Si O2"
_cell_formula_units_Z 15
_cell_length_a 7.333259
_cell_length_b 7.333259
_cell_length_c 13.095187
_cell_angle_alpha 90.000000
_cell_angle_beta 90.000000
_cell_angle_gamma 120.000000
_cell_volume 609.868755
_symmetry_space_group_name_H-M "P 31"
_symmetry_group_IT_number 144
_symmetry_cell_setting 'hexagonal'
loop_
_space_group_symop_operation_xyz
x,y,z
-y,x-y,1/3+z
-x+y,-x,2/3+z
loop_
_atom_site_type_symbol
_atom_site_label
_atom_site_fract_x
_atom_site_fract_y
_atom_site_fract_z
Si Si1 0.906287 0.868999 0.062780
Si Si2 0.378694 0.946130 0.064881
Si Si3 0.946844 0.255658 0.954454
Si Si4 0.325653 0.595745 0.222550
Si Si5 0.454944 0.260209 0.224671
O O1 0.825766 0.787279 0.175467
O O2 0.146041 0.919414 0.057408
O O3 0.784077 0.694043 0.975180
O O4 0.897741 0.076945 0.035315
O O5 0.365418 0.762782 0.137091
O O6 0.505102 0.156200 0.130642
O O7 0.416031 0.886183 0.952003
O O8 0.169687 0.471888 0.966010
O O9 0.783939 0.340525 0.946279
O O10 0.336558 0.388181 0.188881
#
# Coordination Sequence:
#
# PCOD9574416 Si02
#       5
#     3   3   3   3   3
#     4  11  22  45  71  98 150 190 239 311 365 430
#     4  11  22  44  72 100 148 198 236 312 369 421
#     4  10  24  44  69 102 145 190 243 299 363 438
#     4   9  25  42  66 109 145 186 256 298 357 443
#     4   9  23  45  68 101 140 190 246 292 368 434
#
# _framework density 24.595458000000001
#
# number of rings (size 3 to 8) (size 9 to 14) (size 15 to 20)
#    1.200    0.800    2.000    0.000    5.600    0.000 
#    7.200    0.000    0.000    0.000    0.000    0.000 
#    0.000    0.000    0.000    0.000    0.000    0.000 
#
# Total GULP energy -83827.865923 kJ/mol
# GULP energy per Si atom -5588.524395 kJ/mol
# Density = 2.453948 g / cm^3
# Si number density = 24.595458 Si / 1000 Ang^3
#
#
#
# Elastic Constant Matrix: (Units=GPa)
#
#
# Indices 1 2 3 4 5 6 
#
# 1 77.6059 15.3047 21.2447 -8.2106 -3.3168 0.0000
# 2 15.3047 77.6059 21.2447 8.2106 3.3168 0.0000
# 3 21.2447 21.2447 63.8379 0.0000 0.0000 0.0000
# 4 -8.2106 8.2106 0.0000 34.9099 0.0000 3.3168
# 5 -3.3168 3.3168 0.0000 0.0000 34.9099 -8.2106
# 6 0.0000 0.0000 0.0000 3.3168 -8.2106 31.1506
#
#
#
# Elastic Compliance Matrix: (Units=1/GPa)
#
#
# Indices 1 2 3 4 5 6 
#
# 1 0.014997 -0.002302 -0.004225 0.004068 0.001644 0.000000
# 2 -0.002302 0.014997 -0.004225 -0.004068 -0.001644 0.000000
# 3 -0.004225 -0.004225 0.018477 0.000000 0.000000 0.000000
# 4 0.004068 -0.004068 0.000000 0.030871 0.000000 -0.003287
# 5 0.001644 -0.001644 0.000000 0.000000 0.030871 0.008137
# 6 0.000000 0.000000 0.000000 -0.003287 0.008137 0.034597
#
#
# Mechanical properties :
#
#
# Convention : Reuss Voigt Hill
#
# Bulk Modulus (GPa) = 37.08159 37.18201 37.13180
# Shear Modulus (GPa) = 28.52232 30.94446 29.73339
#
# Velocity S-wave (km/s) = 3.40907 3.55087 3.48069
# Velocity P-wave (km/s) = 5.53218 5.65348 5.59316
#
# Compressibility (1/GPa) = 0.02696756
#
# Stress axis : x y z
#
# Youngs Moduli (GPa) = 66.68106 66.68106 54.12235
#
# Poissons Ratio (x) = 0.15348 0.22866
# Poissons Ratio (y) = 0.15348 0.22866
# Poissons Ratio (z) = 0.28172 0.28172
#
# Static dielectric constant tensor:
#      x y z
#    x 1.988910 0.000000 0.000000 
#    y 0.000000 1.988910 0.000000 
#    z 0.000000 0.000000 1.910210 
# 
# From -- ./inp_files/488.got.cif
#   From: 2010.05.17/outbox.cif.g08.bks.cpg/sg144_cif.got.tgz:488.got - 2010.05.20 13:46:34.
