data_PCOD9574930
_publ_section_title
;
Structure prediction by ZEFSAII (Michael W. Deem and Ramdas Pophale) SiO2 
 PCOD9574930
Probable space group: P -3
;
_chemical_formula_sum "Si O2"
_cell_formula_units_Z 34
_cell_length_a 15.033172
_cell_length_b 15.033172
_cell_length_c 8.214122
_cell_angle_alpha 90.000000
_cell_angle_beta 90.000000
_cell_angle_gamma 120.000000
_cell_volume 1607.655658
_symmetry_space_group_name_H-M "P -3"
_symmetry_group_IT_number 147
_symmetry_cell_setting 'hexagonal'
loop_
_space_group_symop_operation_xyz
x,y,z
-y,x-y,z
-x+y,-x,z
-x,-y,-z
y,-x+y,-z
x-y,x,-z
loop_
_atom_site_type_symbol
_atom_site_label
_atom_site_fract_x
_atom_site_fract_y
_atom_site_fract_z
Si Si1 0.666668 0.333335 0.865889
Si Si2 0.784108 0.924293 0.941198
Si Si3 0.196567 0.443958 0.661223
Si Si4 0.339066 0.410379 0.886776
Si Si5 0.503968 0.637830 0.997122
Si Si6 0.774438 0.855512 0.570503
Si Si7 0.666668 0.333334 0.481769
O O1 0.666668 0.333334 0.674263
O O2 0.556930 0.309304 0.933004
O O3 0.672785 0.909550 0.981448
O O4 0.782322 0.879046 0.763437
O O5 0.820502 0.865326 0.060516
O O6 0.290799 0.428501 0.724272
O O7 0.137008 0.447143 0.823980
O O8 0.124187 0.347294 0.548883
O O9 0.247385 0.555659 0.582690
O O10 0.415261 0.520117 0.965762
O O11 0.411068 0.359464 0.882418
O O12 0.846453 0.810316 0.518015
#
# Coordination Sequence:
#
# PCOD9574930 Si02
#       7
#     2   6   6   6   6   6   2
#     4  12  25  41  67  96 130 170 217 282 331 398
#     4  11  23  41  67  98 133 175 228 276 336 397
#     4  11  22  46  71  92 138 182 220 274 344 412
#     4  10  21  37  70  99 122 162 227 282 324 388
#     4  11  21  42  68  96 124 170 227 280 330 382
#     4  11  25  45  68  99 140 183 223 278 340 411
#     4  12  25  44  61  96 142 179 214 270 346 419
#
# _framework density 21.148807999999999
#
# number of rings (size 3 to 8) (size 9 to 14) (size 15 to 20)
#    0.000    1.059    3.529    3.529    0.000    2.824 
#    9.529    1.765    0.000    0.000    0.000    0.000 
#    0.000    0.000    0.000    0.000    0.000    0.000 
#
# Total GULP energy -189881.520380 kJ/mol
# GULP energy per Si atom -5584.750599 kJ/mol
# Density = 2.110067 g / cm^3
# Si number density = 21.148808 Si / 1000 Ang^3
#
#
#
# Elastic Constant Matrix: (Units=GPa)
#
#
# Indices 1 2 3 4 5 6 
#
# 1 101.4264 43.2643 8.8919 -7.7677 5.5395 0.0009
# 2 43.2643 101.4257 8.8925 7.7681 -5.5406 -0.0003
# 3 8.8919 8.8925 31.7583 0.0003 -0.0002 0.0002
# 4 -7.7677 7.7681 0.0003 5.6421 0.0000 -5.5402
# 5 5.5395 -5.5406 -0.0002 0.0000 5.6422 -7.7685
# 6 0.0009 -0.0003 0.0002 -5.5402 -7.7685 29.0821
#
#
#
# Elastic Compliance Matrix: (Units=1/GPa)
#
#
# Indices 1 2 3 4 5 6 
#
# 1 0.022889 -0.015731 -0.002004 0.053169 -0.037923 -0.000002
# 2 -0.015731 0.022890 -0.002004 -0.053170 0.037926 0.000003
# 3 -0.002004 -0.002004 0.032610 -0.000003 0.000001 -0.000001
# 4 0.053169 -0.053170 -0.000003 0.398117 0.000011 0.075842
# 5 -0.037923 0.037926 0.000001 0.000011 0.398150 0.106358
# 6 -0.000002 0.000003 -0.000001 0.075842 0.106358 0.077244
#
#
# Mechanical properties :
#
#
# Convention : Reuss Voigt Hill
#
# Bulk Modulus (GPa) = 25.70102 39.63421 32.66761
# Shear Modulus (GPa) = 4.97835 19.64406 12.31120
#
# Velocity S-wave (km/s) = 1.53593 3.05101 2.41534
# Velocity P-wave (km/s) = 3.91462 5.58506 4.82271
#
# Compressibility (1/GPa) = 0.03890897
#
# Stress axis : x y z
#
# Youngs Moduli (GPa) = 43.68987 43.68806 30.66530
#
# Poissons Ratio (x) = 0.68728 0.06147
# Poissons Ratio (y) = 0.68730 0.06145
# Poissons Ratio (z) = 0.08757 0.08754
#
# Static dielectric constant tensor:
#      x y z
#    x 1.795570 0.000000 0.000000 
#    y 0.000000 1.795560 0.000000 
#    z 0.000000 0.000000 1.733670 
# 
# From -- ./inp_files/560.got.cif
#   From: 2010.05.17/outbox.cif.g08.bks.cpg/sg147_cif.got.tgz:560.got - 2010.05.20 13:49:32.
