data_PCOD9574535
_publ_section_title
;
Structure prediction by ZEFSAII (Michael W. Deem and Ramdas Pophale) SiO2 
 PCOD9574535
Probable space group: P 32
;
_chemical_formula_sum "Si O2"
_cell_formula_units_Z 24
_cell_length_a 11.304180
_cell_length_b 11.304180
_cell_length_c 10.560803
_cell_angle_alpha 90.000000
_cell_angle_beta 90.000000
_cell_angle_gamma 120.000000
_cell_volume 1168.707152
_symmetry_space_group_name_H-M "P 32"
_symmetry_group_IT_number 145
_symmetry_cell_setting 'hexagonal'
loop_
_space_group_symop_operation_xyz
x,y,z
-y,x-y,2/3+z
-x+y,-x,1/3+z
loop_
_atom_site_type_symbol
_atom_site_label
_atom_site_fract_x
_atom_site_fract_y
_atom_site_fract_z
Si Si1 0.955685 0.139195 0.184480
Si Si2 0.149823 0.527471 0.714340
Si Si3 0.347048 0.917277 0.505562
Si Si4 0.666667 0.093552 0.116076
Si Si5 0.884914 0.968376 0.598561
Si Si6 0.249872 0.698291 0.300258
Si Si7 0.474205 0.140871 0.282743
Si Si8 0.986286 0.236895 0.726591
O O1 0.795677 0.082083 0.163681
O O2 0.028364 0.288605 0.247586
O O3 0.988597 0.031705 0.247287
O O4 0.028901 0.166986 0.047207
O O5 0.195249 0.499681 0.851613
O O6 0.290226 0.634961 0.651532
O O7 0.073092 0.378061 0.651234
O O8 0.046927 0.584584 0.735138
O O9 0.251686 0.778086 0.426094
O O10 0.444922 0.884373 0.590709
O O11 0.426493 0.032623 0.398646
O O12 0.608836 0.149097 0.225811
O O13 0.724498 0.206928 0.006343
O O14 0.806932 0.888580 0.472726
O O15 0.888411 0.106118 0.641444
O O16 0.365956 0.093160 0.166841
#
# Coordination Sequence:
#
# PCOD9574535 Si02
#       8
#     3   3   3   3   3   3   3   3
#     4  10  21  35  58  84 118 156 192 240 292 347
#     4  10  21  35  58  84 118 156 192 240 292 347
#     4  10  19  37  55  86 116 150 195 234 296 341
#     4  10  20  38  64  80 114 160 196 234 288 354
#     4  10  20  33  60  86 113 153 193 241 288 347
#     4  10  20  33  60  86 113 153 193 241 288 347
#     4  10  20  40  66  80 118 160 190 238 294 348
#     4  10  19  37  55  86 116 150 195 234 296 341
#
# _framework density 20.535512000000001
#
# number of rings (size 3 to 8) (size 9 to 14) (size 15 to 20)
#    0.000    2.000    5.000    0.000    3.500    0.000 
#    0.000    0.000   66.000    0.000    0.000    0.000 
#    0.000    0.000    0.000    0.000    0.000    0.000 
#
# Total GULP energy -133862.134143 kJ/mol
# GULP energy per Si atom -5577.588923 kJ/mol
# Density = 2.048877 g / cm^3
# Si number density = 20.535512 Si / 1000 Ang^3
#
#
#
# Elastic Constant Matrix: (Units=GPa)
#
#
# Indices 1 2 3 4 5 6 
#
# 1 101.8561 45.4263 -1.8707 -7.0979 0.0000 0.0000
# 2 45.4263 101.8561 -1.8707 7.0979 0.0000 0.0000
# 3 -1.8707 -1.8707 13.3723 0.0000 0.0000 0.0000
# 4 -7.0979 7.0979 0.0000 25.1332 0.0000 0.0000
# 5 0.0000 0.0000 0.0000 0.0000 25.1332 -7.0979
# 6 0.0000 0.0000 0.0000 0.0000 -7.0979 28.2149
#
#
#
# Elastic Compliance Matrix: (Units=1/GPa)
#
#
# Indices 1 2 3 4 5 6 
#
# 1 0.012945 -0.006131 0.000953 0.005387 0.000000 0.000000
# 2 -0.006131 0.012945 0.000953 -0.005387 0.000000 0.000000
# 3 0.000953 0.000953 0.075048 0.000000 0.000000 0.000000
# 4 0.005387 -0.005387 0.000000 0.042831 0.000000 0.000000
# 5 0.000000 0.000000 0.000000 0.000000 0.042831 0.010775
# 6 0.000000 0.000000 0.000000 0.000000 0.010775 0.038153
#
#
# Mechanical properties :
#
#
# Convention : Reuss Voigt Hill
#
# Bulk Modulus (GPa) = 10.81212 33.38382 22.09797
# Shear Modulus (GPa) = 18.93707 27.38957 23.16332
#
# Velocity S-wave (km/s) = 3.04001 3.65604 3.36216
# Velocity P-wave (km/s) = 4.19508 5.84073 5.08492
#
# Compressibility (1/GPa) = 0.09248879
#
# Stress axis : x y z
#
# Youngs Moduli (GPa) = 77.24906 77.24906 13.32478
#
# Poissons Ratio (x) = 0.47363 -0.01270
# Poissons Ratio (y) = 0.47363 -0.01270
# Poissons Ratio (z) = -0.07364 -0.07364
#
# Static dielectric constant tensor:
#      x y z
#    x 1.743510 0.000000 0.000000 
#    y 0.000000 1.743510 0.000000 
#    z 0.000000 0.000000 1.771030 
# 
# From -- ./inp_files/705.got.cif
#   From: 2010.05.17/outbox.cif.g08.bks.cpg/sg145_cif.got.tgz:705.got - 2010.05.20 13:47:28.
