data_PCOD9574193
_publ_section_title
;
Structure prediction by ZEFSAII (Michael W. Deem and Ramdas Pophale) SiO2 
 PCOD9574193
Probable space group: I 41/A C D
;
_chemical_formula_sum "Si O2"
_cell_formula_units_Z 96
_cell_length_a 19.200796
_cell_length_b 19.200796
_cell_length_c 11.477525
_cell_angle_alpha 90.000000
_cell_angle_beta 90.000000
_cell_angle_gamma 90.000000
_cell_volume 4231.425650
_symmetry_space_group_name_H-M "I 41/A C D"
_symmetry_group_IT_number 142
_space_group.IT_coordinate_system_code '2'
_symmetry_cell_setting 'tetragonal'
loop_
_space_group_symop_operation_xyz
x,y,z
1/4-y,3/4+x,1/4+z
-x,1/2-y,z
1/4+y,1/4-x,3/4+z
x,-y,1/2-z
1/2-x,y,-z
3/4+y,1/4+x,1/4-z
1/4-y,1/4-x,1/4-z
-x,-y,-z
3/4+y,1/4-x,3/4-z
x,1/2+y,-z
3/4-y,3/4+x,1/4-z
-x,y,1/2+z
1/2+x,-y,z
1/4-y,3/4-x,3/4+z
3/4+y,3/4+x,3/4+z
1/2+x,1/2+y,1/2+z
3/4-y,1/4+x,3/4+z
1/2-x,-y,1/2+z
3/4+y,3/4-x,1/4+z
1/2+x,1/2-y,-z
-x,1/2+y,1/2-z
1/4+y,3/4+x,3/4-z
3/4-y,3/4-x,3/4-z
1/2-x,1/2-y,1/2-z
1/4+y,3/4-x,1/4-z
1/2+x,y,1/2-z
1/4-y,1/4+x,3/4-z
1/2-x,1/2+y,z
x,1/2-y,1/2+z
3/4-y,1/4-x,1/4+z
1/4+y,1/4+x,1/4+z
loop_
_atom_site_type_symbol
_atom_site_label
_atom_site_fract_x
_atom_site_fract_y
_atom_site_fract_z
Si Si1 0.785371 0.964630 0.375000
Si Si2 0.361180 0.111180 0.875000
Si Si3 0.066601 0.841664 0.139638
Si Si4 0.269239 0.831999 0.259405
O O1 0.750000 0.984302 0.500000
O O2 0.766296 0.883174 0.351994
O O3 0.398096 0.141310 0.761350
O O4 0.281325 0.132839 0.855521
O O5 0.089973 0.766408 0.096253
O O6 0.085870 0.901792 0.051012
O O7 0.250000 0.750000 0.250000
#
# Coordination Sequence:
#
# PCOD9574193 Si02
#       4
#    16  16  32  32
#     4  12  29  52  84 120 166 214 272 336 409 494
#     4  12  25  49  80 109 160 203 262 341 399 490
#     4  11  26  47  76 113 155 209 266 327 408 487
#     4  12  27  49  78 117 155 208 268 333 405 488
#
# _framework density 22.687390000000001
#
# number of rings (size 3 to 8) (size 9 to 14) (size 15 to 20)
#    0.000    0.333    3.333    4.000    4.667    2.667 
#    0.000    0.000    0.000    0.000    0.000    0.000 
#    0.000    0.000    0.000    0.000    0.000    0.000 
#
# Total GULP energy -268497.704242 kJ/mol
# GULP energy per Si atom -5593.702172 kJ/mol
# Density = 2.263575 g / cm^3
# Si number density = 22.687390 Si / 1000 Ang^3
#
#
#
# Elastic Constant Matrix: (Units=GPa)
#
#
# Indices 1 2 3 4 5 6 
#
# 1 103.8477 44.7159 23.9274 0.0000 0.0000 0.0000
# 2 44.7159 103.8461 23.9269 0.0000 0.0000 0.0000
# 3 23.9274 23.9269 87.3163 0.0000 0.0000 0.0000
# 4 0.0000 0.0000 0.0000 39.7187 0.0000 0.0000
# 5 0.0000 0.0000 0.0000 0.0000 39.7191 0.0000
# 6 0.0000 0.0000 0.0000 0.0000 0.0000 29.7340
#
#
#
# Elastic Compliance Matrix: (Units=1/GPa)
#
#
# Indices 1 2 3 4 5 6 
#
# 1 0.012147 -0.004764 -0.002023 0.000000 0.000000 0.000000
# 2 -0.004764 0.012147 -0.002023 0.000000 0.000000 0.000000
# 3 -0.002023 -0.002023 0.012561 0.000000 0.000000 0.000000
# 4 0.000000 0.000000 0.000000 0.025177 0.000000 0.000000
# 5 0.000000 0.000000 0.000000 0.000000 0.025177 0.000000
# 6 0.000000 0.000000 0.000000 0.000000 0.000000 0.033631
#
#
# Mechanical properties :
#
#
# Convention : Reuss Voigt Hill
#
# Bulk Modulus (GPa) = 51.98956 53.35006 52.66981
# Shear Modulus (GPa) = 34.51278 35.33037 34.92158
#
# Velocity S-wave (km/s) = 3.90453 3.95051 3.92758
# Velocity P-wave (km/s) = 6.57970 6.66146 6.62071
#
# Compressibility (1/GPa) = 0.01923463
#
# Stress axis : x y z
#
# Youngs Moduli (GPa) = 82.32396 82.32282 79.60902
#
# Poissons Ratio (x) = 0.39222 0.16106
# Poissons Ratio (y) = 0.39222 0.16106
# Poissons Ratio (z) = 0.16655 0.16655
#
# Static dielectric constant tensor:
#      x y z
#    x 1.866810 0.000000 0.000000 
#    y 0.000000 1.866820 0.000000 
#    z 0.000000 0.000000 1.776380 
# 
# From -- ./inp_files/3231.got.cif
#   From: 2010.05.17/outbox.cif.g08.bks.cpg/sg142_2_cif.got.tgz:3231.got - 2010.05.20 13:39:18.
