data_PCOD9574971
_publ_section_title
;
Structure prediction by ZEFSAII (Michael W. Deem and Ramdas Pophale) SiO2 
 PCOD9574971
Probable space group: P -3
;
_chemical_formula_sum "Si O2"
_cell_formula_units_Z 36
_cell_length_a 11.179905
_cell_length_b 11.179905
_cell_length_c 15.284704
_cell_angle_alpha 90.000000
_cell_angle_beta 90.000000
_cell_angle_gamma 120.000000
_cell_volume 1654.489026
_symmetry_space_group_name_H-M "P -3"
_symmetry_group_IT_number 147
_symmetry_cell_setting 'hexagonal'
loop_
_space_group_symop_operation_xyz
x,y,z
-y,x-y,z
-x+y,-x,z
-x,-y,-z
y,-x+y,-z
x-y,x,-z
loop_
_atom_site_type_symbol
_atom_site_label
_atom_site_fract_x
_atom_site_fract_y
_atom_site_fract_z
Si Si1 0.482317 0.652085 0.625000
Si Si2 0.061240 0.305644 0.272909
Si Si3 0.305643 0.244405 0.022909
Si Si4 0.244403 0.938760 0.772909
Si Si5 0.517683 0.347916 0.875001
Si Si6 0.244403 0.938759 0.477091
O O1 0.466515 0.789681 0.625000
O O2 0.567114 0.658319 0.710253
O O3 0.567113 0.658319 0.539746
O O4 0.176305 0.264489 0.247958
O O5 0.091206 0.432888 0.210254
O O6 0.075514 0.341174 0.375000
O O7 0.911816 0.176306 0.252041
O O8 0.341175 0.265661 0.125000
O O9 0.176304 0.264489 0.002042
O O10 0.432885 0.341683 0.960253
O O11 0.533485 0.210320 0.875001
O O12 0.088183 0.823695 0.502041
#
# Coordination Sequence:
#
# PCOD9574971 Si02
#       6
#     6   6   6   6   6   6
#     4  10  26  46  60 100 130 174 232 250 310 402
#     4  12  23  43  71 101 129 166 213 277 336 380
#     4  12  23  43  71 101 129 166 213 277 336 380
#     4  12  23  43  71 101 129 166 213 277 336 380
#     4  10  26  46  60 100 130 174 232 250 310 402
#     4  12  23  43  71 101 129 166 213 277 336 380
#
# _framework density 21.758984999999999
#
# number of rings (size 3 to 8) (size 9 to 14) (size 15 to 20)
#    0.667    0.000    6.667    0.667    0.000    5.333 
#    0.000    0.000    0.000    0.000    0.000    0.000 
#    0.000    0.000    0.000    0.000    0.000    0.000 
#
# Total GULP energy -201518.626172 kJ/mol
# GULP energy per Si atom -5597.739616 kJ/mol
# Density = 2.170946 g / cm^3
# Si number density = 21.758985 Si / 1000 Ang^3
#
#
#
# Elastic Constant Matrix: (Units=GPa)
#
#
# Indices 1 2 3 4 5 6 
#
# 1 95.7821 9.0481 36.3556 0.0002 0.0001 0.0000
# 2 9.0481 95.7821 36.3556 -0.0002 -0.0001 0.0000
# 3 36.3556 36.3556 235.9425 0.0000 0.0000 0.0000
# 4 0.0002 -0.0002 0.0000 26.6767 0.0000 -0.0001
# 5 0.0001 -0.0001 0.0000 0.0000 26.6767 0.0002
# 6 0.0000 0.0000 0.0000 -0.0001 0.0002 43.3670
#
#
#
# Elastic Compliance Matrix: (Units=1/GPa)
#
#
# Indices 1 2 3 4 5 6 
#
# 1 0.011105 -0.000424 -0.001646 0.000000 0.000000 0.000000
# 2 -0.000424 0.011105 -0.001646 0.000000 0.000000 0.000000
# 3 -0.001646 -0.001646 0.004746 0.000000 0.000000 0.000000
# 4 0.000000 0.000000 0.000000 0.037486 0.000000 0.000000
# 5 0.000000 0.000000 0.000000 0.000000 0.037486 0.000000
# 6 0.000000 0.000000 0.000000 0.000000 0.000000 0.023059
#
#
# Mechanical properties :
#
#
# Convention : Reuss Voigt Hill
#
# Bulk Modulus (GPa) = 51.21914 65.66949 58.44432
# Shear Modulus (GPa) = 35.99026 42.39387 39.19206
#
# Velocity S-wave (km/s) = 4.07140 4.41879 4.24865
# Velocity P-wave (km/s) = 6.75960 7.50201 7.14046
#
# Compressibility (1/GPa) = 0.01952395
#
# Stress axis : x y z
#
# Youngs Moduli (GPa) = 90.04846 90.04846 210.72583
#
# Poissons Ratio (x) = 0.03821 0.34680
# Poissons Ratio (y) = 0.03821 0.34680
# Poissons Ratio (z) = 0.14820 0.14820
#
# Static dielectric constant tensor:
#      x y z
#    x 1.777590 0.000000 0.000000 
#    y 0.000000 1.777590 0.000000 
#    z 0.000000 0.000000 1.741830 
# 
# From -- ./inp_files/940.got.cif
#   From: 2010.05.17/outbox.cif.g08.bks.cpg/sg147_cif.got.tgz:940.got - 2010.05.20 13:49:32.
