data_PCOD9574916
_publ_section_title
;
Structure prediction by ZEFSAII (Michael W. Deem and Ramdas Pophale) SiO2 
 PCOD9574916
Probable space group: P -3
;
_chemical_formula_sum "Si O2"
_cell_formula_units_Z 36
_cell_length_a 8.970272
_cell_length_b 8.970272
_cell_length_c 27.523395
_cell_angle_alpha 90.000000
_cell_angle_beta 90.000000
_cell_angle_gamma 120.000000
_cell_volume 1917.979049
_symmetry_space_group_name_H-M "P -3"
_symmetry_group_IT_number 147
_symmetry_cell_setting 'hexagonal'
loop_
_space_group_symop_operation_xyz
x,y,z
-y,x-y,z
-x+y,-x,z
-x,-y,-z
y,-x+y,-z
x-y,x,-z
loop_
_atom_site_type_symbol
_atom_site_label
_atom_site_fract_x
_atom_site_fract_y
_atom_site_fract_z
Si Si1 0.335439 0.330080 0.519831
Si Si2 0.320107 0.990026 0.770027
Si Si3 0.663041 0.671150 0.980108
Si Si4 0.334268 0.864037 0.375548
Si Si5 0.185896 0.977637 0.876982
Si Si6 0.993300 0.655239 0.731553
O O1 0.500000 0.500000 0.500000
O O2 0.165019 0.332175 0.505063
O O3 0.363092 0.325969 0.577465
O O4 0.344576 0.172050 0.753234
O O5 0.268126 0.967950 0.826598
O O6 0.161157 0.837391 0.741400
O O7 0.491931 0.985184 0.757696
O O8 0.677476 0.707923 0.922478
O O9 0.500000 0.500000 0.000000
O O10 0.833111 0.667049 0.994983
O O11 0.173084 0.667412 0.377127
O O12 0.343322 0.956083 0.325355
O O13 0.982251 0.831625 0.879154
#
# Coordination Sequence:
#
# PCOD9574916 Si02
#       6
#     6   6   6   6   6   6
#     4  12  24  43  69 102 135 178 228 285 343 416
#     4  12  24  43  69 105 135 183 226 280 340 403
#     4  12  24  43  69 102 135 177 222 277 333 397
#     4  10  20  42  70  96 135 181 224 278 355 400
#     4  10  20  42  73  95 133 184 224 271 348 395
#     4  12  24  43  69 103 140 176 229 281 338 410
#
# _framework density 18.769756999999998
#
# number of rings (size 3 to 8) (size 9 to 14) (size 15 to 20)
#    0.667    0.000    6.667    2.000    0.000    5.333 
#    0.000    0.000    0.000    0.000    0.000    0.000 
#    0.000    0.000    0.000    0.000    0.000    0.000 
#
# Total GULP energy -201113.367007 kJ/mol
# GULP energy per Si atom -5586.482417 kJ/mol
# Density = 1.872704 g / cm^3
# Si number density = 18.769757 Si / 1000 Ang^3
#
#
#
# Elastic Constant Matrix: (Units=GPa)
#
#
# Indices 1 2 3 4 5 6 
#
# 1 96.6870 25.1434 51.8399 -2.6641 0.3300 0.0000
# 2 25.1434 96.6870 51.8399 2.6641 -0.3300 0.0000
# 3 51.8399 51.8399 193.6049 0.0000 0.0000 0.0000
# 4 -2.6641 2.6641 0.0000 31.6629 0.0000 -0.3300
# 5 0.3300 -0.3300 0.0000 0.0000 31.6629 -2.6641
# 6 0.0000 0.0000 0.0000 -0.3300 -2.6641 35.7718
#
#
#
# Elastic Compliance Matrix: (Units=1/GPa)
#
#
# Indices 1 2 3 4 5 6 
#
# 1 0.012349 -0.001718 -0.002846 0.001184 -0.000147 0.000000
# 2 -0.001718 0.012349 -0.002846 -0.001184 0.000147 0.000000
# 3 -0.002846 -0.002846 0.006689 0.000000 0.000000 0.000000
# 4 0.001184 -0.001184 0.000000 0.031785 0.000000 0.000293
# 5 -0.000147 0.000147 0.000000 0.000000 0.031785 0.002367
# 6 0.000000 0.000000 0.000000 0.000293 0.002367 0.028134
#
#
# Mechanical properties :
#
#
# Convention : Reuss Voigt Hill
#
# Bulk Modulus (GPa) = 60.36919 71.62504 65.99712
# Shear Modulus (GPa) = 34.85907 37.02989 35.94448
#
# Velocity S-wave (km/s) = 4.31419 4.44649 4.38084
# Velocity P-wave (km/s) = 7.55309 8.03769 7.79915
#
# Compressibility (1/GPa) = 0.01656474
#
# Stress axis : x y z
#
# Youngs Moduli (GPa) = 80.97984 80.97984 149.48827
#
# Poissons Ratio (x) = 0.13914 0.42551
# Poissons Ratio (y) = 0.13914 0.42551
# Poissons Ratio (z) = 0.23050 0.23050
#
# Static dielectric constant tensor:
#      x y z
#    x 1.637950 0.000000 0.000000 
#    y 0.000000 1.637950 0.000000 
#    z 0.000000 0.000000 1.636280 
# 
# From -- ./inp_files/1119.got.cif
#   From: 2010.05.17/outbox.cif.g08.bks.cpg/sg147_cif.got.tgz:1119.got - 2010.05.20 13:49:32.
