data_PCOD9574564
_publ_section_title
;
Structure prediction by ZEFSAII (Michael W. Deem and Ramdas Pophale) SiO2 
 PCOD9574564
Probable space group: P 32
;
_chemical_formula_sum "Si O2"
_cell_formula_units_Z 24
_cell_length_a 14.273538
_cell_length_b 14.273538
_cell_length_c 5.373367
_cell_angle_alpha 90.000000
_cell_angle_beta 90.000000
_cell_angle_gamma 120.000000
_cell_volume 948.070005
_symmetry_space_group_name_H-M "P 32"
_symmetry_group_IT_number 145
_symmetry_cell_setting 'hexagonal'
loop_
_space_group_symop_operation_xyz
x,y,z
-y,x-y,2/3+z
-x+y,-x,1/3+z
loop_
_atom_site_type_symbol
_atom_site_label
_atom_site_fract_x
_atom_site_fract_y
_atom_site_fract_z
Si Si1 0.680852 0.078552 0.986100
Si Si2 0.943363 0.885176 0.796869
Si Si3 0.330997 0.902021 0.008974
Si Si4 0.384248 0.605323 0.992949
Si Si5 0.031885 0.197269 0.707387
Si Si6 0.023410 0.532872 0.033668
Si Si7 0.878122 0.394643 0.433979
Si Si8 0.846586 0.656480 0.151443
O O1 0.621660 0.149615 0.932878
O O2 0.737082 0.083378 0.721289
O O3 0.766757 0.109747 0.208601
O O4 0.578548 0.979126 0.127036
O O5 0.914336 0.973650 0.899105
O O6 0.835370 0.807397 0.641184
O O7 0.037323 0.896501 0.987380
O O8 0.336310 0.804749 0.883102
O O9 0.215802 0.891439 0.016510
O O10 0.414571 0.005512 0.844503
O O11 0.389474 0.937902 0.272464
O O12 0.418747 0.690651 0.771324
O O13 0.389187 0.501507 0.897055
O O14 0.930122 0.168297 0.519465
O O15 0.907971 0.454898 0.165039
O O16 0.808413 0.267018 0.477541
#
# Coordination Sequence:
#
# PCOD9574564 Si02
#       8
#     3   3   3   3   3   3   3   3
#     4  11  23  43  62 104 140 193 237 300 361 427
#     4   9  20  40  66  89 132 173 226 293 351 411
#     4   9  21  39  70  97 136 185 240 286 360 444
#     4  11  23  43  69 102 138 192 238 300 365 436
#     4  10  22  42  67 103 131 192 233 300 361 435
#     4  10  21  44  70  95 141 191 236 295 366 436
#     4   9  21  42  63  95 137 189 236 295 361 426
#     4  11  25  39  69  99 143 187 246 301 359 433
#
# _framework density 25.314582000000001
#
# number of rings (size 3 to 8) (size 9 to 14) (size 15 to 20)
#    0.000    2.000    1.250    0.750    7.000    2.000 
#    4.500    1.250    0.000    0.000    0.000    0.000 
#    0.000    0.000    0.000    0.000    0.000    0.000 
#
# Total GULP energy -133629.675574 kJ/mol
# GULP energy per Si atom -5567.903149 kJ/mol
# Density = 2.525697 g / cm^3
# Si number density = 25.314582 Si / 1000 Ang^3
#
#
#
# Elastic Constant Matrix: (Units=GPa)
#
#
# Indices 1 2 3 4 5 6 
#
# 1 74.0435 14.3432 22.7781 -0.8096 4.6433 0.0000
# 2 14.3432 74.0435 22.7781 0.8096 -4.6433 0.0000
# 3 22.7781 22.7781 152.3851 0.0000 0.0000 0.0000
# 4 -0.8096 0.8096 0.0000 29.8737 0.0000 -4.6433
# 5 4.6433 -4.6433 0.0000 0.0000 29.8737 -0.8096
# 6 0.0000 0.0000 0.0000 -4.6433 -0.8096 29.8502
#
#
#
# Elastic Compliance Matrix: (Units=1/GPa)
#
#
# Indices 1 2 3 4 5 6 
#
# 1 0.014718 -0.002460 -0.001832 0.000466 -0.002670 0.000000
# 2 -0.002460 0.014718 -0.001832 -0.000466 0.002670 0.000000
# 3 -0.001832 -0.001832 0.007110 0.000000 0.000000 0.000000
# 4 0.000466 -0.000466 0.000000 0.034330 0.000000 0.005340
# 5 -0.002670 0.002670 0.000000 0.000000 0.034330 0.000931
# 6 0.000000 0.000000 0.000000 0.005340 0.000931 0.034357
#
#
# Mechanical properties :
#
#
# Convention : Reuss Voigt Hill
#
# Bulk Modulus (GPa) = 41.15664 46.69676 43.92670
# Shear Modulus (GPa) = 31.26741 33.95769 32.61255
#
# Velocity S-wave (km/s) = 3.51829 3.66652 3.59317
# Velocity P-wave (km/s) = 5.72694 6.03417 5.88256
#
# Compressibility (1/GPa) = 0.02429742
#
# Stress axis : x y z
#
# Youngs Moduli (GPa) = 67.94255 67.94255 140.64486
#
# Poissons Ratio (x) = 0.16714 0.25771
# Poissons Ratio (y) = 0.16714 0.25771
# Poissons Ratio (z) = 0.12449 0.12449
#
# Static dielectric constant tensor:
#      x y z
#    x 2.120780 0.000000 0.000000 
#    y 0.000000 2.120780 0.000000 
#    z 0.000000 0.000000 2.108070 
# 
# From -- ./inp_files/154.got.cif
#   From: 2010.05.17/outbox.cif.g08.bks.cpg/sg145_cif.got.tgz:154.got - 2010.05.20 13:47:28.
