data_PCOD9574088
_publ_section_title
;
Structure prediction by ZEFSAII (Michael W. Deem and Ramdas Pophale) SiO2 
 PCOD9574088
Probable space group: I 41/A C D
;
_chemical_formula_sum "Si O2"
_cell_formula_units_Z 96
_cell_length_a 21.503596
_cell_length_b 21.503596
_cell_length_c 9.363871
_cell_angle_alpha 90.000000
_cell_angle_beta 90.000000
_cell_angle_gamma 90.000000
_cell_volume 4329.897407
_symmetry_space_group_name_H-M "I 41/A C D"
_symmetry_group_IT_number 142
_space_group.IT_coordinate_system_code '2'
_symmetry_cell_setting 'tetragonal'
loop_
_space_group_symop_operation_xyz
x,y,z
1/4-y,3/4+x,1/4+z
-x,1/2-y,z
1/4+y,1/4-x,3/4+z
x,-y,1/2-z
1/2-x,y,-z
3/4+y,1/4+x,1/4-z
1/4-y,1/4-x,1/4-z
-x,-y,-z
3/4+y,1/4-x,3/4-z
x,1/2+y,-z
3/4-y,3/4+x,1/4-z
-x,y,1/2+z
1/2+x,-y,z
1/4-y,3/4-x,3/4+z
3/4+y,3/4+x,3/4+z
1/2+x,1/2+y,1/2+z
3/4-y,1/4+x,3/4+z
1/2-x,-y,1/2+z
3/4+y,3/4-x,1/4+z
1/2+x,1/2-y,-z
-x,1/2+y,1/2-z
1/4+y,3/4+x,3/4-z
3/4-y,3/4-x,3/4-z
1/2-x,1/2-y,1/2-z
1/4+y,3/4-x,1/4-z
1/2+x,y,1/2-z
1/4-y,1/4+x,3/4-z
1/2-x,1/2+y,z
x,1/2-y,1/2+z
3/4-y,1/4-x,1/4+z
1/4+y,1/4+x,1/4+z
loop_
_atom_site_type_symbol
_atom_site_label
_atom_site_fract_x
_atom_site_fract_y
_atom_site_fract_z
Si Si1 0.429876 0.320125 0.875000
Si Si2 0.852583 0.367736 0.376572
Si Si3 0.428707 0.678707 0.125000
Si Si4 0.862051 0.007256 0.595001
O O1 0.422788 0.372558 0.755346
O O2 0.500520 0.327451 0.928302
O O3 0.907353 0.363394 0.257376
O O4 0.791419 0.352268 0.283170
O O5 0.843525 0.437011 0.438454
O O6 0.802156 0.052156 0.625000
O O7 0.894288 0.000000 0.750000
#
# Coordination Sequence:
#
# PCOD9574088 Si02
#       4
#    16  32  16  32
#     4  11  26  40  63 106 126 180 231 282 328 395
#     4  11  21  42  67  98 131 175 226 276 337 406
#     4  11  22  46  69  82 142 186 225 268 334 409
#     4   9  18  39  67  92 126 177 208 264 346 405
#
# _framework density 22.171424999999999
#
# number of rings (size 3 to 8) (size 9 to 14) (size 15 to 20)
#    0.000    1.667    5.000    2.000    0.000    4.000 
#   24.000   10.000    0.000    0.000    0.000    0.000 
#    0.000    0.000    0.000    0.000    0.000    0.000 
#
# Total GULP energy -267357.083102 kJ/mol
# GULP energy per Si atom -5569.939231 kJ/mol
# Density = 2.212096 g / cm^3
# Si number density = 22.171425 Si / 1000 Ang^3
#
#
#
# Elastic Constant Matrix: (Units=GPa)
#
#
# Indices 1 2 3 4 5 6 
#
# 1 63.9866 51.9115 29.1167 0.0000 0.0000 0.0000
# 2 51.9115 63.9867 29.1171 0.0000 0.0000 0.0000
# 3 29.1167 29.1171 106.1825 0.0000 0.0000 0.0000
# 4 0.0000 0.0000 0.0000 24.8865 0.0000 0.0000
# 5 0.0000 0.0000 0.0000 0.0000 24.8858 0.0000
# 6 0.0000 0.0000 0.0000 0.0000 0.0000 14.6709
#
#
#
# Elastic Compliance Matrix: (Units=1/GPa)
#
#
# Indices 1 2 3 4 5 6 
#
# 1 0.046411 -0.036404 -0.002744 0.000000 0.000000 0.000000
# 2 -0.036404 0.046411 -0.002744 0.000000 0.000000 0.000000
# 3 -0.002744 -0.002744 0.010923 0.000000 0.000000 0.000000
# 4 0.000000 0.000000 0.000000 0.040182 0.000000 0.000000
# 5 0.000000 0.000000 0.000000 0.000000 0.040184 0.000000
# 6 0.000000 0.000000 0.000000 0.000000 0.000000 0.068162
#
#
# Mechanical properties :
#
#
# Convention : Reuss Voigt Hill
#
# Bulk Modulus (GPa) = 50.09912 50.49405 50.29659
# Shear Modulus (GPa) = 14.58958 21.15601 17.87279
#
# Velocity S-wave (km/s) = 2.56800 3.09237 2.84230
# Velocity P-wave (km/s) = 5.60697 5.96441 5.78845
#
# Compressibility (1/GPa) = 0.01996043
#
# Stress axis : x y z
#
# Youngs Moduli (GPa) = 21.54667 21.54663 91.55253
#
# Poissons Ratio (x) = 0.78438 0.25121
# Poissons Ratio (y) = 0.78438 0.25125
# Poissons Ratio (z) = 0.05912 0.05913
#
# Static dielectric constant tensor:
#      x y z
#    x 1.828430 0.000000 0.000000 
#    y 0.000000 1.828430 0.000000 
#    z 0.000000 0.000000 1.879470 
# 
# From -- ./inp_files/1671.got.cif
#   From: 2010.05.17/outbox.cif.g08.bks.cpg/sg142_1_cif.got.tgz:1671.got - 2010.05.20 13:39:18.
