data_PCOD9574297
_publ_section_title
;
Structure prediction by ZEFSAII (Michael W. Deem and Ramdas Pophale) SiO2 
 PCOD9574297
Probable space group: P 31
;
_chemical_formula_sum "Si O2"
_cell_formula_units_Z 18
_cell_length_a 8.783710
_cell_length_b 8.783710
_cell_length_c 12.447529
_cell_angle_alpha 90.000000
_cell_angle_beta 90.000000
_cell_angle_gamma 120.000000
_cell_volume 831.705850
_symmetry_space_group_name_H-M "P 31"
_symmetry_group_IT_number 144
_symmetry_cell_setting 'hexagonal'
loop_
_space_group_symop_operation_xyz
x,y,z
-y,x-y,1/3+z
-x+y,-x,2/3+z
loop_
_atom_site_type_symbol
_atom_site_label
_atom_site_fract_x
_atom_site_fract_y
_atom_site_fract_z
Si Si1 0.426788 0.864352 0.807660
Si Si2 0.312168 0.922238 0.044763
Si Si3 0.767759 0.036256 0.296700
Si Si4 0.357004 0.052634 0.630741
Si Si5 0.313765 0.327166 0.730268
Si Si6 0.083448 0.497600 0.742527
O O1 0.585952 0.830216 0.778206
O O2 0.453233 0.022743 0.731442
O O3 0.261087 0.680723 0.767097
O O4 0.365260 0.878580 0.927097
O O5 0.497505 0.985598 0.101671
O O6 0.262702 0.071236 0.025924
O O7 0.747966 0.845942 0.313479
O O8 0.794830 0.058700 0.168575
O O9 0.585787 0.024428 0.336091
O O10 0.425290 0.014988 0.520230
O O11 0.363485 0.237020 0.636259
O O12 0.160968 0.373155 0.703314
#
# Coordination Sequence:
#
# PCOD9574297 Si02
#       6
#     3   3   3   3   3   3
#     4  10  19  38  65  88 118 168 209 252 312 387
#     4  11  22  38  63  94 125 163 213 256 318 386
#     4  10  22  41  62  91 127 166 210 265 319 381
#     4  10  19  40  63  87 123 164 210 261 316 376
#     4  10  22  37  62  90 124 165 209 261 320 381
#     4   9  20  38  63  88 123 168 205 259 319 377
#
# _framework density 21.642268999999999
#
# number of rings (size 3 to 8) (size 9 to 14) (size 15 to 20)
#    0.000    2.000    3.333    0.000    7.000    1.333 
#    6.000    0.000    0.000    0.000    0.000    0.000 
#    0.000    0.000    0.000    0.000    0.000    0.000 
#
# Total GULP energy -100344.181008 kJ/mol
# GULP energy per Si atom -5574.676723 kJ/mol
# Density = 2.159301 g / cm^3
# Si number density = 21.642269 Si / 1000 Ang^3
#
#
#
# Elastic Constant Matrix: (Units=GPa)
#
#
# Indices 1 2 3 4 5 6 
#
# 1 63.1052 25.4023 19.9018 1.2590 -0.4222 0.0000
# 2 25.4023 63.1052 19.9018 -1.2590 0.4222 0.0000
# 3 19.9018 19.9018 88.3321 0.0000 0.0000 0.0000
# 4 1.2590 -1.2590 0.0000 23.6684 0.0000 0.4222
# 5 -0.4222 0.4222 0.0000 0.0000 23.6684 1.2590
# 6 0.0000 0.0000 0.0000 0.4222 1.2590 18.8515
#
#
#
# Elastic Compliance Matrix: (Units=1/GPa)
#
#
# Indices 1 2 3 4 5 6 
#
# 1 0.019600 -0.007028 -0.002833 -0.001417 0.000475 0.000000
# 2 -0.007028 0.019600 -0.002833 0.001417 -0.000475 0.000000
# 3 -0.002833 -0.002833 0.012597 0.000000 0.000000 0.000000
# 4 -0.001417 0.001417 0.000000 0.042418 0.000000 -0.000950
# 5 0.000475 -0.000475 0.000000 0.000000 0.042418 -0.002833
# 6 0.000000 0.000000 0.000000 -0.000950 -0.002833 0.053257
#
#
# Mechanical properties :
#
#
# Convention : Reuss Voigt Hill
#
# Bulk Modulus (GPa) = 37.86226 38.32827 38.09527
# Shear Modulus (GPa) = 22.31330 23.19341 22.75336
#
# Velocity S-wave (km/s) = 3.21441 3.27719 3.24595
# Velocity P-wave (km/s) = 5.59546 5.66289 5.62928
#
# Compressibility (1/GPa) = 0.02641152
#
# Stress axis : x y z
#
# Youngs Moduli (GPa) = 51.01942 51.01942 79.38180
#
# Poissons Ratio (x) = 0.35856 0.22486
# Poissons Ratio (y) = 0.35856 0.22486
# Poissons Ratio (z) = 0.14452 0.14452
#
# Static dielectric constant tensor:
#      x y z
#    x 1.791350 0.000000 0.000000 
#    y 0.000000 1.791350 0.000000 
#    z 0.000000 0.000000 1.815380 
# 
# From -- ./inp_files/500.got.cif
#   From: 2010.05.17/outbox.cif.g08.bks.cpg/sg144_cif.got.tgz:500.got - 2010.05.20 13:46:34.
