data_PCOD9574771
_publ_section_title
;
Structure prediction by ZEFSAII (Michael W. Deem and Ramdas Pophale) SiO2 
 PCOD9574771
Probable space group: R 3
;
_chemical_formula_sum "Si O2"
_cell_formula_units_Z 63
_cell_length_a 16.101620
_cell_length_b 16.101620
_cell_length_c 11.313372
_cell_angle_alpha 90.000000
_cell_angle_beta 90.000000
_cell_angle_gamma 120.000000
_cell_volume 2540.164518
_symmetry_space_group_name_H-M "R 3"
_symmetry_group_IT_number 146
_symmetry_cell_setting 'hexagonal'
loop_
_space_group_symop_operation_xyz
x,y,z
-y,x-y,z
-x+y,-x,z
2/3+x,1/3+y,1/3+z
2/3-y,1/3+x-y,1/3+z
2/3-x+y,1/3-x,1/3+z
1/3+x,2/3+y,2/3+z
1/3-y,2/3+x-y,2/3+z
1/3-x+y,2/3-x,2/3+z
loop_
_atom_site_type_symbol
_atom_site_label
_atom_site_fract_x
_atom_site_fract_y
_atom_site_fract_z
Si Si1 0.703089 0.247757 0.327870
Si Si2 0.250020 0.840747 0.273468
Si Si3 0.202486 0.305238 0.445781
Si Si4 0.178856 0.975224 0.175187
Si Si5 0.365885 0.267285 0.197124
Si Si6 0.778840 0.657619 0.007947
Si Si7 0.539516 0.404012 0.694094
O O1 0.766318 0.363815 0.321647
O O2 0.744251 0.231658 0.450079
O O3 0.712036 0.183415 0.230118
O O4 0.157352 0.769822 0.348226
O O5 0.347473 0.888953 0.348519
O O6 0.251385 0.793951 0.149190
O O7 0.227281 0.926518 0.249764
O O8 0.302389 0.334173 0.509129
O O9 0.137578 0.324254 0.537697
O O10 0.155759 0.196802 0.396671
O O11 0.257875 0.026295 0.069458
O O12 0.160091 0.045961 0.258552
O O13 0.335453 0.202618 0.081120
O O14 0.299067 0.204548 0.303708
#
# Coordination Sequence:
#
# PCOD9574771 Si02
#       7
#     9   9   9   9   9   9   9
#     4  10  24  38  64  96 127 174 220 279 340 400
#     4  12  25  42  70  99 136 180 226 288 344 407
#     4  12  26  43  70  99 139 181 228 282 345 411
#     4  11  23  43  69  98 134 174 231 285 338 413
#     4  11  23  44  67  98 134 178 231 281 337 413
#     4  11  25  41  69 100 132 177 225 284 339 407
#     4  11  24  43  69 100 134 178 229 285 345 405
#
# _framework density 24.801542000000001
#
# number of rings (size 3 to 8) (size 9 to 14) (size 15 to 20)
#    0.286    0.571    1.429    6.000    8.000    2.286 
#    0.000    0.000    0.000    2.286    0.000    0.000 
#    0.000    0.000    0.000    0.000    0.000    0.000 
#
# Total GULP energy -117341.492762 kJ/mol
# GULP energy per Si atom -5587.690132 kJ/mol
# Density = 2.474509 g / cm^3
# Si number density = 24.801542 Si / 1000 Ang^3
#
#
#
# Elastic Constant Matrix: (Units=GPa)
#
#
# Indices 1 2 3 4 5 6 
#
# 1 60.5445 -5.0485 21.4267 1.1407 3.4168 0.0000
# 2 -5.0485 60.5445 21.4267 -1.1407 -3.4168 0.0000
# 3 21.4267 21.4267 104.6734 0.0000 0.0000 0.0000
# 4 1.1407 -1.1407 0.0000 43.9644 0.0000 -3.4168
# 5 3.4168 -3.4168 0.0000 0.0000 43.9644 1.1407
# 6 0.0000 0.0000 0.0000 -3.4168 1.1407 32.7965
#
#
#
# Elastic Compliance Matrix: (Units=1/GPa)
#
#
# Indices 1 2 3 4 5 6 
#
# 1 0.018393 0.003009 -0.004381 -0.000399 -0.001196 0.000000
# 2 0.003009 0.018393 -0.004381 0.000399 0.001196 0.000000
# 3 -0.004381 -0.004381 0.011347 0.000000 0.000000 0.000000
# 4 -0.000399 0.000399 0.000000 0.022952 0.000000 0.002391
# 5 -0.001196 0.001196 0.000000 0.000000 0.022952 -0.000798
# 6 0.000000 0.000000 0.000000 0.002391 -0.000798 0.030768
#
#
# Mechanical properties :
#
#
# Convention : Reuss Voigt Hill
#
# Bulk Modulus (GPa) = 27.30187 33.48580 30.39384
# Shear Modulus (GPa) = 33.66529 36.67558 35.17043
#
# Velocity S-wave (km/s) = 3.68827 3.84964 3.76982
# Velocity P-wave (km/s) = 5.40091 5.76979 5.58839
#
# Compressibility (1/GPa) = 0.03662752
#
# Stress axis : x y z
#
# Youngs Moduli (GPa) = 54.36805 54.36805 88.12788
#
# Poissons Ratio (x) = -0.16360 0.38609
# Poissons Ratio (y) = -0.16360 0.38609
# Poissons Ratio (z) = 0.23819 0.23819
#
# Static dielectric constant tensor:
#      x y z
#    x 1.975280 0.000000 0.000000 
#    y 0.000000 1.975280 0.000000 
#    z 0.000000 0.000000 2.003250 
# 
# From -- ./inp_files/1211.got.cif
#   From: 2010.05.17/outbox.cif.g08.bks.cpg/sg146_cif.got.tgz:1211.got - 2010.05.20 13:48:23.
