data_PCOD9574843
_publ_section_title
;
Structure prediction by ZEFSAII (Michael W. Deem and Ramdas Pophale) SiO2 
 PCOD9574843
Probable space group: R 3
;
_chemical_formula_sum "Si O2"
_cell_formula_units_Z 45
_cell_length_a 15.738835
_cell_length_b 15.738835
_cell_length_c 7.756194
_cell_angle_alpha 90.000000
_cell_angle_beta 90.000000
_cell_angle_gamma 120.000000
_cell_volume 1663.889418
_symmetry_space_group_name_H-M "R 3"
_symmetry_group_IT_number 146
_symmetry_cell_setting 'hexagonal'
loop_
_space_group_symop_operation_xyz
x,y,z
-y,x-y,z
-x+y,-x,z
2/3+x,1/3+y,1/3+z
2/3-y,1/3+x-y,1/3+z
2/3-x+y,1/3-x,1/3+z
1/3+x,2/3+y,2/3+z
1/3-y,2/3+x-y,2/3+z
1/3-x+y,2/3-x,2/3+z
loop_
_atom_site_type_symbol
_atom_site_label
_atom_site_fract_x
_atom_site_fract_y
_atom_site_fract_z
Si Si1 0.852627 0.036863 0.412790
Si Si2 0.610720 0.533142 0.241565
Si Si3 0.075813 0.541136 0.776850
Si Si4 0.370902 0.856011 0.228189
Si Si5 0.067516 0.685013 0.574372
O O1 0.807942 0.965584 0.242183
O O2 0.897314 0.867482 0.427940
O O3 0.812893 0.951570 0.555999
O O4 0.835872 0.128210 0.469300
O O5 0.687133 0.562448 0.400515
O O6 0.505644 0.441919 0.282897
O O7 0.701370 0.759101 0.515673
O O8 0.654040 0.504062 0.080025
O O9 0.084022 0.593383 0.595474
O O10 0.992377 0.675769 0.725619
#
# Coordination Sequence:
#
# PCOD9574843 Si02
#       5
#     9   9   9   9   9
#     4  12  29  52  88 128 176 232 293 375 451 544
#     4  12  30  53  87 125 178 231 302 369 458 548
#     4  12  28  52  88 124 175 227 302 361 461 536
#     4  12  29  53  83 129 177 233 296 375 456 543
#     4  12  28  54  90 128 170 237 305 378 450 551
#
# _framework density 27.045067
#
# number of rings (size 3 to 8) (size 9 to 14) (size 15 to 20)
#    0.000    0.000    2.000    5.200   11.200    0.000 
#    1.200    0.000    0.000    0.000    0.000    0.000 
#    0.000    0.000    0.000    0.000    0.000    0.000 
#
# Total GULP energy -83703.536891 kJ/mol
# GULP energy per Si atom -5580.235793 kJ/mol
# Density = 2.698351 g / cm^3
# Si number density = 27.045067 Si / 1000 Ang^3
#
#
#
# Elastic Constant Matrix: (Units=GPa)
#
#
# Indices 1 2 3 4 5 6 
#
# 1 183.6391 83.5540 68.9608 9.3135 -4.6070 0.0000
# 2 83.5540 183.6391 68.9609 -9.3136 4.6069 0.0000
# 3 68.9608 68.9609 144.8934 -0.0002 -0.0004 -0.0001
# 4 9.3135 -9.3136 -0.0002 50.8746 -0.0002 4.6069
# 5 -4.6070 4.6069 -0.0004 -0.0002 50.8745 9.3136
# 6 0.0000 0.0000 -0.0001 4.6069 9.3136 50.0425
#
#
#
# Elastic Compliance Matrix: (Units=1/GPa)
#
#
# Indices 1 2 3 4 5 6 
#
# 1 0.007698 -0.002736 -0.002361 -0.001910 0.000945 0.000000
# 2 -0.002736 0.007698 -0.002361 0.001910 -0.000945 0.000000
# 3 -0.002361 -0.002361 0.009149 0.000000 0.000000 0.000000
# 4 -0.001910 0.001910 0.000000 0.020527 0.000000 -0.001890
# 5 0.000945 -0.000945 0.000000 0.000000 0.020527 -0.003820
# 6 0.000000 0.000000 0.000000 -0.001890 -0.003820 0.020868
#
#
# Mechanical properties :
#
#
# Convention : Reuss Voigt Hill
#
# Bulk Modulus (GPa) = 103.87597 106.12480 105.00038
# Shear Modulus (GPa) = 47.80421 49.73806 48.77114
#
# Velocity S-wave (km/s) = 4.20882 4.29310 4.25117
# Velocity P-wave (km/s) = 7.88103 7.99371 7.93757
#
# Compressibility (1/GPa) = 0.00962687
#
# Stress axis : x y z
#
# Youngs Moduli (GPa) = 129.90792 129.90790 109.29668
#
# Poissons Ratio (x) = 0.35546 0.25809
# Poissons Ratio (y) = 0.35546 0.25809
# Poissons Ratio (z) = 0.30676 0.30677
#
# Static dielectric constant tensor:
#      x y z
#    x 2.247470 0.000000 0.000000 
#    y 0.000000 2.247470 0.000000 
#    z 0.000000 0.000000 2.162900 
# 
# From -- ./inp_files/717.got.cif
#   From: 2010.05.17/outbox.cif.g08.bks.cpg/sg146_cif.got.tgz:717.got - 2010.05.20 13:48:23.
