data_PCOD9574576
_publ_section_title
;
Structure prediction by ZEFSAII (Michael W. Deem and Ramdas Pophale) SiO2 
 PCOD9574576
Probable space group: P 32
;
_chemical_formula_sum "Si O2"
_cell_formula_units_Z 18
_cell_length_a 9.085781
_cell_length_b 9.085781
_cell_length_c 12.111151
_cell_angle_alpha 90.000000
_cell_angle_beta 90.000000
_cell_angle_gamma 120.000000
_cell_volume 865.845850
_symmetry_space_group_name_H-M "P 32"
_symmetry_group_IT_number 145
_symmetry_cell_setting 'hexagonal'
loop_
_space_group_symop_operation_xyz
x,y,z
-y,x-y,2/3+z
-x+y,-x,1/3+z
loop_
_atom_site_type_symbol
_atom_site_label
_atom_site_fract_x
_atom_site_fract_y
_atom_site_fract_z
Si Si1 0.275359 0.386232 0.088630
Si Si2 0.386232 0.275359 0.865285
Si Si3 0.005979 0.815913 0.641078
Si Si4 0.389273 0.099205 0.462849
Si Si5 0.815913 0.005979 0.312837
Si Si6 0.099205 0.389273 0.491066
O O1 0.238140 0.248984 0.184164
O O2 0.421081 0.568386 0.131976
O O3 0.096859 0.383187 0.089563
O O4 0.338159 0.338159 0.976957
O O5 0.568386 0.421082 0.821938
O O6 0.248984 0.238140 0.769751
O O7 0.383188 0.096859 0.864352
O O8 0.172658 0.860421 0.714847
O O9 0.849063 0.661150 0.701184
O O10 0.015115 1.000000 0.643624
O O11 0.312237 0.139579 0.572401
O O12 0.661150 0.849062 0.252731
#
# Coordination Sequence:
#
# PCOD9574576 Si02
#       6
#     3   3   3   3   3   3
#     4  11  22  37  62  91 119 150 195 248 293 339
#     4  11  22  37  62  91 119 150 195 248 293 339
#     4   9  20  41  63  84 117 160 197 232 287 356
#     4  10  22  40  61  87 120 155 194 241 291 347
#     4   9  20  41  63  84 117 160 197 232 287 356
#     4  10  22  40  61  87 120 155 194 241 291 347
#
# _framework density 20.788919
#
# number of rings (size 3 to 8) (size 9 to 14) (size 15 to 20)
#    0.000    2.000    0.000    4.000    0.000    9.333 
#    0.000    5.000    0.000    4.000    0.000    0.000 
#    0.000    0.000    0.000    0.000    0.000    0.000 
#
# Total GULP energy -100382.404645 kJ/mol
# GULP energy per Si atom -5576.800258 kJ/mol
# Density = 2.074160 g / cm^3
# Si number density = 20.788919 Si / 1000 Ang^3
#
#
#
# Elastic Constant Matrix: (Units=GPa)
#
#
# Indices 1 2 3 4 5 6 
#
# 1 69.6420 40.3581 12.7190 -7.9230 0.0000 0.0000
# 2 40.3581 69.6420 12.7190 7.9230 0.0000 0.0000
# 3 12.7190 12.7190 105.3213 0.0000 0.0000 0.0000
# 4 -7.9230 7.9230 0.0000 15.9321 0.0000 0.0000
# 5 0.0000 0.0000 0.0000 0.0000 15.9321 -7.9230
# 6 0.0000 0.0000 0.0000 0.0000 -7.9230 14.6420
#
#
#
# Elastic Compliance Matrix: (Units=1/GPa)
#
#
# Indices 1 2 3 4 5 6 
#
# 1 0.028036 -0.018684 -0.001129 0.023234 0.000000 0.000000
# 2 -0.018684 0.028036 -0.001129 -0.023234 0.000000 0.000000
# 3 -0.001129 -0.001129 0.009768 0.000000 0.000000 0.000000
# 4 0.023234 -0.023234 0.000000 0.085875 0.000000 0.000000
# 5 0.000000 0.000000 0.000000 0.000000 0.085875 0.046468
# 6 0.000000 0.000000 0.000000 0.000000 0.046468 0.093442
#
#
# Mechanical properties :
#
#
# Convention : Reuss Voigt Hill
#
# Bulk Modulus (GPa) = 41.74645 41.79970 41.77307
# Shear Modulus (GPa) = 13.12669 21.22184 17.17426
#
# Velocity S-wave (km/s) = 2.51555 3.19850 2.87736
# Velocity P-wave (km/s) = 5.34434 5.81300 5.58359
#
# Compressibility (1/GPa) = 0.02395413
#
# Stress axis : x y z
#
# Youngs Moduli (GPa) = 35.66785 35.66785 102.38001
#
# Poissons Ratio (x) = 0.66643 0.11563
# Poissons Ratio (y) = 0.66643 0.11563
# Poissons Ratio (z) = 0.04028 0.04028
#
# Static dielectric constant tensor:
#      x y z
#    x 1.767430 0.000000 0.000000 
#    y 0.000000 1.767430 0.000000 
#    z 0.000000 0.000000 1.747890 
# 
# From -- ./inp_files/586.got.cif
#   From: 2010.05.17/outbox.cif.g08.bks.cpg/sg145_cif.got.tgz:586.got - 2010.05.20 13:47:28.
