data_PCOD9574081
_publ_section_title
;
Structure prediction by ZEFSAII (Michael W. Deem and Ramdas Pophale) SiO2 
 PCOD9574081
Probable space group: I 41/A C D
;
_chemical_formula_sum "Si O2"
_cell_formula_units_Z 160
_cell_length_a 15.156623
_cell_length_b 15.156623
_cell_length_c 33.817524
_cell_angle_alpha 90.000000
_cell_angle_beta 90.000000
_cell_angle_gamma 90.000000
_cell_volume 7768.670532
_symmetry_space_group_name_H-M "I 41/A C D"
_symmetry_group_IT_number 142
_space_group.IT_coordinate_system_code '2'
_symmetry_cell_setting 'tetragonal'
loop_
_space_group_symop_operation_xyz
x,y,z
1/4-y,3/4+x,1/4+z
-x,1/2-y,z
1/4+y,1/4-x,3/4+z
x,-y,1/2-z
1/2-x,y,-z
3/4+y,1/4+x,1/4-z
1/4-y,1/4-x,1/4-z
-x,-y,-z
3/4+y,1/4-x,3/4-z
x,1/2+y,-z
3/4-y,3/4+x,1/4-z
-x,y,1/2+z
1/2+x,-y,z
1/4-y,3/4-x,3/4+z
3/4+y,3/4+x,3/4+z
1/2+x,1/2+y,1/2+z
3/4-y,1/4+x,3/4+z
1/2-x,-y,1/2+z
3/4+y,3/4-x,1/4+z
1/2+x,1/2-y,-z
-x,1/2+y,1/2-z
1/4+y,3/4+x,3/4-z
3/4-y,3/4-x,3/4-z
1/2-x,1/2-y,1/2-z
1/4+y,3/4-x,1/4-z
1/2+x,y,1/2-z
1/4-y,1/4+x,3/4-z
1/2-x,1/2+y,z
x,1/2-y,1/2+z
3/4-y,1/4-x,1/4+z
1/4+y,1/4+x,1/4+z
loop_
_atom_site_type_symbol
_atom_site_label
_atom_site_fract_x
_atom_site_fract_y
_atom_site_fract_z
Si Si1 0.583699 0.911150 0.921448
Si Si2 0.588570 0.670994 0.285804
Si Si3 0.854754 0.517462 0.498631
Si Si4 0.037626 0.091011 0.224025
Si Si5 0.215487 0.756522 0.593111
O O1 0.535042 0.961853 0.886367
O O2 0.665912 0.851434 0.907070
O O3 0.514628 0.843342 0.942036
O O4 0.614995 0.974371 0.956217
O O5 0.688692 0.651740 0.273446
O O6 0.530167 0.654972 0.246387
O O7 0.555980 0.597359 0.316592
O O8 0.750000 0.502099 0.500000
O O9 0.873376 0.612031 0.478271
O O10 0.036489 0.000000 0.250000
O O11 0.014513 0.057869 0.180109
#
# Coordination Sequence:
#
# PCOD9574081 Si02
#       5
#    32  32  32  32  32
#     4  12  22  37  63  96 121 152 211 270 315 368
#     4  11  22  36  62  91 122 160 210 251 308 385
#     4  11  21  39  60  88 126 165 209 248 309 386
#     4   9  19  38  57  83 128 165 196 252 313 378
#     4  11  21  38  60  93 123 157 198 269 331 353
#
# _framework density 20.595545000000001
#
# number of rings (size 3 to 8) (size 9 to 14) (size 15 to 20)
#    0.000    1.200    8.000    3.000    0.000    0.000 
#    0.000    7.000    0.000    0.000    0.000    0.000 
#    0.000    0.000    0.000    0.000    0.000    0.000 
#
# Total GULP energy -447030.875279 kJ/mol
# GULP energy per Si atom -5587.885941 kJ/mol
# Density = 2.054867 g / cm^3
# Si number density = 20.595545 Si / 1000 Ang^3
#
#
#
# Elastic Constant Matrix: (Units=GPa)
#
#
# Indices 1 2 3 4 5 6 
#
# 1 63.2900 17.8344 33.6990 0.0000 0.0000 0.0000
# 2 17.8344 63.2900 33.6990 0.0000 0.0000 0.0000
# 3 33.6990 33.6990 119.2022 0.0000 0.0000 0.0000
# 4 0.0000 0.0000 0.0000 34.0964 0.0000 0.0000
# 5 0.0000 0.0000 0.0000 0.0000 34.0964 0.0000
# 6 0.0000 0.0000 0.0000 0.0000 0.0000 9.2645
#
#
#
# Elastic Compliance Matrix: (Units=1/GPa)
#
#
# Indices 1 2 3 4 5 6 
#
# 1 0.019055 -0.002944 -0.004555 0.000000 0.000000 0.000000
# 2 -0.002944 0.019055 -0.004555 0.000000 0.000000 0.000000
# 3 -0.004555 -0.004555 0.010964 0.000000 0.000000 0.000000
# 4 0.000000 0.000000 0.000000 0.029329 0.000000 0.000000
# 5 0.000000 0.000000 0.000000 0.000000 0.029329 0.000000
# 6 0.000000 0.000000 0.000000 0.000000 0.000000 0.107939
#
#
# Mechanical properties :
#
#
# Convention : Reuss Voigt Hill
#
# Bulk Modulus (GPa) = 40.05224 46.24965 43.15094
# Shear Modulus (GPa) = 20.15315 26.19477 23.17396
#
# Velocity S-wave (km/s) = 3.13152 3.57019 3.35803
# Velocity P-wave (km/s) = 5.70653 6.28490 6.00268
#
# Compressibility (1/GPa) = 0.02496740
#
# Stress axis : x y z
#
# Youngs Moduli (GPa) = 52.47951 52.47951 91.20512
#
# Poissons Ratio (x) = 0.15452 0.41540
# Poissons Ratio (y) = 0.15452 0.41540
# Poissons Ratio (z) = 0.23902 0.23902
#
# Static dielectric constant tensor:
#      x y z
#    x 1.755080 0.000000 0.000000 
#    y 0.000000 1.755080 0.000000 
#    z 0.000000 0.000000 1.732710 
# 
# From -- ./inp_files/11335.got.cif
#   From: 2010.05.17/outbox.cif.g08.bks.cpg/sg142_6_cif.got.tgz:11335.got - 2010.05.20 13:39:18.
