data_PCOD9574199
_publ_section_title
;
Structure prediction by ZEFSAII (Michael W. Deem and Ramdas Pophale) SiO2 
 PCOD9574199
Probable space group: I 41/A C D
;
_chemical_formula_sum "Si O2"
_cell_formula_units_Z 136
_cell_length_a 17.564403
_cell_length_b 17.564403
_cell_length_c 18.771310
_cell_angle_alpha 90.000000
_cell_angle_beta 90.000000
_cell_angle_gamma 90.000000
_cell_volume 5791.104050
_symmetry_space_group_name_H-M "I 41/A C D"
_symmetry_group_IT_number 142
_space_group.IT_coordinate_system_code '2'
_symmetry_cell_setting 'tetragonal'
loop_
_space_group_symop_operation_xyz
x,y,z
1/4-y,3/4+x,1/4+z
-x,1/2-y,z
1/4+y,1/4-x,3/4+z
x,-y,1/2-z
1/2-x,y,-z
3/4+y,1/4+x,1/4-z
1/4-y,1/4-x,1/4-z
-x,-y,-z
3/4+y,1/4-x,3/4-z
x,1/2+y,-z
3/4-y,3/4+x,1/4-z
-x,y,1/2+z
1/2+x,-y,z
1/4-y,3/4-x,3/4+z
3/4+y,3/4+x,3/4+z
1/2+x,1/2+y,1/2+z
3/4-y,1/4+x,3/4+z
1/2-x,-y,1/2+z
3/4+y,3/4-x,1/4+z
1/2+x,1/2-y,-z
-x,1/2+y,1/2-z
1/4+y,3/4+x,3/4-z
3/4-y,3/4-x,3/4-z
1/2-x,1/2-y,1/2-z
1/4+y,3/4-x,1/4-z
1/2+x,y,1/2-z
1/4-y,1/4+x,3/4-z
1/2-x,1/2+y,z
x,1/2-y,1/2+z
3/4-y,1/4-x,1/4+z
1/4+y,1/4+x,1/4+z
loop_
_atom_site_type_symbol
_atom_site_label
_atom_site_fract_x
_atom_site_fract_y
_atom_site_fract_z
Si Si1 0.328582 0.707214 0.733543
Si Si2 0.000000 0.750000 0.625000
Si Si3 0.086340 0.849681 0.231723
Si Si4 0.250000 0.239208 0.000000
Si Si5 0.180514 0.930514 0.875000
Si Si6 0.120173 0.576722 0.159551
O O1 0.250000 0.750000 0.750000
O O2 0.387870 0.776656 0.722899
O O3 0.322337 0.646752 0.670469
O O4 0.355734 0.652702 0.798388
O O5 0.067724 0.771534 0.571996
O O6 0.152016 0.867241 0.173755
O O7 0.060893 0.926411 0.271144
O O8 0.213837 0.294176 0.940245
O O9 0.258456 0.929869 0.918573
#
# Coordination Sequence:
#
# PCOD9574199 Si02
#       6
#    32   8  32  16  16  32
#     4  12  25  45  74 110 146 197 259 312 384 462
#     4  12  20  40  76 106 128 192 248 296 370 444
#     4  12  24  43  76 106 146 196 260 317 379 472
#     4  12  24  44  74 110 142 200 262 320 390 468
#     4  12  26  46  75 108 164 201 246 332 396 454
#     4  12  24  47  72 101 150 200 253 315 393 460
#
# _framework density 23.484294999999999
#
# number of rings (size 3 to 8) (size 9 to 14) (size 15 to 20)
#    0.000    0.000    9.412    0.000    0.000    1.882 
#    0.000    2.353    0.000    0.000    0.000    0.000 
#    0.000    0.000    0.000    0.000    0.000    0.000 
#
# Total GULP energy -379771.232409 kJ/mol
# GULP energy per Si atom -5584.871065 kJ/mol
# Density = 2.343084 g / cm^3
# Si number density = 23.484295 Si / 1000 Ang^3
#
#
#
# Elastic Constant Matrix: (Units=GPa)
#
#
# Indices 1 2 3 4 5 6 
#
# 1 168.7682 65.5244 18.1286 0.0000 0.0000 0.0000
# 2 65.5244 168.7681 18.1286 0.0000 0.0000 0.0000
# 3 18.1286 18.1286 28.2181 0.0000 0.0000 0.0000
# 4 0.0000 0.0000 0.0000 29.7596 0.0000 0.0000
# 5 0.0000 0.0000 0.0000 0.0000 29.7596 0.0000
# 6 0.0000 0.0000 0.0000 0.0000 0.0000 48.9493
#
#
#
# Elastic Compliance Matrix: (Units=1/GPa)
#
#
# Indices 1 2 3 4 5 6 
#
# 1 0.007213 -0.002473 -0.003045 0.000000 0.000000 0.000000
# 2 -0.002473 0.007213 -0.003045 0.000000 0.000000 0.000000
# 3 -0.003045 -0.003045 0.039351 0.000000 0.000000 0.000000
# 4 0.000000 0.000000 0.000000 0.033603 0.000000 0.000000
# 5 0.000000 0.000000 0.000000 0.000000 0.033603 0.000000
# 6 0.000000 0.000000 0.000000 0.000000 0.000000 0.020429
#
#
# Mechanical properties :
#
#
# Convention : Reuss Voigt Hill
#
# Bulk Modulus (GPa) = 27.28505 63.25750 45.27127
# Shear Modulus (GPa) = 29.28217 39.29189 34.28703
#
# Velocity S-wave (km/s) = 3.53495 4.09481 3.82514
# Velocity P-wave (km/s) = 5.32023 7.02504 6.23121
#
# Compressibility (1/GPa) = 0.03665011
#
# Stress axis : x y z
#
# Youngs Moduli (GPa) = 138.64655 138.64655 25.41263
#
# Poissons Ratio (x) = 0.34291 0.07738
# Poissons Ratio (y) = 0.34291 0.07738
# Poissons Ratio (z) = 0.42215 0.42215
#
# Static dielectric constant tensor:
#      x y z
#    x 1.955890 0.000000 0.000000 
#    y 0.000000 1.955890 0.000000 
#    z 0.000000 0.000000 1.921500 
# 
# From -- ./inp_files/8840.got.cif
#   From: 2010.05.17/outbox.cif.g08.bks.cpg/sg142_5_cif.got.tgz:8840.got - 2010.05.20 13:39:18.
