data_PCOD9574228
_publ_section_title
;
Structure prediction by ZEFSAII (Michael W. Deem and Ramdas Pophale) SiO2 
 PCOD9574228
Probable space group: I 41/A C D
;
_chemical_formula_sum "Si O2"
_cell_formula_units_Z 64
_cell_length_a 22.259313
_cell_length_b 22.259313
_cell_length_c 4.816397
_cell_angle_alpha 90.000000
_cell_angle_beta 90.000000
_cell_angle_gamma 90.000000
_cell_volume 2386.414010
_symmetry_space_group_name_H-M "I 41/A C D"
_symmetry_group_IT_number 142
_space_group.IT_coordinate_system_code '2'
_symmetry_cell_setting 'tetragonal'
loop_
_space_group_symop_operation_xyz
x,y,z
1/4-y,3/4+x,1/4+z
-x,1/2-y,z
1/4+y,1/4-x,3/4+z
x,-y,1/2-z
1/2-x,y,-z
3/4+y,1/4+x,1/4-z
1/4-y,1/4-x,1/4-z
-x,-y,-z
3/4+y,1/4-x,3/4-z
x,1/2+y,-z
3/4-y,3/4+x,1/4-z
-x,y,1/2+z
1/2+x,-y,z
1/4-y,3/4-x,3/4+z
3/4+y,3/4+x,3/4+z
1/2+x,1/2+y,1/2+z
3/4-y,1/4+x,3/4+z
1/2-x,-y,1/2+z
3/4+y,3/4-x,1/4+z
1/2+x,1/2-y,-z
-x,1/2+y,1/2-z
1/4+y,3/4+x,3/4-z
3/4-y,3/4-x,3/4-z
1/2-x,1/2-y,1/2-z
1/4+y,3/4-x,1/4-z
1/2+x,y,1/2-z
1/4-y,1/4+x,3/4-z
1/2-x,1/2+y,z
x,1/2-y,1/2+z
3/4-y,1/4-x,1/4+z
1/4+y,1/4+x,1/4+z
loop_
_atom_site_type_symbol
_atom_site_label
_atom_site_fract_x
_atom_site_fract_y
_atom_site_fract_z
Si Si1 0.843313 0.000000 0.750000
Si Si2 0.750000 0.672885 0.000000
Si Si3 0.461189 0.125842 0.034261
O O1 0.801122 0.051122 0.625000
O O2 0.881981 0.973275 0.496634
O O3 0.804028 0.704746 0.165859
O O4 0.516774 0.143642 0.838277
O O5 0.404428 0.154428 0.875000
#
# Coordination Sequence:
#
# PCOD9574228 Si02
#       3
#    16  16  32
#     4  12  25  41  68 108 154 204 259 321 394 478
#     4  12  25  47  74 108 150 202 259 323 400 474
#     4  12  27  48  76 110 150 199 256 321 389 466
#
# _framework density 26.818480000000001
#
# number of rings (size 3 to 8) (size 9 to 14) (size 15 to 20)
#    0.000    0.000    0.000   10.500    0.000    7.000 
#    0.000    0.000    0.000    0.000    0.000    0.000 
#    0.000    0.000    0.000    0.000    0.000    0.000 
#
# Total GULP energy -179052.490849 kJ/mol
# GULP energy per Si atom -5595.390339 kJ/mol
# Density = 2.675744 g / cm^3
# Si number density = 26.818480 Si / 1000 Ang^3
#
#
#
# Elastic Constant Matrix: (Units=GPa)
#
#
# Indices 1 2 3 4 5 6 
#
# 1 124.9807 92.3789 67.1546 0.0000 0.0000 0.0000
# 2 92.3789 124.9807 67.1546 0.0000 0.0000 0.0000
# 3 67.1546 67.1546 217.6188 0.0000 0.0000 0.0000
# 4 0.0000 0.0000 0.0000 53.4768 0.0000 0.0000
# 5 0.0000 0.0000 0.0000 0.0000 53.4768 0.0000
# 6 0.0000 0.0000 0.0000 0.0000 0.0000 49.3426
#
#
#
# Elastic Compliance Matrix: (Units=1/GPa)
#
#
# Indices 1 2 3 4 5 6 
#
# 1 0.018179 -0.012494 -0.001754 0.000000 0.000000 0.000000
# 2 -0.012494 0.018179 -0.001754 0.000000 0.000000 0.000000
# 3 -0.001754 -0.001754 0.005678 0.000000 0.000000 0.000000
# 4 0.000000 0.000000 0.000000 0.018700 0.000000 0.000000
# 5 0.000000 0.000000 0.000000 0.000000 0.018700 0.000000
# 6 0.000000 0.000000 0.000000 0.000000 0.000000 0.020266
#
#
# Mechanical properties :
#
#
# Convention : Reuss Voigt Hill
#
# Bulk Modulus (GPa) = 99.69834 102.32847 101.01341
# Shear Modulus (GPa) = 37.02322 47.31870 42.17096
#
# Velocity S-wave (km/s) = 3.71955 4.20504 3.96973
# Velocity P-wave (km/s) = 7.46343 7.86227 7.66544
#
# Compressibility (1/GPa) = 0.01003026
#
# Stress axis : x y z
#
# Youngs Moduli (GPa) = 55.00881 55.00881 176.12319
#
# Poissons Ratio (x) = 0.68730 0.30896
# Poissons Ratio (y) = 0.68730 0.30896
# Poissons Ratio (z) = 0.09650 0.09650
#
# Static dielectric constant tensor:
#      x y z
#    x 2.141060 0.000000 0.000000 
#    y 0.000000 2.141060 0.000000 
#    z 0.000000 0.000000 1.990490 
# 
# From -- ./inp_files/508.got.cif
#   From: 2010.05.17/outbox.cif.g08.bks.cpg/sg142_1_cif.got.tgz:508.got - 2010.05.20 13:39:18.
