data_PCOD9574282
_publ_section_title
;
Structure prediction by ZEFSAII (Michael W. Deem and Ramdas Pophale) SiO2 
 PCOD9574282
Probable space group: P 31
;
_chemical_formula_sum "Si O2"
_cell_formula_units_Z 24
_cell_length_a 7.305746
_cell_length_b 7.305746
_cell_length_c 21.666488
_cell_angle_alpha 90.000000
_cell_angle_beta 90.000000
_cell_angle_gamma 120.000000
_cell_volume 1001.493858
_symmetry_space_group_name_H-M "P 31"
_symmetry_group_IT_number 144
_symmetry_cell_setting 'hexagonal'
loop_
_space_group_symop_operation_xyz
x,y,z
-y,x-y,1/3+z
-x+y,-x,2/3+z
loop_
_atom_site_type_symbol
_atom_site_label
_atom_site_fract_x
_atom_site_fract_y
_atom_site_fract_z
Si Si1 0.493549 0.121780 0.714510
Si Si2 0.255725 0.321735 0.088066
Si Si3 0.669533 0.626569 0.252828
Si Si4 0.255724 0.933988 0.460175
Si Si5 0.927824 0.736823 0.878675
Si Si6 0.263176 0.072177 0.336233
Si Si7 0.628234 0.121784 0.167065
Si Si8 0.373433 0.330465 0.962081
O O1 0.697461 0.103559 0.699197
O O2 0.532464 0.266230 0.774121
O O3 0.299643 0.895062 0.730719
O O4 0.438997 0.188318 0.647696
O O5 0.481529 0.518472 0.107454
O O6 0.145139 0.200571 0.151446
O O7 0.304920 0.215641 0.029037
O O8 0.784357 0.695081 0.185871
O O9 0.440254 0.423555 0.236609
O O10 0.642882 0.821443 0.274121
O O11 0.104936 0.700355 0.484189
O O12 0.145139 0.944567 0.396795
O O13 0.697462 0.593898 0.849045
O O14 0.928524 0.857049 0.940787
O O15 0.440257 0.016704 0.311633
O O16 0.749324 0.188321 0.233879
#
# Coordination Sequence:
#
# PCOD9574282 Si02
#       8
#     3   3   3   3   3   3   3   3
#     4  10  18  29  49  75  99 126 165 209 253 300
#     4   9  17  32  51  70  96 132 169 206 250 306
#     4   8  15  28  49  71  95 128 169 206 243 295
#     4   9  17  32  51  70  96 132 169 206 250 306
#     4   9  17  31  52  72  96 132 171 205 246 305
#     4   9  17  31  52  72  96 132 171 205 246 305
#     4  10  18  29  49  75  99 126 165 209 253 300
#     4   8  15  28  49  71  95 128 169 206 243 295
#
# _framework density 23.964203999999999
#
# number of rings (size 3 to 8) (size 9 to 14) (size 15 to 20)
#    0.000    3.000    0.000    2.250    0.000    0.000 
#    0.000    5.000    0.000   72.000    0.000    0.000 
#    0.000    0.000    0.000    0.000    0.000    0.000 
#
# Total GULP energy -133697.790878 kJ/mol
# GULP energy per Si atom -5570.741287 kJ/mol
# Density = 2.390966 g / cm^3
# Si number density = 23.964204 Si / 1000 Ang^3
#
#
#
# Elastic Constant Matrix: (Units=GPa)
#
#
# Indices 1 2 3 4 5 6 
#
# 1 38.5670 14.0011 41.8597 0.0001 3.3580 0.0000
# 2 14.0011 38.5670 41.8597 -0.0001 -3.3580 0.0000
# 3 41.8597 41.8597 255.6423 0.0000 0.0000 0.0000
# 4 0.0001 -0.0001 0.0000 40.7494 0.0000 -3.3580
# 5 3.3580 -3.3580 0.0000 0.0000 40.7494 0.0001
# 6 0.0000 0.0000 0.0000 -3.3580 0.0001 12.2830
#
#
#
# Elastic Compliance Matrix: (Units=1/GPa)
#
#
# Indices 1 2 3 4 5 6 
#
# 1 0.033689 -0.007956 -0.004214 0.000000 -0.003432 0.000000
# 2 -0.007956 0.033689 -0.004214 0.000000 0.003432 0.000000
# 3 -0.004214 -0.004214 0.005292 0.000000 0.000000 0.000000
# 4 0.000000 0.000000 0.000000 0.025106 0.000000 0.006864
# 5 -0.003432 0.003432 0.000000 0.000000 0.025106 0.000000
# 6 0.000000 0.000000 0.000000 0.006864 0.000000 0.083290
#
#
# Mechanical properties :
#
#
# Convention : Reuss Voigt Hill
#
# Bulk Modulus (GPa) = 25.06007 58.69079 41.87543
# Shear Modulus (GPa) = 19.82244 34.42677 27.12460
#
# Velocity S-wave (km/s) = 2.87917 3.79435 3.36799
# Velocity P-wave (km/s) = 4.64035 6.61365 5.71284
#
# Compressibility (1/GPa) = 0.03990413
#
# Stress axis : x y z
#
# Youngs Moduli (GPa) = 29.68301 29.68301 188.97712
#
# Poissons Ratio (x) = 0.23615 0.79629
# Poissons Ratio (y) = 0.23615 0.79629
# Poissons Ratio (z) = 0.12508 0.12508
#
# Static dielectric constant tensor:
#      x y z
#    x 1.940330 0.000000 0.000000 
#    y 0.000000 1.940330 0.000000 
#    z 0.000000 0.000000 2.130580 
# 
# From -- ./inp_files/972.got.cif
#   From: 2010.05.17/outbox.cif.g08.bks.cpg/sg144_cif.got.tgz:972.got - 2010.05.20 13:46:34.
