data_PCOD9574128
_publ_section_title
;
Structure prediction by ZEFSAII (Michael W. Deem and Ramdas Pophale) SiO2 
 PCOD9574128
Probable space group: I 41/A C D
;
_chemical_formula_sum "Si O2"
_cell_formula_units_Z 64
_cell_length_a 9.339362
_cell_length_b 9.339362
_cell_length_c 29.224676
_cell_angle_alpha 90.000000
_cell_angle_beta 90.000000
_cell_angle_gamma 90.000000
_cell_volume 2549.083863
_symmetry_space_group_name_H-M "I 41/A C D"
_symmetry_group_IT_number 142
_space_group.IT_coordinate_system_code '2'
_symmetry_cell_setting 'tetragonal'
loop_
_space_group_symop_operation_xyz
x,y,z
1/4-y,3/4+x,1/4+z
-x,1/2-y,z
1/4+y,1/4-x,3/4+z
x,-y,1/2-z
1/2-x,y,-z
3/4+y,1/4+x,1/4-z
1/4-y,1/4-x,1/4-z
-x,-y,-z
3/4+y,1/4-x,3/4-z
x,1/2+y,-z
3/4-y,3/4+x,1/4-z
-x,y,1/2+z
1/2+x,-y,z
1/4-y,3/4-x,3/4+z
3/4+y,3/4+x,3/4+z
1/2+x,1/2+y,1/2+z
3/4-y,1/4+x,3/4+z
1/2-x,-y,1/2+z
3/4+y,3/4-x,1/4+z
1/2+x,1/2-y,-z
-x,1/2+y,1/2-z
1/4+y,3/4+x,3/4-z
3/4-y,3/4-x,3/4-z
1/2-x,1/2-y,1/2-z
1/4+y,3/4-x,1/4-z
1/2+x,y,1/2-z
1/4-y,1/4+x,3/4-z
1/2-x,1/2+y,z
x,1/2-y,1/2+z
3/4-y,1/4-x,1/4+z
1/4+y,1/4+x,1/4+z
loop_
_atom_site_type_symbol
_atom_site_label
_atom_site_fract_x
_atom_site_fract_y
_atom_site_fract_z
Si Si1 0.686456 0.125081 0.286755
Si Si2 0.107084 0.076040 0.676632
O O1 0.561825 0.091502 0.323348
O O2 0.669827 0.299420 0.288038
O O3 0.646300 0.000000 0.250000
O O4 0.839225 0.075658 0.305079
O O5 0.157118 0.092883 0.625000
#
# Coordination Sequence:
#
# PCOD9574128 Si02
#       2
#    32  32
#     4  11  23  40  62  90 123 161 205 255 308 367
#     4  11  23  42  63  90 124 163 206 257 309 367
#
# _framework density 25.107057999999999
#
# number of rings (size 3 to 8) (size 9 to 14) (size 15 to 20)
#    0.000    1.000    0.000    9.000    0.000    6.000 
#    0.000    5.000    0.000    0.000    0.000    0.000 
#    0.000    0.000    0.000    0.000    0.000    0.000 
#
# Total GULP energy -178228.454945 kJ/mol
# GULP energy per Si atom -5569.639217 kJ/mol
# Density = 2.504991 g / cm^3
# Si number density = 25.107058 Si / 1000 Ang^3
#
#
#
# Elastic Constant Matrix: (Units=GPa)
#
#
# Indices 1 2 3 4 5 6 
#
# 1 15.9736 100.7682 -4.1961 0.0000 0.0000 0.0000
# 2 100.7682 15.9733 -4.1966 0.0000 0.0000 0.0000
# 3 -4.1961 -4.1966 97.1194 0.0000 0.0000 0.0000
# 4 0.0000 0.0000 0.0000 16.7125 0.0000 0.0000
# 5 0.0000 0.0000 0.0000 0.0000 16.7125 0.0000
# 6 0.0000 0.0000 0.0000 0.0000 0.0000 -18.5863
#
#
#
# Elastic Compliance Matrix: (Units=1/GPa)
#
#
# Indices 1 2 3 4 5 6 
#
# 1 -0.001600 0.010193 0.000371 0.000000 0.000000 0.000000
# 2 0.010193 -0.001600 0.000371 0.000000 0.000000 0.000000
# 3 0.000371 0.000371 0.010329 0.000000 0.000000 0.000000
# 4 0.000000 0.000000 0.000000 0.059835 0.000000 0.000000
# 5 0.000000 0.000000 0.000000 0.000000 0.059836 0.000000
# 6 0.000000 0.000000 0.000000 0.000000 0.000000 -0.053803
#
#
# Mechanical properties :
#
#
# Convention : Reuss Voigt Hill
#
# Bulk Modulus (GPa) = 34.48395 34.86859 34.67627
# Shear Modulus (GPa) = 82.24847 5.41379 43.83113
#
# Velocity S-wave (km/s) = 5.72977 1.47002 4.18277
# Velocity P-wave (km/s) = 7.58539 4.09871 6.09662
#
# Compressibility (1/GPa) = 0.02899900
#
# Stress axis : x y z
#
# Youngs Moduli (GPa) = -624.89697 -624.88199 96.81768
#
# Poissons Ratio (x) = 6.36936 -0.03595
# Poissons Ratio (y) = 6.36951 -0.03594
# Poissons Ratio (z) = 0.23203 0.23198
#
# Static dielectric constant tensor:
#      x y z
#    x 1.966240 0.000000 0.000000 
#    y 0.000000 1.966240 0.000000 
#    z 0.000000 0.000000 2.222100 
# 
# From -- ./inp_files/10668.got.cif
#   From: 2010.05.17/outbox.cif.g08.bks.cpg/sg142_6_cif.got.tgz:10668.got - 2010.05.20 13:39:18.
