data_PCOD9574328
_publ_section_title
;
Structure prediction by ZEFSAII (Michael W. Deem and Ramdas Pophale) SiO2 
 PCOD9574328
Probable space group: P 31
;
_chemical_formula_sum "Si O2"
_cell_formula_units_Z 24
_cell_length_a 8.034699
_cell_length_b 8.034699
_cell_length_c 18.851055
_cell_angle_alpha 90.000000
_cell_angle_beta 90.000000
_cell_angle_gamma 120.000000
_cell_volume 1053.914830
_symmetry_space_group_name_H-M "P 31"
_symmetry_group_IT_number 144
_symmetry_cell_setting 'hexagonal'
loop_
_space_group_symop_operation_xyz
x,y,z
-y,x-y,1/3+z
-x+y,-x,2/3+z
loop_
_atom_site_type_symbol
_atom_site_label
_atom_site_fract_x
_atom_site_fract_y
_atom_site_fract_z
Si Si1 0.551250 0.526311 0.117160
Si Si2 0.170945 0.122312 0.101759
Si Si3 0.547580 0.535516 0.356858
Si Si4 0.903018 0.782379 0.013742
Si Si5 0.015296 0.324591 0.183192
Si Si6 0.514627 0.305196 0.575311
Si Si7 0.696210 0.810025 0.882779
Si Si8 0.325720 0.735633 0.566635
O O1 0.357294 0.333531 0.091846
O O2 0.711219 0.654152 0.060292
O O3 0.642194 0.457558 0.179544
O O4 0.508299 0.674495 0.159576
O O5 0.030384 0.142947 0.158852
O O6 0.223003 0.973615 0.138075
O O7 0.036191 0.003043 0.036999
O O8 0.339456 0.348042 0.354695
O O9 0.593973 0.599078 0.438115
O O10 0.698478 0.487213 0.317593
O O11 0.529987 0.678918 0.301644
O O12 0.834834 0.783365 0.935379
O O13 0.849725 0.323085 0.230656
O O14 0.210600 0.471022 0.224004
O O15 0.307643 0.290606 0.560360
O O16 0.483019 0.650840 0.902698
#
# Coordination Sequence:
#
# PCOD9574328 Si02
#       8
#     3   3   3   3   3   3   3   3
#     4  10  21  44  64  94 134 177 225 291 349 417
#     4  11  24  44  66  96 135 180 228 298 354 422
#     4  11  22  42  68  96 139 185 226 297 358 422
#     4  12  23  43  65 101 139 177 232 292 348 434
#     4  10  20  41  67  94 134 181 228 294 353 417
#     4  10  20  43  65  96 134 174 232 288 347 426
#     4  11  22  42  64 100 134 178 232 286 351 422
#     4   9  22  39  67  93 135 176 227 284 350 428
#
# _framework density 22.772237000000001
#
# number of rings (size 3 to 8) (size 9 to 14) (size 15 to 20)
#    0.000    1.500    2.500    3.750    3.500    0.000 
#   11.250    0.000    0.000    0.000    0.000    0.000 
#    0.000    0.000    0.000    0.000    0.000    0.000 
#
# Total GULP energy -134011.945140 kJ/mol
# GULP energy per Si atom -5583.831048 kJ/mol
# Density = 2.272041 g / cm^3
# Si number density = 22.772237 Si / 1000 Ang^3
#
#
#
# Elastic Constant Matrix: (Units=GPa)
#
#
# Indices 1 2 3 4 5 6 
#
# 1 69.7440 2.2536 26.5112 -4.4916 -2.4089 0.0000
# 2 2.2536 69.7440 26.5112 4.4916 2.4089 0.0000
# 3 26.5112 26.5112 86.1476 0.0000 0.0000 0.0000
# 4 -4.4916 4.4916 0.0000 31.7120 0.0000 2.4089
# 5 -2.4089 2.4089 0.0000 0.0000 31.7120 -4.4916
# 6 0.0000 0.0000 0.0000 2.4089 -4.4916 33.7452
#
#
#
# Elastic Compliance Matrix: (Units=1/GPa)
#
#
# Indices 1 2 3 4 5 6 
#
# 1 0.016573 0.001387 -0.005527 0.002151 0.001154 0.000000
# 2 0.001387 0.016573 -0.005527 -0.002151 -0.001154 0.000000
# 3 -0.005527 -0.005527 0.015010 0.000000 0.000000 0.000000
# 4 0.002151 -0.002151 0.000000 0.032318 0.000000 -0.002307
# 5 0.001154 -0.001154 0.000000 0.000000 0.032318 0.004302
# 6 0.000000 0.000000 0.000000 -0.002307 0.004302 0.030371
#
#
# Mechanical properties :
#
#
# Convention : Reuss Voigt Hill
#
# Bulk Modulus (GPa) = 34.69657 37.35418 36.02538
# Shear Modulus (GPa) = 29.05230 30.79114 29.92172
#
# Velocity S-wave (km/s) = 3.57568 3.68113 3.62879
# Velocity P-wave (km/s) = 5.68478 5.87423 5.78028
#
# Compressibility (1/GPa) = 0.02882129
#
# Stress axis : x y z
#
# Youngs Moduli (GPa) = 60.34054 60.34054 66.62351
#
# Poissons Ratio (x) = -0.08370 0.36822
# Poissons Ratio (y) = -0.08370 0.36822
# Poissons Ratio (z) = 0.33350 0.33350
#
# Static dielectric constant tensor:
#      x y z
#    x 1.884100 0.000000 0.000000 
#    y 0.000000 1.884100 0.000000 
#    z 0.000000 0.000000 1.800720 
# 
# From -- ./inp_files/865.got.cif
#   From: 2010.05.17/outbox.cif.g08.bks.cpg/sg144_cif.got.tgz:865.got - 2010.05.20 13:46:34.
