data_PCOD9574608
_publ_section_title
;
Structure prediction by ZEFSAII (Michael W. Deem and Ramdas Pophale) SiO2 
 PCOD9574608
Probable space group: P 32
;
_chemical_formula_sum "Si O2"
_cell_formula_units_Z 18
_cell_length_a 11.595717
_cell_length_b 11.595717
_cell_length_c 6.923102
_cell_angle_alpha 90.000000
_cell_angle_beta 90.000000
_cell_angle_gamma 120.000000
_cell_volume 806.169897
_symmetry_space_group_name_H-M "P 32"
_symmetry_group_IT_number 145
_symmetry_cell_setting 'hexagonal'
loop_
_space_group_symop_operation_xyz
x,y,z
-y,x-y,2/3+z
-x+y,-x,1/3+z
loop_
_atom_site_type_symbol
_atom_site_label
_atom_site_fract_x
_atom_site_fract_y
_atom_site_fract_z
Si Si1 0.874025 0.676272 0.914440
Si Si2 0.873645 0.922921 0.772973
Si Si3 0.776084 0.403705 0.704648
Si Si4 0.495602 0.551028 0.256755
Si Si5 0.261244 0.420615 0.539834
Si Si6 0.323790 0.349350 0.930356
O O1 0.828556 0.782837 0.879776
O O2 0.794307 0.538909 0.800882
O O3 0.957763 0.929515 0.581806
O O4 0.895633 0.644359 0.134772
O O5 0.747766 0.934459 0.705326
O O6 0.720937 0.973142 0.165559
O O7 0.719924 0.392416 0.493573
O O8 0.919741 0.416226 0.705968
O O9 0.374651 0.525373 0.399134
O O10 0.573152 0.701670 0.189530
O O11 0.431154 0.448083 0.080484
O O12 0.304118 0.436909 0.765014
#
# Coordination Sequence:
#
# PCOD9574608 Si02
#       6
#     3   3   3   3   3   3
#     4   9  23  47  64 101 139 172 244 276 348 412
#     4  12  21  41  70 104 139 180 225 293 353 411
#     4  11  27  48  67  99 139 192 236 284 334 415
#     4  11  24  46  73 102 146 179 236 285 354 411
#     4   9  23  43  67 109 133 184 226 285 347 418
#     4  10  24  43  69 105 142 179 225 295 346 413
#
# _framework density 22.327798000000001
#
# number of rings (size 3 to 8) (size 9 to 14) (size 15 to 20)
#    1.000    0.667    1.667    2.000    7.000    0.000 
#    9.000    0.000    0.000    0.000    0.000    0.000 
#    0.000    0.000    0.000    0.000    0.000    0.000 
#
# Total GULP energy -100586.121349 kJ/mol
# GULP energy per Si atom -5588.117853 kJ/mol
# Density = 2.227698 g / cm^3
# Si number density = 22.327798 Si / 1000 Ang^3
#
#
#
# Elastic Constant Matrix: (Units=GPa)
#
#
# Indices 1 2 3 4 5 6 
#
# 1 45.0796 28.9131 16.1810 -2.8444 3.3409 0.0000
# 2 28.9131 45.0796 16.1810 2.8444 -3.3409 0.0000
# 3 16.1810 16.1810 102.2644 0.0000 0.0000 0.0000
# 4 -2.8444 2.8444 0.0000 21.0677 0.0000 -3.3409
# 5 3.3409 -3.3409 0.0000 0.0000 21.0677 -2.8444
# 6 0.0000 0.0000 0.0000 -3.3409 -2.8444 8.0832
#
#
#
# Elastic Compliance Matrix: (Units=1/GPa)
#
#
# Indices 1 2 3 4 5 6 
#
# 1 0.042130 -0.027610 -0.002297 0.009416 -0.011059 0.000000
# 2 -0.027610 0.042130 -0.002297 -0.009416 0.011059 0.000000
# 3 -0.002297 -0.002297 0.010506 0.000000 0.000000 0.000000
# 4 0.009416 -0.009416 0.000000 0.053516 0.000000 0.022119
# 5 -0.011059 0.011059 0.000000 0.000000 0.053516 0.018831
# 6 0.000000 0.000000 0.000000 0.022119 0.018831 0.139481
#
#
# Mechanical properties :
#
#
# Convention : Reuss Voigt Hill
#
# Bulk Modulus (GPa) = 32.94314 34.99706 33.97010
# Shear Modulus (GPa) = 12.02478 18.78698 15.40588
#
# Velocity S-wave (km/s) = 2.32320 2.90387 2.62961
# Velocity P-wave (km/s) = 4.68857 5.19148 4.94642
#
# Compressibility (1/GPa) = 0.03035533
#
# Stress axis : x y z
#
# Youngs Moduli (GPa) = 23.73599 23.73599 95.18739
#
# Poissons Ratio (x) = 0.65536 0.21868
# Poissons Ratio (y) = 0.65536 0.21868
# Poissons Ratio (z) = 0.05453 0.05453
#
# Static dielectric constant tensor:
#      x y z
#    x 1.818580 0.000000 0.000000 
#    y 0.000000 1.818580 0.000000 
#    z 0.000000 0.000000 1.841490 
# 
# From -- ./inp_files/126.got.cif
#   From: 2010.05.17/outbox.cif.g08.bks.cpg/sg145_cif.got.tgz:126.got - 2010.05.20 13:47:28.
