data_PCOD9574083
_publ_section_title
;
Structure prediction by ZEFSAII (Michael W. Deem and Ramdas Pophale) SiO2 
 PCOD9574083
Probable space group: I 41/A C D
;
_chemical_formula_sum "Si O2"
_cell_formula_units_Z 128
_cell_length_a 25.123304
_cell_length_b 25.123304
_cell_length_c 10.644300
_cell_angle_alpha 90.000000
_cell_angle_beta 90.000000
_cell_angle_gamma 90.000000
_cell_volume 6718.473573
_symmetry_space_group_name_H-M "I 41/A C D"
_symmetry_group_IT_number 142
_space_group.IT_coordinate_system_code '2'
_symmetry_cell_setting 'tetragonal'
loop_
_space_group_symop_operation_xyz
x,y,z
1/4-y,3/4+x,1/4+z
-x,1/2-y,z
1/4+y,1/4-x,3/4+z
x,-y,1/2-z
1/2-x,y,-z
3/4+y,1/4+x,1/4-z
1/4-y,1/4-x,1/4-z
-x,-y,-z
3/4+y,1/4-x,3/4-z
x,1/2+y,-z
3/4-y,3/4+x,1/4-z
-x,y,1/2+z
1/2+x,-y,z
1/4-y,3/4-x,3/4+z
3/4+y,3/4+x,3/4+z
1/2+x,1/2+y,1/2+z
3/4-y,1/4+x,3/4+z
1/2-x,-y,1/2+z
3/4+y,3/4-x,1/4+z
1/2+x,1/2-y,-z
-x,1/2+y,1/2-z
1/4+y,3/4+x,3/4-z
3/4-y,3/4-x,3/4-z
1/2-x,1/2-y,1/2-z
1/4+y,3/4-x,1/4-z
1/2+x,y,1/2-z
1/4-y,1/4+x,3/4-z
1/2-x,1/2+y,z
x,1/2-y,1/2+z
3/4-y,1/4-x,1/4+z
1/4+y,1/4+x,1/4+z
loop_
_atom_site_type_symbol
_atom_site_label
_atom_site_fract_x
_atom_site_fract_y
_atom_site_fract_z
Si Si1 0.032704 0.953789 0.860159
Si Si2 0.834148 0.000000 0.750000
Si Si3 0.301420 0.407533 0.088507
Si Si4 0.214162 0.329379 0.700187
Si Si5 0.869955 0.119955 0.125000
O O1 0.071194 0.902449 0.842324
O O2 0.971700 0.937641 0.885266
O O3 0.032984 0.000000 0.750000
O O4 0.054879 0.982681 0.985894
O O5 0.797882 0.958246 0.677072
O O6 0.874445 0.973358 0.849190
O O7 0.312358 0.358121 0.180663
O O8 0.250000 0.399832 0.000000
O O9 0.350019 0.413957 0.993962
#
# Coordination Sequence:
#
# PCOD9574083 Si02
#       5
#    32  16  32  32  16
#     4  11  21  39  65  85 121 164 211 267 313 377
#     4  12  24  40  58  88 132 170 216 244 314 390
#     4  12  23  43  55  87 129 175 209 253 309 381
#     4  11  22  39  59  87 123 167 213 259 306 372
#     4  12  20  40  62  86 117 164 212 260 330 363
#
# _framework density 19.051946000000001
#
# number of rings (size 3 to 8) (size 9 to 14) (size 15 to 20)
#    0.000    0.500    8.750    0.750    0.000    0.000 
#   22.500    0.000    0.000    0.000    0.000    3.500 
#    0.000    0.000    1.500    0.000    0.000    0.000 
#
# Total GULP energy -356731.949571 kJ/mol
# GULP energy per Si atom -5573.936712 kJ/mol
# Density = 1.900858 g / cm^3
# Si number density = 19.051946 Si / 1000 Ang^3
#
#
#
# Elastic Constant Matrix: (Units=GPa)
#
#
# Indices 1 2 3 4 5 6 
#
# 1 85.1883 49.4420 40.1940 0.0000 0.0000 0.0000
# 2 49.4420 85.1883 40.1940 0.0000 0.0000 0.0000
# 3 40.1940 40.1940 114.4103 0.0000 0.0000 0.0000
# 4 0.0000 0.0000 0.0000 31.3024 0.0000 0.0000
# 5 0.0000 0.0000 0.0000 0.0000 31.3024 0.0000
# 6 0.0000 0.0000 0.0000 0.0000 0.0000 14.6689
#
#
#
# Elastic Compliance Matrix: (Units=1/GPa)
#
#
# Indices 1 2 3 4 5 6 
#
# 1 0.018687 -0.009288 -0.003302 0.000000 0.000000 0.000000
# 2 -0.009288 0.018687 -0.003302 0.000000 0.000000 0.000000
# 3 -0.003302 -0.003302 0.011061 0.000000 0.000000 0.000000
# 4 0.000000 0.000000 0.000000 0.031946 0.000000 0.000000
# 5 0.000000 0.000000 0.000000 0.000000 0.031946 0.000000
# 6 0.000000 0.000000 0.000000 0.000000 0.000000 0.068171
#
#
# Mechanical properties :
#
#
# Convention : Reuss Voigt Hill
#
# Bulk Modulus (GPa) = 60.05667 60.49410 60.27538
# Shear Modulus (GPa) = 22.95330 25.78522 24.36926
#
# Velocity S-wave (km/s) = 3.47475 3.68287 3.58032
# Velocity P-wave (km/s) = 6.90576 7.06441 6.98554
#
# Compressibility (1/GPa) = 0.01665094
#
# Stress axis : x y z
#
# Youngs Moduli (GPa) = 53.51256 53.51256 90.41040
#
# Poissons Ratio (x) = 0.49701 0.29855
# Poissons Ratio (y) = 0.49701 0.29855
# Poissons Ratio (z) = 0.17671 0.17671
#
# Static dielectric constant tensor:
#      x y z
#    x 1.707160 0.000000 0.000000 
#    y 0.000000 1.707160 0.000000 
#    z 0.000000 0.000000 1.730830 
# 
# From -- ./inp_files/3538.got.cif
#   From: 2010.05.17/outbox.cif.g08.bks.cpg/sg142_2_cif.got.tgz:3538.got - 2010.05.20 13:39:18.
