data_PCOD9574244
_publ_section_title
;
Structure prediction by ZEFSAII (Michael W. Deem and Ramdas Pophale) SiO2 
 PCOD9574244
Probable space group: I 41/A C D
;
_chemical_formula_sum "Si O2"
_cell_formula_units_Z 80
_cell_length_a 18.000000
_cell_length_b 18.000000
_cell_length_c 27.000000
_cell_angle_alpha 90.000000
_cell_angle_beta 90.000000
_cell_angle_gamma 90.000000
_cell_volume 8748.000000
_symmetry_space_group_name_H-M "I 41/A C D"
_symmetry_group_IT_number 142
_space_group.IT_coordinate_system_code '2'
_symmetry_cell_setting 'tetragonal'
loop_
_space_group_symop_operation_xyz
x,y,z
1/4-y,3/4+x,1/4+z
-x,1/2-y,z
1/4+y,1/4-x,3/4+z
x,-y,1/2-z
1/2-x,y,-z
3/4+y,1/4+x,1/4-z
1/4-y,1/4-x,1/4-z
-x,-y,-z
3/4+y,1/4-x,3/4-z
x,1/2+y,-z
3/4-y,3/4+x,1/4-z
-x,y,1/2+z
1/2+x,-y,z
1/4-y,3/4-x,3/4+z
3/4+y,3/4+x,3/4+z
1/2+x,1/2+y,1/2+z
3/4-y,1/4+x,3/4+z
1/2-x,-y,1/2+z
3/4+y,3/4-x,1/4+z
1/2+x,1/2-y,-z
-x,1/2+y,1/2-z
1/4+y,3/4+x,3/4-z
3/4-y,3/4-x,3/4-z
1/2-x,1/2-y,1/2-z
1/4+y,3/4-x,1/4-z
1/2+x,y,1/2-z
1/4-y,1/4+x,3/4-z
1/2-x,1/2+y,z
x,1/2-y,1/2+z
3/4-y,1/4-x,1/4+z
1/4+y,1/4+x,1/4+z
loop_
_atom_site_type_symbol
_atom_site_label
_atom_site_fract_x
_atom_site_fract_y
_atom_site_fract_z
Si Si1 0.164724 0.579410 0.506416
Si Si2 0.514017 0.423775 0.375390
Si Si3 0.364092 0.993951 0.888006
Si Si4 0.563837 0.805429 0.541910
Si Si5 0.258849 0.403240 0.156156
O O1 0.250000 0.604402 0.500000
O O2 0.153475 0.538373 0.557996
O O3 0.107643 0.646707 0.498528
O O4 0.150656 0.521628 0.461444
O O5 0.445737 0.475999 0.384650
O O6 0.527148 0.364447 0.419565
O O7 0.513506 0.375478 0.325467
O O8 0.582556 0.480121 0.376979
O O9 0.316515 0.066515 0.875000
O O10 0.343108 0.928472 0.849481
O O11 0.500000 0.750000 0.524398
O O12 0.216773 0.466773 0.125000
#
# Coordination Sequence:
#
# PCOD9574244 Si02
#       5
#    32  32  32  32  32
#     4  11  19  36  62  84 116 155 204 249 291 347
#     4  10  18  35  59  85 115 153 193 253 296 350
#     4  11  21  33  62  87 115 150 199 249 295 348
#     4  10  19  33  58  86 120 150 196 248 306 352
#     4  10  18  35  58  81 112 156 197 239 294 349
#
# _framework density 9.1449470000000002
#
# number of rings (size 3 to 8) (size 9 to 14) (size 15 to 20)
#    0.000    1.600    8.000    2.400    0.000    3.200 
#    0.000    0.000   30.800    0.000    0.000    0.000 
#    0.000    0.000    0.000    0.000    0.000    0.000 
#
# Total GULP energy -445338.662491 kJ/mol
# GULP energy per Si atom -5566.733281 kJ/mol
# Density = 0.912413 g / cm^3
# Si number density = 9.144947 Si / 1000 Ang^3
#
#
#
# Elastic Constant Matrix: (Units=GPa)
#
#
# Indices 1 2 3 4 5 6 
#
# 1 -101.0331 155.5525 19.1646 0.0000 0.0000 0.0000
# 2 155.5525 -101.0331 19.1646 0.0000 0.0000 0.0000
# 3 19.1646 19.1646 62.9207 0.0000 0.0000 0.0000
# 4 0.0000 0.0000 0.0000 11.9426 0.0000 0.0000
# 5 0.0000 0.0000 0.0000 0.0000 11.9426 0.0000
# 6 0.0000 0.0000 0.0000 0.0000 0.0000 194.2308
#
#
#
# Elastic Compliance Matrix: (Units=1/GPa)
#
#
# Indices 1 2 3 4 5 6 
#
# 1 0.009721 0.013619 -0.007109 0.000000 0.000000 0.000000
# 2 0.013619 0.009721 -0.007109 0.000000 0.000000 0.000000
# 3 -0.007109 -0.007109 0.020224 0.000000 0.000000 0.000000
# 4 0.000000 0.000000 0.000000 0.083734 0.000000 0.000000
# 5 0.000000 0.000000 0.000000 0.000000 0.083734 0.000000
# 6 0.000000 0.000000 0.000000 0.000000 0.000000 0.005149
#
#
# Mechanical properties :
#
#
# Convention : Reuss Voigt Hill
#
# Bulk Modulus (GPa) = 25.99586 27.62419 26.81003
# Shear Modulus (GPa) = 22.09429 21.42142 21.75785
#
# Velocity S-wave (km/s) = 3.47941 3.42602 3.45282
# Velocity P-wave (km/s) = 5.51233 5.54855 5.53047
#
# Compressibility (1/GPa) = 0.03846766
#
# Stress axis : x y z
#
# Youngs Moduli (GPa) = 102.86690 102.86690 49.44736
#
# Poissons Ratio (x) = -1.40091 0.35152
# Poissons Ratio (y) = -1.40091 0.35152
# Poissons Ratio (z) = 0.73127 0.73127
#
# Static dielectric constant tensor:
#      x y z
#    x 1.683710 0.000000 0.000000 
#    y 0.000000 1.683710 0.000000 
#    z 0.000000 0.000000 1.616870 
# 
# From -- ./inp_files/11339.got.cif
#   From: 2010.05.17/outbox.ucp.g08.bks.cvg/sg142_6_cif.got.tgz:11339.got - 2010.06.11 11:43:53.
