data_PCOD9574857
_publ_section_title
;
Structure prediction by ZEFSAII (Michael W. Deem and Ramdas Pophale) SiO2 
 PCOD9574857
Probable space group: P -3
;
_chemical_formula_sum "Si O2"
_cell_formula_units_Z 48
_cell_length_a 17.658154
_cell_length_b 17.658154
_cell_length_c 12.483480
_cell_angle_alpha 90.000000
_cell_angle_beta 90.000000
_cell_angle_gamma 120.000000
_cell_volume 3370.985633
_symmetry_space_group_name_H-M "P -3"
_symmetry_group_IT_number 147
_symmetry_cell_setting 'hexagonal'
loop_
_space_group_symop_operation_xyz
x,y,z
-y,x-y,z
-x+y,-x,z
-x,-y,-z
y,-x+y,-z
x-y,x,-z
loop_
_atom_site_type_symbol
_atom_site_label
_atom_site_fract_x
_atom_site_fract_y
_atom_site_fract_z
Si Si1 0.375699 0.100413 0.500000
Si Si2 0.486020 0.332106 0.282572
Si Si3 0.100413 0.375699 0.500000
Si Si4 0.153914 0.667894 0.282572
Si Si5 0.846086 0.513980 0.717428
Si Si6 0.591812 1.000000 0.877990
Si Si7 0.408188 0.408188 0.122010
Si Si8 0.332106 0.486020 0.717428
O O1 0.345327 0.172664 0.500000
O O2 0.435416 0.118796 0.605157
O O3 0.435416 0.118796 0.394843
O O4 0.300133 1.000000 0.500000
O O5 0.435416 0.316620 0.394843
O O6 0.429640 0.343863 0.189578
O O7 0.579232 0.420768 0.288140
O O8 0.497995 0.248998 0.263274
O O9 0.118796 0.435416 0.394843
O O10 0.158464 0.579232 0.288140
O O11 0.248998 0.751002 0.263274
O O12 0.085777 0.656137 0.189578
O O13 0.914223 0.570360 0.810421
O O14 0.500000 1.000000 0.881620
O O15 0.570360 0.914223 0.810422
O O16 0.619688 0.000000 1.000000
#
# Coordination Sequence:
#
# PCOD9574857 Si02
#       8
#     6   6   6   6   6   6   6   6
#     4  10  19  31  49  72  95 120 148 184 229 277
#     4  10  19  30  46  67  93 122 154 190 230 274
#     4  10  19  31  49  72  95 120 148 184 229 277
#     4  10  19  30  46  67  93 122 154 190 230 274
#     4  10  19  30  46  67  93 122 154 190 230 274
#     4   9  18  31  45  61  85 120 157 192 230 268
#     4   9  18  31  45  61  85 120 157 192 230 268
#     4  10  19  30  46  67  93 122 154 190 230 274
#
# _framework density 14.239159000000001
#
# number of rings (size 3 to 8) (size 9 to 14) (size 15 to 20)
#    0.000    2.250    2.500    1.250    0.000    2.000 
#    0.000    2.500    0.000    3.250    0.000    0.000 
#    0.000    0.000    0.000    0.000    0.000   22.750 
#
# Total GULP energy -267542.741228 kJ/mol
# GULP energy per Si atom -5573.807109 kJ/mol
# Density = 1.420675 g / cm^3
# Si number density = 14.239159 Si / 1000 Ang^3
#
#
#
# Elastic Constant Matrix: (Units=GPa)
#
#
# Indices 1 2 3 4 5 6 
#
# 1 95.8075 63.7484 53.8998 0.0000 0.0000 0.0000
# 2 63.7484 95.8075 53.8998 0.0000 0.0000 0.0000
# 3 53.8998 53.8998 134.6674 0.0000 0.0000 0.0000
# 4 0.0000 0.0000 0.0000 9.3162 0.0000 0.0000
# 5 0.0000 0.0000 0.0000 0.0000 9.3162 0.0000
# 6 0.0000 0.0000 0.0000 0.0000 0.0000 16.0296
#
#
#
# Elastic Compliance Matrix: (Units=1/GPa)
#
#
# Indices 1 2 3 4 5 6 
#
# 1 0.019891 -0.011301 -0.003438 0.000000 0.000000 0.000000
# 2 -0.011301 0.019891 -0.003438 0.000000 0.000000 0.000000
# 3 -0.003438 -0.003438 0.010178 0.000000 0.000000 0.000000
# 4 0.000000 0.000000 0.000000 0.107340 0.000000 0.000000
# 5 0.000000 0.000000 0.000000 0.000000 0.107340 0.000000
# 6 0.000000 0.000000 0.000000 0.000000 0.000000 0.062385
#
#
# Mechanical properties :
#
#
# Convention : Reuss Voigt Hill
#
# Bulk Modulus (GPa) = 73.49851 74.37540 73.93695
# Shear Modulus (GPa) = 13.59010 17.24803 15.41906
#
# Velocity S-wave (km/s) = 3.09272 3.48416 3.29426
# Velocity P-wave (km/s) = 8.03009 8.27842 8.15520
#
# Compressibility (1/GPa) = 0.01360572
#
# Stress axis : x y z
#
# Youngs Moduli (GPa) = 50.27307 50.27307 98.25146
#
# Poissons Ratio (x) = 0.56814 0.33781
# Poissons Ratio (y) = 0.56814 0.33781
# Poissons Ratio (z) = 0.17285 0.17285
#
# Static dielectric constant tensor:
#      x y z
#    x 1.450680 0.000000 0.000000 
#    y 0.000000 1.450680 0.000000 
#    z 0.000000 0.000000 1.471380 
# 
# From -- ./inp_files/882.got.cif
#   From: 2010.05.17/outbox.cif.g08.bks.cpg/sg147_cif.got.tgz:882.got - 2010.05.20 13:49:32.
