data_PCOD9574914
_publ_section_title
;
Structure prediction by ZEFSAII (Michael W. Deem and Ramdas Pophale) SiO2 
 PCOD9574914
Probable space group: P -3
;
_chemical_formula_sum "Si O2"
_cell_formula_units_Z 34
_cell_length_a 15.072654
_cell_length_b 15.072654
_cell_length_c 9.229188
_cell_angle_alpha 90.000000
_cell_angle_beta 90.000000
_cell_angle_gamma 120.000000
_cell_volume 1815.823298
_symmetry_space_group_name_H-M "P -3"
_symmetry_group_IT_number 147
_symmetry_cell_setting 'hexagonal'
loop_
_space_group_symop_operation_xyz
x,y,z
-y,x-y,z
-x+y,-x,z
-x,-y,-z
y,-x+y,-z
x-y,x,-z
loop_
_atom_site_type_symbol
_atom_site_label
_atom_site_fract_x
_atom_site_fract_y
_atom_site_fract_z
Si Si1 0.188153 0.758559 0.919524
Si Si2 0.666668 0.333334 0.425208
Si Si3 0.645937 0.599012 0.509089
Si Si4 0.241439 0.811845 0.580479
Si Si5 0.666668 0.333334 0.074788
Si Si6 0.645938 0.046928 0.990911
Si Si7 0.984814 0.492407 0.750000
O O1 0.213007 0.786991 0.750001
O O2 0.253644 0.704506 0.966773
O O3 0.236779 0.869541 0.993300
O O4 0.069750 0.685163 0.958537
O O5 0.704511 0.253648 0.466770
O O6 0.666668 0.333334 0.249998
O O7 0.615411 0.685164 0.541465
O O8 0.763220 0.632763 0.493297
O O9 0.602632 0.524647 0.646709
O O10 0.584161 0.536024 0.364792
O O11 0.584162 0.048139 0.135209
O O12 0.602630 0.077985 0.853292
#
# Coordination Sequence:
#
# PCOD9574914 Si02
#       7
#     6   2   6   6   2   6   6
#     4  11  22  39  59  92 123 172 201 256 303 371
#     4   9  18  30  57  85 122 163 204 220 308 367
#     4  11  22  38  62  89 128 160 214 249 316 357
#     4  11  22  39  59  92 123 172 201 256 303 371
#     4   9  18  30  57  85 122 163 204 220 308 367
#     4  11  22  38  62  89 128 160 214 249 316 357
#     4  10  20  36  60  90 118 164 196 266 292 370
#
# _framework density 18.724288000000001
#
# number of rings (size 3 to 8) (size 9 to 14) (size 15 to 20)
#    0.000    1.412    3.529    4.235    4.941    1.412 
#    0.000    3.529    0.000    0.706    0.000    0.000 
#    0.000    0.000    0.000    0.000    0.000    0.000 
#
# Total GULP energy -189622.783137 kJ/mol
# GULP energy per Si atom -5577.140680 kJ/mol
# Density = 1.868167 g / cm^3
# Si number density = 18.724288 Si / 1000 Ang^3
#
#
#
# Elastic Constant Matrix: (Units=GPa)
#
#
# Indices 1 2 3 4 5 6 
#
# 1 114.5704 79.0045 29.1528 -0.0003 -7.1163 -0.0003
# 2 79.0045 114.5711 29.1528 0.0003 7.1163 -0.0001
# 3 29.1528 29.1528 93.6582 0.0000 0.0000 0.0000
# 4 -0.0003 0.0003 0.0000 17.8515 -0.0001 7.1163
# 5 -7.1163 7.1163 0.0000 -0.0001 17.8513 -0.0003
# 6 -0.0003 -0.0001 0.0000 7.1163 -0.0003 17.7830
#
#
#
# Elastic Compliance Matrix: (Units=1/GPa)
#
#
# Indices 1 2 3 4 5 6 
#
# 1 0.019577 -0.013876 -0.001774 0.000001 0.013336 0.000000
# 2 -0.013876 0.019577 -0.001774 -0.000001 -0.013336 0.000000
# 3 -0.001774 -0.001774 0.011782 0.000000 0.000000 0.000000
# 4 0.000001 -0.000001 0.000000 0.066650 0.000001 -0.026672
# 5 0.013336 -0.013336 0.000000 0.000001 0.066651 0.000001
# 6 0.000000 0.000000 0.000000 -0.026672 0.000001 0.066907
#
#
# Mechanical properties :
#
#
# Convention : Reuss Voigt Hill
#
# Bulk Modulus (GPa) = 62.16932 66.38000 64.27466
# Shear Modulus (GPa) = 17.16117 23.06311 20.11214
#
# Velocity S-wave (km/s) = 3.03069 3.51340 3.28093
# Velocity P-wave (km/s) = 6.74695 7.21019 6.98241
#
# Compressibility (1/GPa) = 0.01608510
#
# Stress axis : x y z
#
# Youngs Moduli (GPa) = 51.08061 51.08099 84.87722
#
# Poissons Ratio (x) = 0.70882 0.15060
# Poissons Ratio (y) = 0.70882 0.15060
# Poissons Ratio (z) = 0.09064 0.09063
#
# Static dielectric constant tensor:
#      x y z
#    x 1.656890 0.000000 0.000000 
#    y 0.000000 1.656890 0.000000 
#    z 0.000000 0.000000 1.708260 
# 
# From -- ./inp_files/566.got.cif
#   From: 2010.05.17/outbox.cif.g08.bks.cpg/sg147_cif.got.tgz:566.got - 2010.05.20 13:49:32.
