data_PCOD9574355
_publ_section_title
;
Structure prediction by ZEFSAII (Michael W. Deem and Ramdas Pophale) SiO2 
 PCOD9574355
Probable space group: P 31
;
_chemical_formula_sum "Si O2"
_cell_formula_units_Z 12
_cell_length_a 8.455873
_cell_length_b 8.455873
_cell_length_c 7.203151
_cell_angle_alpha 90.000000
_cell_angle_beta 90.000000
_cell_angle_gamma 120.000000
_cell_volume 446.036145
_symmetry_space_group_name_H-M "P 31"
_symmetry_group_IT_number 144
_symmetry_cell_setting 'hexagonal'
loop_
_space_group_symop_operation_xyz
x,y,z
-y,x-y,1/3+z
-x+y,-x,2/3+z
loop_
_atom_site_type_symbol
_atom_site_label
_atom_site_fract_x
_atom_site_fract_y
_atom_site_fract_z
Si Si1 0.072271 0.507809 0.046180
Si Si2 0.174476 0.405604 0.671000
Si Si3 0.523314 0.232704 0.219022
Si Si4 0.957277 0.100629 0.164825
O O1 0.174879 0.666667 0.191924
O O2 0.491604 0.666667 0.191924
O O3 0.902956 0.530584 0.977756
O O4 0.294416 0.985314 0.797758
O O5 0.197250 0.236290 0.739424
O O6 0.724633 0.426453 0.674457
O O7 0.372251 0.024232 0.252756
O O8 0.942033 0.035153 0.376057
#
# Coordination Sequence:
#
# PCOD9574355 Si02
#       4
#     3   3   3   3
#     4  10  21  43  77 118 155 199 256 315 383 454
#     4  10  21  43  77 118 155 199 256 315 383 454
#     4  10  22  43  78 114 152 203 252 312 385 453
#     4  10  22  43  78 114 152 203 252 312 385 453
#
# _framework density 26.903646999999999
#
# number of rings (size 3 to 8) (size 9 to 14) (size 15 to 20)
#    0.000    2.000    0.000    4.500    0.000    2.000 
#    0.000    7.500    0.000   72.000    0.000   73.500 
#    0.000    0.000    0.000    0.000    0.000    0.000 
#
# Total GULP energy -67424.584862 kJ/mol
# GULP energy per Si atom -5618.715405 kJ/mol
# Density = 2.684241 g / cm^3
# Si number density = 26.903647 Si / 1000 Ang^3
#
#
#
# Elastic Constant Matrix: (Units=GPa)
#
#
# Indices 1 2 3 4 5 6 
#
# 1 166.4943 88.9097 93.7072 -10.5005 0.0000 0.0000
# 2 88.9097 166.4943 93.7072 10.5005 0.0000 0.0000
# 3 93.7072 93.7072 196.8393 0.0000 0.0000 0.0000
# 4 -10.5005 10.5005 0.0000 56.3840 0.0000 0.0000
# 5 0.0000 0.0000 0.0000 0.0000 56.3840 -10.5005
# 6 0.0000 0.0000 0.0000 0.0000 -10.5005 38.7923
#
#
#
# Elastic Compliance Matrix: (Units=1/GPa)
#
#
# Indices 1 2 3 4 5 6 
#
# 1 0.009795 -0.003778 -0.002865 0.002528 0.000000 0.000000
# 2 -0.003778 0.009795 -0.002865 -0.002528 0.000000 0.000000
# 3 -0.002865 -0.002865 0.007808 0.000000 0.000000 0.000000
# 4 0.002528 -0.002528 0.000000 0.018677 0.000000 0.000000
# 5 0.000000 0.000000 0.000000 0.000000 0.018677 0.005056
# 6 0.000000 0.000000 0.000000 0.000000 0.005056 0.027147
#
#
# Mechanical properties :
#
#
# Convention : Reuss Voigt Hill
#
# Bulk Modulus (GPa) = 119.27442 120.27511 119.77477
# Shear Modulus (GPa) = 43.97198 47.21231 45.59215
#
# Velocity S-wave (km/s) = 4.04719 4.19366 4.12107
# Velocity P-wave (km/s) = 8.14063 8.26147 8.20127
#
# Compressibility (1/GPa) = 0.00838403
#
# Stress axis : x y z
#
# Youngs Moduli (GPa) = 102.08853 102.08853 128.07746
#
# Poissons Ratio (x) = 0.38569 0.36690
# Poissons Ratio (y) = 0.38569 0.36690
# Poissons Ratio (z) = 0.29245 0.29245
#
# Static dielectric constant tensor:
#      x y z
#    x 2.099320 0.000000 0.000000 
#    y 0.000000 2.099320 0.000000 
#    z 0.000000 0.000000 2.054060 
# 
# From -- ./inp_files/205.got.cif
#   From: 2010.05.17/outbox.cif.g08.bks.cpg/sg144_cif.got.tgz:205.got - 2010.05.20 13:46:34.
