data_PCOD9574753
_publ_section_title
;
Structure prediction by ZEFSAII (Michael W. Deem and Ramdas Pophale) SiO2 
 PCOD9574753
Probable space group: R 3
;
_chemical_formula_sum "Si O2"
_cell_formula_units_Z 36
_cell_length_a 20.149315
_cell_length_b 20.149315
_cell_length_c 5.391735
_cell_angle_alpha 90.000000
_cell_angle_beta 90.000000
_cell_angle_gamma 120.000000
_cell_volume 1895.744232
_symmetry_space_group_name_H-M "R 3"
_symmetry_group_IT_number 146
_symmetry_cell_setting 'hexagonal'
loop_
_space_group_symop_operation_xyz
x,y,z
-y,x-y,z
-x+y,-x,z
2/3+x,1/3+y,1/3+z
2/3-y,1/3+x-y,1/3+z
2/3-x+y,1/3-x,1/3+z
1/3+x,2/3+y,2/3+z
1/3-y,2/3+x-y,2/3+z
1/3-x+y,2/3-x,2/3+z
loop_
_atom_site_type_symbol
_atom_site_label
_atom_site_fract_x
_atom_site_fract_y
_atom_site_fract_z
Si Si1 0.416987 0.358190 0.840600
Si Si2 0.776913 0.898177 0.661103
Si Si3 0.117948 0.499209 0.821540
Si Si4 0.631240 0.789289 0.919062
O O1 0.353750 0.295070 0.656737
O O2 0.486772 0.425532 0.695083
O O3 0.446086 0.312132 0.008719
O O4 0.804721 0.884836 0.398438
O O5 0.813851 0.881975 0.901837
O O6 0.687165 0.832828 0.688203
O O7 0.145457 0.438255 0.854795
O O8 0.025502 0.453703 0.777744
#
# Coordination Sequence:
#
# PCOD9574753 Si02
#       4
#     9   9   9   9
#     4  12  20  40  62  98 134 165 217 265 332 377
#     4  10  23  38  56  92 129 167 206 268 307 390
#     4  10  23  37  56  93 126 170 207 253 328 371
#     4  10  24  35  66  89 135 170 204 274 317 386
#
# _framework density 18.989903999999999
#
# number of rings (size 3 to 8) (size 9 to 14) (size 15 to 20)
#    1.500    0.000    5.000    0.000    7.000    0.000 
#    0.000    0.000    0.000    1.000    0.000    3.500 
#    0.000    0.000    0.000    0.000    0.000    0.000 
#
# Total GULP energy -66879.697027 kJ/mol
# GULP energy per Si atom -5573.308086 kJ/mol
# Density = 1.894668 g / cm^3
# Si number density = 18.989904 Si / 1000 Ang^3
#
#
#
# Elastic Constant Matrix: (Units=GPa)
#
#
# Indices 1 2 3 4 5 6 
#
# 1 57.5871 14.0590 26.3380 -0.9808 -3.1843 -0.0726
# 2 14.0590 56.9855 26.0881 0.2757 3.3947 -0.0628
# 3 26.3380 26.0881 111.1129 0.2004 -0.0719 0.1108
# 4 -0.9808 0.2757 0.2004 7.2753 0.0415 3.5124
# 5 -3.1843 3.3947 -0.0719 0.0415 6.7590 -0.6847
# 6 -0.0726 -0.0628 0.1108 3.5124 -0.6847 21.6894
#
#
#
# Elastic Compliance Matrix: (Units=1/GPa)
#
#
# Indices 1 2 3 4 5 6 
#
# 1 0.020885 -0.004039 -0.004000 0.003031 0.011803 -0.000040
# 2 -0.004039 0.021135 -0.004011 -0.001090 -0.012569 -0.000152
# 3 -0.004000 -0.004011 0.010891 -0.000709 0.000254 0.000042
# 4 0.003031 -0.001090 -0.000709 0.149645 -0.001409 -0.024267
# 5 0.011803 -0.012569 0.000254 -0.001409 0.160371 0.005293
# 6 -0.000040 -0.000152 0.000042 -0.024267 0.005293 0.050202
#
#
# Mechanical properties :
#
#
# Convention : Reuss Voigt Hill
#
# Bulk Modulus (GPa) = 34.70906 39.85062 37.27984
# Shear Modulus (GPa) = 11.18988 17.75809 14.47399
#
# Velocity S-wave (km/s) = 2.43009 3.06131 2.76378
# Velocity P-wave (km/s) = 5.11772 5.79018 5.46431
#
# Compressibility (1/GPa) = 0.02881092
#
# Stress axis : x y z
#
# Youngs Moduli (GPa) = 47.88195 47.31524 91.81823
#
# Poissons Ratio (x) = 0.19111 0.36727
# Poissons Ratio (y) = 0.19340 0.36827
# Poissons Ratio (z) = 0.19152 0.18977
#
# Static dielectric constant tensor:
#      x y z
#    x 1.639930 -0.000120 -0.000150 
#    y -0.000120 1.640000 -0.000120 
#    z -0.000150 -0.000120 1.712490 
# 
# From -- ./inp_files/182.got.cif
#   From: 2010.05.17/outbox.cif.g08.bks.cpg/sg146_cif.got.tgz:182.got - 2010.05.20 13:48:23.
