data_PCOD9574089
_publ_section_title
;
Structure prediction by ZEFSAII (Michael W. Deem and Ramdas Pophale) SiO2 
 PCOD9574089
Probable space group: I 41/A C D
;
_chemical_formula_sum "Si O2"
_cell_formula_units_Z 176
_cell_length_a 18.055601
_cell_length_b 18.055601
_cell_length_c 25.580683
_cell_angle_alpha 90.000000
_cell_angle_beta 90.000000
_cell_angle_gamma 90.000000
_cell_volume 8339.423590
_symmetry_space_group_name_H-M "I 41/A C D"
_symmetry_group_IT_number 142
_space_group.IT_coordinate_system_code '2'
_symmetry_cell_setting 'tetragonal'
loop_
_space_group_symop_operation_xyz
x,y,z
1/4-y,3/4+x,1/4+z
-x,1/2-y,z
1/4+y,1/4-x,3/4+z
x,-y,1/2-z
1/2-x,y,-z
3/4+y,1/4+x,1/4-z
1/4-y,1/4-x,1/4-z
-x,-y,-z
3/4+y,1/4-x,3/4-z
x,1/2+y,-z
3/4-y,3/4+x,1/4-z
-x,y,1/2+z
1/2+x,-y,z
1/4-y,3/4-x,3/4+z
3/4+y,3/4+x,3/4+z
1/2+x,1/2+y,1/2+z
3/4-y,1/4+x,3/4+z
1/2-x,-y,1/2+z
3/4+y,3/4-x,1/4+z
1/2+x,1/2-y,-z
-x,1/2+y,1/2-z
1/4+y,3/4+x,3/4-z
3/4-y,3/4-x,3/4-z
1/2-x,1/2-y,1/2-z
1/4+y,3/4-x,1/4-z
1/2+x,y,1/2-z
1/4-y,1/4+x,3/4-z
1/2-x,1/2+y,z
x,1/2-y,1/2+z
3/4-y,1/4-x,1/4+z
1/4+y,1/4+x,1/4+z
loop_
_atom_site_type_symbol
_atom_site_label
_atom_site_fract_x
_atom_site_fract_y
_atom_site_fract_z
Si Si1 0.106932 0.856932 0.875000
Si Si2 0.607115 0.096788 0.519980
Si Si3 0.892390 0.528912 0.632647
Si Si4 0.603189 0.194582 0.763447
Si Si5 0.673720 0.531256 0.967175
Si Si6 0.674896 0.750285 0.967797
O O1 0.191865 0.850201 0.893170
O O2 0.096647 0.803847 0.825913
O O3 0.606267 0.045480 0.571528
O O4 0.524803 0.126903 0.508843
O O5 0.662935 0.162791 0.533387
O O6 0.638857 0.049960 0.471381
O O7 0.818387 0.558430 0.661471
O O8 0.961037 0.567508 0.661879
O O9 0.666928 0.137307 0.745093
O O10 0.531563 0.150519 0.743047
O O11 0.750000 0.532598 0.000000
O O12 0.750000 0.731175 0.000000
#
# Coordination Sequence:
#
# PCOD9574089 Si02
#       6
#    16  32  32  32  32  32
#     4  12  20  42  77  92 128 186 239 272 352 426
#     4  12  26  40  69 103 142 172 236 300 348 413
#     4  11  23  40  71 101 129 185 230 285 350 424
#     4  11  23  43  66  98 135 181 229 282 345 429
#     4  11  21  42  67  99 136 178 230 286 345 418
#     4  11  24  45  64  94 139 182 224 291 352 418
#
# _framework density 21.104576000000002
#
# number of rings (size 3 to 8) (size 9 to 14) (size 15 to 20)
#    0.000    0.727    5.455    2.727    5.091    0.000 
#    0.000    1.818    0.000    0.000    0.000    0.000 
#    0.000    0.000    0.000    0.000    0.000    0.000 
#
# Total GULP energy -491773.794047 kJ/mol
# GULP energy per Si atom -5588.338569 kJ/mol
# Density = 2.105654 g / cm^3
# Si number density = 21.104576 Si / 1000 Ang^3
#
#
#
# Elastic Constant Matrix: (Units=GPa)
#
#
# Indices 1 2 3 4 5 6 
#
# 1 81.7304 19.6174 10.4859 0.0000 0.0000 0.0000
# 2 19.6174 81.7304 10.4859 0.0000 0.0000 0.0000
# 3 10.4859 10.4859 85.6846 0.0000 0.0000 0.0000
# 4 0.0000 0.0000 0.0000 12.7741 0.0000 0.0000
# 5 0.0000 0.0000 0.0000 0.0000 12.7741 0.0000
# 6 0.0000 0.0000 0.0000 0.0000 0.0000 11.1111
#
#
#
# Elastic Compliance Matrix: (Units=1/GPa)
#
#
# Indices 1 2 3 4 5 6 
#
# 1 0.013112 -0.002988 -0.001239 0.000000 0.000000 0.000000
# 2 -0.002988 0.013112 -0.001239 0.000000 0.000000 0.000000
# 3 -0.001239 -0.001239 0.011974 0.000000 0.000000 0.000000
# 4 0.000000 0.000000 0.000000 0.078284 0.000000 0.000000
# 5 0.000000 0.000000 0.000000 0.000000 0.078284 0.000000
# 6 0.000000 0.000000 0.000000 0.000000 0.000000 0.090000
#
#
# Mechanical properties :
#
#
# Convention : Reuss Voigt Hill
#
# Bulk Modulus (GPa) = 36.67683 36.70264 36.68973
# Shear Modulus (GPa) = 16.40504 21.23559 18.82031
#
# Velocity S-wave (km/s) = 2.79107 3.17552 2.98948
# Velocity P-wave (km/s) = 5.27287 5.55642 5.41650
#
# Compressibility (1/GPa) = 0.02726517
#
# Stress axis : x y z
#
# Youngs Moduli (GPa) = 76.26873 76.26873 83.51474
#
# Poissons Ratio (x) = 0.22790 0.10346
# Poissons Ratio (y) = 0.22790 0.10346
# Poissons Ratio (z) = 0.09449 0.09449
#
# Static dielectric constant tensor:
#      x y z
#    x 1.775590 0.000000 0.000000 
#    y 0.000000 1.775590 0.000000 
#    z 0.000000 0.000000 1.759300 
# 
# From -- ./inp_files/11414.got.cif
#   From: 2010.05.17/outbox.cif.g08.bks.cpg/sg142_6_cif.got.tgz:11414.got - 2010.05.20 13:39:18.
