data_PCOD9574240
_publ_section_title
;
Structure prediction by ZEFSAII (Michael W. Deem and Ramdas Pophale) SiO2 
 PCOD9574240
Probable space group: I 41/A C D
;
_chemical_formula_sum "Si O2"
_cell_formula_units_Z 64
_cell_length_a 18.964881
_cell_length_b 18.964881
_cell_length_c 7.422793
_cell_angle_alpha 90.000000
_cell_angle_beta 90.000000
_cell_angle_gamma 90.000000
_cell_volume 2669.731547
_symmetry_space_group_name_H-M "I 41/A C D"
_symmetry_group_IT_number 142
_space_group.IT_coordinate_system_code '2'
_symmetry_cell_setting 'tetragonal'
loop_
_space_group_symop_operation_xyz
x,y,z
1/4-y,3/4+x,1/4+z
-x,1/2-y,z
1/4+y,1/4-x,3/4+z
x,-y,1/2-z
1/2-x,y,-z
3/4+y,1/4+x,1/4-z
1/4-y,1/4-x,1/4-z
-x,-y,-z
3/4+y,1/4-x,3/4-z
x,1/2+y,-z
3/4-y,3/4+x,1/4-z
-x,y,1/2+z
1/2+x,-y,z
1/4-y,3/4-x,3/4+z
3/4+y,3/4+x,3/4+z
1/2+x,1/2+y,1/2+z
3/4-y,1/4+x,3/4+z
1/2-x,-y,1/2+z
3/4+y,3/4-x,1/4+z
1/2+x,1/2-y,-z
-x,1/2+y,1/2-z
1/4+y,3/4+x,3/4-z
3/4-y,3/4-x,3/4-z
1/2-x,1/2-y,1/2-z
1/4+y,3/4-x,1/4-z
1/2+x,y,1/2-z
1/4-y,1/4+x,3/4-z
1/2-x,1/2+y,z
x,1/2-y,1/2+z
3/4-y,1/4-x,1/4+z
1/4+y,1/4+x,1/4+z
loop_
_atom_site_type_symbol
_atom_site_label
_atom_site_fract_x
_atom_site_fract_y
_atom_site_fract_z
Si Si1 0.852044 0.193105 0.524083
Si Si2 0.816236 0.151329 0.895680
O O1 0.927876 0.177876 0.625000
O O2 0.801233 0.165512 0.683130
O O3 0.856397 0.138061 0.360289
O O4 0.835008 0.271689 0.473498
O O5 0.750000 0.121243 0.000000
#
# Coordination Sequence:
#
# PCOD9574240 Si02
#       2
#    32  32
#     4   8  20  29  50  78 103 157 191 234 317 349
#     4   9  17  34  49  74 115 145 196 251 288 367
#
# _framework density 23.972449000000001
#
# number of rings (size 3 to 8) (size 9 to 14) (size 15 to 20)
#    3.000    0.000    0.000    1.500    0.000    3.000 
#    9.000    0.000    0.000    0.000    0.000    3.500 
#    0.000    0.000    0.000    0.000    0.000    0.000 
#
# Total GULP energy -178226.164862 kJ/mol
# GULP energy per Si atom -5569.567652 kJ/mol
# Density = 2.391789 g / cm^3
# Si number density = 23.972449 Si / 1000 Ang^3
#
#
#
# Elastic Constant Matrix: (Units=GPa)
#
#
# Indices 1 2 3 4 5 6 
#
# 1 48.7964 46.7073 27.0345 0.0000 0.0000 0.0000
# 2 46.7073 48.7964 27.0345 0.0000 0.0000 0.0000
# 3 27.0345 27.0345 76.7308 0.0000 0.0000 0.0000
# 4 0.0000 0.0000 0.0000 37.4986 0.0000 0.0000
# 5 0.0000 0.0000 0.0000 0.0000 37.4986 0.0000
# 6 0.0000 0.0000 0.0000 0.0000 0.0000 -40.9490
#
#
#
# Elastic Compliance Matrix: (Units=1/GPa)
#
#
# Indices 1 2 3 4 5 6 
#
# 1 0.245868 -0.232788 -0.004608 0.000000 0.000000 0.000000
# 2 -0.232788 0.245868 -0.004608 0.000000 0.000000 0.000000
# 3 -0.004608 -0.004608 0.016280 0.000000 0.000000 0.000000
# 4 0.000000 0.000000 0.000000 0.026668 0.000000 0.000000
# 5 0.000000 0.000000 0.000000 0.000000 0.026668 0.000000
# 6 0.000000 0.000000 0.000000 0.000000 0.000000 -0.024421
#
#
# Mechanical properties :
#
#
# Convention : Reuss Voigt Hill
#
# Bulk Modulus (GPa) = 41.65634 41.76404 41.71019
# Shear Modulus (GPa) = 4.85937 11.71282 8.28609
#
# Velocity S-wave (km/s) = 1.42529 2.21282 1.86119
# Velocity P-wave (km/s) = 4.48588 4.89778 4.69635
#
# Compressibility (1/GPa) = 0.02400595
#
# Stress axis : x y z
#
# Youngs Moduli (GPa) = 4.06723 4.06723 61.42531
#
# Poissons Ratio (x) = 0.94680 0.28307
# Poissons Ratio (y) = 0.94680 0.28307
# Poissons Ratio (z) = 0.01874 0.01874
#
# Static dielectric constant tensor:
#      x y z
#    x 1.926950 0.000000 0.000000 
#    y 0.000000 1.926950 0.000000 
#    z 0.000000 0.000000 2.026040 
# 
# From -- ./inp_files/1275.got.cif
#   From: 2010.05.17/outbox.cif.g08.bks.cpg/sg142_1_cif.got.tgz:1275.got - 2010.05.20 13:39:18.
