data_PCOD9574789
_publ_section_title
;
Structure prediction by ZEFSAII (Michael W. Deem and Ramdas Pophale) SiO2 
 PCOD9574789
Probable space group: R 3
;
_chemical_formula_sum "Si O2"
_cell_formula_units_Z 27
_cell_length_a 13.196858
_cell_length_b 13.196858
_cell_length_c 6.999778
_cell_angle_alpha 90.000000
_cell_angle_beta 90.000000
_cell_angle_gamma 120.000000
_cell_volume 1055.737591
_symmetry_space_group_name_H-M "R 3"
_symmetry_group_IT_number 146
_symmetry_cell_setting 'hexagonal'
loop_
_space_group_symop_operation_xyz
x,y,z
-y,x-y,z
-x+y,-x,z
2/3+x,1/3+y,1/3+z
2/3-y,1/3+x-y,1/3+z
2/3-x+y,1/3-x,1/3+z
1/3+x,2/3+y,2/3+z
1/3-y,2/3+x-y,2/3+z
1/3-x+y,2/3-x,2/3+z
loop_
_atom_site_type_symbol
_atom_site_label
_atom_site_fract_x
_atom_site_fract_y
_atom_site_fract_z
Si Si1 0.599711 0.419061 0.530440
Si Si2 0.567248 0.592059 0.265430
Si Si3 0.433526 0.340411 0.846954
O O1 0.541322 0.277789 0.514392
O O2 0.547874 0.433395 0.730925
O O3 0.568249 0.482675 0.369825
O O4 0.332258 0.280896 0.685085
O O5 0.643855 0.702659 0.398186
O O6 0.430550 0.549763 0.256475
#
# Coordination Sequence:
#
# PCOD9574789 Si02
#       3
#     9   9   9
#     4  10  26  46  73 104 147 192 248 298 365 438
#     4  12  29  48  77 108 152 196 251 308 369 442
#     4  12  27  48  74 108 149 198 247 306 376 436
#
# _framework density 25.574535999999998
#
# number of rings (size 3 to 8) (size 9 to 14) (size 15 to 20)
#    0.667    0.000    3.333    2.000   18.667    0.000 
#    0.000    3.333    0.000    0.000    0.000    0.000 
#    0.000    0.000    0.000    0.000    0.000    0.000 
#
# Total GULP energy -50408.295125 kJ/mol
# GULP energy per Si atom -5600.921681 kJ/mol
# Density = 2.551633 g / cm^3
# Si number density = 25.574536 Si / 1000 Ang^3
#
#
#
# Elastic Constant Matrix: (Units=GPa)
#
#
# Indices 1 2 3 4 5 6 
#
# 1 88.5079 -6.2641 11.4992 6.8060 -3.2651 0.0000
# 2 -6.2641 88.5079 11.4992 -6.8060 3.2651 0.0000
# 3 11.4992 11.4992 98.4307 0.0000 0.0000 0.0000
# 4 6.8060 -6.8060 0.0000 45.6516 0.0000 3.2651
# 5 -3.2651 3.2651 0.0000 0.0000 45.6516 6.8060
# 6 0.0000 0.0000 0.0000 3.2651 6.8060 47.3860
#
#
#
# Elastic Compliance Matrix: (Units=1/GPa)
#
#
# Indices 1 2 3 4 5 6 
#
# 1 0.011703 0.000866 -0.001468 -0.001616 0.000775 0.000000
# 2 0.000866 0.011703 -0.001468 0.001616 -0.000775 0.000000
# 3 -0.001468 -0.001468 0.010503 0.000000 0.000000 0.000000
# 4 -0.001616 0.001616 0.000000 0.022498 0.000000 -0.001550
# 5 0.000775 -0.000775 0.000000 0.000000 0.022498 -0.003231
# 6 0.000000 0.000000 0.000000 -0.001550 -0.003231 0.021674
#
#
# Mechanical properties :
#
#
# Convention : Reuss Voigt Hill
#
# Bulk Modulus (GPa) = 33.59315 34.32387 33.95851
# Shear Modulus (GPa) = 43.61377 44.98531 44.29954
#
# Velocity S-wave (km/s) = 4.13408 4.19858 4.16645
# Velocity P-wave (km/s) = 5.99595 6.07901 6.03762
#
# Compressibility (1/GPa) = 0.02976798
#
# Stress axis : x y z
#
# Youngs Moduli (GPa) = 85.44559 85.44559 95.21511
#
# Poissons Ratio (x) = -0.07402 0.13982
# Poissons Ratio (y) = -0.07402 0.13982
# Poissons Ratio (z) = 0.12547 0.12547
#
# Static dielectric constant tensor:
#      x y z
#    x 2.036900 0.000000 0.000000 
#    y 0.000000 2.036900 0.000000 
#    z 0.000000 0.000000 1.964200 
# 
# From -- ./inp_files/502.got.cif
#   From: 2010.05.17/outbox.cif.g08.bks.cpg/sg146_cif.got.tgz:502.got - 2010.05.20 13:48:23.
