data_PCOD9574289
_publ_section_title
;
Structure prediction by ZEFSAII (Michael W. Deem and Ramdas Pophale) SiO2 
 PCOD9574289
Probable space group: P 31
;
_chemical_formula_sum "Si O2"
_cell_formula_units_Z 18
_cell_length_a 9.955135
_cell_length_b 9.955135
_cell_length_c 10.054239
_cell_angle_alpha 90.000000
_cell_angle_beta 90.000000
_cell_angle_gamma 120.000000
_cell_volume 862.927171
_symmetry_space_group_name_H-M "P 31"
_symmetry_group_IT_number 144
_symmetry_cell_setting 'hexagonal'
loop_
_space_group_symop_operation_xyz
x,y,z
-y,x-y,1/3+z
-x+y,-x,2/3+z
loop_
_atom_site_type_symbol
_atom_site_label
_atom_site_fract_x
_atom_site_fract_y
_atom_site_fract_z
Si Si1 0.242513 0.277631 0.274490
Si Si2 0.774187 0.272068 0.703984
Si Si3 0.870871 0.756949 0.664777
Si Si4 0.559144 0.164541 0.073965
Si Si5 0.298211 0.389034 0.836796
Si Si6 0.462461 0.552742 0.113176
O O1 0.354082 0.253831 0.376009
O O2 0.227354 0.182267 0.138807
O O3 0.335285 0.456998 0.226619
O O4 0.070300 0.211213 0.326958
O O5 0.834994 0.333335 0.555642
O O6 0.625354 0.292023 0.722306
O O7 0.911577 0.399978 0.794592
O O8 0.733307 0.578247 0.650025
O O9 0.998048 0.788381 0.551335
O O10 0.587164 0.020744 0.068609
O O11 0.192415 0.455450 0.784329
O O12 0.378417 0.484399 0.972479
#
# Coordination Sequence:
#
# PCOD9574289 Si02
#       6
#     3   3   3   3   3   3
#     4  10  22  39  63  86 126 160 202 254 308 361
#     4  10  18  40  61  81 115 162 198 242 299 359
#     4  10  21  40  59  88 123 158 199 257 301 356
#     4  10  18  40  61  81 115 162 198 242 299 359
#     4  10  22  39  63  86 126 160 202 254 308 361
#     4  10  21  40  59  88 123 158 199 257 301 356
#
# _framework density 20.859231999999999
#
# number of rings (size 3 to 8) (size 9 to 14) (size 15 to 20)
#    0.000    2.000    6.667    0.000    4.667    0.000 
#    6.000    5.000    0.000    0.000    0.000    0.000 
#    0.000    0.000    0.000    0.000    0.000    0.000 
#
# Total GULP energy -100400.658188 kJ/mol
# GULP energy per Si atom -5577.814344 kJ/mol
# Density = 2.081176 g / cm^3
# Si number density = 20.859232 Si / 1000 Ang^3
#
#
#
# Elastic Constant Matrix: (Units=GPa)
#
#
# Indices 1 2 3 4 5 6 
#
# 1 128.5846 47.8938 4.3837 -9.1311 -0.0002 0.0000
# 2 47.8938 128.5846 4.3837 9.1311 0.0002 0.0000
# 3 4.3837 4.3837 8.0270 0.0000 0.0000 0.0000
# 4 -9.1311 9.1311 0.0000 14.8419 0.0000 0.0002
# 5 -0.0002 0.0002 0.0000 0.0000 14.8419 -9.1311
# 6 0.0000 0.0000 0.0000 0.0002 -9.1311 40.3454
#
#
#
# Elastic Compliance Matrix: (Units=1/GPa)
#
#
# Indices 1 2 3 4 5 6 
#
# 1 0.010111 -0.004287 -0.003181 0.008858 0.000000 0.000000
# 2 -0.004287 0.010111 -0.003181 -0.008858 0.000000 0.000000
# 3 -0.003181 -0.003181 0.128054 0.000000 0.000000 0.000000
# 4 0.008858 -0.008858 0.000000 0.078276 0.000000 0.000000
# 5 0.000000 0.000000 0.000000 0.000000 0.078276 0.017716
# 6 0.000000 0.000000 0.000000 0.000000 0.017716 0.028795
#
#
# Mechanical properties :
#
#
# Convention : Reuss Voigt Hill
#
# Bulk Modulus (GPa) = 7.87529 42.05764 24.96647
# Shear Modulus (GPa) = 12.58663 27.90815 20.24739
#
# Velocity S-wave (km/s) = 2.45910 3.66174 3.11893
# Velocity P-wave (km/s) = 3.44188 6.17123 4.99653
#
# Compressibility (1/GPa) = 0.12697938
#
# Stress axis : x y z
#
# Youngs Moduli (GPa) = 98.90137 98.90137 7.80921
#
# Poissons Ratio (x) = 0.42395 0.02484
# Poissons Ratio (y) = 0.42395 0.02484
# Poissons Ratio (z) = 0.31459 0.31459
#
# Static dielectric constant tensor:
#      x y z
#    x 1.758960 0.000000 0.000000 
#    y 0.000000 1.758960 0.000000 
#    z 0.000000 0.000000 1.796140 
# 
# From -- ./inp_files/558.got.cif
#   From: 2010.05.17/outbox.cif.g08.bks.cpg/sg144_cif.got.tgz:558.got - 2010.05.20 13:46:34.
