data_PCOD9574711
_publ_section_title
;
Structure prediction by ZEFSAII (Michael W. Deem and Ramdas Pophale) SiO2 
 PCOD9574711
Probable space group: R 3
;
_chemical_formula_sum "Si O2"
_cell_formula_units_Z 54
_cell_length_a 14.904636
_cell_length_b 14.904636
_cell_length_c 12.202837
_cell_angle_alpha 90.000000
_cell_angle_beta 90.000000
_cell_angle_gamma 120.000000
_cell_volume 2347.654540
_symmetry_space_group_name_H-M "R 3"
_symmetry_group_IT_number 146
_symmetry_cell_setting 'hexagonal'
loop_
_space_group_symop_operation_xyz
x,y,z
-y,x-y,z
-x+y,-x,z
2/3+x,1/3+y,1/3+z
2/3-y,1/3+x-y,1/3+z
2/3-x+y,1/3-x,1/3+z
1/3+x,2/3+y,2/3+z
1/3-y,2/3+x-y,2/3+z
1/3-x+y,2/3-x,2/3+z
loop_
_atom_site_type_symbol
_atom_site_label
_atom_site_fract_x
_atom_site_fract_y
_atom_site_fract_z
Si Si1 0.430565 0.986953 0.488770
Si Si2 0.564148 0.466686 0.097702
Si Si3 0.960274 0.428797 0.842087
Si Si4 0.436210 0.865068 0.114959
Si Si5 0.769989 0.057507 0.332129
Si Si6 0.389623 0.477409 0.326802
O O1 0.334307 0.869484 0.497580
O O2 0.476085 0.981505 0.371216
O O3 0.378675 0.059437 0.495593
O O4 0.522602 0.019336 0.574546
O O5 0.481056 0.494693 0.143508
O O6 0.503297 0.344134 0.090161
O O7 0.577415 0.508741 0.970537
O O8 0.856869 0.345081 0.776118
O O9 0.990855 0.535823 0.780641
O O10 0.458568 0.829531 0.230148
O O11 0.496522 0.851039 0.014926
O O12 0.646776 0.986542 0.314464
#
# Coordination Sequence:
#
# PCOD9574711 Si02
#       6
#     9   9   9   9   9   9
#     4  11  23  40  65  96 128 170 214 267 332 389
#     4  10  21  38  65  94 124 168 215 265 323 386
#     4  11  22  42  66  94 130 170 220 268 321 394
#     4  10  21  38  65  94 124 168 215 265 323 386
#     4  11  23  40  65  96 128 170 214 267 332 389
#     4  11  22  42  66  94 130 170 220 268 321 394
#
# _framework density 23.001681000000001
#
# number of rings (size 3 to 8) (size 9 to 14) (size 15 to 20)
#    0.000    1.333    3.333    4.000    4.667    0.000 
#    2.000    1.667    0.000    0.667    0.000    0.000 
#    0.000    0.000    0.000    0.000    0.000    0.000 
#
# Total GULP energy -100318.403595 kJ/mol
# GULP energy per Si atom -5573.244644 kJ/mol
# Density = 2.294933 g / cm^3
# Si number density = 23.001681 Si / 1000 Ang^3
#
#
#
# Elastic Constant Matrix: (Units=GPa)
#
#
# Indices 1 2 3 4 5 6 
#
# 1 99.6602 27.7686 16.1758 13.6568 -7.9094 0.0000
# 2 27.7686 99.6602 16.1758 -13.6568 7.9094 0.0000
# 3 16.1758 16.1758 75.9554 0.0000 0.0000 0.0000
# 4 13.6568 -13.6568 0.0000 36.9481 0.0000 7.9094
# 5 -7.9094 7.9094 0.0000 0.0000 36.9481 13.6568
# 6 0.0000 0.0000 0.0000 7.9094 13.6568 35.9458
#
#
#
# Elastic Compliance Matrix: (Units=1/GPa)
#
#
# Indices 1 2 3 4 5 6 
#
# 1 0.012708 -0.004412 -0.001767 -0.006328 0.003665 0.000000
# 2 -0.004412 0.012708 -0.001767 0.006328 -0.003665 0.000000
# 3 -0.001767 -0.001767 0.013918 0.000000 0.000000 0.000000
# 4 -0.006328 0.006328 0.000000 0.033312 0.000000 -0.007330
# 5 0.003665 -0.003665 0.000000 0.000000 0.033312 -0.012656
# 6 0.000000 0.000000 0.000000 -0.007330 -0.012656 0.034241
#
#
# Mechanical properties :
#
#
# Convention : Reuss Voigt Hill
#
# Bulk Modulus (GPa) = 42.65631 43.94626 43.30129
# Shear Modulus (GPa) = 30.50535 36.31212 33.40874
#
# Velocity S-wave (km/s) = 3.64568 3.97756 3.81523
# Velocity P-wave (km/s) = 6.02549 6.34364 6.18661
#
# Compressibility (1/GPa) = 0.02344319
#
# Stress axis : x y z
#
# Youngs Moduli (GPa) = 78.68889 78.68889 71.84871
#
# Poissons Ratio (x) = 0.34719 0.12694
# Poissons Ratio (y) = 0.34719 0.12694
# Poissons Ratio (z) = 0.13903 0.13903
#
# Static dielectric constant tensor:
#      x y z
#    x 1.917450 0.000000 0.000000 
#    y 0.000000 1.917450 0.000000 
#    z 0.000000 0.000000 2.137940 
# 
# From -- ./inp_files/1499.got.cif
#   From: 2010.05.17/outbox.cif.g08.bks.cpg/sg146_cif.got.tgz:1499.got - 2010.05.20 13:48:23.
