data_PCOD9574546
_publ_section_title
;
Structure prediction by ZEFSAII (Michael W. Deem and Ramdas Pophale) SiO2 
 PCOD9574546
Probable space group: P 32
;
_chemical_formula_sum "Si O2"
_cell_formula_units_Z 18
_cell_length_a 8.520484
_cell_length_b 8.520484
_cell_length_c 11.207915
_cell_angle_alpha 90.000000
_cell_angle_beta 90.000000
_cell_angle_gamma 120.000000
_cell_volume 704.667093
_symmetry_space_group_name_H-M "P 32"
_symmetry_group_IT_number 145
_symmetry_cell_setting 'hexagonal'
loop_
_space_group_symop_operation_xyz
x,y,z
-y,x-y,2/3+z
-x+y,-x,1/3+z
loop_
_atom_site_type_symbol
_atom_site_label
_atom_site_fract_x
_atom_site_fract_y
_atom_site_fract_z
Si Si1 0.279079 0.508353 0.344520
Si Si2 0.508314 0.369472 0.266953
Si Si3 0.730282 0.501488 0.838892
Si Si4 0.306768 0.859527 0.433556
Si Si5 0.790701 0.931819 0.220564
Si Si6 0.925707 0.814338 0.434958
O O1 0.427138 0.502748 0.255544
O O2 0.350728 0.710431 0.387679
O O3 0.124869 0.454095 0.244755
O O4 0.195885 0.359516 0.449636
O O5 0.521089 0.377068 0.409112
O O6 0.698923 0.394028 0.227086
O O7 0.346837 0.193747 0.198756
O O8 0.620287 0.552914 0.743179
O O9 0.880131 0.670727 0.916210
O O10 0.108218 0.814821 0.389350
O O11 0.793579 0.816280 0.333486
O O12 0.989386 0.001906 0.163777
#
# Coordination Sequence:
#
# PCOD9574546 Si02
#       6
#     3   3   3   3   3   3
#     4  10  23  43  71 107 145 189 249 309 368 442
#     4  10  23  43  71 107 145 189 249 309 368 442
#     4  10  22  43  69 103 144 192 246 306 370 440
#     4  10  22  43  69 103 144 192 246 306 370 440
#     4  10  20  40  71 106 149 195 238 297 371 446
#     4  10  20  40  71 106 149 195 238 297 371 446
#
# _framework density 25.543979
#
# number of rings (size 3 to 8) (size 9 to 14) (size 15 to 20)
#    0.000    2.000    0.000    5.000    0.000    9.333 
#    0.000    8.333    0.000    0.000    0.000    0.000 
#    0.000    0.000    0.000    0.000    0.000    0.000 
#
# Total GULP energy -100269.806568 kJ/mol
# GULP energy per Si atom -5570.544809 kJ/mol
# Density = 2.548584 g / cm^3
# Si number density = 25.543979 Si / 1000 Ang^3
#
#
#
# Elastic Constant Matrix: (Units=GPa)
#
#
# Indices 1 2 3 4 5 6 
#
# 1 108.1509 36.5654 41.8753 7.1965 -7.2773 0.0000
# 2 36.5654 108.1509 41.8753 -7.1965 7.2773 0.0000
# 3 41.8753 41.8753 70.7155 0.0000 0.0000 0.0000
# 4 7.1965 -7.1965 0.0000 42.3196 0.0000 7.2773
# 5 -7.2773 7.2773 0.0000 0.0000 42.3196 7.1965
# 6 0.0000 0.0000 0.0000 7.2773 7.1965 35.7927
#
#
#
# Elastic Compliance Matrix: (Units=1/GPa)
#
#
# Indices 1 2 3 4 5 6 
#
# 1 0.012760 -0.002247 -0.006225 -0.002552 0.002581 0.000000
# 2 -0.002247 0.012760 -0.006225 0.002552 -0.002581 0.000000
# 3 -0.006225 -0.006225 0.021514 0.000000 0.000000 0.000000
# 4 -0.002552 0.002552 0.000000 0.025385 0.000000 -0.005161
# 5 0.002581 -0.002581 0.000000 0.000000 0.025385 -0.005104
# 6 0.000000 0.000000 0.000000 -0.005161 -0.005104 0.030014
#
#
# Mechanical properties :
#
#
# Convention : Reuss Voigt Hill
#
# Bulk Modulus (GPa) = 56.69468 58.62768 57.66118
# Shear Modulus (GPa) = 30.65728 35.19982 32.92855
#
# Velocity S-wave (km/s) = 3.46811 3.71618 3.59429
# Velocity P-wave (km/s) = 6.18710 6.43543 6.31249
#
# Compressibility (1/GPa) = 0.01763834
#
# Stress axis : x y z
#
# Youngs Moduli (GPa) = 78.37021 78.37021 46.48138
#
# Poissons Ratio (x) = 0.17611 0.28936
# Poissons Ratio (y) = 0.17611 0.28936
# Poissons Ratio (z) = 0.48788 0.48788
#
# Static dielectric constant tensor:
#      x y z
#    x 2.343790 0.000000 0.000000 
#    y 0.000000 2.343790 0.000000 
#    z 0.000000 0.000000 2.019650 
# 
# From -- ./inp_files/608.got.cif
#   From: 2010.05.17/outbox.cif.g08.bks.cpg/sg145_cif.got.tgz:608.got - 2010.05.20 13:47:28.
