data_PCOD9574026
_publ_section_title
;
Structure prediction by ZEFSAII (Michael W. Deem and Ramdas Pophale) SiO2 
 PCOD9574026
Probable space group: I 41/A C D
;
_chemical_formula_sum "Si O2"
_cell_formula_units_Z 144
_cell_length_a 29.222030
_cell_length_b 29.222030
_cell_length_c 8.249728
_cell_angle_alpha 90.000000
_cell_angle_beta 90.000000
_cell_angle_gamma 90.000000
_cell_volume 7044.665790
_symmetry_space_group_name_H-M "I 41/A C D"
_symmetry_group_IT_number 142
_space_group.IT_coordinate_system_code '2'
_symmetry_cell_setting 'tetragonal'
loop_
_space_group_symop_operation_xyz
x,y,z
1/4-y,3/4+x,1/4+z
-x,1/2-y,z
1/4+y,1/4-x,3/4+z
x,-y,1/2-z
1/2-x,y,-z
3/4+y,1/4+x,1/4-z
1/4-y,1/4-x,1/4-z
-x,-y,-z
3/4+y,1/4-x,3/4-z
x,1/2+y,-z
3/4-y,3/4+x,1/4-z
-x,y,1/2+z
1/2+x,-y,z
1/4-y,3/4-x,3/4+z
3/4+y,3/4+x,3/4+z
1/2+x,1/2+y,1/2+z
3/4-y,1/4+x,3/4+z
1/2-x,-y,1/2+z
3/4+y,3/4-x,1/4+z
1/2+x,1/2-y,-z
-x,1/2+y,1/2-z
1/4+y,3/4+x,3/4-z
3/4-y,3/4-x,3/4-z
1/2-x,1/2-y,1/2-z
1/4+y,3/4-x,1/4-z
1/2+x,y,1/2-z
1/4-y,1/4+x,3/4-z
1/2-x,1/2+y,z
x,1/2-y,1/2+z
3/4-y,1/4-x,1/4+z
1/4+y,1/4+x,1/4+z
loop_
_atom_site_type_symbol
_atom_site_label
_atom_site_fract_x
_atom_site_fract_y
_atom_site_fract_z
Si Si1 0.290433 0.040433 0.375000
Si Si2 0.999381 0.000000 0.250000
Si Si3 0.847979 0.478776 0.082243
Si Si4 0.044051 0.840653 0.517590
Si Si5 0.554992 0.054975 0.485313
Si Si6 0.450178 0.299823 0.875000
O O1 0.250000 0.035935 0.500000
O O2 0.273372 0.084954 0.277271
O O3 0.966452 0.020065 0.386480
O O4 0.032734 0.039299 0.183551
O O5 0.863835 0.500000 0.250000
O O6 0.804446 0.445555 0.125000
O O7 0.890034 0.449918 0.010894
O O8 0.080987 0.830987 0.375000
O O9 0.037300 0.894613 0.520535
O O10 0.055286 0.827685 0.704841
O O11 0.000050 0.812924 0.448344
#
# Coordination Sequence:
#
# PCOD9574026 Si02
#       6
#    16  16  32  32  32  16
#     4  12  20  38  65  96 133 176 214 272 340 414
#     4  10  24  46  72  84 134 192 224 282 356 430
#     4  12  23  41  67 100 137 175 221 282 344 412
#     4  12  25  44  70 108 143 185 235 295 357 429
#     4  11  25  47  67  99 133 182 238 284 351 420
#     4  12  25  42  75 104 147 188 232 288 366 430
#
# _framework density 20.440996999999999
#
# number of rings (size 3 to 8) (size 9 to 14) (size 15 to 20)
#    0.000    0.444    6.667    2.333    1.556    0.000 
#    0.000    1.111    0.000    0.000    0.000    0.000 
#    0.000    0.000    0.000    0.000    0.000    0.000 
#
# Total GULP energy -400851.627164 kJ/mol
# GULP energy per Si atom -5567.383711 kJ/mol
# Density = 2.039447 g / cm^3
# Si number density = 20.440997 Si / 1000 Ang^3
#
#
#
# Elastic Constant Matrix: (Units=GPa)
#
#
# Indices 1 2 3 4 5 6 
#
# 1 94.0354 16.6134 16.7435 0.0000 0.0000 0.0000
# 2 16.6134 94.0339 16.7439 0.0000 0.0000 0.0000
# 3 16.7435 16.7439 128.5409 0.0000 0.0000 0.0000
# 4 0.0000 0.0000 0.0000 4.1715 0.0000 0.0000
# 5 0.0000 0.0000 0.0000 0.0000 4.1723 0.0000
# 6 0.0000 0.0000 0.0000 0.0000 0.0000 9.0426
#
#
#
# Elastic Compliance Matrix: (Units=1/GPa)
#
#
# Indices 1 2 3 4 5 6 
#
# 1 0.011162 -0.001754 -0.001226 0.000000 0.000000 0.000000
# 2 -0.001754 0.011163 -0.001226 0.000000 0.000000 0.000000
# 3 -0.001226 -0.001226 0.008099 0.000000 0.000000 0.000000
# 4 0.000000 0.000000 0.000000 0.239722 0.000000 0.000000
# 5 0.000000 0.000000 0.000000 0.000000 0.239678 0.000000
# 6 0.000000 0.000000 0.000000 0.000000 0.000000 0.110588
#
#
# Mechanical properties :
#
#
# Convention : Reuss Voigt Hill
#
# Bulk Modulus (GPa) = 45.42599 46.31242 45.86920
# Shear Modulus (GPa) = 7.85966 21.24457 14.55212
#
# Velocity S-wave (km/s) = 1.96301 3.22733 2.67106
# Velocity P-wave (km/s) = 5.23537 6.04925 5.65696
#
# Compressibility (1/GPa) = 0.02201383
#
# Stress axis : x y z
#
# Youngs Moduli (GPa) = 89.58679 89.58521 123.47346
#
# Poissons Ratio (x) = 0.15712 0.15132
# Poissons Ratio (y) = 0.15712 0.15133
# Poissons Ratio (z) = 0.10979 0.10979
#
# Static dielectric constant tensor:
#      x y z
#    x 1.713250 0.000000 0.000000 
#    y 0.000000 1.713260 0.000000 
#    z 0.000000 0.000000 1.981810 
# 
# From -- ./inp_files/2180.got.cif
#   From: 2010.05.17/outbox.cif.g08.bks.cpg/sg142_2_cif.got.tgz:2180.got - 2010.05.20 13:39:18.
