data_PCOD9574420
_publ_section_title
;
Structure prediction by ZEFSAII (Michael W. Deem and Ramdas Pophale) SiO2 
 PCOD9574420
Probable space group: P 31
;
_chemical_formula_sum "Si O2"
_cell_formula_units_Z 15
_cell_length_a 11.721115
_cell_length_b 11.721115
_cell_length_c 5.958299
_cell_angle_alpha 90.000000
_cell_angle_beta 90.000000
_cell_angle_gamma 120.000000
_cell_volume 708.909472
_symmetry_space_group_name_H-M "P 31"
_symmetry_group_IT_number 144
_symmetry_cell_setting 'hexagonal'
loop_
_space_group_symop_operation_xyz
x,y,z
-y,x-y,1/3+z
-x+y,-x,2/3+z
loop_
_atom_site_type_symbol
_atom_site_label
_atom_site_fract_x
_atom_site_fract_y
_atom_site_fract_z
Si Si1 0.889018 0.017366 0.551710
Si Si2 0.666666 0.966094 0.235897
Si Si3 0.350701 0.555686 0.586750
Si Si4 0.513215 0.469708 0.279153
Si Si5 0.376841 0.196961 0.525974
O O1 0.872359 0.122640 0.698553
O O2 0.011778 0.086732 0.384676
O O3 0.756930 0.939352 0.404185
O O4 0.576402 0.849089 0.067609
O O5 0.572114 0.998767 0.385586
O O6 0.761218 0.093320 0.086209
O O7 0.258381 0.579934 0.420448
O O8 0.455977 0.539028 0.439910
O O9 0.479215 0.333334 0.402564
O O10 0.666667 0.558201 0.235895
#
# Coordination Sequence:
#
# PCOD9574420 Si02
#       5
#     3   3   3   3   3
#     4  11  24  49  69 104 140 186 233 293 351 420
#     4  10  24  48  68 104 140 180 234 286 356 418
#     4  11  24  49  69 104 140 186 233 293 351 420
#     4  10  24  45  73 106 139 180 230 289 350 422
#     4  10  24  45  73 106 139 180 230 289 350 422
#
# _framework density 21.159258999999999
#
# number of rings (size 3 to 8) (size 9 to 14) (size 15 to 20)
#    0.000    1.600    0.000    2.400    2.800    4.800 
#   68.400    0.000    0.000    0.000    0.000    0.000 
#    0.000    0.000    0.000    0.000    0.000    0.000 
#
# Total GULP energy -84012.795935 kJ/mol
# GULP energy per Si atom -5600.853062 kJ/mol
# Density = 2.111110 g / cm^3
# Si number density = 21.159259 Si / 1000 Ang^3
#
#
#
# Elastic Constant Matrix: (Units=GPa)
#
#
# Indices 1 2 3 4 5 6 
#
# 1 123.0780 106.8225 85.3098 -1.3717 -0.0005 0.0000
# 2 106.8225 123.0780 85.3098 1.3717 0.0005 0.0000
# 3 85.3098 85.3098 159.4283 0.0000 0.0000 0.0000
# 4 -1.3717 1.3717 0.0000 15.6471 0.0000 0.0005
# 5 -0.0005 0.0005 0.0000 0.0000 15.6471 -1.3717
# 6 0.0000 0.0000 0.0000 0.0005 -1.3717 8.1278
#
#
#
# Elastic Compliance Matrix: (Units=1/GPa)
#
#
# Indices 1 2 3 4 5 6 
#
# 1 0.034828 -0.027613 -0.003861 0.005474 0.000002 0.000000
# 2 -0.027613 0.034828 -0.003861 -0.005474 -0.000002 0.000000
# 3 -0.003861 -0.003861 0.010404 0.000000 0.000000 0.000000
# 4 0.005474 -0.005474 0.000000 0.064870 0.000000 -0.000004
# 5 0.000002 -0.000002 0.000000 0.000000 0.064870 0.010948
# 6 0.000000 0.000000 0.000000 -0.000004 0.010948 0.124883
#
#
# Mechanical properties :
#
#
# Convention : Reuss Voigt Hill
#
# Bulk Modulus (GPa) = 106.48298 106.71874 106.60086
# Shear Modulus (GPa) = 12.24045 16.42718 14.33382
#
# Velocity S-wave (km/s) = 2.40779 2.78935 2.60556
# Velocity P-wave (km/s) = 7.62652 7.80509 7.71632
#
# Compressibility (1/GPa) = 0.00939117
#
# Stress axis : x y z
#
# Youngs Moduli (GPa) = 28.71243 28.71243 96.11592
#
# Poissons Ratio (x) = 0.79284 0.37107
# Poissons Ratio (y) = 0.79284 0.37107
# Poissons Ratio (z) = 0.11085 0.11085
#
# Static dielectric constant tensor:
#      x y z
#    x 1.731140 0.000000 0.000000 
#    y 0.000000 1.731140 0.000000 
#    z 0.000000 0.000000 1.766030 
# 
# From -- ./inp_files/51.got.cif
#   From: 2010.05.17/outbox.cif.g08.bks.cpg/sg144_cif.got.tgz:51.got - 2010.05.20 13:46:34.
