data_PCOD9574541
_publ_section_title
;
Structure prediction by ZEFSAII (Michael W. Deem and Ramdas Pophale) SiO2 
 PCOD9574541
Probable space group: P 32
;
_chemical_formula_sum "Si O2"
_cell_formula_units_Z 24
_cell_length_a 8.501268
_cell_length_b 8.501268
_cell_length_c 16.703977
_cell_angle_alpha 90.000000
_cell_angle_beta 90.000000
_cell_angle_gamma 120.000000
_cell_volume 1045.485298
_symmetry_space_group_name_H-M "P 32"
_symmetry_group_IT_number 145
_symmetry_cell_setting 'hexagonal'
loop_
_space_group_symop_operation_xyz
x,y,z
-y,x-y,2/3+z
-x+y,-x,1/3+z
loop_
_atom_site_type_symbol
_atom_site_label
_atom_site_fract_x
_atom_site_fract_y
_atom_site_fract_z
Si Si1 0.211645 0.324816 0.001180
Si Si2 0.261249 0.704292 0.055558
Si Si3 0.738751 0.443043 0.964505
Si Si4 0.974475 0.533059 0.830449
Si Si5 0.788355 0.113171 0.018883
Si Si6 0.355117 0.502419 0.243995
Si Si7 0.533059 0.974475 0.522948
Si Si8 0.644883 0.147302 0.776069
O O1 0.278789 0.529083 0.032487
O O2 0.322964 0.260157 0.054529
O O3 0.268724 0.336490 0.909625
O O4 1.000000 0.208024 0.010032
O O5 0.061723 0.615714 0.096574
O O6 0.398206 0.840333 0.124992
O O7 0.335944 0.816194 0.972668
O O8 0.938277 0.553992 0.923489
O O9 0.721211 0.250294 0.987576
O O10 0.601794 0.442127 0.895072
O O11 0.664056 0.480249 0.047395
O O12 0.932234 0.663510 0.777105
O O13 0.812893 0.327932 0.812359
O O14 0.677036 0.937193 0.965534
O O15 0.187107 0.515039 0.207704
O O16 0.471148 0.471148 0.176698
#
# Coordination Sequence:
#
# PCOD9574541 Si02
#       8
#     3   3   3   3   3   3   3   3
#     4  10  20  36  59  85 114 155 195 249 306 373
#     4  10  20  35  58  88 118 156 204 260 304 367
#     4  10  20  35  58  88 118 156 204 260 304 367
#     4  10  20  34  57  84 114 151 205 250 304 364
#     4  10  20  36  59  85 114 155 195 249 306 373
#     4  10  20  36  57  85 122 161 200 248 317 373
#     4  10  20  34  57  84 114 151 205 250 304 364
#     4  10  20  36  57  85 122 161 200 248 317 373
#
# _framework density 22.955849000000001
#
# number of rings (size 3 to 8) (size 9 to 14) (size 15 to 20)
#    0.000    2.000    2.500    1.500    0.000    0.000 
#    0.000    1.250    0.000   12.000    0.000    0.000 
#    0.000    0.000    0.000    0.000    0.000    0.000 
#
# Total GULP energy -133858.711638 kJ/mol
# GULP energy per Si atom -5577.446318 kJ/mol
# Density = 2.290360 g / cm^3
# Si number density = 22.955849 Si / 1000 Ang^3
#
#
#
# Elastic Constant Matrix: (Units=GPa)
#
#
# Indices 1 2 3 4 5 6 
#
# 1 68.7744 42.1216 25.5949 -5.1867 0.0000 0.0000
# 2 42.1216 68.7744 25.5949 5.1867 0.0000 0.0000
# 3 25.5949 25.5949 122.6807 0.0000 0.0000 0.0000
# 4 -5.1867 5.1867 0.0000 34.0680 0.0000 0.0000
# 5 0.0000 0.0000 0.0000 0.0000 34.0680 -5.1867
# 6 0.0000 0.0000 0.0000 0.0000 -5.1867 13.3264
#
#
#
# Elastic Compliance Matrix: (Units=1/GPa)
#
#
# Indices 1 2 3 4 5 6 
#
# 1 0.024931 -0.014952 -0.002082 0.006072 0.000000 0.000000
# 2 -0.014952 0.024931 -0.002082 -0.006072 0.000000 0.000000
# 3 -0.002082 -0.002082 0.009020 0.000000 0.000000 0.000000
# 4 0.006072 -0.006072 0.000000 0.031202 0.000000 0.000000
# 5 0.000000 0.000000 0.000000 0.000000 0.031202 0.012144
# 6 0.000000 0.000000 0.000000 0.000000 0.012144 0.079765
#
#
# Mechanical properties :
#
#
# Convention : Reuss Voigt Hill
#
# Bulk Modulus (GPa) = 48.42723 49.65024 49.03874
# Shear Modulus (GPa) = 20.31160 27.42036 23.86598
#
# Velocity S-wave (km/s) = 2.97781 3.45988 3.22785
# Velocity P-wave (km/s) = 5.74149 6.13486 5.94143
#
# Compressibility (1/GPa) = 0.02064954
#
# Stress axis : x y z
#
# Youngs Moduli (GPa) = 40.11146 40.11146 110.86604
#
# Poissons Ratio (x) = 0.59975 0.23080
# Poissons Ratio (y) = 0.59975 0.23080
# Poissons Ratio (z) = 0.08350 0.08350
#
# Static dielectric constant tensor:
#      x y z
#    x 1.860670 0.000000 0.000000 
#    y 0.000000 1.860670 0.000000 
#    z 0.000000 0.000000 1.954200 
# 
# From -- ./inp_files/837.got.cif
#   From: 2010.05.17/outbox.cif.g08.bks.cpg/sg145_cif.got.tgz:837.got - 2010.05.20 13:47:28.
