data_PCOD9574226
_publ_section_title
;
Structure prediction by ZEFSAII (Michael W. Deem and Ramdas Pophale) SiO2 
 PCOD9574226
Probable space group: I 41/A C D
;
_chemical_formula_sum "Si O2"
_cell_formula_units_Z 56
_cell_length_a 16.738333
_cell_length_b 16.738333
_cell_length_c 7.335353
_cell_angle_alpha 90.000000
_cell_angle_beta 90.000000
_cell_angle_gamma 90.000000
_cell_volume 2055.158992
_symmetry_space_group_name_H-M "I 41/A C D"
_symmetry_group_IT_number 142
_space_group.IT_coordinate_system_code '2'
_symmetry_cell_setting 'tetragonal'
loop_
_space_group_symop_operation_xyz
x,y,z
1/4-y,3/4+x,1/4+z
-x,1/2-y,z
1/4+y,1/4-x,3/4+z
x,-y,1/2-z
1/2-x,y,-z
3/4+y,1/4+x,1/4-z
1/4-y,1/4-x,1/4-z
-x,-y,-z
3/4+y,1/4-x,3/4-z
x,1/2+y,-z
3/4-y,3/4+x,1/4-z
-x,y,1/2+z
1/2+x,-y,z
1/4-y,3/4-x,3/4+z
3/4+y,3/4+x,3/4+z
1/2+x,1/2+y,1/2+z
3/4-y,1/4+x,3/4+z
1/2-x,-y,1/2+z
3/4+y,3/4-x,1/4+z
1/2+x,1/2-y,-z
-x,1/2+y,1/2-z
1/4+y,3/4+x,3/4-z
3/4-y,3/4-x,3/4-z
1/2-x,1/2-y,1/2-z
1/4+y,3/4-x,1/4-z
1/2+x,y,1/2-z
1/4-y,1/4+x,3/4-z
1/2-x,1/2+y,z
x,1/2-y,1/2+z
3/4-y,1/4-x,1/4+z
1/4+y,1/4+x,1/4+z
loop_
_atom_site_type_symbol
_atom_site_label
_atom_site_fract_x
_atom_site_fract_y
_atom_site_fract_z
Si Si1 0.328352 0.421649 0.375000
Si Si2 0.432729 0.589138 0.775180
Si Si3 0.000000 0.250000 0.875000
O O1 0.329445 0.500000 0.250000
O O2 0.397397 0.417772 0.523326
O O3 0.466510 0.500000 0.750000
O O4 0.365029 0.615029 0.625000
O O5 0.492178 0.664236 0.775890
#
# Coordination Sequence:
#
# PCOD9574226 Si02
#       3
#    16  32   8
#     4  12  24  47  86 132 174 227 304 376 448 546
#     4  12  28  54  84 128 178 239 304 375 451 534
#     4  12  34  56  86 130 188 242 310 372 446 546
#
# _framework density 27.248501999999998
#
# number of rings (size 3 to 8) (size 9 to 14) (size 15 to 20)
#    0.000    0.000    5.714    2.571    8.000    4.571 
#    0.000    0.000    0.000    0.000    0.000    0.000 
#    0.000    0.000    0.000    0.000    0.000    0.000 
#
# Total GULP energy -156943.117612 kJ/mol
# GULP energy per Si atom -5605.111343 kJ/mol
# Density = 2.718648 g / cm^3
# Si number density = 27.248502 Si / 1000 Ang^3
#
#
#
# Elastic Constant Matrix: (Units=GPa)
#
#
# Indices 1 2 3 4 5 6 
#
# 1 205.2668 97.6744 69.2368 0.0000 0.0000 0.0000
# 2 97.6744 205.2670 69.2350 0.0000 0.0000 0.0000
# 3 69.2368 69.2350 208.1371 0.0000 0.0000 0.0000
# 4 0.0000 0.0000 0.0000 52.6203 0.0000 0.0000
# 5 0.0000 0.0000 0.0000 0.0000 52.6203 0.0000
# 6 0.0000 0.0000 0.0000 0.0000 0.0000 39.2721
#
#
#
# Elastic Compliance Matrix: (Units=1/GPa)
#
#
# Indices 1 2 3 4 5 6 
#
# 1 0.006594 -0.002701 -0.001295 0.000000 0.000000 0.000000
# 2 -0.002701 0.006594 -0.001295 0.000000 0.000000 0.000000
# 3 -0.001295 -0.001295 0.005666 0.000000 0.000000 0.000000
# 4 0.000000 0.000000 0.000000 0.019004 0.000000 0.000000
# 5 0.000000 0.000000 0.000000 0.000000 0.019004 0.000000
# 6 0.000000 0.000000 0.000000 0.000000 0.000000 0.025463
#
#
# Mechanical properties :
#
#
# Convention : Reuss Voigt Hill
#
# Bulk Modulus (GPa) = 120.88965 121.21812 121.05388
# Shear Modulus (GPa) = 52.26662 54.40418 53.33540
#
# Velocity S-wave (km/s) = 4.38442 4.47317 4.42902
# Velocity P-wave (km/s) = 8.37214 8.44167 8.40698
#
# Compressibility (1/GPa) = 0.00827201
#
# Stress axis : x y z
#
# Youngs Moduli (GPa) = 151.66154 151.66279 176.49000
#
# Poissons Ratio (x) = 0.40960 0.22855
# Poissons Ratio (y) = 0.40960 0.22854
# Poissons Ratio (z) = 0.19640 0.19639
#
# Static dielectric constant tensor:
#      x y z
#    x 2.140180 0.000000 0.000000 
#    y 0.000000 2.140180 0.000000 
#    z 0.000000 0.000000 2.174380 
# 
# From -- ./inp_files/1013.got.cif
#   From: 2010.05.17/outbox.cif.g08.bks.cpg/sg142_1_cif.got.tgz:1013.got - 2010.05.20 13:39:18.
