data_PCOD9574808
_publ_section_title
;
Structure prediction by ZEFSAII (Michael W. Deem and Ramdas Pophale) SiO2 
 PCOD9574808
Probable space group: R 3
;
_chemical_formula_sum "Si O2"
_cell_formula_units_Z 45
_cell_length_a 14.128905
_cell_length_b 14.128905
_cell_length_c 11.227291
_cell_angle_alpha 90.000000
_cell_angle_beta 90.000000
_cell_angle_gamma 120.000000
_cell_volume 1940.986975
_symmetry_space_group_name_H-M "R 3"
_symmetry_group_IT_number 146
_symmetry_cell_setting 'hexagonal'
loop_
_space_group_symop_operation_xyz
x,y,z
-y,x-y,z
-x+y,-x,z
2/3+x,1/3+y,1/3+z
2/3-y,1/3+x-y,1/3+z
2/3-x+y,1/3-x,1/3+z
1/3+x,2/3+y,2/3+z
1/3-y,2/3+x-y,2/3+z
1/3-x+y,2/3-x,2/3+z
loop_
_atom_site_type_symbol
_atom_site_label
_atom_site_fract_x
_atom_site_fract_y
_atom_site_fract_z
Si Si1 0.522845 0.399396 0.144000
Si Si2 0.194994 0.473527 0.235216
Si Si3 0.103228 0.466597 0.882405
Si Si4 0.500387 0.592389 0.603152
Si Si5 0.156593 0.210010 0.421361
O O1 0.619500 0.501872 0.213979
O O2 0.476255 0.288729 0.218489
O O3 0.426215 0.422371 0.103610
O O4 0.579412 0.399596 0.019782
O O5 0.094189 0.355125 0.262888
O O6 0.150468 0.548454 0.187071
O O7 0.262997 0.460971 0.127363
O O8 0.105760 0.496730 0.744987
O O9 0.130206 0.369150 0.898822
O O10 0.153443 0.574961 0.964909
#
# Coordination Sequence:
#
# PCOD9574808 Si02
#       5
#     9   9   9   9   9
#     4  11  26  41  76 111 146 199 255 314 378 457
#     4  11  22  45  70 108 147 197 252 301 378 448
#     4  11  24  46  75 105 159 200 240 317 401 434
#     4  12  24  48  73 109 155 197 254 318 386 459
#     4  11  24  44  74 109 145 201 253 312 373 462
#
# _framework density 23.184080000000002
#
# number of rings (size 3 to 8) (size 9 to 14) (size 15 to 20)
#    0.000    0.800    4.000    3.200    2.800    4.800 
#    0.000    0.000    0.000    0.000    0.000    0.000 
#    0.000    0.000    0.000    0.000    0.000    0.000 
#
# Total GULP energy -83851.153174 kJ/mol
# GULP energy per Si atom -5590.076878 kJ/mol
# Density = 2.313131 g / cm^3
# Si number density = 23.184080 Si / 1000 Ang^3
#
#
#
# Elastic Constant Matrix: (Units=GPa)
#
#
# Indices 1 2 3 4 5 6 
#
# 1 64.6478 3.4099 16.5868 1.0313 -4.9336 0.0000
# 2 3.4099 64.6478 16.5868 -1.0313 4.9336 0.0000
# 3 16.5868 16.5868 171.3557 0.0000 0.0000 0.0000
# 4 1.0313 -1.0313 0.0000 29.8307 0.0000 4.9336
# 5 -4.9336 4.9336 0.0000 0.0000 29.8307 1.0313
# 6 0.0000 0.0000 0.0000 4.9336 1.0313 30.6189
#
#
#
# Elastic Compliance Matrix: (Units=1/GPa)
#
#
# Indices 1 2 3 4 5 6 
#
# 1 0.016109 -0.000688 -0.001493 -0.000581 0.002778 0.000000
# 2 -0.000688 0.016109 -0.001493 0.000581 -0.002778 0.000000
# 3 -0.001493 -0.001493 0.006125 0.000000 0.000000 0.000000
# 4 -0.000581 0.000581 0.000000 0.034482 0.000000 -0.005556
# 5 0.002778 -0.002778 0.000000 0.000000 0.034482 -0.001161
# 6 0.000000 0.000000 0.000000 -0.005556 -0.001161 0.033594
#
#
# Mechanical properties :
#
#
# Convention : Reuss Voigt Hill
#
# Bulk Modulus (GPa) = 32.26225 41.53536 36.89880
# Shear Modulus (GPa) = 31.53014 35.66059 33.59536
#
# Velocity S-wave (km/s) = 3.69181 3.92618 3.81080
# Velocity P-wave (km/s) = 5.66732 6.20544 5.94248
#
# Compressibility (1/GPa) = 0.03099598
#
# Stress axis : x y z
#
# Youngs Moduli (GPa) = 62.07718 62.07718 163.27074
#
# Poissons Ratio (x) = 0.04271 0.24372
# Poissons Ratio (y) = 0.04271 0.24372
# Poissons Ratio (z) = 0.09266 0.09266
#
# Static dielectric constant tensor:
#      x y z
#    x 1.877180 0.000000 0.000000 
#    y 0.000000 1.877180 0.000000 
#    z 0.000000 0.000000 1.880370 
# 
# From -- ./inp_files/1063.got.cif
#   From: 2010.05.17/outbox.cif.g08.bks.cpg/sg146_cif.got.tgz:1063.got - 2010.05.20 13:48:23.
