data_PCOD9574259
_publ_section_title
;
Structure prediction by ZEFSAII (Michael W. Deem and Ramdas Pophale) SiO2 
 PCOD9574259
Probable space group: I 41/A C D
;
_chemical_formula_sum "Si O2"
_cell_formula_units_Z 88
_cell_length_a 18.000000
_cell_length_b 18.000000
_cell_length_c 27.000000
_cell_angle_alpha 90.000000
_cell_angle_beta 90.000000
_cell_angle_gamma 90.000000
_cell_volume 8748.000000
_symmetry_space_group_name_H-M "I 41/A C D"
_symmetry_group_IT_number 142
_space_group.IT_coordinate_system_code '2'
_symmetry_cell_setting 'tetragonal'
loop_
_space_group_symop_operation_xyz
x,y,z
1/4-y,3/4+x,1/4+z
-x,1/2-y,z
1/4+y,1/4-x,3/4+z
x,-y,1/2-z
1/2-x,y,-z
3/4+y,1/4+x,1/4-z
1/4-y,1/4-x,1/4-z
-x,-y,-z
3/4+y,1/4-x,3/4-z
x,1/2+y,-z
3/4-y,3/4+x,1/4-z
-x,y,1/2+z
1/2+x,-y,z
1/4-y,3/4-x,3/4+z
3/4+y,3/4+x,3/4+z
1/2+x,1/2+y,1/2+z
3/4-y,1/4+x,3/4+z
1/2-x,-y,1/2+z
3/4+y,3/4-x,1/4+z
1/2+x,1/2-y,-z
-x,1/2+y,1/2-z
1/4+y,3/4+x,3/4-z
3/4-y,3/4-x,3/4-z
1/2-x,1/2-y,1/2-z
1/4+y,3/4-x,1/4-z
1/2+x,y,1/2-z
1/4-y,1/4+x,3/4-z
1/2-x,1/2+y,z
x,1/2-y,1/2+z
3/4-y,1/4-x,1/4+z
1/4+y,1/4+x,1/4+z
loop_
_atom_site_type_symbol
_atom_site_label
_atom_site_fract_x
_atom_site_fract_y
_atom_site_fract_z
Si Si1 0.027152 0.910831 0.235015
Si Si2 0.175198 0.321428 0.795586
Si Si3 0.228536 0.146177 0.798380
Si Si4 0.699289 0.345358 0.591115
Si Si5 0.963089 0.115528 0.163229
Si Si6 0.367117 0.117117 0.875000
O O1 0.097932 0.856181 0.226727
O O2 0.979190 0.917433 0.184844
O O3 0.973621 0.874602 0.277396
O O4 0.043649 0.000000 0.250000
O O5 0.193471 0.231495 0.802410
O O6 0.237560 0.351940 0.757245
O O7 0.178709 0.352332 0.851291
O O8 0.164240 0.086506 0.811019
O O9 0.298164 0.122607 0.835269
O O10 0.788332 0.332547 0.590608
O O11 0.923657 0.173657 0.125000
O O12 0.050339 0.110594 0.148492
#
# Coordination Sequence:
#
# PCOD9574259 Si02
#       6
#    32  32  32  32  32  16
#     4  10  24  47  71 103 150 194 248 309 377 447
#     4  11  23  45  73 104 150 198 241 309 380 457
#     4  11  26  43  73 112 148 193 253 300 388 457
#     4  11  25  44  72 110 147 186 253 310 376 448
#     4  11  25  46  73 102 143 197 251 299 368 453
#     4  12  23  50  68 104 144 197 240 300 370 454
#
# _framework density 10.059442000000001
#
# number of rings (size 3 to 8) (size 9 to 14) (size 15 to 20)
#    0.000    1.091    3.636    1.364    6.364    0.727 
#    3.273    1.818    0.000    0.000    0.000    0.000 
#    0.000    0.000    0.000    0.000    0.000    0.000 
#
# Total GULP energy -490533.436550 kJ/mol
# GULP energy per Si atom -5574.243597 kJ/mol
# Density = 1.003655 g / cm^3
# Si number density = 10.059442 Si / 1000 Ang^3
#
#
#
# Elastic Constant Matrix: (Units=GPa)
#
#
# Indices 1 2 3 4 5 6 
#
# 1 120.1903 65.8295 40.8746 0.0000 0.0000 0.0000
# 2 65.8295 120.1903 40.8746 0.0000 0.0000 0.0000
# 3 40.8746 40.8746 144.4002 0.0000 0.0000 0.0000
# 4 0.0000 0.0000 0.0000 42.7800 0.0000 0.0000
# 5 0.0000 0.0000 0.0000 0.0000 42.7800 0.0000
# 6 0.0000 0.0000 0.0000 0.0000 0.0000 46.4180
#
#
#
# Elastic Compliance Matrix: (Units=1/GPa)
#
#
# Indices 1 2 3 4 5 6 
#
# 1 0.012268 -0.006128 -0.001738 0.000000 0.000000 0.000000
# 2 -0.006128 0.012268 -0.001738 0.000000 0.000000 0.000000
# 3 -0.001738 -0.001738 0.007909 0.000000 0.000000 0.000000
# 4 0.000000 0.000000 0.000000 0.023375 0.000000 0.000000
# 5 0.000000 0.000000 0.000000 0.000000 0.023375 0.000000
# 6 0.000000 0.000000 0.000000 0.000000 0.000000 0.021543
#
#
# Mechanical properties :
#
#
# Convention : Reuss Voigt Hill
#
# Bulk Modulus (GPa) = 75.54830 75.54869 75.54850
# Shear Modulus (GPa) = 40.20644 42.20907 41.20776
#
# Velocity S-wave (km/s) = 4.47524 4.58534 4.53063
# Velocity P-wave (km/s) = 8.02099 8.10349 8.06234
#
# Compressibility (1/GPa) = 0.01323657
#
# Stress axis : x y z
#
# Youngs Moduli (GPa) = 81.51576 81.51576 126.43725
#
# Poissons Ratio (x) = 0.49953 0.21973
# Poissons Ratio (y) = 0.49953 0.21973
# Poissons Ratio (z) = 0.14166 0.14166
#
# Static dielectric constant tensor:
#      x y z
#    x 1.726550 0.000000 0.000000 
#    y 0.000000 1.726550 0.000000 
#    z 0.000000 0.000000 1.768970 
# 
# From -- ./inp_files/11446.got.cif
#   From: 2010.05.17/outbox.ucp.g08.bks.cvg/sg142_6_cif.got.tgz:11446.got - 2010.06.11 11:43:53.
