data_PCOD9574839
_publ_section_title
;
Structure prediction by ZEFSAII (Michael W. Deem and Ramdas Pophale) SiO2 
 PCOD9574839
Probable space group: R 3
;
_chemical_formula_sum "Si O2"
_cell_formula_units_Z 33
_cell_length_a 13.005835
_cell_length_b 13.005835
_cell_length_c 8.307162
_cell_angle_alpha 90.000000
_cell_angle_beta 90.000000
_cell_angle_gamma 120.000000
_cell_volume 1216.913731
_symmetry_space_group_name_H-M "R 3"
_symmetry_group_IT_number 146
_symmetry_cell_setting 'hexagonal'
loop_
_space_group_symop_operation_xyz
x,y,z
-y,x-y,z
-x+y,-x,z
2/3+x,1/3+y,1/3+z
2/3-y,1/3+x-y,1/3+z
2/3-x+y,1/3-x,1/3+z
1/3+x,2/3+y,2/3+z
1/3-y,2/3+x-y,2/3+z
1/3-x+y,2/3-x,2/3+z
loop_
_atom_site_type_symbol
_atom_site_label
_atom_site_fract_x
_atom_site_fract_y
_atom_site_fract_z
Si Si1 0.482480 0.398551 0.603550
Si Si2 0.162897 0.725113 0.296368
Si Si3 0.018202 0.274326 0.808357
Si Si4 0.666668 0.333334 0.443561
Si Si5 0.333333 0.666668 0.390230
O O1 0.346446 0.298049 0.634010
O O2 0.536824 0.436977 0.781379
O O3 0.492661 0.511437 0.513229
O O4 0.558224 0.349532 0.509435
O O5 0.240391 0.810879 0.441466
O O6 0.204091 0.627631 0.314891
O O7 0.020793 0.339247 0.642969
O O8 0.666668 0.333334 0.249839
#
# Coordination Sequence:
#
# PCOD9574839 Si02
#       5
#     9   9   9   3   3
#     4  12  29  53  89 134 186 246 316 397 469 569
#     4  12  30  51  89 131 185 247 316 390 477 564
#     4  12  26  53  90 135 184 244 311 390 470 564
#     4  12  28  59  85 135 190 242 319 394 470 574
#     4  12  31  56  85 135 187 251 316 391 482 565
#
# _framework density 27.117781999999998
#
# number of rings (size 3 to 8) (size 9 to 14) (size 15 to 20)
#    0.000    0.000    2.727    4.909   11.455    0.000 
#    0.000    0.000    0.000    0.000    0.000    0.000 
#    0.000    0.000    0.000    0.000    0.000    0.000 
#
# Total GULP energy -61537.977497 kJ/mol
# GULP energy per Si atom -5594.361591 kJ/mol
# Density = 2.705606 g / cm^3
# Si number density = 27.117782 Si / 1000 Ang^3
#
#
#
# Elastic Constant Matrix: (Units=GPa)
#
#
# Indices 1 2 3 4 5 6 
#
# 1 154.8223 75.1802 47.9225 -3.9620 -2.2680 0.0001
# 2 75.1802 154.8231 47.9225 3.9614 2.2682 0.0006
# 3 47.9225 47.9225 196.6414 0.0000 0.0001 0.0003
# 4 -3.9620 3.9614 0.0000 59.9975 0.0002 2.2686
# 5 -2.2680 2.2682 0.0001 0.0002 59.9970 -3.9617
# 6 0.0001 0.0006 0.0003 2.2686 -3.9617 39.8218
#
#
#
# Elastic Compliance Matrix: (Units=1/GPa)
#
#
# Indices 1 2 3 4 5 6 
#
# 1 0.008753 -0.003914 -0.001179 0.000836 0.000479 0.000000
# 2 -0.003914 0.008753 -0.001179 -0.000836 -0.000479 0.000000
# 3 -0.001179 -0.001179 0.005660 0.000000 0.000000 0.000000
# 4 0.000836 -0.000836 0.000000 0.016814 0.000000 -0.000958
# 5 0.000479 -0.000479 0.000000 0.000000 0.016814 0.001673
# 6 0.000000 0.000000 0.000000 -0.000958 0.001673 0.025333
#
#
# Mechanical properties :
#
#
# Convention : Reuss Voigt Hill
#
# Bulk Modulus (GPa) = 94.15052 94.25969 94.20511
# Shear Modulus (GPa) = 50.91016 54.31405 52.61211
#
# Velocity S-wave (km/s) = 4.33757 4.48023 4.40947
# Velocity P-wave (km/s) = 7.73825 7.84844 7.79354
#
# Compressibility (1/GPa) = 0.01062129
#
# Stress axis : x y z
#
# Youngs Moduli (GPa) = 114.24749 114.24818 176.67156
#
# Poissons Ratio (x) = 0.44713 0.20836
# Poissons Ratio (y) = 0.44713 0.20835
# Poissons Ratio (z) = 0.13474 0.13474
#
# Static dielectric constant tensor:
#      x y z
#    x 2.263140 -0.000010 0.000000 
#    y -0.000010 2.263130 0.000000 
#    z 0.000000 0.000000 2.021200 
# 
# From -- ./inp_files/554.got.cif
#   From: 2010.05.17/outbox.cif.g08.bks.cpg/sg146_cif.got.tgz:554.got - 2010.05.20 13:48:23.
