data_PCOD9574589
_publ_section_title
;
Structure prediction by ZEFSAII (Michael W. Deem and Ramdas Pophale) SiO2 
 PCOD9574589
Probable space group: P 32
;
_chemical_formula_sum "Si O2"
_cell_formula_units_Z 24
_cell_length_a 14.447599
_cell_length_b 14.447599
_cell_length_c 5.490680
_cell_angle_alpha 90.000000
_cell_angle_beta 90.000000
_cell_angle_gamma 120.000000
_cell_volume 992.540241
_symmetry_space_group_name_H-M "P 32"
_symmetry_group_IT_number 145
_symmetry_cell_setting 'hexagonal'
loop_
_space_group_symop_operation_xyz
x,y,z
-y,x-y,2/3+z
-x+y,-x,1/3+z
loop_
_atom_site_type_symbol
_atom_site_label
_atom_site_fract_x
_atom_site_fract_y
_atom_site_fract_z
Si Si1 0.454806 0.397801 0.847920
Si Si2 0.509581 0.681152 0.217622
Si Si3 0.036081 0.254617 0.728100
Si Si4 0.419723 0.095699 0.385095
Si Si5 0.560034 0.324802 0.187524
Si Si6 0.155824 0.591146 0.037031
Si Si7 0.904789 0.006179 0.245107
Si Si8 0.846941 0.162387 0.393404
O O1 0.559508 0.478859 0.694575
O O2 0.383336 0.451102 0.816579
O O3 0.390722 0.275946 0.774421
O O4 0.507460 0.393556 0.101121
O O5 0.638765 0.753694 0.238655
O O6 0.470480 0.594992 0.441902
O O7 0.450919 0.745573 0.302767
O O8 0.472675 0.640659 0.937668
O O9 0.092795 0.182515 0.752428
O O10 0.921375 0.168411 0.613595
O O11 0.994100 0.303381 0.936722
O O12 0.465916 0.219123 0.311652
O O13 0.386638 0.099737 0.661117
O O14 0.672649 0.399881 0.315851
O O15 0.923396 0.947277 0.020809
O O16 0.862328 0.088004 0.198139
#
# Coordination Sequence:
#
# PCOD9574589 Si02
#       8
#     3   3   3   3   3   3   3   3
#     4  12  24  42  65 103 138 184 242 296 358 451
#     4  12  26  50  73 109 140 195 244 312 376 441
#     4  11  24  43  70 102 143 184 242 301 374 435
#     4  12  23  41  64  96 141 188 230 294 359 443
#     4  12  24  39  63  95 139 186 227 278 351 437
#     4  12  27  47  77 101 145 186 250 307 374 442
#     4  10  22  44  72 100 136 180 238 301 368 437
#     4  11  24  44  66 102 142 183 241 299 372 444
#
# _framework density 24.180378999999999
#
# number of rings (size 3 to 8) (size 9 to 14) (size 15 to 20)
#    0.000    0.500    3.750    5.250    1.750    1.000 
#    0.000    1.250    0.000    0.000    0.000    0.000 
#    0.000    0.000    0.000    0.000    0.000    0.000 
#
# Total GULP energy -133744.316209 kJ/mol
# GULP energy per Si atom -5572.679842 kJ/mol
# Density = 2.412534 g / cm^3
# Si number density = 24.180379 Si / 1000 Ang^3
#
#
#
# Elastic Constant Matrix: (Units=GPa)
#
#
# Indices 1 2 3 4 5 6 
#
# 1 104.9542 6.5727 8.5989 2.0922 1.8842 0.0000
# 2 6.5727 104.9542 8.5989 -2.0922 -1.8842 0.0000
# 3 8.5989 8.5989 56.9664 0.0000 0.0000 0.0000
# 4 2.0922 -2.0922 0.0000 27.2263 0.0000 -1.8842
# 5 1.8842 -1.8842 0.0000 0.0000 27.2263 2.0922
# 6 0.0000 0.0000 0.0000 -1.8842 2.0922 49.1908
#
#
#
# Elastic Compliance Matrix: (Units=1/GPa)
#
#
# Indices 1 2 3 4 5 6 
#
# 1 0.009703 -0.000522 -0.001386 -0.000786 -0.000708 0.000000
# 2 -0.000522 0.009703 -0.001386 0.000786 0.000708 0.000000
# 3 -0.001386 -0.001386 0.017973 0.000000 0.000000 0.000000
# 4 -0.000786 0.000786 0.000000 0.036948 0.000000 0.001415
# 5 -0.000708 0.000708 0.000000 0.000000 0.036948 -0.001571
# 6 0.000000 0.000000 0.000000 0.001415 -0.001571 0.020450
#
#
# Mechanical properties :
#
#
# Convention : Reuss Voigt Hill
#
# Bulk Modulus (GPa) = 32.47813 34.93509 33.70661
# Shear Modulus (GPa) = 33.65312 36.93564 35.29438
#
# Velocity S-wave (km/s) = 3.73467 3.91257 3.82465
# Velocity P-wave (km/s) = 5.66196 5.90678 5.78566
#
# Compressibility (1/GPa) = 0.03078995
#
# Stress axis : x y z
#
# Youngs Moduli (GPa) = 103.06538 103.06538 55.64039
#
# Poissons Ratio (x) = 0.05385 0.07710
# Poissons Ratio (y) = 0.05385 0.07710
# Poissons Ratio (z) = 0.14282 0.14282
#
# Static dielectric constant tensor:
#      x y z
#    x 2.007100 0.000000 0.000000 
#    y 0.000000 2.007100 0.000000 
#    z 0.000000 0.000000 2.071980 
# 
# From -- ./inp_files/158.got.cif
#   From: 2010.05.17/outbox.cif.g08.bks.cpg/sg145_cif.got.tgz:158.got - 2010.05.20 13:47:28.
