data_PCOD9574173
_publ_section_title
;
Structure prediction by ZEFSAII (Michael W. Deem and Ramdas Pophale) SiO2 
 PCOD9574173
Probable space group: I 41/A C D
;
_chemical_formula_sum "Si O2"
_cell_formula_units_Z 160
_cell_length_a 19.637741
_cell_length_b 19.637741
_cell_length_c 18.491158
_cell_angle_alpha 90.000000
_cell_angle_beta 90.000000
_cell_angle_gamma 90.000000
_cell_volume 7130.946288
_symmetry_space_group_name_H-M "I 41/A C D"
_symmetry_group_IT_number 142
_space_group.IT_coordinate_system_code '2'
_symmetry_cell_setting 'tetragonal'
loop_
_space_group_symop_operation_xyz
x,y,z
1/4-y,3/4+x,1/4+z
-x,1/2-y,z
1/4+y,1/4-x,3/4+z
x,-y,1/2-z
1/2-x,y,-z
3/4+y,1/4+x,1/4-z
1/4-y,1/4-x,1/4-z
-x,-y,-z
3/4+y,1/4-x,3/4-z
x,1/2+y,-z
3/4-y,3/4+x,1/4-z
-x,y,1/2+z
1/2+x,-y,z
1/4-y,3/4-x,3/4+z
3/4+y,3/4+x,3/4+z
1/2+x,1/2+y,1/2+z
3/4-y,1/4+x,3/4+z
1/2-x,-y,1/2+z
3/4+y,3/4-x,1/4+z
1/2+x,1/2-y,-z
-x,1/2+y,1/2-z
1/4+y,3/4+x,3/4-z
3/4-y,3/4-x,3/4-z
1/2-x,1/2-y,1/2-z
1/4+y,3/4-x,1/4-z
1/2+x,y,1/2-z
1/4-y,1/4+x,3/4-z
1/2-x,1/2+y,z
x,1/2-y,1/2+z
3/4-y,1/4-x,1/4+z
1/4+y,1/4+x,1/4+z
loop_
_atom_site_type_symbol
_atom_site_label
_atom_site_fract_x
_atom_site_fract_y
_atom_site_fract_z
Si Si1 0.352565 0.556115 0.299343
Si Si2 0.746035 0.736149 0.373466
Si Si3 0.618398 0.187014 0.301003
Si Si4 0.642639 0.006775 0.835459
Si Si5 0.005628 0.655966 0.581856
O O1 0.314854 0.500000 0.250000
O O2 0.421854 0.519033 0.324737
O O3 0.369544 0.620570 0.249009
O O4 0.307371 0.579253 0.367573
O O5 0.809032 0.716867 0.323758
O O6 0.759396 0.810412 0.407164
O O7 0.674358 0.740099 0.332874
O O8 0.581902 0.168099 0.375000
O O9 0.576742 0.237859 0.249983
O O10 0.678749 0.071252 0.875000
O O11 0.657821 0.000000 0.750000
O O12 0.069832 0.695170 0.614429
#
# Coordination Sequence:
#
# PCOD9574173 Si02
#       5
#    32  32  32  32  32
#     4  12  26  49  78 108 153 201 260 319 396 469
#     4  12  25  48  79 108 153 195 258 318 398 462
#     4  12  26  45  80 112 142 200 268 317 381 478
#     4  12  30  47  74 115 160 203 257 329 401 476
#     4  11  24  46  75 106 154 206 247 311 396 470
#
# _framework density 22.437415000000001
#
# number of rings (size 3 to 8) (size 9 to 14) (size 15 to 20)
#    0.000    0.200    6.000    1.800    5.600    1.600 
#    0.000    4.000    0.000    0.000    0.000    0.000 
#    0.000    0.000    0.000    0.000    0.000    0.000 
#
# Total GULP energy -447428.698445 kJ/mol
# GULP energy per Si atom -5592.858731 kJ/mol
# Density = 2.238635 g / cm^3
# Si number density = 22.437415 Si / 1000 Ang^3
#
#
#
# Elastic Constant Matrix: (Units=GPa)
#
#
# Indices 1 2 3 4 5 6 
#
# 1 108.6914 58.2823 58.4126 0.0000 0.0000 0.0000
# 2 58.2823 108.6851 58.4109 0.0000 0.0000 0.0000
# 3 58.4126 58.4109 193.6141 0.0000 0.0000 0.0000
# 4 0.0000 0.0000 0.0000 29.8502 0.0000 0.0000
# 5 0.0000 0.0000 0.0000 0.0000 29.8501 0.0000
# 6 0.0000 0.0000 0.0000 0.0000 0.0000 -123.1778
#
#
#
# Elastic Compliance Matrix: (Units=1/GPa)
#
#
# Indices 1 2 3 4 5 6 
#
# 1 0.013715 -0.006124 -0.002290 0.000000 0.000000 0.000000
# 2 -0.006124 0.013716 -0.002290 0.000000 0.000000 0.000000
# 3 -0.002290 -0.002290 0.006547 0.000000 0.000000 0.000000
# 4 0.000000 0.000000 0.000000 0.033501 0.000000 0.000000
# 5 0.000000 0.000000 0.000000 0.000000 0.033501 0.000000
# 6 0.000000 0.000000 0.000000 0.000000 0.000000 -0.008118
#
#
# Mechanical properties :
#
#
# Convention : Reuss Voigt Hill
#
# Bulk Modulus (GPa) = 79.56278 84.57802 82.07040
# Shear Modulus (GPa) = 42.20890 3.03016 22.61953
#
# Velocity S-wave (km/s) = 4.34197 1.16337 3.17853
# Velocity P-wave (km/s) = 7.78934 6.29138 7.08009
#
# Compressibility (1/GPa) = 0.01256869
#
# Stress axis : x y z
#
# Youngs Moduli (GPa) = 72.91382 72.90963 152.74540
#
# Poissons Ratio (x) = 0.44648 0.34983
# Poissons Ratio (y) = 0.44650 0.34984
# Poissons Ratio (z) = 0.16699 0.16699
#
# Static dielectric constant tensor:
#      x y z
#    x 1.851640 0.000000 0.000000 
#    y 0.000000 1.851640 0.000000 
#    z 0.000000 0.000000 1.859590 
# 
# From -- ./inp_files/7382.got.cif
#   From: 2010.05.17/outbox.cif.g08.bks.cpg/sg142_4_cif.got.tgz:7382.got - 2010.05.20 13:39:18.
