data_PCOD9574334
_publ_section_title
;
Structure prediction by ZEFSAII (Michael W. Deem and Ramdas Pophale) SiO2 
 PCOD9574334
Probable space group: P 31
;
_chemical_formula_sum "Si O2"
_cell_formula_units_Z 21
_cell_length_a 5.520187
_cell_length_b 5.520187
_cell_length_c 29.536480
_cell_angle_alpha 90.000000
_cell_angle_beta 90.000000
_cell_angle_gamma 120.000000
_cell_volume 779.465592
_symmetry_space_group_name_H-M "P 31"
_symmetry_group_IT_number 144
_symmetry_cell_setting 'hexagonal'
loop_
_space_group_symop_operation_xyz
x,y,z
-y,x-y,1/3+z
-x+y,-x,2/3+z
loop_
_atom_site_type_symbol
_atom_site_label
_atom_site_fract_x
_atom_site_fract_y
_atom_site_fract_z
Si Si1 0.069099 0.673384 0.807290
Si Si2 0.092565 0.256538 0.597592
Si Si3 0.436759 0.601526 0.387176
Si Si4 0.640695 0.347800 0.569465
Si Si5 0.219221 0.246506 0.826853
Si Si6 0.847234 0.433069 0.405268
Si Si7 0.287274 0.303156 0.975138
O O1 0.028039 0.914525 0.828503
O O2 0.812742 0.503666 0.774175
O O3 0.340085 0.823085 0.774340
O O4 0.110332 0.459740 0.837995
O O5 0.324183 0.275047 0.562688
O O6 0.172183 0.565308 0.615792
O O7 0.090958 0.029412 0.632165
O O8 0.773500 0.151536 0.581265
O O9 0.613575 0.451180 0.375731
O O10 0.590250 0.890476 0.359301
O O11 0.105653 0.436560 0.379584
O O12 0.832566 0.533010 0.527796
O O13 0.722477 0.529905 0.616307
O O14 0.299647 0.301414 0.773099
#
# Coordination Sequence:
#
# PCOD9574334 Si02
#       7
#     3   3   3   3   3   3   3
#     4  10  21  37  63  91 121 165 200 266 321 387
#     4  10  24  41  64  90 130 172 224 268 343 391
#     4  10  21  39  58  89 124 157 216 255 321 389
#     4  10  24  41  64  94 130 175 219 279 327 413
#     4  10  21  39  61  91 125 155 216 255 327 387
#     4  10  21  37  61  91 122 163 202 264 321 386
#     4  10  24  40  63  92 128 177 221 275 330 405
#
# _framework density 26.941538000000001
#
# number of rings (size 3 to 8) (size 9 to 14) (size 15 to 20)
#    0.857    1.143    0.000    2.571    2.000    4.571 
#    0.000    0.000    0.000    0.000    0.000    0.000 
#    0.000    0.000    0.000    0.000    0.000    0.000 
#
# Total GULP energy -117137.090283 kJ/mol
# GULP energy per Si atom -5577.956680 kJ/mol
# Density = 2.688022 g / cm^3
# Si number density = 26.941538 Si / 1000 Ang^3
#
#
#
# Elastic Constant Matrix: (Units=GPa)
#
#
# Indices 1 2 3 4 5 6 
#
# 1 143.1681 39.0538 23.8880 -4.3450 0.2689 0.0000
# 2 39.0538 143.1681 23.8880 4.3450 -0.2689 0.0000
# 3 23.8880 23.8880 80.5916 0.0000 0.0000 0.0000
# 4 -4.3450 4.3450 0.0000 36.6101 0.0000 -0.2689
# 5 0.2689 -0.2689 0.0000 0.0000 36.6101 -4.3450
# 6 0.0000 0.0000 0.0000 -0.2689 -4.3450 52.0571
#
#
#
# Elastic Compliance Matrix: (Units=1/GPa)
#
#
# Indices 1 2 3 4 5 6 
#
# 1 0.007826 -0.001876 -0.001764 0.001151 -0.000071 0.000000
# 2 -0.001876 0.007826 -0.001764 -0.001151 0.000071 0.000000
# 3 -0.001764 -0.001764 0.013454 0.000000 0.000000 0.000000
# 4 0.001151 -0.001151 0.000000 0.027589 0.000000 0.000143
# 5 -0.000071 0.000071 0.000000 0.000000 0.027589 0.002303
# 6 0.000000 0.000000 0.000000 0.000143 0.002303 0.019403
#
#
# Mechanical properties :
#
#
# Convention : Reuss Voigt Hill
#
# Bulk Modulus (GPa) = 54.64642 60.06527 57.35584
# Shear Modulus (GPa) = 41.46211 43.72866 42.59538
#
# Velocity S-wave (km/s) = 3.92722 4.03314 3.98053
# Velocity P-wave (km/s) = 6.39464 6.63561 6.51624
#
# Compressibility (1/GPa) = 0.01829946
#
# Stress axis : x y z
#
# Youngs Moduli (GPa) = 127.78302 127.78302 74.32850
#
# Poissons Ratio (x) = 0.23966 0.13109
# Poissons Ratio (y) = 0.23966 0.13109
# Poissons Ratio (z) = 0.22537 0.22537
#
# Static dielectric constant tensor:
#      x y z
#    x 2.146980 0.000000 0.000000 
#    y 0.000000 2.146980 0.000000 
#    z 0.000000 0.000000 2.173280 
# 
# From -- ./inp_files/1057.got.cif
#   From: 2010.05.17/outbox.cif.g08.bks.cpg/sg144_cif.got.tgz:1057.got - 2010.05.20 13:46:34.
