data_PCOD9574927
_publ_section_title
;
Structure prediction by ZEFSAII (Michael W. Deem and Ramdas Pophale) SiO2 
 PCOD9574927
Probable space group: P -3
;
_chemical_formula_sum "Si O2"
_cell_formula_units_Z 34
_cell_length_a 13.727154
_cell_length_b 13.727154
_cell_length_c 9.287185
_cell_angle_alpha 90.000000
_cell_angle_beta 90.000000
_cell_angle_gamma 120.000000
_cell_volume 1515.569093
_symmetry_space_group_name_H-M "P -3"
_symmetry_group_IT_number 147
_symmetry_cell_setting 'hexagonal'
loop_
_space_group_symop_operation_xyz
x,y,z
-y,x-y,z
-x+y,-x,z
-x,-y,-z
y,-x+y,-z
x-y,x,-z
loop_
_atom_site_type_symbol
_atom_site_label
_atom_site_fract_x
_atom_site_fract_y
_atom_site_fract_z
Si Si1 0.664152 0.126176 0.984502
Si Si2 0.787598 0.041124 0.497117
Si Si3 0.666667 0.333334 0.833311
Si Si4 0.290228 0.828244 0.693495
Si Si5 0.117626 0.232931 0.968554
Si Si6 0.353255 0.040087 0.231880
Si Si7 0.666667 0.333333 0.489031
O O1 0.650119 0.218011 0.898687
O O2 0.793161 0.150089 0.981503
O O3 0.605062 0.011851 0.892176
O O4 0.646060 0.132205 0.154380
O O5 0.734702 0.076003 0.365085
O O6 0.706715 0.034811 0.629433
O O7 0.917476 0.141825 0.514913
O O8 0.666668 0.333334 0.660945
O O9 0.339826 0.779320 0.576219
O O10 0.166172 0.722554 0.726945
O O11 0.157396 0.168482 0.075491
O O12 0.199274 0.251704 0.836572
#
# Coordination Sequence:
#
# PCOD9574927 Si02
#       7
#     6   6   2   6   6   6   2
#     4  10  21  40  62  90 120 153 202 255 298 352
#     4  10  21  37  58  90 132 172 206 244 298 364
#     4  12  25  44  70  90 112 155 208 261 313 368
#     4  10  22  41  64  90 124 163 202 252 304 359
#     4   9  18  33  57  91 127 161 199 247 300 355
#     4   9  20  38  59  92 128 162 205 248 295 359
#     4  12  25  47  67  87 118 158 202 255 316 371
#
# _framework density 22.433819
#
# number of rings (size 3 to 8) (size 9 to 14) (size 15 to 20)
#    0.000    2.118    0.000    2.471    0.000   12.706 
#    0.000   27.353    0.000    0.000    0.000    0.000 
#    0.000    0.000    0.000    0.000    0.000    0.000 
#
# Total GULP energy -189631.748951 kJ/mol
# GULP energy per Si atom -5577.404381 kJ/mol
# Density = 2.238276 g / cm^3
# Si number density = 22.433819 Si / 1000 Ang^3
#
#
#
# Elastic Constant Matrix: (Units=GPa)
#
#
# Indices 1 2 3 4 5 6 
#
# 1 69.9704 13.6218 35.3408 0.4476 -4.2744 -0.0001
# 2 13.6218 69.9691 35.3405 -0.4478 4.2745 0.0001
# 3 35.3408 35.3405 157.8299 0.0000 0.0001 0.0000
# 4 0.4476 -0.4478 0.0000 26.7117 0.0000 4.2746
# 5 -4.2744 4.2745 0.0001 0.0000 26.7116 0.4478
# 6 -0.0001 0.0001 0.0000 4.2746 0.4478 28.1739
#
#
#
# Elastic Compliance Matrix: (Units=1/GPa)
#
#
# Indices 1 2 3 4 5 6 
#
# 1 0.016475 -0.001718 -0.003304 -0.000305 0.002911 0.000000
# 2 -0.001718 0.016475 -0.003304 0.000305 -0.002911 0.000000
# 3 -0.003304 -0.003304 0.007816 0.000000 0.000000 0.000000
# 4 -0.000305 0.000305 0.000000 0.038379 0.000000 -0.005823
# 5 0.002911 -0.002911 0.000000 0.000000 0.038379 -0.000610
# 6 0.000000 0.000000 0.000000 -0.005823 -0.000610 0.036387
#
#
# Mechanical properties :
#
#
# Convention : Reuss Voigt Hill
#
# Bulk Modulus (GPa) = 41.47262 51.81951 46.64607
# Shear Modulus (GPa) = 27.99522 30.55054 29.27288
#
# Velocity S-wave (km/s) = 3.53640 3.69427 3.61620
# Velocity P-wave (km/s) = 5.93309 6.43007 6.18658
#
# Compressibility (1/GPa) = 0.02411229
#
# Stress axis : x y z
#
# Youngs Moduli (GPa) = 60.69803 60.69680 127.94739
#
# Poissons Ratio (x) = 0.10429 0.42277
# Poissons Ratio (y) = 0.10429 0.42278
# Poissons Ratio (z) = 0.20056 0.20056
#
# Static dielectric constant tensor:
#      x y z
#    x 1.874570 0.000000 0.000000 
#    y 0.000000 1.874560 0.000000 
#    z 0.000000 0.000000 1.909210 
# 
# From -- ./inp_files/570.got.cif
#   From: 2010.05.17/outbox.cif.g08.bks.cpg/sg147_cif.got.tgz:570.got - 2010.05.20 13:49:32.
