data_PCOD9574281
_publ_section_title
;
Structure prediction by ZEFSAII (Michael W. Deem and Ramdas Pophale) SiO2 
 PCOD9574281
Probable space group: P 31
;
_chemical_formula_sum "Si O2"
_cell_formula_units_Z 21
_cell_length_a 11.505341
_cell_length_b 11.505341
_cell_length_c 11.360545
_cell_angle_alpha 90.000000
_cell_angle_beta 90.000000
_cell_angle_gamma 120.000000
_cell_volume 1302.353220
_symmetry_space_group_name_H-M "P 31"
_symmetry_group_IT_number 144
_symmetry_cell_setting 'hexagonal'
loop_
_space_group_symop_operation_xyz
x,y,z
-y,x-y,1/3+z
-x+y,-x,2/3+z
loop_
_atom_site_type_symbol
_atom_site_label
_atom_site_fract_x
_atom_site_fract_y
_atom_site_fract_z
Si Si1 0.415944 0.166492 0.857400
Si Si2 0.924353 0.012884 0.840198
Si Si3 0.916119 0.166841 0.622851
Si Si4 0.714832 0.048165 0.406792
Si Si5 0.511253 0.142815 0.416141
Si Si6 0.155414 0.964895 0.730777
Si Si7 0.578135 0.320449 0.640053
O O1 0.297933 0.038121 0.793943
O O2 0.488781 0.279827 0.756701
O O3 0.537113 0.153599 0.915525
O O4 0.351679 0.212615 0.959383
O O5 0.820266 0.870446 0.898059
O O6 0.875621 0.053507 0.723550
O O7 0.050763 0.994481 0.803671
O O8 0.973724 0.130297 0.936383
O O9 0.805730 0.120718 0.520868
O O10 0.926478 0.295212 0.686308
O O11 0.576829 0.048623 0.421085
O O12 0.715290 0.910163 0.392499
O O13 0.510094 0.203037 0.543868
O O14 0.615904 0.277052 0.343247
#
# Coordination Sequence:
#
# PCOD9574281 Si02
#       7
#     3   3   3   3   3   3   3
#     4  10  19  32  51  75 112 138 172 226 264 320
#     4   9  19  31  50  79 104 139 181 214 269 320
#     4  10  19  32  51  75 112 138 172 226 264 320
#     4  10  20  30  48  78 108 144 176 212 276 320
#     4  10  17  33  49  75 110 141 171 219 270 320
#     4  10  17  33  49  75 110 141 171 219 270 320
#     4   9  19  31  50  79 104 139 181 214 269 320
#
# _framework density 16.124656000000002
#
# number of rings (size 3 to 8) (size 9 to 14) (size 15 to 20)
#    0.000    2.286    2.857    0.857    4.000    0.000 
#    0.000    0.000    0.000    0.000    0.000   16.000 
#    0.000    0.000    0.000    0.000    0.000    0.000 
#
# Total GULP energy -117008.334889 kJ/mol
# GULP energy per Si atom -5571.825471 kJ/mol
# Density = 1.608796 g / cm^3
# Si number density = 16.124656 Si / 1000 Ang^3
#
#
#
# Elastic Constant Matrix: (Units=GPa)
#
#
# Indices 1 2 3 4 5 6 
#
# 1 83.9123 46.8575 44.5298 0.9978 0.0000 0.0000
# 2 46.8575 83.9123 44.5298 -0.9978 0.0000 0.0000
# 3 44.5298 44.5298 117.9642 0.0000 0.0000 0.0000
# 4 0.9978 -0.9978 0.0000 24.8161 0.0000 0.0000
# 5 0.0000 0.0000 0.0000 0.0000 24.8161 0.9978
# 6 0.0000 0.0000 0.0000 0.0000 0.9978 18.5274
#
#
#
# Elastic Compliance Matrix: (Units=1/GPa)
#
#
# Indices 1 2 3 4 5 6 
#
# 1 0.018669 -0.008376 -0.003886 -0.001087 0.000000 0.000000
# 2 -0.008376 0.018669 -0.003886 0.001087 0.000000 0.000000
# 3 -0.003886 -0.003886 0.011411 0.000000 0.000000 0.000000
# 4 -0.001087 0.001087 0.000000 0.040384 0.000000 0.000000
# 5 0.000000 0.000000 0.000000 0.000000 0.040384 -0.002175
# 6 0.000000 0.000000 0.000000 0.000000 -0.002175 0.054091
#
#
# Mechanical properties :
#
#
# Convention : Reuss Voigt Hill
#
# Bulk Modulus (GPa) = 60.77213 61.95811 61.36512
# Shear Modulus (GPa) = 22.58482 23.62339 23.10411
#
# Velocity S-wave (km/s) = 3.74657 3.83175 3.78940
# Velocity P-wave (km/s) = 7.51575 7.62130 7.56871
#
# Compressibility (1/GPa) = 0.01645491
#
# Stress axis : x y z
#
# Youngs Moduli (GPa) = 53.56357 53.56357 87.63750
#
# Poissons Ratio (x) = 0.44866 0.34052
# Poissons Ratio (y) = 0.44866 0.34052
# Poissons Ratio (z) = 0.20812 0.20812
#
# Static dielectric constant tensor:
#      x y z
#    x 1.530740 0.000000 0.000000 
#    y 0.000000 1.530740 0.000000 
#    z 0.000000 0.000000 1.580740 
# 
# From -- ./inp_files/635.got.cif
#   From: 2010.05.17/outbox.cif.g08.bks.cpg/sg144_cif.got.tgz:635.got - 2010.05.20 13:46:34.
