data_PCOD9574213
_publ_section_title
;
Structure prediction by ZEFSAII (Michael W. Deem and Ramdas Pophale) SiO2 
 PCOD9574213
Probable space group: I 41/A C D
;
_chemical_formula_sum "Si O2"
_cell_formula_units_Z 112
_cell_length_a 15.493988
_cell_length_b 15.493988
_cell_length_c 16.945817
_cell_angle_alpha 90.000000
_cell_angle_beta 90.000000
_cell_angle_gamma 90.000000
_cell_volume 4068.074921
_symmetry_space_group_name_H-M "I 41/A C D"
_symmetry_group_IT_number 142
_space_group.IT_coordinate_system_code '2'
_symmetry_cell_setting 'tetragonal'
loop_
_space_group_symop_operation_xyz
x,y,z
1/4-y,3/4+x,1/4+z
-x,1/2-y,z
1/4+y,1/4-x,3/4+z
x,-y,1/2-z
1/2-x,y,-z
3/4+y,1/4+x,1/4-z
1/4-y,1/4-x,1/4-z
-x,-y,-z
3/4+y,1/4-x,3/4-z
x,1/2+y,-z
3/4-y,3/4+x,1/4-z
-x,y,1/2+z
1/2+x,-y,z
1/4-y,3/4-x,3/4+z
3/4+y,3/4+x,3/4+z
1/2+x,1/2+y,1/2+z
3/4-y,1/4+x,3/4+z
1/2-x,-y,1/2+z
3/4+y,3/4-x,1/4+z
1/2+x,1/2-y,-z
-x,1/2+y,1/2-z
1/4+y,3/4+x,3/4-z
3/4-y,3/4-x,3/4-z
1/2-x,1/2-y,1/2-z
1/4+y,3/4-x,1/4-z
1/2+x,y,1/2-z
1/4-y,1/4+x,3/4-z
1/2-x,1/2+y,z
x,1/2-y,1/2+z
3/4-y,1/4-x,1/4+z
1/4+y,1/4+x,1/4+z
loop_
_atom_site_type_symbol
_atom_site_label
_atom_site_fract_x
_atom_site_fract_y
_atom_site_fract_z
Si Si1 0.025196 0.414421 0.140885
Si Si2 0.371044 0.082794 0.135420
Si Si3 0.750000 0.142582 0.500000
Si Si4 0.896544 0.740371 0.734446
O O1 0.075204 0.325204 0.125000
O O2 0.097662 0.486824 0.151141
O O3 0.956529 0.429956 0.209518
O O4 0.977393 0.414141 0.056348
O O5 0.365511 0.142994 0.212494
O O6 0.453611 0.122928 0.091042
O O7 0.293622 0.091670 0.072323
O O8 0.000000 0.750000 0.744239
#
# Coordination Sequence:
#
# PCOD9574213 Si02
#       4
#    32  32  16  32
#     4  12  27  46  71 110 148 190 256 322 379 473
#     4  12  24  46  72 105 149 196 243 318 388 462
#     4  12  28  48  74 110 152 200 260 318 404 474
#     4  12  23  47  78 101 147 202 252 307 390 468
#
# _framework density 27.531448000000001
#
# number of rings (size 3 to 8) (size 9 to 14) (size 15 to 20)
#    0.000    0.000    5.714    4.286    0.000    7.429 
#    0.000    0.000    0.000    0.000    0.000    0.000 
#    0.000    0.000    0.000    0.000    0.000    0.000 
#
# Total GULP energy -313806.993644 kJ/mol
# GULP energy per Si atom -5603.696315 kJ/mol
# Density = 2.746879 g / cm^3
# Si number density = 27.531448 Si / 1000 Ang^3
#
#
#
# Elastic Constant Matrix: (Units=GPa)
#
#
# Indices 1 2 3 4 5 6 
#
# 1 102.9924 18.4253 25.1732 0.0000 0.0000 0.0000
# 2 18.4253 102.9924 25.1732 0.0000 0.0000 0.0000
# 3 25.1732 25.1732 136.7290 0.0000 0.0000 0.0000
# 4 0.0000 0.0000 0.0000 53.1326 0.0000 0.0000
# 5 0.0000 0.0000 0.0000 0.0000 53.1326 0.0000
# 6 0.0000 0.0000 0.0000 0.0000 0.0000 34.2023
#
#
#
# Elastic Compliance Matrix: (Units=1/GPa)
#
#
# Indices 1 2 3 4 5 6 
#
# 1 0.010371 -0.001454 -0.001642 0.000000 0.000000 0.000000
# 2 -0.001454 0.010371 -0.001642 0.000000 0.000000 0.000000
# 3 -0.001642 -0.001642 0.007918 0.000000 0.000000 0.000000
# 4 0.000000 0.000000 0.000000 0.018821 0.000000 0.000000
# 5 0.000000 0.000000 0.000000 0.000000 0.018821 0.000000
# 6 0.000000 0.000000 0.000000 0.000000 0.000000 0.029238
#
#
# Mechanical properties :
#
#
# Convention : Reuss Voigt Hill
#
# Bulk Modulus (GPa) = 52.12384 53.36191 52.74287
# Shear Modulus (GPa) = 44.87958 46.35631 45.61795
#
# Velocity S-wave (km/s) = 4.04186 4.10781 4.07497
# Velocity P-wave (km/s) = 6.38402 6.47480 6.42957
#
# Compressibility (1/GPa) = 0.01918508
#
# Stress axis : x y z
#
# Youngs Moduli (GPa) = 96.42422 96.42422 126.29082
#
# Poissons Ratio (x) = 0.14021 0.20733
# Poissons Ratio (y) = 0.14021 0.20733
# Poissons Ratio (z) = 0.15830 0.15830
#
# Static dielectric constant tensor:
#      x y z
#    x 2.198590 0.000000 0.000000 
#    y 0.000000 2.198590 0.000000 
#    z 0.000000 0.000000 2.597460 
# 
# From -- ./inp_files/6830.got.cif
#   From: 2010.05.17/outbox.cif.g08.bks.cpg/sg142_4_cif.got.tgz:6830.got - 2010.05.20 13:39:18.
