data_PCOD9574235
_publ_section_title
;
Structure prediction by ZEFSAII (Michael W. Deem and Ramdas Pophale) SiO2 
 PCOD9574235
Probable space group: I 41/A C D
;
_chemical_formula_sum "Si O2"
_cell_formula_units_Z 112
_cell_length_a 13.692072
_cell_length_b 13.692072
_cell_length_c 23.743763
_cell_angle_alpha 90.000000
_cell_angle_beta 90.000000
_cell_angle_gamma 90.000000
_cell_volume 4451.310579
_symmetry_space_group_name_H-M "I 41/A C D"
_symmetry_group_IT_number 142
_space_group.IT_coordinate_system_code '2'
_symmetry_cell_setting 'tetragonal'
loop_
_space_group_symop_operation_xyz
x,y,z
1/4-y,3/4+x,1/4+z
-x,1/2-y,z
1/4+y,1/4-x,3/4+z
x,-y,1/2-z
1/2-x,y,-z
3/4+y,1/4+x,1/4-z
1/4-y,1/4-x,1/4-z
-x,-y,-z
3/4+y,1/4-x,3/4-z
x,1/2+y,-z
3/4-y,3/4+x,1/4-z
-x,y,1/2+z
1/2+x,-y,z
1/4-y,3/4-x,3/4+z
3/4+y,3/4+x,3/4+z
1/2+x,1/2+y,1/2+z
3/4-y,1/4+x,3/4+z
1/2-x,-y,1/2+z
3/4+y,3/4-x,1/4+z
1/2+x,1/2-y,-z
-x,1/2+y,1/2-z
1/4+y,3/4+x,3/4-z
3/4-y,3/4-x,3/4-z
1/2-x,1/2-y,1/2-z
1/4+y,3/4-x,1/4-z
1/2+x,y,1/2-z
1/4-y,1/4+x,3/4-z
1/2-x,1/2+y,z
x,1/2-y,1/2+z
3/4-y,1/4-x,1/4+z
1/4+y,1/4+x,1/4+z
loop_
_atom_site_type_symbol
_atom_site_label
_atom_site_fract_x
_atom_site_fract_y
_atom_site_fract_z
Si Si1 0.485539 0.102009 0.217555
Si Si2 0.866384 0.084330 0.398873
Si Si3 0.641415 0.891415 0.125000
Si Si4 0.665237 0.284829 0.292128
O O1 0.583561 0.152347 0.193298
O O2 0.417867 0.091695 0.161651
O O3 0.423146 0.163044 0.261745
O O4 0.506091 0.000000 0.250000
O O5 0.752873 0.112604 0.395944
O O6 0.886999 0.976296 0.420923
O O7 0.632042 0.807063 0.170874
O O8 0.750000 0.250000 0.250000
#
# Coordination Sequence:
#
# PCOD9574235 Si02
#       4
#    32  32  16  32
#     4  12  28  54  85 122 170 232 281 357 439 507
#     4  12  27  55  82 123 169 218 289 354 417 528
#     4  12  26  54  83 123 168 216 284 356 420 519
#     4  12  28  50  83 125 166 221 281 352 429 511
#
# _framework density 25.161131000000001
#
# number of rings (size 3 to 8) (size 9 to 14) (size 15 to 20)
#    0.000    0.000    5.714    1.714    4.000    4.000 
#    0.000    4.286    0.000    0.000    0.000    0.000 
#    0.000    0.000    0.000    0.000    0.000    0.000 
#
# Total GULP energy -314289.354875 kJ/mol
# GULP energy per Si atom -5612.309908 kJ/mol
# Density = 2.510386 g / cm^3
# Si number density = 25.161131 Si / 1000 Ang^3
#
#
#
# Elastic Constant Matrix: (Units=GPa)
#
#
# Indices 1 2 3 4 5 6 
#
# 1 61.9789 100.8938 85.5461 0.0000 0.0000 0.0000
# 2 100.8938 61.9789 85.5461 0.0000 0.0000 0.0000
# 3 85.5461 85.5461 173.5248 0.0000 0.0000 0.0000
# 4 0.0000 0.0000 0.0000 67.7981 0.0000 0.0000
# 5 0.0000 0.0000 0.0000 0.0000 67.7981 0.0000
# 6 0.0000 0.0000 0.0000 0.0000 0.0000 -7.5043
#
#
#
# Elastic Compliance Matrix: (Units=1/GPa)
#
#
# Indices 1 2 3 4 5 6 
#
# 1 -0.006481 0.019216 -0.006278 0.000000 0.000000 0.000000
# 2 0.019216 -0.006481 -0.006278 0.000000 0.000000 0.000000
# 3 -0.006278 -0.006278 0.011953 0.000000 0.000000 0.000000
# 4 0.000000 0.000000 0.000000 0.014750 0.000000 0.000000
# 5 0.000000 0.000000 0.000000 0.000000 0.014750 0.000000
# 6 0.000000 0.000000 0.000000 0.000000 0.000000 -0.133256
#
#
# Mechanical properties :
#
#
# Convention : Reuss Voigt Hill
#
# Bulk Modulus (GPa) = 81.23494 93.49496 87.36495
# Shear Modulus (GPa) = -43.86643 27.31812 -8.27416
#
# Velocity S-wave (km/s) = -4.17996 3.29861 -1.81538
# Velocity P-wave (km/s) = 3.00997 7.19353 5.51393
#
# Compressibility (1/GPa) = 0.01230997
#
# Stress axis : x y z
#
# Youngs Moduli (GPa) = -154.29251 -154.29251 83.66149
#
# Poissons Ratio (x) = 2.96486 0.52523
# Poissons Ratio (y) = 2.96486 0.52523
# Poissons Ratio (z) = -0.96866 -0.96866
#
# Static dielectric constant tensor:
#      x y z
#    x 2.023090 0.000000 0.000000 
#    y 0.000000 2.023090 0.000000 
#    z 0.000000 0.000000 2.026050 
# 
# From -- ./inp_files/9770.got.cif
#   From: 2010.05.17/outbox.cif.g08.bks.cpg/sg142_5_cif.got.tgz:9770.got - 2010.05.20 13:39:18.
