data_PCOD9574790
_publ_section_title
;
Structure prediction by ZEFSAII (Michael W. Deem and Ramdas Pophale) SiO2 
 PCOD9574790
Probable space group: R 3
;
_chemical_formula_sum "Si O2"
_cell_formula_units_Z 54
_cell_length_a 11.229491
_cell_length_b 11.229491
_cell_length_c 21.809375
_cell_angle_alpha 90.000000
_cell_angle_beta 90.000000
_cell_angle_gamma 120.000000
_cell_volume 2381.738048
_symmetry_space_group_name_H-M "R 3"
_symmetry_group_IT_number 146
_symmetry_cell_setting 'hexagonal'
loop_
_space_group_symop_operation_xyz
x,y,z
-y,x-y,z
-x+y,-x,z
2/3+x,1/3+y,1/3+z
2/3-y,1/3+x-y,1/3+z
2/3-x+y,1/3-x,1/3+z
1/3+x,2/3+y,2/3+z
1/3-y,2/3+x-y,2/3+z
1/3-x+y,2/3-x,2/3+z
loop_
_atom_site_type_symbol
_atom_site_label
_atom_site_fract_x
_atom_site_fract_y
_atom_site_fract_z
Si Si1 0.238280 0.315915 0.582840
Si Si2 0.922366 0.238280 0.580565
Si Si3 0.981508 0.835524 0.798414
Si Si4 0.502191 0.187349 0.698324
Si Si5 0.944262 0.568873 0.385221
Si Si6 0.389071 0.097793 0.444850
O O1 0.263876 0.187861 0.578436
O O2 0.302010 0.414466 0.524491
O O3 0.303528 0.398189 0.645647
O O4 0.076015 0.263876 0.584968
O O5 0.887545 0.302011 0.638913
O O6 0.905339 0.303528 0.517757
O O7 0.989559 0.756291 0.739255
O O8 0.866079 0.880205 0.799103
O O9 0.652540 0.199413 0.697635
O O10 0.422958 0.100066 0.757483
O O11 0.923176 0.423413 0.408481
O O12 0.833097 0.589843 0.421590
#
# Coordination Sequence:
#
# PCOD9574790 Si02
#       6
#     9   9   9   9   9   9
#     4  12  27  46  74 106 144 183 237 291 349 416
#     4  12  27  46  74 106 144 183 237 291 349 416
#     4  10  26  48  74  98 146 188 230 282 362 416
#     4  10  26  48  74  98 146 188 230 282 362 416
#     4  12  27  46  74 106 144 183 237 291 349 416
#     4  12  27  46  74 106 144 183 237 291 349 416
#
# _framework density 22.672518
#
# number of rings (size 3 to 8) (size 9 to 14) (size 15 to 20)
#    0.667    0.000    3.333    2.667    9.333    5.333 
#    0.000    0.000    0.000    0.000    0.000    0.000 
#    0.000    0.000    0.000    0.000    0.000    0.000 
#
# Total GULP energy -100801.844942 kJ/mol
# GULP energy per Si atom -5600.102497 kJ/mol
# Density = 2.262091 g / cm^3
# Si number density = 22.672518 Si / 1000 Ang^3
#
#
#
# Elastic Constant Matrix: (Units=GPa)
#
#
# Indices 1 2 3 4 5 6 
#
# 1 87.5262 22.4752 -7.3017 6.1619 4.0856 0.0000
# 2 22.4752 87.5262 -7.3017 -6.1619 -4.0856 0.0000
# 3 -7.3017 -7.3017 83.7582 0.0000 0.0000 0.0000
# 4 6.1619 -6.1619 0.0000 34.9726 0.0000 -4.0856
# 5 4.0856 -4.0856 0.0000 0.0000 34.9726 6.1619
# 6 0.0000 0.0000 0.0000 -4.0856 6.1619 32.5255
#
#
#
# Elastic Compliance Matrix: (Units=1/GPa)
#
#
# Indices 1 2 3 4 5 6 
#
# 1 0.012673 -0.003476 0.000802 -0.002845 -0.001887 0.000000
# 2 -0.003476 0.012673 0.000802 0.002845 0.001887 0.000000
# 3 0.000802 0.000802 0.012079 0.000000 0.000000 0.000000
# 4 -0.002845 0.002845 0.000000 0.030037 0.000000 0.003773
# 5 -0.001887 0.001887 0.000000 0.000000 0.030037 -0.005690
# 6 0.000000 0.000000 0.000000 0.003773 -0.005690 0.032297
#
#
# Mechanical properties :
#
#
# Convention : Reuss Voigt Hill
#
# Bulk Modulus (GPa) = 29.69076 30.50602 30.09839
# Shear Modulus (GPa) = 34.53819 37.22340 35.88080
#
# Velocity S-wave (km/s) = 3.90725 4.05629 3.98247
# Velocity P-wave (km/s) = 5.78613 5.95166 5.86948
#
# Compressibility (1/GPa) = 0.03368051
#
# Stress axis : x y z
#
# Youngs Moduli (GPa) = 78.90859 78.90859 82.78880
#
# Poissons Ratio (x) = 0.27426 -0.06638
# Poissons Ratio (y) = 0.27426 -0.06638
# Poissons Ratio (z) = -0.06327 -0.06327
#
# Static dielectric constant tensor:
#      x y z
#    x 1.870180 0.000000 0.000000 
#    y 0.000000 1.870180 0.000000 
#    z 0.000000 0.000000 1.750270 
# 
# From -- ./inp_files/1977.got.cif
#   From: 2010.05.17/outbox.cif.g08.bks.cpg/sg146_cif.got.tgz:1977.got - 2010.05.20 13:48:23.
