data_PCOD9574920
_publ_section_title
;
Structure prediction by ZEFSAII (Michael W. Deem and Ramdas Pophale) SiO2 
 PCOD9574920
Probable space group: P -3
;
_chemical_formula_sum "Si O2"
_cell_formula_units_Z 42
_cell_length_a 8.763542
_cell_length_b 8.763542
_cell_length_c 29.346823
_cell_angle_alpha 90.000000
_cell_angle_beta 90.000000
_cell_angle_gamma 120.000000
_cell_volume 1951.870809
_symmetry_space_group_name_H-M "P -3"
_symmetry_group_IT_number 147
_symmetry_cell_setting 'hexagonal'
loop_
_space_group_symop_operation_xyz
x,y,z
-y,x-y,z
-x+y,-x,z
-x,-y,-z
y,-x+y,-z
x-y,x,-z
loop_
_atom_site_type_symbol
_atom_site_label
_atom_site_fract_x
_atom_site_fract_y
_atom_site_fract_z
Si Si1 0.317595 0.341716 0.482099
Si Si2 0.884679 0.764603 0.890715
Si Si3 0.349494 0.023653 0.236204
Si Si4 0.340236 0.026864 0.622924
Si Si5 0.965568 0.654618 0.982377
Si Si6 0.652157 0.975267 0.659205
Si Si7 0.694115 0.659891 0.797988
O O1 0.500000 0.500000 0.500000
O O2 0.161256 0.326314 0.512962
O O3 0.281766 0.365529 0.429702
O O4 0.873506 0.643214 0.933405
O O5 0.782616 0.655291 0.846182
O O6 0.813598 0.905229 0.891127
O O7 0.393557 0.084642 0.288373
O O8 0.304389 0.157159 0.209727
O O9 0.505560 0.008928 0.211563
O O10 0.178341 0.830169 0.237018
O O11 0.329156 0.169469 0.654250
O O12 0.499565 0.000977 0.638320
O O13 0.164844 0.842167 0.630534
O O14 0.832420 0.677682 0.015709
O O15 0.000000 0.500000 0.000000
#
# Coordination Sequence:
#
# PCOD9574920 Si02
#       7
#     6   6   6   6   6   6   6
#     4  12  25  44  67  96 130 177 230 289 355 426
#     4  10  20  46  74 100 139 191 231 287 351 401
#     4  12  24  44  70 101 142 184 236 290 354 426
#     4  12  25  44  67  97 136 177 232 289 354 429
#     4  12  24  45  76 112 153 197 246 300 359 424
#     4  12  25  43  67  99 135 182 228 288 355 424
#     4  12  25  45  71 106 143 189 238 294 352 424
#
# _framework density 21.517816
#
# number of rings (size 3 to 8) (size 9 to 14) (size 15 to 20)
#    0.286    0.000    2.857    7.714    0.000    1.143 
#    0.000    0.000    0.000    0.000    0.000    0.000 
#    0.000    0.000    0.000    0.000    0.000    0.000 
#
# Total GULP energy -234619.342225 kJ/mol
# GULP energy per Si atom -5586.174815 kJ/mol
# Density = 2.146884 g / cm^3
# Si number density = 21.517816 Si / 1000 Ang^3
#
#
#
# Elastic Constant Matrix: (Units=GPa)
#
#
# Indices 1 2 3 4 5 6 
#
# 1 110.4239 22.7661 7.2110 0.1918 -3.1432 0.0000
# 2 22.7661 110.4239 7.2110 -0.1918 3.1432 0.0000
# 3 7.2110 7.2110 151.2689 0.0000 0.0000 0.0000
# 4 0.1918 -0.1918 0.0000 41.8494 0.0000 3.1432
# 5 -3.1432 3.1432 0.0000 0.0000 41.8494 0.1918
# 6 0.0000 0.0000 0.0000 3.1432 0.1918 43.8289
#
#
#
# Elastic Compliance Matrix: (Units=1/GPa)
#
#
# Indices 1 2 3 4 5 6 
#
# 1 0.009509 -0.001961 -0.000360 -0.000053 0.000861 0.000000
# 2 -0.001961 0.009509 -0.000360 0.000053 -0.000861 0.000000
# 3 -0.000360 -0.000360 0.006645 0.000000 0.000000 0.000000
# 4 -0.000053 0.000053 0.000000 0.024025 0.000000 -0.001723
# 5 0.000861 -0.000861 0.000000 0.000000 0.024025 -0.000105
# 6 0.000000 0.000000 0.000000 -0.001723 -0.000105 0.022940
#
#
# Mechanical properties :
#
#
# Convention : Reuss Voigt Hill
#
# Bulk Modulus (GPa) = 49.26100 49.61031 49.43566
# Shear Modulus (GPa) = 45.96394 47.83415 46.89904
#
# Velocity S-wave (km/s) = 4.62680 4.71999 4.67362
# Velocity P-wave (km/s) = 7.17536 7.26704 7.22135
#
# Compressibility (1/GPa) = 0.02030003
#
# Stress axis : x y z
#
# Youngs Moduli (GPa) = 105.16890 105.16890 150.48813
#
# Poissons Ratio (x) = 0.20629 0.05414
# Poissons Ratio (y) = 0.20629 0.05414
# Poissons Ratio (z) = 0.03784 0.03784
#
# Static dielectric constant tensor:
#      x y z
#    x 1.758580 0.000000 0.000000 
#    y 0.000000 1.758580 0.000000 
#    z 0.000000 0.000000 1.823070 
# 
# From -- ./inp_files/1131.got.cif
#   From: 2010.05.17/outbox.cif.g08.bks.cpg/sg147_cif.got.tgz:1131.got - 2010.05.20 13:49:32.
