data_PCOD9574728
_publ_section_title
;
Structure prediction by ZEFSAII (Michael W. Deem and Ramdas Pophale) SiO2 
 PCOD9574728
Probable space group: R 3
;
_chemical_formula_sum "Si O2"
_cell_formula_units_Z 51
_cell_length_a 10.694826
_cell_length_b 10.694826
_cell_length_c 21.628434
_cell_angle_alpha 90.000000
_cell_angle_beta 90.000000
_cell_angle_gamma 120.000000
_cell_volume 2142.412797
_symmetry_space_group_name_H-M "R 3"
_symmetry_group_IT_number 146
_symmetry_cell_setting 'hexagonal'
loop_
_space_group_symop_operation_xyz
x,y,z
-y,x-y,z
-x+y,-x,z
2/3+x,1/3+y,1/3+z
2/3-y,1/3+x-y,1/3+z
2/3-x+y,1/3-x,1/3+z
1/3+x,2/3+y,2/3+z
1/3-y,2/3+x-y,2/3+z
1/3-x+y,2/3-x,2/3+z
loop_
_atom_site_type_symbol
_atom_site_label
_atom_site_fract_x
_atom_site_fract_y
_atom_site_fract_z
Si Si1 0.226253 0.319829 0.705870
Si Si2 0.759762 0.076698 0.895161
Si Si3 0.000000 0.000000 0.729331
Si Si4 0.000000 0.000000 0.583638
Si Si5 0.099478 0.329516 0.041742
Si Si6 0.252115 0.921168 0.902524
Si Si7 0.897487 0.155564 0.499724
O O1 0.228934 0.284969 0.632240
O O2 0.135170 0.163918 0.741842
O O3 0.132207 0.399397 0.714871
O O4 0.393655 0.445320 0.715768
O O5 0.659959 0.077854 0.839996
O O6 0.930126 0.181056 0.890268
O O7 0.712591 0.910323 0.894282
O O8 0.000000 0.000000 0.655269
O O9 0.869672 0.858142 0.552669
O O10 0.140627 0.439161 0.098842
O O11 0.097642 0.385531 0.973278
O O12 0.373637 0.928962 0.856915
#
# Coordination Sequence:
#
# PCOD9574728 Si02
#       7
#     9   9   3   3   9   9   9
#     4  10  22  43  71 100 142 185 247 297 370 440
#     4  10  21  41  71  96 132 181 226 291 357 429
#     4  12  21  42  81 105 135 189 261 313 350 433
#     4  12  21  42  63  99 126 186 222 295 353 427
#     4  10  24  42  66 102 139 189 233 300 371 443
#     4  10  22  45  68  99 135 180 239 290 356 432
#     4  12  23  41  70  97 141 180 236 286 367 426
#
# _framework density 23.804936000000001
#
# number of rings (size 3 to 8) (size 9 to 14) (size 15 to 20)
#    0.000    1.412    3.529    1.765    2.471    4.235 
#    4.235    0.000    0.000    0.706    0.000    0.000 
#    0.000    0.000    0.000    0.000    0.000    0.000 
#
# Total GULP energy -94714.557011 kJ/mol
# GULP energy per Si atom -5571.444530 kJ/mol
# Density = 2.375075 g / cm^3
# Si number density = 23.804936 Si / 1000 Ang^3
#
#
#
# Elastic Constant Matrix: (Units=GPa)
#
#
# Indices 1 2 3 4 5 6 
#
# 1 75.8618 26.7351 14.2724 -2.1814 -4.1021 0.0000
# 2 26.7351 75.8618 14.2724 2.1814 4.1021 0.0000
# 3 14.2724 14.2724 113.6333 0.0000 0.0000 0.0000
# 4 -2.1814 2.1814 0.0000 21.0102 0.0000 4.1021
# 5 -4.1021 4.1021 0.0000 0.0000 21.0102 -2.1814
# 6 0.0000 0.0000 0.0000 4.1021 -2.1814 24.5633
#
#
#
# Elastic Compliance Matrix: (Units=1/GPa)
#
#
# Indices 1 2 3 4 5 6 
#
# 1 0.015672 -0.005572 -0.001269 0.002206 0.004148 0.000000
# 2 -0.005572 0.015672 -0.001269 -0.002206 -0.004148 0.000000
# 3 -0.001269 -0.001269 0.009119 0.000000 0.000000 0.000000
# 4 0.002206 -0.002206 0.000000 0.049674 0.000000 -0.008296
# 5 0.004148 -0.004148 0.000000 0.000000 0.049674 0.004411
# 6 0.000000 0.000000 0.000000 -0.008296 0.004411 0.042488
#
#
# Mechanical properties :
#
#
# Convention : Reuss Voigt Hill
#
# Bulk Modulus (GPa) = 41.24670 41.76853 41.50762
# Shear Modulus (GPa) = 24.20156 27.32187 25.76171
#
# Velocity S-wave (km/s) = 3.19197 3.39151 3.29325
# Velocity P-wave (km/s) = 5.56323 5.73765 5.65111
#
# Compressibility (1/GPa) = 0.02424436
#
# Stress axis : x y z
#
# Youngs Moduli (GPa) = 63.80826 63.80826 109.66241
#
# Poissons Ratio (x) = 0.35555 0.13911
# Poissons Ratio (y) = 0.35555 0.13911
# Poissons Ratio (z) = 0.08094 0.08094
#
# Static dielectric constant tensor:
#      x y z
#    x 2.006220 0.000000 0.000000 
#    y 0.000000 2.006220 0.000000 
#    z 0.000000 0.000000 1.953420 
# 
# From -- ./inp_files/1941.got.cif
#   From: 2010.05.17/outbox.cif.g08.bks.cpg/sg146_cif.got.tgz:1941.got - 2010.05.20 13:48:23.
