data_PCOD9574605
_publ_section_title
;
Structure prediction by ZEFSAII (Michael W. Deem and Ramdas Pophale) SiO2 
 PCOD9574605
Probable space group: P 32
;
_chemical_formula_sum "Si O2"
_cell_formula_units_Z 15
_cell_length_a 5.249627
_cell_length_b 5.249627
_cell_length_c 26.601939
_cell_angle_alpha 90.000000
_cell_angle_beta 90.000000
_cell_angle_gamma 120.000000
_cell_volume 634.893409
_symmetry_space_group_name_H-M "P 32"
_symmetry_group_IT_number 145
_symmetry_cell_setting 'hexagonal'
loop_
_space_group_symop_operation_xyz
x,y,z
-y,x-y,2/3+z
-x+y,-x,1/3+z
loop_
_atom_site_type_symbol
_atom_site_label
_atom_site_fract_x
_atom_site_fract_y
_atom_site_fract_z
Si Si1 0.685340 0.683198 0.068740
Si Si2 0.621209 0.628732 0.186828
Si Si3 0.709045 0.658709 0.890697
Si Si4 0.359117 0.659957 0.981996
Si Si5 0.769425 0.565622 0.678365
O O1 0.672677 0.702571 0.127731
O O2 0.775379 0.450028 0.050593
O O3 0.378187 0.578458 0.039975
O O4 0.862433 0.999196 0.041151
O O5 0.273361 0.447031 0.198112
O O6 0.764578 0.431258 0.201389
O O7 0.780989 0.941028 0.215915
O O8 0.595643 0.635572 0.947819
O O9 0.030549 0.421261 0.968950
O O10 0.480906 0.007329 0.985608
#
# Coordination Sequence:
#
# PCOD9574605 Si02
#       5
#     3   3   3   3   3
#     4  10  26  42  71  97 137 175 234 278 344 405
#     4  12  28  46  72 102 145 185 229 287 353 417
#     4  12  28  47  71 103 144 185 231 285 355 415
#     4  10  26  42  72  96 137 175 234 280 342 405
#     4  10  24  39  70  98 129 172 232 282 334 398
#
# _framework density 23.626014000000001
#
# number of rings (size 3 to 8) (size 9 to 14) (size 15 to 20)
#    1.200    0.000    0.000    3.600   14.000    0.000 
#    0.000    0.000    0.000    0.000    0.000    0.000 
#    0.000    0.000    0.000    0.000    0.000    0.000 
#
# Total GULP energy -83755.676435 kJ/mol
# GULP energy per Si atom -5583.711762 kJ/mol
# Density = 2.357224 g / cm^3
# Si number density = 23.626014 Si / 1000 Ang^3
#
#
#
# Elastic Constant Matrix: (Units=GPa)
#
#
# Indices 1 2 3 4 5 6 
#
# 1 128.6522 47.1496 20.2561 -8.1926 8.8725 0.0000
# 2 47.1496 128.6522 20.2561 8.1926 -8.8725 0.0000
# 3 20.2561 20.2561 98.1808 0.0000 0.0000 0.0000
# 4 -8.1926 8.1926 0.0000 30.2089 0.0000 -8.8725
# 5 8.8725 -8.8725 0.0000 0.0000 30.2089 -8.1926
# 6 0.0000 0.0000 0.0000 -8.8725 -8.1926 40.7513
#
#
#
# Elastic Compliance Matrix: (Units=1/GPa)
#
#
# Indices 1 2 3 4 5 6 
#
# 1 0.009945 -0.003973 -0.001232 0.003775 -0.004088 0.000000
# 2 -0.003973 0.009945 -0.001232 -0.003775 0.004088 0.000000
# 3 -0.001232 -0.001232 0.010694 0.000000 0.000000 0.000000
# 4 0.003775 -0.003775 0.000000 0.037551 0.000000 0.008176
# 5 -0.004088 0.004088 0.000000 0.000000 0.037551 0.007549
# 6 0.000000 0.000000 0.000000 0.008176 0.007549 0.027837
#
#
# Mechanical properties :
#
#
# Convention : Reuss Voigt Hill
#
# Bulk Modulus (GPa) = 56.46701 58.97878 57.72289
# Shear Modulus (GPa) = 32.82949 38.08871 35.45910
#
# Velocity S-wave (km/s) = 3.73171 4.01952 3.87828
# Velocity P-wave (km/s) = 6.52072 6.82347 6.67381
#
# Compressibility (1/GPa) = 0.01770946
#
# Stress axis : x y z
#
# Youngs Moduli (GPa) = 100.55004 100.55004 93.51292
#
# Poissons Ratio (x) = 0.39950 0.11522
# Poissons Ratio (y) = 0.39950 0.11522
# Poissons Ratio (z) = 0.12389 0.12389
#
# Static dielectric constant tensor:
#      x y z
#    x 1.941450 0.000000 0.000000 
#    y 0.000000 1.941450 0.000000 
#    z 0.000000 0.000000 1.911740 
# 
# From -- ./inp_files/968.got.cif
#   From: 2010.05.17/outbox.cif.g08.bks.cpg/sg145_cif.got.tgz:968.got - 2010.05.20 13:47:28.
