data_PCOD9574716
_publ_section_title
;
Structure prediction by ZEFSAII (Michael W. Deem and Ramdas Pophale) SiO2 
 PCOD9574716
Probable space group: R 3
;
_chemical_formula_sum "Si O2"
_cell_formula_units_Z 63
_cell_length_a 17.381224
_cell_length_b 17.381224
_cell_length_c 11.410622
_cell_angle_alpha 90.000000
_cell_angle_beta 90.000000
_cell_angle_gamma 120.000000
_cell_volume 2985.387180
_symmetry_space_group_name_H-M "R 3"
_symmetry_group_IT_number 146
_symmetry_cell_setting 'hexagonal'
loop_
_space_group_symop_operation_xyz
x,y,z
-y,x-y,z
-x+y,-x,z
2/3+x,1/3+y,1/3+z
2/3-y,1/3+x-y,1/3+z
2/3-x+y,1/3-x,1/3+z
1/3+x,2/3+y,2/3+z
1/3-y,2/3+x-y,2/3+z
1/3-x+y,2/3-x,2/3+z
loop_
_atom_site_type_symbol
_atom_site_label
_atom_site_fract_x
_atom_site_fract_y
_atom_site_fract_z
Si Si1 0.140319 0.763748 0.188200
Si Si2 0.588160 0.672766 0.152110
Si Si3 0.955834 0.714410 0.255416
Si Si4 0.578235 0.631167 0.623461
Si Si5 0.204752 0.778031 0.700217
Si Si6 0.134105 0.621276 0.530080
Si Si7 0.110263 0.580755 0.276461
O O1 0.233749 0.850003 0.215205
O O2 0.138616 0.673241 0.216329
O O3 0.061514 0.763903 0.260089
O O4 0.115993 0.753413 0.050224
O O5 0.624884 0.707459 0.022028
O O6 0.642628 0.624439 0.191274
O O7 0.487131 0.607616 0.191066
O O8 0.927511 0.765081 0.162583
O O9 0.920359 0.618072 0.194524
O O10 0.567303 0.700429 0.705907
O O11 0.479194 0.568002 0.578770
O O12 0.200773 0.701680 0.614040
O O13 0.139439 0.812234 0.649360
O O14 0.162960 0.610851 0.400515
#
# Coordination Sequence:
#
# PCOD9574716 Si02
#       7
#     9   9   9   9   9   9   9
#     4  12  23  38  68  94 127 174 218 266 329 386
#     4  11  24  41  62  96 133 173 216 266 333 397
#     4  11  19  38  63  97 123 164 220 272 308 381
#     4  11  23  40  65  95 132 173 214 270 333 390
#     4  10  21  39  66  92 129 163 216 275 317 381
#     4  11  20  43  63  93 130 166 220 273 317 389
#     4  10  24  39  63  95 130 169 218 266 325 388
#
# _framework density 21.102792000000001
#
# number of rings (size 3 to 8) (size 9 to 14) (size 15 to 20)
#    0.000    1.143    4.286    3.429    2.000    2.286 
#    1.714    0.000    0.000    0.000    0.000    0.000 
#    0.000    0.000    0.000    0.000    0.000    0.000 
#
# Total GULP energy -117059.368020 kJ/mol
# GULP energy per Si atom -5574.255620 kJ/mol
# Density = 2.105476 g / cm^3
# Si number density = 21.102792 Si / 1000 Ang^3
#
#
#
# Elastic Constant Matrix: (Units=GPa)
#
#
# Indices 1 2 3 4 5 6 
#
# 1 58.6674 11.6766 1.4682 -2.9893 2.9164 0.0000
# 2 11.6766 58.6674 1.4682 2.9893 -2.9164 0.0000
# 3 1.4682 1.4682 55.8582 0.0000 0.0000 0.0000
# 4 -2.9893 2.9893 0.0000 24.8844 0.0000 -2.9164
# 5 2.9164 -2.9164 0.0000 0.0000 24.8844 -2.9893
# 6 0.0000 0.0000 0.0000 -2.9164 -2.9893 23.4954
#
#
#
# Elastic Compliance Matrix: (Units=1/GPa)
#
#
# Indices 1 2 3 4 5 6 
#
# 1 0.018083 -0.003852 -0.000374 0.002635 -0.002571 0.000000
# 2 -0.003852 0.018083 -0.000374 -0.002635 0.002571 0.000000
# 3 -0.000374 -0.000374 0.017922 0.000000 0.000000 0.000000
# 4 0.002635 -0.002635 0.000000 0.041422 0.000000 0.005141
# 5 -0.002571 0.002571 0.000000 0.000000 0.041422 0.005270
# 6 0.000000 0.000000 0.000000 0.005141 0.005270 0.043870
#
#
# Mechanical properties :
#
#
# Convention : Reuss Voigt Hill
#
# Bulk Modulus (GPa) = 22.27728 22.49101 22.38414
# Shear Modulus (GPa) = 24.39441 25.22481 24.80961
#
# Velocity S-wave (km/s) = 3.40366 3.46111 3.43250
# Velocity P-wave (km/s) = 5.10157 5.16268 5.13222
#
# Compressibility (1/GPa) = 0.04488879
#
# Stress axis : x y z
#
# Youngs Moduli (GPa) = 55.29965 55.29965 55.79692
#
# Poissons Ratio (x) = 0.21301 0.02087
# Poissons Ratio (y) = 0.21301 0.02087
# Poissons Ratio (z) = 0.02069 0.02069
#
# Static dielectric constant tensor:
#      x y z
#    x 1.794920 0.000000 0.000000 
#    y 0.000000 1.794920 0.000000 
#    z 0.000000 0.000000 1.845820 
# 
# From -- ./inp_files/1228.got.cif
#   From: 2010.05.17/outbox.cif.g08.bks.cpg/sg146_cif.got.tgz:1228.got - 2010.05.20 13:48:23.
