data_PCOD9574344
_publ_section_title
;
Structure prediction by ZEFSAII (Michael W. Deem and Ramdas Pophale) SiO2 
 PCOD9574344
Probable space group: P 31
;
_chemical_formula_sum "Si O2"
_cell_formula_units_Z 18
_cell_length_a 7.569231
_cell_length_b 7.569231
_cell_length_c 16.671966
_cell_angle_alpha 90.000000
_cell_angle_beta 90.000000
_cell_angle_gamma 120.000000
_cell_volume 827.219886
_symmetry_space_group_name_H-M "P 31"
_symmetry_group_IT_number 144
_symmetry_cell_setting 'hexagonal'
loop_
_space_group_symop_operation_xyz
x,y,z
-y,x-y,1/3+z
-x+y,-x,2/3+z
loop_
_atom_site_type_symbol
_atom_site_label
_atom_site_fract_x
_atom_site_fract_y
_atom_site_fract_z
Si Si1 0.266021 0.071774 0.454500
Si Si2 0.769538 0.079874 0.954440
Si Si3 0.510467 0.673704 0.636742
Si Si4 0.895404 0.037914 0.370718
Si Si5 0.364596 0.454408 0.156738
Si Si6 0.621788 0.102741 0.651832
O O1 0.345910 0.234488 0.526374
O O2 0.034689 0.013892 0.439246
O O3 0.333217 0.907835 0.477559
O O4 0.379676 0.180748 0.372666
O O5 0.791163 0.280403 0.996307
O O6 0.983461 0.089782 0.970079
O O7 0.557113 0.893466 0.983839
O O8 0.521482 0.719492 0.541176
O O9 0.487852 0.859966 0.672331
O O10 0.731739 0.726786 0.670987
O O11 0.677758 0.961630 0.410577
O O12 0.426526 0.335543 0.223904
#
# Coordination Sequence:
#
# PCOD9574344 Si02
#       6
#     3   3   3   3   3   3
#     4  10  21  40  63  91 125 164 209 262 319 383
#     4  11  22  38  66  89 122 170 209 253 333 375
#     4   9  21  41  58  93 124 158 211 259 315 379
#     4  11  22  39  65  91 126 164 213 264 317 384
#     4   9  20  40  62  88 131 161 203 274 314 368
#     4   8  20  38  60  90 124 159 207 262 314 377
#
# _framework density 21.759629
#
# number of rings (size 3 to 8) (size 9 to 14) (size 15 to 20)
#    1.000    1.333    0.000    2.000    2.333    1.333 
#    3.000    0.000    0.000    0.000    0.000    0.000 
#    0.000    0.000    0.000    0.000    0.000    0.000 
#
# Total GULP energy -100211.831921 kJ/mol
# GULP energy per Si atom -5567.323996 kJ/mol
# Density = 2.171010 g / cm^3
# Si number density = 21.759629 Si / 1000 Ang^3
#
#
#
# Elastic Constant Matrix: (Units=GPa)
#
#
# Indices 1 2 3 4 5 6 
#
# 1 58.3450 18.8898 15.4645 1.6147 1.3996 0.0000
# 2 18.8898 58.3450 15.4645 -1.6147 -1.3996 0.0000
# 3 15.4645 15.4645 51.5915 0.0000 0.0000 0.0000
# 4 1.6147 -1.6147 0.0000 19.9418 0.0000 -1.3996
# 5 1.3996 -1.3996 0.0000 0.0000 19.9418 1.6147
# 6 0.0000 0.0000 0.0000 -1.3996 1.6147 19.7276
#
#
#
# Elastic Compliance Matrix: (Units=1/GPa)
#
#
# Indices 1 2 3 4 5 6 
#
# 1 0.020178 -0.005465 -0.004410 -0.002076 -0.001800 0.000000
# 2 -0.005465 0.020178 -0.004410 0.002076 0.001800 0.000000
# 3 -0.004410 -0.004410 0.022027 0.000000 0.000000 0.000000
# 4 -0.002076 0.002076 0.000000 0.050735 0.000000 0.003599
# 5 -0.001800 0.001800 0.000000 0.000000 0.050735 -0.004153
# 6 0.000000 0.000000 0.000000 0.003599 -0.004153 0.051286
#
#
# Mechanical properties :
#
#
# Convention : Reuss Voigt Hill
#
# Bulk Modulus (GPa) = 29.57460 29.76879 29.67170
# Shear Modulus (GPa) = 19.60934 19.81975 19.71455
#
# Velocity S-wave (km/s) = 3.00522 3.02130 3.01327
# Velocity P-wave (km/s) = 5.06585 5.08738 5.07663
#
# Compressibility (1/GPa) = 0.03381280
#
# Stress axis : x y z
#
# Youngs Moduli (GPa) = 49.55830 49.55830 45.39873
#
# Poissons Ratio (x) = 0.27081 0.20023
# Poissons Ratio (y) = 0.27081 0.20023
# Poissons Ratio (z) = 0.21857 0.21857
#
# Static dielectric constant tensor:
#      x y z
#    x 1.794080 0.000000 0.000000 
#    y 0.000000 1.794080 0.000000 
#    z 0.000000 0.000000 1.856140 
# 
# From -- ./inp_files/906.got.cif
#   From: 2010.05.17/outbox.cif.g08.bks.cpg/sg144_cif.got.tgz:906.got - 2010.05.20 13:46:34.
