data_PCOD9574276
_publ_section_title
;
Structure prediction by ZEFSAII (Michael W. Deem and Ramdas Pophale) SiO2 
 PCOD9574276
Probable space group: P 3
;
_chemical_formula_sum "Si O2"
_cell_formula_units_Z 15
_cell_length_a 9.677222
_cell_length_b 9.677222
_cell_length_c 6.919487
_cell_angle_alpha 90.000000
_cell_angle_beta 90.000000
_cell_angle_gamma 120.000000
_cell_volume 561.184849
_symmetry_space_group_name_H-M "P 3"
_symmetry_group_IT_number 143
_symmetry_cell_setting 'hexagonal'
loop_
_space_group_symop_operation_xyz
x,y,z
-y,x-y,z
-x+y,-x,z
loop_
_atom_site_type_symbol
_atom_site_label
_atom_site_fract_x
_atom_site_fract_y
_atom_site_fract_z
Si Si1 0.077635 0.878623 0.555830
Si Si2 0.583586 0.034065 0.635499
Si Si3 0.732383 0.623136 0.872508
Si Si4 0.687811 0.839444 0.130284
Si Si5 0.976499 0.493389 0.190312
O O1 0.095310 0.880969 0.326206
O O2 0.100406 0.736170 0.630897
O O3 0.893908 0.828991 0.607811
O O4 0.203314 0.983668 0.968252
O O5 0.424892 0.999817 0.743121
O O6 0.728053 0.175496 0.753251
O O7 0.572642 0.070789 0.410108
O O8 0.660828 0.516318 0.068832
O O9 0.539627 0.665820 0.188640
O O10 0.627240 0.963360 0.087042
#
# Coordination Sequence:
#
# PCOD9574276 Si02
#       5
#     3   3   3   3   3
#     4   9  22  42  70  97 138 187 231 278 350 415
#     4  11  23  44  68 107 137 187 234 285 353 418
#     4  10  25  40  71 107 140 179 235 291 350 417
#     4   9  20  45  70 100 139 182 229 289 360 403
#     4   9  22  43  71  99 144 177 227 293 349 407
#
# _framework density 26.72916
#
# number of rings (size 3 to 8) (size 9 to 14) (size 15 to 20)
#    1.600    0.800    0.000    0.800    2.800    6.400 
#    3.600    0.000    0.000    0.000    0.000    0.000 
#    0.000    0.000    0.000    0.000    0.000    0.000 
#
# Total GULP energy -83650.694138 kJ/mol
# GULP energy per Si atom -5576.712943 kJ/mol
# Density = 2.666832 g / cm^3
# Si number density = 26.729160 Si / 1000 Ang^3
#
#
#
# Elastic Constant Matrix: (Units=GPa)
#
#
# Indices 1 2 3 4 5 6 
#
# 1 85.5495 15.1571 31.7035 5.0485 -15.1510 0.0000
# 2 15.1571 85.5495 31.7035 -5.0485 15.1510 0.0000
# 3 31.7035 31.7035 179.9174 0.0000 0.0000 0.0000
# 4 5.0485 -5.0485 0.0000 41.0363 0.0000 15.1510
# 5 -15.1510 15.1510 0.0000 0.0000 41.0363 5.0485
# 6 0.0000 0.0000 0.0000 15.1510 5.0485 35.1962
#
#
#
# Elastic Compliance Matrix: (Units=1/GPa)
#
#
# Indices 1 2 3 4 5 6 
#
# 1 0.014211 -0.003042 -0.001968 -0.002122 0.006370 0.000000
# 2 -0.003042 0.014211 -0.001968 0.002122 -0.006370 0.000000
# 3 -0.001968 -0.001968 0.006252 0.000000 0.000000 0.000000
# 4 -0.002122 0.002122 0.000000 0.029594 0.000000 -0.012740
# 5 0.006370 -0.006370 0.000000 0.000000 0.029594 -0.004245
# 6 0.000000 0.000000 0.000000 -0.012740 -0.004245 0.034505
#
#
# Mechanical properties :
#
#
# Convention : Reuss Voigt Hill
#
# Bulk Modulus (GPa) = 48.26887 56.46049 52.36468
# Shear Modulus (GPa) = 33.50554 41.61726 37.56140
#
# Velocity S-wave (km/s) = 3.54435 3.95016 3.75275
# Velocity P-wave (km/s) = 5.90319 6.47874 6.19765
#
# Compressibility (1/GPa) = 0.02071728
#
# Stress axis : x y z
#
# Youngs Moduli (GPa) = 70.36916 70.36916 159.95624
#
# Poissons Ratio (x) = 0.21405 0.31481
# Poissons Ratio (y) = 0.21405 0.31481
# Poissons Ratio (z) = 0.13849 0.13849
#
# Static dielectric constant tensor:
#      x y z
#    x 2.263390 0.000000 0.000000 
#    y 0.000000 2.263390 0.000000 
#    z 0.000000 0.000000 2.150970 
# 
# From -- ./inp_files/63.got.cif
#   From: 2010.05.17/outbox.cif.g08.bks.cpg/sg143_cif.got.tgz:63.got - 2010.05.20 13:46:24.
