data_PCOD9574614
_publ_section_title
;
Structure prediction by ZEFSAII (Michael W. Deem and Ramdas Pophale) SiO2 
 PCOD9574614
Probable space group: P 32
;
_chemical_formula_sum "Si O2"
_cell_formula_units_Z 21
_cell_length_a 8.941973
_cell_length_b 8.941973
_cell_length_c 12.250655
_cell_angle_alpha 90.000000
_cell_angle_beta 90.000000
_cell_angle_gamma 120.000000
_cell_volume 848.314030
_symmetry_space_group_name_H-M "P 32"
_symmetry_group_IT_number 145
_symmetry_cell_setting 'hexagonal'
loop_
_space_group_symop_operation_xyz
x,y,z
-y,x-y,2/3+z
-x+y,-x,1/3+z
loop_
_atom_site_type_symbol
_atom_site_label
_atom_site_fract_x
_atom_site_fract_y
_atom_site_fract_z
Si Si1 0.431252 0.557683 0.057510
Si Si2 0.113368 0.878835 0.768091
Si Si3 0.496642 0.836672 0.468827
Si Si4 0.915463 0.501171 0.711444
Si Si5 0.075622 0.874456 0.372764
Si Si6 0.468137 0.083219 0.294924
Si Si7 0.057879 0.280336 0.655578
O O1 0.640265 0.681148 0.073383
O O2 0.342082 0.665645 0.102417
O O3 0.289231 0.362463 0.100970
O O4 0.397821 0.525836 0.927021
O O5 0.101442 0.824289 0.893876
O O6 0.023209 0.705372 0.699957
O O7 0.979950 0.951526 0.758779
O O8 0.663265 0.823994 0.434837
O O9 0.511133 0.980427 0.385112
O O10 0.914787 0.440361 0.836607
O O11 0.726886 0.448121 0.669482
O O12 0.006103 0.424609 0.636995
O O13 0.897972 0.779981 0.307713
O O14 0.259279 0.981446 0.313213
#
# Coordination Sequence:
#
# PCOD9574614 Si02
#       7
#     3   3   3   3   3   3   3
#     4  11  24  46  75 105 143 200 257 311 384 479
#     4  11  25  47  75 107 145 204 249 319 392 478
#     4  11  22  44  75  99 143 194 253 311 387 465
#     4  11  24  46  74 104 146 193 249 318 386 473
#     4  10  27  44  70 108 149 192 251 324 387 462
#     4  10  24  49  71 103 149 194 252 316 388 468
#     4  12  24  44  74 104 149 193 249 313 396 465
#
# _framework density 24.754985000000001
#
# number of rings (size 3 to 8) (size 9 to 14) (size 15 to 20)
#    0.000    1.143    2.857    2.571    4.000    5.714 
#    5.143    0.000    0.000    0.000    0.000    0.000 
#    0.000    0.000    0.000    0.000    0.000    0.000 
#
# Total GULP energy -116959.524653 kJ/mol
# GULP energy per Si atom -5569.501174 kJ/mol
# Density = 2.469864 g / cm^3
# Si number density = 24.754985 Si / 1000 Ang^3
#
#
#
# Elastic Constant Matrix: (Units=GPa)
#
#
# Indices 1 2 3 4 5 6 
#
# 1 92.2144 22.3915 -6.1323 -0.6122 5.3327 0.0000
# 2 22.3915 92.2144 -6.1323 0.6122 -5.3327 0.0000
# 3 -6.1323 -6.1323 81.2704 0.0000 0.0000 0.0000
# 4 -0.6122 0.6122 0.0000 14.3779 0.0000 -5.3327
# 5 5.3327 -5.3327 0.0000 0.0000 14.3779 -0.6122
# 6 0.0000 0.0000 0.0000 -5.3327 -0.6122 34.9115
#
#
#
# Elastic Compliance Matrix: (Units=1/GPa)
#
#
# Indices 1 2 3 4 5 6 
#
# 1 0.011995 -0.003199 0.000664 0.000647 -0.005635 0.000000
# 2 -0.003199 0.011995 0.000664 -0.000647 0.005635 0.000000
# 3 0.000664 0.000664 0.012405 0.000000 0.000000 0.000000
# 4 0.000647 -0.000647 0.000000 0.073787 0.000000 0.011271
# 5 -0.005635 0.005635 0.000000 0.000000 0.073787 0.001294
# 6 0.000000 0.000000 0.000000 0.011271 0.001294 0.030388
#
#
# Mechanical properties :
#
#
# Convention : Reuss Voigt Hill
#
# Bulk Modulus (GPa) = 30.62510 31.77255 31.19883
# Shear Modulus (GPa) = 21.83563 29.77162 25.80362
#
# Velocity S-wave (km/s) = 2.97319 3.47169 3.23206
# Velocity P-wave (km/s) = 4.91779 5.37893 5.15352
#
# Compressibility (1/GPa) = 0.03265295
#
# Stress axis : x y z
#
# Youngs Moduli (GPa) = 83.36570 83.36570 80.61411
#
# Poissons Ratio (x) = 0.26667 -0.05351
# Poissons Ratio (y) = 0.26667 -0.05351
# Poissons Ratio (z) = -0.05533 -0.05533
#
# Static dielectric constant tensor:
#      x y z
#    x 2.072370 0.000000 0.000000 
#    y 0.000000 2.072370 0.000000 
#    z 0.000000 0.000000 1.938080 
# 
# From -- ./inp_files/643.got.cif
#   From: 2010.05.17/outbox.cif.g08.bks.cpg/sg145_cif.got.tgz:643.got - 2010.05.20 13:47:28.
