data_PCOD9574082
_publ_section_title
;
Structure prediction by ZEFSAII (Michael W. Deem and Ramdas Pophale) SiO2 
 PCOD9574082
Probable space group: I 41/A C D
;
_chemical_formula_sum "Si O2"
_cell_formula_units_Z 160
_cell_length_a 21.936546
_cell_length_b 21.936546
_cell_length_c 15.077716
_cell_angle_alpha 90.000000
_cell_angle_beta 90.000000
_cell_angle_gamma 90.000000
_cell_volume 7255.578632
_symmetry_space_group_name_H-M "I 41/A C D"
_symmetry_group_IT_number 142
_space_group.IT_coordinate_system_code '2'
_symmetry_cell_setting 'tetragonal'
loop_
_space_group_symop_operation_xyz
x,y,z
1/4-y,3/4+x,1/4+z
-x,1/2-y,z
1/4+y,1/4-x,3/4+z
x,-y,1/2-z
1/2-x,y,-z
3/4+y,1/4+x,1/4-z
1/4-y,1/4-x,1/4-z
-x,-y,-z
3/4+y,1/4-x,3/4-z
x,1/2+y,-z
3/4-y,3/4+x,1/4-z
-x,y,1/2+z
1/2+x,-y,z
1/4-y,3/4-x,3/4+z
3/4+y,3/4+x,3/4+z
1/2+x,1/2+y,1/2+z
3/4-y,1/4+x,3/4+z
1/2-x,-y,1/2+z
3/4+y,3/4-x,1/4+z
1/2+x,1/2-y,-z
-x,1/2+y,1/2-z
1/4+y,3/4+x,3/4-z
3/4-y,3/4-x,3/4-z
1/2-x,1/2-y,1/2-z
1/4+y,3/4-x,1/4-z
1/2+x,y,1/2-z
1/4-y,1/4+x,3/4-z
1/2-x,1/2+y,z
x,1/2-y,1/2+z
3/4-y,1/4-x,1/4+z
1/4+y,1/4+x,1/4+z
loop_
_atom_site_type_symbol
_atom_site_label
_atom_site_fract_x
_atom_site_fract_y
_atom_site_fract_z
Si Si1 0.679342 0.269954 0.016523
Si Si2 0.162847 0.252299 0.172820
Si Si3 0.512004 0.655269 0.408373
Si Si4 0.658589 0.556734 0.813080
Si Si5 0.746189 0.647762 0.261444
O O1 0.645192 0.245895 0.929709
O O2 0.671477 0.342681 0.026279
O O3 0.750000 0.257852 0.000000
O O4 0.658060 0.237309 0.105787
O O5 0.107306 0.238134 0.238238
O O6 0.196241 0.313288 0.207761
O O7 0.211167 0.196880 0.186838
O O8 0.449409 0.686329 0.377108
O O9 0.675934 0.500000 0.750000
O O10 0.644278 0.534712 0.912832
O O11 0.709803 0.392383 0.699746
#
# Coordination Sequence:
#
# PCOD9574082 Si02
#       5
#    32  32  32  32  32
#     4  11  21  41  66  98 130 175 226 274 334 416
#     4  11  22  40  67  99 130 180 223 276 346 409
#     4  11  25  43  67  99 135 172 225 294 349 406
#     4  11  21  38  67 102 130 176 226 279 332 407
#     4  11  22  39  67  99 136 173 227 282 336 412
#
# _framework density 22.051998000000001
#
# number of rings (size 3 to 8) (size 9 to 14) (size 15 to 20)
#    0.000    1.000    6.000    3.000    0.000    3.200 
#    0.000    2.000    8.800    0.000    0.000    0.000 
#    0.000    0.000    0.000    0.000    0.000    0.000 
#
# Total GULP energy -447685.158431 kJ/mol
# GULP energy per Si atom -5596.064480 kJ/mol
# Density = 2.200181 g / cm^3
# Si number density = 22.051998 Si / 1000 Ang^3
#
#
#
# Elastic Constant Matrix: (Units=GPa)
#
#
# Indices 1 2 3 4 5 6 
#
# 1 37.9833 47.2319 21.8070 0.0000 0.0000 0.0000
# 2 47.2319 37.9833 21.8070 0.0000 0.0000 0.0000
# 3 21.8070 21.8070 108.0446 0.0000 0.0000 0.0000
# 4 0.0000 0.0000 0.0000 27.8081 0.0000 0.0000
# 5 0.0000 0.0000 0.0000 0.0000 27.8081 0.0000
# 6 0.0000 0.0000 0.0000 0.0000 0.0000 31.6501
#
#
#
# Elastic Compliance Matrix: (Units=1/GPa)
#
#
# Indices 1 2 3 4 5 6 
#
# 1 -0.047519 0.060605 -0.002641 0.000000 0.000000 0.000000
# 2 0.060605 -0.047519 -0.002641 0.000000 0.000000 0.000000
# 3 -0.002641 -0.002641 0.010322 0.000000 0.000000 0.000000
# 4 0.000000 0.000000 0.000000 0.035961 0.000000 0.000000
# 5 0.000000 0.000000 0.000000 0.000000 0.035961 0.000000
# 6 0.000000 0.000000 0.000000 0.000000 0.000000 0.031595
#
#
# Mechanical properties :
#
#
# Convention : Reuss Voigt Hill
#
# Bulk Modulus (GPa) = 38.56545 40.63367 39.59956
# Shear Modulus (GPa) = -60.09579 23.66427 -18.21576
#
# Velocity S-wave (km/s) = -5.22599 3.27939 -2.87720
# Velocity P-wave (km/s) = 4.34607 5.72761 2.63792
#
# Compressibility (1/GPa) = 0.02592994
#
# Stress axis : x y z
#
# Youngs Moduli (GPa) = -21.04441 -21.04441 96.88360
#
# Poissons Ratio (x) = 1.27541 0.25590
# Poissons Ratio (y) = 1.27541 0.25590
# Poissons Ratio (z) = -0.05559 -0.05559
#
# Static dielectric constant tensor:
#      x y z
#    x 1.832860 0.000000 0.000000 
#    y 0.000000 1.832860 0.000000 
#    z 0.000000 0.000000 1.813110 
# 
# From -- ./inp_files/7425.got.cif
#   From: 2010.05.17/outbox.cif.g08.bks.cpg/sg142_4_cif.got.tgz:7425.got - 2010.05.20 13:39:18.
