data_PCOD9574802
_publ_section_title
;
Structure prediction by ZEFSAII (Michael W. Deem and Ramdas Pophale) SiO2 
 PCOD9574802
Probable space group: R 3
;
_chemical_formula_sum "Si O2"
_cell_formula_units_Z 60
_cell_length_a 21.095927
_cell_length_b 21.095927
_cell_length_c 8.800163
_cell_angle_alpha 90.000000
_cell_angle_beta 90.000000
_cell_angle_gamma 120.000000
_cell_volume 3391.708939
_symmetry_space_group_name_H-M "R 3"
_symmetry_group_IT_number 146
_symmetry_cell_setting 'hexagonal'
loop_
_space_group_symop_operation_xyz
x,y,z
-y,x-y,z
-x+y,-x,z
2/3+x,1/3+y,1/3+z
2/3-y,1/3+x-y,1/3+z
2/3-x+y,1/3-x,1/3+z
1/3+x,2/3+y,2/3+z
1/3-y,2/3+x-y,2/3+z
1/3-x+y,2/3-x,2/3+z
loop_
_atom_site_type_symbol
_atom_site_label
_atom_site_fract_x
_atom_site_fract_y
_atom_site_fract_z
Si Si1 0.333334 0.666667 0.673126
Si Si2 0.120577 0.131495 0.447257
Si Si3 0.846122 0.890626 0.168308
Si Si4 0.845351 0.633953 0.378582
Si Si5 0.762003 0.026175 0.610491
Si Si6 0.436313 0.367638 0.272942
Si Si7 0.886182 0.112415 0.207436
Si Si8 0.333334 0.666667 0.305650
O O1 0.250488 0.618135 0.739995
O O2 0.333334 0.666667 0.489211
O O3 0.065618 0.143560 0.340061
O O4 0.183981 0.200410 0.536105
O O5 0.168651 0.114954 0.327379
O O6 0.073084 0.067563 0.566408
O O7 0.767242 0.875440 0.115904
O O8 0.846452 0.815318 0.152944
O O9 0.909511 0.678386 0.501918
O O10 0.876307 0.595186 0.268902
O O11 0.838265 0.696503 0.290575
O O12 0.798423 0.061981 0.771005
O O13 0.677583 0.966577 0.635928
O O14 0.495862 0.403142 0.405304
#
# Coordination Sequence:
#
# PCOD9574802 Si02
#       8
#     3   9   9   9   9   9   9   3
#     4  12  25  35  70  99 121 158 211 267 310 380
#     4  11  22  39  61  88 124 165 200 254 320 375
#     4  12  22  43  65  87 124 171 212 249 319 378
#     4  11  22  39  63  90 121 168 205 254 316 380
#     4  11  23  35  61  96 123 155 203 263 322 366
#     4  12  20  36  61  95 126 149 204 260 317 368
#     4  11  23  39  64  89 121 172 206 253 315 378
#     4  12  25  38  55  96 130 152 205 264 313 371
#
# _framework density 17.690197999999999
#
# number of rings (size 3 to 8) (size 9 to 14) (size 15 to 20)
#    0.000    0.600    7.500    0.900    4.200    0.000 
#    0.000    0.000    6.600    0.000    0.000    0.000 
#    0.000    0.000    0.000    0.000    0.000    0.000 
#
# Total GULP energy -111601.766254 kJ/mol
# GULP energy per Si atom -5580.088313 kJ/mol
# Density = 1.764993 g / cm^3
# Si number density = 17.690198 Si / 1000 Ang^3
#
#
#
# Elastic Constant Matrix: (Units=GPa)
#
#
# Indices 1 2 3 4 5 6 
#
# 1 100.9274 46.7349 30.4054 3.7227 3.4531 0.0001
# 2 46.7349 100.9280 30.4047 -3.7227 -3.4523 0.0002
# 3 30.4054 30.4047 99.2605 0.0010 0.0004 0.0002
# 4 3.7227 -3.7227 0.0010 25.4140 0.0004 -3.4525
# 5 3.4531 -3.4523 0.0004 0.0004 25.4135 3.7227
# 6 0.0001 0.0002 0.0002 -3.4525 3.7227 27.0966
#
#
#
# Elastic Compliance Matrix: (Units=1/GPa)
#
#
# Indices 1 2 3 4 5 6 
#
# 1 0.013460 -0.005710 -0.002374 -0.002808 -0.002605 0.000000
# 2 -0.005710 0.013460 -0.002374 0.002808 0.002604 0.000000
# 3 -0.002374 -0.002374 0.011529 0.000000 0.000000 0.000000
# 4 -0.002808 0.002808 0.000000 0.040879 -0.000001 0.005209
# 5 -0.002605 0.002604 0.000000 -0.000001 0.040880 -0.005616
# 6 0.000000 0.000000 0.000000 0.005209 -0.005616 0.038340
#
#
# Mechanical properties :
#
#
# Convention : Reuss Voigt Hill
#
# Bulk Modulus (GPa) = 57.03568 57.35619 57.19593
# Shear Modulus (GPa) = 26.98213 28.48954 27.73584
#
# Velocity S-wave (km/s) = 3.90969 4.01742 3.96392
# Velocity P-wave (km/s) = 7.25895 7.34932 7.30427
#
# Compressibility (1/GPa) = 0.01753289
#
# Stress axis : x y z
#
# Youngs Moduli (GPa) = 74.29354 74.29429 86.73917
#
# Poissons Ratio (x) = 0.42424 0.20591
# Poissons Ratio (y) = 0.42423 0.20590
# Poissons Ratio (z) = 0.17637 0.17636
#
# Static dielectric constant tensor:
#      x y z
#    x 1.605530 0.000000 0.000000 
#    y 0.000000 1.605520 0.000000 
#    z 0.000000 0.000000 1.643410 
# 
# From -- ./inp_files/852.got.cif
#   From: 2010.05.17/outbox.cif.g08.bks.cpg/sg146_cif.got.tgz:852.got - 2010.05.20 13:48:23.
