data_PCOD9574318
_publ_section_title
;
Structure prediction by ZEFSAII (Michael W. Deem and Ramdas Pophale) SiO2 
 PCOD9574318
Probable space group: P 31
;
_chemical_formula_sum "Si O2"
_cell_formula_units_Z 24
_cell_length_a 7.863967
_cell_length_b 7.863967
_cell_length_c 20.838948
_cell_angle_alpha 90.000000
_cell_angle_beta 90.000000
_cell_angle_gamma 120.000000
_cell_volume 1116.065767
_symmetry_space_group_name_H-M "P 31"
_symmetry_group_IT_number 144
_symmetry_cell_setting 'hexagonal'
loop_
_space_group_symop_operation_xyz
x,y,z
-y,x-y,1/3+z
-x+y,-x,2/3+z
loop_
_atom_site_type_symbol
_atom_site_label
_atom_site_fract_x
_atom_site_fract_y
_atom_site_fract_z
Si Si1 0.191101 0.196853 0.750000
Si Si2 0.042449 0.278639 0.188680
Si Si3 0.413019 0.276201 0.218914
Si Si4 0.628585 0.739574 0.197468
Si Si5 0.758721 0.302266 0.286609
Si Si6 0.807049 0.028322 0.939374
Si Si7 0.254343 0.505903 0.507731
Si Si8 0.447566 0.079622 0.089036
O O1 0.088253 0.290862 0.791973
O O2 0.132200 0.168567 0.676373
O O3 0.425199 0.349285 0.753585
O O4 0.164056 0.011579 0.790400
O O5 0.192532 0.234329 0.228133
O O6 0.140632 0.509772 0.171000
O O7 0.853519 0.235096 0.230677
O O8 0.527996 0.510340 0.209640
O O9 0.530509 0.227697 0.272437
O O10 0.436603 0.191807 0.151344
O O11 0.464101 0.802339 0.203742
O O12 0.814112 0.830148 0.244042
O O13 0.821555 0.262166 0.355975
O O14 0.866486 0.540764 0.281180
O O15 0.678554 0.860014 0.888217
O O16 0.146505 0.432130 0.439138
#
# Coordination Sequence:
#
# PCOD9574318 Si02
#       8
#     3   3   3   3   3   3   3   3
#     4  10  20  39  59  85 121 160 199 257 316 368
#     4  10  20  39  59  87 123 158 207 262 309 380
#     4  10  20  39  59  85 122 158 203 255 311 376
#     4   9  20  39  57  84 120 155 200 257 305 378
#     4   9  19  40  62  86 122 162 204 258 319 378
#     4   9  19  38  63  84 118 163 205 254 320 374
#     4   9  20  39  61  85 118 161 202 257 318 383
#     4  10  20  39  62  86 118 161 202 254 324 379
#
# _framework density 21.504107999999999
#
# number of rings (size 3 to 8) (size 9 to 14) (size 15 to 20)
#    0.000    2.500    1.250    0.000    1.750    0.000 
#   22.500    0.000    0.000    0.000    0.000    0.000 
#    0.000    0.000    0.000    0.000    0.000    0.000 
#
# Total GULP energy -133899.502713 kJ/mol
# GULP energy per Si atom -5579.145946 kJ/mol
# Density = 2.145516 g / cm^3
# Si number density = 21.504108 Si / 1000 Ang^3
#
#
#
# Elastic Constant Matrix: (Units=GPa)
#
#
# Indices 1 2 3 4 5 6 
#
# 1 64.2422 22.8335 8.6819 -2.2924 0.0543 0.0000
# 2 22.8335 64.2422 8.6819 2.2924 -0.0543 0.0000
# 3 8.6819 8.6819 72.9573 0.0000 0.0000 0.0000
# 4 -2.2924 2.2924 0.0000 23.9480 0.0000 -0.0543
# 5 0.0543 -0.0543 0.0000 0.0000 23.9480 -2.2924
# 6 0.0000 0.0000 0.0000 -0.0543 -2.2924 20.7044
#
#
#
# Elastic Compliance Matrix: (Units=1/GPa)
#
#
# Indices 1 2 3 4 5 6 
#
# 1 0.018086 -0.006322 -0.001400 0.002336 -0.000055 0.000000
# 2 -0.006322 0.018086 -0.001400 -0.002336 0.000055 0.000000
# 3 -0.001400 -0.001400 0.014040 0.000000 0.000000 0.000000
# 4 0.002336 -0.002336 0.000000 0.042205 0.000000 0.000111
# 5 -0.000055 0.000055 0.000000 0.000000 0.042205 0.004673
# 6 0.000000 0.000000 0.000000 0.000111 0.004673 0.048817
#
#
# Mechanical properties :
#
#
# Convention : Reuss Voigt Hill
#
# Bulk Modulus (GPa) = 31.28202 31.31515 31.29859
# Shear Modulus (GPa) = 23.54741 24.46971 24.00856
#
# Velocity S-wave (km/s) = 3.31270 3.37695 3.34498
# Velocity P-wave (km/s) = 5.40468 5.45885 5.43183
#
# Compressibility (1/GPa) = 0.03196724
#
# Stress axis : x y z
#
# Youngs Moduli (GPa) = 55.29177 55.29177 71.22604
#
# Poissons Ratio (x) = 0.34958 0.09971
# Poissons Ratio (y) = 0.34958 0.09971
# Poissons Ratio (z) = 0.07740 0.07740
#
# Static dielectric constant tensor:
#      x y z
#    x 1.819950 0.000000 0.000000 
#    y 0.000000 1.819950 0.000000 
#    z 0.000000 0.000000 1.745500 
# 
# From -- ./inp_files/823.got.cif
#   From: 2010.05.17/outbox.cif.g08.bks.cpg/sg144_cif.got.tgz:823.got - 2010.05.20 13:46:34.
