data_PCOD9574581
_publ_section_title
;
Structure prediction by ZEFSAII (Michael W. Deem and Ramdas Pophale) SiO2 
 PCOD9574581
Probable space group: P 32
;
_chemical_formula_sum "Si O2"
_cell_formula_units_Z 24
_cell_length_a 14.740379
_cell_length_b 14.740379
_cell_length_c 6.148790
_cell_angle_alpha 90.000000
_cell_angle_beta 90.000000
_cell_angle_gamma 120.000000
_cell_volume 1157.011279
_symmetry_space_group_name_H-M "P 32"
_symmetry_group_IT_number 145
_symmetry_cell_setting 'hexagonal'
loop_
_space_group_symop_operation_xyz
x,y,z
-y,x-y,2/3+z
-x+y,-x,1/3+z
loop_
_atom_site_type_symbol
_atom_site_label
_atom_site_fract_x
_atom_site_fract_y
_atom_site_fract_z
Si Si1 0.636307 0.716273 0.163050
Si Si2 0.975809 0.588329 0.628735
Si Si3 0.977453 0.821602 0.196123
Si Si4 0.277693 0.390551 0.680726
Si Si5 0.321459 0.152012 0.201720
Si Si6 0.071711 0.526452 0.232935
Si Si7 0.462207 0.070273 0.165366
Si Si8 0.839929 0.850062 0.863625
O O1 0.619946 0.786143 0.335402
O O2 0.632895 0.622189 0.304081
O O3 0.533704 0.657213 0.012385
O O4 0.737815 0.796225 0.021305
O O5 0.922550 0.656479 0.589569
O O6 0.903452 0.479659 0.755047
O O7 0.004490 0.549048 0.410824
O O8 0.073215 0.663155 0.782715
O O9 0.867396 0.740220 0.308247
O O10 0.026916 0.751787 0.105856
O O11 0.054939 0.903117 0.380874
O O12 0.943733 0.875311 0.005452
O O13 0.357222 0.494894 0.808677
O O14 0.432698 0.157756 0.216615
O O15 0.242298 0.065251 0.367178
O O16 0.001924 0.447282 0.041550
#
# Coordination Sequence:
#
# PCOD9574581 Si02
#       8
#     3   3   3   3   3   3   3   3
#     4  11  23  43  70  98 131 177 230 286 354 425
#     4  10  22  41  68  98 128 173 229 280 351 426
#     4  12  27  44  66 102 142 192 241 295 352 430
#     4  11  23  43  70  98 131 177 230 286 354 425
#     4  12  22  44  69  96 136 189 232 286 366 412
#     4  10  22  42  69  94 130 171 220 286 344 422
#     4  10  22  41  68  98 128 173 229 280 351 426
#     4  12  27  44  66 102 142 192 241 295 352 430
#
# _framework density 20.743098
#
# number of rings (size 3 to 8) (size 9 to 14) (size 15 to 20)
#    0.000    1.000    5.000    1.500    0.000    1.000 
#    0.000    1.250   27.500    0.000    0.000    0.000 
#    0.000    0.000    0.000    0.000    0.000    0.000 
#
# Total GULP energy -133745.156166 kJ/mol
# GULP energy per Si atom -5572.714840 kJ/mol
# Density = 2.069589 g / cm^3
# Si number density = 20.743098 Si / 1000 Ang^3
#
#
#
# Elastic Constant Matrix: (Units=GPa)
#
#
# Indices 1 2 3 4 5 6 
#
# 1 63.9865 3.4799 6.6700 -4.6033 -1.5291 0.0000
# 2 3.4799 63.9865 6.6700 4.6033 1.5291 0.0000
# 3 6.6700 6.6700 51.7408 0.0000 0.0000 0.0000
# 4 -4.6033 4.6033 0.0000 28.7225 0.0000 1.5291
# 5 -1.5291 1.5291 0.0000 0.0000 28.7225 -4.6033
# 6 0.0000 0.0000 0.0000 1.5291 -4.6033 30.2533
#
#
#
# Elastic Compliance Matrix: (Units=1/GPa)
#
#
# Indices 1 2 3 4 5 6 
#
# 1 0.016098 -0.000889 -0.001961 0.002722 0.000904 0.000000
# 2 -0.000889 0.016098 -0.001961 -0.002722 -0.000904 0.000000
# 3 -0.001961 -0.001961 0.019833 0.000000 0.000000 0.000000
# 4 0.002722 -0.002722 0.000000 0.035785 0.000000 -0.001809
# 5 0.000904 -0.000904 0.000000 0.000000 0.035785 0.005445
# 6 0.000000 0.000000 0.000000 -0.001809 0.005445 0.033974
#
#
# Mechanical properties :
#
#
# Convention : Reuss Voigt Hill
#
# Bulk Modulus (GPa) = 23.57961 23.70593 23.64277
# Shear Modulus (GPa) = 27.57404 28.39926 27.98665
#
# Velocity S-wave (km/s) = 3.64993 3.70414 3.67713
# Velocity P-wave (km/s) = 5.39952 5.45412 5.42688
#
# Compressibility (1/GPa) = 0.04240952
#
# Stress axis : x y z
#
# Youngs Moduli (GPa) = 62.11766 62.11766 50.42195
#
# Poissons Ratio (x) = 0.05520 0.09886
# Poissons Ratio (y) = 0.05520 0.09886
# Poissons Ratio (z) = 0.12180 0.12180
#
# Static dielectric constant tensor:
#      x y z
#    x 1.782060 0.000000 0.000000 
#    y 0.000000 1.782060 0.000000 
#    z 0.000000 0.000000 1.847290 
# 
# From -- ./inp_files/167.got.cif
#   From: 2010.05.17/outbox.cif.g08.bks.cpg/sg145_cif.got.tgz:167.got - 2010.05.20 13:47:28.
