data_PCOD9574593
_publ_section_title
;
Structure prediction by ZEFSAII (Michael W. Deem and Ramdas Pophale) SiO2 
 PCOD9574593
Probable space group: P 32
;
_chemical_formula_sum "Si O2"
_cell_formula_units_Z 24
_cell_length_a 8.301376
_cell_length_b 8.301376
_cell_length_c 15.441238
_cell_angle_alpha 90.000000
_cell_angle_beta 90.000000
_cell_angle_gamma 120.000000
_cell_volume 921.537301
_symmetry_space_group_name_H-M "P 32"
_symmetry_group_IT_number 145
_symmetry_cell_setting 'hexagonal'
loop_
_space_group_symop_operation_xyz
x,y,z
-y,x-y,2/3+z
-x+y,-x,1/3+z
loop_
_atom_site_type_symbol
_atom_site_label
_atom_site_fract_x
_atom_site_fract_y
_atom_site_fract_z
Si Si1 0.760178 0.042930 0.861490
Si Si2 0.308676 0.580809 0.292325
Si Si3 0.033837 0.429696 0.430193
Si Si4 0.544992 0.241321 0.607595
Si Si5 0.218392 0.296921 0.647015
Si Si6 0.741800 0.607053 0.683407
Si Si7 0.927665 0.961085 0.085921
Si Si8 0.429515 0.476279 0.812873
O O1 0.624813 0.876776 0.925842
O O2 0.594096 0.050291 0.809938
O O3 0.896704 0.223024 0.917572
O O4 0.892559 0.000507 0.804551
O O5 0.240193 0.566149 0.391541
O O6 0.530588 0.723172 0.286529
O O7 0.199890 0.635160 0.221183
O O8 0.012070 0.236670 0.465451
O O9 0.925817 0.363986 0.339956
O O10 0.394437 0.309876 0.595371
O O11 0.706768 0.401314 0.665252
O O12 0.595322 0.153015 0.527613
O O13 0.268773 0.332401 0.750832
O O14 0.069419 0.079502 0.660929
O O15 0.575289 0.604054 0.737251
O O16 0.922556 0.746462 0.734535
#
# Coordination Sequence:
#
# PCOD9574593 Si02
#       8
#     3   3   3   3   3   3   3   3
#     4  12  26  44  75 111 152 207 262 326 405 485
#     4  11  22  44  72 110 149 202 253 327 402 481
#     4  10  24  48  74 108 152 199 258 326 398 483
#     4   9  23  44  75 105 151 200 252 324 396 471
#     4  10  24  43  72 112 143 200 262 308 405 486
#     4  11  24  43  75 106 143 203 255 313 406 465
#     4  11  25  49  72 105 159 197 263 333 392 490
#     4  10  22  47  75 105 153 194 255 333 390 481
#
# _framework density 26.043434999999999
#
# number of rings (size 3 to 8) (size 9 to 14) (size 15 to 20)
#    0.000    1.500    2.500    0.750    7.000    5.000 
#    4.500    0.000    0.000    0.000    0.000    0.000 
#    0.000    0.000    0.000    0.000    0.000    0.000 
#
# Total GULP energy -133819.455278 kJ/mol
# GULP energy per Si atom -5575.810637 kJ/mol
# Density = 2.598416 g / cm^3
# Si number density = 26.043435 Si / 1000 Ang^3
#
#
#
# Elastic Constant Matrix: (Units=GPa)
#
#
# Indices 1 2 3 4 5 6 
#
# 1 118.3770 44.6987 37.6866 -10.3217 -8.3416 0.0000
# 2 44.6987 118.3770 37.6866 10.3217 8.3416 0.0000
# 3 37.6866 37.6866 55.8336 0.0000 0.0000 0.0000
# 4 -10.3217 10.3217 0.0000 37.2007 0.0000 8.3416
# 5 -8.3416 8.3416 0.0000 0.0000 37.2007 -10.3217
# 6 0.0000 0.0000 0.0000 8.3416 -10.3217 36.8391
#
#
#
# Elastic Compliance Matrix: (Units=1/GPa)
#
#
# Indices 1 2 3 4 5 6 
#
# 1 0.012243 -0.003331 -0.006016 0.004321 0.003492 0.000000
# 2 -0.003331 0.012243 -0.006016 -0.004321 -0.003492 0.000000
# 3 -0.006016 -0.006016 0.026032 0.000000 0.000000 0.000000
# 4 0.004321 -0.004321 0.000000 0.030845 0.000000 -0.006984
# 5 0.003492 -0.003492 0.000000 0.000000 0.030845 0.008642
# 6 0.000000 0.000000 0.000000 -0.006984 0.008642 0.031148
#
#
# Mechanical properties :
#
#
# Convention : Reuss Voigt Hill
#
# Bulk Modulus (GPa) = 50.52190 59.19235 54.85712
# Shear Modulus (GPa) = 27.67337 33.74916 30.71126
#
# Velocity S-wave (km/s) = 3.26327 3.60374 3.43772
# Velocity P-wave (km/s) = 5.79998 6.33195 6.07179
#
# Compressibility (1/GPa) = 0.01979340
#
# Stress axis : x y z
#
# Youngs Moduli (GPa) = 81.67726 81.67726 38.41494
#
# Poissons Ratio (x) = 0.27204 0.23110
# Poissons Ratio (y) = 0.27204 0.23110
# Poissons Ratio (z) = 0.49136 0.49136
#
# Static dielectric constant tensor:
#      x y z
#    x 2.157850 0.000000 0.000000 
#    y 0.000000 2.157850 0.000000 
#    z 0.000000 0.000000 2.107550 
# 
# From -- ./inp_files/847.got.cif
#   From: 2010.05.17/outbox.cif.g08.bks.cpg/sg145_cif.got.tgz:847.got - 2010.05.20 13:47:28.
