data_PCOD9574587
_publ_section_title
;
Structure prediction by ZEFSAII (Michael W. Deem and Ramdas Pophale) SiO2 
 PCOD9574587
Probable space group: P 32
;
_chemical_formula_sum "Si O2"
_cell_formula_units_Z 15
_cell_length_a 9.544336
_cell_length_b 9.544336
_cell_length_c 7.361650
_cell_angle_alpha 90.000000
_cell_angle_beta 90.000000
_cell_angle_gamma 120.000000
_cell_volume 580.760723
_symmetry_space_group_name_H-M "P 32"
_symmetry_group_IT_number 145
_symmetry_cell_setting 'hexagonal'
loop_
_space_group_symop_operation_xyz
x,y,z
-y,x-y,2/3+z
-x+y,-x,1/3+z
loop_
_atom_site_type_symbol
_atom_site_label
_atom_site_fract_x
_atom_site_fract_y
_atom_site_fract_z
Si Si1 0.606268 0.074660 0.887770
Si Si2 0.379962 0.065509 0.620836
Si Si3 0.667302 0.631769 0.537705
Si Si4 0.276464 0.712506 0.657606
Si Si5 0.864490 0.973895 0.391477
O O1 0.545809 0.150447 0.732070
O O2 0.796300 0.161493 0.877230
O O3 0.533779 0.884266 0.865557
O O4 0.519420 0.073199 0.076197
O O5 0.398654 0.022571 0.415522
O O6 0.277662 0.154595 0.650731
O O7 0.293807 0.885876 0.708143
O O8 0.712124 0.805417 0.455091
O O9 0.367994 0.656442 0.512493
O O10 0.954326 0.934299 0.232740
#
# Coordination Sequence:
#
# PCOD9574587 Si02
#       5
#     3   3   3   3   3
#     4  11  27  45  67 107 146 196 247 306 382 453
#     4  11  25  44  73 106 142 191 250 310 371 448
#     4  12  27  45  72 104 149 197 246 311 378 449
#     4  10  22  44  68 100 143 192 243 300 378 453
#     4  12  23  44  74 111 140 186 254 313 367 439
#
# _framework density 25.828195000000001
#
# number of rings (size 3 to 8) (size 9 to 14) (size 15 to 20)
#    0.000    0.800    4.000    2.400    2.800    0.000 
#    0.000    0.000    0.000    0.000    0.000    0.000 
#    0.000    0.000    0.000    0.000    0.000    0.000 
#
# Total GULP energy -83718.629654 kJ/mol
# GULP energy per Si atom -5581.241977 kJ/mol
# Density = 2.576941 g / cm^3
# Si number density = 25.828195 Si / 1000 Ang^3
#
#
#
# Elastic Constant Matrix: (Units=GPa)
#
#
# Indices 1 2 3 4 5 6 
#
# 1 50.2720 23.9446 -4.2723 0.4588 4.5430 0.0000
# 2 23.9446 50.2720 -4.2723 -0.4588 -4.5430 0.0000
# 3 -4.2723 -4.2723 167.0002 0.0000 0.0000 0.0000
# 4 0.4588 -0.4588 0.0000 23.4576 0.0000 -4.5430
# 5 4.5430 -4.5430 0.0000 0.0000 23.4576 0.4588
# 6 0.0000 0.0000 0.0000 -4.5430 0.4588 13.1637
#
#
#
# Elastic Compliance Matrix: (Units=1/GPa)
#
#
# Indices 1 2 3 4 5 6 
#
# 1 0.027124 -0.013610 0.000346 -0.000797 -0.007889 0.000000
# 2 -0.013610 0.027124 0.000346 0.000797 0.007889 0.000000
# 3 0.000346 0.000346 0.006006 0.000000 0.000000 0.000000
# 4 -0.000797 0.000797 0.000000 0.045717 0.000000 0.015777
# 5 -0.007889 0.007889 0.000000 0.000000 0.045717 -0.001593
# 6 0.000000 0.000000 0.000000 0.015777 -0.001593 0.081467
#
#
# Mechanical properties :
#
#
# Convention : Reuss Voigt Hill
#
# Bulk Modulus (GPa) = 29.05599 33.14939 31.10269
# Shear Modulus (GPa) = 18.48683 28.82538 23.65610
#
# Velocity S-wave (km/s) = 2.67827 3.34435 3.02967
# Velocity P-wave (km/s) = 4.56490 5.27023 4.93020
#
# Compressibility (1/GPa) = 0.03441631
#
# Stress axis : x y z
#
# Youngs Moduli (GPa) = 36.86812 36.86812 166.50837
#
# Poissons Ratio (x) = 0.50177 -0.05756
# Poissons Ratio (y) = 0.50177 -0.05756
# Poissons Ratio (z) = -0.01275 -0.01275
#
# Static dielectric constant tensor:
#      x y z
#    x 2.247800 0.000000 0.000000 
#    y 0.000000 2.247800 0.000000 
#    z 0.000000 0.000000 2.317510 
# 
# From -- ./inp_files/272.got.cif
#   From: 2010.05.17/outbox.cif.g08.bks.cpg/sg145_cif.got.tgz:272.got - 2010.05.20 13:47:28.
