data_PCOD9574085
_publ_section_title
;
Structure prediction by ZEFSAII (Michael W. Deem and Ramdas Pophale) SiO2 
 PCOD9574085
Probable space group: I 41/A C D
;
_chemical_formula_sum "Si O2"
_cell_formula_units_Z 144
_cell_length_a 19.460709
_cell_length_b 19.460709
_cell_length_c 18.358095
_cell_angle_alpha 90.000000
_cell_angle_beta 90.000000
_cell_angle_gamma 90.000000
_cell_volume 6952.562956
_symmetry_space_group_name_H-M "I 41/A C D"
_symmetry_group_IT_number 142
_space_group.IT_coordinate_system_code '2'
_symmetry_cell_setting 'tetragonal'
loop_
_space_group_symop_operation_xyz
x,y,z
1/4-y,3/4+x,1/4+z
-x,1/2-y,z
1/4+y,1/4-x,3/4+z
x,-y,1/2-z
1/2-x,y,-z
3/4+y,1/4+x,1/4-z
1/4-y,1/4-x,1/4-z
-x,-y,-z
3/4+y,1/4-x,3/4-z
x,1/2+y,-z
3/4-y,3/4+x,1/4-z
-x,y,1/2+z
1/2+x,-y,z
1/4-y,3/4-x,3/4+z
3/4+y,3/4+x,3/4+z
1/2+x,1/2+y,1/2+z
3/4-y,1/4+x,3/4+z
1/2-x,-y,1/2+z
3/4+y,3/4-x,1/4+z
1/2+x,1/2-y,-z
-x,1/2+y,1/2-z
1/4+y,3/4+x,3/4-z
3/4-y,3/4-x,3/4-z
1/2-x,1/2-y,1/2-z
1/4+y,3/4-x,1/4-z
1/2+x,y,1/2-z
1/4-y,1/4+x,3/4-z
1/2-x,1/2+y,z
x,1/2-y,1/2+z
3/4-y,1/4-x,1/4+z
1/4+y,1/4+x,1/4+z
loop_
_atom_site_type_symbol
_atom_site_label
_atom_site_fract_x
_atom_site_fract_y
_atom_site_fract_z
Si Si1 0.546759 0.994627 0.571396
Si Si2 0.484992 0.638103 0.668485
Si Si3 0.741972 0.922284 0.775131
Si Si4 0.179414 0.835050 0.047361
Si Si5 0.367857 0.617857 0.125000
O O1 0.625198 0.988392 0.545972
O O2 0.544091 0.057501 0.628204
O O3 0.500000 0.000000 0.500000
O O4 0.529457 0.926635 0.616011
O O5 0.451296 0.701296 0.625000
O O6 0.446614 0.628033 0.745014
O O7 0.567056 0.630914 0.678028
O O8 0.666161 0.919551 0.810180
O O9 0.798756 0.888218 0.827427
O O10 0.758475 0.000000 0.750000
O O11 0.250000 0.830112 0.000000
#
# Coordination Sequence:
#
# PCOD9574085 Si02
#       5
#    32  32  32  32  16
#     4  11  21  41  64  94 129 170 219 269 331 398
#     4  11  22  42  64  89 129 176 219 263 326 410
#     4  11  22  40  66  99 129 162 218 279 330 387
#     4   9  21  38  66  91 123 172 217 263 331 399
#     4  12  25  38  62 102 130 164 210 277 334 388
#
# _framework density 20.711787000000001
#
# number of rings (size 3 to 8) (size 9 to 14) (size 15 to 20)
#    0.000    1.333    4.444    1.667    0.000    2.667 
#    4.000    0.000    0.000    0.000    5.778    0.000 
#    0.000    0.000    0.000    0.000    0.000    0.000 
#
# Total GULP energy -401639.548263 kJ/mol
# GULP energy per Si atom -5578.327059 kJ/mol
# Density = 2.066465 g / cm^3
# Si number density = 20.711787 Si / 1000 Ang^3
#
#
#
# Elastic Constant Matrix: (Units=GPa)
#
#
# Indices 1 2 3 4 5 6 
#
# 1 99.5595 33.7477 41.4175 0.0000 0.0000 0.0000
# 2 33.7477 99.5595 41.4175 0.0000 0.0000 0.0000
# 3 41.4175 41.4175 100.4144 0.0000 0.0000 0.0000
# 4 0.0000 0.0000 0.0000 24.4904 0.0000 0.0000
# 5 0.0000 0.0000 0.0000 0.0000 24.4904 0.0000
# 6 0.0000 0.0000 0.0000 0.0000 0.0000 22.3068
#
#
#
# Elastic Compliance Matrix: (Units=1/GPa)
#
#
# Indices 1 2 3 4 5 6 
#
# 1 0.012641 -0.002554 -0.004160 0.000000 0.000000 0.000000
# 2 -0.002554 0.012641 -0.004160 0.000000 0.000000 0.000000
# 3 -0.004160 -0.004160 0.013391 0.000000 0.000000 0.000000
# 4 0.000000 0.000000 0.000000 0.040832 0.000000 0.000000
# 5 0.000000 0.000000 0.000000 0.000000 0.040832 0.000000
# 6 0.000000 0.000000 0.000000 0.000000 0.000000 0.044829
#
#
# Mechanical properties :
#
#
# Convention : Reuss Voigt Hill
#
# Bulk Modulus (GPa) = 59.09287 59.18873 59.14080
# Shear Modulus (GPa) = 25.96634 26.45423 26.21029
#
# Velocity S-wave (km/s) = 3.54460 3.57775 3.56121
# Velocity P-wave (km/s) = 6.73389 6.76065 6.74728
#
# Compressibility (1/GPa) = 0.01692251
#
# Stress axis : x y z
#
# Youngs Moduli (GPa) = 79.10913 79.10913 74.67824
#
# Poissons Ratio (x) = 0.20205 0.31069
# Poissons Ratio (y) = 0.20205 0.31069
# Poissons Ratio (z) = 0.32913 0.32913
#
# Static dielectric constant tensor:
#      x y z
#    x 1.746760 0.000000 0.000000 
#    y 0.000000 1.746760 0.000000 
#    z 0.000000 0.000000 1.739210 
# 
# From -- ./inp_files/7305.got.cif
#   From: 2010.05.17/outbox.cif.g08.bks.cpg/sg142_4_cif.got.tgz:7305.got - 2010.05.20 13:39:18.
