data_PCOD9574627
_publ_section_title
;
Structure prediction by ZEFSAII (Michael W. Deem and Ramdas Pophale) SiO2 
 PCOD9574627
Probable space group: P 32
;
_chemical_formula_sum "Si O2"
_cell_formula_units_Z 18
_cell_length_a 7.480113
_cell_length_b 7.480113
_cell_length_c 14.299287
_cell_angle_alpha 90.000000
_cell_angle_beta 90.000000
_cell_angle_gamma 120.000000
_cell_volume 692.885275
_symmetry_space_group_name_H-M "P 32"
_symmetry_group_IT_number 145
_symmetry_cell_setting 'hexagonal'
loop_
_space_group_symop_operation_xyz
x,y,z
-y,x-y,2/3+z
-x+y,-x,1/3+z
loop_
_atom_site_type_symbol
_atom_site_label
_atom_site_fract_x
_atom_site_fract_y
_atom_site_fract_z
Si Si1 0.308502 0.421879 0.937680
Si Si2 0.159676 0.840325 0.671448
Si Si3 0.381851 0.145964 0.818043
Si Si4 0.512394 0.024790 0.338116
Si Si5 0.764113 0.145964 0.858187
Si Si6 0.308502 0.886622 0.071884
O O1 0.320198 0.222365 0.909469
O O2 0.237856 0.475712 0.838116
O O3 0.528656 0.610252 0.966204
O O4 0.137247 0.403203 0.011846
O O5 0.081599 0.610255 0.710026
O O6 0.006839 0.810489 0.587933
O O7 0.189512 0.993163 0.754964
O O8 0.521862 0.353991 0.756653
O O9 0.523351 0.046703 0.838115
O O10 0.596796 0.862754 0.331052
O O11 0.521859 0.167871 0.252913
O O12 0.902166 0.222367 0.766762
#
# Coordination Sequence:
#
# PCOD9574627 Si02
#       6
#     3   3   3   3   3   3
#     4   9  20  41  64  91 131 175 219 272 325 385
#     4  11  22  40  66  97 132 172 220 275 330 393
#     4  11  22  40  68  98 130 176 224 270 333 401
#     4   9  20  42  64  91 128 170 220 271 326 387
#     4  11  22  40  68  98 130 176 224 270 333 401
#     4   9  20  41  64  91 131 175 219 272 325 385
#
# _framework density 25.978325000000002
#
# number of rings (size 3 to 8) (size 9 to 14) (size 15 to 20)
#    0.000    2.000    0.000    3.000    0.000    0.000 
#    0.000   55.000    0.000    0.000    0.000    0.000 
#    0.000    0.000    0.000    0.000    0.000    0.000 
#
# Total GULP energy -100672.570036 kJ/mol
# GULP energy per Si atom -5592.920558 kJ/mol
# Density = 2.591920 g / cm^3
# Si number density = 25.978325 Si / 1000 Ang^3
#
#
#
# Elastic Constant Matrix: (Units=GPa)
#
#
# Indices 1 2 3 4 5 6 
#
# 1 84.5405 32.6237 40.2310 0.0000 -5.2756 0.0000
# 2 32.6237 84.5405 40.2310 0.0000 5.2756 0.0000
# 3 40.2310 40.2310 130.6711 0.0000 0.0000 0.0000
# 4 0.0000 0.0000 0.0000 59.9812 0.0000 5.2756
# 5 -5.2756 5.2756 0.0000 0.0000 59.9812 0.0000
# 6 0.0000 0.0000 0.0000 5.2756 0.0000 25.9584
#
#
#
# Elastic Compliance Matrix: (Units=1/GPa)
#
#
# Indices 1 2 3 4 5 6 
#
# 1 0.015218 -0.004394 -0.003332 0.000000 0.001725 0.000000
# 2 -0.004394 0.015218 -0.003332 0.000000 -0.001725 0.000000
# 3 -0.003332 -0.003332 0.009705 0.000000 0.000000 0.000000
# 4 0.000000 0.000000 0.000000 0.016975 0.000000 -0.003450
# 5 0.001725 -0.001725 0.000000 0.000000 0.016975 0.000000
# 6 0.000000 0.000000 0.000000 -0.003450 0.000000 0.039224
#
#
# Mechanical properties :
#
#
# Convention : Reuss Voigt Hill
#
# Bulk Modulus (GPa) = 55.48659 58.43592 56.96126
# Shear Modulus (GPa) = 35.35048 41.62860 38.48954
#
# Velocity S-wave (km/s) = 3.69286 4.00739 3.85333
# Velocity P-wave (km/s) = 6.29191 6.62987 6.46310
#
# Compressibility (1/GPa) = 0.01802237
#
# Stress axis : x y z
#
# Youngs Moduli (GPa) = 65.71241 65.71241 103.04268
#
# Poissons Ratio (x) = 0.28876 0.34337
# Poissons Ratio (y) = 0.28876 0.34337
# Poissons Ratio (z) = 0.21898 0.21898
#
# Static dielectric constant tensor:
#      x y z
#    x 2.064300 0.000000 0.000000 
#    y 0.000000 2.064300 0.000000 
#    z 0.000000 0.000000 2.061180 
# 
# From -- ./inp_files/727.got.cif
#   From: 2010.05.17/outbox.cif.g08.bks.cpg/sg145_cif.got.tgz:727.got - 2010.05.20 13:47:28.
