data_PCOD9574696
_publ_section_title
;
Structure prediction by ZEFSAII (Michael W. Deem and Ramdas Pophale) SiO2 
 PCOD9574696
Probable space group: R 3
;
_chemical_formula_sum "Si O2"
_cell_formula_units_Z 60
_cell_length_a 19.590933
_cell_length_b 19.590933
_cell_length_c 8.928261
_cell_angle_alpha 90.000000
_cell_angle_beta 90.000000
_cell_angle_gamma 120.000000
_cell_volume 2967.616301
_symmetry_space_group_name_H-M "R 3"
_symmetry_group_IT_number 146
_symmetry_cell_setting 'hexagonal'
loop_
_space_group_symop_operation_xyz
x,y,z
-y,x-y,z
-x+y,-x,z
2/3+x,1/3+y,1/3+z
2/3-y,1/3+x-y,1/3+z
2/3-x+y,1/3-x,1/3+z
1/3+x,2/3+y,2/3+z
1/3-y,2/3+x-y,2/3+z
1/3-x+y,2/3-x,2/3+z
loop_
_atom_site_type_symbol
_atom_site_label
_atom_site_fract_x
_atom_site_fract_y
_atom_site_fract_z
Si Si1 0.496229 0.842041 0.729340
Si Si2 0.788873 0.600976 0.943315
Si Si3 0.862228 0.892618 0.847068
Si Si4 0.000000 0.000000 0.689752
Si Si5 0.481075 0.207325 0.627912
Si Si6 0.827812 0.761954 0.072303
Si Si7 0.375192 0.357505 0.248477
Si Si8 0.666668 0.333334 0.672643
O O1 0.412241 0.791943 0.646566
O O2 0.473920 0.879715 0.868019
O O3 0.538866 0.792995 0.775182
O O4 0.555513 0.904163 0.609352
O O5 0.744508 0.562005 0.787617
O O6 0.881568 0.640913 0.913487
O O7 0.756190 0.529923 0.059231
O O8 0.782158 0.670773 0.027457
O O9 0.941161 0.915508 0.757494
O O10 0.829207 0.809195 0.924480
O O11 0.000000 0.000000 0.516836
O O12 0.463772 0.129288 0.536590
O O13 0.576928 0.266413 0.632259
O O14 0.331722 0.337427 0.413422
#
# Coordination Sequence:
#
# PCOD9574696 Si02
#       8
#     9   9   9   3   9   9   9   3
#     4  10  20  37  62  94 125 167 217 277 341 401
#     4  11  24  43  60  94 133 173 223 267 341 425
#     4  11  21  39  64  94 128 172 220 280 347 406
#     4  12  21  34  68 106 129 163 215 310 354 388
#     4  11  22  40  66  99 130 169 223 289 352 410
#     4  10  23  40  65  90 129 176 219 276 342 412
#     4  11  22  39  63  94 132 180 223 271 335 411
#     4  12  21  34  68 109 126 160 218 304 360 385
#
# _framework density 20.218247999999999
#
# number of rings (size 3 to 8) (size 9 to 14) (size 15 to 20)
#    0.000    1.200    6.000    0.900    0.000    0.000 
#    2.700    1.500    0.000    0.000    0.000    0.000 
#    0.000    0.000    0.000    0.000    0.000    0.000 
#
# Total GULP energy -111390.591056 kJ/mol
# GULP energy per Si atom -5569.529553 kJ/mol
# Density = 2.017223 g / cm^3
# Si number density = 20.218248 Si / 1000 Ang^3
#
#
#
# Elastic Constant Matrix: (Units=GPa)
#
#
# Indices 1 2 3 4 5 6 
#
# 1 34.5698 43.5938 41.1672 -24.9802 -12.0353 -0.0002
# 2 43.5938 34.5702 41.1669 24.9797 12.0351 0.0000
# 3 41.1672 41.1669 152.6514 0.0003 0.0003 -0.0001
# 4 -24.9802 24.9797 0.0003 2.5797 0.0010 12.0361
# 5 -12.0353 12.0351 0.0003 0.0010 2.5814 -24.9805
# 6 -0.0002 0.0000 -0.0001 12.0361 -24.9805 -4.5125
#
#
#
# Elastic Compliance Matrix: (Units=1/GPa)
#
#
# Indices 1 2 3 4 5 6 
#
# 1 0.008108 0.009762 -0.004819 -0.016003 -0.007710 -0.000001
# 2 0.009762 0.008109 -0.004819 0.016003 0.007710 0.000001
# 3 -0.004819 -0.004819 0.009150 0.000000 0.000000 0.000000
# 4 -0.016003 0.016003 0.000000 0.005781 0.000000 0.015420
# 5 -0.007710 0.007710 0.000000 0.000000 0.005781 -0.032004
# 6 -0.000001 0.000001 0.000000 0.015420 -0.032004 -0.003306
#
#
# Mechanical properties :
#
#
# Convention : Reuss Voigt Hill
#
# Bulk Modulus (GPa) = 39.04219 52.62746 45.83483
# Shear Modulus (GPa) = 119.29118 6.52062 62.90590
#
# Velocity S-wave (km/s) = 7.68959 1.79781 5.58399
# Velocity P-wave (km/s) = 9.90919 5.51323 8.01835
#
# Compressibility (1/GPa) = 0.02561332
#
# Stress axis : x y z
#
# Youngs Moduli (GPa) = 123.33443 123.32697 109.28809
#
# Poissons Ratio (x) = -1.20387 0.52666
# Poissons Ratio (y) = -1.20394 0.52669
# Poissons Ratio (z) = 0.59435 0.59434
#
# Static dielectric constant tensor:
#      x y z
#    x 1.749170 0.000000 0.000000 
#    y 0.000000 1.749170 0.000000 
#    z 0.000000 0.000000 1.713610 
# 
# From -- ./inp_files/854.got.cif
#   From: 2010.05.17/outbox.cif.g08.bks.cpg/sg146_cif.got.tgz:854.got - 2010.05.20 13:48:23.
