data_PCOD9574505
_publ_section_title
;
Structure prediction by ZEFSAII (Michael W. Deem and Ramdas Pophale) SiO2 
 PCOD9574505
Probable space group: P 31
;
_chemical_formula_sum "Si O2"
_cell_formula_units_Z 18
_cell_length_a 11.489745
_cell_length_b 11.489745
_cell_length_c 6.415745
_cell_angle_alpha 90.000000
_cell_angle_beta 90.000000
_cell_angle_gamma 120.000000
_cell_volume 733.497278
_symmetry_space_group_name_H-M "P 31"
_symmetry_group_IT_number 144
_symmetry_cell_setting 'hexagonal'
loop_
_space_group_symop_operation_xyz
x,y,z
-y,x-y,1/3+z
-x+y,-x,2/3+z
loop_
_atom_site_type_symbol
_atom_site_label
_atom_site_fract_x
_atom_site_fract_y
_atom_site_fract_z
Si Si1 0.240151 0.554912 0.251700
Si Si2 0.339475 0.033187 0.844777
Si Si3 0.587993 0.439340 0.836185
Si Si4 0.968899 0.888701 0.547609
Si Si5 0.766584 0.197228 0.810112
Si Si6 0.015427 0.668121 0.774195
O O1 0.300442 0.592987 0.480989
O O2 0.292240 0.458345 0.163406
O O3 0.083915 0.459438 0.202901
O O4 0.192509 0.000162 0.923614
O O5 0.357018 0.092920 0.610084
O O6 0.438869 0.132190 0.020843
O O7 0.496770 0.333312 0.666042
O O8 0.691645 0.446331 0.008211
O O9 0.472284 0.433134 0.985789
O O10 0.010957 0.780610 0.622520
O O11 0.969798 0.935552 0.313914
O O12 0.724024 0.072794 0.650965
#
# Coordination Sequence:
#
# PCOD9574505 Si02
#       6
#     3   3   3   3   3   3
#     4  12  27  52  78 116 159 218 262 324 410 493
#     4  12  27  49  77 115 160 212 275 333 414 487
#     4  12  25  45  72 110 159 211 258 334 406 468
#     4  12  28  52  80 114 156 212 272 346 412 486
#     4  12  26  45  72 112 156 209 266 340 392 473
#     4  12  27  49  77 115 160 212 275 333 414 487
#
# _framework density 24.539967999999998
#
# number of rings (size 3 to 8) (size 9 to 14) (size 15 to 20)
#    0.000    0.000    5.000    4.000    2.333    6.667 
#    9.000    0.000    0.000    0.000    0.000    0.000 
#    0.000    0.000    0.000    0.000    0.000    0.000 
#
# Total GULP energy -100298.978079 kJ/mol
# GULP energy per Si atom -5572.165449 kJ/mol
# Density = 2.448411 g / cm^3
# Si number density = 24.539968 Si / 1000 Ang^3
#
#
#
# Elastic Constant Matrix: (Units=GPa)
#
#
# Indices 1 2 3 4 5 6 
#
# 1 76.6880 -2.8239 28.8053 3.7623 -9.6731 0.0000
# 2 -2.8239 76.6880 28.8053 -3.7623 9.6731 0.0000
# 3 28.8053 28.8053 85.5040 0.0000 0.0000 0.0000
# 4 3.7623 -3.7623 0.0000 33.8853 0.0000 9.6731
# 5 -9.6731 9.6731 0.0000 0.0000 33.8853 3.7623
# 6 0.0000 0.0000 0.0000 9.6731 3.7623 39.7560
#
#
#
# Elastic Compliance Matrix: (Units=1/GPa)
#
#
# Indices 1 2 3 4 5 6 
#
# 1 0.016017 0.002347 -0.006186 -0.001518 0.003902 0.000000
# 2 0.002347 0.016017 -0.006186 0.001518 -0.003902 0.000000
# 3 -0.006186 -0.006186 0.015864 0.000000 0.000000 0.000000
# 4 -0.001518 0.001518 0.000000 0.032076 0.000000 -0.007805
# 5 0.003902 -0.003902 0.000000 0.000000 0.032076 -0.003036
# 6 0.000000 0.000000 0.000000 -0.007805 -0.003036 0.027340
#
#
# Mechanical properties :
#
#
# Convention : Reuss Voigt Hill
#
# Bulk Modulus (GPa) = 35.91324 38.71705 37.31515
# Shear Modulus (GPa) = 29.63433 33.77819 31.70626
#
# Velocity S-wave (km/s) = 3.47882 3.71409 3.59837
# Velocity P-wave (km/s) = 5.55001 5.84842 5.70116
#
# Compressibility (1/GPa) = 0.02784488
#
# Stress axis : x y z
#
# Youngs Moduli (GPa) = 62.43482 62.43482 63.03709
#
# Poissons Ratio (x) = -0.14653 0.38998
# Poissons Ratio (y) = -0.14653 0.38998
# Poissons Ratio (z) = 0.38625 0.38625
#
# Static dielectric constant tensor:
#      x y z
#    x 2.098410 0.000000 0.000000 
#    y 0.000000 2.098410 0.000000 
#    z 0.000000 0.000000 1.918410 
# 
# From -- ./inp_files/111.got.cif
#   From: 2010.05.17/outbox.cif.g08.bks.cpg/sg144_cif.got.tgz:111.got - 2010.05.20 13:46:34.
