data_PCOD9574960
_publ_section_title
;
Structure prediction by ZEFSAII (Michael W. Deem and Ramdas Pophale) SiO2 
 PCOD9574960
Probable space group: P -3
;
_chemical_formula_sum "Si O2"
_cell_formula_units_Z 36
_cell_length_a 8.953264
_cell_length_b 8.953264
_cell_length_c 27.256052
_cell_angle_alpha 90.000000
_cell_angle_beta 90.000000
_cell_angle_gamma 120.000000
_cell_volume 1892.153484
_symmetry_space_group_name_H-M "P -3"
_symmetry_group_IT_number 147
_symmetry_cell_setting 'hexagonal'
loop_
_space_group_symop_operation_xyz
x,y,z
-y,x-y,z
-x+y,-x,z
-x,-y,-z
y,-x+y,-z
x-y,x,-z
loop_
_atom_site_type_symbol
_atom_site_label
_atom_site_fract_x
_atom_site_fract_y
_atom_site_fract_z
Si Si1 0.967287 0.788314 0.780738
Si Si2 0.339624 0.326556 0.480226
Si Si3 0.677980 0.013294 0.675202
Si Si4 0.545032 0.702143 0.127493
Si Si5 0.018466 0.339631 0.018798
Si Si6 0.011317 0.341959 0.635979
O O1 0.953434 0.680250 0.732535
O O2 0.827600 0.854574 0.779869
O O3 0.940483 0.676549 0.828890
O O4 0.500000 0.500000 0.500000
O O5 0.167006 0.330482 0.492864
O O6 0.363002 0.319003 0.422092
O O7 0.667080 0.834744 0.661057
O O8 0.502306 0.005149 0.659527
O O9 0.834877 0.166020 0.645822
O O10 0.477669 0.840384 0.130790
O O11 0.626816 0.709162 0.074902
O O12 0.165532 0.327931 0.988038
O O13 0.000000 0.500000 0.000000
#
# Coordination Sequence:
#
# PCOD9574960 Si02
#       6
#     6   6   6   6   6   6
#     4  10  23  43  66  97 133 171 218 278 337 403
#     4  12  25  43  66  97 133 173 222 275 336 403
#     4  12  25  45  66 100 131 176 225 277 334 411
#     4  10  23  41  66 102 136 179 224 278 343 402
#     4  12  24  44  68 102 145 192 242 290 341 408
#     4  12  24  43  69  95 133 177 222 275 338 402
#
# _framework density 19.025939999999999
#
# number of rings (size 3 to 8) (size 9 to 14) (size 15 to 20)
#    0.667    0.000    3.333    5.000    4.667    0.000 
#    0.000    0.000    0.000    0.667    0.000    0.000 
#    0.000    0.000    0.000    0.000    0.000    0.000 
#
# Total GULP energy -201208.764647 kJ/mol
# GULP energy per Si atom -5589.132351 kJ/mol
# Density = 1.898264 g / cm^3
# Si number density = 19.025940 Si / 1000 Ang^3
#
#
#
# Elastic Constant Matrix: (Units=GPa)
#
#
# Indices 1 2 3 4 5 6 
#
# 1 129.5963 37.5507 23.3205 12.2997 -2.6101 0.0000
# 2 37.5507 129.5963 23.3205 -12.2997 2.6101 0.0000
# 3 23.3205 23.3205 155.1261 0.0000 0.0000 0.0000
# 4 12.2997 -12.2997 0.0000 37.8211 0.0000 2.6101
# 5 -2.6101 2.6101 0.0000 0.0000 37.8211 12.2997
# 6 0.0000 0.0000 0.0000 2.6101 12.2997 46.0228
#
#
#
# Elastic Compliance Matrix: (Units=1/GPa)
#
#
# Indices 1 2 3 4 5 6 
#
# 1 0.009097 -0.002852 -0.000939 -0.003886 0.000825 0.000000
# 2 -0.002852 0.009097 -0.000939 0.003886 -0.000825 0.000000
# 3 -0.000939 -0.000939 0.006729 0.000000 0.000000 0.000000
# 4 -0.003886 0.003886 0.000000 0.029082 0.000000 -0.001649
# 5 0.000825 -0.000825 0.000000 0.000000 0.029082 -0.007772
# 6 0.000000 0.000000 0.000000 -0.001649 -0.007772 0.023899
#
#
# Mechanical properties :
#
#
# Convention : Reuss Voigt Hill
#
# Bulk Modulus (GPa) = 64.67081 64.74468 64.70775
# Shear Modulus (GPa) = 41.11861 46.34146 43.73003
#
# Velocity S-wave (km/s) = 4.65390 4.94063 4.79941
# Velocity P-wave (km/s) = 7.93366 8.16395 8.04963
#
# Compressibility (1/GPa) = 0.01546293
#
# Stress axis : x y z
#
# Youngs Moduli (GPa) = 109.92491 109.92491 148.61874
#
# Poissons Ratio (x) = 0.31355 0.13952
# Poissons Ratio (y) = 0.31355 0.13952
# Poissons Ratio (z) = 0.10320 0.10320
#
# Static dielectric constant tensor:
#      x y z
#    x 1.648020 0.000000 0.000000 
#    y 0.000000 1.648020 0.000000 
#    z 0.000000 0.000000 1.636220 
# 
# From -- ./inp_files/1114.got.cif
#   From: 2010.05.17/outbox.cif.g08.bks.cpg/sg147_cif.got.tgz:1114.got - 2010.05.20 13:49:32.
