data_PCOD9574618
_publ_section_title
;
Structure prediction by ZEFSAII (Michael W. Deem and Ramdas Pophale) SiO2 
 PCOD9574618
Probable space group: P 32
;
_chemical_formula_sum "Si O2"
_cell_formula_units_Z 18
_cell_length_a 5.348289
_cell_length_b 5.348289
_cell_length_c 27.629296
_cell_angle_alpha 90.000000
_cell_angle_beta 90.000000
_cell_angle_gamma 120.000000
_cell_volume 684.431808
_symmetry_space_group_name_H-M "P 32"
_symmetry_group_IT_number 145
_symmetry_cell_setting 'hexagonal'
loop_
_space_group_symop_operation_xyz
x,y,z
-y,x-y,2/3+z
-x+y,-x,1/3+z
loop_
_atom_site_type_symbol
_atom_site_label
_atom_site_fract_x
_atom_site_fract_y
_atom_site_fract_z
Si Si1 0.470095 0.518331 0.819900
Si Si2 0.027090 0.050150 0.540347
Si Si3 0.987968 0.942691 0.707281
Si Si4 0.611437 0.665347 0.126778
Si Si5 0.010683 0.690827 0.295995
Si Si6 0.880466 0.463764 0.985068
O O1 0.428534 0.715085 0.780056
O O2 0.705613 0.746507 0.856502
O O3 0.171491 0.286930 0.846526
O O4 0.552983 0.289518 0.796483
O O5 0.136254 0.359703 0.515385
O O6 0.944751 0.030682 0.596009
O O7 0.773643 0.047688 0.686128
O O8 0.293536 0.186604 0.686409
O O9 0.067545 0.908297 0.761257
O O10 0.832771 0.635315 0.679854
O O11 0.776154 0.372193 0.280980
O O12 0.352570 0.810839 0.295302
#
# Coordination Sequence:
#
# PCOD9574618 Si02
#       6
#     3   3   3   3   3   3
#     4  10  26  41  69 100 135 182 230 288 354 421
#     4  10  26  45  73  99 144 180 242 289 364 424
#     4  10  26  42  71  99 142 180 235 287 358 425
#     4  10  26  42  71  99 142 180 235 287 358 425
#     4  10  26  45  73  99 144 180 242 289 364 424
#     4  10  26  41  69 100 135 182 230 288 354 421
#
# _framework density 26.299181999999998
#
# number of rings (size 3 to 8) (size 9 to 14) (size 15 to 20)
#    2.000    0.000    0.000    0.000   14.000    2.667 
#    0.000    0.000    0.000    0.000    0.000    0.000 
#    0.000    0.000    0.000    0.000    0.000    0.000 
#
# Total GULP energy -100231.246562 kJ/mol
# GULP energy per Si atom -5568.402587 kJ/mol
# Density = 2.623932 g / cm^3
# Si number density = 26.299182 Si / 1000 Ang^3
#
#
#
# Elastic Constant Matrix: (Units=GPa)
#
#
# Indices 1 2 3 4 5 6 
#
# 1 131.8029 55.5531 16.7353 0.5837 2.7585 0.0000
# 2 55.5531 131.8029 16.7353 -0.5837 -2.7585 0.0000
# 3 16.7353 16.7353 73.9253 0.0000 0.0000 0.0000
# 4 0.5837 -0.5837 0.0000 22.6135 0.0000 -2.7585
# 5 2.7585 -2.7585 0.0000 0.0000 22.6135 0.5837
# 6 0.0000 0.0000 0.0000 -2.7585 0.5837 38.1249
#
#
#
# Elastic Compliance Matrix: (Units=1/GPa)
#
#
# Indices 1 2 3 4 5 6 
#
# 1 0.009400 -0.003837 -0.001259 -0.000342 -0.001615 0.000000
# 2 -0.003837 0.009400 -0.001259 0.000342 0.001615 0.000000
# 3 -0.001259 -0.001259 0.014097 0.000000 0.000000 0.000000
# 4 -0.000342 0.000342 0.000000 0.044633 0.000000 0.003229
# 5 -0.001615 0.001615 0.000000 0.000000 0.044633 -0.000683
# 6 0.000000 0.000000 0.000000 0.003229 -0.000683 0.026474
#
#
# Mechanical properties :
#
#
# Convention : Reuss Voigt Hill
#
# Bulk Modulus (GPa) = 49.54128 57.28650 53.41389
# Shear Modulus (GPa) = 29.74845 33.23753 31.49299
#
# Velocity S-wave (km/s) = 3.36691 3.55889 3.46423
# Velocity P-wave (km/s) = 5.83038 6.22234 6.02954
#
# Compressibility (1/GPa) = 0.02018519
#
# Stress axis : x y z
#
# Youngs Moduli (GPa) = 106.38728 106.38728 70.93561
#
# Poissons Ratio (x) = 0.40823 0.08932
# Poissons Ratio (y) = 0.40823 0.08932
# Poissons Ratio (z) = 0.13397 0.13397
#
# Static dielectric constant tensor:
#      x y z
#    x 2.099340 0.000000 0.000000 
#    y 0.000000 2.099340 0.000000 
#    z 0.000000 0.000000 2.133600 
# 
# From -- ./inp_files/1044.got.cif
#   From: 2010.05.17/outbox.cif.g08.bks.cpg/sg145_cif.got.tgz:1044.got - 2010.05.20 13:47:28.
