data_PCOD9574746
_publ_section_title
;
Structure prediction by ZEFSAII (Michael W. Deem and Ramdas Pophale) SiO2 
 PCOD9574746
Probable space group: R 3
;
_chemical_formula_sum "Si O2"
_cell_formula_units_Z 51
_cell_length_a 17.122253
_cell_length_b 17.122253
_cell_length_c 7.547689
_cell_angle_alpha 90.000000
_cell_angle_beta 90.000000
_cell_angle_gamma 120.000000
_cell_volume 1916.313012
_symmetry_space_group_name_H-M "R 3"
_symmetry_group_IT_number 146
_symmetry_cell_setting 'hexagonal'
loop_
_space_group_symop_operation_xyz
x,y,z
-y,x-y,z
-x+y,-x,z
2/3+x,1/3+y,1/3+z
2/3-y,1/3+x-y,1/3+z
2/3-x+y,1/3-x,1/3+z
1/3+x,2/3+y,2/3+z
1/3-y,2/3+x-y,2/3+z
1/3-x+y,2/3-x,2/3+z
loop_
_atom_site_type_symbol
_atom_site_label
_atom_site_fract_x
_atom_site_fract_y
_atom_site_fract_z
Si Si1 0.518357 0.951136 0.791330
Si Si2 0.662907 0.724926 0.283476
Si Si3 0.772097 0.608163 0.078789
Si Si4 0.666667 0.333334 0.890194
Si Si5 0.312370 0.480381 0.256396
Si Si6 0.255535 0.462497 0.668505
Si Si7 0.333334 0.666667 0.654195
O O1 0.448848 0.950220 0.936087
O O2 0.553309 0.880309 0.782224
O O3 0.463219 0.927754 0.608082
O O4 0.597524 0.054281 0.815308
O O5 0.714662 0.693050 0.415805
O O6 0.666853 0.563482 0.037232
O O7 0.816798 0.567507 0.951241
O O8 0.823378 0.715296 0.046299
O O9 0.638490 0.230775 0.842262
O O10 0.666668 0.333334 0.106246
O O11 0.275890 0.460520 0.459761
O O12 0.276257 0.562924 0.711120
#
# Coordination Sequence:
#
# PCOD9574746 Si02
#       7
#     9   9   9   3   9   9   3
#     4  11  25  42  71 107 148 195 255 313 393 466
#     4  12  25  45  72 104 145 193 250 313 381 455
#     4  11  25  42  70 106 149 196 252 314 396 461
#     4   9  18  42  70 104 136 189 268 311 385 466
#     4  10  22  41  70 102 144 197 248 319 382 468
#     4  10  24  42  70 102 145 190 256 317 394 466
#     4   9  21  42  73  95 133 192 253 323 397 466
#
# _framework density 26.613606999999998
#
# number of rings (size 3 to 8) (size 9 to 14) (size 15 to 20)
#    0.000    1.412    1.765    2.118    7.412    4.235 
#    0.000    1.765    0.000    0.000    0.000    0.000 
#    0.000    0.000    0.000    0.000    0.000    0.000 
#
# Total GULP energy -95192.671072 kJ/mol
# GULP energy per Si atom -5599.568887 kJ/mol
# Density = 2.655303 g / cm^3
# Si number density = 26.613607 Si / 1000 Ang^3
#
#
#
# Elastic Constant Matrix: (Units=GPa)
#
#
# Indices 1 2 3 4 5 6 
#
# 1 124.1659 52.9383 34.4616 -6.1337 14.0619 -0.0007
# 2 52.9383 124.1634 34.4630 6.1335 -14.0614 0.0002
# 3 34.4616 34.4630 123.0483 -0.0007 0.0012 0.0010
# 4 -6.1337 6.1335 -0.0007 38.5350 -0.0001 -14.0617
# 5 14.0619 -14.0614 0.0012 -0.0001 38.5367 -6.1329
# 6 -0.0007 0.0002 0.0010 -14.0617 -6.1329 35.6136
#
#
#
# Elastic Compliance Matrix: (Units=1/GPa)
#
#
# Indices 1 2 3 4 5 6 
#
# 1 0.011641 -0.005304 -0.001775 0.002697 -0.006183 0.000001
# 2 -0.005304 0.011642 -0.001775 -0.002697 0.006183 0.000000
# 3 -0.001775 -0.001775 0.009121 0.000000 0.000000 0.000000
# 4 0.002697 -0.002697 0.000000 0.031322 0.000000 0.012367
# 5 -0.006183 0.006183 0.000000 0.000000 0.031320 0.005393
# 6 0.000001 0.000000 0.000000 0.012367 0.005393 0.033891
#
#
# Mechanical properties :
#
#
# Convention : Reuss Voigt Hill
#
# Bulk Modulus (GPa) = 68.04590 68.34484 68.19537
# Shear Modulus (GPa) = 32.99378 39.17136 36.08257
#
# Velocity S-wave (km/s) = 3.52480 3.84064 3.68611
# Velocity P-wave (km/s) = 6.49533 6.73821 6.61788
#
# Compressibility (1/GPa) = 0.01469596
#
# Stress axis : x y z
#
# Youngs Moduli (GPa) = 85.90125 85.89849 109.63634
#
# Poissons Ratio (x) = 0.45563 0.19456
# Poissons Ratio (y) = 0.45565 0.19461
# Poissons Ratio (z) = 0.15244 0.15248
#
# Static dielectric constant tensor:
#      x y z
#    x 2.072270 0.000000 0.000000 
#    y 0.000000 2.072280 0.000000 
#    z 0.000000 0.000000 2.073730 
# 
# From -- ./inp_files/682.got.cif
#   From: 2010.05.17/outbox.cif.g08.bks.cpg/sg146_cif.got.tgz:682.got - 2010.05.20 13:48:23.
