data_PCOD9574148
_publ_section_title
;
Structure prediction by ZEFSAII (Michael W. Deem and Ramdas Pophale) SiO2 
 PCOD9574148
Probable space group: I 41/A C D
;
_chemical_formula_sum "Si O2"
_cell_formula_units_Z 64
_cell_length_a 12.874197
_cell_length_b 12.874197
_cell_length_c 14.187965
_cell_angle_alpha 90.000000
_cell_angle_beta 90.000000
_cell_angle_gamma 90.000000
_cell_volume 2351.583527
_symmetry_space_group_name_H-M "I 41/A C D"
_symmetry_group_IT_number 142
_space_group.IT_coordinate_system_code '2'
_symmetry_cell_setting 'tetragonal'
loop_
_space_group_symop_operation_xyz
x,y,z
1/4-y,3/4+x,1/4+z
-x,1/2-y,z
1/4+y,1/4-x,3/4+z
x,-y,1/2-z
1/2-x,y,-z
3/4+y,1/4+x,1/4-z
1/4-y,1/4-x,1/4-z
-x,-y,-z
3/4+y,1/4-x,3/4-z
x,1/2+y,-z
3/4-y,3/4+x,1/4-z
-x,y,1/2+z
1/2+x,-y,z
1/4-y,3/4-x,3/4+z
3/4+y,3/4+x,3/4+z
1/2+x,1/2+y,1/2+z
3/4-y,1/4+x,3/4+z
1/2-x,-y,1/2+z
3/4+y,3/4-x,1/4+z
1/2+x,1/2-y,-z
-x,1/2+y,1/2-z
1/4+y,3/4+x,3/4-z
3/4-y,3/4-x,3/4-z
1/2-x,1/2-y,1/2-z
1/4+y,3/4-x,1/4-z
1/2+x,y,1/2-z
1/4-y,1/4+x,3/4-z
1/2-x,1/2+y,z
x,1/2-y,1/2+z
3/4-y,1/4-x,1/4+z
1/4+y,1/4+x,1/4+z
loop_
_atom_site_type_symbol
_atom_site_label
_atom_site_fract_x
_atom_site_fract_y
_atom_site_fract_z
Si Si1 0.881014 0.729006 0.275785
Si Si2 0.793698 0.876520 0.128528
O O1 0.845681 0.834929 0.223610
O O2 0.875174 0.630510 0.202642
O O3 0.804854 0.704769 0.364269
O O4 0.000000 0.750000 0.288830
O O5 0.737051 0.987051 0.125000
#
# Coordination Sequence:
#
# PCOD9574148 Si02
#       2
#    32  32
#     4  11  23  49  75 104 151 184 248 307 360 442
#     4  11  23  45  72 106 141 193 241 296 369 431
#
# _framework density 27.215706000000001
#
# number of rings (size 3 to 8) (size 9 to 14) (size 15 to 20)
#    0.000    1.000    5.000    1.500    0.000    1.000 
#   27.000    0.000    0.000    0.000    0.000    0.000 
#    0.000    0.000    0.000    0.000    0.000    0.000 
#
# Total GULP energy -178600.174345 kJ/mol
# GULP energy per Si atom -5581.255448 kJ/mol
# Density = 2.715376 g / cm^3
# Si number density = 27.215706 Si / 1000 Ang^3
#
#
#
# Elastic Constant Matrix: (Units=GPa)
#
#
# Indices 1 2 3 4 5 6 
#
# 1 183.9258 73.4096 61.2522 0.0000 0.0000 0.0000
# 2 73.4096 183.9258 61.2522 0.0000 0.0000 0.0000
# 3 61.2522 61.2522 121.5572 0.0000 0.0000 0.0000
# 4 0.0000 0.0000 0.0000 13.8472 0.0000 0.0000
# 5 0.0000 0.0000 0.0000 0.0000 13.8472 0.0000
# 6 0.0000 0.0000 0.0000 0.0000 0.0000 70.5406
#
#
#
# Elastic Compliance Matrix: (Units=1/GPa)
#
#
# Indices 1 2 3 4 5 6 
#
# 1 0.007080 -0.001968 -0.002576 0.000000 0.000000 0.000000
# 2 -0.001968 0.007080 -0.002576 0.000000 0.000000 0.000000
# 3 -0.002576 -0.002576 0.010823 0.000000 0.000000 0.000000
# 4 0.000000 0.000000 0.000000 0.072217 0.000000 0.000000
# 5 0.000000 0.000000 0.000000 0.000000 0.072217 0.000000
# 6 0.000000 0.000000 0.000000 0.000000 0.000000 0.014176
#
#
# Mechanical properties :
#
#
# Convention : Reuss Voigt Hill
#
# Bulk Modulus (GPa) = 93.08335 97.91520 95.49927
# Shear Modulus (GPa) = 24.82435 39.21330 32.01883
#
# Velocity S-wave (km/s) = 3.02343 3.79995 3.43371
# Velocity P-wave (km/s) = 6.81649 7.43696 7.13347
#
# Compressibility (1/GPa) = 0.01074306
#
# Stress axis : x y z
#
# Youngs Moduli (GPa) = 141.23524 141.23524 92.39808
#
# Poissons Ratio (x) = 0.27796 0.23802
# Poissons Ratio (y) = 0.27796 0.23802
# Poissons Ratio (z) = 0.36383 0.36383
#
# Static dielectric constant tensor:
#      x y z
#    x 2.266520 0.000000 0.000000 
#    y 0.000000 2.266520 0.000000 
#    z 0.000000 0.000000 2.509860 
# 
# From -- ./inp_files/6246.got.cif
#   From: 2010.05.17/outbox.cif.g08.bks.cpg/sg142_4_cif.got.tgz:6246.got - 2010.05.20 13:39:18.
