data_PCOD9574544
_publ_section_title
;
Structure prediction by ZEFSAII (Michael W. Deem and Ramdas Pophale) SiO2 
 PCOD9574544
Probable space group: P 32
;
_chemical_formula_sum "Si O2"
_cell_formula_units_Z 24
_cell_length_a 7.930510
_cell_length_b 7.930510
_cell_length_c 20.494272
_cell_angle_alpha 90.000000
_cell_angle_beta 90.000000
_cell_angle_gamma 120.000000
_cell_volume 1116.259998
_symmetry_space_group_name_H-M "P 32"
_symmetry_group_IT_number 145
_symmetry_cell_setting 'hexagonal'
loop_
_space_group_symop_operation_xyz
x,y,z
-y,x-y,2/3+z
-x+y,-x,1/3+z
loop_
_atom_site_type_symbol
_atom_site_label
_atom_site_fract_x
_atom_site_fract_y
_atom_site_fract_z
Si Si1 0.833699 0.072659 0.699380
Si Si2 0.673294 0.606011 0.242035
Si Si3 0.673298 0.067282 0.462235
Si Si4 0.015967 0.631154 0.671855
Si Si5 0.614151 0.974174 0.244682
Si Si6 0.927341 0.166300 0.338222
Si Si7 0.025826 0.385847 0.792920
Si Si8 0.615188 0.631153 0.699083
O O1 0.826825 0.195509 0.639069
O O2 0.037916 0.075832 0.685467
O O3 0.850962 0.180766 0.767230
O O4 0.668293 0.852558 0.698541
O O5 0.779589 0.559182 0.185468
O O6 0.460744 0.452497 0.267200
O O7 0.658075 0.799845 0.228555
O O8 0.804489 0.173172 0.398532
O O9 0.658083 0.858233 0.475716
O O10 0.460745 0.008240 0.437071
O O11 0.065497 0.518605 0.727926
O O12 0.810013 0.620023 0.685471
O O13 0.184266 0.852559 0.672396
O O14 0.505342 0.010683 0.185467
O O15 0.481393 0.934511 0.309676
O O16 0.819234 0.149037 0.270372
#
# Coordination Sequence:
#
# PCOD9574544 Si02
#       8
#     3   3   3   3   3   3   3   3
#     4   8  17  35  59  83 114 156 199 247 303 363
#     4  10  20  37  60  87 117 154 205 257 309 378
#     4  10  20  37  60  87 117 154 205 257 309 378
#     4  10  20  37  58  84 120 156 197 256 314 370
#     4  10  20  37  61  86 115 158 206 250 309 381
#     4   8  17  35  59  83 114 156 199 247 303 363
#     4  10  20  37  61  86 115 158 206 250 309 381
#     4  10  20  37  58  84 120 156 197 256 314 370
#
# _framework density 21.500368000000002
#
# number of rings (size 3 to 8) (size 9 to 14) (size 15 to 20)
#    0.000    2.500    0.000    3.750    0.000    1.000 
#    0.000   17.500    0.000    0.000    0.000    0.000 
#    0.000    0.000    0.000    0.000    0.000    0.000 
#
# Total GULP energy -133918.736138 kJ/mol
# GULP energy per Si atom -5579.947339 kJ/mol
# Density = 2.145143 g / cm^3
# Si number density = 21.500368 Si / 1000 Ang^3
#
#
#
# Elastic Constant Matrix: (Units=GPa)
#
#
# Indices 1 2 3 4 5 6 
#
# 1 56.8203 2.8824 21.3767 -0.0003 5.4145 0.0000
# 2 2.8824 56.8203 21.3767 0.0003 -5.4145 0.0000
# 3 21.3767 21.3767 108.8848 0.0000 0.0000 0.0000
# 4 -0.0003 0.0003 0.0000 22.0942 0.0000 -5.4145
# 5 5.4145 -5.4145 0.0000 0.0000 22.0942 -0.0003
# 6 0.0000 0.0000 0.0000 -5.4145 -0.0003 26.9690
#
#
#
# Elastic Compliance Matrix: (Units=1/GPa)
#
#
# Indices 1 2 3 4 5 6 
#
# 1 0.019494 -0.000005 -0.003826 0.000000 -0.004779 0.000000
# 2 -0.000005 0.019494 -0.003826 0.000000 0.004779 0.000000
# 3 -0.003826 -0.003826 0.010686 0.000000 0.000000 0.000000
# 4 0.000000 0.000000 0.000000 0.047603 0.000000 0.009557
# 5 -0.004779 0.004779 0.000000 0.000000 0.047603 0.000001
# 6 0.000000 0.000000 0.000000 0.009557 0.000001 0.038998
#
#
# Mechanical properties :
#
#
# Convention : Reuss Voigt Hill
#
# Bulk Modulus (GPa) = 29.10310 34.86633 31.98471
# Shear Modulus (GPa) = 23.73632 26.02411 24.88021
#
# Velocity S-wave (km/s) = 3.32625 3.48286 3.40545
# Velocity P-wave (km/s) = 5.32141 5.69435 5.51103
#
# Compressibility (1/GPa) = 0.03436060
#
# Stress axis : x y z
#
# Youngs Moduli (GPa) = 51.29671 51.29671 93.57692
#
# Poissons Ratio (x) = 0.00024 0.35805
# Poissons Ratio (y) = 0.00024 0.35805
# Poissons Ratio (z) = 0.19628 0.19628
#
# Static dielectric constant tensor:
#      x y z
#    x 1.810150 0.000000 0.000000 
#    y 0.000000 1.810150 0.000000 
#    z 0.000000 0.000000 1.764910 
# 
# From -- ./inp_files/945.got.cif
#   From: 2010.05.17/outbox.cif.g08.bks.cpg/sg145_cif.got.tgz:945.got - 2010.05.20 13:47:28.
