data_PCOD9574360
_publ_section_title
;
Structure prediction by ZEFSAII (Michael W. Deem and Ramdas Pophale) SiO2 
 PCOD9574360
Probable space group: P 31
;
_chemical_formula_sum "Si O2"
_cell_formula_units_Z 24
_cell_length_a 15.212192
_cell_length_b 15.212192
_cell_length_c 5.471134
_cell_angle_alpha 90.000000
_cell_angle_beta 90.000000
_cell_angle_gamma 120.000000
_cell_volume 1096.456938
_symmetry_space_group_name_H-M "P 31"
_symmetry_group_IT_number 144
_symmetry_cell_setting 'hexagonal'
loop_
_space_group_symop_operation_xyz
x,y,z
-y,x-y,1/3+z
-x+y,-x,2/3+z
loop_
_atom_site_type_symbol
_atom_site_label
_atom_site_fract_x
_atom_site_fract_y
_atom_site_fract_z
Si Si1 0.809038 0.093661 0.289060
Si Si2 0.521068 0.509930 0.892339
Si Si3 0.777180 0.792755 0.377198
Si Si4 0.920324 0.010240 0.571040
Si Si5 0.630258 0.937026 0.981687
Si Si6 0.775510 0.395101 0.321917
Si Si7 0.097723 0.348980 0.546791
Si Si8 0.445997 0.344000 0.272134
O O1 0.740323 0.136058 0.397315
O O2 0.895555 0.165414 0.100760
O O3 0.865369 0.073049 0.513249
O O4 0.728318 0.989849 0.157541
O O5 0.407456 0.457513 0.779824
O O6 0.587850 0.471722 0.743481
O O7 0.570758 0.629573 0.892347
O O8 0.508230 0.455460 0.153075
O O9 0.861093 0.911467 0.397593
O O10 0.723329 0.768544 0.115882
O O11 0.704438 0.771234 0.613536
O O12 0.920709 0.957831 0.822002
O O13 0.607757 0.825724 0.914359
O O14 0.658051 0.010854 0.749485
O O15 0.711416 0.409748 0.533048
O O16 0.808422 0.482969 0.118757
#
# Coordination Sequence:
#
# PCOD9574360 Si02
#       8
#     3   3   3   3   3   3   3   3
#     4  10  22  41  63 100 139 194 237 281 360 422
#     4  10  26  48  71 106 139 186 244 309 372 445
#     4  11  27  40  68 102 143 188 231 294 346 426
#     4  10  22  37  62  91 140 186 235 276 333 413
#     4  10  23  46  75  97 142 191 236 303 365 436
#     4  11  24  45  70 101 142 190 240 309 375 448
#     4  12  27  49  71 108 145 184 246 301 364 428
#     4  10  23  44  72  97 138 187 249 297 373 440
#
# _framework density 21.888683
#
# number of rings (size 3 to 8) (size 9 to 14) (size 15 to 20)
#    0.000    1.500    1.250    1.500   10.500    6.000 
#    4.500    1.250    0.000    0.000    0.000    0.000 
#    0.000    0.000    0.000    0.000    0.000    0.000 
#
# Total GULP energy -134189.428938 kJ/mol
# GULP energy per Si atom -5591.226206 kJ/mol
# Density = 2.183886 g / cm^3
# Si number density = 21.888683 Si / 1000 Ang^3
#
#
#
# Elastic Constant Matrix: (Units=GPa)
#
#
# Indices 1 2 3 4 5 6 
#
# 1 121.5542 70.4613 40.7228 -13.6395 9.1710 0.0000
# 2 70.4613 121.5542 40.7228 13.6395 -9.1710 0.0000
# 3 40.7228 40.7228 92.1170 0.0000 0.0000 0.0000
# 4 -13.6395 13.6395 0.0000 18.4116 0.0000 -9.1710
# 5 9.1710 -9.1710 0.0000 0.0000 18.4116 -13.6395
# 6 0.0000 0.0000 0.0000 -9.1710 -13.6395 25.5464
#
#
#
# Elastic Compliance Matrix: (Units=1/GPa)
#
#
# Indices 1 2 3 4 5 6 
#
# 1 0.026196 -0.019786 -0.002834 0.034063 -0.022904 0.000000
# 2 -0.019786 0.026196 -0.002834 -0.034063 0.022904 0.000000
# 3 -0.002834 -0.002834 0.013361 0.000000 0.000000 0.000000
# 4 0.034063 -0.034063 0.000000 0.127599 0.000000 0.045808
# 5 -0.022904 0.022904 0.000000 0.000000 0.127599 0.068126
# 6 0.000000 0.000000 0.000000 0.045808 0.068126 0.091962
#
#
# Mechanical properties :
#
#
# Convention : Reuss Voigt Hill
#
# Bulk Modulus (GPa) = 67.35711 71.00436 69.18074
# Shear Modulus (GPa) = 10.66626 24.69516 17.68071
#
# Velocity S-wave (km/s) = 2.20987 3.36254 2.84519
# Velocity P-wave (km/s) = 6.11153 6.89817 6.51673
#
# Compressibility (1/GPa) = 0.01484624
#
# Stress axis : x y z
#
# Youngs Moduli (GPa) = 38.17445 38.17445 74.84391
#
# Poissons Ratio (x) = 0.75531 0.21208
# Poissons Ratio (y) = 0.75531 0.21208
# Poissons Ratio (z) = 0.10817 0.10817
#
# Static dielectric constant tensor:
#      x y z
#    x 1.789080 0.000000 0.000000 
#    y 0.000000 1.789080 0.000000 
#    z 0.000000 0.000000 1.868210 
# 
# From -- ./inp_files/138.got.cif
#   From: 2010.05.17/outbox.cif.g08.bks.cpg/sg144_cif.got.tgz:138.got - 2010.05.20 13:46:34.
