data_PCOD9574271
_publ_section_title
;
Structure prediction by ZEFSAII (Michael W. Deem and Ramdas Pophale) SiO2 
 PCOD9574271
Probable space group: P 3
;
_chemical_formula_sum "Si O2"
_cell_formula_units_Z 17
_cell_length_a 8.151983
_cell_length_b 8.151983
_cell_length_c 14.577643
_cell_angle_alpha 90.000000
_cell_angle_beta 90.000000
_cell_angle_gamma 120.000000
_cell_volume 838.966216
_symmetry_space_group_name_H-M "P 3"
_symmetry_group_IT_number 143
_symmetry_cell_setting 'hexagonal'
loop_
_space_group_symop_operation_xyz
x,y,z
-y,x-y,z
-x+y,-x,z
loop_
_atom_site_type_symbol
_atom_site_label
_atom_site_fract_x
_atom_site_fract_y
_atom_site_fract_z
Si Si1 0.333335 0.666669 0.273985
Si Si2 0.698638 0.687162 0.863523
Si Si3 0.368464 0.370776 0.788598
Si Si4 0.333334 0.666668 0.492169
Si Si5 0.027728 0.654995 0.143746
Si Si6 0.326111 0.036239 0.068845
Si Si7 0.919962 0.478098 0.587448
O O1 0.333334 0.666667 0.382278
O O2 0.133601 0.635603 0.232665
O O3 0.477122 0.534751 0.863127
O O4 0.792716 0.590637 0.805480
O O5 0.720127 0.867487 0.810400
O O6 0.782357 0.714587 0.965168
O O7 0.444330 0.452841 0.688362
O O8 0.431849 0.543412 0.525936
O O9 0.924563 0.459628 0.088236
O O10 0.870709 0.718521 0.144494
O O11 0.196925 0.814150 0.085119
O O12 0.752810 0.535950 0.576480
#
# Coordination Sequence:
#
# PCOD9574271 Si02
#       7
#     1   3   3   1   3   3   3
#     4   9  24  48  69 103 119 166 225 285 363 444
#     4  12  22  34  57  88 129 184 239 271 322 402
#     4  12  23  39  56  90 136 179 227 290 329 404
#     4  12  24  51  84 103 146 184 231 318 378 447
#     4  10  22  40  62  87 136 169 217 284 343 407
#     4  11  20  36  57  90 127 184 226 272 331 397
#     4  10  23  48  69 107 143 184 239 290 372 443
#
# _framework density 20.263034999999999
#
# number of rings (size 3 to 8) (size 9 to 14) (size 15 to 20)
#    0.353    0.706    1.765    6.353    0.000    0.000 
#    7.412    0.000    0.000    0.000    0.000    0.000 
#    0.000    0.000    0.000    0.000    0.000    0.000 
#
# Total GULP energy -94664.726721 kJ/mol
# GULP energy per Si atom -5568.513337 kJ/mol
# Density = 2.021692 g / cm^3
# Si number density = 20.263035 Si / 1000 Ang^3
#
#
#
# Elastic Constant Matrix: (Units=GPa)
#
#
# Indices 1 2 3 4 5 6 
#
# 1 100.4552 32.4750 38.9453 -2.5399 2.3245 0.0000
# 2 32.4750 100.4561 38.9454 2.5400 -2.3245 0.0001
# 3 38.9453 38.9454 134.5156 -0.0003 0.0000 -0.0002
# 4 -2.5399 2.5400 -0.0003 21.3176 0.0000 -2.3245
# 5 2.3245 -2.3245 0.0000 0.0000 21.3174 -2.5400
# 6 0.0000 0.0001 -0.0002 -2.3245 -2.5400 33.9902
#
#
#
# Elastic Compliance Matrix: (Units=1/GPa)
#
#
# Indices 1 2 3 4 5 6 
#
# 1 0.012007 -0.002948 -0.002623 0.001782 -0.001631 0.000000
# 2 -0.002948 0.012007 -0.002623 -0.001782 0.001631 0.000000
# 3 -0.002623 -0.002623 0.008953 0.000000 0.000000 0.000000
# 4 0.001782 -0.001782 0.000000 0.047690 0.000000 0.003261
# 5 -0.001631 0.001631 0.000000 0.000000 0.047690 0.003564
# 6 0.000000 0.000000 0.000000 0.003261 0.003564 0.029910
#
#
# Mechanical properties :
#
#
# Convention : Reuss Voigt Hill
#
# Bulk Modulus (GPa) = 60.31253 61.79537 61.05395
# Shear Modulus (GPa) = 27.75147 30.32913 29.04030
#
# Velocity S-wave (km/s) = 3.70477 3.87301 3.78983
# Velocity P-wave (km/s) = 6.93757 7.11077 7.02471
#
# Compressibility (1/GPa) = 0.01658030
#
# Stress axis : x y z
#
# Youngs Moduli (GPa) = 83.28301 83.28378 111.69559
#
# Poissons Ratio (x) = 0.24548 0.29298
# Poissons Ratio (y) = 0.24548 0.29297
# Poissons Ratio (z) = 0.21845 0.21845
#
# Static dielectric constant tensor:
#      x y z
#    x 1.795040 0.000000 0.000000 
#    y 0.000000 1.795040 0.000000 
#    z 0.000000 0.000000 1.671720 
# 
# From -- ./inp_files/242.got.cif
#   From: 2010.05.17/outbox.cif.g08.bks.cpg/sg143_cif.got.tgz:242.got - 2010.05.20 13:46:24.
