data_PCOD9574453
_publ_section_title
;
Structure prediction by ZEFSAII (Michael W. Deem and Ramdas Pophale) SiO2 
 PCOD9574453
Probable space group: P 31
;
_chemical_formula_sum "Si O2"
_cell_formula_units_Z 18
_cell_length_a 8.581372
_cell_length_b 8.581372
_cell_length_c 11.590404
_cell_angle_alpha 90.000000
_cell_angle_beta 90.000000
_cell_angle_gamma 120.000000
_cell_volume 739.167160
_symmetry_space_group_name_H-M "P 31"
_symmetry_group_IT_number 144
_symmetry_cell_setting 'hexagonal'
loop_
_space_group_symop_operation_xyz
x,y,z
-y,x-y,1/3+z
-x+y,-x,2/3+z
loop_
_atom_site_type_symbol
_atom_site_label
_atom_site_fract_x
_atom_site_fract_y
_atom_site_fract_z
Si Si1 0.068168 0.090454 0.321550
Si Si2 0.758871 0.757617 0.420332
Si Si3 0.557288 0.331375 0.646656
Si Si4 0.307932 0.872456 0.055291
Si Si5 0.232470 0.657376 0.825074
Si Si6 0.432849 0.125654 0.407345
O O1 0.020486 0.161709 0.206963
O O2 0.064954 0.229400 0.416849
O O3 0.258602 0.102810 0.340959
O O4 0.908119 0.888992 0.331716
O O5 0.741907 0.565713 0.405591
O O6 0.570960 0.753102 0.410381
O O7 0.549648 0.509786 0.674638
O O8 0.473356 0.243461 0.523788
O O9 0.759604 0.367492 0.660756
O O10 0.219153 0.726638 0.951574
O O11 0.347764 0.764855 0.152114
O O12 0.063221 0.472918 0.783470
#
# Coordination Sequence:
#
# PCOD9574453 Si02
#       6
#     3   3   3   3   3   3
#     4  11  23  42  66  98 136 179 231 291 350 418
#     4  11  23  42  66  98 136 179 231 291 350 418
#     4  12  25  44  69 101 138 183 233 292 354 421
#     4  11  24  42  64  93 130 174 223 281 345 415
#     4  11  24  42  64  93 130 174 223 281 345 415
#     4  12  25  44  69 101 138 183 233 292 354 421
#
# _framework density 24.351734
#
# number of rings (size 3 to 8) (size 9 to 14) (size 15 to 20)
#    0.000    0.667    0.000   10.000    0.000    4.000 
#    0.000    0.000    0.000    0.000    0.000    0.000 
#    0.000    0.000    0.000    0.000    0.000    0.000 
#
# Total GULP energy -100778.553168 kJ/mol
# GULP energy per Si atom -5598.808509 kJ/mol
# Density = 2.429631 g / cm^3
# Si number density = 24.351734 Si / 1000 Ang^3
#
#
#
# Elastic Constant Matrix: (Units=GPa)
#
#
# Indices 1 2 3 4 5 6 
#
# 1 123.1982 26.6357 5.3293 2.1474 7.4477 0.0000
# 2 26.6357 123.1982 5.3293 -2.1474 -7.4477 0.0000
# 3 5.3293 5.3293 59.3990 0.0000 0.0000 0.0000
# 4 2.1474 -2.1474 0.0000 37.1627 0.0000 -7.4477
# 5 7.4477 -7.4477 0.0000 0.0000 37.1627 2.1474
# 6 0.0000 0.0000 0.0000 -7.4477 2.1474 48.2812
#
#
#
# Elastic Compliance Matrix: (Units=1/GPa)
#
#
# Indices 1 2 3 4 5 6 
#
# 1 0.008716 -0.001999 -0.000603 -0.000619 -0.002147 0.000000
# 2 -0.001999 0.008716 -0.000603 0.000619 0.002147 0.000000
# 3 -0.000603 -0.000603 0.016943 0.000000 0.000000 0.000000
# 4 -0.000619 0.000619 0.000000 0.027841 0.000000 0.004295
# 5 -0.002147 0.002147 0.000000 0.000000 0.027841 -0.001238
# 6 0.000000 0.000000 0.000000 0.004295 -0.001238 0.021430
#
#
# Mechanical properties :
#
#
# Convention : Reuss Voigt Hill
#
# Bulk Modulus (GPa) = 35.75682 42.26490 39.01086
# Shear Modulus (GPa) = 39.30286 42.42140 40.86213
#
# Velocity S-wave (km/s) = 4.02178 4.17829 4.10078
# Velocity P-wave (km/s) = 6.02342 6.37739 6.20293
#
# Compressibility (1/GPa) = 0.02796670
#
# Stress axis : x y z
#
# Youngs Moduli (GPa) = 114.73349 114.73349 59.01991
#
# Poissons Ratio (x) = 0.22934 0.03557
# Poissons Ratio (y) = 0.22934 0.03557
# Poissons Ratio (z) = 0.06914 0.06914
#
# Static dielectric constant tensor:
#      x y z
#    x 1.906900 0.000000 0.000000 
#    y 0.000000 1.906900 0.000000 
#    z 0.000000 0.000000 2.077420 
# 
# From -- ./inp_files/559.got.cif
#   From: 2010.05.17/outbox.cif.g08.bks.cpg/sg144_cif.got.tgz:559.got - 2010.05.20 13:46:34.
