data_PCOD9574268
_publ_section_title
;
Structure prediction by ZEFSAII (Michael W. Deem and Ramdas Pophale) SiO2 
 PCOD9574268
Probable space group: P 3
;
_chemical_formula_sum "Si O2"
_cell_formula_units_Z 15
_cell_length_a 8.937415
_cell_length_b 8.937415
_cell_length_c 11.156097
_cell_angle_alpha 90.000000
_cell_angle_beta 90.000000
_cell_angle_gamma 120.000000
_cell_volume 771.732451
_symmetry_space_group_name_H-M "P 3"
_symmetry_group_IT_number 143
_symmetry_cell_setting 'hexagonal'
loop_
_space_group_symop_operation_xyz
x,y,z
-y,x-y,z
-x+y,-x,z
loop_
_atom_site_type_symbol
_atom_site_label
_atom_site_fract_x
_atom_site_fract_y
_atom_site_fract_z
Si Si1 0.657877 0.657534 0.753550
Si Si2 0.326369 0.326890 0.849243
Si Si3 0.342122 0.999655 0.468625
Si Si4 0.999997 0.802457 0.111088
Si Si5 0.326891 0.326368 0.372932
O O1 0.486541 0.512592 0.818484
O O2 0.820347 0.639961 0.794330
O O3 0.634545 0.634547 0.611088
O O4 0.691704 0.845331 0.790728
O O5 0.292698 0.292590 0.990691
O O6 0.179653 0.819614 0.427842
O O7 0.308296 0.153627 0.431449
O O8 0.000100 0.707405 0.231484
O O9 0.838630 0.838632 0.111088
O O10 0.513459 0.026052 0.403692
#
# Coordination Sequence:
#
# PCOD9574268 Si02
#       5
#     3   3   3   3   3
#     4  12  24  43  66 102 139 183 231 279 340 407
#     4  12  25  43  72  98 140 183 225 287 340 399
#     4  12  24  43  66 102 139 183 231 279 340 407
#     4  10  20  46  72 100 136 174 236 278 338 424
#     4  12  25  43  72  98 140 183 225 287 340 399
#
# _framework density 19.436786999999999
#
# number of rings (size 3 to 8) (size 9 to 14) (size 15 to 20)
#    0.400    0.000    4.000    6.000    0.000    3.200 
#    0.000    0.000    0.000    0.000    0.000    0.000 
#    0.000    0.000    0.000    0.000    0.000    0.000 
#
# Total GULP energy -83936.742463 kJ/mol
# GULP energy per Si atom -5595.782831 kJ/mol
# Density = 1.939255 g / cm^3
# Si number density = 19.436787 Si / 1000 Ang^3
#
#
#
# Elastic Constant Matrix: (Units=GPa)
#
#
# Indices 1 2 3 4 5 6 
#
# 1 57.1407 -21.2007 35.8703 3.8498 0.0000 0.0000
# 2 -21.2007 57.1407 35.8703 -3.8498 0.0000 0.0000
# 3 35.8703 35.8703 219.4899 0.0000 0.0000 0.0000
# 4 3.8498 -3.8498 0.0000 36.3310 0.0000 0.0000
# 5 0.0000 0.0000 0.0000 0.0000 36.3310 3.8498
# 6 0.0000 0.0000 0.0000 0.0000 3.8498 39.1707
#
#
#
# Elastic Compliance Matrix: (Units=1/GPa)
#
#
# Indices 1 2 3 4 5 6 
#
# 1 0.027097 0.014198 -0.006749 -0.001367 0.000000 0.000000
# 2 0.014198 0.027097 -0.006749 0.001367 0.000000 0.000000
# 3 -0.006749 -0.006749 0.006762 0.000000 0.000000 0.000000
# 4 -0.001367 0.001367 0.000000 0.027814 0.000000 0.000000
# 5 0.000000 0.000000 0.000000 0.000000 0.027814 -0.002734
# 6 0.000000 0.000000 0.000000 0.000000 -0.002734 0.025798
#
#
# Mechanical properties :
#
#
# Convention : Reuss Voigt Hill
#
# Bulk Modulus (GPa) = 16.03644 48.31679 32.17661
# Shear Modulus (GPa) = 30.90853 41.24862 36.07857
#
# Velocity S-wave (km/s) = 3.99207 4.61172 4.31304
# Velocity P-wave (km/s) = 5.43298 7.29861 6.43378
#
# Compressibility (1/GPa) = 0.06235800
#
# Stress axis : x y z
#
# Youngs Moduli (GPa) = 36.90405 36.90405 147.88818
#
# Poissons Ratio (x) = -0.52398 0.99806
# Poissons Ratio (y) = -0.52398 0.99806
# Poissons Ratio (z) = 0.24906 0.24906
#
# Static dielectric constant tensor:
#      x y z
#    x 1.646730 0.000000 0.000000 
#    y 0.000000 1.646730 0.000000 
#    z 0.000000 0.000000 1.644200 
# 
# From -- ./inp_files/221.got.cif
#   From: 2010.05.17/outbox.cif.g08.bks.cpg/sg143_cif.got.tgz:221.got - 2010.05.20 13:46:24.
