data_PCOD9574003
_publ_section_title
;
Structure prediction by ZEFSAII (Michael W. Deem and Ramdas Pophale) SiO2 
 PCOD9574003
Probable space group: I 41/A C D
;
_chemical_formula_sum "Si O2"
_cell_formula_units_Z 96
_cell_length_a 13.180764
_cell_length_b 13.180764
_cell_length_c 24.730086
_cell_angle_alpha 90.000000
_cell_angle_beta 90.000000
_cell_angle_gamma 90.000000
_cell_volume 4296.420646
_symmetry_space_group_name_H-M "I 41/A C D"
_symmetry_group_IT_number 142
_space_group.IT_coordinate_system_code '2'
_symmetry_cell_setting 'tetragonal'
loop_
_space_group_symop_operation_xyz
x,y,z
1/4-y,3/4+x,1/4+z
-x,1/2-y,z
1/4+y,1/4-x,3/4+z
x,-y,1/2-z
1/2-x,y,-z
3/4+y,1/4+x,1/4-z
1/4-y,1/4-x,1/4-z
-x,-y,-z
3/4+y,1/4-x,3/4-z
x,1/2+y,-z
3/4-y,3/4+x,1/4-z
-x,y,1/2+z
1/2+x,-y,z
1/4-y,3/4-x,3/4+z
3/4+y,3/4+x,3/4+z
1/2+x,1/2+y,1/2+z
3/4-y,1/4+x,3/4+z
1/2-x,-y,1/2+z
3/4+y,3/4-x,1/4+z
1/2+x,1/2-y,-z
-x,1/2+y,1/2-z
1/4+y,3/4+x,3/4-z
3/4-y,3/4-x,3/4-z
1/2-x,1/2-y,1/2-z
1/4+y,3/4-x,1/4-z
1/2+x,y,1/2-z
1/4-y,1/4+x,3/4-z
1/2-x,1/2+y,z
x,1/2-y,1/2+z
3/4-y,1/4-x,1/4+z
1/4+y,1/4+x,1/4+z
loop_
_atom_site_type_symbol
_atom_site_label
_atom_site_fract_x
_atom_site_fract_y
_atom_site_fract_z
Si Si1 0.748883 0.131147 0.831524
Si Si2 0.212227 0.719596 0.080369
Si Si3 0.943051 0.646661 0.762427
O O1 0.771816 0.239567 0.859286
O O2 0.673533 0.143099 0.780981
O O3 0.855060 0.074516 0.822801
O O4 0.684549 0.065452 0.875000
O O5 0.314482 0.744964 0.047780
O O6 0.131314 0.791941 0.050104
O O7 0.000000 0.750000 0.773758
#
# Coordination Sequence:
#
# PCOD9574003 Si02
#       3
#    32  32  32
#     4  10  24  42  67 101 139 180 240 289 351 420
#     4  10  24  42  67  99 137 180 233 288 354 411
#     4  10  24  44  68 100 139 183 234 286 354 419
#
# _framework density 22.344180000000001
#
# number of rings (size 3 to 8) (size 9 to 14) (size 15 to 20)
#    0.000    2.000    0.000    0.000    9.333   16.667 
#    0.000    0.000    0.000    0.000    0.000    0.000 
#    0.000    0.000    0.000    0.000    0.000    0.000 
#
# Total GULP energy -268305.764706 kJ/mol
# GULP energy per Si atom -5589.703431 kJ/mol
# Density = 2.229332 g / cm^3
# Si number density = 22.344180 Si / 1000 Ang^3
#
#
#
# Elastic Constant Matrix: (Units=GPa)
#
#
# Indices 1 2 3 4 5 6 
#
# 1 95.7746 85.0529 15.2235 0.0000 0.0000 0.0000
# 2 85.0529 95.7748 15.2234 0.0000 0.0000 0.0000
# 3 15.2235 15.2234 29.2479 0.0000 0.0000 0.0000
# 4 0.0000 0.0000 0.0000 11.8202 0.0000 0.0000
# 5 0.0000 0.0000 0.0000 0.0000 11.8198 0.0000
# 6 0.0000 0.0000 0.0000 0.0000 0.0000 36.1781
#
#
#
# Elastic Compliance Matrix: (Units=1/GPa)
#
#
# Indices 1 2 3 4 5 6 
#
# 1 0.049664 -0.043603 -0.003155 0.000000 0.000000 0.000000
# 2 -0.043603 0.049664 -0.003155 0.000000 0.000000 0.000000
# 3 -0.003155 -0.003155 0.037475 0.000000 0.000000 0.000000
# 4 0.000000 0.000000 0.000000 0.084601 0.000000 0.000000
# 5 0.000000 0.000000 0.000000 0.000000 0.084604 0.000000
# 6 0.000000 0.000000 0.000000 0.000000 0.000000 0.027641
#
#
# Mechanical properties :
#
#
# Convention : Reuss Voigt Hill
#
# Bulk Modulus (GPa) = 27.04328 50.19965 38.62146
# Shear Modulus (GPa) = 11.21576 18.98346 15.09961
#
# Velocity S-wave (km/s) = 2.24286 2.91794 2.60238
# Velocity P-wave (km/s) = 4.34011 5.81961 5.13344
#
# Compressibility (1/GPa) = 0.03697776
#
# Stress axis : x y z
#
# Youngs Moduli (GPa) = 20.13511 20.13517 26.68467
#
# Poissons Ratio (x) = 0.87796 0.08419
# Poissons Ratio (y) = 0.87795 0.08418
# Poissons Ratio (z) = 0.06353 0.06352
#
# Static dielectric constant tensor:
#      x y z
#    x 1.833560 0.000000 0.000000 
#    y 0.000000 1.833560 0.000000 
#    z 0.000000 0.000000 1.881690 
# 
# From -- ./inp_files/12066.got.cif
#   From: 2010.05.17/outbox.cif.g08.bks.cpg/sg142_7_cif.got.tgz:12066.got - 2010.05.20 13:39:18.
