data_PCOD9574377
_publ_section_title
;
Structure prediction by ZEFSAII (Michael W. Deem and Ramdas Pophale) SiO2 
 PCOD9574377
Probable space group: P 31
;
_chemical_formula_sum "Si O2"
_cell_formula_units_Z 21
_cell_length_a 11.920007
_cell_length_b 11.920007
_cell_length_c 7.959819
_cell_angle_alpha 90.000000
_cell_angle_beta 90.000000
_cell_angle_gamma 120.000000
_cell_volume 979.460316
_symmetry_space_group_name_H-M "P 31"
_symmetry_group_IT_number 144
_symmetry_cell_setting 'hexagonal'
loop_
_space_group_symop_operation_xyz
x,y,z
-y,x-y,1/3+z
-x+y,-x,2/3+z
loop_
_atom_site_type_symbol
_atom_site_label
_atom_site_fract_x
_atom_site_fract_y
_atom_site_fract_z
Si Si1 0.714842 0.509870 0.763960
Si Si2 0.882466 0.681113 0.228689
Si Si3 0.226208 0.606550 0.784249
Si Si4 0.009913 0.328290 0.671545
Si Si5 0.048371 0.101065 0.598096
Si Si6 0.399830 0.373921 0.247218
Si Si7 0.543940 0.218485 0.738249
O O1 0.646992 0.554664 0.901714
O O2 0.869530 0.597217 0.784115
O O3 0.669703 0.357148 0.787330
O O4 0.680046 0.527052 0.577933
O O5 0.813022 0.544307 0.317474
O O6 0.969344 0.805780 0.335909
O O7 0.758354 0.688789 0.163672
O O8 0.968092 0.680089 0.073046
O O9 0.308582 0.689903 0.620119
O O10 0.139814 0.457134 0.721716
O O11 0.113554 0.638221 0.842576
O O12 0.027307 0.222316 0.568790
O O13 0.046495 0.038341 0.416785
O O14 0.548565 0.440385 0.312767
#
# Coordination Sequence:
#
# PCOD9574377 Si02
#       7
#     3   3   3   3   3   3   3
#     4  11  22  36  70 106 143 181 229 300 380 439
#     4  10  22  42  68  98 139 184 228 302 364 433
#     4  12  30  53  75 104 146 206 258 305 363 449
#     4  10  24  47  66  99 141 178 240 300 354 440
#     4  10  24  46  68  98 142 186 243 295 364 444
#     4  11  22  45  64 100 145 177 235 304 363 434
#     4  12  20  35  67 105 140 182 231 298 380 437
#
# _framework density 21.440377000000002
#
# number of rings (size 3 to 8) (size 9 to 14) (size 15 to 20)
#    0.000    1.143    4.286    0.857    4.000    3.429 
#   12.857    0.000    0.000    0.000    0.000    0.000 
#    0.000    0.000    0.000    0.000    0.000    0.000 
#
# Total GULP energy -116985.709420 kJ/mol
# GULP energy per Si atom -5570.748068 kJ/mol
# Density = 2.139158 g / cm^3
# Si number density = 21.440377 Si / 1000 Ang^3
#
#
#
# Elastic Constant Matrix: (Units=GPa)
#
#
# Indices 1 2 3 4 5 6 
#
# 1 99.4067 39.5001 36.5498 -3.7591 -1.1270 0.0000
# 2 39.5001 99.4067 36.5498 3.7591 1.1270 0.0000
# 3 36.5498 36.5498 75.7079 0.0000 0.0000 0.0000
# 4 -3.7591 3.7591 0.0000 26.0413 0.0000 1.1270
# 5 -1.1270 1.1270 0.0000 0.0000 26.0413 -3.7591
# 6 0.0000 0.0000 0.0000 1.1270 -3.7591 29.9533
#
#
#
# Elastic Compliance Matrix: (Units=1/GPa)
#
#
# Indices 1 2 3 4 5 6 
#
# 1 0.013340 -0.003689 -0.004659 0.002458 0.000737 0.000000
# 2 -0.003689 0.013340 -0.004659 -0.002458 -0.000737 0.000000
# 3 -0.004659 -0.004659 0.017707 0.000000 0.000000 0.000000
# 4 0.002458 -0.002458 0.000000 0.039174 0.000000 -0.001474
# 5 0.000737 -0.000737 0.000000 0.000000 0.039174 0.004916
# 6 0.000000 0.000000 0.000000 -0.001474 0.004916 0.034058
#
#
# Mechanical properties :
#
#
# Convention : Reuss Voigt Hill
#
# Bulk Modulus (GPa) = 54.42950 55.52451 54.97700
# Shear Modulus (GPa) = 26.46454 27.20195 26.83325
#
# Velocity S-wave (km/s) = 3.51712 3.56578 3.54153
# Velocity P-wave (km/s) = 6.47573 6.55030 6.51312
#
# Compressibility (1/GPa) = 0.01837239
#
# Stress axis : x y z
#
# Youngs Moduli (GPa) = 74.96284 74.96284 56.47367
#
# Poissons Ratio (x) = 0.27653 0.26312
# Poissons Ratio (y) = 0.27653 0.26312
# Poissons Ratio (z) = 0.34927 0.34927
#
# Static dielectric constant tensor:
#      x y z
#    x 1.830100 0.000000 0.000000 
#    y 0.000000 1.830100 0.000000 
#    z 0.000000 0.000000 1.898510 
# 
# From -- ./inp_files/345.got.cif
#   From: 2010.05.17/outbox.cif.g08.bks.cpg/sg144_cif.got.tgz:345.got - 2010.05.20 13:46:34.
