data_PCOD9574242
_publ_section_title
;
Structure prediction by ZEFSAII (Michael W. Deem and Ramdas Pophale) SiO2 
 PCOD9574242
Probable space group: I 41/A C D
;
_chemical_formula_sum "Si O2"
_cell_formula_units_Z 128
_cell_length_a 21.961393
_cell_length_b 21.961393
_cell_length_c 10.004846
_cell_angle_alpha 90.000000
_cell_angle_beta 90.000000
_cell_angle_gamma 90.000000
_cell_volume 4825.365064
_symmetry_space_group_name_H-M "I 41/A C D"
_symmetry_group_IT_number 142
_space_group.IT_coordinate_system_code '2'
_symmetry_cell_setting 'tetragonal'
loop_
_space_group_symop_operation_xyz
x,y,z
1/4-y,3/4+x,1/4+z
-x,1/2-y,z
1/4+y,1/4-x,3/4+z
x,-y,1/2-z
1/2-x,y,-z
3/4+y,1/4+x,1/4-z
1/4-y,1/4-x,1/4-z
-x,-y,-z
3/4+y,1/4-x,3/4-z
x,1/2+y,-z
3/4-y,3/4+x,1/4-z
-x,y,1/2+z
1/2+x,-y,z
1/4-y,3/4-x,3/4+z
3/4+y,3/4+x,3/4+z
1/2+x,1/2+y,1/2+z
3/4-y,1/4+x,3/4+z
1/2-x,-y,1/2+z
3/4+y,3/4-x,1/4+z
1/2+x,1/2-y,-z
-x,1/2+y,1/2-z
1/4+y,3/4+x,3/4-z
3/4-y,3/4-x,3/4-z
1/2-x,1/2-y,1/2-z
1/4+y,3/4-x,1/4-z
1/2+x,y,1/2-z
1/4-y,1/4+x,3/4-z
1/2-x,1/2+y,z
x,1/2-y,1/2+z
3/4-y,1/4-x,1/4+z
1/4+y,1/4+x,1/4+z
loop_
_atom_site_type_symbol
_atom_site_label
_atom_site_fract_x
_atom_site_fract_y
_atom_site_fract_z
Si Si1 0.139166 0.500000 0.750000
Si Si2 0.962636 0.356697 0.506292
Si Si3 0.750000 0.807633 0.500000
Si Si4 0.137131 0.965107 0.969833
Si Si5 0.541212 0.394014 0.778278
O O1 0.166486 0.512254 0.605548
O O2 0.098470 0.560891 0.773998
O O3 0.936466 0.313535 0.625000
O O4 0.914957 0.413667 0.504690
O O5 0.965683 0.347213 0.346398
O O6 0.028374 0.371213 0.571487
O O7 0.738108 0.849489 0.370938
O O8 0.691458 0.765078 0.509843
O O9 0.186000 0.936000 0.875000
#
# Coordination Sequence:
#
# PCOD9574242 Si02
#       5
#    16  32  16  32  32
#     4   9  16  28  48  73  98 124 158 199 246 300
#     4   9  17  29  46  69  95 123 160 206 249 290
#     4   9  16  28  48  71  94 122 158 199 244 296
#     4   9  17  29  46  70  98 125 157 201 247 291
#     4   9  16  28  48  71  94 124 160 199 246 297
#
# _framework density 26.526489000000002
#
# number of rings (size 3 to 8) (size 9 to 14) (size 15 to 20)
#    0.000    3.000    0.000    1.500    0.000    6.000 
#    0.000    2.500    0.000   15.750    0.000    0.000 
#    0.000    0.000    0.000    0.000    0.000    0.000 
#
# Total GULP energy -357267.764440 kJ/mol
# GULP energy per Si atom -5582.308819 kJ/mol
# Density = 2.646611 g / cm^3
# Si number density = 26.526489 Si / 1000 Ang^3
#
#
#
# Elastic Constant Matrix: (Units=GPa)
#
#
# Indices 1 2 3 4 5 6 
#
# 1 29.6962 23.3676 44.0902 0.0000 0.0000 0.0000
# 2 23.3676 29.6945 44.0897 0.0000 0.0000 0.0000
# 3 44.0902 44.0897 258.1918 0.0000 0.0000 0.0000
# 4 0.0000 0.0000 0.0000 -531.6636 0.0000 0.0000
# 5 0.0000 0.0000 0.0000 0.0000 -531.5935 0.0000
# 6 0.0000 0.0000 0.0000 0.0000 0.0000 33.6739
#
#
#
# Elastic Compliance Matrix: (Units=1/GPa)
#
#
# Indices 1 2 3 4 5 6 
#
# 1 0.092171 -0.065862 -0.004493 0.000000 0.000000 0.000000
# 2 -0.065862 0.092177 -0.004494 0.000000 0.000000 0.000000
# 3 -0.004493 -0.004494 0.005408 0.000000 0.000000 0.000000
# 4 0.000000 0.000000 0.000000 -0.001881 0.000000 0.000000
# 5 0.000000 0.000000 0.000000 0.000000 -0.001881 0.000000
# 6 0.000000 0.000000 0.000000 0.000000 0.000000 0.029697
#
#
# Mechanical properties :
#
#
# Convention : Reuss Voigt Hill
#
# Bulk Modulus (GPa) = 24.96289 60.07529 42.51909
# Shear Modulus (GPa) = 13.20171 -192.18097 -89.48963
#
# Velocity S-wave (km/s) = 2.23329 -8.52091 -5.81457
# Velocity P-wave (km/s) = 4.01013 8.60881 5.38658
#
# Compressibility (1/GPa) = 0.04005947
#
# Stress axis : x y z
#
# Youngs Moduli (GPa) = 10.84942 10.84871 184.92322
#
# Poissons Ratio (x) = 0.71451 0.83083
# Poissons Ratio (y) = 0.71456 0.83096
# Poissons Ratio (z) = 0.04874 0.04875
#
# Static dielectric constant tensor:
#      x y z
#    x 2.151540 0.000000 0.000000 
#    y 0.000000 2.151540 0.000000 
#    z 0.000000 0.000000 2.091720 
# 
# From -- ./inp_files/2082.got.cif
#   From: 2010.05.17/outbox.cif.g08.bks.cpg/sg142_2_cif.got.tgz:2082.got - 2010.05.20 13:39:18.
