data_PCOD9574623
_publ_section_title
;
Structure prediction by ZEFSAII (Michael W. Deem and Ramdas Pophale) SiO2 
 PCOD9574623
Probable space group: P 32
;
_chemical_formula_sum "Si O2"
_cell_formula_units_Z 21
_cell_length_a 11.309396
_cell_length_b 11.309396
_cell_length_c 8.541036
_cell_angle_alpha 90.000000
_cell_angle_beta 90.000000
_cell_angle_gamma 120.000000
_cell_volume 946.062888
_symmetry_space_group_name_H-M "P 32"
_symmetry_group_IT_number 145
_symmetry_cell_setting 'hexagonal'
loop_
_space_group_symop_operation_xyz
x,y,z
-y,x-y,2/3+z
-x+y,-x,1/3+z
loop_
_atom_site_type_symbol
_atom_site_label
_atom_site_fract_x
_atom_site_fract_y
_atom_site_fract_z
Si Si1 0.787290 0.018009 0.977210
Si Si2 0.024429 0.529152 0.518339
Si Si3 0.903391 0.836127 0.946650
Si Si4 0.593719 0.941416 0.521591
Si Si5 0.171597 0.965049 0.131920
Si Si6 0.280146 0.702157 0.985515
Si Si7 0.857525 0.233299 0.521055
O O1 0.918566 0.160617 0.929376
O O2 0.642191 0.993858 0.929147
O O3 0.823895 0.912911 0.893558
O O4 0.810633 0.010699 0.160128
O O5 0.075454 0.580172 0.341624
O O6 0.138425 0.508279 0.606331
O O7 0.884088 0.385595 0.526358
O O8 0.787044 0.698263 0.022428
O O9 0.016852 0.924736 0.079096
O O10 0.673935 0.855054 0.525550
O O11 0.511339 0.881078 0.359899
O O12 0.707466 0.101563 0.529718
O O13 0.267194 0.045587 0.984916
O O14 0.335802 0.696327 0.159649
#
# Coordination Sequence:
#
# PCOD9574623 Si02
#       7
#     3   3   3   3   3   3   3
#     4  12  22  39  69 107 144 186 237 308 378 441
#     4  12  27  44  71 107 155 199 252 316 388 458
#     4  11  22  37  71 111 140 179 242 309 376 438
#     4  11  24  48  77 103 148 206 250 321 384 447
#     4  11  20  42  69 108 141 179 245 316 364 432
#     4  12  27  47  75 112 154 204 258 318 389 458
#     4  11  24  45  68 100 148 189 246 312 371 446
#
# _framework density 22.197255999999999
#
# number of rings (size 3 to 8) (size 9 to 14) (size 15 to 20)
#    0.000    0.571    7.143    1.714    6.000    0.000 
#    2.571    1.429    0.000    0.000    0.000    0.000 
#    0.000    0.000    0.000    0.000    0.000    0.000 
#
# Total GULP energy -117026.480553 kJ/mol
# GULP energy per Si atom -5572.689550 kJ/mol
# Density = 2.214673 g / cm^3
# Si number density = 22.197256 Si / 1000 Ang^3
#
#
#
# Elastic Constant Matrix: (Units=GPa)
#
#
# Indices 1 2 3 4 5 6 
#
# 1 78.9335 33.1729 29.8767 -3.3039 -2.8322 0.0000
# 2 33.1729 78.9335 29.8767 3.3039 2.8322 0.0000
# 3 29.8767 29.8767 87.9526 0.0000 0.0000 0.0000
# 4 -3.3039 3.3039 0.0000 24.3441 0.0000 2.8322
# 5 -2.8322 2.8322 0.0000 0.0000 24.3441 -3.3039
# 6 0.0000 0.0000 0.0000 2.8322 -3.3039 22.8803
#
#
#
# Elastic Compliance Matrix: (Units=1/GPa)
#
#
# Indices 1 2 3 4 5 6 
#
# 1 0.016757 -0.005865 -0.003700 0.003070 0.002632 0.000000
# 2 -0.005865 0.016757 -0.003700 -0.003070 -0.002632 0.000000
# 3 -0.003700 -0.003700 0.013883 0.000000 0.000000 0.000000
# 4 0.003070 -0.003070 0.000000 0.042523 0.000000 -0.005264
# 5 0.002632 -0.002632 0.000000 0.000000 0.042523 0.006140
# 6 0.000000 0.000000 0.000000 -0.005264 0.006140 0.045244
#
#
# Mechanical properties :
#
#
# Convention : Reuss Voigt Hill
#
# Bulk Modulus (GPa) = 47.92039 47.96358 47.94199
# Shear Modulus (GPa) = 23.67716 24.50660 24.09188
#
# Velocity S-wave (km/s) = 3.26954 3.32631 3.29804
# Velocity P-wave (km/s) = 5.99070 6.03384 6.01231
#
# Compressibility (1/GPa) = 0.02086794
#
# Stress axis : x y z
#
# Youngs Moduli (GPa) = 59.67625 59.67625 72.02811
#
# Poissons Ratio (x) = 0.34999 0.26650
# Poissons Ratio (y) = 0.34999 0.26650
# Poissons Ratio (z) = 0.22080 0.22080
#
# Static dielectric constant tensor:
#      x y z
#    x 1.855400 0.000000 0.000000 
#    y 0.000000 1.855400 0.000000 
#    z 0.000000 0.000000 1.886660 
# 
# From -- ./inp_files/422.got.cif
#   From: 2010.05.17/outbox.cif.g08.bks.cpg/sg145_cif.got.tgz:422.got - 2010.05.20 13:47:28.
