data_PCOD9574277
_publ_section_title
;
Structure prediction by ZEFSAII (Michael W. Deem and Ramdas Pophale) SiO2 
 PCOD9574277
Probable space group: P 3
;
_chemical_formula_sum "Si O2"
_cell_formula_units_Z 9
_cell_length_a 7.857016
_cell_length_b 7.857016
_cell_length_c 8.083339
_cell_angle_alpha 90.000000
_cell_angle_beta 90.000000
_cell_angle_gamma 120.000000
_cell_volume 432.152171
_symmetry_space_group_name_H-M "P 3"
_symmetry_group_IT_number 143
_symmetry_cell_setting 'hexagonal'
loop_
_space_group_symop_operation_xyz
x,y,z
-y,x-y,z
-x+y,-x,z
loop_
_atom_site_type_symbol
_atom_site_label
_atom_site_fract_x
_atom_site_fract_y
_atom_site_fract_z
Si Si1 0.110800 0.666669 0.968230
Si Si2 0.666665 0.110798 0.301563
Si Si3 0.777468 0.000005 0.634898
O O1 0.149727 0.483062 0.968227
O O2 0.005427 0.672100 0.801567
O O3 0.000006 0.661239 0.134899
O O4 0.850272 0.333332 0.301560
O O5 0.672097 0.005437 0.468233
O O6 0.000004 0.183608 0.634895
#
# Coordination Sequence:
#
# PCOD9574277 Si02
#       3
#     3   3   3
#     4  10  26  40  66  90 126 160 206 250 306 360
#     4  10  26  40  66  90 126 160 206 250 306 360
#     4  10  26  40  66  90 126 160 206 250 306 360
#
# _framework density 20.825998999999999
#
# number of rings (size 3 to 8) (size 9 to 14) (size 15 to 20)
#    2.000    0.000    0.000    0.000   14.000    0.000 
#    0.000    0.000    0.000    0.000    0.000    0.000 
#    0.000    0.000    0.000    0.000    0.000    0.000 
#
# Total GULP energy -50161.931843 kJ/mol
# GULP energy per Si atom -5573.547983 kJ/mol
# Density = 2.077860 g / cm^3
# Si number density = 20.825999 Si / 1000 Ang^3
#
#
#
# Elastic Constant Matrix: (Units=GPa)
#
#
# Indices 1 2 3 4 5 6 
#
# 1 75.9862 42.6682 88.3423 -21.3803 -0.0014 0.0000
# 2 42.6682 75.9862 88.3423 21.3803 0.0014 0.0000
# 3 88.3423 88.3423 288.2492 0.0000 0.0000 0.0000
# 4 -21.3803 21.3803 0.0000 46.6390 0.0000 0.0014
# 5 -0.0014 0.0014 0.0000 0.0000 46.6390 -21.3803
# 6 0.0000 0.0000 0.0000 0.0014 -21.3803 16.6590
#
#
#
# Elastic Compliance Matrix: (Units=1/GPa)
#
#
# Indices 1 2 3 4 5 6 
#
# 1 0.044206 -0.028703 -0.004751 0.033423 0.000002 0.000000
# 2 -0.028703 0.044206 -0.004751 -0.033423 -0.000002 0.000000
# 3 -0.004751 -0.004751 0.006382 0.000000 0.000000 0.000000
# 4 0.033423 -0.033423 0.000000 0.052085 0.000000 -0.000004
# 5 0.000002 -0.000002 0.000000 0.000000 0.052085 0.066846
# 6 0.000000 0.000000 0.000000 -0.000004 0.066846 0.145818
#
#
# Mechanical properties :
#
#
# Convention : Reuss Voigt Hill
#
# Bulk Modulus (GPa) = 54.40084 97.65861 76.02972
# Shear Modulus (GPa) = 11.70083 36.71201 24.20642
#
# Velocity S-wave (km/s) = 2.37288 4.20312 3.41298
# Velocity P-wave (km/s) = 5.80394 8.39937 7.21925
#
# Compressibility (1/GPa) = 0.01838207
#
# Stress axis : x y z
#
# Youngs Moduli (GPa) = 22.62139 22.62139 156.70136
#
# Poissons Ratio (x) = 0.64930 0.74453
# Poissons Ratio (y) = 0.64930 0.74453
# Poissons Ratio (z) = 0.10748 0.10748
#
# Static dielectric constant tensor:
#      x y z
#    x 1.777470 0.000000 0.000000 
#    y 0.000000 1.777470 0.000000 
#    z 0.000000 0.000000 1.669040 
# 
# From -- ./inp_files/40.got.cif
#   From: 2010.05.17/outbox.cif.g08.bks.cpg/sg143_cif.got.tgz:40.got - 2010.05.20 13:46:24.
