data_PCOD9574643
_publ_section_title
;
Structure prediction by ZEFSAII (Michael W. Deem and Ramdas Pophale) SiO2 
 PCOD9574643
Probable space group: P 32
;
_chemical_formula_sum "Si O2"
_cell_formula_units_Z 15
_cell_length_a 8.583115
_cell_length_b 8.583115
_cell_length_c 9.068987
_cell_angle_alpha 90.000000
_cell_angle_beta 90.000000
_cell_angle_gamma 120.000000
_cell_volume 578.601125
_symmetry_space_group_name_H-M "P 32"
_symmetry_group_IT_number 145
_symmetry_cell_setting 'hexagonal'
loop_
_space_group_symop_operation_xyz
x,y,z
-y,x-y,2/3+z
-x+y,-x,1/3+z
loop_
_atom_site_type_symbol
_atom_site_label
_atom_site_fract_x
_atom_site_fract_y
_atom_site_fract_z
Si Si1 0.764270 0.131733 0.394790
Si Si2 0.012186 0.377289 0.146531
Si Si3 0.632537 0.868267 0.046994
Si Si4 0.634897 0.622711 0.295253
Si Si5 0.152138 0.000000 0.220892
O O1 0.844670 0.210994 0.234005
O O2 0.552895 0.035820 0.409853
O O3 0.840084 0.305426 0.501716
O O4 0.843934 0.014582 0.473649
O O5 0.159916 0.465341 0.273401
O O6 0.077335 0.297634 0.017139
O O7 0.517076 0.964180 0.031930
O O8 0.633675 0.789006 0.207779
O O9 0.829352 0.985418 0.968134
O O10 0.779700 0.702366 0.424644
#
# Coordination Sequence:
#
# PCOD9574643 Si02
#       5
#     3   3   3   3   3
#     4  11  29  50  78 121 156 218 266 342 409 496
#     4  11  29  48  83 113 165 204 281 328 420 481
#     4  11  29  50  78 121 156 218 266 342 409 496
#     4  11  29  48  83 113 165 204 281 328 420 481
#     4  12  28  48  84 112 164 214 270 338 410 488
#
# _framework density 25.924596000000001
#
# number of rings (size 3 to 8) (size 9 to 14) (size 15 to 20)
#    0.000    0.800    0.000    2.400   33.600    0.000 
#    0.000    0.000    0.000    0.000    0.000    0.000 
#    0.000    0.000    0.000    0.000    0.000    0.000 
#
# Total GULP energy -83958.956118 kJ/mol
# GULP energy per Si atom -5597.263741 kJ/mol
# Density = 2.586559 g / cm^3
# Si number density = 25.924596 Si / 1000 Ang^3
#
#
#
# Elastic Constant Matrix: (Units=GPa)
#
#
# Indices 1 2 3 4 5 6 
#
# 1 119.5888 44.4476 39.8641 -0.2237 0.0000 0.0000
# 2 44.4476 119.5888 39.8641 0.2237 0.0000 0.0000
# 3 39.8641 39.8641 175.9663 0.0000 0.0000 0.0000
# 4 -0.2237 0.2237 0.0000 33.0138 0.0000 0.0000
# 5 0.0000 0.0000 0.0000 0.0000 33.0138 -0.2237
# 6 0.0000 0.0000 0.0000 0.0000 -0.2237 37.5706
#
#
#
# Elastic Compliance Matrix: (Units=1/GPa)
#
#
# Indices 1 2 3 4 5 6 
#
# 1 0.010080 -0.003229 -0.001552 0.000090 0.000000 0.000000
# 2 -0.003229 0.010080 -0.001552 -0.000090 0.000000 0.000000
# 3 -0.001552 -0.001552 0.006386 0.000000 0.000000 0.000000
# 4 0.000090 -0.000090 0.000000 0.030292 0.000000 0.000000
# 5 0.000000 0.000000 0.000000 0.000000 0.030292 0.000180
# 6 0.000000 0.000000 0.000000 0.000000 0.000180 0.026618
#
#
# Mechanical properties :
#
#
# Convention : Reuss Voigt Hill
#
# Bulk Modulus (GPa) = 72.04961 73.72174 72.88568
# Shear Modulus (GPa) = 38.15665 40.11751 39.13708
#
# Velocity S-wave (km/s) = 3.84061 3.93806 3.88964
# Velocity P-wave (km/s) = 6.89343 7.01259 6.95326
#
# Compressibility (1/GPa) = 0.01387933
#
# Stress axis : x y z
#
# Youngs Moduli (GPa) = 99.20967 99.20967 156.59076
#
# Poissons Ratio (x) = 0.32036 0.24302
# Poissons Ratio (y) = 0.32036 0.24302
# Poissons Ratio (z) = 0.15397 0.15397
#
# Static dielectric constant tensor:
#      x y z
#    x 2.081620 0.000000 0.000000 
#    y 0.000000 2.081620 0.000000 
#    z 0.000000 0.000000 1.989470 
# 
# From -- ./inp_files/245.got.cif
#   From: 2010.05.17/outbox.cif.g08.bks.cpg/sg145_cif.got.tgz:245.got - 2010.05.20 13:47:28.
