data_PCOD9574993
_publ_section_title
;
Structure prediction by ZEFSAII (Michael W. Deem and Ramdas Pophale) SiO2 
 PCOD9574993
Probable space group: R -3
;
_chemical_formula_sum "Si O2"
_cell_formula_units_Z 120
_cell_length_a 18.100298
_cell_length_b 18.100298
_cell_length_c 28.487668
_cell_angle_alpha 90.000000
_cell_angle_beta 90.000000
_cell_angle_gamma 120.000000
_cell_volume 8082.746928
_symmetry_space_group_name_H-M "R -3"
_symmetry_group_IT_number 148
_symmetry_cell_setting 'hexagonal'
loop_
_space_group_symop_operation_xyz
x,y,z
-y,x-y,z
-x+y,-x,z
-x,-y,-z
y,-x+y,-z
x-y,x,-z
2/3+x,1/3+y,1/3+z
2/3-y,1/3+x-y,1/3+z
2/3-x+y,1/3-x,1/3+z
2/3-x,1/3-y,1/3-z
2/3+y,1/3-x+y,1/3-z
2/3+x-y,1/3+x,1/3-z
1/3+x,2/3+y,2/3+z
1/3-y,2/3+x-y,2/3+z
1/3-x+y,2/3-x,2/3+z
1/3-x,2/3-y,2/3-z
1/3+y,2/3-x+y,2/3-z
1/3+x-y,2/3+x,2/3-z
loop_
_atom_site_type_symbol
_atom_site_label
_atom_site_fract_x
_atom_site_fract_y
_atom_site_fract_z
Si Si1 0.511842 0.671829 0.174962
Si Si2 0.277416 0.484563 0.406627
Si Si3 0.399878 0.082417 0.749034
Si Si4 0.666667 0.333334 0.979547
Si Si5 0.991845 0.238148 0.691617
Si Si6 0.461798 0.036321 0.925760
Si Si7 0.214044 0.473947 0.013444
Si Si8 0.000000 0.000000 0.239698
O O1 0.420621 0.585512 0.170753
O O2 0.574247 0.665749 0.136529
O O3 0.558779 0.689357 0.225068
O O4 0.188347 0.464214 0.382535
O O5 0.256572 0.393516 0.427719
O O6 0.343877 0.507529 0.364222
O O7 0.309319 0.569622 0.438127
O O8 0.393204 0.166510 0.736751
O O9 0.477636 0.090555 0.719045
O O10 0.311197 0.006837 0.729317
O O11 0.714822 0.432867 0.965850
O O12 0.666668 0.333334 0.036349
O O13 0.078066 0.246129 0.672807
O O14 0.941658 0.237195 0.644618
#
# Coordination Sequence:
#
# PCOD9574993 Si02
#       8
#    18  18  18   6  18  18  18   6
#     4  10  21  34  45  63  90 124 154 178 208 260
#     4  10  15  25  41  64  89 107 141 184 225 255
#     4  10  19  29  42  63  88 117 152 178 217 263
#     4   9  15  21  36  66  89 108 135 177 220 253
#     4  11  17  26  43  65  87 115 148 185 220 257
#     4  10  18  29  42  61  89 122 146 179 219 260
#     4  11  15  25  41  63  89 110 140 186 216 251
#     4   9  15  24  39  69  85 103 144 189 230 252
#
# _framework density 14.846439
#
# number of rings (size 3 to 8) (size 9 to 14) (size 15 to 20)
#    0.000    1.800    7.500    1.950    0.000    1.200 
#    0.000    0.000    0.000    0.900    0.000    0.000 
#    0.000    0.000    0.000    0.450    0.300    0.000 
#
# Total GULP energy -222755.455563 kJ/mol
# GULP energy per Si atom -5568.886389 kJ/mol
# Density = 1.481265 g / cm^3
# Si number density = 14.846439 Si / 1000 Ang^3
#
#
#
# Elastic Constant Matrix: (Units=GPa)
#
#
# Indices 1 2 3 4 5 6 
#
# 1 48.8698 16.8435 13.2725 3.4381 -4.2340 0.0000
# 2 16.8435 48.8703 13.2725 -3.4382 4.2340 0.0000
# 3 13.2725 13.2725 39.3202 0.0000 0.0000 0.0000
# 4 3.4381 -3.4382 0.0000 15.5587 0.0000 4.2340
# 5 -4.2340 4.2340 0.0000 0.0000 15.5587 3.4382
# 6 0.0000 0.0000 0.0000 4.2340 3.4382 16.0133
#
#
#
# Elastic Compliance Matrix: (Units=1/GPa)
#
#
# Indices 1 2 3 4 5 6 
#
# 1 0.026539 -0.008919 -0.005948 -0.007835 0.009649 0.000000
# 2 -0.008919 0.026539 -0.005948 0.007835 -0.009649 0.000000
# 3 -0.005948 -0.005948 0.029447 0.000000 0.000000 0.000000
# 4 -0.007835 0.007835 0.000000 0.072988 0.000000 -0.019298
# 5 0.009649 -0.009649 0.000000 0.000000 0.072987 -0.015671
# 6 0.000000 0.000000 0.000000 -0.019298 -0.015671 0.070915
#
#
# Mechanical properties :
#
#
# Convention : Reuss Voigt Hill
#
# Bulk Modulus (GPa) = 24.45162 24.87081 24.66122
# Shear Modulus (GPa) = 14.09736 15.67092 14.88414
#
# Velocity S-wave (km/s) = 3.08481 3.25242 3.16973
# Velocity P-wave (km/s) = 5.40310 5.55812 5.48116
#
# Compressibility (1/GPa) = 0.04089708
#
# Stress axis : x y z
#
# Youngs Moduli (GPa) = 37.68031 37.68072 33.95883
#
# Poissons Ratio (x) = 0.33607 0.20198
# Poissons Ratio (y) = 0.33606 0.20197
# Poissons Ratio (z) = 0.22411 0.22411
#
# Static dielectric constant tensor:
#      x y z
#    x 1.527900 0.000000 0.000000 
#    y 0.000000 1.527900 0.000000 
#    z 0.000000 0.000000 1.490840 
# 
# From -- ./inp_files/3737.got.cif
#   From: 2010.05.17/outbox.cif.g08.bks.cpg/sg148_2_cif.got.tgz:3737.got - 2010.05.20 13:50:20.
