data_PCOD9574919
_publ_section_title
;
Structure prediction by ZEFSAII (Michael W. Deem and Ramdas Pophale) SiO2 
 PCOD9574919
Probable space group: P -3
;
_chemical_formula_sum "Si O2"
_cell_formula_units_Z 42
_cell_length_a 8.997427
_cell_length_b 8.997427
_cell_length_c 30.691953
_cell_angle_alpha 90.000000
_cell_angle_beta 90.000000
_cell_angle_gamma 120.000000
_cell_volume 2151.750040
_symmetry_space_group_name_H-M "P -3"
_symmetry_group_IT_number 147
_symmetry_cell_setting 'hexagonal'
loop_
_space_group_symop_operation_xyz
x,y,z
-y,x-y,z
-x+y,-x,z
-x,-y,-z
y,-x+y,-z
x-y,x,-z
loop_
_atom_site_type_symbol
_atom_site_label
_atom_site_fract_x
_atom_site_fract_y
_atom_site_fract_z
Si Si1 0.327146 0.989927 0.207032
Si Si2 0.661937 0.673128 0.758603
Si Si3 0.326870 0.988386 0.655167
Si Si4 0.317042 0.854328 0.112272
Si Si5 0.338370 0.326822 0.517327
Si Si6 0.326706 0.988344 0.379214
Si Si7 0.989331 0.662807 0.982756
O O1 0.346145 0.172323 0.217731
O O2 0.492180 0.984961 0.225107
O O3 0.157800 0.840728 0.230059
O O4 0.311757 0.947558 0.155770
O O5 0.647656 0.688422 0.706892
O O6 0.157111 0.840166 0.632326
O O7 0.492971 0.985428 0.637521
O O8 0.346498 0.171622 0.644086
O O9 0.166977 0.653620 0.112463
O O10 0.310043 0.944452 0.068366
O O11 0.500000 0.500000 0.500000
O O12 0.331645 0.164587 0.493993
O O13 0.352982 0.312427 0.569054
O O14 0.834325 0.668787 0.006991
O O15 0.000000 0.500000 0.000000
#
# Coordination Sequence:
#
# PCOD9574919 Si02
#       7
#     6   6   6   6   6   6   6
#     4  12  25  43  70  97 135 175 222 276 335 396
#     4  12  24  44  66 101 130 176 221 273 333 400
#     4  12  25  43  67  95 135 170 220 271 329 399
#     4  10  20  44  71  98 136 179 227 278 340 393
#     4  12  25  44  67  96 129 170 218 272 326 395
#     4  12  25  44  67  96 130 173 216 270 333 391
#     4  12  24  43  71 105 142 184 229 284 340 403
#
# _framework density 19.518995
#
# number of rings (size 3 to 8) (size 9 to 14) (size 15 to 20)
#    0.286    0.000    2.857    7.714    0.000    2.286 
#    0.000    0.000    0.000    0.000    0.000    0.000 
#    0.000    0.000    0.000    0.000    0.000    0.000 
#
# Total GULP energy -235148.262944 kJ/mol
# GULP energy per Si atom -5598.768165 kJ/mol
# Density = 1.947457 g / cm^3
# Si number density = 19.518995 Si / 1000 Ang^3
#
#
#
# Elastic Constant Matrix: (Units=GPa)
#
#
# Indices 1 2 3 4 5 6 
#
# 1 90.5270 8.5143 14.5721 -0.4474 3.0113 0.0000
# 2 8.5143 90.5270 14.5721 0.4474 -3.0113 0.0000
# 3 14.5721 14.5721 141.7696 0.0000 0.0000 0.0000
# 4 -0.4474 0.4474 0.0000 27.3200 0.0000 -3.0113
# 5 3.0113 -3.0113 0.0000 0.0000 27.3200 -0.4474
# 6 0.0000 0.0000 0.0000 -3.0113 -0.4474 41.0063
#
#
#
# Elastic Compliance Matrix: (Units=1/GPa)
#
#
# Indices 1 2 3 4 5 6 
#
# 1 0.011353 -0.000942 -0.001070 0.000201 -0.001355 0.000000
# 2 -0.000942 0.011353 -0.001070 -0.000201 0.001355 0.000000
# 3 -0.001070 -0.001070 0.007274 0.000000 0.000000 0.000000
# 4 0.000201 -0.000201 0.000000 0.036909 0.000000 0.002710
# 5 -0.001355 0.001355 0.000000 0.000000 0.036909 0.000403
# 6 0.000000 0.000000 0.000000 0.002710 0.000403 0.024590
#
#
# Mechanical properties :
#
#
# Convention : Reuss Voigt Hill
#
# Bulk Modulus (GPa) = 41.98793 44.23785 43.11289
# Shear Modulus (GPa) = 35.09014 38.14027 36.61521
#
# Velocity S-wave (km/s) = 4.24458 4.42521 4.33584
# Velocity P-wave (km/s) = 6.75129 6.98736 6.87034
#
# Compressibility (1/GPa) = 0.02381637
#
# Stress axis : x y z
#
# Youngs Moduli (GPa) = 88.07985 88.07985 137.48157
#
# Poissons Ratio (x) = 0.08294 0.14713
# Poissons Ratio (y) = 0.08294 0.14713
# Poissons Ratio (z) = 0.09426 0.09426
#
# Static dielectric constant tensor:
#      x y z
#    x 1.651900 0.000000 0.000000 
#    y 0.000000 1.651900 0.000000 
#    z 0.000000 0.000000 1.650720 
# 
# From -- ./inp_files/1132.got.cif
#   From: 2010.05.17/outbox.cif.g08.bks.cpg/sg147_cif.got.tgz:1132.got - 2010.05.20 13:49:32.
