data_PCOD9574996
_publ_section_title
;
Structure prediction by ZEFSAII (Michael W. Deem and Ramdas Pophale) SiO2 
 PCOD9574996
Probable space group: R -3
;
_chemical_formula_sum "Si O2"
_cell_formula_units_Z 126
_cell_length_a 19.680543
_cell_length_b 19.680543
_cell_length_c 22.372613
_cell_angle_alpha 90.000000
_cell_angle_beta 90.000000
_cell_angle_gamma 120.000000
_cell_volume 7504.495396
_symmetry_space_group_name_H-M "R -3"
_symmetry_group_IT_number 148
_symmetry_cell_setting 'hexagonal'
loop_
_space_group_symop_operation_xyz
x,y,z
-y,x-y,z
-x+y,-x,z
-x,-y,-z
y,-x+y,-z
x-y,x,-z
2/3+x,1/3+y,1/3+z
2/3-y,1/3+x-y,1/3+z
2/3-x+y,1/3-x,1/3+z
2/3-x,1/3-y,1/3-z
2/3+y,1/3-x+y,1/3-z
2/3+x-y,1/3+x,1/3-z
1/3+x,2/3+y,2/3+z
1/3-y,2/3+x-y,2/3+z
1/3-x+y,2/3-x,2/3+z
1/3-x,2/3-y,2/3-z
1/3+y,2/3-x+y,2/3-z
1/3+x-y,2/3+x,2/3-z
loop_
_atom_site_type_symbol
_atom_site_label
_atom_site_fract_x
_atom_site_fract_y
_atom_site_fract_z
Si Si1 0.928690 0.189701 0.879985
Si Si2 0.381056 0.024449 0.847580
Si Si3 0.685163 0.766345 0.058541
Si Si4 0.983949 0.845832 0.524480
Si Si5 0.526833 0.046676 0.086327
Si Si6 0.519882 0.344588 0.350884
Si Si7 0.855647 0.287344 0.692919
O O1 0.977442 0.283833 0.876601
O O2 0.845704 0.156687 0.915775
O O3 0.905730 0.158285 0.812187
O O4 0.977862 0.159701 0.917253
O O5 0.437611 0.114851 0.829689
O O6 0.366601 0.977296 0.785492
O O7 0.430424 0.000337 0.890429
O O8 0.603385 0.704136 0.027143
O O9 0.759933 0.795730 0.015895
O O10 0.920804 0.853386 0.485826
O O11 0.960410 0.829623 0.593522
O O12 0.445558 0.985771 0.053698
O O13 0.586708 0.104913 0.037040
O O14 0.606156 0.419725 0.350367
#
# Coordination Sequence:
#
# PCOD9574996 Si02
#       7
#    18  18  18  18  18  18  18
#     4  10  18  32  53  75 106 136 173 214 265 309
#     4  10  16  31  50  75 108 135 163 211 262 308
#     4   9  18  31  51  79 104 132 171 218 257 309
#     4  11  19  31  47  71 101 141 182 215 244 288
#     4  10  18  28  49  75 100 141 167 207 260 315
#     4  10  21  37  57  79  99 130 173 221 263 317
#     4  10  18  30  48  73 105 132 175 211 253 310
#
# _framework density 16.789936000000001
#
# number of rings (size 3 to 8) (size 9 to 14) (size 15 to 20)
#    0.000    2.000    4.286    2.857    0.000    0.000 
#    0.000    0.714    0.000    6.857    0.000    0.000 
#    0.000    0.000    0.000    0.000    0.000    0.000 
#
# Total GULP energy -233987.353755 kJ/mol
# GULP energy per Si atom -5571.127470 kJ/mol
# Density = 1.675172 g / cm^3
# Si number density = 16.789936 Si / 1000 Ang^3
#
#
#
# Elastic Constant Matrix: (Units=GPa)
#
#
# Indices 1 2 3 4 5 6 
#
# 1 44.5354 3.7410 11.1899 2.5219 3.2623 0.0000
# 2 3.7410 44.5354 11.1899 -2.5219 -3.2623 0.0000
# 3 11.1899 11.1899 40.6726 0.0000 0.0000 0.0000
# 4 2.5219 -2.5219 0.0000 23.6952 0.0000 -3.2623
# 5 3.2623 -3.2623 0.0000 0.0000 23.6952 2.5219
# 6 0.0000 0.0000 0.0000 -3.2623 2.5219 20.3972
#
#
#
# Elastic Compliance Matrix: (Units=1/GPa)
#
#
# Indices 1 2 3 4 5 6 
#
# 1 0.024575 -0.000832 -0.006532 -0.002704 -0.003498 0.000000
# 2 -0.000832 0.024575 -0.006532 0.002704 0.003498 0.000000
# 3 -0.006532 -0.006532 0.028181 0.000000 0.000000 0.000000
# 4 -0.002704 0.002704 0.000000 0.043741 0.000000 0.006996
# 5 -0.003498 0.003498 0.000000 0.000000 0.043741 -0.005408
# 6 0.000000 0.000000 0.000000 0.006996 -0.005408 0.050814
#
#
# Mechanical properties :
#
#
# Convention : Reuss Voigt Hill
#
# Bulk Modulus (GPa) = 20.18688 20.22055 20.20371
# Shear Modulus (GPa) = 19.23579 20.46566 19.85073
#
# Velocity S-wave (km/s) = 3.38845 3.49510 3.44219
# Velocity P-wave (km/s) = 5.23050 5.32513 5.27803
#
# Compressibility (1/GPa) = 0.04953714
#
# Stress axis : x y z
#
# Youngs Moduli (GPa) = 40.69246 40.69246 35.48513
#
# Poissons Ratio (x) = 0.03387 0.23179
# Poissons Ratio (y) = 0.03387 0.23179
# Poissons Ratio (z) = 0.26580 0.26580
#
# Static dielectric constant tensor:
#      x y z
#    x 1.573120 0.000000 0.000000 
#    y 0.000000 1.573120 0.000000 
#    z 0.000000 0.000000 1.602780 
# 
# From -- ./inp_files/3464.got.cif
#   From: 2010.05.17/outbox.cif.g08.bks.cpg/sg148_2_cif.got.tgz:3464.got - 2010.05.20 13:50:20.
