data_PCOD9574450
_publ_section_title
;
Structure prediction by ZEFSAII (Michael W. Deem and Ramdas Pophale) SiO2 
 PCOD9574450
Probable space group: P 31
;
_chemical_formula_sum "Si O2"
_cell_formula_units_Z 15
_cell_length_a 7.478612
_cell_length_b 7.478612
_cell_length_c 12.348249
_cell_angle_alpha 90.000000
_cell_angle_beta 90.000000
_cell_angle_gamma 120.000000
_cell_volume 598.105800
_symmetry_space_group_name_H-M "P 31"
_symmetry_group_IT_number 144
_symmetry_cell_setting 'hexagonal'
loop_
_space_group_symop_operation_xyz
x,y,z
-y,x-y,1/3+z
-x+y,-x,2/3+z
loop_
_atom_site_type_symbol
_atom_site_label
_atom_site_fract_x
_atom_site_fract_y
_atom_site_fract_z
Si Si1 0.810547 0.506519 0.125000
Si Si2 0.761592 0.116110 0.022114
Si Si3 0.454464 0.851150 0.212802
Si Si4 0.340460 0.415677 0.122094
Si Si5 0.880149 0.821440 0.941640
O O1 0.855460 0.344798 0.065615
O O2 0.892209 0.533423 0.246137
O O3 0.565354 0.429426 0.134839
O O4 0.897092 0.705493 0.048139
O O5 0.613071 0.969544 0.115669
O O6 0.912013 0.038311 0.979349
O O7 0.348925 0.612806 0.179400
O O8 0.564755 0.883659 0.328065
O O9 0.306277 0.948990 0.231113
O O10 0.180763 0.209931 0.184123
#
# Coordination Sequence:
#
# PCOD9574450 Si02
#       5
#     3   3   3   3   3
#     4  11  22  45  75 111 165 209 265 350 400 472
#     4  12  23  45  80 113 156 223 271 328 422 483
#     4  11  23  44  77 116 159 212 276 333 409 486
#     4  11  23  48  77 110 166 217 262 348 408 473
#     4  11  25  48  77 114 158 217 274 329 419 490
#
# _framework density 25.079177999999999
#
# number of rings (size 3 to 8) (size 9 to 14) (size 15 to 20)
#    0.000    0.800    8.000    1.200    0.000    1.600 
#    3.600    0.000    0.000    0.000    0.000    0.000 
#    0.000    0.000    0.000    0.000    0.000    0.000 
#
# Total GULP energy -84150.272220 kJ/mol
# GULP energy per Si atom -5610.018148 kJ/mol
# Density = 2.502210 g / cm^3
# Si number density = 25.079178 Si / 1000 Ang^3
#
#
#
# Elastic Constant Matrix: (Units=GPa)
#
#
# Indices 1 2 3 4 5 6 
#
# 1 107.7776 36.6684 68.8071 0.8129 1.9467 0.0000
# 2 36.6684 107.7776 68.8071 -0.8129 -1.9467 0.0000
# 3 68.8071 68.8071 242.8869 0.0000 0.0000 0.0000
# 4 0.8129 -0.8129 0.0000 28.8718 0.0000 -1.9467
# 5 1.9467 -1.9467 0.0000 0.0000 28.8718 0.8129
# 6 0.0000 0.0000 0.0000 -1.9467 0.8129 35.5546
#
#
#
# Elastic Compliance Matrix: (Units=1/GPa)
#
#
# Indices 1 2 3 4 5 6 
#
# 1 0.011803 -0.002321 -0.002686 -0.000398 -0.000952 0.000000
# 2 -0.002321 0.011803 -0.002686 0.000398 0.000952 0.000000
# 3 -0.002686 -0.002686 0.005639 0.000000 0.000000 0.000000
# 4 -0.000398 0.000398 0.000000 0.034787 0.000000 0.001905
# 5 -0.000952 0.000952 0.000000 0.000000 0.034787 -0.000795
# 6 0.000000 0.000000 0.000000 0.001905 -0.000795 0.028248
#
#
# Mechanical properties :
#
#
# Convention : Reuss Voigt Hill
#
# Bulk Modulus (GPa) = 72.15724 89.66747 80.91235
# Shear Modulus (GPa) = 33.99672 37.60363 35.80018
#
# Velocity S-wave (km/s) = 3.68581 3.87641 3.78231
# Velocity P-wave (km/s) = 6.85185 7.47440 7.16989
#
# Compressibility (1/GPa) = 0.01385862
#
# Stress axis : x y z
#
# Youngs Moduli (GPa) = 84.72336 84.72336 177.33409
#
# Poissons Ratio (x) = 0.19664 0.47635
# Poissons Ratio (y) = 0.19664 0.47635
# Poissons Ratio (z) = 0.22758 0.22758
#
# Static dielectric constant tensor:
#      x y z
#    x 1.989370 0.000000 0.000000 
#    y 0.000000 1.989370 0.000000 
#    z 0.000000 0.000000 1.920840 
# 
# From -- ./inp_files/490.got.cif
#   From: 2010.05.17/outbox.cif.g08.bks.cpg/sg144_cif.got.tgz:490.got - 2010.05.20 13:46:34.
