data_PCOD9574463
_publ_section_title
;
Structure prediction by ZEFSAII (Michael W. Deem and Ramdas Pophale) SiO2 
 PCOD9574463
Probable space group: P 31
;
_chemical_formula_sum "Si O2"
_cell_formula_units_Z 15
_cell_length_a 7.518597
_cell_length_b 7.518597
_cell_length_c 11.826911
_cell_angle_alpha 90.000000
_cell_angle_beta 90.000000
_cell_angle_gamma 120.000000
_cell_volume 578.996015
_symmetry_space_group_name_H-M "P 31"
_symmetry_group_IT_number 144
_symmetry_cell_setting 'hexagonal'
loop_
_space_group_symop_operation_xyz
x,y,z
-y,x-y,1/3+z
-x+y,-x,2/3+z
loop_
_atom_site_type_symbol
_atom_site_label
_atom_site_fract_x
_atom_site_fract_y
_atom_site_fract_z
Si Si1 0.306972 0.199770 0.998180
Si Si2 0.496628 0.306933 0.582258
Si Si3 0.411782 0.522763 0.171876
Si Si4 0.716784 0.938787 0.724659
Si Si5 0.174062 0.250422 0.767188
O O1 0.527367 0.249981 0.953674
O O2 0.166358 0.144074 0.886779
O O3 0.304467 0.382682 0.063815
O O4 0.232303 0.010903 0.084719
O O5 0.502142 0.110780 0.535713
O O6 0.397402 0.383716 0.485740
O O7 0.339965 0.245156 0.686299
O O8 0.275742 0.427296 0.282309
O O9 0.515902 0.758310 0.134880
O O10 0.947848 0.137411 0.711021
#
# Coordination Sequence:
#
# PCOD9574463 Si02
#       5
#     3   3   3   3   3
#     4  12  24  40  68 100 134 174 222 278 334 396
#     4  11  24  42  66  95 133 176 222 274 334 396
#     4  11  24  44  68  95 133 176 224 275 332 396
#     4  11  24  42  66  95 133 176 222 274 334 396
#     4  11  24  44  68  95 133 176 224 275 332 396
#
# _framework density 25.906911999999998
#
# number of rings (size 3 to 8) (size 9 to 14) (size 15 to 20)
#    0.000    0.800    0.000    9.600    0.000    6.400 
#    0.000    0.000    0.000    0.000    0.000    0.000 
#    0.000    0.000    0.000    0.000    0.000    0.000 
#
# Total GULP energy -84028.806071 kJ/mol
# GULP energy per Si atom -5601.920405 kJ/mol
# Density = 2.584795 g / cm^3
# Si number density = 25.906912 Si / 1000 Ang^3
#
#
#
# Elastic Constant Matrix: (Units=GPa)
#
#
# Indices 1 2 3 4 5 6 
#
# 1 63.7024 -10.3640 14.6813 -3.5954 2.1145 0.0000
# 2 -10.3640 63.7024 14.6813 3.5954 -2.1145 0.0000
# 3 14.6813 14.6813 123.1002 0.0000 0.0000 0.0000
# 4 -3.5954 3.5954 0.0000 38.9249 0.0000 -2.1145
# 5 2.1145 -2.1145 0.0000 0.0000 38.9249 -3.5954
# 6 0.0000 0.0000 0.0000 -2.1145 -3.5954 37.0332
#
#
#
# Elastic Compliance Matrix: (Units=1/GPa)
#
#
# Indices 1 2 3 4 5 6 
#
# 1 0.016866 0.003200 -0.002393 0.001262 -0.000742 0.000000
# 2 0.003200 0.016866 -0.002393 -0.001262 0.000742 0.000000
# 3 -0.002393 -0.002393 0.008694 0.000000 0.000000 0.000000
# 4 0.001262 -0.001262 0.000000 0.026004 0.000000 0.001485
# 5 -0.000742 0.000742 0.000000 0.000000 0.026004 0.002525
# 6 0.000000 0.000000 0.000000 0.001485 0.002525 0.027333
#
#
# Mechanical properties :
#
#
# Convention : Reuss Voigt Hill
#
# Bulk Modulus (GPa) = 25.47564 32.05579 28.76572
# Shear Modulus (GPa) = 36.22533 38.41038 37.31786
#
# Velocity S-wave (km/s) = 3.74343 3.85467 3.79946
# Velocity P-wave (km/s) = 5.34221 5.67553 5.51139
#
# Compressibility (1/GPa) = 0.03925318
#
# Stress axis : x y z
#
# Youngs Moduli (GPa) = 59.29097 59.29097 115.01825
#
# Poissons Ratio (x) = -0.18971 0.27525
# Poissons Ratio (y) = -0.18971 0.27525
# Poissons Ratio (z) = 0.14189 0.14189
#
# Static dielectric constant tensor:
#      x y z
#    x 2.044650 0.000000 0.000000 
#    y 0.000000 2.044650 0.000000 
#    z 0.000000 0.000000 2.012950 
# 
# From -- ./inp_files/471.got.cif
#   From: 2010.05.17/outbox.cif.g08.bks.cpg/sg144_cif.got.tgz:471.got - 2010.05.20 13:46:34.
