data_PCOD9574076
_publ_section_title
;
Structure prediction by ZEFSAII (Michael W. Deem and Ramdas Pophale) SiO2 
 PCOD9574076
Probable space group: I 41/A C D
;
_chemical_formula_sum "Si O2"
_cell_formula_units_Z 160
_cell_length_a 20.448057
_cell_length_b 20.448057
_cell_length_c 16.086807
_cell_angle_alpha 90.000000
_cell_angle_beta 90.000000
_cell_angle_gamma 90.000000
_cell_volume 6726.264568
_symmetry_space_group_name_H-M "I 41/A C D"
_symmetry_group_IT_number 142
_space_group.IT_coordinate_system_code '2'
_symmetry_cell_setting 'tetragonal'
loop_
_space_group_symop_operation_xyz
x,y,z
1/4-y,3/4+x,1/4+z
-x,1/2-y,z
1/4+y,1/4-x,3/4+z
x,-y,1/2-z
1/2-x,y,-z
3/4+y,1/4+x,1/4-z
1/4-y,1/4-x,1/4-z
-x,-y,-z
3/4+y,1/4-x,3/4-z
x,1/2+y,-z
3/4-y,3/4+x,1/4-z
-x,y,1/2+z
1/2+x,-y,z
1/4-y,3/4-x,3/4+z
3/4+y,3/4+x,3/4+z
1/2+x,1/2+y,1/2+z
3/4-y,1/4+x,3/4+z
1/2-x,-y,1/2+z
3/4+y,3/4-x,1/4+z
1/2+x,1/2-y,-z
-x,1/2+y,1/2-z
1/4+y,3/4+x,3/4-z
3/4-y,3/4-x,3/4-z
1/2-x,1/2-y,1/2-z
1/4+y,3/4-x,1/4-z
1/2+x,y,1/2-z
1/4-y,1/4+x,3/4-z
1/2-x,1/2+y,z
x,1/2-y,1/2+z
3/4-y,1/4-x,1/4+z
1/4+y,1/4+x,1/4+z
loop_
_atom_site_type_symbol
_atom_site_label
_atom_site_fract_x
_atom_site_fract_y
_atom_site_fract_z
Si Si1 0.534795 0.012898 0.843741
Si Si2 0.108403 0.735918 0.827379
Si Si3 0.877937 0.447454 0.987119
Si Si4 0.111324 0.046043 0.370654
Si Si5 0.071472 0.809470 0.671641
O O1 0.521496 0.088774 0.864720
O O2 0.557454 0.000000 0.750000
O O3 0.585697 0.986804 0.912831
O O4 0.462559 0.979010 0.852112
O O5 0.057232 0.692769 0.875000
O O6 0.149375 0.684578 0.770938
O O7 0.072135 0.783744 0.764501
O O8 0.815987 0.405601 0.957267
O O9 0.860693 0.495084 0.063218
O O10 0.105910 0.117208 0.413374
O O11 0.084722 0.748081 0.609214
#
# Coordination Sequence:
#
# PCOD9574076 Si02
#       5
#    32  32  32  32  32
#     4  11  22  38  67 101 137 181 238 287 353 425
#     4  11  21  37  65  99 137 181 233 289 355 422
#     4  11  22  41  72  96 140 189 237 296 351 420
#     4  11  20  42  69 102 134 188 234 289 346 415
#     4  11  21  37  66  97 145 181 223 293 357 423
#
# _framework density 23.787348999999999
#
# number of rings (size 3 to 8) (size 9 to 14) (size 15 to 20)
#    0.000    1.000    6.000    2.400    0.000    0.000 
#    0.000    3.000    0.000   18.000    0.000    0.000 
#    0.000    0.000    0.000    0.000    0.000    0.000 
#
# Total GULP energy -448208.897871 kJ/mol
# GULP energy per Si atom -5602.611223 kJ/mol
# Density = 2.373321 g / cm^3
# Si number density = 23.787349 Si / 1000 Ang^3
#
#
#
# Elastic Constant Matrix: (Units=GPa)
#
#
# Indices 1 2 3 4 5 6 
#
# 1 80.5806 15.7360 14.9902 0.0000 0.0000 0.0000
# 2 15.7360 80.5833 14.9918 0.0000 0.0000 0.0000
# 3 14.9902 14.9918 88.5933 0.0000 0.0000 0.0000
# 4 0.0000 0.0000 0.0000 47.5685 0.0000 0.0000
# 5 0.0000 0.0000 0.0000 0.0000 47.5691 0.0000
# 6 0.0000 0.0000 0.0000 0.0000 0.0000 -0.2228
#
#
#
# Elastic Compliance Matrix: (Units=1/GPa)
#
#
# Indices 1 2 3 4 5 6 
#
# 1 0.013191 -0.002231 -0.001854 0.000000 0.000000 0.000000
# 2 -0.002231 0.013190 -0.001855 0.000000 0.000000 0.000000
# 3 -0.001854 -0.001855 0.011915 0.000000 0.000000 0.000000
# 4 0.000000 0.000000 0.000000 0.021022 0.000000 0.000000
# 5 0.000000 0.000000 0.000000 0.000000 0.021022 0.000000
# 6 0.000000 0.000000 0.000000 0.000000 0.000000 -4.489244
#
#
# Mechanical properties :
#
#
# Convention : Reuss Voigt Hill
#
# Bulk Modulus (GPa) = 37.85543 37.91037 37.88290
# Shear Modulus (GPa) = -1.13941 32.58557 15.72308
#
# Velocity S-wave (km/s) = -0.69285 3.70519 2.57375
# Velocity P-wave (km/s) = 3.91262 5.85460 4.97921
#
# Compressibility (1/GPa) = 0.02641629
#
# Stress axis : x y z
#
# Youngs Moduli (GPa) = 75.81187 75.81403 83.92690
#
# Poissons Ratio (x) = 0.16913 0.15563
# Poissons Ratio (y) = 0.16912 0.15565
# Poissons Ratio (z) = 0.14058 0.14060
#
# Static dielectric constant tensor:
#      x y z
#    x 1.907340 0.000000 0.000000 
#    y 0.000000 1.907340 0.000000 
#    z 0.000000 0.000000 1.941700 
# 
# From -- ./inp_files/5413.got.cif
#   From: 2010.05.17/outbox.cif.g08.bks.cpg/sg142_3_cif.got.tgz:5413.got - 2010.05.20 13:39:18.
