data_PCOD9574551
_publ_section_title
;
Structure prediction by ZEFSAII (Michael W. Deem and Ramdas Pophale) SiO2 
 PCOD9574551
Probable space group: P 32
;
_chemical_formula_sum "Si O2"
_cell_formula_units_Z 18
_cell_length_a 9.737244
_cell_length_b 9.737244
_cell_length_c 10.111483
_cell_angle_alpha 90.000000
_cell_angle_beta 90.000000
_cell_angle_gamma 120.000000
_cell_volume 830.266650
_symmetry_space_group_name_H-M "P 32"
_symmetry_group_IT_number 145
_symmetry_cell_setting 'hexagonal'
loop_
_space_group_symop_operation_xyz
x,y,z
-y,x-y,2/3+z
-x+y,-x,1/3+z
loop_
_atom_site_type_symbol
_atom_site_label
_atom_site_fract_x
_atom_site_fract_y
_atom_site_fract_z
Si Si1 0.687839 0.035316 0.330920
Si Si2 0.320181 0.083718 0.490639
Si Si3 0.493250 0.350596 0.946445
Si Si4 0.256091 0.442942 0.044657
Si Si5 0.887870 0.483628 0.735172
Si Si6 0.467236 0.689397 0.417771
O O1 0.854045 0.090671 0.258836
O O2 0.713632 0.113723 0.474114
O O3 0.600917 0.098029 0.229737
O O4 0.576232 0.847568 0.333804
O O5 0.476844 0.109682 0.568618
O O6 0.387975 0.218888 0.375711
O O7 0.225623 0.903565 0.451550
O O8 0.380208 0.381883 0.041301
O O9 0.550089 0.237376 0.011458
O O10 0.202521 0.455170 0.895598
O O11 0.329256 0.622879 0.095343
O O12 0.066119 0.529753 0.698244
#
# Coordination Sequence:
#
# PCOD9574551 Si02
#       6
#     3   3   3   3   3   3
#     4   9  21  39  69  96 141 176 232 296 335 423
#     4  10  20  43  66  98 135 185 230 291 338 424
#     4  11  21  40  69 102 135 184 237 284 357 415
#     4  11  21  41  71  95 143 184 223 289 351 413
#     4  10  23  39  73  98 132 183 238 289 355 410
#     4  11  20  44  66 103 138 182 228 295 346 421
#
# _framework density 21.679781999999999
#
# number of rings (size 3 to 8) (size 9 to 14) (size 15 to 20)
#    1.000    0.667    5.000    1.000    2.333    0.000 
#    6.000    3.333    3.667    0.000    0.000    0.000 
#    0.000    0.000    0.000    0.000    0.000    0.000 
#
# Total GULP energy -100340.181050 kJ/mol
# GULP energy per Si atom -5574.454503 kJ/mol
# Density = 2.163044 g / cm^3
# Si number density = 21.679782 Si / 1000 Ang^3
#
#
#
# Elastic Constant Matrix: (Units=GPa)
#
#
# Indices 1 2 3 4 5 6 
#
# 1 78.3608 32.6864 24.4173 -2.5847 -8.2631 0.0000
# 2 32.6864 78.3608 24.4173 2.5847 8.2631 0.0000
# 3 24.4173 24.4173 55.4331 0.0000 0.0000 0.0000
# 4 -2.5847 2.5847 0.0000 34.3858 0.0000 8.2631
# 5 -8.2631 8.2631 0.0000 0.0000 34.3858 -2.5847
# 6 0.0000 0.0000 0.0000 8.2631 -2.5847 22.8372
#
#
#
# Elastic Compliance Matrix: (Units=1/GPa)
#
#
# Indices 1 2 3 4 5 6 
#
# 1 0.017687 -0.006518 -0.004920 0.001819 0.005817 0.000000
# 2 -0.006518 0.017687 -0.004920 -0.001819 -0.005817 0.000000
# 3 -0.004920 -0.004920 0.022374 0.000000 0.000000 0.000000
# 4 0.001819 -0.001819 0.000000 0.032151 0.000000 -0.011633
# 5 0.005817 -0.005817 0.000000 0.000000 0.032151 0.003639
# 6 0.000000 0.000000 0.000000 -0.011633 0.003639 0.048409
#
#
# Mechanical properties :
#
#
# Convention : Reuss Voigt Hill
#
# Bulk Modulus (GPa) = 39.94780 41.68854 40.81817
# Shear Modulus (GPa) = 23.63883 27.03066 25.33475
#
# Velocity S-wave (km/s) = 3.30565 3.53486 3.42217
# Velocity P-wave (km/s) = 5.74770 5.99427 5.87228
#
# Compressibility (1/GPa) = 0.02503266
#
# Stress axis : x y z
#
# Youngs Moduli (GPa) = 56.53990 56.53990 44.69528
#
# Poissons Ratio (x) = 0.36853 0.21988
# Poissons Ratio (y) = 0.36853 0.21988
# Poissons Ratio (z) = 0.27815 0.27815
#
# Static dielectric constant tensor:
#      x y z
#    x 1.838680 0.000000 0.000000 
#    y 0.000000 1.838680 0.000000 
#    z 0.000000 0.000000 1.894380 
# 
# From -- ./inp_files/594.got.cif
#   From: 2010.05.17/outbox.cif.g08.bks.cpg/sg145_cif.got.tgz:594.got - 2010.05.20 13:47:28.
