data_PCOD9574908
_publ_section_title
;
Structure prediction by ZEFSAII (Michael W. Deem and Ramdas Pophale) SiO2 
 PCOD9574908
Probable space group: P -3
;
_chemical_formula_sum "Si O2"
_cell_formula_units_Z 24
_cell_length_a 13.130898
_cell_length_b 13.130898
_cell_length_c 6.388210
_cell_angle_alpha 90.000000
_cell_angle_beta 90.000000
_cell_angle_gamma 120.000000
_cell_volume 953.890825
_symmetry_space_group_name_H-M "P -3"
_symmetry_group_IT_number 147
_symmetry_cell_setting 'hexagonal'
loop_
_space_group_symop_operation_xyz
x,y,z
-y,x-y,z
-x+y,-x,z
-x,-y,-z
y,-x+y,-z
x-y,x,-z
loop_
_atom_site_type_symbol
_atom_site_label
_atom_site_fract_x
_atom_site_fract_y
_atom_site_fract_z
Si Si1 0.262187 0.820508 0.742284
Si Si2 0.006529 0.646831 0.620743
Si Si3 0.560935 0.370635 0.871917
Si Si4 0.762915 0.841468 0.065332
O O1 0.327698 0.934149 0.594194
O O2 0.148616 0.714408 0.625102
O O3 0.361565 0.810107 0.875004
O O4 0.203514 0.846782 0.941103
O O5 0.932774 0.529675 0.766520
O O6 0.974534 0.738700 0.730319
O O7 0.545796 0.243086 0.808037
O O8 0.843410 0.821293 0.901409
#
# Coordination Sequence:
#
# PCOD9574908 Si02
#       4
#     6   6   6   6
#     4  10  20  35  57  83 111 143 179 222 273 325
#     4  10  20  35  57  83 111 143 179 222 273 325
#     4   9  22  42  58  76 110 142 186 231 268 316
#     4   9  17  30  49  76 111 148 183 219 262 318
#
# _framework density 25.160115000000001
#
# number of rings (size 3 to 8) (size 9 to 14) (size 15 to 20)
#    0.500    2.000    0.000    1.750    0.000    5.000 
#    0.000    2.500    0.000    8.000    0.000    0.000 
#    0.000    0.000    0.000    0.000    0.000    0.000 
#
# Total GULP energy -133714.977114 kJ/mol
# GULP energy per Si atom -5571.457380 kJ/mol
# Density = 2.510285 g / cm^3
# Si number density = 25.160115 Si / 1000 Ang^3
#
#
#
# Elastic Constant Matrix: (Units=GPa)
#
#
# Indices 1 2 3 4 5 6 
#
# 1 71.1341 54.9250 24.7038 -6.6894 -3.6956 0.0000
# 2 54.9250 71.1341 24.7038 6.6894 3.6956 0.0000
# 3 24.7038 24.7038 82.3817 0.0000 0.0000 0.0000
# 4 -6.6894 6.6894 0.0000 21.4500 0.0000 3.6956
# 5 -3.6956 3.6956 0.0000 0.0000 21.4500 -6.6894
# 6 0.0000 0.0000 0.0000 3.6956 -6.6894 8.1046
#
#
#
# Elastic Compliance Matrix: (Units=1/GPa)
#
#
# Indices 1 2 3 4 5 6 
#
# 1 0.050948 -0.041959 -0.002696 0.028974 0.016007 0.000000
# 2 -0.041959 0.050948 -0.002696 -0.028974 -0.016007 0.000000
# 3 -0.002696 -0.002696 0.013755 0.000000 0.000000 0.000000
# 4 0.028974 -0.028974 0.000000 0.070208 0.000000 -0.032014
# 5 0.016007 -0.016007 0.000000 0.000000 0.070208 0.057948
# 6 0.000000 0.000000 0.000000 -0.032014 0.057948 0.185815
#
#
# Mechanical properties :
#
#
# Convention : Reuss Voigt Hill
#
# Bulk Modulus (GPa) = 47.72948 48.14613 47.93781
# Shear Modulus (GPa) = 9.19851 18.22206 13.71029
#
# Velocity S-wave (km/s) = 1.91414 2.69410 2.33689
# Velocity P-wave (km/s) = 4.88843 5.37168 5.13574
#
# Compressibility (1/GPa) = 0.02095141
#
# Stress axis : x y z
#
# Youngs Moduli (GPa) = 19.62772 19.62772 72.69926
#
# Poissons Ratio (x) = 0.82356 0.19597
# Poissons Ratio (y) = 0.82356 0.19597
# Poissons Ratio (z) = 0.05291 0.05291
#
# Static dielectric constant tensor:
#      x y z
#    x 2.083860 0.000000 0.000000 
#    y 0.000000 2.083860 0.000000 
#    z 0.000000 0.000000 2.299390 
# 
# From -- ./inp_files/106.got.cif
#   From: 2010.05.17/outbox.cif.g08.bks.cpg/sg147_cif.got.tgz:106.got - 2010.05.20 13:49:32.
