data_PCOD9574626
_publ_section_title
;
Structure prediction by ZEFSAII (Michael W. Deem and Ramdas Pophale) SiO2 
 PCOD9574626
Probable space group: P 32
;
_chemical_formula_sum "Si O2"
_cell_formula_units_Z 18
_cell_length_a 9.050463
_cell_length_b 9.050463
_cell_length_c 11.767423
_cell_angle_alpha 90.000000
_cell_angle_beta 90.000000
_cell_angle_gamma 120.000000
_cell_volume 834.744548
_symmetry_space_group_name_H-M "P 32"
_symmetry_group_IT_number 145
_symmetry_cell_setting 'hexagonal'
loop_
_space_group_symop_operation_xyz
x,y,z
-y,x-y,2/3+z
-x+y,-x,1/3+z
loop_
_atom_site_type_symbol
_atom_site_label
_atom_site_fract_x
_atom_site_fract_y
_atom_site_fract_z
Si Si1 0.030245 0.888734 0.530800
Si Si2 0.628871 0.073854 0.432597
Si Si3 0.103718 0.807381 0.279151
Si Si4 0.395999 0.195102 0.541072
Si Si5 0.246995 0.682004 0.940728
Si Si6 0.334574 0.411083 0.385394
O O1 0.057949 0.822663 0.409563
O O2 0.055152 0.792859 0.637255
O O3 0.841757 0.860583 0.548971
O O4 0.189653 0.082490 0.540875
O O5 0.473301 0.091592 0.480512
O O6 0.744491 0.207243 0.335370
O O7 0.720269 0.057058 0.543460
O O8 0.552480 0.897532 0.363466
O O9 0.259846 0.765278 0.270754
O O10 0.449186 0.354245 0.456623
O O11 0.209957 0.738410 0.820757
O O12 0.423099 0.840665 0.976542
#
# Coordination Sequence:
#
# PCOD9574626 Si02
#       6
#     3   3   3   3   3   3
#     4  12  23  45  70 102 141 189 235 291 356 422
#     4  11  24  47  70 100 141 185 230 298 354 419
#     4  12  24  45  71 100 141 188 239 287 350 424
#     4  11  25  48  68 102 148 179 241 298 356 422
#     4  11  21  43  72 102 140 184 241 289 348 424
#     4  11  23  42  73 102 137 189 232 293 352 423
#
# _framework density 21.563485
#
# number of rings (size 3 to 8) (size 9 to 14) (size 15 to 20)
#    0.000    0.667    5.000    3.000    0.000    0.000 
#   12.000    0.000    0.000    0.000    0.000    0.000 
#    0.000    0.000    0.000    0.000    0.000    0.000 
#
# Total GULP energy -100442.979271 kJ/mol
# GULP energy per Si atom -5580.165515 kJ/mol
# Density = 2.151441 g / cm^3
# Si number density = 21.563485 Si / 1000 Ang^3
#
#
#
# Elastic Constant Matrix: (Units=GPa)
#
#
# Indices 1 2 3 4 5 6 
#
# 1 -0.0337 7.9427 24.9070 -6.5521 5.6023 0.0000
# 2 7.9427 -0.0337 24.9070 6.5521 -5.6023 0.0000
# 3 24.9070 24.9070 139.4074 0.0000 0.0000 0.0000
# 4 -6.5521 6.5521 0.0000 17.3450 0.0000 -5.6023
# 5 5.6023 -5.6023 0.0000 0.0000 17.3450 -6.5521
# 6 0.0000 0.0000 0.0000 -5.6023 -6.5521 -3.9882
#
#
#
# Elastic Compliance Matrix: (Units=1/GPa)
#
#
# Indices 1 2 3 4 5 6 
#
# 1 -0.534760 -0.474320 0.180286 -0.022831 0.019522 0.000000
# 2 -0.474320 -0.534760 0.180286 0.022831 -0.019522 0.000000
# 3 0.180286 0.180286 -0.057248 0.000000 0.000000 0.000000
# 4 -0.022831 0.022831 0.000000 0.027794 0.000000 -0.039043
# 5 0.019522 -0.019522 0.000000 0.000000 0.027794 -0.045662
# 6 0.000000 0.000000 0.000000 -0.039043 -0.045662 -0.120878
#
#
# Mechanical properties :
#
#
# Convention : Reuss Voigt Hill
#
# Bulk Modulus (GPa) = -0.73841 28.31706 13.78932
# Shear Modulus (GPa) = -3.53112 11.57924 4.02406
#
# Velocity S-wave (km/s) = -1.28105 2.31981 1.36755
# Velocity P-wave (km/s) = 1.59101 4.50952 2.98366
#
# Compressibility (1/GPa) = -1.35426369
#
# Stress axis : x y z
#
# Youngs Moduli (GPa) = -1.87000 -1.87000 -17.46788
#
# Poissons Ratio (x) = -0.88698 3.14921
# Poissons Ratio (y) = -0.88698 3.14921
# Poissons Ratio (z) = 0.33713 0.33713
#
# Static dielectric constant tensor:
#      x y z
#    x 1.842290 0.000000 0.000000 
#    y 0.000000 1.842290 0.000000 
#    z 0.000000 0.000000 1.847440 
# 
# From -- ./inp_files/523.got.cif
#   From: 2010.05.17/outbox.cif.g08.bks.cpg/sg145_cif.got.tgz:523.got - 2010.05.20 13:47:28.
