data_PCOD9574011
_publ_section_title
;
Structure prediction by ZEFSAII (Michael W. Deem and Ramdas Pophale) SiO2 
 PCOD9574011
Probable space group: I 41/A C D
;
_chemical_formula_sum "Si O2"
_cell_formula_units_Z 160
_cell_length_a 27.657481
_cell_length_b 27.657481
_cell_length_c 9.520416
_cell_angle_alpha 90.000000
_cell_angle_beta 90.000000
_cell_angle_gamma 90.000000
_cell_volume 7282.511364
_symmetry_space_group_name_H-M "I 41/A C D"
_symmetry_group_IT_number 142
_space_group.IT_coordinate_system_code '2'
_symmetry_cell_setting 'tetragonal'
loop_
_space_group_symop_operation_xyz
x,y,z
1/4-y,3/4+x,1/4+z
-x,1/2-y,z
1/4+y,1/4-x,3/4+z
x,-y,1/2-z
1/2-x,y,-z
3/4+y,1/4+x,1/4-z
1/4-y,1/4-x,1/4-z
-x,-y,-z
3/4+y,1/4-x,3/4-z
x,1/2+y,-z
3/4-y,3/4+x,1/4-z
-x,y,1/2+z
1/2+x,-y,z
1/4-y,3/4-x,3/4+z
3/4+y,3/4+x,3/4+z
1/2+x,1/2+y,1/2+z
3/4-y,1/4+x,3/4+z
1/2-x,-y,1/2+z
3/4+y,3/4-x,1/4+z
1/2+x,1/2-y,-z
-x,1/2+y,1/2-z
1/4+y,3/4+x,3/4-z
3/4-y,3/4-x,3/4-z
1/2-x,1/2-y,1/2-z
1/4+y,3/4-x,1/4-z
1/2+x,y,1/2-z
1/4-y,1/4+x,3/4-z
1/2-x,1/2+y,z
x,1/2-y,1/2+z
3/4-y,1/4-x,1/4+z
1/4+y,1/4+x,1/4+z
loop_
_atom_site_type_symbol
_atom_site_label
_atom_site_fract_x
_atom_site_fract_y
_atom_site_fract_z
Si Si1 0.290430 0.459571 0.875000
Si Si2 0.154812 0.595189 0.875000
Si Si3 0.020773 0.089021 0.358804
Si Si4 0.946190 0.872529 0.935794
Si Si5 0.250000 0.783386 0.000000
Si Si6 0.099432 0.043191 0.516435
Si Si7 0.250000 0.122071 0.000000
O O1 0.285161 0.500000 0.750000
O O2 0.344353 0.459986 0.942050
O O3 0.104997 0.600060 0.963340
O O4 0.156787 0.549272 0.773773
O O5 0.030394 0.101970 0.198482
O O6 0.071858 0.088265 0.442524
O O7 0.982582 0.123368 0.436281
O O8 0.997001 0.035865 0.349065
O O9 0.929208 0.820792 0.875000
O O10 0.218739 0.817844 0.900628
O O11 0.096639 0.005052 0.389095
#
# Coordination Sequence:
#
# PCOD9574011 Si02
#       7
#    16  16  32  32  16  32  16
#     4  12  32  53  72 108 157 216 263 295 357 456
#     4  10  24  43  68 106 145 198 249 285 368 456
#     4  12  23  45  73 107 144 189 244 325 383 430
#     4  10  24  44  72 110 144 184 241 313 386 457
#     4  12  25  40  73 110 142 182 263 319 374 428
#     4  12  26  45  71 105 146 195 252 316 363 436
#     4  12  25  44  71 100 150 206 239 301 362 450
#
# _framework density 21.970443
#
# number of rings (size 3 to 8) (size 9 to 14) (size 15 to 20)
#    0.600    0.000    5.000    2.400    4.200    3.200 
#    0.000    0.000    0.000    1.800    0.000    0.000 
#    0.000    0.000    0.000    0.000    0.000    0.000 
#
# Total GULP energy -446273.737403 kJ/mol
# GULP energy per Si atom -5578.421718 kJ/mol
# Density = 2.192044 g / cm^3
# Si number density = 21.970443 Si / 1000 Ang^3
#
#
#
# Elastic Constant Matrix: (Units=GPa)
#
#
# Indices 1 2 3 4 5 6 
#
# 1 117.6888 25.9262 30.2815 0.0000 0.0000 0.0000
# 2 25.9262 117.6881 30.2807 0.0000 0.0000 0.0000
# 3 30.2815 30.2807 83.9135 0.0000 0.0000 0.0000
# 4 0.0000 0.0000 0.0000 20.0578 0.0000 0.0000
# 5 0.0000 0.0000 0.0000 0.0000 20.0553 0.0000
# 6 0.0000 0.0000 0.0000 0.0000 0.0000 17.7692
#
#
#
# Elastic Compliance Matrix: (Units=1/GPa)
#
#
# Indices 1 2 3 4 5 6 
#
# 1 0.009555 -0.001342 -0.002964 0.000000 0.000000 0.000000
# 2 -0.001342 0.009555 -0.002964 0.000000 0.000000 0.000000
# 3 -0.002964 -0.002964 0.014056 0.000000 0.000000 0.000000
# 4 0.000000 0.000000 0.000000 0.049856 0.000000 0.000000
# 5 0.000000 0.000000 0.000000 0.000000 0.049862 0.000000
# 6 0.000000 0.000000 0.000000 0.000000 0.000000 0.056277
#
#
# Mechanical properties :
#
#
# Convention : Reuss Voigt Hill
#
# Bulk Modulus (GPa) = 53.68571 54.69635 54.19103
# Shear Modulus (GPa) = 23.81967 27.09659 25.45813
#
# Velocity S-wave (km/s) = 3.29624 3.51568 3.40773
# Velocity P-wave (km/s) = 6.24303 6.43657 6.34054
#
# Compressibility (1/GPa) = 0.01862693
#
# Stress axis : x y z
#
# Youngs Moduli (GPa) = 104.65404 104.65393 71.14397
#
# Poissons Ratio (x) = 0.14049 0.21085
# Poissons Ratio (y) = 0.14049 0.21085
# Poissons Ratio (z) = 0.31017 0.31016
#
# Static dielectric constant tensor:
#      x y z
#    x 1.898370 0.000000 0.000000 
#    y 0.000000 1.898360 0.000000 
#    z 0.000000 0.000000 1.800160 
# 
# From -- ./inp_files/2276.got.cif
#   From: 2010.05.17/outbox.cif.g08.bks.cpg/sg142_2_cif.got.tgz:2276.got - 2010.05.20 13:39:18.
