data_PCOD9574963
_publ_section_title
;
Structure prediction by ZEFSAII (Michael W. Deem and Ramdas Pophale) SiO2 
 PCOD9574963
Probable space group: P -3
;
_chemical_formula_sum "Si O2"
_cell_formula_units_Z 26
_cell_length_a 8.453857
_cell_length_b 8.453857
_cell_length_c 20.290504
_cell_angle_alpha 90.000000
_cell_angle_beta 90.000000
_cell_angle_gamma 120.000000
_cell_volume 1255.836962
_symmetry_space_group_name_H-M "P -3"
_symmetry_group_IT_number 147
_symmetry_cell_setting 'hexagonal'
loop_
_space_group_symop_operation_xyz
x,y,z
-y,x-y,z
-x+y,-x,z
-x,-y,-z
y,-x+y,-z
x-y,x,-z
loop_
_atom_site_type_symbol
_atom_site_label
_atom_site_fract_x
_atom_site_fract_y
_atom_site_fract_z
Si Si1 0.961811 0.654855 0.674908
Si Si2 0.803469 0.571963 0.128041
Si Si3 0.000000 0.000000 0.921317
Si Si4 0.040214 0.346468 0.726136
Si Si5 0.309077 0.962653 0.472883
O O1 0.838673 0.687038 0.727038
O O2 0.883775 0.613217 0.601062
O O3 0.995730 0.497921 0.701520
O O4 0.155394 0.837055 0.673342
O O5 0.583830 0.447047 0.111748
O O6 0.904626 0.782182 0.100623
O O7 0.848529 0.600378 0.205942
O O8 0.000000 0.000000 0.000000
O O9 0.155100 0.835378 0.523517
O O10 0.500000 0.000000 0.500000
#
# Coordination Sequence:
#
# PCOD9574963 Si02
#       5
#     6   6   2   6   6
#     4  12  23  39  63  90 123 169 227 287 355 447
#     4  10  23  49  72 111 156 193 249 307 363 437
#     4  12  27  48  81 117 159 213 250 290 355 429
#     4  12  23  42  65  97 127 169 224 287 366 416
#     4  12  25  42  59  83 123 169 222 286 358 434
#
# _framework density 20.703325
#
# number of rings (size 3 to 8) (size 9 to 14) (size 15 to 20)
#    0.462    0.000    2.308    7.615    0.000    0.923 
#    1.385    0.000    0.000    0.000    0.000    0.000 
#    0.000    0.000    0.000    0.000    0.000    0.000 
#
# Total GULP energy -144918.128430 kJ/mol
# GULP energy per Si atom -5573.774170 kJ/mol
# Density = 2.065620 g / cm^3
# Si number density = 20.703325 Si / 1000 Ang^3
#
#
#
# Elastic Constant Matrix: (Units=GPa)
#
#
# Indices 1 2 3 4 5 6 
#
# 1 141.0257 54.5921 22.7668 6.7312 -2.9808 0.0000
# 2 54.5921 141.0257 22.7668 -6.7312 2.9808 0.0000
# 3 22.7668 22.7668 98.0609 0.0000 0.0000 0.0000
# 4 6.7312 -6.7312 0.0000 24.2847 0.0000 2.9808
# 5 -2.9808 2.9808 0.0000 0.0000 24.2847 6.7312
# 6 0.0000 0.0000 0.0000 2.9808 6.7312 43.2168
#
#
#
# Elastic Compliance Matrix: (Units=1/GPa)
#
#
# Indices 1 2 3 4 5 6 
#
# 1 0.008802 -0.003398 -0.001255 -0.003381 0.001497 0.000000
# 2 -0.003398 0.008802 -0.001255 0.003381 -0.001497 0.000000
# 3 -0.001255 -0.001255 0.010780 0.000000 0.000000 0.000000
# 4 -0.003381 0.003381 0.000000 0.043420 0.000000 -0.002995
# 5 0.001497 -0.001497 0.000000 0.000000 0.043420 -0.006763
# 6 0.000000 0.000000 0.000000 -0.002995 -0.006763 0.024399
#
#
# Mechanical properties :
#
#
# Convention : Reuss Voigt Hill
#
# Bulk Modulus (GPa) = 60.35077 64.48488 62.41783
# Shear Modulus (GPa) = 31.85505 37.02303 34.43904
#
# Velocity S-wave (km/s) = 3.92681 4.23338 4.08297
# Velocity P-wave (km/s) = 7.05502 7.42361 7.24166
#
# Compressibility (1/GPa) = 0.01656980
#
# Stress axis : x y z
#
# Youngs Moduli (GPa) = 113.61324 113.61324 92.76149
#
# Poissons Ratio (x) = 0.38603 0.11638
# Poissons Ratio (y) = 0.38603 0.11638
# Poissons Ratio (z) = 0.14255 0.14255
#
# Static dielectric constant tensor:
#      x y z
#    x 1.782560 0.000000 0.000000 
#    y 0.000000 1.782560 0.000000 
#    z 0.000000 0.000000 1.689550 
# 
# From -- ./inp_files/1065.got.cif
#   From: 2010.05.17/outbox.cif.g08.bks.cpg/sg147_cif.got.tgz:1065.got - 2010.05.20 13:49:32.
