data_PCOD9574428
_publ_section_title
;
Structure prediction by ZEFSAII (Michael W. Deem and Ramdas Pophale) SiO2 
 PCOD9574428
Probable space group: P 31
;
_chemical_formula_sum "Si O2"
_cell_formula_units_Z 18
_cell_length_a 7.939122
_cell_length_b 7.939122
_cell_length_c 11.115460
_cell_angle_alpha 90.000000
_cell_angle_beta 90.000000
_cell_angle_gamma 120.000000
_cell_volume 606.740553
_symmetry_space_group_name_H-M "P 31"
_symmetry_group_IT_number 144
_symmetry_cell_setting 'hexagonal'
loop_
_space_group_symop_operation_xyz
x,y,z
-y,x-y,1/3+z
-x+y,-x,2/3+z
loop_
_atom_site_type_symbol
_atom_site_label
_atom_site_fract_x
_atom_site_fract_y
_atom_site_fract_z
Si Si1 0.463842 0.818305 0.503930
Si Si2 0.509306 0.881228 0.007968
Si Si3 0.336472 0.180069 0.241796
Si Si4 0.299387 0.214342 0.505018
Si Si5 0.161706 0.201127 0.998712
Si Si6 0.715933 0.228634 0.173614
O O1 0.250072 0.741003 0.454139
O O2 0.489028 0.696227 0.610024
O O3 0.580604 0.819829 0.384306
O O4 0.189948 0.035364 0.598012
O O5 0.636955 0.875240 0.897127
O O6 0.621758 0.103903 0.052002
O O7 0.236465 0.138629 0.370108
O O8 0.451881 0.415381 0.216823
O O9 0.195917 0.116125 0.125514
O O10 0.516211 0.145158 0.248940
O O11 0.538481 0.364026 0.488824
O O12 0.303653 0.174638 0.905331
#
# Coordination Sequence:
#
# PCOD9574428 Si02
#       6
#     3   3   3   3   3   3
#     4  10  26  50  86 126 184 244 322 409 476 585
#     4  12  26  46  86 129 177 252 328 401 508 589
#     4  10  25  50  87 129 182 249 318 394 496 587
#     4  12  27  50  91 132 191 253 321 416 497 599
#     4  10  27  53  89 134 185 250 332 398 490 609
#     4  12  27  47  89 132 183 256 325 398 503 601
#
# _framework density 29.666716000000001
#
# number of rings (size 3 to 8) (size 9 to 14) (size 15 to 20)
#    1.000    0.000    0.000    5.000    9.333    1.333 
#    0.000    1.667   40.333    0.000    0.000    0.000 
#    0.000    0.000    0.000    0.000    0.000    0.000 
#
# Total GULP energy -100685.110468 kJ/mol
# GULP energy per Si atom -5593.617248 kJ/mol
# Density = 2.959919 g / cm^3
# Si number density = 29.666716 Si / 1000 Ang^3
#
#
#
# Elastic Constant Matrix: (Units=GPa)
#
#
# Indices 1 2 3 4 5 6 
#
# 1 120.1253 27.0164 18.1235 0.8731 -2.9358 0.0000
# 2 27.0164 120.1253 18.1235 -0.8731 2.9358 0.0000
# 3 18.1235 18.1235 165.1167 0.0000 0.0000 0.0000
# 4 0.8731 -0.8731 0.0000 55.5798 0.0000 2.9358
# 5 -2.9358 2.9358 0.0000 0.0000 55.5798 0.8731
# 6 0.0000 0.0000 0.0000 2.9358 0.8731 46.5544
#
#
#
# Elastic Compliance Matrix: (Units=1/GPa)
#
#
# Indices 1 2 3 4 5 6 
#
# 1 0.008882 -0.001897 -0.000767 -0.000169 0.000569 0.000000
# 2 -0.001897 0.008882 -0.000767 0.000169 -0.000569 0.000000
# 3 -0.000767 -0.000767 0.006225 0.000000 0.000000 0.000000
# 4 -0.000169 0.000169 0.000000 0.018058 0.000000 -0.001139
# 5 0.000569 -0.000569 0.000000 0.000000 0.018058 -0.000339
# 6 0.000000 0.000000 0.000000 -0.001139 -0.000339 0.021558
#
#
# Mechanical properties :
#
#
# Convention : Reuss Voigt Hill
#
# Bulk Modulus (GPa) = 58.38415 59.09937 58.74176
# Shear Modulus (GPa) = 53.06012 54.34973 53.70493
#
# Velocity S-wave (km/s) = 4.23370 4.28484 4.25935
# Velocity P-wave (km/s) = 6.60467 6.66665 6.63573
#
# Compressibility (1/GPa) = 0.01712794
#
# Stress axis : x y z
#
# Youngs Moduli (GPa) = 112.58576 112.58576 160.65210
#
# Poissons Ratio (x) = 0.21358 0.12317
# Poissons Ratio (y) = 0.21358 0.12317
# Poissons Ratio (z) = 0.08632 0.08632
#
# Static dielectric constant tensor:
#      x y z
#    x 2.409990 0.000000 0.000000 
#    y 0.000000 2.409990 0.000000 
#    z 0.000000 0.000000 2.341300 
# 
# From -- ./inp_files/626.got.cif
#   From: 2010.05.17/outbox.cif.g08.bks.cpg/sg144_cif.got.tgz:626.got - 2010.05.20 13:46:34.
