data_PCOD9574893
_publ_section_title
;
Structure prediction by ZEFSAII (Michael W. Deem and Ramdas Pophale) SiO2 
 PCOD9574893
Probable space group: P -3
;
_chemical_formula_sum "Si O2"
_cell_formula_units_Z 36
_cell_length_a 12.785964
_cell_length_b 12.785964
_cell_length_c 15.675311
_cell_angle_alpha 90.000000
_cell_angle_beta 90.000000
_cell_angle_gamma 120.000000
_cell_volume 2219.288447
_symmetry_space_group_name_H-M "P -3"
_symmetry_group_IT_number 147
_symmetry_cell_setting 'hexagonal'
loop_
_space_group_symop_operation_xyz
x,y,z
-y,x-y,z
-x+y,-x,z
-x,-y,-z
y,-x+y,-z
x-y,x,-z
loop_
_atom_site_type_symbol
_atom_site_label
_atom_site_fract_x
_atom_site_fract_y
_atom_site_fract_z
Si Si1 0.915519 0.581845 0.918633
Si Si2 0.247014 0.246887 0.597206
Si Si3 0.418155 0.084481 0.918633
Si Si4 0.246887 0.247014 0.402794
Si Si5 0.581444 0.914963 0.756169
Si Si6 0.581444 0.666481 0.756169
O O1 0.886224 0.443112 0.920859
O O2 0.794032 0.588065 0.920734
O O3 0.992579 0.640993 0.833324
O O4 1.000000 0.646681 0.000000
O O5 0.288437 0.288437 0.500000
O O6 0.107652 0.215305 0.600952
O O7 0.317750 0.347565 0.668114
O O8 0.255432 0.127716 0.613783
O O9 0.359007 0.007421 0.833324
O O10 0.347565 0.317750 0.331886
O O11 0.578734 0.789367 0.771475
O O12 0.446918 0.893836 0.751848
#
# Coordination Sequence:
#
# PCOD9574893 Si02
#       6
#     6   6   6   6   6   6
#     4  10  20  34  53  75  99 127 159 196 236 281
#     4   9  17  30  49  72  97 126 161 201 244 289
#     4  10  20  34  53  75  99 127 159 196 236 281
#     4   9  17  30  49  72  97 126 161 201 244 289
#     4  10  20  33  50  71  97 129 163 200 240 285
#     4  10  20  33  50  71  97 129 163 200 240 285
#
# _framework density 16.221415
#
# number of rings (size 3 to 8) (size 9 to 14) (size 15 to 20)
#    0.000    2.333    0.000    3.000    0.000    2.000 
#    0.000    3.333    0.000    8.667    0.000    0.000 
#    0.000    0.000    0.000    0.000    0.000    0.000 
#
# Total GULP energy -200829.249069 kJ/mol
# GULP energy per Si atom -5578.590252 kJ/mol
# Density = 1.618449 g / cm^3
# Si number density = 16.221415 Si / 1000 Ang^3
#
#
#
# Elastic Constant Matrix: (Units=GPa)
#
#
# Indices 1 2 3 4 5 6 
#
# 1 118.5387 82.6084 82.6946 2.8312 0.0000 0.0000
# 2 82.6084 118.5387 82.6946 -2.8312 0.0000 0.0000
# 3 82.6946 82.6946 136.3755 0.0000 0.0000 0.0000
# 4 2.8312 -2.8312 0.0000 23.8457 0.0000 0.0000
# 5 0.0000 0.0000 0.0000 0.0000 23.8457 2.8312
# 6 0.0000 0.0000 0.0000 0.0000 2.8312 17.9652
#
#
#
# Elastic Compliance Matrix: (Units=1/GPa)
#
#
# Indices 1 2 3 4 5 6 
#
# 1 0.019139 -0.009224 -0.006012 -0.003367 0.000000 0.000000
# 2 -0.009224 0.019139 -0.006012 0.003367 0.000000 0.000000
# 3 -0.006012 -0.006012 0.014624 0.000000 0.000000 0.000000
# 4 -0.003367 0.003367 0.000000 0.042736 0.000000 0.000000
# 5 0.000000 0.000000 0.000000 0.000000 0.042736 -0.006735
# 6 0.000000 0.000000 0.000000 0.000000 -0.006735 0.056725
#
#
# Mechanical properties :
#
#
# Convention : Reuss Voigt Hill
#
# Bulk Modulus (GPa) = 96.10660 96.60538 96.35599
# Shear Modulus (GPa) = 20.74156 21.49498 21.11827
#
# Velocity S-wave (km/s) = 3.57970 3.64414 3.61207
# Velocity P-wave (km/s) = 8.74420 8.79715 8.77072
#
# Compressibility (1/GPa) = 0.01040511
#
# Stress axis : x y z
#
# Youngs Moduli (GPa) = 52.25049 52.25049 68.38145
#
# Poissons Ratio (x) = 0.48195 0.41112
# Poissons Ratio (y) = 0.48195 0.41112
# Poissons Ratio (z) = 0.31413 0.31413
#
# Static dielectric constant tensor:
#      x y z
#    x 1.512560 0.000000 0.000000 
#    y 0.000000 1.512560 0.000000 
#    z 0.000000 0.000000 1.541150 
# 
# From -- ./inp_files/924.got.cif
#   From: 2010.05.17/outbox.cif.g08.bks.cpg/sg147_cif.got.tgz:924.got - 2010.05.20 13:49:32.
