data_PCOD9574064
_publ_section_title
;
Structure prediction by ZEFSAII (Michael W. Deem and Ramdas Pophale) SiO2 
 PCOD9574064
Probable space group: I 41/A C D
;
_chemical_formula_sum "Si O2"
_cell_formula_units_Z 160
_cell_length_a 23.783234
_cell_length_b 23.783234
_cell_length_c 13.322032
_cell_angle_alpha 90.000000
_cell_angle_beta 90.000000
_cell_angle_gamma 90.000000
_cell_volume 7535.503749
_symmetry_space_group_name_H-M "I 41/A C D"
_symmetry_group_IT_number 142
_space_group.IT_coordinate_system_code '2'
_symmetry_cell_setting 'tetragonal'
loop_
_space_group_symop_operation_xyz
x,y,z
1/4-y,3/4+x,1/4+z
-x,1/2-y,z
1/4+y,1/4-x,3/4+z
x,-y,1/2-z
1/2-x,y,-z
3/4+y,1/4+x,1/4-z
1/4-y,1/4-x,1/4-z
-x,-y,-z
3/4+y,1/4-x,3/4-z
x,1/2+y,-z
3/4-y,3/4+x,1/4-z
-x,y,1/2+z
1/2+x,-y,z
1/4-y,3/4-x,3/4+z
3/4+y,3/4+x,3/4+z
1/2+x,1/2+y,1/2+z
3/4-y,1/4+x,3/4+z
1/2-x,-y,1/2+z
3/4+y,3/4-x,1/4+z
1/2+x,1/2-y,-z
-x,1/2+y,1/2-z
1/4+y,3/4+x,3/4-z
3/4-y,3/4-x,3/4-z
1/2-x,1/2-y,1/2-z
1/4+y,3/4-x,1/4-z
1/2+x,y,1/2-z
1/4-y,1/4+x,3/4-z
1/2-x,1/2+y,z
x,1/2-y,1/2+z
3/4-y,1/4-x,1/4+z
1/4+y,1/4+x,1/4+z
loop_
_atom_site_type_symbol
_atom_site_label
_atom_site_fract_x
_atom_site_fract_y
_atom_site_fract_z
Si Si1 0.587809 0.618853 0.431557
Si Si2 0.250000 0.847313 0.500000
Si Si3 0.154090 0.095911 0.125000
Si Si4 0.801280 0.227774 0.318353
Si Si5 0.114479 0.357757 0.230508
Si Si6 0.561310 0.764300 0.018646
O O1 0.606716 0.596713 0.538789
O O2 0.530552 0.589024 0.401675
O O3 0.624367 0.607932 0.332602
O O4 0.586275 0.686568 0.448928
O O5 0.208213 0.888211 0.439836
O O6 0.220323 0.807504 0.584596
O O7 0.750000 0.250000 0.250000
O O8 0.844488 0.194382 0.247491
O O9 0.132690 0.382690 0.125000
O O10 0.046827 0.341945 0.221787
O O11 0.500000 0.750000 0.979226
O O12 0.545824 0.795824 0.125000
#
# Coordination Sequence:
#
# PCOD9574064 Si02
#       6
#    32  16  16  32  32  32
#     4  12  24  40  68 103 147 192 238 295 366 458
#     4  12  28  52  78 106 146 194 260 320 382 456
#     4  12  26  50  77 104 138 194 262 310 382 439
#     4  12  26  44  69 106 150 195 241 304 369 453
#     4  12  25  39  61 102 149 195 240 286 363 441
#     4  11  20  34  56  93 147 194 232 270 338 446
#
# _framework density 21.232821000000001
#
# number of rings (size 3 to 8) (size 9 to 14) (size 15 to 20)
#    0.000    0.200    9.000    1.200    2.800    0.000 
#    0.000    0.000    2.200    1.200    0.000    0.000 
#    0.000    0.000    0.000    0.000    0.000    0.000 
#
# Total GULP energy -445751.248288 kJ/mol
# GULP energy per Si atom -5571.890604 kJ/mol
# Density = 2.118449 g / cm^3
# Si number density = 21.232821 Si / 1000 Ang^3
#
#
#
# Elastic Constant Matrix: (Units=GPa)
#
#
# Indices 1 2 3 4 5 6 
#
# 1 77.2489 49.7455 44.9114 0.0000 0.0000 0.0000
# 2 49.7455 77.2517 44.9102 0.0000 0.0000 0.0000
# 3 44.9114 44.9102 184.5316 0.0000 0.0000 0.0000
# 4 0.0000 0.0000 0.0000 28.3677 0.0000 0.0000
# 5 0.0000 0.0000 0.0000 0.0000 28.3681 0.0000
# 6 0.0000 0.0000 0.0000 0.0000 0.0000 17.1331
#
#
#
# Elastic Compliance Matrix: (Units=1/GPa)
#
#
# Indices 1 2 3 4 5 6 
#
# 1 0.022935 -0.013423 -0.002315 0.000000 0.000000 0.000000
# 2 -0.013423 0.022934 -0.002315 0.000000 0.000000 0.000000
# 3 -0.002315 -0.002315 0.006546 0.000000 0.000000 0.000000
# 4 0.000000 0.000000 0.000000 0.035251 0.000000 0.000000
# 5 0.000000 0.000000 0.000000 0.000000 0.035251 0.000000
# 6 0.000000 0.000000 0.000000 0.000000 0.000000 0.058367
#
#
# Mechanical properties :
#
#
# Convention : Reuss Voigt Hill
#
# Bulk Modulus (GPa) = 61.31418 68.68514 64.99966
# Shear Modulus (GPa) = 22.43910 28.07146 25.25528
#
# Velocity S-wave (km/s) = 3.25439 3.63998 3.45258
# Velocity P-wave (km/s) = 6.56210 7.07706 6.82444
#
# Compressibility (1/GPa) = 0.01630944
#
# Stress axis : x y z
#
# Youngs Moduli (GPa) = 43.60152 43.60370 152.76715
#
# Poissons Ratio (x) = 0.58529 0.35368
# Poissons Ratio (y) = 0.58526 0.35360
# Poissons Ratio (z) = 0.10094 0.10093
#
# Static dielectric constant tensor:
#      x y z
#    x 1.841030 0.000000 0.000000 
#    y 0.000000 1.841020 0.000000 
#    z 0.000000 0.000000 1.832240 
# 
# From -- ./inp_files/5500.got.cif
#   From: 2010.05.17/outbox.cif.g08.bks.cpg/sg142_3_cif.got.tgz:5500.got - 2010.05.20 13:39:18.
