data_PCOD9574033
_publ_section_title
;
Structure prediction by ZEFSAII (Michael W. Deem and Ramdas Pophale) SiO2 
 PCOD9574033
Probable space group: I 41/A C D
;
_chemical_formula_sum "Si O2"
_cell_formula_units_Z 64
_cell_length_a 9.963413
_cell_length_b 9.963413
_cell_length_c 24.693154
_cell_angle_alpha 90.000000
_cell_angle_beta 90.000000
_cell_angle_gamma 90.000000
_cell_volume 2451.279486
_symmetry_space_group_name_H-M "I 41/A C D"
_symmetry_group_IT_number 142
_space_group.IT_coordinate_system_code '2'
_symmetry_cell_setting 'tetragonal'
loop_
_space_group_symop_operation_xyz
x,y,z
1/4-y,3/4+x,1/4+z
-x,1/2-y,z
1/4+y,1/4-x,3/4+z
x,-y,1/2-z
1/2-x,y,-z
3/4+y,1/4+x,1/4-z
1/4-y,1/4-x,1/4-z
-x,-y,-z
3/4+y,1/4-x,3/4-z
x,1/2+y,-z
3/4-y,3/4+x,1/4-z
-x,y,1/2+z
1/2+x,-y,z
1/4-y,3/4-x,3/4+z
3/4+y,3/4+x,3/4+z
1/2+x,1/2+y,1/2+z
3/4-y,1/4+x,3/4+z
1/2-x,-y,1/2+z
3/4+y,3/4-x,1/4+z
1/2+x,1/2-y,-z
-x,1/2+y,1/2-z
1/4+y,3/4+x,3/4-z
3/4-y,3/4-x,3/4-z
1/2-x,1/2-y,1/2-z
1/4+y,3/4-x,1/4-z
1/2+x,y,1/2-z
1/4-y,1/4+x,3/4-z
1/2-x,1/2+y,z
x,1/2-y,1/2+z
3/4-y,1/4-x,1/4+z
1/4+y,1/4+x,1/4+z
loop_
_atom_site_type_symbol
_atom_site_label
_atom_site_fract_x
_atom_site_fract_y
_atom_site_fract_z
Si Si1 0.779700 0.742608 0.632197
Si Si2 0.616253 0.835975 0.033202
O O1 0.869058 0.874215 0.634286
O O2 0.713726 0.701540 0.688774
O O3 0.670155 0.751647 0.584484
O O4 0.500000 0.750000 0.004056
O O5 0.750000 0.866410 0.000000
#
# Coordination Sequence:
#
# PCOD9574033 Si02
#       2
#    32  32
#     4  10  24  47  74 107 150 200 254 322 389 459
#     4  11  27  46  74 110 154 202 261 321 391 467
#
# _framework density 26.108816999999998
#
# number of rings (size 3 to 8) (size 9 to 14) (size 15 to 20)
#    0.000    1.500    0.000    3.000   21.000    4.000 
#    0.000    0.000    0.000    0.000    0.000    0.000 
#    0.000    0.000    0.000    0.000    0.000    0.000 
#
# Total GULP energy -179572.614763 kJ/mol
# GULP energy per Si atom -5611.644211 kJ/mol
# Density = 2.604939 g / cm^3
# Si number density = 26.108817 Si / 1000 Ang^3
#
#
#
# Elastic Constant Matrix: (Units=GPa)
#
#
# Indices 1 2 3 4 5 6 
#
# 1 129.3183 73.9816 30.0777 0.0000 0.0000 0.0000
# 2 73.9816 129.3183 30.0777 0.0000 0.0000 0.0000
# 3 30.0777 30.0777 92.8904 0.0000 0.0000 0.0000
# 4 0.0000 0.0000 0.0000 43.7603 0.0000 0.0000
# 5 0.0000 0.0000 0.0000 0.0000 43.7603 0.0000
# 6 0.0000 0.0000 0.0000 0.0000 0.0000 51.5912
#
#
#
# Elastic Compliance Matrix: (Units=1/GPa)
#
#
# Indices 1 2 3 4 5 6 
#
# 1 0.011756 -0.006316 -0.001761 0.000000 0.000000 0.000000
# 2 -0.006316 0.011756 -0.001761 0.000000 0.000000 0.000000
# 3 -0.001761 -0.001761 0.011906 0.000000 0.000000 0.000000
# 4 0.000000 0.000000 0.000000 0.022852 0.000000 0.000000
# 5 0.000000 0.000000 0.000000 0.000000 0.022852 0.000000
# 6 0.000000 0.000000 0.000000 0.000000 0.000000 0.019383
#
#
# Mechanical properties :
#
#
# Convention : Reuss Voigt Hill
#
# Bulk Modulus (GPa) = 63.53118 68.86678 66.19898
# Shear Modulus (GPa) = 39.86355 42.31502 41.08929
#
# Velocity S-wave (km/s) = 3.91170 4.03018 3.97138
# Velocity P-wave (km/s) = 6.69238 6.93474 6.81463
#
# Compressibility (1/GPa) = 0.01574030
#
# Stress axis : x y z
#
# Youngs Moduli (GPa) = 85.06569 85.06569 83.99056
#
# Poissons Ratio (x) = 0.53724 0.14795
# Poissons Ratio (y) = 0.53724 0.14795
# Poissons Ratio (z) = 0.14984 0.14984
#
# Static dielectric constant tensor:
#      x y z
#    x 2.006510 0.000000 0.000000 
#    y 0.000000 2.006510 0.000000 
#    z 0.000000 0.000000 2.081040 
# 
# From -- ./inp_files/9472.got.cif
#   From: 2010.05.17/outbox.cif.g08.bks.cpg/sg142_5_cif.got.tgz:9472.got - 2010.05.20 13:39:18.
