data_PCOD9574028
_publ_section_title
;
Structure prediction by ZEFSAII (Michael W. Deem and Ramdas Pophale) SiO2 
 PCOD9574028
Probable space group: I 41/A C D
;
_chemical_formula_sum "Si O2"
_cell_formula_units_Z 40
_cell_length_a 13.083972
_cell_length_b 13.083972
_cell_length_c 7.722854
_cell_angle_alpha 90.000000
_cell_angle_beta 90.000000
_cell_angle_gamma 90.000000
_cell_volume 1322.077873
_symmetry_space_group_name_H-M "I 41/A C D"
_symmetry_group_IT_number 142
_space_group.IT_coordinate_system_code '2'
_symmetry_cell_setting 'tetragonal'
loop_
_space_group_symop_operation_xyz
x,y,z
1/4-y,3/4+x,1/4+z
-x,1/2-y,z
1/4+y,1/4-x,3/4+z
x,-y,1/2-z
1/2-x,y,-z
3/4+y,1/4+x,1/4-z
1/4-y,1/4-x,1/4-z
-x,-y,-z
3/4+y,1/4-x,3/4-z
x,1/2+y,-z
3/4-y,3/4+x,1/4-z
-x,y,1/2+z
1/2+x,-y,z
1/4-y,3/4-x,3/4+z
3/4+y,3/4+x,3/4+z
1/2+x,1/2+y,1/2+z
3/4-y,1/4+x,3/4+z
1/2-x,-y,1/2+z
3/4+y,3/4-x,1/4+z
1/2+x,1/2-y,-z
-x,1/2+y,1/2-z
1/4+y,3/4+x,3/4-z
3/4-y,3/4-x,3/4-z
1/2-x,1/2-y,1/2-z
1/4+y,3/4-x,1/4-z
1/2+x,y,1/2-z
1/4-y,1/4+x,3/4-z
1/2-x,1/2+y,z
x,1/2-y,1/2+z
3/4-y,1/4-x,1/4+z
1/4+y,1/4+x,1/4+z
loop_
_atom_site_type_symbol
_atom_site_label
_atom_site_fract_x
_atom_site_fract_y
_atom_site_fract_z
Si Si1 0.000000 0.250000 0.875000
Si Si2 0.375980 0.559702 0.912054
O O1 0.099442 0.299573 0.787071
O O2 0.425945 0.500000 0.750000
O O3 0.274152 0.604299 0.811760
#
# Coordination Sequence:
#
# PCOD9574028 Si02
#       2
#     8  32
#     4  12  24  46  80 110 140 198 256 298 360 446
#     4  10  24  46  74 107 149 193 242 304 370 437
#
# _framework density 30.255403999999999
#
# number of rings (size 3 to 8) (size 9 to 14) (size 15 to 20)
#    0.000    1.600    0.000    2.400    0.000   16.000 
#    0.000   12.000    0.000    4.800    0.000    0.000 
#    0.000    0.000    0.000    0.000    0.000    0.000 
#
# Total GULP energy -111769.536764 kJ/mol
# GULP energy per Si atom -5588.476838 kJ/mol
# Density = 3.018654 g / cm^3
# Si number density = 30.255404 Si / 1000 Ang^3
#
#
#
# Elastic Constant Matrix: (Units=GPa)
#
#
# Indices 1 2 3 4 5 6 
#
# 1 209.8328 106.7153 60.8434 0.0000 0.0000 0.0000
# 2 106.7153 209.8328 60.8434 0.0000 0.0000 0.0000
# 3 60.8434 60.8434 214.0387 0.0000 0.0000 0.0000
# 4 0.0000 0.0000 0.0000 -5.1889 0.0000 0.0000
# 5 0.0000 0.0000 0.0000 0.0000 -5.1889 0.0000
# 6 0.0000 0.0000 0.0000 0.0000 0.0000 148.0062
#
#
#
# Elastic Compliance Matrix: (Units=1/GPa)
#
#
# Indices 1 2 3 4 5 6 
#
# 1 0.006622 -0.003076 -0.001008 0.000000 0.000000 0.000000
# 2 -0.003076 0.006622 -0.001008 0.000000 0.000000 0.000000
# 3 -0.001008 -0.001008 0.005245 0.000000 0.000000 0.000000
# 4 0.000000 0.000000 0.000000 -0.192720 0.000000 0.000000
# 5 0.000000 0.000000 0.000000 0.000000 -0.192720 0.000000
# 6 0.000000 0.000000 0.000000 0.000000 0.000000 0.006756
#
#
# Mechanical properties :
#
#
# Convention : Reuss Voigt Hill
#
# Bulk Modulus (GPa) = 120.39796 121.16761 120.78279
# Shear Modulus (GPa) = -14.39917 54.54583 20.07333
#
# Velocity S-wave (km/s) = -2.18393 4.25060 2.57857
# Velocity P-wave (km/s) = 5.78972 8.01407 6.99093
#
# Compressibility (1/GPa) = 0.00830579
#
# Stress axis : x y z
#
# Youngs Moduli (GPa) = 151.00813 151.00813 190.64943
#
# Poissons Ratio (x) = 0.46443 0.19221
# Poissons Ratio (y) = 0.46443 0.19221
# Poissons Ratio (z) = 0.15224 0.15224
#
# Static dielectric constant tensor:
#      x y z
#    x 2.411560 0.000000 0.000000 
#    y 0.000000 2.411560 0.000000 
#    z 0.000000 0.000000 2.307600 
# 
# From -- ./inp_files/781.got.cif
#   From: 2010.05.17/outbox.cif.g08.bks.cpg/sg142_1_cif.got.tgz:781.got - 2010.05.20 13:39:18.
