data_PCOD9574935
_publ_section_title
;
Structure prediction by ZEFSAII (Michael W. Deem and Ramdas Pophale) SiO2 
 PCOD9574935
Probable space group: P -3
;
_chemical_formula_sum "Si O2"
_cell_formula_units_Z 48
_cell_length_a 17.573027
_cell_length_b 17.573027
_cell_length_c 8.721906
_cell_angle_alpha 90.000000
_cell_angle_beta 90.000000
_cell_angle_gamma 120.000000
_cell_volume 2332.572687
_symmetry_space_group_name_H-M "P -3"
_symmetry_group_IT_number 147
_symmetry_cell_setting 'hexagonal'
loop_
_space_group_symop_operation_xyz
x,y,z
-y,x-y,z
-x+y,-x,z
-x,-y,-z
y,-x+y,-z
x-y,x,-z
loop_
_atom_site_type_symbol
_atom_site_label
_atom_site_fract_x
_atom_site_fract_y
_atom_site_fract_z
Si Si1 0.887353 0.512741 0.955021
Si Si2 0.802832 0.704667 0.306953
Si Si3 0.243061 0.472362 0.828316
Si Si4 0.807339 0.881434 0.937877
Si Si5 0.557649 0.916623 0.082435
Si Si6 0.304666 0.558257 0.513272
Si Si7 0.760736 0.085131 0.822456
Si Si8 0.633028 0.873790 0.371195
O O1 0.884543 0.428634 0.881703
O O2 0.873442 0.572071 0.833519
O O3 0.817556 0.495597 0.088577
O O4 0.985396 0.579649 0.017630
O O5 0.810033 0.619452 0.263916
O O6 0.890692 0.787013 0.236588
O O7 0.726961 0.709531 0.211879
O O8 0.766553 0.689775 0.479624
O O9 0.301214 0.538989 0.695182
O O10 0.297225 0.452362 0.956329
O O11 0.872846 0.844901 0.967569
O O12 0.716125 0.813016 0.020363
O O13 0.617400 0.920499 0.224956
O O14 0.400657 0.642164 0.478701
O O15 0.275220 0.467159 0.428022
O O16 0.827598 0.141648 0.691348
#
# Coordination Sequence:
#
# PCOD9574935 Si02
#       8
#     6   6   6   6   6   6   6   6
#     4  11  23  38  64  87 124 158 212 274 307 367
#     4  10  22  39  61  92 127 167 204 258 312 391
#     4  11  19  40  64  85 116 161 216 257 315 373
#     4  10  21  39  69  99 132 167 215 263 308 378
#     4  11  24  39  60  93 122 159 217 264 319 370
#     4   9  22  39  57  84 121 159 208 258 323 376
#     4  11  22  40  63  91 126 166 215 259 312 372
#     4  11  24  38  62  90 128 168 207 261 321 390
#
# _framework density 20.578137000000002
#
# number of rings (size 3 to 8) (size 9 to 14) (size 15 to 20)
#    0.250    1.250    3.750    0.875    3.500    3.000 
#    0.750    0.625    0.000    0.000    0.000    4.375 
#    0.000    0.000    0.000    0.000    0.000    0.000 
#
# Total GULP energy -267420.215545 kJ/mol
# GULP energy per Si atom -5571.254491 kJ/mol
# Density = 2.053130 g / cm^3
# Si number density = 20.578137 Si / 1000 Ang^3
#
#
#
# Elastic Constant Matrix: (Units=GPa)
#
#
# Indices 1 2 3 4 5 6 
#
# 1 47.5544 6.0748 8.4019 3.4342 -6.4123 0.0000
# 2 6.0748 47.5544 8.4019 -3.4342 6.4123 0.0000
# 3 8.4019 8.4019 62.5039 0.0000 0.0000 0.0000
# 4 3.4342 -3.4342 0.0000 21.9895 0.0000 6.4123
# 5 -6.4123 6.4123 0.0000 0.0000 21.9895 3.4342
# 6 0.0000 0.0000 0.0000 6.4123 3.4342 20.7398
#
#
#
# Elastic Compliance Matrix: (Units=1/GPa)
#
#
# Indices 1 2 3 4 5 6 
#
# 1 0.023369 -0.003903 -0.002617 -0.004259 0.007953 0.000000
# 2 -0.003903 0.023369 -0.002617 0.004259 -0.007953 0.000000
# 3 -0.002617 -0.002617 0.016702 0.000000 0.000000 0.000000
# 4 -0.004259 0.004259 0.000000 0.051445 0.000000 -0.015906
# 5 0.007953 -0.007953 0.000000 0.000000 0.051445 -0.008518
# 6 0.000000 0.000000 0.000000 -0.015906 -0.008518 0.054545
#
#
# Mechanical properties :
#
#
# Convention : Reuss Voigt Hill
#
# Bulk Modulus (GPa) = 22.13930 22.59665 22.36797
# Shear Modulus (GPa) = 19.66924 21.92605 20.79764
#
# Velocity S-wave (km/s) = 3.09501 3.26774 3.18255
# Velocity P-wave (km/s) = 4.85326 5.02417 4.93945
#
# Compressibility (1/GPa) = 0.04516855
#
# Stress axis : x y z
#
# Youngs Moduli (GPa) = 42.79103 42.79103 59.87128
#
# Poissons Ratio (x) = 0.16701 0.15667
# Poissons Ratio (y) = 0.16701 0.15667
# Poissons Ratio (z) = 0.11197 0.11197
#
# Static dielectric constant tensor:
#      x y z
#    x 1.739490 0.000000 0.000000 
#    y 0.000000 1.739490 0.000000 
#    z 0.000000 0.000000 1.735880 
# 
# From -- ./inp_files/677.got.cif
#   From: 2010.05.17/outbox.cif.g08.bks.cpg/sg147_cif.got.tgz:677.got - 2010.05.20 13:49:32.
