data_PCOD9574440
_publ_section_title
;
Structure prediction by ZEFSAII (Michael W. Deem and Ramdas Pophale) SiO2 
 PCOD9574440
Probable space group: P 31
;
_chemical_formula_sum "Si O2"
_cell_formula_units_Z 18
_cell_length_a 9.409809
_cell_length_b 9.409809
_cell_length_c 11.237813
_cell_angle_alpha 90.000000
_cell_angle_beta 90.000000
_cell_angle_gamma 120.000000
_cell_volume 861.735628
_symmetry_space_group_name_H-M "P 31"
_symmetry_group_IT_number 144
_symmetry_cell_setting 'hexagonal'
loop_
_space_group_symop_operation_xyz
x,y,z
-y,x-y,1/3+z
-x+y,-x,2/3+z
loop_
_atom_site_type_symbol
_atom_site_label
_atom_site_fract_x
_atom_site_fract_y
_atom_site_fract_z
Si Si1 0.937313 0.873664 0.712970
Si Si2 0.262672 0.409388 0.349183
Si Si3 0.681618 0.120803 0.495262
Si Si4 0.729356 0.269685 0.253699
Si Si5 0.076055 0.596010 0.284150
Si Si6 0.787466 0.014946 0.138076
O O1 0.026034 0.827626 0.608503
O O2 0.771782 0.871531 0.673918
O O3 0.877072 0.730913 0.811736
O O4 0.074900 0.050518 0.753312
O O5 0.392206 0.420871 0.250441
O O6 0.204425 0.537760 0.316665
O O7 0.333329 0.434572 0.483334
O O8 0.640642 0.134932 0.358169
O O9 0.691056 0.282819 0.546692
O O10 0.894884 0.433088 0.292745
O O11 0.789596 0.187171 0.154935
O O12 0.087540 0.725540 0.382895
#
# Coordination Sequence:
#
# PCOD9574440 Si02
#       6
#     3   3   3   3   3   3
#     4  11  21  43  71 102 138 185 244 292 359 438
#     4  12  26  48  69 103 151 189 244 303 368 437
#     4  11  22  42  73  99 139 186 237 299 353 432
#     4  11  21  43  71 102 138 185 244 292 359 438
#     4  12  26  48  69 103 151 189 244 303 368 437
#     4  11  22  42  73  99 139 186 237 299 353 432
#
# _framework density 20.888075000000001
#
# number of rings (size 3 to 8) (size 9 to 14) (size 15 to 20)
#    0.000    0.667    6.667    2.000    0.000    0.000 
#   12.000    1.667    0.000    0.000    0.000    0.000 
#    0.000    0.000    0.000    0.000    0.000    0.000 
#
# Total GULP energy -100328.766981 kJ/mol
# GULP energy per Si atom -5573.820388 kJ/mol
# Density = 2.084053 g / cm^3
# Si number density = 20.888075 Si / 1000 Ang^3
#
#
#
# Elastic Constant Matrix: (Units=GPa)
#
#
# Indices 1 2 3 4 5 6 
#
# 1 72.2020 14.2191 2.6919 8.2917 0.0003 0.0000
# 2 14.2191 72.2020 2.6919 -8.2917 -0.0003 0.0000
# 3 2.6919 2.6919 67.0027 0.0000 0.0000 0.0000
# 4 8.2917 -8.2917 0.0000 32.9445 0.0000 -0.0003
# 5 0.0003 -0.0003 0.0000 0.0000 32.9445 8.2917
# 6 0.0000 0.0000 0.0000 -0.0003 8.2917 28.9915
#
#
#
# Elastic Compliance Matrix: (Units=1/GPa)
#
#
# Indices 1 2 3 4 5 6 
#
# 1 0.015092 -0.003492 -0.000466 -0.004677 0.000000 0.000000
# 2 -0.003492 0.015092 -0.000466 0.004677 0.000000 0.000000
# 3 -0.000466 -0.000466 0.014962 0.000000 0.000000 0.000000
# 4 -0.004677 0.004677 0.000000 0.032709 0.000000 0.000000
# 5 0.000000 0.000000 0.000000 0.000000 0.032709 -0.009355
# 6 0.000000 0.000000 0.000000 0.000000 -0.009355 0.037168
#
#
# Mechanical properties :
#
#
# Convention : Reuss Voigt Hill
#
# Bulk Modulus (GPa) = 27.54931 27.84585 27.69758
# Shear Modulus (GPa) = 29.64194 31.76303 30.70248
#
# Velocity S-wave (km/s) = 3.77116 3.90376 3.83803
# Velocity P-wave (km/s) = 5.67273 5.80336 5.73842
#
# Compressibility (1/GPa) = 0.03629856
#
# Stress axis : x y z
#
# Youngs Moduli (GPa) = 66.25917 66.25917 66.83503
#
# Poissons Ratio (x) = 0.23138 0.03115
# Poissons Ratio (y) = 0.23138 0.03115
# Poissons Ratio (z) = 0.03088 0.03088
#
# Static dielectric constant tensor:
#      x y z
#    x 1.732880 0.000000 0.000000 
#    y 0.000000 1.732880 0.000000 
#    z 0.000000 0.000000 1.823070 
# 
# From -- ./inp_files/569.got.cif
#   From: 2010.05.17/outbox.cif.g08.bks.cpg/sg144_cif.got.tgz:569.got - 2010.05.20 13:46:34.
