data_PCOD9574922
_publ_section_title
;
Structure prediction by ZEFSAII (Michael W. Deem and Ramdas Pophale) SiO2 
 PCOD9574922
Probable space group: P -3
;
_chemical_formula_sum "Si O2"
_cell_formula_units_Z 42
_cell_length_a 20.620825
_cell_length_b 20.620825
_cell_length_c 5.113818
_cell_angle_alpha 90.000000
_cell_angle_beta 90.000000
_cell_angle_gamma 120.000000
_cell_volume 1883.163259
_symmetry_space_group_name_H-M "P -3"
_symmetry_group_IT_number 147
_symmetry_cell_setting 'hexagonal'
loop_
_space_group_symop_operation_xyz
x,y,z
-y,x-y,z
-x+y,-x,z
-x,-y,-z
y,-x+y,-z
x-y,x,-z
loop_
_atom_site_type_symbol
_atom_site_label
_atom_site_fract_x
_atom_site_fract_y
_atom_site_fract_z
Si Si1 0.044613 0.888289 0.421132
Si Si2 0.717836 0.925950 0.778341
Si Si3 0.297453 0.452457 0.914737
Si Si4 0.073459 0.252029 0.042715
Si Si5 0.580096 0.720075 0.129223
Si Si6 0.453167 0.379421 0.385391
Si Si7 0.484336 0.096785 0.564385
O O1 0.038880 0.811809 0.533426
O O2 0.105833 0.916959 0.191159
O O3 0.960833 0.873741 0.382297
O O4 0.633949 0.903796 0.838135
O O5 0.765082 0.987322 0.996715
O O6 0.720509 0.849839 0.801140
O O7 0.328535 0.488084 0.632789
O O8 0.224649 0.452000 0.028785
O O9 0.361568 0.485705 0.138179
O O10 0.104537 0.331355 0.186129
O O11 0.550489 0.679411 0.402896
O O12 0.562804 0.658417 0.901420
O O13 0.533988 0.451235 0.447329
O O14 0.395019 0.409286 0.441319
#
# Coordination Sequence:
#
# PCOD9574922 Si02
#       7
#     6   6   6   6   6   6   6
#     4  10  21  36  54  78 116 168 226 278 326 378
#     4  10  21  34  53  80 115 156 205 261 319 374
#     4  11  24  40  64  95 133 168 206 262 327 388
#     4  10  21  34  53  80 115 156 205 261 319 374
#     4  11  24  40  64  95 133 168 206 262 327 388
#     4  11  23  42  68  97 128 167 213 263 320 388
#     4  11  23  42  68  97 128 167 213 263 320 388
#
# _framework density 22.302897999999999
#
# number of rings (size 3 to 8) (size 9 to 14) (size 15 to 20)
#    0.000    1.429    0.000    5.286    8.000    2.286 
#    0.000    0.000    0.000   16.000    0.000    0.000 
#    0.000    0.000    0.000    0.000    0.000    0.000 
#
# Total GULP energy -233895.884504 kJ/mol
# GULP energy per Si atom -5568.949631 kJ/mol
# Density = 2.225214 g / cm^3
# Si number density = 22.302898 Si / 1000 Ang^3
#
#
#
# Elastic Constant Matrix: (Units=GPa)
#
#
# Indices 1 2 3 4 5 6 
#
# 1 37.5359 7.0608 4.6141 4.5954 -14.0081 0.0000
# 2 7.0608 37.5359 4.6141 -4.5954 14.0081 0.0000
# 3 4.6141 4.6141 92.7501 0.0000 0.0000 0.0000
# 4 4.5954 -4.5954 0.0000 14.0359 0.0000 14.0081
# 5 -14.0081 14.0081 0.0000 0.0000 14.0359 4.5954
# 6 0.0000 0.0000 0.0000 14.0081 4.5954 15.2376
#
#
#
# Elastic Compliance Matrix: (Units=1/GPa)
#
#
# Indices 1 2 3 4 5 6 
#
# 1 -0.999339 1.021996 -0.001127 0.661795 -2.017334 0.000000
# 2 1.021996 -0.999339 -0.001127 -0.661795 2.017334 0.000000
# 3 -0.001127 -0.001127 0.010894 0.000000 0.000000 0.000000
# 4 0.661795 -0.661795 0.000000 -4.388785 0.000000 4.034668
# 5 -2.017334 2.017334 0.000000 0.000000 -4.388785 1.323589
# 6 0.000000 0.000000 0.000000 4.034668 1.323589 -4.042670
#
#
# Mechanical properties :
#
#
# Convention : Reuss Voigt Hill
#
# Bulk Modulus (GPa) = 19.34302 22.26664 20.80483
# Shear Modulus (GPa) = -0.29708 18.76406 9.23349
#
# Velocity S-wave (km/s) = -0.36537 2.90371 2.03692
# Velocity P-wave (km/s) = 2.91783 4.60950 3.85754
#
# Compressibility (1/GPa) = 0.05169824
#
# Stress axis : x y z
#
# Youngs Moduli (GPa) = -1.00066 -1.00066 91.79535
#
# Poissons Ratio (x) = 1.02267 0.10346
# Poissons Ratio (y) = 1.02267 0.10346
# Poissons Ratio (z) = -0.00113 -0.00113
#
# Static dielectric constant tensor:
#      x y z
#    x 1.916030 0.000000 0.000000 
#    y 0.000000 1.916030 0.000000 
#    z 0.000000 0.000000 1.934300 
# 
# From -- ./inp_files/243.got.cif
#   From: 2010.05.17/outbox.cif.g08.bks.cpg/sg147_cif.got.tgz:243.got - 2010.05.20 13:49:32.
