data_PCOD9574171
_publ_section_title
;
Structure prediction by ZEFSAII (Michael W. Deem and Ramdas Pophale) SiO2 
 PCOD9574171
Probable space group: I 41/A C D
;
_chemical_formula_sum "Si O2"
_cell_formula_units_Z 96
_cell_length_a 16.195121
_cell_length_b 16.195121
_cell_length_c 15.851665
_cell_angle_alpha 90.000000
_cell_angle_beta 90.000000
_cell_angle_gamma 90.000000
_cell_volume 4157.605515
_symmetry_space_group_name_H-M "I 41/A C D"
_symmetry_group_IT_number 142
_space_group.IT_coordinate_system_code '2'
_symmetry_cell_setting 'tetragonal'
loop_
_space_group_symop_operation_xyz
x,y,z
1/4-y,3/4+x,1/4+z
-x,1/2-y,z
1/4+y,1/4-x,3/4+z
x,-y,1/2-z
1/2-x,y,-z
3/4+y,1/4+x,1/4-z
1/4-y,1/4-x,1/4-z
-x,-y,-z
3/4+y,1/4-x,3/4-z
x,1/2+y,-z
3/4-y,3/4+x,1/4-z
-x,y,1/2+z
1/2+x,-y,z
1/4-y,3/4-x,3/4+z
3/4+y,3/4+x,3/4+z
1/2+x,1/2+y,1/2+z
3/4-y,1/4+x,3/4+z
1/2-x,-y,1/2+z
3/4+y,3/4-x,1/4+z
1/2+x,1/2-y,-z
-x,1/2+y,1/2-z
1/4+y,3/4+x,3/4-z
3/4-y,3/4-x,3/4-z
1/2-x,1/2-y,1/2-z
1/4+y,3/4-x,1/4-z
1/2+x,y,1/2-z
1/4-y,1/4+x,3/4-z
1/2-x,1/2+y,z
x,1/2-y,1/2+z
3/4-y,1/4-x,1/4+z
1/4+y,1/4+x,1/4+z
loop_
_atom_site_type_symbol
_atom_site_label
_atom_site_fract_x
_atom_site_fract_y
_atom_site_fract_z
Si Si1 0.842280 0.090794 0.750183
Si Si2 0.672504 0.908586 0.445678
Si Si3 0.414678 0.733480 0.714348
O O1 0.824789 0.113847 0.847801
O O2 0.756802 0.073046 0.703793
O O3 0.876354 0.175282 0.709710
O O4 0.887821 0.000000 0.750000
O O5 0.750000 0.874418 0.500000
O O6 0.585249 0.885366 0.486322
O O7 0.500000 0.750000 0.762462
O O8 0.441338 0.691338 0.625000
#
# Coordination Sequence:
#
# PCOD9574171 Si02
#       3
#    32  32  32
#     4  11  25  45  75 104 147 196 246 305 375 442
#     4  11  24  45  76 107 146 189 249 304 376 444
#     4  11  27  45  70 102 148 188 246 299 375 440
#
# _framework density 23.090212999999999
#
# number of rings (size 3 to 8) (size 9 to 14) (size 15 to 20)
#    0.000    1.000    0.000    7.000   14.000    1.333 
#    0.000    0.000    0.000    0.000    0.000    0.000 
#    0.000    0.000    0.000    0.000    0.000    0.000 
#
# Total GULP energy -267918.497998 kJ/mol
# GULP energy per Si atom -5581.635375 kJ/mol
# Density = 2.303766 g / cm^3
# Si number density = 23.090213 Si / 1000 Ang^3
#
#
#
# Elastic Constant Matrix: (Units=GPa)
#
#
# Indices 1 2 3 4 5 6 
#
# 1 122.7085 53.4404 41.4742 0.0000 0.0000 0.0000
# 2 53.4404 122.7085 41.4742 0.0000 0.0000 0.0000
# 3 41.4742 41.4742 189.0961 0.0000 0.0000 0.0000
# 4 0.0000 0.0000 0.0000 15.9545 0.0000 0.0000
# 5 0.0000 0.0000 0.0000 0.0000 15.9545 0.0000
# 6 0.0000 0.0000 0.0000 0.0000 0.0000 41.5421
#
#
#
# Elastic Compliance Matrix: (Units=1/GPa)
#
#
# Indices 1 2 3 4 5 6 
#
# 1 0.010384 -0.004053 -0.001389 0.000000 0.000000 0.000000
# 2 -0.004053 0.010384 -0.001389 0.000000 0.000000 0.000000
# 3 -0.001389 -0.001389 0.005897 0.000000 0.000000 0.000000
# 4 0.000000 0.000000 0.000000 0.062678 0.000000 0.000000
# 5 0.000000 0.000000 0.000000 0.000000 0.062678 0.000000
# 6 0.000000 0.000000 0.000000 0.000000 0.000000 0.024072
#
#
# Mechanical properties :
#
#
# Convention : Reuss Voigt Hill
#
# Bulk Modulus (GPa) = 76.89352 78.58784 77.74068
# Shear Modulus (GPa) = 25.76145 34.56517 30.16331
#
# Velocity S-wave (km/s) = 3.34381 3.87326 3.61823
# Velocity P-wave (km/s) = 6.94851 7.35608 7.15519
#
# Compressibility (1/GPa) = 0.01300500
#
# Stress axis : x y z
#
# Youngs Moduli (GPa) = 96.30412 96.30412 169.56593
#
# Poissons Ratio (x) = 0.39031 0.23545
# Poissons Ratio (y) = 0.39031 0.23545
# Poissons Ratio (z) = 0.13372 0.13372
#
# Static dielectric constant tensor:
#      x y z
#    x 2.043660 0.000000 0.000000 
#    y 0.000000 2.043660 0.000000 
#    z 0.000000 0.000000 1.932320 
# 
# From -- ./inp_files/6577.got.cif
#   From: 2010.05.17/outbox.cif.g08.bks.cpg/sg142_4_cif.got.tgz:6577.got - 2010.05.20 13:39:18.
