data_PCOD9574984
_publ_section_title
;
Structure prediction by ZEFSAII (Michael W. Deem and Ramdas Pophale) SiO2 
 PCOD9574984
Probable space group: P -3
;
_chemical_formula_sum "Si O2"
_cell_formula_units_Z 28
_cell_length_a 13.402529
_cell_length_b 13.402529
_cell_length_c 7.154635
_cell_angle_alpha 90.000000
_cell_angle_beta 90.000000
_cell_angle_gamma 120.000000
_cell_volume 1112.990931
_symmetry_space_group_name_H-M "P -3"
_symmetry_group_IT_number 147
_symmetry_cell_setting 'hexagonal'
loop_
_space_group_symop_operation_xyz
x,y,z
-y,x-y,z
-x+y,-x,z
-x,-y,-z
y,-x+y,-z
x-y,x,-z
loop_
_atom_site_type_symbol
_atom_site_label
_atom_site_fract_x
_atom_site_fract_y
_atom_site_fract_z
Si Si1 0.333334 0.666668 0.409574
Si Si2 0.785175 0.748205 0.968110
Si Si3 0.666667 0.333333 0.118933
Si Si4 0.334889 0.463360 0.775328
Si Si5 0.777027 0.772872 0.546275
Si Si6 0.132276 0.471159 0.535332
O O1 0.211650 0.556568 0.372294
O O2 0.333334 0.666667 0.645690
O O3 0.696403 0.647567 0.101941
O O4 0.766760 0.720014 0.749722
O O5 0.775039 0.861314 0.992596
O O6 0.660750 0.444667 0.070178
O O7 0.545650 0.453512 0.338376
O O8 0.221170 0.441933 0.651947
O O9 0.891022 0.789470 0.449044
O O10 0.651621 0.685077 0.462917
#
# Coordination Sequence:
#
# PCOD9574984 Si02
#       6
#     2   6   2   6   6   6
#     4   6  12  30  66  91 122 151 201 268 338 376
#     4  12  24  41  67  96 129 173 241 282 319 382
#     4   6  12  30  60  97 131 145 183 283 362 367
#     4   8  16  36  68 101 123 157 216 290 332 374
#     4  12  26  43  61  90 142 188 219 264 337 404
#     4   8  16  38  67  96 128 161 214 275 341 390
#
# _framework density 25.157439
#
# number of rings (size 3 to 8) (size 9 to 14) (size 15 to 20)
#    0.000    3.429    2.143    2.143    0.000    0.857 
#    0.000    4.286    0.000    0.000    0.000    0.000 
#    0.000    0.000    0.000    0.000    0.000    0.000 
#
# Total GULP energy -156188.434203 kJ/mol
# GULP energy per Si atom -5578.158364 kJ/mol
# Density = 2.510018 g / cm^3
# Si number density = 25.157439 Si / 1000 Ang^3
#
#
#
# Elastic Constant Matrix: (Units=GPa)
#
#
# Indices 1 2 3 4 5 6 
#
# 1 -99.4553 253.0562 19.1983 75.0334 85.4861 -0.0043
# 2 253.0562 -99.4539 19.2006 -75.0319 -85.4862 0.0059
# 3 19.1983 19.2006 96.1919 0.0007 0.0005 0.0003
# 4 75.0334 -75.0319 0.0007 -51.9429 -0.0008 -85.4776
# 5 85.4861 -85.4862 0.0005 -0.0008 -51.9465 75.0332
# 6 -0.0043 0.0059 0.0003 -85.4776 75.0332 -176.2413
#
#
#
# Elastic Compliance Matrix: (Units=1/GPa)
#
#
# Indices 1 2 3 4 5 6 
#
# 1 0.006860 -0.000008 -0.001368 0.009920 0.011301 0.000000
# 2 -0.000008 0.006860 -0.001368 -0.009920 -0.011301 0.000000
# 3 -0.001368 -0.001368 0.010942 0.000000 0.000000 0.000000
# 4 0.009920 -0.009920 0.000000 0.046603 0.000000 -0.022603
# 5 0.011301 -0.011301 0.000000 0.000000 0.046603 0.019840
# 6 0.000000 0.000000 0.000000 -0.022603 0.019840 0.013735
#
#
# Mechanical properties :
#
#
# Convention : Reuss Voigt Hill
#
# Bulk Modulus (GPa) = 52.14949 53.35478 52.75214
# Shear Modulus (GPa) = 34.84806 -82.30430 -23.72812
#
# Velocity S-wave (km/s) = 3.72586 -5.72597 -3.07446
# Velocity P-wave (km/s) = 6.26767 4.73933 2.90021
#
# Compressibility (1/GPa) = 0.01917564
#
# Stress axis : x y z
#
# Youngs Moduli (GPa) = 145.77724 145.77535 91.39223
#
# Poissons Ratio (x) = 0.00110 0.12500
# Poissons Ratio (y) = 0.00110 0.12499
# Poissons Ratio (z) = 0.19938 0.19937
#
# Static dielectric constant tensor:
#      x y z
#    x 2.129750 0.000000 0.000000 
#    y 0.000000 2.129750 0.000000 
#    z 0.000000 0.000000 2.077860 
# 
# From -- ./inp_files/535.got.cif
#   From: 2010.05.17/outbox.cif.g08.bks.cpg/sg147_cif.got.tgz:535.got - 2010.05.20 13:49:32.
