data_PCOD9574411
_publ_section_title
;
Structure prediction by ZEFSAII (Michael W. Deem and Ramdas Pophale) SiO2 
 PCOD9574411
Probable space group: P 31
;
_chemical_formula_sum "Si O2"
_cell_formula_units_Z 15
_cell_length_a 7.135298
_cell_length_b 7.135298
_cell_length_c 13.953252
_cell_angle_alpha 90.000000
_cell_angle_beta 90.000000
_cell_angle_gamma 120.000000
_cell_volume 615.219796
_symmetry_space_group_name_H-M "P 31"
_symmetry_group_IT_number 144
_symmetry_cell_setting 'hexagonal'
loop_
_space_group_symop_operation_xyz
x,y,z
-y,x-y,1/3+z
-x+y,-x,2/3+z
loop_
_atom_site_type_symbol
_atom_site_label
_atom_site_fract_x
_atom_site_fract_y
_atom_site_fract_z
Si Si1 0.747081 0.030301 0.117690
Si Si2 0.792824 0.248932 0.490371
Si Si3 0.128644 0.622076 0.960078
Si Si4 0.257354 0.526718 0.490288
Si Si5 0.047376 0.855647 0.658007
O O1 0.677028 0.214641 0.124004
O O2 0.864859 0.039408 0.217276
O O3 0.292265 0.413455 0.398459
O O4 0.510884 0.813924 0.114525
O O5 0.031963 0.354579 0.538092
O O6 0.796319 0.120147 0.396862
O O7 0.619404 0.086312 0.564571
O O8 0.147102 0.094102 0.700718
O O9 0.176648 0.430521 0.983491
O O10 0.453403 0.666043 0.561418
#
# Coordination Sequence:
#
# PCOD9574411 Si02
#       5
#     3   3   3   3   3
#     4   9  25  44  69 106 146 187 251 296 366 444
#     4  10  24  42  67 104 147 182 250 304 356 438
#     4  11  21  45  70  99 142 192 238 305 366 437
#     4   9  23  43  69 100 143 187 243 297 369 433
#     4  11  23  44  73 105 144 198 244 300 383 434
#
# _framework density 24.381533000000001
#
# number of rings (size 3 to 8) (size 9 to 14) (size 15 to 20)
#    1.200    0.800    2.000    0.000    5.600    1.600 
#    0.000    2.000    0.000    0.000    0.000    0.000 
#    0.000    0.000    0.000    0.000    0.000    0.000 
#
# Total GULP energy -83774.555823 kJ/mol
# GULP energy per Si atom -5584.970388 kJ/mol
# Density = 2.432604 g / cm^3
# Si number density = 24.381533 Si / 1000 Ang^3
#
#
#
# Elastic Constant Matrix: (Units=GPa)
#
#
# Indices 1 2 3 4 5 6 
#
# 1 82.7618 22.9750 21.4620 -9.6673 7.1905 0.0000
# 2 22.9750 82.7618 21.4620 9.6673 -7.1905 0.0000
# 3 21.4620 21.4620 46.3914 0.0000 0.0000 0.0000
# 4 -9.6673 9.6673 0.0000 31.0647 0.0000 -7.1905
# 5 7.1905 -7.1905 0.0000 0.0000 31.0647 -9.6673
# 6 0.0000 0.0000 0.0000 -7.1905 -9.6673 29.8934
#
#
#
# Elastic Compliance Matrix: (Units=1/GPa)
#
#
# Indices 1 2 3 4 5 6 
#
# 1 0.015735 -0.004090 -0.005387 0.006170 -0.004589 0.000000
# 2 -0.004090 0.015735 -0.005387 -0.006170 0.004589 0.000000
# 3 -0.005387 -0.005387 0.026540 0.000000 0.000000 0.000000
# 4 0.006170 -0.006170 0.000000 0.038155 0.000000 0.009178
# 5 -0.004589 0.004589 0.000000 0.000000 0.038155 0.012339
# 6 0.000000 0.000000 0.000000 0.009178 0.012339 0.039650
#
#
# Mechanical properties :
#
#
# Convention : Reuss Voigt Hill
#
# Bulk Modulus (GPa) = 35.35977 38.19033 36.77505
# Shear Modulus (GPa) = 23.46034 28.13896 25.79965
#
# Velocity S-wave (km/s) = 3.10533 3.40090 3.25647
# Velocity P-wave (km/s) = 5.23370 5.57846 5.40882
#
# Compressibility (1/GPa) = 0.02828072
#
# Stress axis : x y z
#
# Youngs Moduli (GPa) = 63.55378 63.55378 37.67880
#
# Poissons Ratio (x) = 0.25996 0.20298
# Poissons Ratio (y) = 0.25996 0.20298
# Poissons Ratio (z) = 0.34236 0.34236
#
# Static dielectric constant tensor:
#      x y z
#    x 1.970230 0.000000 0.000000 
#    y 0.000000 1.970230 0.000000 
#    z 0.000000 0.000000 1.972590 
# 
# From -- ./inp_files/552.got.cif
#   From: 2010.05.17/outbox.cif.g08.bks.cpg/sg144_cif.got.tgz:552.got - 2010.05.20 13:46:34.
