data_PCOD9574065
_publ_section_title
;
Structure prediction by ZEFSAII (Michael W. Deem and Ramdas Pophale) SiO2 
 PCOD9574065
Probable space group: I 41/A C D
;
_chemical_formula_sum "Si O2"
_cell_formula_units_Z 112
_cell_length_a 15.925711
_cell_length_b 15.925711
_cell_length_c 19.123478
_cell_angle_alpha 90.000000
_cell_angle_beta 90.000000
_cell_angle_gamma 90.000000
_cell_volume 4850.254658
_symmetry_space_group_name_H-M "I 41/A C D"
_symmetry_group_IT_number 142
_space_group.IT_coordinate_system_code '2'
_symmetry_cell_setting 'tetragonal'
loop_
_space_group_symop_operation_xyz
x,y,z
1/4-y,3/4+x,1/4+z
-x,1/2-y,z
1/4+y,1/4-x,3/4+z
x,-y,1/2-z
1/2-x,y,-z
3/4+y,1/4+x,1/4-z
1/4-y,1/4-x,1/4-z
-x,-y,-z
3/4+y,1/4-x,3/4-z
x,1/2+y,-z
3/4-y,3/4+x,1/4-z
-x,y,1/2+z
1/2+x,-y,z
1/4-y,3/4-x,3/4+z
3/4+y,3/4+x,3/4+z
1/2+x,1/2+y,1/2+z
3/4-y,1/4+x,3/4+z
1/2-x,-y,1/2+z
3/4+y,3/4-x,1/4+z
1/2+x,1/2-y,-z
-x,1/2+y,1/2-z
1/4+y,3/4+x,3/4-z
3/4-y,3/4-x,3/4-z
1/2-x,1/2-y,1/2-z
1/4+y,3/4-x,1/4-z
1/2+x,y,1/2-z
1/4-y,1/4+x,3/4-z
1/2-x,1/2+y,z
x,1/2-y,1/2+z
3/4-y,1/4-x,1/4+z
1/4+y,1/4+x,1/4+z
loop_
_atom_site_type_symbol
_atom_site_label
_atom_site_fract_x
_atom_site_fract_y
_atom_site_fract_z
Si Si1 0.328445 0.688250 0.169957
Si Si2 0.234787 0.984787 0.375000
Si Si3 0.974778 0.958131 0.182428
Si Si4 0.646766 0.132543 0.185826
O O1 0.410092 0.660092 0.125000
O O2 0.272567 0.602422 0.167963
O O3 0.279139 0.757031 0.126094
O O4 0.343558 0.699357 0.251765
O O5 0.316140 0.972466 0.422505
O O6 0.925108 0.888128 0.139839
O O7 0.064587 0.921130 0.205232
O O8 0.933395 0.000000 0.250000
#
# Coordination Sequence:
#
# PCOD9574065 Si02
#       4
#    32  16  32  32
#     4   9  17  35  61  76 109 149 194 236 293 342
#     4   8  18  32  60  82 109 137 192 256 286 336
#     4  11  22  36  56  90 116 154 197 249 296 367
#     4  11  20  36  58  84 117 153 196 241 305 355
#
# _framework density 23.091570999999998
#
# number of rings (size 3 to 8) (size 9 to 14) (size 15 to 20)
#    0.857    1.143    2.857    1.714    0.000    5.143 
#    0.000    0.000    0.000    0.000    0.000    0.000 
#    0.000    0.000    0.000    0.000    0.000    0.000 
#
# Total GULP energy -311966.526509 kJ/mol
# GULP energy per Si atom -5570.830831 kJ/mol
# Density = 2.303901 g / cm^3
# Si number density = 23.091571 Si / 1000 Ang^3
#
#
#
# Elastic Constant Matrix: (Units=GPa)
#
#
# Indices 1 2 3 4 5 6 
#
# 1 28.2016 -1.0094 2.6917 0.0000 0.0000 0.0000
# 2 -1.0094 28.2016 2.6917 0.0000 0.0000 0.0000
# 3 2.6917 2.6917 148.8180 0.0000 0.0000 0.0000
# 4 0.0000 0.0000 0.0000 21.5289 0.0000 0.0000
# 5 0.0000 0.0000 0.0000 0.0000 21.5289 0.0000
# 6 0.0000 0.0000 0.0000 0.0000 0.0000 4.3717
#
#
#
# Elastic Compliance Matrix: (Units=1/GPa)
#
#
# Indices 1 2 3 4 5 6 
#
# 1 0.035571 0.001337 -0.000668 0.000000 0.000000 0.000000
# 2 0.001337 0.035571 -0.000668 0.000000 0.000000 0.000000
# 3 -0.000668 -0.000668 0.006744 0.000000 0.000000 0.000000
# 4 0.000000 0.000000 0.000000 0.046449 0.000000 0.000000
# 5 0.000000 0.000000 0.000000 0.000000 0.046449 0.000000
# 6 0.000000 0.000000 0.000000 0.000000 0.000000 0.228745
#
#
# Mechanical properties :
#
#
# Convention : Reuss Voigt Hill
#
# Bulk Modulus (GPa) = 12.83889 23.77435 18.30662
# Shear Modulus (GPa) = 11.75123 22.87573 17.31348
#
# Velocity S-wave (km/s) = 2.25832 3.15088 2.74117
# Velocity P-wave (km/s) = 3.51740 4.85339 4.23837
#
# Compressibility (1/GPa) = 0.07788833
#
# Stress axis : x y z
#
# Youngs Moduli (GPa) = 28.11317 28.11317 148.28513
#
# Poissons Ratio (x) = -0.03758 0.09899
# Poissons Ratio (y) = -0.03758 0.09899
# Poissons Ratio (z) = 0.01877 0.01877
#
# Static dielectric constant tensor:
#      x y z
#    x 1.906560 0.000000 0.000000 
#    y 0.000000 1.906560 0.000000 
#    z 0.000000 0.000000 1.930010 
# 
# From -- ./inp_files/6853.got.cif
#   From: 2010.05.17/outbox.cif.g08.bks.cpg/sg142_4_cif.got.tgz:6853.got - 2010.05.20 13:39:18.
