data_PCOD9574291
_publ_section_title
;
Structure prediction by ZEFSAII (Michael W. Deem and Ramdas Pophale) SiO2 
 PCOD9574291
Probable space group: P 31
;
_chemical_formula_sum "Si O2"
_cell_formula_units_Z 24
_cell_length_a 8.292871
_cell_length_b 8.292871
_cell_length_c 20.410826
_cell_angle_alpha 90.000000
_cell_angle_beta 90.000000
_cell_angle_gamma 120.000000
_cell_volume 1215.628943
_symmetry_space_group_name_H-M "P 31"
_symmetry_group_IT_number 144
_symmetry_cell_setting 'hexagonal'
loop_
_space_group_symop_operation_xyz
x,y,z
-y,x-y,1/3+z
-x+y,-x,2/3+z
loop_
_atom_site_type_symbol
_atom_site_label
_atom_site_fract_x
_atom_site_fract_y
_atom_site_fract_z
Si Si1 0.058938 0.846355 0.162000
Si Si2 0.203953 0.491509 0.378402
Si Si3 0.203961 0.712446 0.900435
Si Si4 0.371116 0.011001 0.493562
Si Si5 0.530868 0.919224 0.375463
Si Si6 0.639885 0.011009 0.118610
Si Si7 0.530878 0.611650 0.903375
Si Si8 0.153652 0.941061 0.783502
O O1 0.849653 0.680804 0.173694
O O2 0.158306 0.796210 0.103538
O O3 0.197295 0.917351 0.224111
O O4 0.044399 0.022202 0.139416
O O5 0.209612 0.419227 0.306085
O O6 0.381506 0.698877 0.383664
O O7 0.035644 0.532406 0.392214
O O8 0.035657 0.503237 0.886625
O O9 0.381518 0.682639 0.895175
O O10 0.203790 0.841691 0.841965
O O11 0.501429 0.038214 0.431354
O O12 0.177827 0.822166 0.472752
O O13 0.487957 0.975929 0.306087
O O14 0.720044 0.917339 0.388057
O O15 0.536786 0.038217 0.180820
O O16 0.849653 0.168858 0.105144
#
# Coordination Sequence:
#
# PCOD9574291 Si02
#       8
#     3   3   3   3   3   3   3   3
#     4  10  19  32  54  81 108 137 175 232 284 326
#     4   9  18  35  55  74 103 146 185 220 272 337
#     4   9  18  35  55  74 103 146 185 220 272 337
#     4   8  16  32  52  75 103 136 179 223 268 328
#     4   9  18  35  56  74 102 147 186 219 270 339
#     4   8  16  32  52  75 103 136 179 223 268 328
#     4   9  18  35  56  74 102 147 186 219 270 339
#     4  10  19  32  54  81 108 137 175 232 284 326
#
# _framework density 19.742864000000001
#
# number of rings (size 3 to 8) (size 9 to 14) (size 15 to 20)
#    0.000    3.000    0.000    2.250    0.000    2.000 
#    0.000   28.750    0.000    0.000    0.000    0.000 
#    0.000    0.000    0.000    0.000    0.000    0.000 
#
# Total GULP energy -133646.126724 kJ/mol
# GULP energy per Si atom -5568.588614 kJ/mol
# Density = 1.969793 g / cm^3
# Si number density = 19.742864 Si / 1000 Ang^3
#
#
#
# Elastic Constant Matrix: (Units=GPa)
#
#
# Indices 1 2 3 4 5 6 
#
# 1 75.0243 15.6774 31.4027 0.0000 5.0485 0.0000
# 2 15.6774 75.0243 31.4027 0.0000 -5.0485 0.0000
# 3 31.4027 31.4027 112.2814 0.0000 0.0000 0.0000
# 4 0.0000 0.0000 0.0000 17.7724 0.0000 -5.0485
# 5 5.0485 -5.0485 0.0000 0.0000 17.7724 0.0000
# 6 0.0000 0.0000 0.0000 -5.0485 0.0000 29.6735
#
#
#
# Elastic Compliance Matrix: (Units=1/GPa)
#
#
# Indices 1 2 3 4 5 6 
#
# 1 0.015689 -0.002016 -0.003824 0.000000 -0.005030 0.000000
# 2 -0.002016 0.015689 -0.003824 0.000000 0.005030 0.000000
# 3 -0.003824 -0.003824 0.011045 0.000000 0.000000 0.000000
# 4 0.000000 0.000000 0.000000 0.059125 0.000000 0.010059
# 5 -0.005030 0.005030 0.000000 0.000000 0.059125 0.000000
# 6 0.000000 0.000000 0.000000 0.010059 0.000000 0.035412
#
#
# Mechanical properties :
#
#
# Convention : Reuss Voigt Hill
#
# Bulk Modulus (GPa) = 43.29922 46.58841 44.94381
# Shear Modulus (GPa) = 22.41027 25.30012 23.85519
#
# Velocity S-wave (km/s) = 3.37279 3.58366 3.47982
# Velocity P-wave (km/s) = 6.09482 6.38532 6.24176
#
# Compressibility (1/GPa) = 0.02309511
#
# Stress axis : x y z
#
# Youngs Moduli (GPa) = 63.73720 63.73720 90.53692
#
# Poissons Ratio (x) = 0.12852 0.34622
# Poissons Ratio (y) = 0.12852 0.34622
# Poissons Ratio (z) = 0.24374 0.24374
#
# Static dielectric constant tensor:
#      x y z
#    x 1.731240 0.000000 0.000000 
#    y 0.000000 1.731240 0.000000 
#    z 0.000000 0.000000 1.723100 
# 
# From -- ./inp_files/966.got.cif
#   From: 2010.05.17/outbox.cif.g08.bks.cpg/sg144_cif.got.tgz:966.got - 2010.05.20 13:46:34.
