data_PCOD9574183
_publ_section_title
;
Structure prediction by ZEFSAII (Michael W. Deem and Ramdas Pophale) SiO2 
 PCOD9574183
Probable space group: I 41/A C D
;
_chemical_formula_sum "Si O2"
_cell_formula_units_Z 160
_cell_length_a 17.698144
_cell_length_b 17.698144
_cell_length_c 25.110281
_cell_angle_alpha 90.000000
_cell_angle_beta 90.000000
_cell_angle_gamma 90.000000
_cell_volume 7865.150215
_symmetry_space_group_name_H-M "I 41/A C D"
_symmetry_group_IT_number 142
_space_group.IT_coordinate_system_code '2'
_symmetry_cell_setting 'tetragonal'
loop_
_space_group_symop_operation_xyz
x,y,z
1/4-y,3/4+x,1/4+z
-x,1/2-y,z
1/4+y,1/4-x,3/4+z
x,-y,1/2-z
1/2-x,y,-z
3/4+y,1/4+x,1/4-z
1/4-y,1/4-x,1/4-z
-x,-y,-z
3/4+y,1/4-x,3/4-z
x,1/2+y,-z
3/4-y,3/4+x,1/4-z
-x,y,1/2+z
1/2+x,-y,z
1/4-y,3/4-x,3/4+z
3/4+y,3/4+x,3/4+z
1/2+x,1/2+y,1/2+z
3/4-y,1/4+x,3/4+z
1/2-x,-y,1/2+z
3/4+y,3/4-x,1/4+z
1/2+x,1/2-y,-z
-x,1/2+y,1/2-z
1/4+y,3/4+x,3/4-z
3/4-y,3/4-x,3/4-z
1/2-x,1/2-y,1/2-z
1/4+y,3/4-x,1/4-z
1/2+x,y,1/2-z
1/4-y,1/4+x,3/4-z
1/2-x,1/2+y,z
x,1/2-y,1/2+z
3/4-y,1/4-x,1/4+z
1/4+y,1/4+x,1/4+z
loop_
_atom_site_type_symbol
_atom_site_label
_atom_site_fract_x
_atom_site_fract_y
_atom_site_fract_z
Si Si1 0.066975 0.052206 0.523214
Si Si2 0.957781 0.329843 0.065928
Si Si3 0.821292 0.845913 0.539939
Si Si4 0.833256 0.325866 0.975236
Si Si5 0.327817 0.462272 0.602280
O O1 0.111017 0.099187 0.478037
O O2 0.023602 0.108816 0.562426
O O3 0.132696 0.011053 0.556097
O O4 0.000000 0.000000 0.500000
O O5 0.922689 0.327312 0.125000
O O6 0.000000 0.250000 0.056441
O O7 0.895715 0.346711 0.020110
O O8 0.750000 0.852522 0.500000
O O9 0.849747 0.760345 0.539591
O O10 0.791444 0.867801 0.597411
O O11 0.826333 0.380023 0.924402
O O12 0.750000 0.328423 0.000000
O O13 0.251093 0.501093 0.625000
#
# Coordination Sequence:
#
# PCOD9574183 Si02
#       5
#    32  32  32  32  32
#     4  12  26  46  74 106 142 191 242 302 373 435
#     4  11  25  44  73 104 144 189 244 302 359 448
#     4  11  26  48  71 100 146 186 240 300 364 444
#     4  11  27  47  68 104 141 190 237 297 363 434
#     4  12  28  45  73 104 144 190 240 299 372 436
#
# _framework density 20.342904000000001
#
# number of rings (size 3 to 8) (size 9 to 14) (size 15 to 20)
#    0.000    0.600    6.000    0.000   14.000    0.800 
#    0.000    0.000    0.000    0.000    0.000    0.000 
#    0.000    0.000    0.000    0.000    0.000    0.000 
#
# Total GULP energy -446928.775099 kJ/mol
# GULP energy per Si atom -5586.609689 kJ/mol
# Density = 2.029660 g / cm^3
# Si number density = 20.342904 Si / 1000 Ang^3
#
#
#
# Elastic Constant Matrix: (Units=GPa)
#
#
# Indices 1 2 3 4 5 6 
#
# 1 77.7428 30.5407 16.7281 0.0000 0.0000 0.0000
# 2 30.5407 77.7424 16.7280 0.0000 0.0000 0.0000
# 3 16.7281 16.7280 80.2106 0.0000 0.0000 0.0000
# 4 0.0000 0.0000 0.0000 51.5251 0.0000 0.0000
# 5 0.0000 0.0000 0.0000 0.0000 51.5223 0.0000
# 6 0.0000 0.0000 0.0000 0.0000 0.0000 34.6511
#
#
#
# Elastic Compliance Matrix: (Units=1/GPa)
#
#
# Indices 1 2 3 4 5 6 
#
# 1 0.015528 -0.005657 -0.002059 0.000000 0.000000 0.000000
# 2 -0.005657 0.015528 -0.002059 0.000000 0.000000 0.000000
# 3 -0.002059 -0.002059 0.013326 0.000000 0.000000 0.000000
# 4 0.000000 0.000000 0.000000 0.019408 0.000000 0.000000
# 5 0.000000 0.000000 0.000000 0.000000 0.019409 0.000000
# 6 0.000000 0.000000 0.000000 0.000000 0.000000 0.028859
#
#
# Mechanical properties :
#
#
# Convention : Reuss Voigt Hill
#
# Bulk Modulus (GPa) = 40.26819 40.40992 40.33906
# Shear Modulus (GPa) = 35.74352 38.98631 37.36492
#
# Velocity S-wave (km/s) = 4.19627 4.38249 4.29039
# Velocity P-wave (km/s) = 6.58148 6.74654 6.66452
#
# Compressibility (1/GPa) = 0.02483350
#
# Stress axis : x y z
#
# Youngs Moduli (GPa) = 64.39863 64.39830 75.04219
#
# Poissons Ratio (x) = 0.36432 0.15448
# Poissons Ratio (y) = 0.36432 0.15448
# Poissons Ratio (z) = 0.13257 0.13257
#
# Static dielectric constant tensor:
#      x y z
#    x 1.766120 0.000000 0.000000 
#    y 0.000000 1.766130 0.000000 
#    z 0.000000 0.000000 1.702930 
# 
# From -- ./inp_files/11298.got.cif
#   From: 2010.05.17/outbox.cif.g08.bks.cpg/sg142_6_cif.got.tgz:11298.got - 2010.05.20 13:39:18.
