data_PCOD9574634
_publ_section_title
;
Structure prediction by ZEFSAII (Michael W. Deem and Ramdas Pophale) SiO2 
 PCOD9574634
Probable space group: P 32
;
_chemical_formula_sum "Si O2"
_cell_formula_units_Z 18
_cell_length_a 12.249527
_cell_length_b 12.249527
_cell_length_c 6.013840
_cell_angle_alpha 90.000000
_cell_angle_beta 90.000000
_cell_angle_gamma 120.000000
_cell_volume 781.485887
_symmetry_space_group_name_H-M "P 32"
_symmetry_group_IT_number 145
_symmetry_cell_setting 'hexagonal'
loop_
_space_group_symop_operation_xyz
x,y,z
-y,x-y,2/3+z
-x+y,-x,1/3+z
loop_
_atom_site_type_symbol
_atom_site_label
_atom_site_fract_x
_atom_site_fract_y
_atom_site_fract_z
Si Si1 0.266144 0.436664 0.738280
Si Si2 0.063413 0.208938 0.505839
Si Si3 0.363101 0.031590 0.481176
Si Si4 0.429901 0.908609 0.106921
Si Si5 0.458580 0.428050 0.039806
Si Si6 0.241033 0.155872 0.178418
O O1 0.154990 0.294598 0.704645
O O2 0.218723 0.533951 0.682448
O O3 0.355432 0.453208 0.532240
O O4 0.358513 0.468791 0.946951
O O5 0.139581 0.169917 0.333249
O O6 0.024975 0.295283 0.357753
O O7 0.939666 0.107781 0.640061
O O8 0.511656 0.092653 0.545871
O O9 0.311458 0.107653 0.344719
O O10 0.354566 0.927311 0.308634
O O11 0.495418 0.018018 0.930022
O O12 0.360490 0.281930 0.076853
#
# Coordination Sequence:
#
# PCOD9574634 Si02
#       6
#     3   3   3   3   3   3
#     4  11  24  40  69 106 141 186 245 316 380 470
#     4  12  27  49  74 115 157 208 267 327 408 485
#     4  11  25  47  78 102 153 200 261 325 390 486
#     4  11  23  41  71 104 142 188 243 309 384 455
#     4  11  25  47  73 104 153 199 258 324 394 472
#     4  12  28  48  79 111 160 211 262 339 406 486
#
# _framework density 23.033042999999999
#
# number of rings (size 3 to 8) (size 9 to 14) (size 15 to 20)
#    0.000    0.667    5.000    1.000    4.667    1.333 
#    0.000    0.000   18.333    0.000    0.000    0.000 
#    0.000    0.000    0.000    0.000    0.000    0.000 
#
# Total GULP energy -100224.854235 kJ/mol
# GULP energy per Si atom -5568.047457 kJ/mol
# Density = 2.298062 g / cm^3
# Si number density = 23.033043 Si / 1000 Ang^3
#
#
#
# Elastic Constant Matrix: (Units=GPa)
#
#
# Indices 1 2 3 4 5 6 
#
# 1 112.8041 44.3751 32.9414 -3.0265 3.5452 0.0000
# 2 44.3751 112.8041 32.9414 3.0265 -3.5452 0.0000
# 3 32.9414 32.9414 71.1367 0.0000 0.0000 0.0000
# 4 -3.0265 3.0265 0.0000 41.9606 0.0000 -3.5452
# 5 3.5452 -3.5452 0.0000 0.0000 41.9606 -3.0265
# 6 0.0000 0.0000 0.0000 -3.5452 -3.0265 34.2145
#
#
#
# Elastic Compliance Matrix: (Units=1/GPa)
#
#
# Indices 1 2 3 4 5 6 
#
# 1 0.011366 -0.003472 -0.003656 0.001070 -0.001254 0.000000
# 2 -0.003472 0.011366 -0.003656 -0.001070 0.001254 0.000000
# 3 -0.003656 -0.003656 0.017443 0.000000 0.000000 0.000000
# 4 0.001070 -0.001070 0.000000 0.024198 0.000000 0.002507
# 5 -0.001254 0.001254 0.000000 0.000000 0.024198 0.002141
# 6 0.000000 0.000000 0.000000 0.002507 0.002141 0.029677
#
#
# Mechanical properties :
#
#
# Convention : Reuss Voigt Hill
#
# Bulk Modulus (GPa) = 53.73668 57.47344 55.60506
# Shear Modulus (GPa) = 34.24227 36.05961 35.15094
#
# Velocity S-wave (km/s) = 3.85990 3.96101 3.91078
# Velocity P-wave (km/s) = 6.57617 6.77689 6.67729
#
# Compressibility (1/GPa) = 0.01860926
#
# Stress axis : x y z
#
# Youngs Moduli (GPa) = 87.97882 87.97882 57.32909
#
# Poissons Ratio (x) = 0.30545 0.20958
# Poissons Ratio (y) = 0.30545 0.20958
# Poissons Ratio (z) = 0.32163 0.32163
#
# Static dielectric constant tensor:
#      x y z
#    x 1.902760 0.000000 0.000000 
#    y 0.000000 1.902760 0.000000 
#    z 0.000000 0.000000 1.958970 
# 
# From -- ./inp_files/131.got.cif
#   From: 2010.05.17/outbox.cif.g08.bks.cpg/sg145_cif.got.tgz:131.got - 2010.05.20 13:47:28.
