data_PCOD9574554
_publ_section_title
;
Structure prediction by ZEFSAII (Michael W. Deem and Ramdas Pophale) SiO2 
 PCOD9574554
Probable space group: P 32
;
_chemical_formula_sum "Si O2"
_cell_formula_units_Z 21
_cell_length_a 10.883123
_cell_length_b 10.883123
_cell_length_c 8.955958
_cell_angle_alpha 90.000000
_cell_angle_beta 90.000000
_cell_angle_gamma 120.000000
_cell_volume 918.649314
_symmetry_space_group_name_H-M "P 32"
_symmetry_group_IT_number 145
_symmetry_cell_setting 'hexagonal'
loop_
_space_group_symop_operation_xyz
x,y,z
-y,x-y,2/3+z
-x+y,-x,1/3+z
loop_
_atom_site_type_symbol
_atom_site_label
_atom_site_fract_x
_atom_site_fract_y
_atom_site_fract_z
Si Si1 0.172766 0.365877 0.075170
Si Si2 0.966082 0.710061 0.186725
Si Si3 0.806324 0.489237 0.747480
Si Si4 0.742464 0.678133 0.966268
Si Si5 0.624549 0.162182 0.749139
Si Si6 0.074238 0.578747 0.939774
Si Si7 0.253496 0.606873 0.457036
O O1 0.338665 0.479517 0.104774
O O2 0.083948 0.301360 0.224062
O O3 0.169999 0.253783 0.958449
O O4 0.114875 0.463941 0.001249
O O5 0.863337 0.578676 0.291927
O O6 0.873470 0.748973 0.079263
O O7 0.043717 0.650224 0.080138
O O8 0.774613 0.600231 0.830495
O O9 0.672365 0.330215 0.742372
O O10 0.855540 0.527680 0.578842
O O11 0.933938 0.493422 0.841586
O O12 0.616094 0.544041 0.052220
O O13 0.196117 0.708875 0.842715
O O14 0.304513 0.625325 0.282159
#
# Coordination Sequence:
#
# PCOD9574554 Si02
#       7
#     3   3   3   3   3   3   3
#     4  11  22  40  68  98 142 187 227 296 357 426
#     4  11  24  42  65 102 144 185 237 294 348 433
#     4  11  22  36  64  98 138 177 233 293 352 421
#     4  11  22  41  66  99 139 187 232 293 360 417
#     4  12  21  37  61 101 138 180 234 295 357 414
#     4  10  21  38  61 100 140 184 227 286 363 431
#     4  10  22  38  59  96 145 184 226 283 353 430
#
# _framework density 22.859649999999998
#
# number of rings (size 3 to 8) (size 9 to 14) (size 15 to 20)
#    0.000    1.143    4.286    4.286    2.000    0.000 
#    0.000    0.000    0.000    0.000   14.857    0.000 
#    0.000    0.000    0.000    0.000    0.000    0.000 
#
# Total GULP energy -117010.972312 kJ/mol
# GULP energy per Si atom -5571.951062 kJ/mol
# Density = 2.280762 g / cm^3
# Si number density = 22.859650 Si / 1000 Ang^3
#
#
#
# Elastic Constant Matrix: (Units=GPa)
#
#
# Indices 1 2 3 4 5 6 
#
# 1 71.9937 28.9744 35.6370 -3.1722 -7.1395 0.0000
# 2 28.9744 71.9937 35.6370 3.1722 7.1395 0.0000
# 3 35.6370 35.6370 146.4272 0.0000 0.0000 0.0000
# 4 -3.1722 3.1722 0.0000 32.0437 0.0000 7.1395
# 5 -7.1395 7.1395 0.0000 0.0000 32.0437 -3.1722
# 6 0.0000 0.0000 0.0000 7.1395 -3.1722 21.5097
#
#
#
# Elastic Compliance Matrix: (Units=1/GPa)
#
#
# Indices 1 2 3 4 5 6 
#
# 1 0.018731 -0.006773 -0.002910 0.002525 0.005682 0.000000
# 2 -0.006773 0.018731 -0.002910 -0.002525 -0.005682 0.000000
# 3 -0.002910 -0.002910 0.008246 0.000000 0.000000 0.000000
# 4 0.002525 -0.002525 0.000000 0.034239 0.000000 -0.011365
# 5 0.005682 -0.005682 0.000000 0.000000 0.034239 0.005050
# 6 0.000000 0.000000 0.000000 -0.011365 0.005050 0.051008
#
#
# Mechanical properties :
#
#
# Convention : Reuss Voigt Hill
#
# Bulk Modulus (GPa) = 48.72950 54.54570 51.63760
# Shear Modulus (GPa) = 25.35211 29.79716 27.57464
#
# Velocity S-wave (km/s) = 3.33383 3.61429 3.47689
# Velocity P-wave (km/s) = 6.01517 6.42887 6.22546
#
# Compressibility (1/GPa) = 0.02052145
#
# Stress axis : x y z
#
# Youngs Moduli (GPa) = 53.38683 53.38683 121.27078
#
# Poissons Ratio (x) = 0.36157 0.35295
# Poissons Ratio (y) = 0.36157 0.35295
# Poissons Ratio (z) = 0.15538 0.15538
#
# Static dielectric constant tensor:
#      x y z
#    x 2.032740 0.000000 0.000000 
#    y 0.000000 2.032740 0.000000 
#    z 0.000000 0.000000 1.860760 
# 
# From -- ./inp_files/380.got.cif
#   From: 2010.05.17/outbox.cif.g08.bks.cpg/sg145_cif.got.tgz:380.got - 2010.05.20 13:47:28.
