data_PCOD9574162
_publ_section_title
;
Structure prediction by ZEFSAII (Michael W. Deem and Ramdas Pophale) SiO2 
 PCOD9574162
Probable space group: I 41/A C D
;
_chemical_formula_sum "Si O2"
_cell_formula_units_Z 176
_cell_length_a 18.331248
_cell_length_b 18.331248
_cell_length_c 25.983619
_cell_angle_alpha 90.000000
_cell_angle_beta 90.000000
_cell_angle_gamma 90.000000
_cell_volume 8731.396401
_symmetry_space_group_name_H-M "I 41/A C D"
_symmetry_group_IT_number 142
_space_group.IT_coordinate_system_code '2'
_symmetry_cell_setting 'tetragonal'
loop_
_space_group_symop_operation_xyz
x,y,z
1/4-y,3/4+x,1/4+z
-x,1/2-y,z
1/4+y,1/4-x,3/4+z
x,-y,1/2-z
1/2-x,y,-z
3/4+y,1/4+x,1/4-z
1/4-y,1/4-x,1/4-z
-x,-y,-z
3/4+y,1/4-x,3/4-z
x,1/2+y,-z
3/4-y,3/4+x,1/4-z
-x,y,1/2+z
1/2+x,-y,z
1/4-y,3/4-x,3/4+z
3/4+y,3/4+x,3/4+z
1/2+x,1/2+y,1/2+z
3/4-y,1/4+x,3/4+z
1/2-x,-y,1/2+z
3/4+y,3/4-x,1/4+z
1/2+x,1/2-y,-z
-x,1/2+y,1/2-z
1/4+y,3/4+x,3/4-z
3/4-y,3/4-x,3/4-z
1/2-x,1/2-y,1/2-z
1/4+y,3/4-x,1/4-z
1/2+x,y,1/2-z
1/4-y,1/4+x,3/4-z
1/2-x,1/2+y,z
x,1/2-y,1/2+z
3/4-y,1/4-x,1/4+z
1/4+y,1/4+x,1/4+z
loop_
_atom_site_type_symbol
_atom_site_label
_atom_site_fract_x
_atom_site_fract_y
_atom_site_fract_z
Si Si1 0.024254 0.412329 0.746602
Si Si2 0.904479 0.934468 0.332737
Si Si3 0.025020 0.861187 0.139512
Si Si4 0.311062 0.858090 0.737829
Si Si5 0.262178 0.246030 0.668242
Si Si6 0.750000 0.041752 0.000000
O O1 0.026279 0.500000 0.750000
O O2 0.005729 0.381861 0.802747
O O3 0.105410 0.383637 0.735521
O O4 0.961556 0.394394 0.705316
O O5 0.866565 0.883436 0.375000
O O6 0.951653 0.988374 0.368087
O O7 0.844557 0.974643 0.296929
O O8 0.082131 0.796689 0.138712
O O9 0.050646 0.926574 0.103686
O O10 0.289360 0.811951 0.789108
O O11 0.297199 0.798762 0.693266
O O12 0.259192 0.929990 0.736312
#
# Coordination Sequence:
#
# PCOD9574162 Si02
#       6
#    32  32  32  32  32  16
#     4  12  24  45  70 102 142 180 234 294 354 421
#     4  12  26  46  71 104 146 190 225 291 370 427
#     4  11  24  42  71  98 131 188 237 284 345 428
#     4  11  26  43  71 102 139 183 239 295 342 424
#     4  11  24  45  66 100 145 178 227 292 360 412
#     4  12  24  46  78 104 134 188 248 288 348 428
#
# _framework density 20.157140999999999
#
# number of rings (size 3 to 8) (size 9 to 14) (size 15 to 20)
#    0.000    0.545    7.273    0.000    5.091    0.727 
#    3.273    0.909    0.000    0.000    0.000    0.000 
#    0.000    0.000    0.000    0.000    0.000    0.000 
#
# Total GULP energy -491265.952836 kJ/mol
# GULP energy per Si atom -5582.567646 kJ/mol
# Density = 2.011126 g / cm^3
# Si number density = 20.157141 Si / 1000 Ang^3
#
#
#
# Elastic Constant Matrix: (Units=GPa)
#
#
# Indices 1 2 3 4 5 6 
#
# 1 94.9005 32.8670 54.1196 0.0000 0.0000 0.0000
# 2 32.8670 94.9002 54.1201 0.0000 0.0000 0.0000
# 3 54.1196 54.1201 138.1576 0.0000 0.0000 0.0000
# 4 0.0000 0.0000 0.0000 26.9213 0.0000 0.0000
# 5 0.0000 0.0000 0.0000 0.0000 26.9204 0.0000
# 6 0.0000 0.0000 0.0000 0.0000 0.0000 -22.6239
#
#
#
# Elastic Compliance Matrix: (Units=1/GPa)
#
#
# Indices 1 2 3 4 5 6 
#
# 1 0.013917 -0.002203 -0.004589 0.000000 0.000000 0.000000
# 2 -0.002203 0.013917 -0.004589 0.000000 0.000000 0.000000
# 3 -0.004589 -0.004589 0.010833 0.000000 0.000000 0.000000
# 4 0.000000 0.000000 0.000000 0.037145 0.000000 0.000000
# 5 0.000000 0.000000 0.000000 0.000000 0.037146 0.000000
# 6 0.000000 0.000000 0.000000 0.000000 0.000000 -0.044201
#
#
# Mechanical properties :
#
#
# Convention : Reuss Voigt Hill
#
# Bulk Modulus (GPa) = 62.86735 67.79686 65.33211
# Shear Modulus (GPa) = 51.64140 18.70036 35.17088
#
# Velocity S-wave (km/s) = 5.06705 3.04917 4.18165
# Velocity P-wave (km/s) = 8.09257 6.78997 7.46972
#
# Compressibility (1/GPa) = 0.01590651
#
# Stress axis : x y z
#
# Youngs Moduli (GPa) = 71.85365 71.85301 92.30924
#
# Poissons Ratio (x) = 0.15830 0.42358
# Poissons Ratio (y) = 0.15830 0.42359
# Poissons Ratio (z) = 0.32971 0.32972
#
# Static dielectric constant tensor:
#      x y z
#    x 1.747680 0.000000 0.000000 
#    y 0.000000 1.747680 0.000000 
#    z 0.000000 0.000000 1.714460 
# 
# From -- ./inp_files/11463.got.cif
#   From: 2010.05.17/outbox.cif.g08.bks.cpg/sg142_6_cif.got.tgz:11463.got - 2010.05.20 13:39:18.
