data_PCOD9574313
_publ_section_title
;
Structure prediction by ZEFSAII (Michael W. Deem and Ramdas Pophale) SiO2 
 PCOD9574313
Probable space group: P 31
;
_chemical_formula_sum "Si O2"
_cell_formula_units_Z 21
_cell_length_a 9.408445
_cell_length_b 9.408445
_cell_length_c 12.185347
_cell_angle_alpha 90.000000
_cell_angle_beta 90.000000
_cell_angle_gamma 120.000000
_cell_volume 934.123362
_symmetry_space_group_name_H-M "P 31"
_symmetry_group_IT_number 144
_symmetry_cell_setting 'hexagonal'
loop_
_space_group_symop_operation_xyz
x,y,z
-y,x-y,1/3+z
-x+y,-x,2/3+z
loop_
_atom_site_type_symbol
_atom_site_label
_atom_site_fract_x
_atom_site_fract_y
_atom_site_fract_z
Si Si1 0.341479 0.209414 0.039780
Si Si2 0.708959 0.027565 0.131565
Si Si3 0.542746 0.008145 0.550667
Si Si4 0.734974 0.729185 0.079094
Si Si5 0.014728 0.639102 0.125548
Si Si6 0.573909 0.333333 0.628557
Si Si7 0.062517 0.401640 0.511353
O O1 0.335561 0.333335 0.128556
O O2 0.284363 0.032905 0.092499
O O3 0.276562 0.214226 0.919790
O O4 0.532606 0.271912 0.016867
O O5 0.765658 0.911790 0.074235
O O6 0.511429 0.951384 0.146005
O O7 0.750678 0.180314 0.052079
O O8 0.605245 0.199273 0.573579
O O9 0.366236 0.951029 0.497949
O O10 0.547559 0.943229 0.670656
O O11 0.893380 0.715284 0.111108
O O12 0.666666 0.646020 0.961890
O O13 0.187201 0.754877 0.182878
O O14 0.903699 0.486354 0.205035
#
# Coordination Sequence:
#
# PCOD9574313 Si02
#       7
#     3   3   3   3   3   3   3
#     4  11  21  39  65  93 120 159 216 264 312 377
#     4  11  23  41  63  96 128 167 211 262 322 386
#     4  11  21  39  65  93 120 159 216 264 312 377
#     4  11  23  42  65  92 129 173 210 264 326 381
#     4  11  23  41  63  96 128 167 211 262 322 386
#     4  10  20  36  68  92 122 160 214 260 308 374
#     4  11  23  42  65  92 129 173 210 264 326 381
#
# _framework density 22.480968000000001
#
# number of rings (size 3 to 8) (size 9 to 14) (size 15 to 20)
#    0.000    1.143    4.286    4.286    0.000    2.286 
#    0.000    0.000    0.000    0.000    0.000    0.000 
#    0.000    0.000    0.000    0.000    0.000    0.000 
#
# Total GULP energy -117352.012529 kJ/mol
# GULP energy per Si atom -5588.191073 kJ/mol
# Density = 2.242980 g / cm^3
# Si number density = 22.480968 Si / 1000 Ang^3
#
#
#
# Elastic Constant Matrix: (Units=GPa)
#
#
# Indices 1 2 3 4 5 6 
#
# 1 37.2872 6.4643 7.9473 -6.2332 0.0002 0.0000
# 2 6.4643 37.2872 7.9473 6.2332 -0.0002 0.0000
# 3 7.9473 7.9473 121.7797 0.0000 0.0000 0.0000
# 4 -6.2332 6.2332 0.0000 25.5709 0.0000 -0.0002
# 5 0.0002 -0.0002 0.0000 0.0000 25.5709 -6.2332
# 6 0.0000 0.0000 0.0000 -0.0002 -6.2332 15.4115
#
#
#
# Elastic Compliance Matrix: (Units=1/GPa)
#
#
# Indices 1 2 3 4 5 6 
#
# 1 0.029702 -0.006290 -0.001528 0.008773 0.000000 0.000000
# 2 -0.006290 0.029702 -0.001528 -0.008773 0.000000 0.000000
# 3 -0.001528 -0.001528 0.008411 0.000000 0.000000 0.000000
# 4 0.008773 -0.008773 0.000000 0.043384 0.000000 0.000001
# 5 0.000000 0.000000 0.000000 0.000000 0.043384 0.017547
# 6 0.000000 0.000000 0.000000 0.000001 0.017547 0.071984
#
#
# Mechanical properties :
#
#
# Convention : Reuss Voigt Hill
#
# Bulk Modulus (GPa) = 20.35725 26.78575 23.57150
# Shear Modulus (GPa) = 19.11080 24.91035 22.01057
#
# Velocity S-wave (km/s) = 2.91879 3.33237 3.13241
# Velocity P-wave (km/s) = 4.52041 5.17175 4.85701
#
# Compressibility (1/GPa) = 0.04912254
#
# Stress axis : x y z
#
# Youngs Moduli (GPa) = 33.66819 33.66819 118.89256
#
# Poissons Ratio (x) = 0.21178 0.18165
# Poissons Ratio (y) = 0.21178 0.18165
# Poissons Ratio (z) = 0.05144 0.05144
#
# Static dielectric constant tensor:
#      x y z
#    x 1.799810 0.000000 0.000000 
#    y 0.000000 1.799810 0.000000 
#    z 0.000000 0.000000 1.981710 
# 
# From -- ./inp_files/592.got.cif
#   From: 2010.05.17/outbox.cif.g08.bks.cpg/sg144_cif.got.tgz:592.got - 2010.05.20 13:46:34.
