data_PCOD9574543
_publ_section_title
;
Structure prediction by ZEFSAII (Michael W. Deem and Ramdas Pophale) SiO2 
 PCOD9574543
Probable space group: P 32
;
_chemical_formula_sum "Si O2"
_cell_formula_units_Z 18
_cell_length_a 12.363667
_cell_length_b 12.363667
_cell_length_c 5.563772
_cell_angle_alpha 90.000000
_cell_angle_beta 90.000000
_cell_angle_gamma 120.000000
_cell_volume 736.536977
_symmetry_space_group_name_H-M "P 32"
_symmetry_group_IT_number 145
_symmetry_cell_setting 'hexagonal'
loop_
_space_group_symop_operation_xyz
x,y,z
-y,x-y,2/3+z
-x+y,-x,1/3+z
loop_
_atom_site_type_symbol
_atom_site_label
_atom_site_fract_x
_atom_site_fract_y
_atom_site_fract_z
Si Si1 0.537446 0.248429 0.106140
Si Si2 0.252680 0.368739 0.923900
Si Si3 0.474592 0.437050 0.599157
Si Si4 0.106858 0.116901 0.641747
Si Si5 0.426754 0.635239 0.417574
Si Si6 0.301855 0.217234 0.281226
O O1 0.625185 0.387391 0.212883
O O2 0.531834 0.146532 0.296876
O O3 0.392734 0.209883 0.082147
O O4 0.395358 0.436713 0.826350
O O5 0.169759 0.258797 0.734136
O O6 0.213135 0.472966 0.931337
O O7 0.245502 0.297691 0.166555
O O8 0.466852 0.531400 0.407807
O O9 0.399764 0.299820 0.486746
O O10 0.190014 0.106481 0.426007
O O11 0.096754 0.028635 0.860934
O O12 0.427768 0.714346 0.189548
#
# Coordination Sequence:
#
# PCOD9574543 Si02
#       6
#     3   3   3   3   3   3
#     4  10  20  36  58  84 118 157 198 242 290 343
#     4  10  21  38  59  83 116 153 195 243 291 345
#     4   9  20  35  54  86 116 151 196 243 294 342
#     4  11  24  41  60  84 116 151 190 241 298 356
#     4  10  20  36  58  84 118 157 198 242 290 343
#     4  10  21  38  59  83 116 153 195 243 291 345
#
# _framework density 24.438690000000001
#
# number of rings (size 3 to 8) (size 9 to 14) (size 15 to 20)
#    0.000    2.000    0.000    3.000    0.000    4.000 
#    0.000    8.333    0.000    0.000    0.000    0.000 
#    0.000    0.000    0.000    0.000    0.000    0.000 
#
# Total GULP energy -100543.470098 kJ/mol
# GULP energy per Si atom -5585.748339 kJ/mol
# Density = 2.438307 g / cm^3
# Si number density = 24.438690 Si / 1000 Ang^3
#
#
#
# Elastic Constant Matrix: (Units=GPa)
#
#
# Indices 1 2 3 4 5 6 
#
# 1 93.6467 32.0516 8.5007 -5.9013 0.6064 0.0000
# 2 32.0516 93.6467 8.5007 5.9013 -0.6064 0.0000
# 3 8.5007 8.5007 58.5195 0.0000 0.0000 0.0000
# 4 -5.9013 5.9013 0.0000 23.1578 0.0000 -0.6064
# 5 0.6064 -0.6064 0.0000 0.0000 23.1578 -5.9013
# 6 0.0000 0.0000 0.0000 -0.6064 -5.9013 30.7975
#
#
#
# Elastic Compliance Matrix: (Units=1/GPa)
#
#
# Indices 1 2 3 4 5 6 
#
# 1 0.012596 -0.004481 -0.001179 0.004352 -0.000447 0.000000
# 2 -0.004481 0.012596 -0.001179 -0.004352 0.000447 0.000000
# 3 -0.001179 -0.001179 0.017431 0.000000 0.000000 0.000000
# 4 0.004352 -0.004352 0.000000 0.045424 0.000000 0.000894
# 5 -0.000447 0.000447 0.000000 0.000000 0.045424 0.008704
# 6 0.000000 0.000000 0.000000 0.000894 0.008704 0.034156
#
#
# Mechanical properties :
#
#
# Convention : Reuss Voigt Hill
#
# Bulk Modulus (GPa) = 34.54760 38.21320 36.38040
# Shear Modulus (GPa) = 26.18449 28.53993 27.36221
#
# Velocity S-wave (km/s) = 3.27683 3.42104 3.34971
# Velocity P-wave (km/s) = 5.33704 5.59241 5.46621
#
# Compressibility (1/GPa) = 0.02894557
#
# Stress axis : x y z
#
# Youngs Moduli (GPa) = 79.38780 79.38780 57.36972
#
# Poissons Ratio (x) = 0.35577 0.06763
# Poissons Ratio (y) = 0.35577 0.06763
# Poissons Ratio (z) = 0.09358 0.09358
#
# Static dielectric constant tensor:
#      x y z
#    x 1.964350 0.000000 0.000000 
#    y 0.000000 1.964350 0.000000 
#    z 0.000000 0.000000 2.031040 
# 
# From -- ./inp_files/123.got.cif
#   From: 2010.05.17/outbox.cif.g08.bks.cpg/sg145_cif.got.tgz:123.got - 2010.05.20 13:47:28.
