data_PCOD9574353
_publ_section_title
;
Structure prediction by ZEFSAII (Michael W. Deem and Ramdas Pophale) SiO2 
 PCOD9574353
Probable space group: P 31
;
_chemical_formula_sum "Si O2"
_cell_formula_units_Z 15
_cell_length_a 11.408858
_cell_length_b 11.408858
_cell_length_c 6.328593
_cell_angle_alpha 90.000000
_cell_angle_beta 90.000000
_cell_angle_gamma 120.000000
_cell_volume 713.382001
_symmetry_space_group_name_H-M "P 31"
_symmetry_group_IT_number 144
_symmetry_cell_setting 'hexagonal'
loop_
_space_group_symop_operation_xyz
x,y,z
-y,x-y,1/3+z
-x+y,-x,2/3+z
loop_
_atom_site_type_symbol
_atom_site_label
_atom_site_fract_x
_atom_site_fract_y
_atom_site_fract_z
Si Si1 0.014406 0.301757 0.734160
Si Si2 0.463641 0.757446 0.155563
Si Si3 0.131982 0.040535 0.060859
Si Si4 0.824776 0.203770 0.114110
Si Si5 0.509723 0.042716 0.058731
O O1 0.154925 0.396791 0.852221
O O2 0.037629 0.215437 0.555909
O O3 0.966020 0.391931 0.603780
O O4 0.898485 0.206420 0.896540
O O5 0.379284 0.747810 0.360932
O O6 0.489213 0.892536 0.031732
O O7 0.051983 0.092173 0.204174
O O8 0.267170 0.157043 0.952528
O O9 0.667559 0.148877 0.082418
O O10 0.906889 0.356019 0.206915
#
# Coordination Sequence:
#
# PCOD9574353 Si02
#       5
#     3   3   3   3   3
#     4  10  24  43  66  98 130 172 226 272 337 395
#     4  10  21  42  65  92 127 169 218 271 325 384
#     4  11  25  43  67 101 131 171 218 283 340 400
#     4  11  25  43  67  96 135 177 223 275 330 403
#     4  10  25  41  63  99 129 179 221 273 330 396
#
# _framework density 21.026602
#
# number of rings (size 3 to 8) (size 9 to 14) (size 15 to 20)
#    0.000    1.600    0.000    2.400   11.200    1.600 
#    7.200    0.000    0.000    0.000    0.000    0.000 
#    0.000    0.000    0.000    0.000    0.000    0.000 
#
# Total GULP energy -83844.657051 kJ/mol
# GULP energy per Si atom -5589.643803 kJ/mol
# Density = 2.097874 g / cm^3
# Si number density = 21.026602 Si / 1000 Ang^3
#
#
#
# Elastic Constant Matrix: (Units=GPa)
#
#
# Indices 1 2 3 4 5 6 
#
# 1 79.0779 15.5801 18.5271 4.0907 -4.1314 0.0000
# 2 15.5801 79.0779 18.5271 -4.0907 4.1314 0.0000
# 3 18.5271 18.5271 59.7242 0.0000 0.0000 0.0000
# 4 4.0907 -4.0907 0.0000 25.4960 0.0000 4.1314
# 5 -4.1314 4.1314 0.0000 0.0000 25.4960 4.0907
# 6 0.0000 0.0000 0.0000 4.1314 4.0907 31.7489
#
#
#
# Elastic Compliance Matrix: (Units=1/GPa)
#
#
# Indices 1 2 3 4 5 6 
#
# 1 0.014230 -0.002205 -0.003730 -0.002637 0.002663 0.000000
# 2 -0.002205 0.014230 -0.003730 0.002637 -0.002663 0.000000
# 3 -0.003730 -0.003730 0.019058 0.000000 0.000000 0.000000
# 4 -0.002637 0.002637 0.000000 0.040931 0.000000 -0.005326
# 5 0.002663 -0.002663 0.000000 0.000000 0.040931 -0.005274
# 6 0.000000 0.000000 0.000000 -0.005326 -0.005274 0.032870
#
#
# Mechanical properties :
#
#
# Convention : Reuss Voigt Hill
#
# Bulk Modulus (GPa) = 35.47813 35.90540 35.69176
# Shear Modulus (GPa) = 26.18137 27.56456 26.87297
#
# Velocity S-wave (km/s) = 3.53250 3.62462 3.57886
# Velocity P-wave (km/s) = 5.79204 5.88476 5.83858
#
# Compressibility (1/GPa) = 0.02818638
#
# Stress axis : x y z
#
# Youngs Moduli (GPa) = 70.27555 70.27555 52.47170
#
# Poissons Ratio (x) = 0.15497 0.19573
# Poissons Ratio (y) = 0.15497 0.19573
# Poissons Ratio (z) = 0.26214 0.26214
#
# Static dielectric constant tensor:
#      x y z
#    x 1.752760 0.000000 0.000000 
#    y 0.000000 1.752760 0.000000 
#    z 0.000000 0.000000 1.733330 
# 
# From -- ./inp_files/56.got.cif
#   From: 2010.05.17/outbox.cif.g08.bks.cpg/sg144_cif.got.tgz:56.got - 2010.05.20 13:46:34.
