data_PCOD9574851
_publ_section_title
;
Structure prediction by ZEFSAII (Michael W. Deem and Ramdas Pophale) SiO2 
 PCOD9574851
Probable space group: P -3
;
_chemical_formula_sum "Si O2"
_cell_formula_units_Z 24
_cell_length_a 14.643337
_cell_length_b 14.643337
_cell_length_c 5.581239
_cell_angle_alpha 90.000000
_cell_angle_beta 90.000000
_cell_angle_gamma 120.000000
_cell_volume 1036.433320
_symmetry_space_group_name_H-M "P -3"
_symmetry_group_IT_number 147
_symmetry_cell_setting 'hexagonal'
loop_
_space_group_symop_operation_xyz
x,y,z
-y,x-y,z
-x+y,-x,z
-x,-y,-z
y,-x+y,-z
x-y,x,-z
loop_
_atom_site_type_symbol
_atom_site_label
_atom_site_fract_x
_atom_site_fract_y
_atom_site_fract_z
Si Si1 0.540397 0.408970 0.750000
Si Si2 0.298894 0.366172 0.750000
Si Si3 0.300769 0.799960 0.750000
Si Si4 0.662800 0.969206 0.250000
O O1 0.421769 0.394822 0.750000
O O2 0.548373 0.353936 0.506974
O O3 0.622617 0.533834 0.750000
O O4 0.548373 0.353935 0.993026
O O5 0.290618 0.470821 0.750000
O O6 0.248041 0.308226 0.502117
O O7 0.248041 0.308226 0.997883
O O8 0.296450 0.907830 0.750000
#
# Coordination Sequence:
#
# PCOD9574851 Si02
#       4
#     6   6   6   6
#     4  10  19  33  50  66  92 129 157 187 245 295
#     4  10  18  29  48  68  86 115 157 197 226 267
#     4  10  18  29  48  68  86 115 157 197 226 267
#     4  10  19  33  50  66  92 129 157 187 245 295
#
# _framework density 23.156338000000002
#
# number of rings (size 3 to 8) (size 9 to 14) (size 15 to 20)
#    0.000    2.000    0.000    9.000    0.000    0.000 
#    0.000    0.000    0.000   45.000    0.000    0.000 
#    0.000    0.000    0.000  960.000    0.000    0.000 
#
# Total GULP energy -134072.312579 kJ/mol
# GULP energy per Si atom -5586.346357 kJ/mol
# Density = 2.310363 g / cm^3
# Si number density = 23.156338 Si / 1000 Ang^3
#
#
#
# Elastic Constant Matrix: (Units=GPa)
#
#
# Indices 1 2 3 4 5 6 
#
# 1 38.4786 24.8102 30.9065 0.0000 0.0000 0.0000
# 2 24.8102 38.4786 30.9065 0.0000 0.0000 0.0000
# 3 30.9065 30.9065 285.3764 0.0000 0.0000 0.0000
# 4 0.0000 0.0000 0.0000 18.2939 0.0000 0.0000
# 5 0.0000 0.0000 0.0000 0.0000 18.2939 0.0000
# 6 0.0000 0.0000 0.0000 0.0000 0.0000 6.8342
#
#
#
# Elastic Compliance Matrix: (Units=1/GPa)
#
#
# Indices 1 2 3 4 5 6 
#
# 1 0.045415 -0.027746 -0.001914 0.000000 0.000000 0.000000
# 2 -0.027746 0.045415 -0.001914 0.000000 0.000000 0.000000
# 3 -0.001914 -0.001914 0.003919 0.000000 0.000000 0.000000
# 4 0.000000 0.000000 0.000000 0.054663 0.000000 0.000000
# 5 0.000000 0.000000 0.000000 0.000000 0.054663 0.000000
# 6 0.000000 0.000000 0.000000 0.000000 0.000000 0.146322
#
#
# Mechanical properties :
#
#
# Convention : Reuss Voigt Hill
#
# Bulk Modulus (GPa) = 31.64225 59.50890 45.57558
# Shear Modulus (GPa) = 11.79027 27.06508 19.42768
#
# Velocity S-wave (km/s) = 2.25890 3.42248 2.89966
# Velocity P-wave (km/s) = 4.52745 6.43213 5.56193
#
# Compressibility (1/GPa) = 0.03160331
#
# Stress axis : x y z
#
# Youngs Moduli (GPa) = 22.01897 22.01897 255.19054
#
# Poissons Ratio (x) = 0.61093 0.48834
# Poissons Ratio (y) = 0.61093 0.48834
# Poissons Ratio (z) = 0.04214 0.04214
#
# Static dielectric constant tensor:
#      x y z
#    x 1.862930 0.000000 0.000000 
#    y 0.000000 1.862930 0.000000 
#    z 0.000000 0.000000 2.012670 
# 
# From -- ./inp_files/103.got.cif
#   From: 2010.05.17/outbox.cif.g08.bks.cpg/sg147_cif.got.tgz:103.got - 2010.05.20 13:49:32.
