data_PCOD9574177
_publ_section_title
;
Structure prediction by ZEFSAII (Michael W. Deem and Ramdas Pophale) SiO2 
 PCOD9574177
Probable space group: I 41/A C D
;
_chemical_formula_sum "Si O2"
_cell_formula_units_Z 96
_cell_length_a 16.212559
_cell_length_b 16.212559
_cell_length_c 17.034282
_cell_angle_alpha 90.000000
_cell_angle_beta 90.000000
_cell_angle_gamma 90.000000
_cell_volume 4477.411102
_symmetry_space_group_name_H-M "I 41/A C D"
_symmetry_group_IT_number 142
_space_group.IT_coordinate_system_code '2'
_symmetry_cell_setting 'tetragonal'
loop_
_space_group_symop_operation_xyz
x,y,z
1/4-y,3/4+x,1/4+z
-x,1/2-y,z
1/4+y,1/4-x,3/4+z
x,-y,1/2-z
1/2-x,y,-z
3/4+y,1/4+x,1/4-z
1/4-y,1/4-x,1/4-z
-x,-y,-z
3/4+y,1/4-x,3/4-z
x,1/2+y,-z
3/4-y,3/4+x,1/4-z
-x,y,1/2+z
1/2+x,-y,z
1/4-y,3/4-x,3/4+z
3/4+y,3/4+x,3/4+z
1/2+x,1/2+y,1/2+z
3/4-y,1/4+x,3/4+z
1/2-x,-y,1/2+z
3/4+y,3/4-x,1/4+z
1/2+x,1/2-y,-z
-x,1/2+y,1/2-z
1/4+y,3/4+x,3/4-z
3/4-y,3/4-x,3/4-z
1/2-x,1/2-y,1/2-z
1/4+y,3/4-x,1/4-z
1/2+x,y,1/2-z
1/4-y,1/4+x,3/4-z
1/2-x,1/2+y,z
x,1/2-y,1/2+z
3/4-y,1/4-x,1/4+z
1/4+y,1/4+x,1/4+z
loop_
_atom_site_type_symbol
_atom_site_label
_atom_site_fract_x
_atom_site_fract_y
_atom_site_fract_z
Si Si1 0.095419 0.027249 0.161298
Si Si2 0.672098 0.840449 0.554767
Si Si3 0.062027 0.144743 0.411534
O O1 0.155944 0.094057 0.125000
O O2 0.001265 0.059478 0.164184
O O3 0.117477 0.000000 0.250000
O O4 0.094400 0.944556 0.110319
O O5 0.750000 0.863966 0.500000
O O6 0.652727 0.902727 0.625000
O O7 0.907248 0.834775 0.501863
O O8 0.099616 0.214406 0.353595
#
# Coordination Sequence:
#
# PCOD9574177 Si02
#       3
#    32  32  32
#     4  11  26  49  73 115 151 193 258 315 380 452
#     4  11  26  49  75 112 150 203 258 309 387 456
#     4  11  24  47  77 105 154 201 255 310 379 455
#
# _framework density 21.440961999999999
#
# number of rings (size 3 to 8) (size 9 to 14) (size 15 to 20)
#    0.000    1.000    6.667    0.000    4.667    7.333 
#    0.000    0.000    0.000    0.000    0.000    0.000 
#    0.000    0.000    0.000    0.000    0.000    0.000 
#
# Total GULP energy -268606.548513 kJ/mol
# GULP energy per Si atom -5595.969761 kJ/mol
# Density = 2.139216 g / cm^3
# Si number density = 21.440962 Si / 1000 Ang^3
#
#
#
# Elastic Constant Matrix: (Units=GPa)
#
#
# Indices 1 2 3 4 5 6 
#
# 1 116.6813 80.9006 55.7433 0.0000 0.0000 0.0000
# 2 80.9006 116.6728 55.7471 0.0000 0.0000 0.0000
# 3 55.7433 55.7471 60.9935 0.0000 0.0000 0.0000
# 4 0.0000 0.0000 0.0000 45.4862 0.0000 0.0000
# 5 0.0000 0.0000 0.0000 0.0000 45.4785 0.0000
# 6 0.0000 0.0000 0.0000 0.0000 0.0000 22.5619
#
#
#
# Elastic Compliance Matrix: (Units=1/GPa)
#
#
# Indices 1 2 3 4 5 6 
#
# 1 0.019199 -0.008750 -0.009549 0.000000 0.000000 0.000000
# 2 -0.008750 0.019204 -0.009555 0.000000 0.000000 0.000000
# 3 -0.009549 -0.009555 0.033856 0.000000 0.000000 0.000000
# 4 0.000000 0.000000 0.000000 0.021985 0.000000 0.000000
# 5 0.000000 0.000000 0.000000 0.000000 0.021988 0.000000
# 6 0.000000 0.000000 0.000000 0.000000 0.000000 0.044323
#
#
# Mechanical properties :
#
#
# Convention : Reuss Voigt Hill
#
# Bulk Modulus (GPa) = 60.42313 75.45886 67.94100
# Shear Modulus (GPa) = 22.54495 29.50242 26.02369
#
# Velocity S-wave (km/s) = 3.24619 3.71345 3.48765
# Velocity P-wave (km/s) = 6.50328 7.32506 6.92637
#
# Compressibility (1/GPa) = 0.01654995
#
# Stress axis : x y z
#
# Youngs Moduli (GPa) = 52.08572 52.07347 29.53721
#
# Poissons Ratio (x) = 0.45564 0.28206
# Poissons Ratio (y) = 0.45575 0.28223
# Poissons Ratio (z) = 0.49738 0.49757
#
# Static dielectric constant tensor:
#      x y z
#    x 1.771830 0.000000 0.000000 
#    y 0.000000 1.771830 0.000000 
#    z 0.000000 0.000000 1.772080 
# 
# From -- ./inp_files/8358.got.cif
#   From: 2010.05.17/outbox.cif.g08.bks.cpg/sg142_5_cif.got.tgz:8358.got - 2010.05.20 13:39:18.
