data_PCOD9574645
_publ_section_title
;
Structure prediction by ZEFSAII (Michael W. Deem and Ramdas Pophale) SiO2 
 PCOD9574645
Probable space group: P 32
;
_chemical_formula_sum "Si O2"
_cell_formula_units_Z 24
_cell_length_a 11.599936
_cell_length_b 11.599936
_cell_length_c 9.040198
_cell_angle_alpha 90.000000
_cell_angle_beta 90.000000
_cell_angle_gamma 120.000000
_cell_volume 1053.464149
_symmetry_space_group_name_H-M "P 32"
_symmetry_group_IT_number 145
_symmetry_cell_setting 'hexagonal'
loop_
_space_group_symop_operation_xyz
x,y,z
-y,x-y,2/3+z
-x+y,-x,1/3+z
loop_
_atom_site_type_symbol
_atom_site_label
_atom_site_fract_x
_atom_site_fract_y
_atom_site_fract_z
Si Si1 0.435620 0.604913 0.262220
Si Si2 0.562649 0.701445 0.962232
Si Si3 0.409699 0.241843 0.188928
Si Si4 0.159245 0.039487 0.360196
Si Si5 0.929373 0.467199 0.777607
Si Si6 0.726474 0.982889 0.597717
Si Si7 0.185800 0.053508 0.681781
Si Si8 0.116984 0.605130 0.045975
O O1 0.292232 0.477041 0.288579
O O2 0.540664 0.590761 0.363270
O O3 0.431869 0.738969 0.302060
O O4 0.470948 0.607298 0.092539
O O5 0.710642 0.757642 0.019907
O O6 0.518548 0.623816 0.807082
O O7 0.269096 0.115665 0.236969
O O8 0.466401 0.345636 0.323498
O O9 0.509235 0.187680 0.152594
O O10 0.372515 0.296938 0.044355
O O11 0.224292 0.109442 0.515904
O O12 0.032777 0.058872 0.341880
O O13 0.106942 0.882240 0.351442
O O14 0.000591 0.552376 0.924231
O O15 0.598402 0.897824 0.496672
O O16 0.843709 0.074843 0.481664
#
# Coordination Sequence:
#
# PCOD9574645 Si02
#       8
#     3   3   3   3   3   3   3   3
#     4  12  24  44  70 107 148 187 242 306 381 451
#     4  12  25  42  70 102 147 191 240 303 374 450
#     4  12  27  50  75 105 148 198 255 311 369 452
#     4  12  24  44  70 107 148 187 242 306 381 451
#     4  12  27  50  75 105 148 198 255 311 369 452
#     4  12  26  44  72 108 147 192 247 309 379 450
#     4  12  25  42  70 102 147 191 240 303 374 450
#     4  12  26  44  72 108 147 192 247 309 379 450
#
# _framework density 22.781980000000001
#
# number of rings (size 3 to 8) (size 9 to 14) (size 15 to 20)
#    0.000    0.000    5.000    4.500    3.500    1.000 
#    0.000    1.250    0.000    0.000    0.000    0.000 
#    0.000    0.000    0.000    0.000    0.000    0.000 
#
# Total GULP energy -134397.946025 kJ/mol
# GULP energy per Si atom -5599.914418 kJ/mol
# Density = 2.273013 g / cm^3
# Si number density = 22.781980 Si / 1000 Ang^3
#
#
#
# Elastic Constant Matrix: (Units=GPa)
#
#
# Indices 1 2 3 4 5 6 
#
# 1 85.2155 33.7454 27.9250 1.1033 0.4451 0.0000
# 2 33.7454 85.2155 27.9250 -1.1033 -0.4451 0.0000
# 3 27.9250 27.9250 125.2694 0.0000 0.0000 0.0000
# 4 1.1033 -1.1033 0.0000 38.0320 0.0000 -0.4451
# 5 0.4451 -0.4451 0.0000 0.0000 38.0320 1.1033
# 6 0.0000 0.0000 0.0000 -0.4451 1.1033 25.7350
#
#
#
# Elastic Compliance Matrix: (Units=1/GPa)
#
#
# Indices 1 2 3 4 5 6 
#
# 1 0.014423 -0.005034 -0.002093 -0.000564 -0.000228 0.000000
# 2 -0.005034 0.014423 -0.002093 0.000564 0.000228 0.000000
# 3 -0.002093 -0.002093 0.008916 0.000000 0.000000 0.000000
# 4 -0.000564 0.000564 0.000000 0.026332 0.000000 0.000455
# 5 -0.000228 0.000228 0.000000 0.000000 0.026332 -0.001129
# 6 0.000000 0.000000 0.000000 0.000455 -0.001129 0.038914
#
#
# Mechanical properties :
#
#
# Convention : Reuss Voigt Hill
#
# Bulk Modulus (GPa) = 51.75550 52.76570 52.26060
# Shear Modulus (GPa) = 32.42138 34.10014 33.26076
#
# Velocity S-wave (km/s) = 3.77651 3.87305 3.82509
# Velocity P-wave (km/s) = 6.46399 6.57359 6.51902
#
# Compressibility (1/GPa) = 0.01932162
#
# Stress axis : x y z
#
# Youngs Moduli (GPa) = 69.33462 69.33462 112.15907
#
# Poissons Ratio (x) = 0.34904 0.23474
# Poissons Ratio (y) = 0.34904 0.23474
# Poissons Ratio (z) = 0.14511 0.14511
#
# Static dielectric constant tensor:
#      x y z
#    x 1.834480 0.000000 0.000000 
#    y 0.000000 1.834480 0.000000 
#    z 0.000000 0.000000 1.866140 
# 
# From -- ./inp_files/437.got.cif
#   From: 2010.05.17/outbox.cif.g08.bks.cpg/sg145_cif.got.tgz:437.got - 2010.05.20 13:47:28.
