data_PCOD9574727
_publ_section_title
;
Structure prediction by ZEFSAII (Michael W. Deem and Ramdas Pophale) SiO2 
 PCOD9574727
Probable space group: R 3
;
_chemical_formula_sum "Si O2"
_cell_formula_units_Z 60
_cell_length_a 14.756134
_cell_length_b 14.756134
_cell_length_c 12.221994
_cell_angle_alpha 90.000000
_cell_angle_beta 90.000000
_cell_angle_gamma 120.000000
_cell_volume 2304.718451
_symmetry_space_group_name_H-M "R 3"
_symmetry_group_IT_number 146
_symmetry_cell_setting 'hexagonal'
loop_
_space_group_symop_operation_xyz
x,y,z
-y,x-y,z
-x+y,-x,z
2/3+x,1/3+y,1/3+z
2/3-y,1/3+x-y,1/3+z
2/3-x+y,1/3-x,1/3+z
1/3+x,2/3+y,2/3+z
1/3-y,2/3+x-y,2/3+z
1/3-x+y,2/3-x,2/3+z
loop_
_atom_site_type_symbol
_atom_site_label
_atom_site_fract_x
_atom_site_fract_y
_atom_site_fract_z
Si Si1 0.252302 0.267378 0.799860
Si Si2 0.208437 0.044232 0.279679
Si Si3 0.469762 0.029162 0.369684
Si Si4 0.383674 0.227474 0.531581
Si Si5 0.090984 0.223797 0.980530
Si Si6 0.511621 0.096838 0.007590
Si Si7 0.000000 0.000000 0.369547
Si Si8 0.333334 0.666668 0.300173
O O1 0.209229 0.310802 0.701303
O O2 0.341419 0.371847 0.860259
O O3 0.155328 0.213219 0.883378
O O4 0.281337 0.184021 0.753125
O O5 0.153712 0.918777 0.287106
O O6 0.248192 0.072386 0.154493
O O7 0.319066 0.119445 0.335630
O O8 0.117587 0.063936 0.320842
O O9 0.349062 0.937710 0.361769
O O10 0.489304 0.124734 0.291220
O O11 0.465793 0.256025 0.430960
O O12 0.267666 0.128649 0.551363
O O13 0.583630 0.220979 0.011710
O O14 0.000000 0.000000 0.500639
#
# Coordination Sequence:
#
# PCOD9574727 Si02
#       8
#     9   9   9   9   9   9   3   3
#     4  11  24  44  70 105 147 185 244 305 366 438
#     4  10  21  41  71 100 144 187 239 299 374 440
#     4  10  22  44  73  96 143 195 238 294 365 449
#     4  11  23  43  69 107 142 184 243 304 375 439
#     4  10  21  44  67 101 134 193 237 291 369 446
#     4  12  24  47  70 106 148 194 247 310 366 460
#     4  12  24  42  72 112 152 184 249 333 363 456
#     4  12  27  45  72 109 146 202 249 306 396 432
#
# _framework density 26.033550000000002
#
# number of rings (size 3 to 8) (size 9 to 14) (size 15 to 20)
#    0.000    1.200    3.000    3.600    0.000    1.200 
#   16.200    0.000    0.000    0.000    0.000    0.000 
#    0.000    0.000    0.000    0.000    0.000    0.000 
#
# Total GULP energy -111550.685531 kJ/mol
# GULP energy per Si atom -5577.534277 kJ/mol
# Density = 2.597430 g / cm^3
# Si number density = 26.033550 Si / 1000 Ang^3
#
#
#
# Elastic Constant Matrix: (Units=GPa)
#
#
# Indices 1 2 3 4 5 6 
#
# 1 100.5665 27.9501 18.2917 4.8800 -5.4168 0.0002
# 2 27.9501 100.5661 18.2907 -4.8799 5.4169 -0.0003
# 3 18.2917 18.2907 62.4634 0.0000 -0.0001 0.0004
# 4 4.8800 -4.8799 0.0000 29.3246 -0.0001 5.4168
# 5 -5.4168 5.4169 -0.0001 -0.0001 29.3248 4.8800
# 6 0.0002 -0.0003 0.0004 5.4168 4.8800 36.3082
#
#
#
# Elastic Compliance Matrix: (Units=1/GPa)
#
#
# Indices 1 2 3 4 5 6 
#
# 1 0.011492 -0.003003 -0.002486 -0.002412 0.002677 0.000000
# 2 -0.003003 0.011492 -0.002486 0.002412 -0.002677 0.000000
# 3 -0.002486 -0.002486 0.017465 0.000000 0.000000 0.000000
# 4 -0.002412 0.002412 0.000000 0.035893 0.000000 -0.005355
# 5 0.002677 -0.002677 0.000000 0.000000 0.035893 -0.004824
# 6 0.000000 0.000000 0.000000 -0.005355 -0.004824 0.028989
#
#
# Mechanical properties :
#
#
# Convention : Reuss Voigt Hill
#
# Bulk Modulus (GPa) = 40.81705 43.62898 42.22302
# Shear Modulus (GPa) = 30.24088 32.26242 31.25165
#
# Velocity S-wave (km/s) = 3.41194 3.52414 3.46849
# Velocity P-wave (km/s) = 5.58878 5.77534 5.68282
#
# Compressibility (1/GPa) = 0.02449956
#
# Stress axis : x y z
#
# Youngs Moduli (GPa) = 87.01940 87.01953 57.25684
#
# Poissons Ratio (x) = 0.26132 0.14233
# Poissons Ratio (y) = 0.26132 0.14232
# Poissons Ratio (z) = 0.21632 0.21630
#
# Static dielectric constant tensor:
#      x y z
#    x 2.174480 0.000000 0.000000 
#    y 0.000000 2.174480 0.000000 
#    z 0.000000 0.000000 2.394440 
# 
# From -- ./inp_files/1569.got.cif
#   From: 2010.05.17/outbox.cif.g08.bks.cpg/sg146_cif.got.tgz:1569.got - 2010.05.20 13:48:23.
