data_PCOD9574055
_publ_section_title
;
Structure prediction by ZEFSAII (Michael W. Deem and Ramdas Pophale) SiO2 
 PCOD9574055
Probable space group: I 41/A C D
;
_chemical_formula_sum "Si O2"
_cell_formula_units_Z 192
_cell_length_a 20.180487
_cell_length_b 20.180487
_cell_length_c 23.394336
_cell_angle_alpha 90.000000
_cell_angle_beta 90.000000
_cell_angle_gamma 90.000000
_cell_volume 9527.391424
_symmetry_space_group_name_H-M "I 41/A C D"
_symmetry_group_IT_number 142
_space_group.IT_coordinate_system_code '2'
_symmetry_cell_setting 'tetragonal'
loop_
_space_group_symop_operation_xyz
x,y,z
1/4-y,3/4+x,1/4+z
-x,1/2-y,z
1/4+y,1/4-x,3/4+z
x,-y,1/2-z
1/2-x,y,-z
3/4+y,1/4+x,1/4-z
1/4-y,1/4-x,1/4-z
-x,-y,-z
3/4+y,1/4-x,3/4-z
x,1/2+y,-z
3/4-y,3/4+x,1/4-z
-x,y,1/2+z
1/2+x,-y,z
1/4-y,3/4-x,3/4+z
3/4+y,3/4+x,3/4+z
1/2+x,1/2+y,1/2+z
3/4-y,1/4+x,3/4+z
1/2-x,-y,1/2+z
3/4+y,3/4-x,1/4+z
1/2+x,1/2-y,-z
-x,1/2+y,1/2-z
1/4+y,3/4+x,3/4-z
3/4-y,3/4-x,3/4-z
1/2-x,1/2-y,1/2-z
1/4+y,3/4-x,1/4-z
1/2+x,y,1/2-z
1/4-y,1/4+x,3/4-z
1/2-x,1/2+y,z
x,1/2-y,1/2+z
3/4-y,1/4-x,1/4+z
1/4+y,1/4+x,1/4+z
loop_
_atom_site_type_symbol
_atom_site_label
_atom_site_fract_x
_atom_site_fract_y
_atom_site_fract_z
Si Si1 0.695835 0.420319 0.744254
Si Si2 0.877321 0.418619 0.465448
Si Si3 0.468385 0.144046 0.626236
Si Si4 0.044787 0.921433 0.248819
Si Si5 0.634281 0.824335 0.574497
Si Si6 0.758355 0.602645 0.119139
O O1 0.708774 0.500000 0.750000
O O2 0.752948 0.380539 0.776626
O O3 0.621257 0.409010 0.764388
O O4 0.702657 0.396536 0.678659
O O5 0.938851 0.396964 0.426633
O O6 0.876795 0.381060 0.526154
O O7 0.810771 0.398115 0.431707
O O8 0.541713 0.171646 0.615597
O O9 0.467844 0.103186 0.684602
O O10 0.994318 0.886658 0.291646
O O11 0.033128 0.000000 0.250000
O O12 0.581483 0.831483 0.625000
O O13 0.704699 0.841013 0.604833
O O14 0.714011 0.535990 0.125000
#
# Coordination Sequence:
#
# PCOD9574055 Si02
#       6
#    32  32  32  32  32  32
#     4  11  21  36  63 108 147 181 219 285 360 414
#     4  12  20  38  68  97 136 181 234 281 339 417
#     4  11  25  45  72  94 128 187 242 285 336 419
#     4  11  24  42  69 103 140 176 228 290 361 415
#     4  11  22  38  69 104 133 178 230 283 341 411
#     4  11  19  32  63 103 139 177 224 278 343 405
#
# _framework density 20.152419999999999
#
# number of rings (size 3 to 8) (size 9 to 14) (size 15 to 20)
#    0.000    0.833    8.333    1.500    0.000    0.000 
#    0.000    0.833    3.667    1.000    0.000    0.000 
#    0.000    0.000    0.000    0.000    0.000    0.000 
#
# Total GULP energy -536674.078572 kJ/mol
# GULP energy per Si atom -5590.354985 kJ/mol
# Density = 2.010655 g / cm^3
# Si number density = 20.152420 Si / 1000 Ang^3
#
#
#
# Elastic Constant Matrix: (Units=GPa)
#
#
# Indices 1 2 3 4 5 6 
#
# 1 91.7694 31.4775 65.0019 0.0000 0.0000 0.0000
# 2 31.4775 91.7702 65.0011 0.0000 0.0000 0.0000
# 3 65.0019 65.0011 130.2620 0.0000 0.0000 0.0000
# 4 0.0000 0.0000 0.0000 33.4348 0.0000 0.0000
# 5 0.0000 0.0000 0.0000 0.0000 33.4343 0.0000
# 6 0.0000 0.0000 0.0000 0.0000 0.0000 26.3260
#
#
#
# Elastic Compliance Matrix: (Units=1/GPa)
#
#
# Indices 1 2 3 4 5 6 
#
# 1 0.016858 0.000272 -0.008548 0.000000 0.000000 0.000000
# 2 0.000272 0.016858 -0.008548 0.000000 0.000000 0.000000
# 3 -0.008548 -0.008548 0.016208 0.000000 0.000000 0.000000
# 4 0.000000 0.000000 0.000000 0.029909 0.000000 0.000000
# 5 0.000000 0.000000 0.000000 0.000000 0.029909 0.000000
# 6 0.000000 0.000000 0.000000 0.000000 0.000000 0.037985
#
#
# Mechanical properties :
#
#
# Convention : Reuss Voigt Hill
#
# Bulk Modulus (GPa) = 61.43929 70.75141 66.09535
# Shear Modulus (GPa) = 26.76633 28.79378 27.78005
#
# Velocity S-wave (km/s) = 3.64839 3.78405 3.71684
# Velocity P-wave (km/s) = 6.94991 7.36725 7.16162
#
# Compressibility (1/GPa) = 0.01627623
#
# Stress axis : x y z
#
# Youngs Moduli (GPa) = 59.31747 59.31893 61.69755
#
# Poissons Ratio (x) = -0.01616 0.52742
# Poissons Ratio (y) = -0.01616 0.52740
# Poissons Ratio (z) = 0.50707 0.50706
#
# Static dielectric constant tensor:
#      x y z
#    x 1.726120 0.000000 0.000000 
#    y 0.000000 1.726120 0.000000 
#    z 0.000000 0.000000 1.697660 
# 
# From -- ./inp_files/10400.got.cif
#   From: 2010.05.17/outbox.cif.g08.bks.cpg/sg142_6_cif.got.tgz:10400.got - 2010.05.20 13:39:18.
