data_PCOD9574144
_publ_section_title
;
Structure prediction by ZEFSAII (Michael W. Deem and Ramdas Pophale) SiO2 
 PCOD9574144
Probable space group: I 41/A C D
;
_chemical_formula_sum "Si O2"
_cell_formula_units_Z 112
_cell_length_a 13.379896
_cell_length_b 13.379896
_cell_length_c 28.535496
_cell_angle_alpha 90.000000
_cell_angle_beta 90.000000
_cell_angle_gamma 90.000000
_cell_volume 5108.470635
_symmetry_space_group_name_H-M "I 41/A C D"
_symmetry_group_IT_number 142
_space_group.IT_coordinate_system_code '2'
_symmetry_cell_setting 'tetragonal'
loop_
_space_group_symop_operation_xyz
x,y,z
1/4-y,3/4+x,1/4+z
-x,1/2-y,z
1/4+y,1/4-x,3/4+z
x,-y,1/2-z
1/2-x,y,-z
3/4+y,1/4+x,1/4-z
1/4-y,1/4-x,1/4-z
-x,-y,-z
3/4+y,1/4-x,3/4-z
x,1/2+y,-z
3/4-y,3/4+x,1/4-z
-x,y,1/2+z
1/2+x,-y,z
1/4-y,3/4-x,3/4+z
3/4+y,3/4+x,3/4+z
1/2+x,1/2+y,1/2+z
3/4-y,1/4+x,3/4+z
1/2-x,-y,1/2+z
3/4+y,3/4-x,1/4+z
1/2+x,1/2-y,-z
-x,1/2+y,1/2-z
1/4+y,3/4+x,3/4-z
3/4-y,3/4-x,3/4-z
1/2-x,1/2-y,1/2-z
1/4+y,3/4-x,1/4-z
1/2+x,y,1/2-z
1/4-y,1/4+x,3/4-z
1/2-x,1/2+y,z
x,1/2-y,1/2+z
3/4-y,1/4-x,1/4+z
1/4+y,1/4+x,1/4+z
loop_
_atom_site_type_symbol
_atom_site_label
_atom_site_fract_x
_atom_site_fract_y
_atom_site_fract_z
Si Si1 0.879995 0.659489 0.148199
Si Si2 0.831488 0.581488 0.875000
Si Si3 0.658260 0.269629 0.463413
Si Si4 0.533311 0.885267 0.002712
O O1 0.866359 0.770668 0.126133
O O2 0.780023 0.595445 0.144222
O O3 0.896574 0.672962 0.202940
O O4 0.919050 0.584752 0.835395
O O5 0.750000 0.273487 0.500000
O O6 0.615124 0.155879 0.459901
O O7 0.568965 0.328873 0.488077
O O8 0.500000 0.000000 0.000000
#
# Coordination Sequence:
#
# PCOD9574144 Si02
#       4
#    32  16  32  32
#     4  11  23  47  72  97 140 190 240 290 363 441
#     4  12  24  45  72 113 136 188 252 300 362 437
#     4  11  24  45  72 102 141 187 240 301 360 441
#     4  11  23  45  67  98 142 185 226 297 371 424
#
# _framework density 21.924368999999999
#
# number of rings (size 3 to 8) (size 9 to 14) (size 15 to 20)
#    0.000    0.857    2.857    6.857    0.000    3.429 
#   15.429    0.000    0.000    0.000    0.000    0.000 
#    0.000    0.000    0.000    0.000    0.000    0.000 
#
# Total GULP energy -312426.212358 kJ/mol
# GULP energy per Si atom -5579.039506 kJ/mol
# Density = 2.187447 g / cm^3
# Si number density = 21.924369 Si / 1000 Ang^3
#
#
#
# Elastic Constant Matrix: (Units=GPa)
#
#
# Indices 1 2 3 4 5 6 
#
# 1 91.9800 26.5925 17.9946 0.0000 0.0000 0.0000
# 2 26.5925 91.9800 17.9946 0.0000 0.0000 0.0000
# 3 17.9946 17.9946 77.9810 0.0000 0.0000 0.0000
# 4 0.0000 0.0000 0.0000 16.5469 0.0000 0.0000
# 5 0.0000 0.0000 0.0000 0.0000 16.5469 0.0000
# 6 0.0000 0.0000 0.0000 0.0000 0.0000 21.3494
#
#
#
# Elastic Compliance Matrix: (Units=1/GPa)
#
#
# Indices 1 2 3 4 5 6 
#
# 1 0.012181 -0.003112 -0.002093 0.000000 0.000000 0.000000
# 2 -0.003112 0.012181 -0.002093 0.000000 0.000000 0.000000
# 3 -0.002093 -0.002093 0.013789 0.000000 0.000000 0.000000
# 4 0.000000 0.000000 0.000000 0.060434 0.000000 0.000000
# 5 0.000000 0.000000 0.000000 0.000000 0.060434 0.000000
# 6 0.000000 0.000000 0.000000 0.000000 0.000000 0.046840
#
#
# Mechanical properties :
#
#
# Convention : Reuss Voigt Hill
#
# Bulk Modulus (GPa) = 42.45142 43.01162 42.73152
# Shear Modulus (GPa) = 21.90028 24.17924 23.03976
#
# Velocity S-wave (km/s) = 3.16397 3.32452 3.24524
# Velocity P-wave (km/s) = 5.72296 5.86492 5.79438
#
# Compressibility (1/GPa) = 0.02355634
#
# Stress axis : x y z
#
# Youngs Moduli (GPa) = 82.09408 82.09408 72.51924
#
# Poissons Ratio (x) = 0.25550 0.15176
# Poissons Ratio (y) = 0.25550 0.15176
# Poissons Ratio (z) = 0.17180 0.17180
#
# Static dielectric constant tensor:
#      x y z
#    x 1.808950 0.000000 0.000000 
#    y 0.000000 1.808950 0.000000 
#    z 0.000000 0.000000 3.263120 
# 
# From -- ./inp_files/11047.got.cif
#   From: 2010.05.17/outbox.cif.g08.bks.cpg/sg142_6_cif.got.tgz:11047.got - 2010.05.20 13:39:18.
