data_PCOD9574887
_publ_section_title
;
Structure prediction by ZEFSAII (Michael W. Deem and Ramdas Pophale) SiO2 
 PCOD9574887
Probable space group: P -3
;
_chemical_formula_sum "Si O2"
_cell_formula_units_Z 48
_cell_length_a 12.743474
_cell_length_b 12.743474
_cell_length_c 21.283206
_cell_angle_alpha 90.000000
_cell_angle_beta 90.000000
_cell_angle_gamma 120.000000
_cell_volume 2993.252506
_symmetry_space_group_name_H-M "P -3"
_symmetry_group_IT_number 147
_symmetry_cell_setting 'hexagonal'
loop_
_space_group_symop_operation_xyz
x,y,z
-y,x-y,z
-x+y,-x,z
-x,-y,-z
y,-x+y,-z
x-y,x,-z
loop_
_atom_site_type_symbol
_atom_site_label
_atom_site_fract_x
_atom_site_fract_y
_atom_site_fract_z
Si Si1 0.333889 0.417252 0.257233
Si Si2 0.251267 0.251197 0.862465
Si Si3 0.333187 0.416941 0.621541
Si Si4 0.916246 0.583059 0.378459
Si Si5 0.582748 0.666111 0.257233
Si Si6 1.000000 0.749972 0.000000
Si Si7 0.249555 1.000000 0.500000
Si Si8 0.251267 0.000071 0.862465
O O1 0.356140 0.353847 0.317028
O O2 0.448623 0.551377 0.252383
O O3 0.210778 0.421557 0.265129
O O4 0.320260 0.341730 0.194198
O O5 0.341731 0.320260 0.805802
O O6 0.125965 0.251931 0.855194
O O7 0.226037 0.113019 0.860921
O O8 0.306016 0.303341 0.931879
O O9 0.215615 0.431231 0.629628
O O10 0.453118 0.546882 0.612678
O O11 0.353847 0.356140 0.682972
O O12 0.309870 0.332843 0.560920
O O13 0.977026 0.667157 0.439080
O O14 0.002675 0.696659 0.068121
O O15 0.881810 0.763620 0.002255
O O16 0.118629 0.881371 0.491049
#
# Coordination Sequence:
#
# PCOD9574887 Si02
#       8
#     6   6   6   6   6   6   6   6
#     4  10  20  33  48  66  90 122 158 193 228 268
#     4   9  16  27  45  69  94 118 146 184 231 279
#     4  10  20  34  52  73  96 122 153 190 231 273
#     4  10  20  34  52  73  96 122 153 190 231 273
#     4  10  20  33  48  66  90 122 158 193 228 268
#     4   8  13  22  39  64  92 118 144 178 224 276
#     4  10  20  34  52  74 100 128 156 186 222 266
#     4   9  16  27  45  69  94 118 146 184 231 279
#
# _framework density 16.036068
#
# number of rings (size 3 to 8) (size 9 to 14) (size 15 to 20)
#    0.000    2.500    0.000    2.875    0.000    2.000 
#    0.000    0.625    0.000   16.500    0.000    0.000 
#    0.000    0.000    0.000    0.000    0.000    0.000 
#
# Total GULP energy -267448.719575 kJ/mol
# GULP energy per Si atom -5571.848324 kJ/mol
# Density = 1.599957 g / cm^3
# Si number density = 16.036068 Si / 1000 Ang^3
#
#
#
# Elastic Constant Matrix: (Units=GPa)
#
#
# Indices 1 2 3 4 5 6 
#
# 1 92.4815 58.5344 88.1649 1.6243 0.0000 0.0000
# 2 58.5344 92.4815 88.1649 -1.6243 0.0000 0.0000
# 3 88.1649 88.1649 176.4430 0.0000 0.0000 0.0000
# 4 1.6243 -1.6243 0.0000 25.0739 0.0000 0.0000
# 5 0.0000 0.0000 0.0000 0.0000 25.0739 1.6243
# 6 0.0000 0.0000 0.0000 0.0000 1.6243 16.9736
#
#
#
# Elastic Compliance Matrix: (Units=1/GPa)
#
#
# Indices 1 2 3 4 5 6 
#
# 1 0.022769 -0.006873 -0.007943 -0.001920 0.000000 0.000000
# 2 -0.006873 0.022769 -0.007943 0.001920 0.000000 0.000000
# 3 -0.007943 -0.007943 0.013606 0.000000 0.000000 0.000000
# 4 -0.001920 0.001920 0.000000 0.040131 0.000000 0.000000
# 5 0.000000 0.000000 0.000000 0.000000 0.040131 -0.003840
# 6 0.000000 0.000000 0.000000 0.000000 -0.003840 0.059283
#
#
# Mechanical properties :
#
#
# Convention : Reuss Voigt Hill
#
# Bulk Modulus (GPa) = 73.38949 92.34825 82.86887
# Shear Modulus (GPa) = 20.10074 21.86038 20.98056
#
# Velocity S-wave (km/s) = 3.54428 3.69616 3.62102
# Velocity P-wave (km/s) = 7.91289 8.71369 8.32293
#
# Compressibility (1/GPa) = 0.01362593
#
# Stress axis : x y z
#
# Youngs Moduli (GPa) = 43.91965 43.91965 73.49952
#
# Poissons Ratio (x) = 0.30184 0.58381
# Poissons Ratio (y) = 0.30184 0.58381
# Poissons Ratio (z) = 0.34886 0.34886
#
# Static dielectric constant tensor:
#      x y z
#    x 1.503580 0.000000 0.000000 
#    y 0.000000 1.503580 0.000000 
#    z 0.000000 0.000000 1.554950 
# 
# From -- ./inp_files/1090.got.cif
#   From: 2010.05.17/outbox.cif.g08.bks.cpg/sg147_cif.got.tgz:1090.got - 2010.05.20 13:49:32.
