data_PCOD9574968
_publ_section_title
;
Structure prediction by ZEFSAII (Michael W. Deem and Ramdas Pophale) SiO2 
 PCOD9574968
Probable space group: P -3
;
_chemical_formula_sum "Si O2"
_cell_formula_units_Z 42
_cell_length_a 11.477680
_cell_length_b 11.477680
_cell_length_c 18.242477
_cell_angle_alpha 90.000000
_cell_angle_beta 90.000000
_cell_angle_gamma 120.000000
_cell_volume 2081.242394
_symmetry_space_group_name_H-M "P -3"
_symmetry_group_IT_number 147
_symmetry_cell_setting 'hexagonal'
loop_
_space_group_symop_operation_xyz
x,y,z
-y,x-y,z
-x+y,-x,z
-x,-y,-z
y,-x+y,-z
x-y,x,-z
loop_
_atom_site_type_symbol
_atom_site_label
_atom_site_fract_x
_atom_site_fract_y
_atom_site_fract_z
Si Si1 0.288015 0.001180 0.155036
Si Si2 0.730239 0.728155 0.837004
Si Si3 0.277577 0.233288 0.472169
Si Si4 0.379545 0.297419 0.320304
Si Si5 0.279461 0.001274 0.996226
Si Si6 0.580859 0.957703 0.693652
Si Si7 0.669331 0.181514 0.577110
O O1 0.260454 0.126309 0.160152
O O2 0.263842 0.132914 0.998602
O O3 0.385136 0.010005 0.220403
O O4 0.142032 0.869616 0.163683
O O5 0.663875 0.674177 0.758431
O O6 0.662761 0.662557 0.915805
O O7 0.166250 0.248336 0.516658
O O8 0.279664 0.270660 0.387562
O O9 0.425393 0.323209 0.506991
O O10 0.387460 0.161546 0.319607
O O11 0.524585 0.427889 0.330645
O O12 0.343195 0.346344 0.926044
O O13 0.664429 0.093164 0.646354
O O14 0.792200 0.335699 0.577210
#
# Coordination Sequence:
#
# PCOD9574968 Si02
#       7
#     6   6   6   6   6   6   6
#     4   9  18  31  56  85 120 152 194 241 299 358
#     4   9  18  31  54  85 115 154 189 245 297 356
#     4  12  26  44  65  92 125 159 198 248 305 361
#     4  11  25  39  62  83 120 154 208 244 301 358
#     4   8  13  26  47  80 116 149 190 234 294 351
#     4  11  23  42  59  90 117 161 200 253 295 354
#     4  10  25  43  66  90 120 155 204 258 297 349
#
# _framework density 20.180254999999999
#
# number of rings (size 3 to 8) (size 9 to 14) (size 15 to 20)
#    0.286    1.714    1.429    1.714    6.000    3.429 
#    0.000    0.714    0.000    0.000    0.000    0.000 
#    0.000    0.000    0.000    0.000    0.000    0.000 
#
# Total GULP energy -233979.645573 kJ/mol
# GULP energy per Si atom -5570.943942 kJ/mol
# Density = 2.013432 g / cm^3
# Si number density = 20.180255 Si / 1000 Ang^3
#
#
#
# Elastic Constant Matrix: (Units=GPa)
#
#
# Indices 1 2 3 4 5 6 
#
# 1 61.3641 20.8929 32.9435 -0.0688 0.8394 0.0000
# 2 20.8929 61.3641 32.9435 0.0688 -0.8394 0.0000
# 3 32.9435 32.9435 141.7730 0.0000 0.0000 0.0000
# 4 -0.0688 0.0688 0.0000 7.0417 0.0000 -0.8394
# 5 0.8394 -0.8394 0.0000 0.0000 7.0417 -0.0688
# 6 0.0000 0.0000 0.0000 -0.8394 -0.0688 20.2356
#
#
#
# Elastic Compliance Matrix: (Units=1/GPa)
#
#
# Indices 1 2 3 4 5 6 
#
# 1 0.019885 -0.004948 -0.003471 0.000243 -0.002960 0.000000
# 2 -0.004948 0.019885 -0.003471 -0.000243 0.002960 0.000000
# 3 -0.003471 -0.003471 0.008667 0.000000 0.000000 0.000000
# 4 0.000243 -0.000243 0.000000 0.142721 0.000000 0.005920
# 5 -0.002960 0.002960 0.000000 0.000000 0.142721 0.000485
# 6 0.000000 0.000000 0.000000 0.005920 0.000485 0.049665
#
#
# Mechanical properties :
#
#
# Convention : Reuss Voigt Hill
#
# Bulk Modulus (GPa) = 40.55598 48.67346 44.61472
# Shear Modulus (GPa) = 12.03248 18.71188 15.37218
#
# Velocity S-wave (km/s) = 2.44447 3.04836 2.76296
# Velocity P-wave (km/s) = 5.30167 6.04663 5.68636
#
# Compressibility (1/GPa) = 0.02465728
#
# Stress axis : x y z
#
# Youngs Moduli (GPa) = 50.28944 50.28944 115.38557
#
# Poissons Ratio (x) = 0.24882 0.40050
# Poissons Ratio (y) = 0.24882 0.40050
# Poissons Ratio (z) = 0.17455 0.17455
#
# Static dielectric constant tensor:
#      x y z
#    x 1.691900 0.000000 0.000000 
#    y 0.000000 1.691900 0.000000 
#    z 0.000000 0.000000 1.789840 
# 
# From -- ./inp_files/1026.got.cif
#   From: 2010.05.17/outbox.cif.g08.bks.cpg/sg147_cif.got.tgz:1026.got - 2010.05.20 13:49:32.
