data_PCOD9574891
_publ_section_title
;
Structure prediction by ZEFSAII (Michael W. Deem and Ramdas Pophale) SiO2 
 PCOD9574891
Probable space group: P -3
;
_chemical_formula_sum "Si O2"
_cell_formula_units_Z 48
_cell_length_a 12.895315
_cell_length_b 12.895315
_cell_length_c 20.924136
_cell_angle_alpha 90.000000
_cell_angle_beta 90.000000
_cell_angle_gamma 120.000000
_cell_volume 3013.297952
_symmetry_space_group_name_H-M "P -3"
_symmetry_group_IT_number 147
_symmetry_cell_setting 'hexagonal'
loop_
_space_group_symop_operation_xyz
x,y,z
-y,x-y,z
-x+y,-x,z
-x,-y,-z
y,-x+y,-z
x-y,x,-z
loop_
_atom_site_type_symbol
_atom_site_label
_atom_site_fract_x
_atom_site_fract_y
_atom_site_fract_z
Si Si1 0.912306 0.332674 0.943110
Si Si2 0.420661 0.333682 0.560703
Si Si3 0.332673 0.912305 0.056890
Si Si4 0.666318 0.579339 0.560703
Si Si5 0.666269 0.086247 0.798233
Si Si6 0.913753 0.333731 0.798233
Si Si7 0.754240 0.753902 0.681393
Si Si8 0.754240 0.000338 0.681394
O O1 0.787688 0.212313 0.950371
O O2 0.892833 0.446417 0.947667
O O3 0.957126 0.335209 0.870800
O O4 0.000000 0.345171 1.000000
O O5 0.551014 0.448987 0.572353
O O6 0.431168 0.215584 0.549391
O O7 0.363564 0.363564 0.500000
O O8 0.334856 0.306661 0.621627
O O9 0.335209 0.957125 0.129200
O O10 0.693339 0.665144 0.621626
O O11 0.776924 0.223076 0.794496
O O12 0.541909 0.083818 0.786496
O O13 0.692331 0.012636 0.745589
O O14 0.987364 0.307669 0.745589
O O15 0.746221 0.873111 0.675901
O O16 0.892246 0.784492 0.682926
#
# Coordination Sequence:
#
# PCOD9574891 Si02
#       8
#     6   6   6   6   6   6   6   6
#     4   9  17  29  46  68  93 122 156 194 236 281
#     4  10  20  34  53  76 101 129 161 197 236 278
#     4   9  17  29  46  68  93 122 156 194 236 281
#     4  10  20  34  53  76 101 129 161 197 236 278
#     4   9  17  30  49  71  93 119 154 197 241 283
#     4   9  17  30  49  71  93 119 154 197 241 283
#     4  10  20  33  49  69  94 124 157 193 234 280
#     4  10  20  33  49  69  94 124 157 193 234 280
#
# _framework density 15.92939
#
# number of rings (size 3 to 8) (size 9 to 14) (size 15 to 20)
#    0.000    2.500    0.000    2.500    0.000    3.000 
#    0.000    2.500    0.000    9.750    0.000    0.000 
#    0.000    0.000    0.000    0.000    0.000    0.000 
#
# Total GULP energy -267618.160400 kJ/mol
# GULP energy per Si atom -5575.378342 kJ/mol
# Density = 1.589313 g / cm^3
# Si number density = 15.929390 Si / 1000 Ang^3
#
#
#
# Elastic Constant Matrix: (Units=GPa)
#
#
# Indices 1 2 3 4 5 6 
#
# 1 95.9462 73.2721 77.3949 -1.1632 -0.0002 0.0000
# 2 73.2721 95.9462 77.3949 1.1632 0.0002 0.0000
# 3 77.3949 77.3949 131.3920 0.0000 0.0000 0.0000
# 4 -1.1632 1.1632 0.0000 22.8533 0.0000 0.0002
# 5 -0.0002 0.0002 0.0000 0.0000 22.8533 -1.1632
# 6 0.0000 0.0000 0.0000 0.0002 -1.1632 11.3371
#
#
#
# Elastic Compliance Matrix: (Units=1/GPa)
#
#
# Indices 1 2 3 4 5 6 
#
# 1 0.028574 -0.015760 -0.007548 0.002257 0.000000 0.000000
# 2 -0.015760 0.028574 -0.007548 -0.002257 0.000000 0.000000
# 3 -0.007548 -0.007548 0.016503 0.000000 0.000000 0.000000
# 4 0.002257 -0.002257 0.000000 0.043987 0.000000 -0.000001
# 5 0.000000 0.000000 0.000000 0.000000 0.043987 0.004513
# 6 0.000000 0.000000 0.000000 -0.000001 0.004513 0.088669
#
#
# Mechanical properties :
#
#
# Convention : Reuss Voigt Hill
#
# Bulk Modulus (GPa) = 83.75885 86.60087 85.17986
# Shear Modulus (GPa) = 15.82347 17.75691 16.79019
#
# Velocity S-wave (km/s) = 3.15517 3.34237 3.25012
# Velocity P-wave (km/s) = 8.12212 8.32939 8.22641
#
# Compressibility (1/GPa) = 0.01193904
#
# Stress axis : x y z
#
# Youngs Moduli (GPa) = 34.99658 34.99658 60.59626
#
# Poissons Ratio (x) = 0.55156 0.45737
# Poissons Ratio (y) = 0.55156 0.45737
# Poissons Ratio (z) = 0.26415 0.26415
#
# Static dielectric constant tensor:
#      x y z
#    x 1.501600 0.000000 0.000000 
#    y 0.000000 1.501600 0.000000 
#    z 0.000000 0.000000 1.542530 
# 
# From -- ./inp_files/1081.got.cif
#   From: 2010.05.17/outbox.cif.g08.bks.cpg/sg147_cif.got.tgz:1081.got - 2010.05.20 13:49:32.
