data_PCOD9574879
_publ_section_title
;
Structure prediction by ZEFSAII (Michael W. Deem and Ramdas Pophale) SiO2 
 PCOD9574879
Probable space group: P -3
;
_chemical_formula_sum "Si O2"
_cell_formula_units_Z 48
_cell_length_a 20.372243
_cell_length_b 20.372243
_cell_length_c 9.097941
_cell_angle_alpha 90.000000
_cell_angle_beta 90.000000
_cell_angle_gamma 120.000000
_cell_volume 3270.027789
_symmetry_space_group_name_H-M "P -3"
_symmetry_group_IT_number 147
_symmetry_cell_setting 'hexagonal'
loop_
_space_group_symop_operation_xyz
x,y,z
-y,x-y,z
-x+y,-x,z
-x,-y,-z
y,-x+y,-z
x-y,x,-z
loop_
_atom_site_type_symbol
_atom_site_label
_atom_site_fract_x
_atom_site_fract_y
_atom_site_fract_z
Si Si1 0.254424 0.754773 0.726862
Si Si2 0.254424 0.499652 0.226862
Si Si3 0.138606 0.457814 0.977333
Si Si4 0.984691 0.562643 0.575194
Si Si5 0.319207 0.457814 0.477334
Si Si6 0.634105 0.451084 0.030655
Si Si7 0.548915 0.365895 0.530656
Si Si8 0.577952 0.562643 0.075194
O O1 0.183840 0.729500 0.618241
O O2 0.235121 0.685453 0.836658
O O3 0.325548 0.777667 0.620654
O O4 0.272175 0.825864 0.829948
O O5 0.183841 0.454341 0.118239
O O6 0.272174 0.446311 0.329949
O O7 0.235121 0.549668 0.336657
O O8 0.325549 0.547882 0.120655
O O9 0.049043 0.408727 0.003029
O O10 0.162350 0.547252 0.966704
O O11 0.049043 0.640317 0.503027
O O12 0.000001 0.566284 0.750000
O O13 0.000000 0.500000 0.500000
O O14 0.896293 0.530621 0.546350
O O15 0.384902 0.547252 0.466704
O O16 0.634328 0.530620 0.046349
O O17 0.500000 0.500000 0.000000
#
# Coordination Sequence:
#
# PCOD9574879 Si02
#       8
#     6   6   6   6   6   6   6   6
#     4  10  20  32  42  62  86 102 128 171 222 263
#     4  10  20  32  42  62  86 102 128 171 222 263
#     4  10  20  34  46  61  82 108 142 171 215 260
#     4  10  20  32  52  60  76 102 148 184 204 245
#     4  10  20  34  46  61  82 108 142 171 215 260
#     4  10  20  34  46  61  82 108 142 171 215 260
#     4  10  20  34  46  61  82 108 142 171 215 260
#     4  10  20  32  52  60  76 102 148 184 204 245
#
# _framework density 14.678774000000001
#
# number of rings (size 3 to 8) (size 9 to 14) (size 15 to 20)
#    0.000    2.000    2.500    1.500   10.500    0.000 
#   30.000    0.000    0.000    0.000    0.000    0.000 
#    0.000    0.000    0.000    0.000    0.000    0.000 
#
# Total GULP energy -267631.786809 kJ/mol
# GULP energy per Si atom -5575.662225 kJ/mol
# Density = 1.464536 g / cm^3
# Si number density = 14.678774 Si / 1000 Ang^3
#
#
#
# Elastic Constant Matrix: (Units=GPa)
#
#
# Indices 1 2 3 4 5 6 
#
# 1 55.6116 21.8818 25.4022 -2.1170 -0.0001 0.0000
# 2 21.8818 55.6116 25.4022 2.1170 0.0001 0.0000
# 3 25.4022 25.4022 96.6474 0.0000 0.0000 0.0000
# 4 -2.1170 2.1170 0.0000 16.8354 0.0000 0.0001
# 5 -0.0001 0.0001 0.0000 0.0000 16.8354 -2.1170
# 6 0.0000 0.0000 0.0000 0.0001 -2.1170 16.8649
#
#
#
# Elastic Compliance Matrix: (Units=1/GPa)
#
#
# Indices 1 2 3 4 5 6 
#
# 1 0.022857 -0.007266 -0.004098 0.003788 0.000000 0.000000
# 2 -0.007266 0.022857 -0.004098 -0.003788 0.000000 0.000000
# 3 -0.004098 -0.004098 0.012501 0.000000 0.000000 0.000000
# 4 0.003788 -0.003788 0.000000 0.060351 0.000000 0.000000
# 5 0.000000 0.000000 0.000000 0.000000 0.060351 0.007576
# 6 0.000000 0.000000 0.000000 0.000000 0.007576 0.060246
#
#
# Mechanical properties :
#
#
# Convention : Reuss Voigt Hill
#
# Bulk Modulus (GPa) = 36.64153 39.24921 37.94537
# Shear Modulus (GPa) = 17.90937 19.11943 18.51440
#
# Velocity S-wave (km/s) = 3.49676 3.61296 3.55534
# Velocity P-wave (km/s) = 6.42803 6.64842 6.53915
#
# Compressibility (1/GPa) = 0.02729143
#
# Stress axis : x y z
#
# Youngs Moduli (GPa) = 43.75057 43.75057 79.99383
#
# Poissons Ratio (x) = 0.31789 0.32780
# Poissons Ratio (y) = 0.31789 0.32780
# Poissons Ratio (z) = 0.17928 0.17928
#
# Static dielectric constant tensor:
#      x y z
#    x 1.496370 0.000000 0.000000 
#    y 0.000000 1.496370 0.000000 
#    z 0.000000 0.000000 1.523630 
# 
# From -- ./inp_files/710.got.cif
#   From: 2010.05.17/outbox.cif.g08.bks.cpg/sg147_cif.got.tgz:710.got - 2010.05.20 13:49:32.
