data_PCOD9574701
_publ_section_title
;
Structure prediction by ZEFSAII (Michael W. Deem and Ramdas Pophale) SiO2 
 PCOD9574701
Probable space group: R 3
;
_chemical_formula_sum "Si O2"
_cell_formula_units_Z 51
_cell_length_a 11.882484
_cell_length_b 11.882484
_cell_length_c 17.743070
_cell_angle_alpha 90.000000
_cell_angle_beta 90.000000
_cell_angle_gamma 120.000000
_cell_volume 2169.571034
_symmetry_space_group_name_H-M "R 3"
_symmetry_group_IT_number 146
_symmetry_cell_setting 'hexagonal'
loop_
_space_group_symop_operation_xyz
x,y,z
-y,x-y,z
-x+y,-x,z
2/3+x,1/3+y,1/3+z
2/3-y,1/3+x-y,1/3+z
2/3-x+y,1/3-x,1/3+z
1/3+x,2/3+y,2/3+z
1/3-y,2/3+x-y,2/3+z
1/3-x+y,2/3-x,2/3+z
loop_
_atom_site_type_symbol
_atom_site_label
_atom_site_fract_x
_atom_site_fract_y
_atom_site_fract_z
Si Si1 0.000000 0.000000 0.472106
Si Si2 0.791206 0.178431 0.798345
Si Si3 0.333335 0.666668 0.960653
Si Si4 0.025997 0.577152 0.288900
Si Si5 0.152881 0.452779 0.857995
Si Si6 0.555382 0.909714 0.763491
Si Si7 0.942454 0.406158 0.976422
O O1 0.040113 0.143312 0.495808
O O2 0.000000 0.000000 0.381844
O O3 0.883618 0.224791 0.726331
O O4 0.650022 0.063323 0.772190
O O5 0.815259 0.119786 0.873376
O O6 0.260997 0.526804 0.923046
O O7 0.137159 0.730219 0.285950
O O8 0.107391 0.511470 0.320435
O O9 0.908254 0.552366 0.343507
O O10 0.136607 0.550243 0.799167
O O11 0.217901 0.387514 0.809327
O O12 0.027270 0.389916 0.910516
#
# Coordination Sequence:
#
# PCOD9574701 Si02
#       7
#     3   9   3   9   9   9   9
#     4  12  21  36  69 105 126 172 224 280 327 393
#     4  11  24  41  64 102 136 175 221 275 332 400
#     4   9  18  36  66  99 123 154 218 283 333 366
#     4  11  24  43  61  99 137 177 214 277 330 403
#     4  10  20  43  67  95 123 173 219 281 325 390
#     4  10  24  42  66  94 137 167 219 274 338 384
#     4  11  23  41  69  94 132 178 225 272 333 388
#
# _framework density 23.50695
#
# number of rings (size 3 to 8) (size 9 to 14) (size 15 to 20)
#    0.000    1.412    3.529    1.765    2.471    0.000 
#    3.176    0.000    0.000    0.000    0.000    0.000 
#    0.000    0.000    0.000    0.000    0.000    0.000 
#
# Total GULP energy -94831.479303 kJ/mol
# GULP energy per Si atom -5578.322312 kJ/mol
# Density = 2.345345 g / cm^3
# Si number density = 23.506950 Si / 1000 Ang^3
#
#
#
# Elastic Constant Matrix: (Units=GPa)
#
#
# Indices 1 2 3 4 5 6 
#
# 1 50.8209 6.9964 5.3612 -0.0689 -1.6135 0.0002
# 2 6.9964 50.8209 5.3609 0.0687 1.6136 0.0002
# 3 5.3612 5.3609 124.9365 -0.0002 -0.0001 -0.0003
# 4 -0.0689 0.0687 -0.0002 27.7149 0.0000 1.6136
# 5 -1.6135 1.6136 -0.0001 0.0000 27.7151 -0.0690
# 6 0.0002 0.0002 -0.0003 1.6136 -0.0690 21.9124
#
#
#
# Elastic Compliance Matrix: (Units=1/GPa)
#
#
# Indices 1 2 3 4 5 6 
#
# 1 0.020176 -0.002741 -0.000748 0.000057 0.001334 0.000000
# 2 -0.002741 0.020176 -0.000748 -0.000057 -0.001334 0.000000
# 3 -0.000748 -0.000748 0.008068 0.000000 0.000000 0.000000
# 4 0.000057 -0.000057 0.000000 0.036237 0.000000 -0.002668
# 5 0.001334 -0.001334 0.000000 0.000000 0.036237 0.000114
# 6 0.000000 0.000000 0.000000 -0.002668 0.000114 0.045833
#
#
# Mechanical properties :
#
#
# Convention : Reuss Voigt Hill
#
# Bulk Modulus (GPa) = 25.03442 29.11280 27.07361
# Shear Modulus (GPa) = 26.52284 29.39246 27.95765
#
# Velocity S-wave (km/s) = 3.36266 3.53990 3.45242
# Velocity P-wave (km/s) = 5.07440 5.39625 5.23780
#
# Compressibility (1/GPa) = 0.03994500
#
# Stress axis : x y z
#
# Youngs Moduli (GPa) = 49.56469 49.56464 123.94231
#
# Poissons Ratio (x) = 0.13586 0.09273
# Poissons Ratio (y) = 0.13586 0.09272
# Poissons Ratio (z) = 0.03708 0.03708
#
# Static dielectric constant tensor:
#      x y z
#    x 1.926250 0.000000 0.000000 
#    y 0.000000 1.926250 0.000000 
#    z 0.000000 0.000000 1.931740 
# 
# From -- ./inp_files/1929.got.cif
#   From: 2010.05.17/outbox.cif.g08.bks.cpg/sg146_cif.got.tgz:1929.got - 2010.05.20 13:48:23.
