data_PCOD9574511
_publ_section_title
;
Structure prediction by ZEFSAII (Michael W. Deem and Ramdas Pophale) SiO2 
 PCOD9574511
Probable space group: P 31
;
_chemical_formula_sum "Si O2"
_cell_formula_units_Z 15
_cell_length_a 9.640103
_cell_length_b 9.640103
_cell_length_c 8.196875
_cell_angle_alpha 90.000000
_cell_angle_beta 90.000000
_cell_angle_gamma 120.000000
_cell_volume 659.693633
_symmetry_space_group_name_H-M "P 31"
_symmetry_group_IT_number 144
_symmetry_cell_setting 'hexagonal'
loop_
_space_group_symop_operation_xyz
x,y,z
-y,x-y,1/3+z
-x+y,-x,2/3+z
loop_
_atom_site_type_symbol
_atom_site_label
_atom_site_fract_x
_atom_site_fract_y
_atom_site_fract_z
Si Si1 0.469826 0.071417 0.010590
Si Si2 0.678852 0.777469 0.401936
Si Si3 0.423890 0.774474 0.186556
Si Si4 0.705046 0.093999 0.534099
Si Si5 0.751104 0.576500 0.215651
O O1 0.400448 0.184635 0.061076
O O2 0.443181 0.946699 0.153150
O O3 0.656175 0.184495 0.972805
O O4 0.376591 0.965413 0.853664
O O5 0.588860 0.789558 0.242900
O O6 0.806328 0.737289 0.320818
O O7 0.701522 0.927545 0.506876
O O8 0.317272 0.690796 0.347162
O O9 0.535430 0.092447 0.533238
O O10 0.785278 0.169916 0.705985
#
# Coordination Sequence:
#
# PCOD9574511 Si02
#       5
#     3   3   3   3   3
#     4  12  26  48  81 114 154 216 274 330 408 493
#     4  12  27  47  77 117 154 203 276 336 403 477
#     4  12  26  47  77 115 162 209 266 335 410 488
#     4  12  25  50  78 114 159 210 277 335 403 494
#     4  12  26  50  81 116 153 220 273 330 408 500
#
# _framework density 22.737826999999999
#
# number of rings (size 3 to 8) (size 9 to 14) (size 15 to 20)
#    0.000    0.000    6.000    3.600    5.600    0.000 
#    3.600    0.000    0.000    0.000    0.000    0.000 
#    0.000    0.000    0.000    0.000    0.000    0.000 
#
# Total GULP energy -83826.827831 kJ/mol
# GULP energy per Si atom -5588.455189 kJ/mol
# Density = 2.268608 g / cm^3
# Si number density = 22.737827 Si / 1000 Ang^3
#
#
#
# Elastic Constant Matrix: (Units=GPa)
#
#
# Indices 1 2 3 4 5 6 
#
# 1 102.8167 29.9305 31.2780 4.8837 11.8854 0.0000
# 2 29.9305 102.8167 31.2780 -4.8837 -11.8854 0.0000
# 3 31.2780 31.2780 130.0937 0.0000 0.0000 0.0000
# 4 4.8837 -4.8837 0.0000 23.6197 0.0000 -11.8854
# 5 11.8854 -11.8854 0.0000 0.0000 23.6197 4.8837
# 6 0.0000 0.0000 0.0000 -11.8854 4.8837 36.4431
#
#
#
# Elastic Compliance Matrix: (Units=1/GPa)
#
#
# Indices 1 2 3 4 5 6 
#
# 1 0.012736 -0.004240 -0.002043 -0.003510 -0.008543 0.000000
# 2 -0.004240 0.012736 -0.002043 0.003510 0.008543 0.000000
# 3 -0.002043 -0.002043 0.008669 0.000000 0.000000 0.000000
# 4 -0.003510 0.003510 0.000000 0.052386 0.000000 0.017085
# 5 -0.008543 0.008543 0.000000 0.000000 0.052386 -0.007020
# 6 0.000000 0.000000 0.000000 0.017085 -0.007020 0.033953
#
#
# Mechanical properties :
#
#
# Convention : Reuss Voigt Hill
#
# Bulk Modulus (GPa) = 57.17569 57.85554 57.51561
# Shear Modulus (GPa) = 25.59539 32.95253 29.27396
#
# Velocity S-wave (km/s) = 3.35875 3.81102 3.59201
# Velocity P-wave (km/s) = 6.34364 6.69813 6.52330
#
# Compressibility (1/GPa) = 0.01748995
#
# Stress axis : x y z
#
# Youngs Moduli (GPa) = 78.51731 78.51731 115.35427
#
# Poissons Ratio (x) = 0.33294 0.23562
# Poissons Ratio (y) = 0.33294 0.23562
# Poissons Ratio (z) = 0.16038 0.16038
#
# Static dielectric constant tensor:
#      x y z
#    x 1.889490 0.000000 0.000000 
#    y 0.000000 1.889490 0.000000 
#    z 0.000000 0.000000 1.860900 
# 
# From -- ./inp_files/250.got.cif
#   From: 2010.05.17/outbox.cif.g08.bks.cpg/sg144_cif.got.tgz:250.got - 2010.05.20 13:46:34.
