data_PCOD9574200
_publ_section_title
;
Structure prediction by ZEFSAII (Michael W. Deem and Ramdas Pophale) SiO2 
 PCOD9574200
Probable space group: I 41/A C D
;
_chemical_formula_sum "Si O2"
_cell_formula_units_Z 88
_cell_length_a 13.653384
_cell_length_b 13.653384
_cell_length_c 20.478178
_cell_angle_alpha 90.000000
_cell_angle_beta 90.000000
_cell_angle_gamma 90.000000
_cell_volume 3817.437395
_symmetry_space_group_name_H-M "I 41/A C D"
_symmetry_group_IT_number 142
_space_group.IT_coordinate_system_code '2'
_symmetry_cell_setting 'tetragonal'
loop_
_space_group_symop_operation_xyz
x,y,z
1/4-y,3/4+x,1/4+z
-x,1/2-y,z
1/4+y,1/4-x,3/4+z
x,-y,1/2-z
1/2-x,y,-z
3/4+y,1/4+x,1/4-z
1/4-y,1/4-x,1/4-z
-x,-y,-z
3/4+y,1/4-x,3/4-z
x,1/2+y,-z
3/4-y,3/4+x,1/4-z
-x,y,1/2+z
1/2+x,-y,z
1/4-y,3/4-x,3/4+z
3/4+y,3/4+x,3/4+z
1/2+x,1/2+y,1/2+z
3/4-y,1/4+x,3/4+z
1/2-x,-y,1/2+z
3/4+y,3/4-x,1/4+z
1/2+x,1/2-y,-z
-x,1/2+y,1/2-z
1/4+y,3/4+x,3/4-z
3/4-y,3/4-x,3/4-z
1/2-x,1/2-y,1/2-z
1/4+y,3/4-x,1/4-z
1/2+x,y,1/2-z
1/4-y,1/4+x,3/4-z
1/2-x,1/2+y,z
x,1/2-y,1/2+z
3/4-y,1/4-x,1/4+z
1/4+y,1/4+x,1/4+z
loop_
_atom_site_type_symbol
_atom_site_label
_atom_site_fract_x
_atom_site_fract_y
_atom_site_fract_z
Si Si1 0.456928 0.000000 0.750000
Si Si2 0.500000 0.750000 0.375000
Si Si3 0.386329 0.029387 0.009411
Si Si4 0.183782 0.368542 0.910248
O O1 0.388406 0.095618 0.755529
O O2 0.530559 0.002683 0.689527
O O3 0.426812 0.823876 0.339659
O O4 0.363543 0.027214 0.087278
O O5 0.329076 0.959789 0.958512
O O6 0.500000 0.000000 0.000000
#
# Coordination Sequence:
#
# PCOD9574200 Si02
#       4
#    16   8  32  32
#     4  12  26  44  74 114 152 200 256 320 390 456
#     4  12  20  52  72 110 152 208 248 326 392 444
#     4  12  25  47  77 111 152 204 258 314 389 464
#     4  12  25  46  78 109 158 202 256 323 386 462
#
# _framework density 23.052112999999999
#
# number of rings (size 3 to 8) (size 9 to 14) (size 15 to 20)
#    0.000    0.000    7.273    1.091    0.000   10.182 
#    0.000    0.000    0.000   15.273    0.000    0.000 
#    0.000    0.000    0.000    0.000    0.000    0.000 
#
# Total GULP energy -245669.597919 kJ/mol
# GULP energy per Si atom -5583.399953 kJ/mol
# Density = 2.299965 g / cm^3
# Si number density = 23.052113 Si / 1000 Ang^3
#
#
#
# Elastic Constant Matrix: (Units=GPa)
#
#
# Indices 1 2 3 4 5 6 
#
# 1 132.3659 42.8796 99.8844 0.0000 0.0000 0.0000
# 2 42.8796 132.3659 99.8844 0.0000 0.0000 0.0000
# 3 99.8844 99.8844 216.1921 0.0000 0.0000 0.0000
# 4 0.0000 0.0000 0.0000 41.7826 0.0000 0.0000
# 5 0.0000 0.0000 0.0000 0.0000 41.7826 0.0000
# 6 0.0000 0.0000 0.0000 0.0000 0.0000 56.7740
#
#
#
# Elastic Compliance Matrix: (Units=1/GPa)
#
#
# Indices 1 2 3 4 5 6 
#
# 1 0.011615 0.000440 -0.005570 0.000000 0.000000 0.000000
# 2 0.000440 0.011615 -0.005570 0.000000 0.000000 0.000000
# 3 -0.005570 -0.005570 0.009772 0.000000 0.000000 0.000000
# 4 0.000000 0.000000 0.000000 0.023933 0.000000 0.000000
# 5 0.000000 0.000000 0.000000 0.000000 0.023933 0.000000
# 6 0.000000 0.000000 0.000000 0.000000 0.000000 0.017614
#
#
# Mechanical properties :
#
#
# Convention : Reuss Voigt Hill
#
# Bulk Modulus (GPa) = 86.17769 107.35786 96.76777
# Shear Modulus (GPa) = 40.40399 43.95288 42.17844
#
# Velocity S-wave (km/s) = 4.19110 4.37129 4.28214
# Velocity P-wave (km/s) = 7.80291 8.49414 8.15585
#
# Compressibility (1/GPa) = 0.01160393
#
# Stress axis : x y z
#
# Youngs Moduli (GPa) = 86.09364 86.09364 102.33005
#
# Poissons Ratio (x) = -0.03791 0.56997
# Poissons Ratio (y) = -0.03791 0.56997
# Poissons Ratio (z) = 0.47953 0.47953
#
# Static dielectric constant tensor:
#      x y z
#    x 1.935260 0.000000 0.000000 
#    y 0.000000 1.935260 0.000000 
#    z 0.000000 0.000000 1.922130 
# 
# From -- ./inp_files/11979.got.cif
#   From: 2010.05.17/outbox.cif.g08.bks.cpg/sg142_6_cif.got.tgz:11979.got - 2010.05.20 13:39:18.
