data_PCOD9574717
_publ_section_title
;
Structure prediction by ZEFSAII (Michael W. Deem and Ramdas Pophale) SiO2 
 PCOD9574717
Probable space group: R 3
;
_chemical_formula_sum "Si O2"
_cell_formula_units_Z 54
_cell_length_a 11.461178
_cell_length_b 11.461178
_cell_length_c 20.145002
_cell_angle_alpha 90.000000
_cell_angle_beta 90.000000
_cell_angle_gamma 120.000000
_cell_volume 2291.693123
_symmetry_space_group_name_H-M "R 3"
_symmetry_group_IT_number 146
_symmetry_cell_setting 'hexagonal'
loop_
_space_group_symop_operation_xyz
x,y,z
-y,x-y,z
-x+y,-x,z
2/3+x,1/3+y,1/3+z
2/3-y,1/3+x-y,1/3+z
2/3-x+y,1/3-x,1/3+z
1/3+x,2/3+y,2/3+z
1/3-y,2/3+x-y,2/3+z
1/3-x+y,2/3-x,2/3+z
loop_
_atom_site_type_symbol
_atom_site_label
_atom_site_fract_x
_atom_site_fract_y
_atom_site_fract_z
Si Si1 0.936441 0.178407 0.726480
Si Si2 0.634613 0.829430 0.529789
Si Si3 0.071432 0.762347 0.672814
Si Si4 0.999260 0.149031 0.357134
Si Si5 0.768674 0.750805 0.207597
Si Si6 0.735792 0.980162 0.141988
O O1 0.904652 0.107097 0.798806
O O2 0.914185 0.306364 0.734700
O O3 0.082550 0.235763 0.697049
O O4 0.821416 0.079278 0.674616
O O5 0.613157 0.869381 0.603985
O O6 0.674939 0.716050 0.543436
O O7 0.727183 0.979538 0.500065
O O8 0.081230 0.671574 0.730344
O O9 0.986047 0.183593 0.281839
O O10 0.124558 0.123865 0.368461
O O11 0.874598 0.713260 0.175290
O O12 0.775968 0.874109 0.167066
#
# Coordination Sequence:
#
# PCOD9574717 Si02
#       6
#     9   9   9   9   9   9
#     4  11  23  44  66 100 143 193 240 304 370 442
#     4  11  26  44  69 107 140 191 243 307 364 445
#     4  11  24  44  68 101 143 191 244 298 372 446
#     4  10  21  39  69 100 139 189 231 303 370 431
#     4  12  21  46  77 104 144 190 248 304 372 442
#     4  11  25  47  73 106 145 194 246 304 372 446
#
# _framework density 23.563365999999998
#
# number of rings (size 3 to 8) (size 9 to 14) (size 15 to 20)
#    0.333    0.667    5.000    1.667    0.000    2.667 
#    5.000    0.000    0.000    0.000    0.000    0.000 
#    0.000    0.000    0.000    0.000    0.000    0.000 
#
# Total GULP energy -100431.230692 kJ/mol
# GULP energy per Si atom -5579.512816 kJ/mol
# Density = 2.350974 g / cm^3
# Si number density = 23.563366 Si / 1000 Ang^3
#
#
#
# Elastic Constant Matrix: (Units=GPa)
#
#
# Indices 1 2 3 4 5 6 
#
# 1 79.5156 11.6352 15.3224 -9.0110 -9.9582 0.0000
# 2 11.6352 79.5156 15.3224 9.0110 9.9582 0.0000
# 3 15.3224 15.3224 151.6946 0.0000 0.0000 0.0000
# 4 -9.0110 9.0110 0.0000 28.3362 0.0000 9.9582
# 5 -9.9582 9.9582 0.0000 0.0000 28.3362 -9.0110
# 6 0.0000 0.0000 0.0000 9.9582 -9.0110 33.9402
#
#
#
# Elastic Compliance Matrix: (Units=1/GPa)
#
#
# Indices 1 2 3 4 5 6 
#
# 1 0.014744 -0.003388 -0.001147 0.005766 0.006372 0.000000
# 2 -0.003388 0.014744 -0.001147 -0.005766 -0.006372 0.000000
# 3 -0.001147 -0.001147 0.006824 0.000000 0.000000 0.000000
# 4 0.005766 -0.005766 0.000000 0.043437 0.000000 -0.012745
# 5 0.006372 -0.006372 0.000000 0.000000 0.043437 0.011532
# 6 0.000000 0.000000 0.000000 -0.012745 0.011532 0.036265
#
#
# Mechanical properties :
#
#
# Convention : Reuss Voigt Hill
#
# Bulk Modulus (GPa) = 40.08256 43.92064 42.00160
# Shear Modulus (GPa) = 27.91248 36.01889 31.96569
#
# Velocity S-wave (km/s) = 3.44549 3.91397 3.68718
# Velocity P-wave (km/s) = 5.73376 6.25343 5.99923
#
# Compressibility (1/GPa) = 0.02494851
#
# Stress axis : x y z
#
# Youngs Moduli (GPa) = 67.82226 67.82226 146.54318
#
# Poissons Ratio (x) = 0.22978 0.16810
# Poissons Ratio (y) = 0.22978 0.16810
# Poissons Ratio (z) = 0.07780 0.07780
#
# Static dielectric constant tensor:
#      x y z
#    x 1.891350 0.000000 0.000000 
#    y 0.000000 1.891350 0.000000 
#    z 0.000000 0.000000 1.904630 
# 
# From -- ./inp_files/1975.got.cif
#   From: 2010.05.17/outbox.cif.g08.bks.cpg/sg146_cif.got.tgz:1975.got - 2010.05.20 13:48:23.
