data_PCOD9574110
_publ_section_title
;
Structure prediction by ZEFSAII (Michael W. Deem and Ramdas Pophale) SiO2 
 PCOD9574110
Probable space group: I 41/A C D
;
_chemical_formula_sum "Si O2"
_cell_formula_units_Z 104
_cell_length_a 18.271350
_cell_length_b 18.271350
_cell_length_c 14.561156
_cell_angle_alpha 90.000000
_cell_angle_beta 90.000000
_cell_angle_gamma 90.000000
_cell_volume 4861.128802
_symmetry_space_group_name_H-M "I 41/A C D"
_symmetry_group_IT_number 142
_space_group.IT_coordinate_system_code '2'
_symmetry_cell_setting 'tetragonal'
loop_
_space_group_symop_operation_xyz
x,y,z
1/4-y,3/4+x,1/4+z
-x,1/2-y,z
1/4+y,1/4-x,3/4+z
x,-y,1/2-z
1/2-x,y,-z
3/4+y,1/4+x,1/4-z
1/4-y,1/4-x,1/4-z
-x,-y,-z
3/4+y,1/4-x,3/4-z
x,1/2+y,-z
3/4-y,3/4+x,1/4-z
-x,y,1/2+z
1/2+x,-y,z
1/4-y,3/4-x,3/4+z
3/4+y,3/4+x,3/4+z
1/2+x,1/2+y,1/2+z
3/4-y,1/4+x,3/4+z
1/2-x,-y,1/2+z
3/4+y,3/4-x,1/4+z
1/2+x,1/2-y,-z
-x,1/2+y,1/2-z
1/4+y,3/4+x,3/4-z
3/4-y,3/4-x,3/4-z
1/2-x,1/2-y,1/2-z
1/4+y,3/4-x,1/4-z
1/2+x,y,1/2-z
1/4-y,1/4+x,3/4-z
1/2-x,1/2+y,z
x,1/2-y,1/2+z
3/4-y,1/4-x,1/4+z
1/4+y,1/4+x,1/4+z
loop_
_atom_site_type_symbol
_atom_site_label
_atom_site_fract_x
_atom_site_fract_y
_atom_site_fract_z
Si Si1 0.860078 0.734313 0.504291
Si Si2 0.681153 0.312276 0.341015
Si Si3 0.500000 0.250000 0.875000
Si Si4 0.156580 0.814628 0.195412
O O1 0.801424 0.760387 0.429064
O O2 0.931631 0.748921 0.442200
O O3 0.862079 0.783476 0.594757
O O4 0.870744 0.649588 0.529831
O O5 0.628775 0.378775 0.375000
O O6 0.650733 0.255161 0.264725
O O7 0.759130 0.339647 0.303789
#
# Coordination Sequence:
#
# PCOD9574110 Si02
#       4
#    32  32   8  32
#     4  12  20  38  59  93 127 161 214 271 312 375
#     4  11  22  41  61  95 129 166 218 270 322 389
#     4  12  20  34  64  96 122 160 216 278 308 360
#     4  11  24  35  65  94 124 170 217 264 331 382
#
# _framework density 21.394207999999999
#
# number of rings (size 3 to 8) (size 9 to 14) (size 15 to 20)
#    0.000    0.615    4.615    4.615    0.000    0.000 
#    0.000    0.000    0.000   22.154    8.000    0.000 
#    0.000    0.000    0.000    0.000    0.000    0.000 
#
# Total GULP energy -290079.978968 kJ/mol
# GULP energy per Si atom -5578.461134 kJ/mol
# Density = 2.134551 g / cm^3
# Si number density = 21.394208 Si / 1000 Ang^3
#
#
#
# Elastic Constant Matrix: (Units=GPa)
#
#
# Indices 1 2 3 4 5 6 
#
# 1 73.0797 15.8726 -0.1155 0.0000 0.0000 0.0000
# 2 15.8726 73.0797 -0.1155 0.0000 0.0000 0.0000
# 3 -0.1155 -0.1155 138.5106 0.0000 0.0000 0.0000
# 4 0.0000 0.0000 0.0000 35.0834 0.0000 0.0000
# 5 0.0000 0.0000 0.0000 0.0000 35.0834 0.0000
# 6 0.0000 0.0000 0.0000 0.0000 0.0000 20.8606
#
#
#
# Elastic Compliance Matrix: (Units=1/GPa)
#
#
# Indices 1 2 3 4 5 6 
#
# 1 0.014361 -0.003119 0.000009 0.000000 0.000000 0.000000
# 2 -0.003119 0.014361 0.000009 0.000000 0.000000 0.000000
# 3 0.000009 0.000009 0.007220 0.000000 0.000000 0.000000
# 4 0.000000 0.000000 0.000000 0.028504 0.000000 0.000000
# 5 0.000000 0.000000 0.000000 0.000000 0.028504 0.000000
# 6 0.000000 0.000000 0.000000 0.000000 0.000000 0.047937
#
#
# Mechanical properties :
#
#
# Convention : Reuss Voigt Hill
#
# Bulk Modulus (GPa) = 33.62342 35.10593 34.36468
# Shear Modulus (GPa) = 31.84695 36.14070 33.99382
#
# Velocity S-wave (km/s) = 3.86240 4.11454 3.99046
# Velocity P-wave (km/s) = 5.97001 6.24638 6.10976
#
# Compressibility (1/GPa) = 0.02974117
#
# Stress axis : x y z
#
# Youngs Moduli (GPa) = 69.63218 69.63218 138.51034
#
# Poissons Ratio (x) = 0.21719 -0.00130
# Poissons Ratio (y) = 0.21719 -0.00130
# Poissons Ratio (z) = -0.00065 -0.00065
#
# Static dielectric constant tensor:
#      x y z
#    x 1.866400 0.000000 0.000000 
#    y 0.000000 1.866400 0.000000 
#    z 0.000000 0.000000 1.810700 
# 
# From -- ./inp_files/4968.got.cif
#   From: 2010.05.17/outbox.cif.g08.bks.cpg/sg142_3_cif.got.tgz:4968.got - 2010.05.20 13:39:18.
