data_PCOD9574848
_publ_section_title
;
Structure prediction by ZEFSAII (Michael W. Deem and Ramdas Pophale) SiO2 
 PCOD9574848
Probable space group: P -3
;
_chemical_formula_sum "Si O2"
_cell_formula_units_Z 36
_cell_length_a 28.572942
_cell_length_b 28.572942
_cell_length_c 5.332012
_cell_angle_alpha 90.000000
_cell_angle_beta 90.000000
_cell_angle_gamma 120.000000
_cell_volume 3769.915962
_symmetry_space_group_name_H-M "P -3"
_symmetry_group_IT_number 147
_symmetry_cell_setting 'hexagonal'
loop_
_space_group_symop_operation_xyz
x,y,z
-y,x-y,z
-x+y,-x,z
-x,-y,-z
y,-x+y,-z
x-y,x,-z
loop_
_atom_site_type_symbol
_atom_site_label
_atom_site_fract_x
_atom_site_fract_y
_atom_site_fract_z
Si Si1 0.478692 0.634816 0.749998
Si Si2 0.221347 0.554058 0.249998
Si Si3 0.634816 0.478692 0.250001
Si Si4 0.572930 0.031722 0.250000
Si Si5 0.667289 0.445942 0.750000
Si Si6 0.458792 0.031722 0.250000
O O1 0.476182 0.664231 0.498807
O O2 0.422793 0.577207 0.749998
O O3 0.525762 0.619734 0.750000
O O4 0.476181 0.664231 0.001188
O O5 0.279596 0.559191 0.249999
O O6 0.227332 0.613666 0.249999
O O7 0.664231 0.476182 0.501191
O O8 0.619734 0.525762 0.250001
O O9 0.664231 0.476182 0.998809
O O10 0.516149 0.032299 0.250000
O O11 0.571637 0.000000 0.500000
O O12 0.571637 1.000000 0.000000
#
# Coordination Sequence:
#
# PCOD9574848 Si02
#       6
#     6   6   6   6   6   6
#     4   9  17  26  35  47  60  72  89 112 133 157
#     4  10  18  27  36  45  58  76  97 117 135 153
#     4   9  17  26  35  47  60  72  89 112 133 157
#     4   9  15  23  35  48  60  72  84 101 130 164
#     4  10  18  27  36  45  58  76  97 117 135 153
#     4   9  15  23  35  48  60  72  84 101 130 164
#
# _framework density 9.5492849999999994
#
# number of rings (size 3 to 8) (size 9 to 14) (size 15 to 20)
#    0.000    2.667    0.000    3.333    0.000    8.000 
#    0.000    3.333    0.000    0.000    0.000    0.000 
#    0.000    0.000    0.000    0.000    0.000    0.000 
#
# Total GULP energy -200501.266473 kJ/mol
# GULP energy per Si atom -5569.479624 kJ/mol
# Density = 0.952755 g / cm^3
# Si number density = 9.549285 Si / 1000 Ang^3
#
#
#
# Elastic Constant Matrix: (Units=GPa)
#
#
# Indices 1 2 3 4 5 6 
#
# 1 41.8149 31.5081 40.4696 0.0000 0.0001 0.0000
# 2 31.5081 41.8149 40.4696 0.0000 -0.0001 0.0000
# 3 40.4696 40.4696 118.3844 0.0000 0.0000 0.0000
# 4 0.0000 0.0000 0.0000 11.2494 0.0000 -0.0001
# 5 0.0001 -0.0001 0.0000 0.0000 11.2494 0.0000
# 6 0.0000 0.0000 0.0000 -0.0001 0.0000 5.1534
#
#
#
# Elastic Compliance Matrix: (Units=1/GPa)
#
#
# Indices 1 2 3 4 5 6 
#
# 1 0.059463 -0.037559 -0.007488 0.000000 -0.000001 0.000000
# 2 -0.037559 0.059463 -0.007488 0.000000 0.000001 0.000000
# 3 -0.007488 -0.007488 0.013566 0.000000 0.000000 0.000000
# 4 0.000000 0.000000 0.000000 0.088893 0.000000 0.000001
# 5 -0.000001 0.000001 0.000000 0.000000 0.088893 0.000000
# 6 0.000000 0.000000 0.000000 0.000001 0.000000 0.194045
#
#
# Mechanical properties :
#
#
# Convention : Reuss Voigt Hill
#
# Bulk Modulus (GPa) = 36.46583 47.43430 41.95007
# Shear Modulus (GPa) = 8.08360 11.50160 9.79260
#
# Velocity S-wave (km/s) = 2.91265 3.47428 3.20579
# Velocity P-wave (km/s) = 7.04139 8.11635 7.59791
#
# Compressibility (1/GPa) = 0.02742293
#
# Stress axis : x y z
#
# Youngs Moduli (GPa) = 16.81711 16.81711 73.71130
#
# Poissons Ratio (x) = 0.63164 0.55194
# Poissons Ratio (y) = 0.63164 0.55194
# Poissons Ratio (z) = 0.12592 0.12592
#
# Static dielectric constant tensor:
#      x y z
#    x 1.283240 0.000000 0.000000 
#    y 0.000000 1.283240 0.000000 
#    z 0.000000 0.000000 1.322150 
# 
# From -- ./inp_files/256.got.cif
#   From: 2010.05.17/outbox.cif.g08.bks.cpg/sg147_cif.got.tgz:256.got - 2010.05.20 13:49:32.
