data_PCOD9574703
_publ_section_title
;
Structure prediction by ZEFSAII (Michael W. Deem and Ramdas Pophale) SiO2 
 PCOD9574703
Probable space group: R 3
;
_chemical_formula_sum "Si O2"
_cell_formula_units_Z 51
_cell_length_a 10.958959
_cell_length_b 10.958959
_cell_length_c 19.177276
_cell_angle_alpha 90.000000
_cell_angle_beta 90.000000
_cell_angle_gamma 120.000000
_cell_volume 1994.601561
_symmetry_space_group_name_H-M "R 3"
_symmetry_group_IT_number 146
_symmetry_cell_setting 'hexagonal'
loop_
_space_group_symop_operation_xyz
x,y,z
-y,x-y,z
-x+y,-x,z
2/3+x,1/3+y,1/3+z
2/3-y,1/3+x-y,1/3+z
2/3-x+y,1/3-x,1/3+z
1/3+x,2/3+y,2/3+z
1/3-y,2/3+x-y,2/3+z
1/3-x+y,2/3-x,2/3+z
loop_
_atom_site_type_symbol
_atom_site_label
_atom_site_fract_x
_atom_site_fract_y
_atom_site_fract_z
Si Si1 0.190224 0.831714 0.271070
Si Si2 0.163008 0.431762 0.035293
Si Si3 0.000000 0.000000 0.463103
Si Si4 0.000000 0.000000 0.630376
Si Si5 0.407511 0.041290 0.159100
Si Si6 0.494534 0.300521 0.363739
Si Si7 0.946104 0.651368 0.162543
O O1 0.158189 0.939004 0.313889
O O2 0.242405 0.740636 0.316171
O O3 0.061772 0.728789 0.222615
O O4 0.323092 0.932597 0.221590
O O5 0.284392 0.520447 0.091376
O O6 0.198873 0.324113 0.996837
O O7 0.030853 0.354904 0.087993
O O8 0.000000 0.000000 0.544905
O O9 0.399098 0.180528 0.173310
O O10 0.560382 0.056696 0.150576
O O11 0.556466 0.194118 0.349295
O O12 0.444869 0.335247 0.437284
#
# Coordination Sequence:
#
# PCOD9574703 Si02
#       7
#     9   9   3   3   9   9   9
#     4  12  26  45  75 111 149 197 259 319 385 465
#     4  12  25  44  73 111 145 197 264 309 393 463
#     4  12  24  48  78 108 147 204 262 329 382 486
#     4  12  21  54  78 102 150 207 244 326 400 456
#     4  12  25  47  72 107 150 203 249 319 397 460
#     4  10  20  45  76 102 146 201 249 310 391 464
#     4  12  23  47  78 107 155 199 261 322 392 476
#
# _framework density 25.569018
#
# number of rings (size 3 to 8) (size 9 to 14) (size 15 to 20)
#    0.353    0.000    7.059    1.412    2.471    1.412 
#    7.412    0.000    0.000    0.000    0.000    0.000 
#    0.000    0.000    0.000    0.000    0.000    0.000 
#
# Total GULP energy -94825.510076 kJ/mol
# GULP energy per Si atom -5577.971181 kJ/mol
# Density = 2.551082 g / cm^3
# Si number density = 25.569018 Si / 1000 Ang^3
#
#
#
# Elastic Constant Matrix: (Units=GPa)
#
#
# Indices 1 2 3 4 5 6 
#
# 1 109.1313 38.2108 13.6745 -13.6042 -0.4067 0.0000
# 2 38.2108 109.1313 13.6745 13.6042 0.4067 0.0000
# 3 13.6745 13.6745 53.3558 0.0000 0.0000 0.0000
# 4 -13.6042 13.6042 0.0000 28.6763 0.0000 0.4067
# 5 -0.4067 0.4067 0.0000 0.0000 28.6763 -13.6042
# 6 0.0000 0.0000 0.0000 0.4067 -13.6042 35.4602
#
#
#
# Elastic Compliance Matrix: (Units=1/GPa)
#
#
# Indices 1 2 3 4 5 6 
#
# 1 0.012183 -0.005058 -0.001826 0.008179 0.000245 0.000000
# 2 -0.005058 0.012183 -0.001826 -0.008179 -0.000245 0.000000
# 3 -0.001826 -0.001826 0.019678 0.000000 0.000000 0.000000
# 4 0.008179 -0.008179 0.000000 0.042640 0.000000 -0.000489
# 5 0.000245 -0.000245 0.000000 0.000000 0.042640 0.016359
# 6 0.000000 0.000000 0.000000 -0.000489 0.016359 0.034482
#
#
# Mechanical properties :
#
#
# Convention : Reuss Voigt Hill
#
# Bulk Modulus (GPa) = 37.55884 44.74866 41.15375
# Shear Modulus (GPa) = 26.30171 32.29980 29.30075
#
# Velocity S-wave (km/s) = 3.21075 3.55806 3.38886
# Velocity P-wave (km/s) = 5.33538 5.86676 5.60737
#
# Compressibility (1/GPa) = 0.02662489
#
# Stress axis : x y z
#
# Youngs Moduli (GPa) = 82.07827 82.07827 50.81760
#
# Poissons Ratio (x) = 0.41512 0.09281
# Poissons Ratio (y) = 0.41512 0.09281
# Poissons Ratio (z) = 0.14990 0.14990
#
# Static dielectric constant tensor:
#      x y z
#    x 2.078530 0.000000 0.000000 
#    y 0.000000 2.078530 0.000000 
#    z 0.000000 0.000000 2.029590 
# 
# From -- ./inp_files/1952.got.cif
#   From: 2010.05.17/outbox.cif.g08.bks.cpg/sg146_cif.got.tgz:1952.got - 2010.05.20 13:48:23.
