data_PCOD9574041
_publ_section_title
;
Structure prediction by ZEFSAII (Michael W. Deem and Ramdas Pophale) SiO2 
 PCOD9574041
Probable space group: I 41/A C D
;
_chemical_formula_sum "Si O2"
_cell_formula_units_Z 72
_cell_length_a 18.283341
_cell_length_b 18.283341
_cell_length_c 8.500138
_cell_angle_alpha 90.000000
_cell_angle_beta 90.000000
_cell_angle_gamma 90.000000
_cell_volume 2841.430875
_symmetry_space_group_name_H-M "I 41/A C D"
_symmetry_group_IT_number 142
_space_group.IT_coordinate_system_code '2'
_symmetry_cell_setting 'tetragonal'
loop_
_space_group_symop_operation_xyz
x,y,z
1/4-y,3/4+x,1/4+z
-x,1/2-y,z
1/4+y,1/4-x,3/4+z
x,-y,1/2-z
1/2-x,y,-z
3/4+y,1/4+x,1/4-z
1/4-y,1/4-x,1/4-z
-x,-y,-z
3/4+y,1/4-x,3/4-z
x,1/2+y,-z
3/4-y,3/4+x,1/4-z
-x,y,1/2+z
1/2+x,-y,z
1/4-y,3/4-x,3/4+z
3/4+y,3/4+x,3/4+z
1/2+x,1/2+y,1/2+z
3/4-y,1/4+x,3/4+z
1/2-x,-y,1/2+z
3/4+y,3/4-x,1/4+z
1/2+x,1/2-y,-z
-x,1/2+y,1/2-z
1/4+y,3/4+x,3/4-z
3/4-y,3/4-x,3/4-z
1/2-x,1/2-y,1/2-z
1/4+y,3/4-x,1/4-z
1/2+x,y,1/2-z
1/4-y,1/4+x,3/4-z
1/2-x,1/2+y,z
x,1/2-y,1/2+z
3/4-y,1/4-x,1/4+z
1/4+y,1/4+x,1/4+z
loop_
_atom_site_type_symbol
_atom_site_label
_atom_site_fract_x
_atom_site_fract_y
_atom_site_fract_z
Si Si1 0.836525 0.500000 0.250000
Si Si2 0.250000 0.698410 0.500000
Si Si3 0.000000 0.750000 0.625000
Si Si4 0.155909 0.690270 0.205970
O O1 0.786214 0.536214 0.375000
O O2 0.880476 0.567119 0.170540
O O3 0.308430 0.668186 0.626277
O O4 0.301624 0.741304 0.375718
O O5 0.928365 0.715622 0.710613
#
# Coordination Sequence:
#
# PCOD9574041 Si02
#       4
#    16  16   8  32
#     4  11  28  55  80 112 159 232 301 350 427 535
#     4   9  22  47  70 110 165 228 271 344 439 505
#     4  12  28  46  80 138 172 226 284 366 438 512
#     4  10  25  46  77 115 171 218 283 361 426 509
#
# _framework density 25.339348000000001
#
# number of rings (size 3 to 8) (size 9 to 14) (size 15 to 20)
#    0.000    1.778    0.000    0.000   18.667    5.333 
#    0.000    0.000    0.000    0.000    0.000    0.000 
#    0.000    0.000    0.000    0.000    0.000    0.000 
#
# Total GULP energy -200699.289191 kJ/mol
# GULP energy per Si atom -5574.980255 kJ/mol
# Density = 2.528167 g / cm^3
# Si number density = 25.339348 Si / 1000 Ang^3
#
#
#
# Elastic Constant Matrix: (Units=GPa)
#
#
# Indices 1 2 3 4 5 6 
#
# 1 175.5308 83.1681 80.4066 0.0000 0.0000 0.0000
# 2 83.1681 175.5308 80.4066 0.0000 0.0000 0.0000
# 3 80.4066 80.4066 206.2241 0.0000 0.0000 0.0000
# 4 0.0000 0.0000 0.0000 242.4444 0.0000 0.0000
# 5 0.0000 0.0000 0.0000 0.0000 242.4444 0.0000
# 6 0.0000 0.0000 0.0000 0.0000 0.0000 11.9052
#
#
#
# Elastic Compliance Matrix: (Units=1/GPa)
#
#
# Indices 1 2 3 4 5 6 
#
# 1 0.007964 -0.002862 -0.001989 0.000000 0.000000 0.000000
# 2 -0.002862 0.007964 -0.001989 0.000000 0.000000 0.000000
# 3 -0.001989 -0.001989 0.006400 0.000000 0.000000 0.000000
# 4 0.000000 0.000000 0.000000 0.004125 0.000000 0.000000
# 5 0.000000 0.000000 0.000000 0.000000 0.004125 0.000000
# 6 0.000000 0.000000 0.000000 0.000000 0.000000 0.083997
#
#
# Mechanical properties :
#
#
# Convention : Reuss Voigt Hill
#
# Bulk Modulus (GPa) = 115.64265 116.13868 115.89067
# Shear Modulus (GPa) = 38.12715 120.24578 79.18646
#
# Velocity S-wave (km/s) = 3.88321 6.89617 5.59627
# Velocity P-wave (km/s) = 8.11433 10.45669 9.35908
#
# Compressibility (1/GPa) = 0.00864733
#
# Stress axis : x y z
#
# Youngs Moduli (GPa) = 125.55741 125.55741 156.24158
#
# Poissons Ratio (x) = 0.35939 0.31081
# Poissons Ratio (y) = 0.35939 0.31081
# Poissons Ratio (z) = 0.24977 0.24977
#
# Static dielectric constant tensor:
#      x y z
#    x 2.056400 0.000000 0.000000 
#    y 0.000000 2.056400 0.000000 
#    z 0.000000 0.000000 1.908460 
# 
# From -- ./inp_files/2932.got.cif
#   From: 2010.05.17/outbox.cif.g08.bks.cpg/sg142_2_cif.got.tgz:2932.got - 2010.05.20 13:39:18.
