data_PCOD9574086
_publ_section_title
;
Structure prediction by ZEFSAII (Michael W. Deem and Ramdas Pophale) SiO2 
 PCOD9574086
Probable space group: I 41/A C D
;
_chemical_formula_sum "Si O2"
_cell_formula_units_Z 136
_cell_length_a 24.043148
_cell_length_b 24.043148
_cell_length_c 10.723832
_cell_angle_alpha 90.000000
_cell_angle_beta 90.000000
_cell_angle_gamma 90.000000
_cell_volume 6199.157368
_symmetry_space_group_name_H-M "I 41/A C D"
_symmetry_group_IT_number 142
_space_group.IT_coordinate_system_code '2'
_symmetry_cell_setting 'tetragonal'
loop_
_space_group_symop_operation_xyz
x,y,z
1/4-y,3/4+x,1/4+z
-x,1/2-y,z
1/4+y,1/4-x,3/4+z
x,-y,1/2-z
1/2-x,y,-z
3/4+y,1/4+x,1/4-z
1/4-y,1/4-x,1/4-z
-x,-y,-z
3/4+y,1/4-x,3/4-z
x,1/2+y,-z
3/4-y,3/4+x,1/4-z
-x,y,1/2+z
1/2+x,-y,z
1/4-y,3/4-x,3/4+z
3/4+y,3/4+x,3/4+z
1/2+x,1/2+y,1/2+z
3/4-y,1/4+x,3/4+z
1/2-x,-y,1/2+z
3/4+y,3/4-x,1/4+z
1/2+x,1/2-y,-z
-x,1/2+y,1/2-z
1/4+y,3/4+x,3/4-z
3/4-y,3/4-x,3/4-z
1/2-x,1/2-y,1/2-z
1/4+y,3/4-x,1/4-z
1/2+x,y,1/2-z
1/4-y,1/4+x,3/4-z
1/2-x,1/2+y,z
x,1/2-y,1/2+z
3/4-y,1/4-x,1/4+z
1/4+y,1/4+x,1/4+z
loop_
_atom_site_type_symbol
_atom_site_label
_atom_site_fract_x
_atom_site_fract_y
_atom_site_fract_z
Si Si1 0.342331 0.904387 0.278665
Si Si2 0.000000 0.250000 0.375000
Si Si3 0.734324 0.347847 0.721863
Si Si4 0.903352 0.297343 0.502451
Si Si5 0.509891 0.544750 0.649836
O O1 0.279687 0.883072 0.300802
O O2 0.363658 0.955686 0.365262
O O3 0.392133 0.860662 0.304503
O O4 0.340730 0.909271 0.125000
O O5 0.059255 0.247671 0.437292
O O6 0.692694 0.311894 0.809137
O O7 0.768381 0.295446 0.664297
O O8 0.937210 0.312791 0.625000
O O9 0.846717 0.266438 0.532156
O O10 0.529989 0.500000 0.750000
#
# Coordination Sequence:
#
# PCOD9574086 Si02
#       5
#    32   8  32  32  32
#     4  11  21  41  71 102 133 178 231 294 357 429
#     4  12  30  40  64  98 144 192 214 288 368 414
#     4  11  23  40  73 103 136 185 238 296 363 430
#     4  11  24  42  63 100 144 179 233 283 354 433
#     4  11  22  41  69 104 139 187 241 287 350 446
#
# _framework density 21.938465999999998
#
# number of rings (size 3 to 8) (size 9 to 14) (size 15 to 20)
#    0.000    0.941    7.059    1.059    6.588    0.000 
#    0.000    1.176    0.000    8.471    0.000    0.000 
#    0.000    0.000    0.000    0.000    0.000    0.000 
#
# Total GULP energy -378687.476314 kJ/mol
# GULP energy per Si atom -5568.933475 kJ/mol
# Density = 2.188853 g / cm^3
# Si number density = 21.938466 Si / 1000 Ang^3
#
#
#
# Elastic Constant Matrix: (Units=GPa)
#
#
# Indices 1 2 3 4 5 6 
#
# 1 80.2060 47.1618 29.2206 0.0000 0.0000 0.0000
# 2 47.1618 80.2090 29.2211 0.0000 0.0000 0.0000
# 3 29.2206 29.2211 27.5930 0.0000 0.0000 0.0000
# 4 0.0000 0.0000 0.0000 -309.7829 0.0000 0.0000
# 5 0.0000 0.0000 0.0000 0.0000 -308.5653 0.0000
# 6 0.0000 0.0000 0.0000 0.0000 0.0000 77.3084
#
#
#
# Elastic Compliance Matrix: (Units=1/GPa)
#
#
# Indices 1 2 3 4 5 6 
#
# 1 0.022767 -0.007495 -0.016173 0.000000 0.000000 0.000000
# 2 -0.007495 0.022766 -0.016173 0.000000 0.000000 0.000000
# 3 -0.016173 -0.016173 0.070495 0.000000 0.000000 0.000000
# 4 0.000000 0.000000 0.000000 -0.003228 0.000000 0.000000
# 5 0.000000 0.000000 0.000000 0.000000 -0.003241 0.000000
# 6 0.000000 0.000000 0.000000 0.000000 0.000000 0.012935
#
#
# Mechanical properties :
#
#
# Convention : Reuss Voigt Hill
#
# Bulk Modulus (GPa) = 27.51225 44.35722 35.93473
# Shear Modulus (GPa) = 23.33270 -102.71434 -39.69082
#
# Velocity S-wave (km/s) = 3.26475 -6.84989 -4.25807
# Velocity P-wave (km/s) = 5.17488 6.50372 2.78559
#
# Compressibility (1/GPa) = 0.03634745
#
# Stress axis : x y z
#
# Youngs Moduli (GPa) = 43.92326 43.92494 14.18534
#
# Poissons Ratio (x) = 0.32920 0.22942
# Poissons Ratio (y) = 0.32919 0.22942
# Poissons Ratio (z) = 0.71038 0.71039
#
# Static dielectric constant tensor:
#      x y z
#    x 1.674770 0.000000 0.000000 
#    y 0.000000 1.674750 0.000000 
#    z 0.000000 0.000000 1.971150 
# 
# From -- ./inp_files/3610.got.cif
#   From: 2010.05.17/outbox.cif.g08.bks.cpg/sg142_2_cif.got.tgz:3610.got - 2010.05.20 13:39:18.
