data_PCOD9574254
_publ_section_title
;
Structure prediction by ZEFSAII (Michael W. Deem and Ramdas Pophale) SiO2 
 PCOD9574254
Probable space group: I 41/A C D
;
_chemical_formula_sum "Si O2"
_cell_formula_units_Z 88
_cell_length_a 18.000000
_cell_length_b 18.000000
_cell_length_c 27.000000
_cell_angle_alpha 90.000000
_cell_angle_beta 90.000000
_cell_angle_gamma 90.000000
_cell_volume 8748.000000
_symmetry_space_group_name_H-M "I 41/A C D"
_symmetry_group_IT_number 142
_space_group.IT_coordinate_system_code '2'
_symmetry_cell_setting 'tetragonal'
loop_
_space_group_symop_operation_xyz
x,y,z
1/4-y,3/4+x,1/4+z
-x,1/2-y,z
1/4+y,1/4-x,3/4+z
x,-y,1/2-z
1/2-x,y,-z
3/4+y,1/4+x,1/4-z
1/4-y,1/4-x,1/4-z
-x,-y,-z
3/4+y,1/4-x,3/4-z
x,1/2+y,-z
3/4-y,3/4+x,1/4-z
-x,y,1/2+z
1/2+x,-y,z
1/4-y,3/4-x,3/4+z
3/4+y,3/4+x,3/4+z
1/2+x,1/2+y,1/2+z
3/4-y,1/4+x,3/4+z
1/2-x,-y,1/2+z
3/4+y,3/4-x,1/4+z
1/2+x,1/2-y,-z
-x,1/2+y,1/2-z
1/4+y,3/4+x,3/4-z
3/4-y,3/4-x,3/4-z
1/2-x,1/2-y,1/2-z
1/4+y,3/4-x,1/4-z
1/2+x,y,1/2-z
1/4-y,1/4+x,3/4-z
1/2-x,1/2+y,z
x,1/2-y,1/2+z
3/4-y,1/4-x,1/4+z
1/4+y,1/4+x,1/4+z
loop_
_atom_site_type_symbol
_atom_site_label
_atom_site_fract_x
_atom_site_fract_y
_atom_site_fract_z
Si Si1 0.154594 0.191694 0.053576
Si Si2 0.918940 0.237894 0.751752
Si Si3 0.632611 0.503272 0.875362
Si Si4 0.322328 0.878748 0.268330
Si Si5 0.353304 0.918877 0.467317
Si Si6 0.250000 0.683628 0.500000
O O1 0.190397 0.174630 0.106200
O O2 0.195715 0.263560 0.031592
O O3 0.065650 0.190221 0.045212
O O4 0.176075 0.123173 0.016851
O O5 0.873278 0.313280 0.745763
O O6 0.863441 0.186813 0.783739
O O7 0.000000 0.250000 0.775872
O O8 0.711589 0.461589 0.875000
O O9 0.610681 0.533839 0.929012
O O10 0.640621 0.564143 0.832217
O O11 0.256022 0.898880 0.230129
O O12 0.378031 0.946548 0.279521
#
# Coordination Sequence:
#
# PCOD9574254 Si02
#       6
#    32  32  32  32  32  16
#     4  10  21  42  65  86 137 181 212 273 364 402
#     4  10  21  43  66  94 132 179 220 274 354 415
#     4  12  22  39  67  99 130 180 229 282 343 411
#     4  12  24  38  69 103 127 178 239 283 338 424
#     4  10  22  41  63  92 135 171 221 280 342 398
#     4  12  22  40  66  98 134 178 220 288 360 404
#
# _framework density 10.059442000000001
#
# number of rings (size 3 to 8) (size 9 to 14) (size 15 to 20)
#    1.091    0.000    5.455    1.636    0.000    1.455 
#    0.000    0.000    0.000    4.909    0.000    0.000 
#    0.000    0.000    0.000    0.000    0.000    0.000 
#
# Total GULP energy -489933.615156 kJ/mol
# GULP energy per Si atom -5567.427445 kJ/mol
# Density = 1.003655 g / cm^3
# Si number density = 10.059442 Si / 1000 Ang^3
#
#
#
# Elastic Constant Matrix: (Units=GPa)
#
#
# Indices 1 2 3 4 5 6 
#
# 1 108.2126 30.5887 15.3355 0.0000 0.0000 0.0000
# 2 30.5887 108.2126 15.3355 0.0000 0.0000 0.0000
# 3 15.3355 15.3355 59.6731 0.0000 0.0000 0.0000
# 4 0.0000 0.0000 0.0000 19.1381 0.0000 0.0000
# 5 0.0000 0.0000 0.0000 0.0000 19.1381 0.0000
# 6 0.0000 0.0000 0.0000 0.0000 0.0000 46.2655
#
#
#
# Elastic Compliance Matrix: (Units=1/GPa)
#
#
# Indices 1 2 3 4 5 6 
#
# 1 0.010260 -0.002622 -0.001963 0.000000 0.000000 0.000000
# 2 -0.002622 0.010260 -0.001963 0.000000 0.000000 0.000000
# 3 -0.001963 -0.001963 0.017767 0.000000 0.000000 0.000000
# 4 0.000000 0.000000 0.000000 0.052252 0.000000 0.000000
# 5 0.000000 0.000000 0.000000 0.000000 0.052252 0.000000
# 6 0.000000 0.000000 0.000000 0.000000 0.000000 0.021614
#
#
# Mechanical properties :
#
#
# Convention : Reuss Voigt Hill
#
# Bulk Modulus (GPa) = 39.69577 44.29084 41.99330
# Shear Modulus (GPa) = 26.89627 31.23091 29.06359
#
# Velocity S-wave (km/s) = 3.66029 3.94422 3.80490
# Velocity P-wave (km/s) = 6.13490 6.54254 6.34200
#
# Compressibility (1/GPa) = 0.02519160
#
# Stress axis : x y z
#
# Youngs Moduli (GPa) = 97.46138 97.46138 56.28438
#
# Poissons Ratio (x) = 0.25556 0.11049
# Poissons Ratio (y) = 0.25556 0.11049
# Poissons Ratio (z) = 0.19131 0.19131
#
# Static dielectric constant tensor:
#      x y z
#    x 1.758650 0.000000 0.000000 
#    y 0.000000 1.758650 0.000000 
#    z 0.000000 0.000000 1.693120 
# 
# From -- ./inp_files/11471.got.cif
#   From: 2010.05.17/outbox.ucp.g08.bks.cvg/sg142_6_cif.got.tgz:11471.got - 2010.06.11 11:43:53.
