data_PCOD9574800
_publ_section_title
;
Structure prediction by ZEFSAII (Michael W. Deem and Ramdas Pophale) SiO2 
 PCOD9574800
Probable space group: R 3
;
_chemical_formula_sum "Si O2"
_cell_formula_units_Z 60
_cell_length_a 15.531193
_cell_length_b 15.531193
_cell_length_c 12.021288
_cell_angle_alpha 90.000000
_cell_angle_beta 90.000000
_cell_angle_gamma 120.000000
_cell_volume 2511.257615
_symmetry_space_group_name_H-M "R 3"
_symmetry_group_IT_number 146
_symmetry_cell_setting 'hexagonal'
loop_
_space_group_symop_operation_xyz
x,y,z
-y,x-y,z
-x+y,-x,z
2/3+x,1/3+y,1/3+z
2/3-y,1/3+x-y,1/3+z
2/3-x+y,1/3-x,1/3+z
1/3+x,2/3+y,2/3+z
1/3-y,2/3+x-y,2/3+z
1/3-x+y,2/3-x,2/3+z
loop_
_atom_site_type_symbol
_atom_site_label
_atom_site_fract_x
_atom_site_fract_y
_atom_site_fract_z
Si Si1 0.440955 0.551339 0.163510
Si Si2 0.244944 0.152933 0.774817
Si Si3 0.553170 0.776798 0.198237
Si Si4 0.333335 0.666668 0.822151
Si Si5 0.114997 0.789583 0.734905
Si Si6 0.666668 0.333334 0.217727
Si Si7 0.126394 0.508819 0.551221
Si Si8 0.142325 0.221506 0.119221
O O1 0.474719 0.499883 0.074221
O O2 0.521185 0.665776 0.166257
O O3 0.328297 0.520537 0.140346
O O4 0.438053 0.495090 0.280487
O O5 0.189480 0.101732 0.661617
O O6 0.244746 0.254413 0.796715
O O7 0.221730 0.068555 0.866514
O O8 0.667705 0.858153 0.171185
O O9 0.333334 0.666667 0.685072
O O10 0.399468 0.784854 0.849907
O O11 0.188418 0.886826 0.807112
O O12 0.130448 0.695529 0.743435
O O13 0.553535 0.282777 0.179594
O O14 0.106574 0.523250 0.677348
#
# Coordination Sequence:
#
# PCOD9574800 Si02
#       8
#     9   9   9   3   9   3   9   9
#     4  11  24  42  69 100 143 190 244 299 356 440
#     4  11  23  41  66 102 138 188 242 297 352 433
#     4  11  25  45  69 104 149 191 245 301 374 435
#     4   9  24  45  69  99 151 191 250 288 369 438
#     4  11  22  39  68 105 144 187 234 300 370 421
#     4   9  18  33  63 105 133 167 235 303 342 411
#     4  11  21  38  68 101 137 185 238 297 363 418
#     4  11  25  43  72 104 149 193 238 307 372 448
#
# _framework density 23.892410999999999
#
# number of rings (size 3 to 8) (size 9 to 14) (size 15 to 20)
#    0.000    1.200    4.500    1.200    6.300    2.400 
#    0.000    1.500    0.000    0.000    0.000    0.000 
#    0.000    0.000    0.000    0.000    0.000    0.000 
#
# Total GULP energy -111538.254875 kJ/mol
# GULP energy per Si atom -5576.912744 kJ/mol
# Density = 2.383803 g / cm^3
# Si number density = 23.892411 Si / 1000 Ang^3
#
#
#
# Elastic Constant Matrix: (Units=GPa)
#
#
# Indices 1 2 3 4 5 6 
#
# 1 102.0717 23.3376 6.7517 4.3413 7.0484 -0.0003
# 2 23.3376 102.0726 6.7518 -4.3415 -7.0486 -0.0003
# 3 6.7517 6.7518 49.6505 0.0000 0.0000 0.0002
# 4 4.3413 -4.3415 0.0000 15.7523 -0.0001 -7.0485
# 5 7.0484 -7.0486 0.0000 -0.0001 15.7525 4.3410
# 6 -0.0003 -0.0003 0.0002 -7.0485 4.3410 39.3671
#
#
#
# Elastic Compliance Matrix: (Units=1/GPa)
#
#
# Indices 1 2 3 4 5 6 
#
# 1 0.011186 -0.003093 -0.001100 -0.003935 -0.006389 0.000000
# 2 -0.003093 0.011186 -0.001100 0.003935 0.006389 0.000000
# 3 -0.001100 -0.001100 0.020440 0.000000 0.000000 0.000000
# 4 -0.003935 0.003935 0.000000 0.071370 0.000001 0.012778
# 5 -0.006389 0.006389 0.000000 0.000001 0.071368 -0.007870
# 6 0.000000 0.000000 0.000000 0.012778 -0.007870 0.028558
#
#
# Mechanical properties :
#
#
# Convention : Reuss Voigt Hill
#
# Bulk Modulus (GPa) = 31.03372 36.38634 33.71003
# Shear Modulus (GPa) = 21.23717 28.63796 24.93757
#
# Velocity S-wave (km/s) = 2.98462 3.46587 3.23421
# Velocity P-wave (km/s) = 4.98943 5.59273 5.29967
#
# Compressibility (1/GPa) = 0.03222301
#
# Stress axis : x y z
#
# Youngs Moduli (GPa) = 89.40052 89.40110 48.92350
#
# Poissons Ratio (x) = 0.27654 0.05384
# Poissons Ratio (y) = 0.27654 0.05384
# Poissons Ratio (z) = 0.09838 0.09838
#
# Static dielectric constant tensor:
#      x y z
#    x 2.008150 0.000000 0.000000 
#    y 0.000000 2.008140 0.000000 
#    z 0.000000 0.000000 1.934360 
# 
# From -- ./inp_files/1549.got.cif
#   From: 2010.05.17/outbox.cif.g08.bks.cpg/sg146_cif.got.tgz:1549.got - 2010.05.20 13:48:23.
