data_PCOD9574817
_publ_section_title
;
Structure prediction by ZEFSAII (Michael W. Deem and Ramdas Pophale) SiO2 
 PCOD9574817
Probable space group: R 3
;
_chemical_formula_sum "Si O2"
_cell_formula_units_Z 51
_cell_length_a 10.270032
_cell_length_b 10.270032
_cell_length_c 22.367197
_cell_angle_alpha 90.000000
_cell_angle_beta 90.000000
_cell_angle_gamma 120.000000
_cell_volume 2043.081956
_symmetry_space_group_name_H-M "R 3"
_symmetry_group_IT_number 146
_symmetry_cell_setting 'hexagonal'
loop_
_space_group_symop_operation_xyz
x,y,z
-y,x-y,z
-x+y,-x,z
2/3+x,1/3+y,1/3+z
2/3-y,1/3+x-y,1/3+z
2/3-x+y,1/3-x,1/3+z
1/3+x,2/3+y,2/3+z
1/3-y,2/3+x-y,2/3+z
1/3-x+y,2/3-x,2/3+z
loop_
_atom_site_type_symbol
_atom_site_label
_atom_site_fract_x
_atom_site_fract_y
_atom_site_fract_z
Si Si1 0.320685 0.415076 0.327740
Si Si2 0.867178 0.180422 0.338834
Si Si3 0.740712 0.766375 0.591694
Si Si4 0.333334 0.666668 0.525006
Si Si5 0.776325 0.677028 0.467072
Si Si6 0.333334 0.666668 0.667084
Si Si7 0.884837 0.645831 0.128974
O O1 0.241082 0.235635 0.327041
O O2 0.213225 0.470580 0.301816
O O3 0.456813 0.474521 0.280652
O O4 0.383546 0.464296 0.394066
O O5 0.955824 0.208962 0.401022
O O6 0.755886 0.248282 0.353905
O O7 0.955069 0.266593 0.280158
O O8 0.782983 0.777392 0.523131
O O9 0.333334 0.666667 0.595826
O O10 0.463884 0.827799 0.501075
O O11 0.607704 0.535000 0.469246
O O12 0.909136 0.637299 0.474541
#
# Coordination Sequence:
#
# PCOD9574817 Si02
#       7
#     9   9   9   3   9   3   9
#     4  11  25  46  73 100 149 192 238 309 376 452
#     4  11  23  47  68 106 140 191 243 302 366 443
#     4  12  25  45  74 106 144 189 249 301 379 444
#     4  12  27  39  84 120 150 195 277 320 370 465
#     4  11  25  43  74 107 149 193 248 309 380 445
#     4  12  21  42  78  99 141 183 253 299 358 441
#     4  11  24  48  73 114 153 199 254 316 385 460
#
# _framework density 24.962288000000001
#
# number of rings (size 3 to 8) (size 9 to 14) (size 15 to 20)
#    0.000    0.706    3.529    3.882    4.941    0.000 
#    4.235    0.000    0.000    0.706    0.000    0.000 
#    0.000    0.000    0.000    0.000    0.000    0.000 
#
# Total GULP energy -95236.467803 kJ/mol
# GULP energy per Si atom -5602.145165 kJ/mol
# Density = 2.490547 g / cm^3
# Si number density = 24.962288 Si / 1000 Ang^3
#
#
#
# Elastic Constant Matrix: (Units=GPa)
#
#
# Indices 1 2 3 4 5 6 
#
# 1 64.6132 15.6280 27.1692 10.2589 3.9123 0.0002
# 2 15.6280 64.6133 27.1694 -10.2587 -3.9125 0.0004
# 3 27.1692 27.1694 169.1751 -0.0001 0.0001 0.0000
# 4 10.2589 -10.2587 -0.0001 29.3499 0.0000 -3.9123
# 5 3.9123 -3.9125 0.0001 0.0000 29.3495 10.2589
# 6 0.0002 0.0004 0.0000 -3.9123 10.2589 24.4925
#
#
#
# Elastic Compliance Matrix: (Units=1/GPa)
#
#
# Indices 1 2 3 4 5 6 
#
# 1 0.019255 -0.005272 -0.002246 -0.008573 -0.003270 0.000000
# 2 -0.005272 0.019255 -0.002246 0.008573 0.003270 0.000000
# 3 -0.002246 -0.002246 0.006632 0.000000 0.000000 0.000000
# 4 -0.008573 0.008573 0.000000 0.040937 0.000000 0.006539
# 5 -0.003270 0.003270 0.000000 0.000000 0.040937 -0.017147
# 6 0.000000 0.000000 0.000000 0.006539 -0.017147 0.049055
#
#
# Mechanical properties :
#
#
# Convention : Reuss Voigt Hill
#
# Bulk Modulus (GPa) = 39.03815 48.70387 43.87101
# Shear Modulus (GPa) = 24.49323 31.86739 28.18031
#
# Velocity S-wave (km/s) = 3.13582 3.57686 3.36358
# Velocity P-wave (km/s) = 5.36507 6.05078 5.71821
#
# Compressibility (1/GPa) = 0.02561597
#
# Stress axis : x y z
#
# Youngs Moduli (GPa) = 51.93360 51.93367 150.77633
#
# Poissons Ratio (x) = 0.27380 0.33859
# Poissons Ratio (y) = 0.27380 0.33860
# Poissons Ratio (z) = 0.11663 0.11663
#
# Static dielectric constant tensor:
#      x y z
#    x 2.006160 0.000000 0.000000 
#    y 0.000000 2.006150 0.000000 
#    z 0.000000 0.000000 1.924160 
# 
# From -- ./inp_files/1936.got.cif
#   From: 2010.05.17/outbox.cif.g08.bks.cpg/sg146_cif.got.tgz:1936.got - 2010.05.20 13:48:23.
