data_PCOD9574705
_publ_section_title
;
Structure prediction by ZEFSAII (Michael W. Deem and Ramdas Pophale) SiO2 
 PCOD9574705
Probable space group: R 3
;
_chemical_formula_sum "Si O2"
_cell_formula_units_Z 54
_cell_length_a 16.367933
_cell_length_b 16.367933
_cell_length_c 11.433582
_cell_angle_alpha 90.000000
_cell_angle_beta 90.000000
_cell_angle_gamma 120.000000
_cell_volume 2652.776244
_symmetry_space_group_name_H-M "R 3"
_symmetry_group_IT_number 146
_symmetry_cell_setting 'hexagonal'
loop_
_space_group_symop_operation_xyz
x,y,z
-y,x-y,z
-x+y,-x,z
2/3+x,1/3+y,1/3+z
2/3-y,1/3+x-y,1/3+z
2/3-x+y,1/3-x,1/3+z
1/3+x,2/3+y,2/3+z
1/3-y,2/3+x-y,2/3+z
1/3-x+y,2/3-x,2/3+z
loop_
_atom_site_type_symbol
_atom_site_label
_atom_site_fract_x
_atom_site_fract_y
_atom_site_fract_z
Si Si1 0.417153 0.858298 0.963340
Si Si2 0.235297 0.294514 0.128908
Si Si3 0.145027 0.369910 0.446182
Si Si4 0.830969 0.290331 0.951542
Si Si5 0.189590 0.101587 0.407881
Si Si6 0.006428 0.756173 0.689028
O O1 0.473130 0.874821 0.843894
O O2 0.465639 0.823853 0.060776
O O3 0.307011 0.788944 0.969822
O O4 0.434971 0.958933 0.008393
O O5 0.215350 0.368031 0.058003
O O6 0.287681 0.360042 0.242017
O O7 0.310357 0.271002 0.072436
O O8 0.132604 0.455080 0.403856
O O9 0.088642 0.310251 0.557795
O O10 0.255945 0.403802 0.445584
O O11 0.836941 0.370006 0.858305
O O12 0.732520 0.198043 0.985152
#
# Coordination Sequence:
#
# PCOD9574705 Si02
#       6
#     9   9   9   9   9   9
#     4  10  21  35  58  92 126 166 215 269 336 379
#     4  11  19  39  62  91 131 174 213 267 334 412
#     4  10  21  38  59  92 130 162 215 269 332 392
#     4  11  22  38  61  91 128 164 216 275 321 387
#     4  11  19  35  60  90 128 161 212 281 315 384
#     4  11  20  39  64  94 127 171 219 259 336 408
#
# _framework density 20.356031000000002
#
# number of rings (size 3 to 8) (size 9 to 14) (size 15 to 20)
#    0.000    1.333    8.333    1.333    0.000    0.000 
#    7.000    0.000    0.000    0.000    0.000    0.000 
#    0.000    0.000    0.000    0.000    0.000    0.000 
#
# Total GULP energy -100293.325325 kJ/mol
# GULP energy per Si atom -5571.851407 kJ/mol
# Density = 2.030970 g / cm^3
# Si number density = 20.356031 Si / 1000 Ang^3
#
#
#
# Elastic Constant Matrix: (Units=GPa)
#
#
# Indices 1 2 3 4 5 6 
#
# 1 75.2584 19.6291 20.4005 -5.1553 -4.3527 0.0000
# 2 19.6291 75.2584 20.4005 5.1553 4.3527 0.0000
# 3 20.4005 20.4005 28.2421 0.0000 0.0000 0.0000
# 4 -5.1553 5.1553 0.0000 28.0259 0.0000 4.3527
# 5 -4.3527 4.3527 0.0000 0.0000 28.0259 -5.1553
# 6 0.0000 0.0000 0.0000 4.3527 -5.1553 27.8146
#
#
#
# Elastic Compliance Matrix: (Units=1/GPa)
#
#
# Indices 1 2 3 4 5 6 
#
# 1 0.017189 -0.001902 -0.011042 0.003512 0.002965 0.000000
# 2 -0.001902 0.017189 -0.011042 -0.003512 -0.002965 0.000000
# 3 -0.011042 -0.011042 0.051361 0.000000 0.000000 0.000000
# 4 0.003512 -0.003512 0.000000 0.037894 0.000000 -0.005930
# 5 0.002965 -0.002965 0.000000 0.000000 0.037894 0.007024
# 6 0.000000 0.000000 0.000000 -0.005930 0.007024 0.038182
#
#
# Mechanical properties :
#
#
# Convention : Reuss Voigt Hill
#
# Bulk Modulus (GPa) = 26.47941 33.29101 29.88521
# Shear Modulus (GPa) = 19.21066 24.66185 21.93626
#
# Velocity S-wave (km/s) = 3.07536 3.48447 3.28629
# Velocity P-wave (km/s) = 5.06427 5.70777 5.39562
#
# Compressibility (1/GPa) = 0.03776520
#
# Stress axis : x y z
#
# Youngs Moduli (GPa) = 58.17669 58.17669 19.46999
#
# Poissons Ratio (x) = 0.11065 0.21500
# Poissons Ratio (y) = 0.11065 0.21500
# Poissons Ratio (z) = 0.64241 0.64241
#
# Static dielectric constant tensor:
#      x y z
#    x 1.753420 0.000000 0.000000 
#    y 0.000000 1.753420 0.000000 
#    z 0.000000 0.000000 1.789280 
# 
# From -- ./inp_files/1190.got.cif
#   From: 2010.05.17/outbox.cif.g08.bks.cpg/sg146_cif.got.tgz:1190.got - 2010.05.20 13:48:23.
