data_PCOD9574238
_publ_section_title
;
Structure prediction by ZEFSAII (Michael W. Deem and Ramdas Pophale) SiO2 
 PCOD9574238
Probable space group: I 41/A C D
;
_chemical_formula_sum "Si O2"
_cell_formula_units_Z 80
_cell_length_a 8.967959
_cell_length_b 8.967959
_cell_length_c 30.620392
_cell_angle_alpha 90.000000
_cell_angle_beta 90.000000
_cell_angle_gamma 90.000000
_cell_volume 2462.623244
_symmetry_space_group_name_H-M "I 41/A C D"
_symmetry_group_IT_number 142
_space_group.IT_coordinate_system_code '2'
_symmetry_cell_setting 'tetragonal'
loop_
_space_group_symop_operation_xyz
x,y,z
1/4-y,3/4+x,1/4+z
-x,1/2-y,z
1/4+y,1/4-x,3/4+z
x,-y,1/2-z
1/2-x,y,-z
3/4+y,1/4+x,1/4-z
1/4-y,1/4-x,1/4-z
-x,-y,-z
3/4+y,1/4-x,3/4-z
x,1/2+y,-z
3/4-y,3/4+x,1/4-z
-x,y,1/2+z
1/2+x,-y,z
1/4-y,3/4-x,3/4+z
3/4+y,3/4+x,3/4+z
1/2+x,1/2+y,1/2+z
3/4-y,1/4+x,3/4+z
1/2-x,-y,1/2+z
3/4+y,3/4-x,1/4+z
1/2+x,1/2-y,-z
-x,1/2+y,1/2-z
1/4+y,3/4+x,3/4-z
3/4-y,3/4-x,3/4-z
1/2-x,1/2-y,1/2-z
1/4+y,3/4-x,1/4-z
1/2+x,y,1/2-z
1/4-y,1/4+x,3/4-z
1/2-x,1/2+y,z
x,1/2-y,1/2+z
3/4-y,1/4-x,1/4+z
1/4+y,1/4+x,1/4+z
loop_
_atom_site_type_symbol
_atom_site_label
_atom_site_fract_x
_atom_site_fract_y
_atom_site_fract_z
Si Si1 0.658269 0.908269 0.625000
Si Si2 0.655437 0.272952 0.039865
Si Si3 0.744472 0.637079 0.324887
O O1 0.803065 0.826979 0.586690
O O2 0.666329 0.780573 0.659482
O O3 0.774970 0.408926 0.046760
O O4 0.508276 0.128839 0.041792
O O5 0.750000 0.200408 0.000000
O O6 0.786589 0.536589 0.375000
#
# Coordination Sequence:
#
# PCOD9574238 Si02
#       3
#    16  32  32
#     4  12  28  50  82 120 168 219 276 353 424 518
#     4  12  29  53  83 124 170 223 288 354 428 514
#     4  12  28  52  84 123 167 220 284 349 434 506
#
# _framework density 32.485681
#
# number of rings (size 3 to 8) (size 9 to 14) (size 15 to 20)
#    0.000    0.000    4.000    3.600    5.600    8.800 
#    0.000    0.000    0.000    0.000    0.000    0.000 
#    0.000    0.000    0.000    0.000    0.000    0.000 
#
# Total GULP energy -222976.006553 kJ/mol
# GULP energy per Si atom -5574.400164 kJ/mol
# Density = 3.241174 g / cm^3
# Si number density = 32.485681 Si / 1000 Ang^3
#
#
#
# Elastic Constant Matrix: (Units=GPa)
#
#
# Indices 1 2 3 4 5 6 
#
# 1 384.0484 102.6739 74.5894 0.0000 0.0000 0.0000
# 2 102.6739 384.0483 74.5894 0.0000 0.0000 0.0000
# 3 74.5894 74.5894 151.2158 0.0000 0.0000 0.0000
# 4 0.0000 0.0000 0.0000 77.8869 0.0000 0.0000
# 5 0.0000 0.0000 0.0000 0.0000 77.8869 0.0000
# 6 0.0000 0.0000 0.0000 0.0000 0.0000 67.0046
#
#
#
# Elastic Compliance Matrix: (Units=1/GPa)
#
#
# Indices 1 2 3 4 5 6 
#
# 1 0.002987 -0.000567 -0.001194 0.000000 0.000000 0.000000
# 2 -0.000567 0.002987 -0.001194 0.000000 0.000000 0.000000
# 3 -0.001194 -0.001194 0.007791 0.000000 0.000000 0.000000
# 4 0.000000 0.000000 0.000000 0.012839 0.000000 0.000000
# 5 0.000000 0.000000 0.000000 0.000000 0.012839 0.000000
# 6 0.000000 0.000000 0.000000 0.000000 0.000000 0.014924
#
#
# Mechanical properties :
#
#
# Convention : Reuss Voigt Hill
#
# Bulk Modulus (GPa) = 127.28895 158.11310 142.70102
# Shear Modulus (GPa) = 79.49632 89.05301 84.27467
#
# Velocity S-wave (km/s) = 4.95220 5.24142 5.09886
# Velocity P-wave (km/s) = 8.48335 9.24161 8.87058
#
# Compressibility (1/GPa) = 0.00785614
#
# Stress axis : x y z
#
# Youngs Moduli (GPa) = 334.75698 334.75697 128.35443
#
# Poissons Ratio (x) = 0.18972 0.15325
# Poissons Ratio (y) = 0.18972 0.15325
# Poissons Ratio (z) = 0.39968 0.39968
#
# Static dielectric constant tensor:
#      x y z
#    x 3.474380 0.000000 0.000000 
#    y 0.000000 3.474380 0.000000 
#    z 0.000000 0.000000 3.975030 
# 
# From -- ./inp_files/11866.got.cif
#   From: 2010.05.17/outbox.cif.g08.bks.cpg/sg142_6_cif.got.tgz:11866.got - 2010.05.20 13:39:18.
