data_PCOD9574694
_publ_section_title
;
Structure prediction by ZEFSAII (Michael W. Deem and Ramdas Pophale) SiO2 
 PCOD9574694
Probable space group: R 3
;
_chemical_formula_sum "Si O2"
_cell_formula_units_Z 33
_cell_length_a 13.000923
_cell_length_b 13.000923
_cell_length_c 8.024529
_cell_angle_alpha 90.000000
_cell_angle_beta 90.000000
_cell_angle_gamma 120.000000
_cell_volume 1174.623147
_symmetry_space_group_name_H-M "R 3"
_symmetry_group_IT_number 146
_symmetry_cell_setting 'hexagonal'
loop_
_space_group_symop_operation_xyz
x,y,z
-y,x-y,z
-x+y,-x,z
2/3+x,1/3+y,1/3+z
2/3-y,1/3+x-y,1/3+z
2/3-x+y,1/3-x,1/3+z
1/3+x,2/3+y,2/3+z
1/3-y,2/3+x-y,2/3+z
1/3-x+y,2/3-x,2/3+z
loop_
_atom_site_type_symbol
_atom_site_label
_atom_site_fract_x
_atom_site_fract_y
_atom_site_fract_z
Si Si1 0.333335 0.666668 0.231266
Si Si2 0.333334 0.666667 0.637400
Si Si3 0.239007 0.812683 0.069437
Si Si4 0.276732 0.156473 0.061728
Si Si5 0.437282 0.446347 0.053150
O O1 0.333334 0.666667 0.432851
O O2 0.220471 0.550646 0.154842
O O3 0.296674 0.534252 0.703587
O O4 0.181255 0.839694 0.224807
O O5 0.131790 0.680360 0.024898
O O6 0.241737 0.867292 0.889499
O O7 0.374554 0.300667 0.074819
O O8 0.313303 0.142972 0.875384
#
# Coordination Sequence:
#
# PCOD9574694 Si02
#       5
#     3   3   9   9   9
#     4  12  25  35  55  88 125 142 190 239 289 313
#     4  12  25  35  55  88 125 142 190 239 289 313
#     4  11  19  37  57  87 109 152 183 236 274 343
#     4  11  19  37  57  87 109 152 183 236 274 343
#     4  10  20  36  68  82 108 142 206 220 274 344
#
# _framework density 28.094114000000001
#
# number of rings (size 3 to 8) (size 9 to 14) (size 15 to 20)
#    0.000    1.091    8.182    1.636    0.000    0.000 
#    0.000    0.000    0.000   13.091    0.000    0.000 
#    0.000    0.000    0.000    0.000    0.000    0.000 
#
# Total GULP energy -61265.457632 kJ/mol
# GULP energy per Si atom -5569.587057 kJ/mol
# Density = 2.803017 g / cm^3
# Si number density = 28.094114 Si / 1000 Ang^3
#
#
#
# Elastic Constant Matrix: (Units=GPa)
#
#
# Indices 1 2 3 4 5 6 
#
# 1 100.1510 42.1168 20.2099 -8.1872 -1.8775 -0.0002
# 2 42.1168 100.1497 20.2099 8.1875 1.8775 0.0000
# 3 20.2099 20.2099 267.4980 -0.0002 -0.0005 -0.0004
# 4 -8.1872 8.1875 -0.0002 -1.3741 -0.0002 1.8777
# 5 -1.8775 1.8775 -0.0005 -0.0002 -1.3732 -8.1870
# 6 -0.0002 0.0000 -0.0004 1.8777 -8.1870 29.0175
#
#
#
# Elastic Compliance Matrix: (Units=1/GPa)
#
#
# Indices 1 2 3 4 5 6 
#
# 1 0.006703 0.000481 -0.000543 -0.037069 -0.008501 0.000000
# 2 0.000481 0.006702 -0.000543 0.037070 0.008501 0.000000
# 3 -0.000543 -0.000543 0.003820 0.000000 -0.000001 0.000000
# 4 -0.037069 0.037070 0.000000 -0.262760 0.000017 0.017007
# 5 -0.008501 0.008501 -0.000001 0.000017 -0.262839 -0.074159
# 6 0.000000 0.000000 0.000000 0.017007 -0.074159 0.012438
#
#
# Mechanical properties :
#
#
# Convention : Reuss Voigt Hill
#
# Bulk Modulus (GPa) = 62.43766 70.31909 66.37837
# Shear Modulus (GPa) = -10.21688 30.93818 10.36065
#
# Velocity S-wave (km/s) = -1.90907 3.32208 1.92246
# Velocity P-wave (km/s) = 4.17292 6.30866 5.34848
#
# Compressibility (1/GPa) = 0.01601598
#
# Stress axis : x y z
#
# Youngs Moduli (GPa) = 149.19558 149.19872 261.75613
#
# Poissons Ratio (x) = -0.07172 0.14207
# Poissons Ratio (y) = -0.07172 0.14204
# Poissons Ratio (z) = 0.08098 0.08096
#
# Static dielectric constant tensor:
#      x y z
#    x 2.253500 0.000000 0.000000 
#    y 0.000000 2.253500 0.000000 
#    z 0.000000 0.000000 2.510750 
# 
# From -- ./inp_files/557.got.cif
#   From: 2010.05.17/outbox.cif.g08.bks.cpg/sg146_cif.got.tgz:557.got - 2010.05.20 13:48:23.
