data_PCOD9574321
_publ_section_title
;
Structure prediction by ZEFSAII (Michael W. Deem and Ramdas Pophale) SiO2 
 PCOD9574321
Probable space group: P 31
;
_chemical_formula_sum "Si O2"
_cell_formula_units_Z 24
_cell_length_a 15.070221
_cell_length_b 15.070221
_cell_length_c 5.430272
_cell_angle_alpha 90.000000
_cell_angle_beta 90.000000
_cell_angle_gamma 120.000000
_cell_volume 1068.049689
_symmetry_space_group_name_H-M "P 31"
_symmetry_group_IT_number 144
_symmetry_cell_setting 'hexagonal'
loop_
_space_group_symop_operation_xyz
x,y,z
-y,x-y,1/3+z
-x+y,-x,2/3+z
loop_
_atom_site_type_symbol
_atom_site_label
_atom_site_fract_x
_atom_site_fract_y
_atom_site_fract_z
Si Si1 0.812676 0.092467 0.369150
Si Si2 0.527672 0.512119 0.999199
Si Si3 0.774215 0.796105 0.467806
Si Si4 0.922036 0.013922 0.676266
Si Si5 0.631596 0.945403 0.075889
Si Si6 0.672443 0.429754 0.910710
Si Si7 0.106905 0.354483 0.637498
Si Si8 0.452460 0.336301 0.358031
O O1 0.900114 0.166468 0.182896
O O2 0.739189 0.131608 0.464971
O O3 0.868971 0.078444 0.606652
O O4 0.732108 0.985587 0.245526
O O5 0.413510 0.454808 0.884658
O O6 0.611404 0.490500 0.862819
O O7 0.566633 0.631730 0.001125
O O8 0.516785 0.452593 0.257275
O O9 0.860565 0.914569 0.501840
O O10 0.720473 0.774987 0.205028
O O11 0.698620 0.770642 0.702443
O O12 0.919523 0.960032 0.929323
O O13 0.603332 0.832421 0.990259
O O14 0.664720 0.031081 0.864479
O O15 0.727320 0.407712 0.687339
O O16 0.766437 0.483244 0.110708
#
# Coordination Sequence:
#
# PCOD9574321 Si02
#       8
#     3   3   3   3   3   3   3   3
#     4  10  22  38  63  97 139 186 233 276 348 417
#     4  10  25  44  68 106 130 186 240 300 363 432
#     4  11  26  41  67 101 137 187 231 284 343 424
#     4  10  22  36  58  89 137 183 231 278 327 407
#     4  11  24  44  72  97 145 187 240 301 360 426
#     4  10  20  39  65  99 141 174 227 290 362 437
#     4  12  27  49  70 100 144 185 244 295 357 422
#     4  10  22  41  69 101 139 184 234 292 368 431
#
# _framework density 22.470866999999998
#
# number of rings (size 3 to 8) (size 9 to 14) (size 15 to 20)
#    0.000    1.500    1.250    2.250   10.500    1.000 
#    4.500    1.250    0.000    0.000    0.000    0.000 
#    0.000    0.000    0.000    0.000    0.000    0.000 
#
# Total GULP energy -133941.719544 kJ/mol
# GULP energy per Si atom -5580.904981 kJ/mol
# Density = 2.241972 g / cm^3
# Si number density = 22.470867 Si / 1000 Ang^3
#
#
#
# Elastic Constant Matrix: (Units=GPa)
#
#
# Indices 1 2 3 4 5 6 
#
# 1 144.5697 62.9789 34.8032 -5.2030 2.7629 0.0000
# 2 62.9789 144.5697 34.8032 5.2030 -2.7629 0.0000
# 3 34.8032 34.8032 77.8260 0.0000 0.0000 0.0000
# 4 -5.2030 5.2030 0.0000 17.3394 0.0000 -2.7629
# 5 2.7629 -2.7629 0.0000 0.0000 17.3394 -5.2030
# 6 0.0000 0.0000 0.0000 -2.7629 -5.2030 40.7954
#
#
#
# Elastic Compliance Matrix: (Units=1/GPa)
#
#
# Indices 1 2 3 4 5 6 
#
# 1 0.009278 -0.003610 -0.002535 0.003867 -0.002054 0.000000
# 2 -0.003610 0.009278 -0.002535 -0.003867 0.002054 0.000000
# 3 -0.002535 -0.002535 0.015116 0.000000 0.000000 0.000000
# 4 0.003867 -0.003867 0.000000 0.060648 0.000000 0.004107
# 5 -0.002054 0.002054 0.000000 0.000000 0.060648 0.007735
# 6 0.000000 0.000000 0.000000 0.004107 0.007735 0.025777
#
#
# Mechanical properties :
#
#
# Convention : Reuss Voigt Hill
#
# Bulk Modulus (GPa) = 61.29866 70.23734 65.76800
# Shear Modulus (GPa) = 24.56481 30.72017 27.64249
#
# Velocity S-wave (km/s) = 3.30992 3.70146 3.51115
# Velocity P-wave (km/s) = 6.47656 7.04220 6.76530
#
# Compressibility (1/GPa) = 0.01631357
#
# Stress axis : x y z
#
# Youngs Moduli (GPa) = 107.77684 107.77684 66.15391
#
# Poissons Ratio (x) = 0.38909 0.16769
# Poissons Ratio (y) = 0.38909 0.16769
# Poissons Ratio (z) = 0.27319 0.27319
#
# Static dielectric constant tensor:
#      x y z
#    x 1.874100 0.000000 0.000000 
#    y 0.000000 1.874100 0.000000 
#    z 0.000000 0.000000 1.960670 
# 
# From -- ./inp_files/137.got.cif
#   From: 2010.05.17/outbox.cif.g08.bks.cpg/sg144_cif.got.tgz:137.got - 2010.05.20 13:46:34.
