data_PCOD9574421
_publ_section_title
;
Structure prediction by ZEFSAII (Michael W. Deem and Ramdas Pophale) SiO2 
 PCOD9574421
Probable space group: P 31
;
_chemical_formula_sum "Si O2"
_cell_formula_units_Z 18
_cell_length_a 11.004606
_cell_length_b 11.004606
_cell_length_c 7.172921
_cell_angle_alpha 90.000000
_cell_angle_beta 90.000000
_cell_angle_gamma 120.000000
_cell_volume 752.273348
_symmetry_space_group_name_H-M "P 31"
_symmetry_group_IT_number 144
_symmetry_cell_setting 'hexagonal'
loop_
_space_group_symop_operation_xyz
x,y,z
-y,x-y,1/3+z
-x+y,-x,2/3+z
loop_
_atom_site_type_symbol
_atom_site_label
_atom_site_fract_x
_atom_site_fract_y
_atom_site_fract_z
Si Si1 0.953857 0.511547 0.176580
Si Si2 0.448227 0.514445 0.930629
Si Si3 0.743024 0.922474 0.217488
Si Si4 0.769339 0.336214 0.715972
Si Si5 0.197774 0.380396 0.489085
Si Si6 0.763352 0.728665 0.502438
O O1 0.997813 0.533836 0.392059
O O2 0.084097 0.645218 0.082055
O O3 0.926766 0.357531 0.125562
O O4 0.817193 0.523586 0.137757
O O5 0.287454 0.408481 0.973292
O O6 0.561325 0.496352 0.050647
O O7 0.493287 0.675114 0.909115
O O8 0.838313 0.089756 0.240114
O O9 0.795867 0.831278 0.326686
O O10 0.723001 0.889271 0.997797
O O11 0.696733 0.405137 0.839438
O O12 0.081661 0.303105 0.332028
#
# Coordination Sequence:
#
# PCOD9574421 Si02
#       6
#     3   3   3   3   3   3
#     4  10  24  46  69 103 136 177 232 281 332 410
#     4  10  24  46  69 103 136 177 232 281 332 410
#     4  11  27  45  69 102 138 182 232 277 339 415
#     4  12  24  40  72 102 138 176 222 282 338 400
#     4  10  26  46  70  98 142 178 222 292 340 388
#     4  11  27  45  69 102 138 182 232 277 339 415
#
# _framework density 23.927472999999999
#
# number of rings (size 3 to 8) (size 9 to 14) (size 15 to 20)
#    0.000    1.333    1.667    1.000   11.667    4.000 
#    0.000    0.000    0.000    0.000    0.000    0.000 
#    0.000    0.000    0.000    0.000    0.000    0.000 
#
# Total GULP energy -100749.519990 kJ/mol
# GULP energy per Si atom -5597.195555 kJ/mol
# Density = 2.387301 g / cm^3
# Si number density = 23.927473 Si / 1000 Ang^3
#
#
#
# Elastic Constant Matrix: (Units=GPa)
#
#
# Indices 1 2 3 4 5 6 
#
# 1 76.8325 14.0066 5.0033 5.1660 0.1876 0.0000
# 2 14.0066 76.8325 5.0033 -5.1660 -0.1876 0.0000
# 3 5.0033 5.0033 79.3108 0.0000 0.0000 0.0000
# 4 5.1660 -5.1660 0.0000 30.5167 0.0000 -0.1876
# 5 0.1876 -0.1876 0.0000 0.0000 30.5167 5.1660
# 6 0.0000 0.0000 0.0000 -0.1876 5.1660 31.4130
#
#
#
# Elastic Compliance Matrix: (Units=1/GPa)
#
#
# Indices 1 2 3 4 5 6 
#
# 1 0.013729 -0.002644 -0.000699 -0.002772 -0.000101 0.000000
# 2 -0.002644 0.013729 -0.000699 0.002772 0.000101 0.000000
# 3 -0.000699 -0.000699 0.012697 0.000000 0.000000 0.000000
# 4 -0.002772 0.002772 0.000000 0.033709 0.000000 0.000201
# 5 -0.000101 0.000101 0.000000 0.000000 0.033709 -0.005544
# 6 0.000000 0.000000 0.000000 0.000201 -0.005544 0.032747
#
#
# Mechanical properties :
#
#
# Convention : Reuss Voigt Hill
#
# Bulk Modulus (GPa) = 31.18126 31.22249 31.20187
# Shear Modulus (GPa) = 31.42771 32.42012 31.92391
#
# Velocity S-wave (km/s) = 3.62810 3.68493 3.65663
# Velocity P-wave (km/s) = 5.53269 5.58410 5.55845
#
# Compressibility (1/GPa) = 0.03207055
#
# Stress axis : x y z
#
# Youngs Moduli (GPa) = 72.83602 72.83602 78.75969
#
# Poissons Ratio (x) = 0.19258 0.05508
# Poissons Ratio (y) = 0.19258 0.05508
# Poissons Ratio (z) = 0.05094 0.05094
#
# Static dielectric constant tensor:
#      x y z
#    x 1.905890 0.000000 0.000000 
#    y 0.000000 1.905890 0.000000 
#    z 0.000000 0.000000 1.939920 
# 
# From -- ./inp_files/370.got.cif
#   From: 2010.05.17/outbox.cif.g08.bks.cpg/sg144_cif.got.tgz:370.got - 2010.05.20 13:46:34.
