data_PCOD9574641
_publ_section_title
;
Structure prediction by ZEFSAII (Michael W. Deem and Ramdas Pophale) SiO2 
 PCOD9574641
Probable space group: P 32
;
_chemical_formula_sum "Si O2"
_cell_formula_units_Z 15
_cell_length_a 11.162654
_cell_length_b 11.162654
_cell_length_c 5.364890
_cell_angle_alpha 90.000000
_cell_angle_beta 90.000000
_cell_angle_gamma 120.000000
_cell_volume 578.930434
_symmetry_space_group_name_H-M "P 32"
_symmetry_group_IT_number 145
_symmetry_cell_setting 'hexagonal'
loop_
_space_group_symop_operation_xyz
x,y,z
-y,x-y,2/3+z
-x+y,-x,1/3+z
loop_
_atom_site_type_symbol
_atom_site_label
_atom_site_fract_x
_atom_site_fract_y
_atom_site_fract_z
Si Si1 0.450900 0.127773 0.527460
Si Si2 0.040910 0.353248 0.683162
Si Si3 0.400473 0.309377 0.850538
Si Si4 0.453440 0.779103 0.553045
Si Si5 0.930897 0.860039 0.473543
O O1 0.393676 0.051188 0.262035
O O2 0.394703 0.233525 0.589966
O O3 0.614280 0.180987 0.561649
O O4 0.388781 0.028050 0.765010
O O5 0.045325 0.210849 0.671620
O O6 0.190619 0.483070 0.710821
O O7 0.376176 0.438234 0.851407
O O8 0.283297 0.204144 0.045222
O O9 0.441090 0.699376 0.806965
O O10 0.907121 0.919407 0.731163
#
# Coordination Sequence:
#
# PCOD9574641 Si02
#       5
#     3   3   3   3   3
#     4  11  27  52  74 118 156 210 267 318 412 474
#     4  11  26  49  77 112 159 208 267 332 392 477
#     4  11  26  50  81 115 161 214 261 341 393 496
#     4  12  25  49  78 116 157 212 268 335 395 477
#     4  11  26  46  76 115 155 212 265 332 400 470
#
# _framework density 25.909849000000001
#
# number of rings (size 3 to 8) (size 9 to 14) (size 15 to 20)
#    0.000    0.800    4.000    1.200    5.600    6.400 
#   10.800    0.000    0.000    0.000    0.000    0.000 
#    0.000    0.000    0.000    0.000    0.000    0.000 
#
# Total GULP energy -83524.763365 kJ/mol
# GULP energy per Si atom -5568.317558 kJ/mol
# Density = 2.585088 g / cm^3
# Si number density = 25.909849 Si / 1000 Ang^3
#
#
#
# Elastic Constant Matrix: (Units=GPa)
#
#
# Indices 1 2 3 4 5 6 
#
# 1 137.7025 34.7363 41.5511 1.3464 -2.2818 0.0000
# 2 34.7363 137.7025 41.5511 -1.3464 2.2818 0.0000
# 3 41.5511 41.5511 123.6532 0.0000 0.0000 0.0000
# 4 1.3464 -1.3464 0.0000 32.6400 0.0000 2.2818
# 5 -2.2818 2.2818 0.0000 0.0000 32.6400 1.3464
# 6 0.0000 0.0000 0.0000 2.2818 1.3464 51.4831
#
#
#
# Elastic Compliance Matrix: (Units=1/GPa)
#
#
# Indices 1 2 3 4 5 6 
#
# 1 0.008336 -0.001416 -0.002325 -0.000402 0.000682 0.000000
# 2 -0.001416 0.008336 -0.002325 0.000402 -0.000682 0.000000
# 3 -0.002325 -0.002325 0.009650 0.000000 0.000000 0.000000
# 4 -0.000402 0.000402 0.000000 0.030766 0.000000 -0.001364
# 5 0.000682 -0.000682 0.000000 0.000000 0.030766 -0.000805
# 6 0.000000 0.000000 0.000000 -0.001364 -0.000805 0.019505
#
#
# Mechanical properties :
#
#
# Convention : Reuss Voigt Hill
#
# Bulk Modulus (GPa) = 70.48026 70.52613 70.50319
# Shear Modulus (GPa) = 40.25037 42.10059 41.17548
#
# Velocity S-wave (km/s) = 3.94569 4.03536 3.99078
# Velocity P-wave (km/s) = 6.92959 6.99936 6.96456
#
# Compressibility (1/GPa) = 0.01418837
#
# Stress axis : x y z
#
# Youngs Moduli (GPa) = 119.95868 119.95868 103.62881
#
# Poissons Ratio (x) = 0.16992 0.24096
# Poissons Ratio (y) = 0.16992 0.24096
# Poissons Ratio (z) = 0.27893 0.27893
#
# Static dielectric constant tensor:
#      x y z
#    x 2.173040 0.000000 0.000000 
#    y 0.000000 2.173040 0.000000 
#    z 0.000000 0.000000 2.097060 
# 
# From -- ./inp_files/96.got.cif
#   From: 2010.05.17/outbox.cif.g08.bks.cpg/sg145_cif.got.tgz:96.got - 2010.05.20 13:47:28.
