data_PCOD9574376
_publ_section_title
;
Structure prediction by ZEFSAII (Michael W. Deem and Ramdas Pophale) SiO2 
 PCOD9574376
Probable space group: P 31
;
_chemical_formula_sum "Si O2"
_cell_formula_units_Z 18
_cell_length_a 11.192980
_cell_length_b 11.192980
_cell_length_c 8.294782
_cell_angle_alpha 90.000000
_cell_angle_beta 90.000000
_cell_angle_gamma 120.000000
_cell_volume 899.967992
_symmetry_space_group_name_H-M "P 31"
_symmetry_group_IT_number 144
_symmetry_cell_setting 'hexagonal'
loop_
_space_group_symop_operation_xyz
x,y,z
-y,x-y,1/3+z
-x+y,-x,2/3+z
loop_
_atom_site_type_symbol
_atom_site_label
_atom_site_fract_x
_atom_site_fract_y
_atom_site_fract_z
Si Si1 0.017000 0.635040 0.899170
Si Si2 0.221941 0.071120 0.655863
Si Si3 0.600603 0.623598 0.076319
Si Si4 0.710185 0.868321 0.845033
Si Si5 0.717635 0.292002 0.641705
Si Si6 0.879367 0.075946 0.342418
O O1 0.969470 0.706082 0.764189
O O2 0.079088 0.549130 0.817794
O O3 0.873364 0.523932 0.983068
O O4 0.116833 0.750969 0.023264
O O5 0.315374 0.030103 0.551460
O O6 0.227426 0.208138 0.590078
O O7 0.255806 0.096499 0.844278
O O8 0.064725 0.945462 0.638723
O O9 0.617266 0.749564 0.969613
O O10 0.638380 0.522135 0.976992
O O11 0.828602 0.834386 0.791318
O O12 0.679860 0.345655 0.804584
#
# Coordination Sequence:
#
# PCOD9574376 Si02
#       6
#     3   3   3   3   3   3
#     4  11  24  42  65 103 141 179 228 283 351 417
#     4  12  21  37  72 104 135 168 227 292 351 398
#     4  11  24  42  65 103 141 179 228 283 351 417
#     4  12  20  42  68 104 132 174 224 296 340 400
#     4  10  22  42  66 100 142 180 224 278 352 422
#     4  12  21  37  72 104 135 168 227 292 351 398
#
# _framework density 20.000713000000001
#
# number of rings (size 3 to 8) (size 9 to 14) (size 15 to 20)
#    0.000    0.667    8.333    0.000    0.000    5.333 
#    0.000    0.000    3.667    0.000    0.000    0.000 
#    0.000    0.000    0.000    0.000    0.000    0.000 
#
# Total GULP energy -100632.291512 kJ/mol
# GULP energy per Si atom -5590.682862 kJ/mol
# Density = 1.995519 g / cm^3
# Si number density = 20.000713 Si / 1000 Ang^3
#
#
#
# Elastic Constant Matrix: (Units=GPa)
#
#
# Indices 1 2 3 4 5 6 
#
# 1 80.0582 28.8922 34.8889 -2.7081 2.6829 0.0000
# 2 28.8922 80.0582 34.8889 2.7081 -2.6829 0.0000
# 3 34.8889 34.8889 104.6802 0.0000 0.0000 0.0000
# 4 -2.7081 2.7081 0.0000 23.5499 0.0000 -2.6829
# 5 2.6829 -2.6829 0.0000 0.0000 23.5499 -2.7081
# 6 0.0000 0.0000 0.0000 -2.6829 -2.7081 25.5830
#
#
#
# Elastic Compliance Matrix: (Units=1/GPa)
#
#
# Indices 1 2 3 4 5 6 
#
# 1 0.015848 -0.004179 -0.003889 0.002303 -0.002282 0.000000
# 2 -0.004179 0.015848 -0.003889 -0.002303 0.002282 0.000000
# 3 -0.003889 -0.003889 0.012145 0.000000 0.000000 0.000000
# 4 0.002303 -0.002303 0.000000 0.043513 0.000000 0.004563
# 5 -0.002282 0.002282 0.000000 0.000000 0.043513 0.004606
# 6 0.000000 0.000000 0.000000 0.004563 0.004606 0.040055
#
#
# Mechanical properties :
#
#
# Convention : Reuss Voigt Hill
#
# Bulk Modulus (GPa) = 50.18302 51.34849 50.76575
# Shear Modulus (GPa) = 24.81645 25.61165 25.21405
#
# Velocity S-wave (km/s) = 3.52629 3.58234 3.55443
# Velocity P-wave (km/s) = 6.45947 6.54522 6.50249
#
# Compressibility (1/GPa) = 0.01992706
#
# Stress axis : x y z
#
# Youngs Moduli (GPa) = 63.09809 63.09809 82.33544
#
# Poissons Ratio (x) = 0.26368 0.32023
# Poissons Ratio (y) = 0.26368 0.32023
# Poissons Ratio (z) = 0.24541 0.24541
#
# Static dielectric constant tensor:
#      x y z
#    x 1.710000 0.000000 0.000000 
#    y 0.000000 1.710000 0.000000 
#    z 0.000000 0.000000 1.749770 
# 
# From -- ./inp_files/363.got.cif
#   From: 2010.05.17/outbox.cif.g08.bks.cpg/sg144_cif.got.tgz:363.got - 2010.05.20 13:46:34.
