data_PCOD9574910
_publ_section_title
;
Structure prediction by ZEFSAII (Michael W. Deem and Ramdas Pophale) SiO2 
 PCOD9574910
Probable space group: P -3
;
_chemical_formula_sum "Si O2"
_cell_formula_units_Z 30
_cell_length_a 14.111469
_cell_length_b 14.111469
_cell_length_c 8.400207
_cell_angle_alpha 90.000000
_cell_angle_beta 90.000000
_cell_angle_gamma 120.000000
_cell_volume 1448.655341
_symmetry_space_group_name_H-M "P -3"
_symmetry_group_IT_number 147
_symmetry_cell_setting 'hexagonal'
loop_
_space_group_symop_operation_xyz
x,y,z
-y,x-y,z
-x+y,-x,z
-x,-y,-z
y,-x+y,-z
x-y,x,-z
loop_
_atom_site_type_symbol
_atom_site_label
_atom_site_fract_x
_atom_site_fract_y
_atom_site_fract_z
Si Si1 0.612065 0.935250 0.030609
Si Si2 0.211954 0.018950 0.438285
Si Si3 0.499243 0.555981 0.241934
Si Si4 0.091688 0.437691 0.548918
Si Si5 0.138028 0.331680 0.810194
O O1 0.622244 0.836785 0.961148
O O2 0.603659 0.003247 0.880116
O O3 0.503810 0.895799 0.134492
O O4 0.717136 0.016900 0.135358
O O5 0.199360 0.101768 0.557076
O O6 0.239306 0.082295 0.270818
O O7 0.307536 0.995578 0.496090
O O8 0.504969 0.637675 0.378916
O O9 0.494503 0.456168 0.346239
O O10 0.170099 0.420561 0.668763
#
# Coordination Sequence:
#
# PCOD9574910 Si02
#       5
#     6   6   6   6   6
#     4  10  20  36  59  90 122 157 200 247 318 356
#     4  10  20  35  57  89 121 163 207 251 288 353
#     4   9  18  36  60  87 106 152 203 252 289 365
#     4   9  18  36  61  87 107 153 212 245 295 353
#     4  10  21  35  55  91 119 161 199 247 294 376
#
# _framework density 20.708859
#
# number of rings (size 3 to 8) (size 9 to 14) (size 15 to 20)
#    0.000    2.400    2.000    0.200    0.000    4.800 
#    0.000    0.000    0.000   26.800   20.800    0.000 
#    0.000    0.000    0.000    0.000    0.000    0.000 
#
# Total GULP energy -167153.494635 kJ/mol
# GULP energy per Si atom -5571.783155 kJ/mol
# Density = 2.066172 g / cm^3
# Si number density = 20.708859 Si / 1000 Ang^3
#
#
#
# Elastic Constant Matrix: (Units=GPa)
#
#
# Indices 1 2 3 4 5 6 
#
# 1 50.9596 26.2016 25.5369 5.1726 8.0267 0.0000
# 2 26.2016 50.9596 25.5369 -5.1726 -8.0267 0.0000
# 3 25.5369 25.5369 119.2671 0.0000 0.0000 0.0000
# 4 5.1726 -5.1726 0.0000 36.1705 0.0000 -8.0267
# 5 8.0267 -8.0267 0.0000 0.0000 36.1705 5.1726
# 6 0.0000 0.0000 0.0000 -8.0267 5.1726 12.3790
#
#
#
# Elastic Compliance Matrix: (Units=1/GPa)
#
#
# Indices 1 2 3 4 5 6 
#
# 1 0.032910 -0.017810 -0.003233 -0.007253 -0.011255 0.000000
# 2 -0.017810 0.032910 -0.003233 0.007253 0.011255 0.000000
# 3 -0.003233 -0.003233 0.009769 0.000000 0.000000 0.000000
# 4 -0.007253 0.007253 0.000000 0.034717 0.000000 0.022511
# 5 -0.011255 0.011255 0.000000 0.000000 0.034717 -0.014507
# 6 0.000000 0.000000 0.000000 0.022511 -0.014507 0.101440
#
#
# Mechanical properties :
#
#
# Convention : Reuss Voigt Hill
#
# Bulk Modulus (GPa) = 36.98718 41.74858 39.36788
# Shear Modulus (GPa) = 16.44587 26.53806 21.49197
#
# Velocity S-wave (km/s) = 2.82112 3.58366 3.22501
# Velocity P-wave (km/s) = 5.33956 6.10959 5.73751
#
# Compressibility (1/GPa) = 0.02703640
#
# Stress axis : x y z
#
# Youngs Moduli (GPa) = 30.38590 30.38590 102.36396
#
# Poissons Ratio (x) = 0.54118 0.33096
# Poissons Ratio (y) = 0.54118 0.33096
# Poissons Ratio (z) = 0.09824 0.09824
#
# Static dielectric constant tensor:
#      x y z
#    x 1.755700 0.000000 0.000000 
#    y 0.000000 1.755700 0.000000 
#    z 0.000000 0.000000 1.801120 
# 
# From -- ./inp_files/509.got.cif
#   From: 2010.05.17/outbox.cif.g08.bks.cpg/sg147_cif.got.tgz:509.got - 2010.05.20 13:49:32.
