data_PCOD9574441
_publ_section_title
;
Structure prediction by ZEFSAII (Michael W. Deem and Ramdas Pophale) SiO2 
 PCOD9574441
Probable space group: P 31
;
_chemical_formula_sum "Si O2"
_cell_formula_units_Z 21
_cell_length_a 9.399053
_cell_length_b 9.399053
_cell_length_c 11.990089
_cell_angle_alpha 90.000000
_cell_angle_beta 90.000000
_cell_angle_gamma 120.000000
_cell_volume 917.320788
_symmetry_space_group_name_H-M "P 31"
_symmetry_group_IT_number 144
_symmetry_cell_setting 'hexagonal'
loop_
_space_group_symop_operation_xyz
x,y,z
-y,x-y,1/3+z
-x+y,-x,2/3+z
loop_
_atom_site_type_symbol
_atom_site_label
_atom_site_fract_x
_atom_site_fract_y
_atom_site_fract_z
Si Si1 0.731640 0.175338 0.816510
Si Si2 0.219583 0.392597 0.597766
Si Si3 0.695211 0.740671 0.300530
Si Si4 0.139002 0.642266 0.495338
Si Si5 0.868692 0.098192 0.624203
Si Si6 0.428823 0.196141 0.841087
Si Si7 0.891773 0.806379 0.700623
O O1 0.764420 0.165729 0.686139
O O2 0.619123 0.254328 0.835879
O O3 0.907692 0.268011 0.875470
O O4 0.639586 0.993669 0.872309
O O5 0.148377 0.481514 0.521474
O O6 0.291931 0.501533 0.707406
O O7 0.062733 0.223624 0.638113
O O8 0.544110 0.760931 0.255623
O O9 0.707355 0.660134 0.417317
O O10 0.835585 0.931405 0.306859
O O11 0.951266 0.605934 0.487258
O O12 0.846619 0.076194 0.492143
O O13 0.825067 0.932369 0.690029
O O14 0.353285 0.129976 0.962601
#
# Coordination Sequence:
#
# PCOD9574441 Si02
#       7
#     3   3   3   3   3   3   3
#     4  12  26  44  78 108 150 194 248 314 379 449
#     4  12  26  46  74 108 152 189 253 319 382 452
#     4  11  22  49  75 101 145 197 243 302 370 458
#     4  11  27  50  74 104 150 199 248 310 384 458
#     4  12  22  43  77 109 141 200 254 301 372 463
#     4  11  26  47  72 108 153 191 242 319 375 443
#     4  11  21  43  78 106 141 196 256 291 366 467
#
# _framework density 22.892752999999999
#
# number of rings (size 3 to 8) (size 9 to 14) (size 15 to 20)
#    0.000    0.571    7.143    0.000    4.000    1.143 
#    5.143    0.000    0.000    0.000    0.000    0.000 
#    0.000    0.000    0.000    0.000    0.000    0.000 
#
# Total GULP energy -117460.303251 kJ/mol
# GULP energy per Si atom -5593.347774 kJ/mol
# Density = 2.284065 g / cm^3
# Si number density = 22.892753 Si / 1000 Ang^3
#
#
#
# Elastic Constant Matrix: (Units=GPa)
#
#
# Indices 1 2 3 4 5 6 
#
# 1 69.7822 35.1212 31.0640 -6.8858 -7.8784 0.0000
# 2 35.1212 69.7822 31.0640 6.8858 7.8784 0.0000
# 3 31.0640 31.0640 100.2915 0.0000 0.0000 0.0000
# 4 -6.8858 6.8858 0.0000 23.4831 0.0000 7.8784
# 5 -7.8784 7.8784 0.0000 0.0000 23.4831 -6.8858
# 6 0.0000 0.0000 0.0000 7.8784 -6.8858 17.3305
#
#
#
# Elastic Compliance Matrix: (Units=1/GPa)
#
#
# Indices 1 2 3 4 5 6 
#
# 1 0.025571 -0.013897 -0.003616 0.011573 0.013241 0.000000
# 2 -0.013897 0.025571 -0.003616 -0.011573 -0.013241 0.000000
# 3 -0.003616 -0.003616 0.012211 0.000000 0.000000 0.000000
# 4 0.011573 -0.011573 0.000000 0.058256 0.000000 -0.026483
# 5 0.013241 -0.013241 0.000000 0.000000 0.058256 0.023146
# 6 0.000000 0.000000 0.000000 -0.026483 0.023146 0.078938
#
#
# Mechanical properties :
#
#
# Convention : Reuss Voigt Hill
#
# Bulk Modulus (GPa) = 47.40360 48.26158 47.83259
# Shear Modulus (GPa) = 16.22888 22.36644 19.29766
#
# Velocity S-wave (km/s) = 2.66542 3.12911 2.90653
# Velocity P-wave (km/s) = 5.49767 5.84657 5.67481
#
# Compressibility (1/GPa) = 0.02109544
#
# Stress axis : x y z
#
# Youngs Moduli (GPa) = 39.10618 39.10618 81.89418
#
# Poissons Ratio (x) = 0.54347 0.29612
# Poissons Ratio (y) = 0.54347 0.29612
# Poissons Ratio (z) = 0.14140 0.14140
#
# Static dielectric constant tensor:
#      x y z
#    x 1.825460 0.000000 0.000000 
#    y 0.000000 1.825460 0.000000 
#    z 0.000000 0.000000 1.883080 
# 
# From -- ./inp_files/601.got.cif
#   From: 2010.05.17/outbox.cif.g08.bks.cpg/sg144_cif.got.tgz:601.got - 2010.05.20 13:46:34.
