data_PCOD9574955
_publ_section_title
;
Structure prediction by ZEFSAII (Michael W. Deem and Ramdas Pophale) SiO2 
 PCOD9574955
Probable space group: P -3
;
_chemical_formula_sum "Si O2"
_cell_formula_units_Z 48
_cell_length_a 14.586991
_cell_length_b 14.586991
_cell_length_c 12.956892
_cell_angle_alpha 90.000000
_cell_angle_beta 90.000000
_cell_angle_gamma 120.000000
_cell_volume 2387.607313
_symmetry_space_group_name_H-M "P -3"
_symmetry_group_IT_number 147
_symmetry_cell_setting 'hexagonal'
loop_
_space_group_symop_operation_xyz
x,y,z
-y,x-y,z
-x+y,-x,z
-x,-y,-z
y,-x+y,-z
x-y,x,-z
loop_
_atom_site_type_symbol
_atom_site_label
_atom_site_fract_x
_atom_site_fract_y
_atom_site_fract_z
Si Si1 0.941261 0.182588 0.487441
Si Si2 0.422585 0.875457 0.985564
Si Si3 0.245894 0.441931 0.381403
Si Si4 0.868385 0.750583 0.003422
Si Si5 0.259881 0.851428 0.157810
Si Si6 0.318139 0.370838 0.713482
Si Si7 0.216318 0.767078 0.871037
Si Si8 0.489203 0.574557 0.418040
O O1 0.898774 0.230622 0.575658
O O2 0.945149 0.242920 0.379721
O O3 0.057554 0.202145 0.513971
O O4 0.340003 0.842261 0.890691
O O5 0.490786 0.821219 0.952439
O O6 0.347137 0.842097 0.087760
O O7 0.500000 0.000000 0.000000
O O8 0.214971 0.441374 0.262401
O O9 0.366924 0.529205 0.394793
O O10 0.161855 0.463318 0.443322
O O11 0.837527 0.674015 0.101285
O O12 0.818172 0.824438 0.004861
O O13 0.824177 0.666395 0.910037
O O14 0.305122 0.973038 0.193559
O O15 0.280914 0.448691 0.759966
O O16 0.438461 0.429211 0.673296
O O17 0.500000 0.500000 0.500000
#
# Coordination Sequence:
#
# PCOD9574955 Si02
#       8
#     6   6   6   6   6   6   6   6
#     4  12  24  45  70  99 139 186 234 295 354 419
#     4  11  22  42  70  96 138 182 230 285 344 422
#     4  11  23  44  68 103 139 182 234 283 358 421
#     4  11  22  40  65  95 131 172 221 280 337 398
#     4  10  22  43  68  96 134 178 227 279 339 417
#     4  11  22  44  66  95 143 176 230 292 343 419
#     4  11  23  44  65  99 140 177 229 284 348 414
#     4  11  22  44  72 101 145 179 229 294 350 419
#
# _framework density 20.103809999999999
#
# number of rings (size 3 to 8) (size 9 to 14) (size 15 to 20)
#    0.000    1.000    6.250    1.500    0.000    5.000 
#    9.000    0.000    0.000    0.000    0.000    0.000 
#    0.000    0.000    0.000    0.000    0.000    0.000 
#
# Total GULP energy -267674.229662 kJ/mol
# GULP energy per Si atom -5576.546451 kJ/mol
# Density = 2.005805 g / cm^3
# Si number density = 20.103810 Si / 1000 Ang^3
#
#
#
# Elastic Constant Matrix: (Units=GPa)
#
#
# Indices 1 2 3 4 5 6 
#
# 1 112.6341 39.0959 20.7576 7.8426 -4.0490 0.0000
# 2 39.0959 112.6341 20.7576 -7.8426 4.0490 0.0000
# 3 20.7576 20.7576 62.7962 0.0000 0.0000 0.0000
# 4 7.8426 -7.8426 0.0000 37.3039 0.0000 4.0490
# 5 -4.0490 4.0490 0.0000 0.0000 37.3039 7.8426
# 6 0.0000 0.0000 0.0000 4.0490 7.8426 36.7691
#
#
#
# Elastic Compliance Matrix: (Units=1/GPa)
#
#
# Indices 1 2 3 4 5 6 
#
# 1 0.010832 -0.003586 -0.002395 -0.003031 0.001565 0.000000
# 2 -0.003586 0.010832 -0.002395 0.003031 -0.001565 0.000000
# 3 -0.002395 -0.002395 0.017508 0.000000 0.000000 0.000000
# 4 -0.003031 0.003031 0.000000 0.028421 0.000000 -0.003130
# 5 0.001565 -0.001565 0.000000 0.000000 0.028421 -0.006062
# 6 0.000000 0.000000 0.000000 -0.003130 -0.006062 0.028834
#
#
# Mechanical properties :
#
#
# Convention : Reuss Voigt Hill
#
# Bulk Modulus (GPa) = 44.60461 49.92076 47.26269
# Shear Modulus (GPa) = 33.54070 36.10560 34.82315
#
# Velocity S-wave (km/s) = 4.08901 4.24247 4.16645
# Velocity P-wave (km/s) = 6.67298 6.99167 6.83418
#
# Compressibility (1/GPa) = 0.02241921
#
# Stress axis : x y z
#
# Youngs Moduli (GPa) = 92.32241 92.32241 57.11669
#
# Poissons Ratio (x) = 0.33103 0.13681
# Poissons Ratio (y) = 0.33103 0.13681
# Poissons Ratio (z) = 0.22113 0.22113
#
# Static dielectric constant tensor:
#      x y z
#    x 1.791010 0.000000 0.000000 
#    y 0.000000 1.791010 0.000000 
#    z 0.000000 0.000000 1.640470 
# 
# From -- ./inp_files/869.got.cif
#   From: 2010.05.17/outbox.cif.g08.bks.cpg/sg147_cif.got.tgz:869.got - 2010.05.20 13:49:32.
