data_PCOD9574668
_publ_section_title
;
Structure prediction by ZEFSAII (Michael W. Deem and Ramdas Pophale) SiO2 
 PCOD9574668
Probable space group: R 3
;
_chemical_formula_sum "Si O2"
_cell_formula_units_Z 51
_cell_length_a 14.199624
_cell_length_b 14.199624
_cell_length_c 14.515104
_cell_angle_alpha 90.000000
_cell_angle_beta 90.000000
_cell_angle_gamma 120.000000
_cell_volume 2534.571066
_symmetry_space_group_name_H-M "R 3"
_symmetry_group_IT_number 146
_symmetry_cell_setting 'hexagonal'
loop_
_space_group_symop_operation_xyz
x,y,z
-y,x-y,z
-x+y,-x,z
2/3+x,1/3+y,1/3+z
2/3-y,1/3+x-y,1/3+z
2/3-x+y,1/3-x,1/3+z
1/3+x,2/3+y,2/3+z
1/3-y,2/3+x-y,2/3+z
1/3-x+y,2/3-x,2/3+z
loop_
_atom_site_type_symbol
_atom_site_label
_atom_site_fract_x
_atom_site_fract_y
_atom_site_fract_z
Si Si1 0.068836 0.824936 0.067280
Si Si2 0.333334 0.666667 0.749075
Si Si3 0.000000 0.000000 0.303589
Si Si4 0.438821 0.249467 0.870233
Si Si5 0.255018 0.301680 0.865823
Si Si6 0.190497 0.602702 0.406685
Si Si7 0.933550 0.135011 0.433069
O O1 0.190933 0.854447 0.090477
O O2 0.048741 0.924614 0.049865
O O3 0.986732 0.751320 0.148558
O O4 0.050888 0.753685 0.975613
O O5 0.333334 0.666667 0.860586
O O6 0.918509 0.878901 0.344969
O O7 0.329501 0.248574 0.846210
O O8 0.536947 0.365181 0.834657
O O9 0.447546 0.159166 0.813246
O O10 0.459331 0.242408 0.977663
O O11 0.137010 0.228042 0.821410
O O12 0.268317 0.550366 0.410190
#
# Coordination Sequence:
#
# PCOD9574668 Si02
#       7
#     9   3   3   9   9   9   9
#     4  11  25  42  64  85 130 165 214 249 315 363
#     4  12  27  45  57  88 128 184 201 252 312 379
#     4   9  18  39  69  91 125 157 201 258 321 364
#     4  10  17  36  65  97 119 150 203 256 313 353
#     4  11  23  41  62  92 122 167 201 260 303 375
#     4  10  20  36  63  89 125 155 193 249 313 367
#     4   9  18  37  66  96 119 154 205 262 305 367
#
# _framework density 20.121746999999999
#
# number of rings (size 3 to 8) (size 9 to 14) (size 15 to 20)
#    0.353    1.412    3.529    1.412    2.471    0.000 
#    3.176    1.765    0.000    0.000    0.000    0.000 
#    0.000    0.000    0.000    0.000    0.000    0.000 
#
# Total GULP energy -94812.786720 kJ/mol
# GULP energy per Si atom -5577.222748 kJ/mol
# Density = 2.007595 g / cm^3
# Si number density = 20.121747 Si / 1000 Ang^3
#
#
#
# Elastic Constant Matrix: (Units=GPa)
#
#
# Indices 1 2 3 4 5 6 
#
# 1 62.1540 39.3074 -10.5548 1.9841 0.3231 -0.0001
# 2 39.3074 62.1539 -10.5546 -1.9839 -0.3232 0.0000
# 3 -10.5548 -10.5546 39.2294 0.0000 0.0003 -0.0001
# 4 1.9841 -1.9839 0.0000 17.1532 -0.0001 -0.3233
# 5 0.3231 -0.3232 0.0003 -0.0001 17.1534 1.9839
# 6 -0.0001 0.0000 -0.0001 -0.3233 1.9839 11.4232
#
#
#
# Elastic Compliance Matrix: (Units=1/GPa)
#
#
# Indices 1 2 3 4 5 6 
#
# 1 0.027566 -0.017126 0.002809 -0.005169 -0.000842 0.000000
# 2 -0.017126 0.027566 0.002809 0.005169 0.000842 0.000000
# 3 0.002809 0.002809 0.027003 0.000000 0.000000 0.000000
# 4 -0.005169 0.005169 0.000000 0.059526 0.000000 0.001684
# 5 -0.000842 0.000842 0.000000 0.000000 0.059525 -0.010338
# 6 0.000000 0.000000 0.000000 0.001684 -0.010338 0.089384
#
#
# Mechanical properties :
#
#
# Convention : Reuss Voigt Hill
#
# Bulk Modulus (GPa) = 16.91496 22.21483 19.56490
# Shear Modulus (GPa) = 15.00187 18.83524 16.91856
#
# Velocity S-wave (km/s) = 2.73345 3.06284 2.90282
# Velocity P-wave (km/s) = 4.28799 4.85511 4.58034
#
# Compressibility (1/GPa) = 0.05911928
#
# Stress axis : x y z
#
# Youngs Moduli (GPa) = 36.27638 36.27641 37.03350
#
# Poissons Ratio (x) = 0.62126 -0.10403
# Poissons Ratio (y) = 0.62126 -0.10402
# Poissons Ratio (z) = -0.10190 -0.10190
#
# Static dielectric constant tensor:
#      x y z
#    x 1.717780 0.000000 0.000000 
#    y 0.000000 1.717770 0.000000 
#    z 0.000000 0.000000 1.733150 
# 
# From -- ./inp_files/1523.got.cif
#   From: 2010.05.17/outbox.cif.g08.bks.cpg/sg146_cif.got.tgz:1523.got - 2010.05.20 13:48:23.
