data_PCOD9574181
_publ_section_title
;
Structure prediction by ZEFSAII (Michael W. Deem and Ramdas Pophale) SiO2 
 PCOD9574181
Probable space group: I 41/A C D
;
_chemical_formula_sum "Si O2"
_cell_formula_units_Z 96
_cell_length_a 13.300460
_cell_length_b 13.300460
_cell_length_c 28.243906
_cell_angle_alpha 90.000000
_cell_angle_beta 90.000000
_cell_angle_gamma 90.000000
_cell_volume 4996.410131
_symmetry_space_group_name_H-M "I 41/A C D"
_symmetry_group_IT_number 142
_space_group.IT_coordinate_system_code '2'
_symmetry_cell_setting 'tetragonal'
loop_
_space_group_symop_operation_xyz
x,y,z
1/4-y,3/4+x,1/4+z
-x,1/2-y,z
1/4+y,1/4-x,3/4+z
x,-y,1/2-z
1/2-x,y,-z
3/4+y,1/4+x,1/4-z
1/4-y,1/4-x,1/4-z
-x,-y,-z
3/4+y,1/4-x,3/4-z
x,1/2+y,-z
3/4-y,3/4+x,1/4-z
-x,y,1/2+z
1/2+x,-y,z
1/4-y,3/4-x,3/4+z
3/4+y,3/4+x,3/4+z
1/2+x,1/2+y,1/2+z
3/4-y,1/4+x,3/4+z
1/2-x,-y,1/2+z
3/4+y,3/4-x,1/4+z
1/2+x,1/2-y,-z
-x,1/2+y,1/2-z
1/4+y,3/4+x,3/4-z
3/4-y,3/4-x,3/4-z
1/2-x,1/2-y,1/2-z
1/4+y,3/4-x,1/4-z
1/2+x,y,1/2-z
1/4-y,1/4+x,3/4-z
1/2-x,1/2+y,z
x,1/2-y,1/2+z
3/4-y,1/4-x,1/4+z
1/4+y,1/4+x,1/4+z
loop_
_atom_site_type_symbol
_atom_site_label
_atom_site_fract_x
_atom_site_fract_y
_atom_site_fract_z
Si Si1 0.750000 0.750613 0.000000
Si Si2 0.500000 0.750000 0.375000
Si Si3 0.000000 0.750000 0.875000
Si Si4 0.925839 0.618149 0.957164
Si Si5 0.364581 0.831529 0.794494
O O1 0.672911 0.683617 0.030918
O O2 0.820333 0.820828 0.032179
O O3 0.531187 0.658853 0.408751
O O4 0.986160 0.657852 0.911385
O O5 0.895691 0.502740 0.951076
O O6 0.001598 0.626618 0.001650
#
# Coordination Sequence:
#
# PCOD9574181 Si02
#       5
#    16   8   8  32  32
#     4  12  20  48  64 100 132 180 218 278 334 402
#     4  12  22  44  64  98 128 180 230 288 324 394
#     4  12  22  44  64  98 128 172 228 286 320 394
#     4  11  25  43  66  95 134 177 218 273 338 397
#     4  11  25  43  67  93 136 178 217 274 340 396
#
# _framework density 19.213794
#
# number of rings (size 3 to 8) (size 9 to 14) (size 15 to 20)
#    0.000    0.667    6.667    1.000    4.667    0.000 
#    0.000    1.667    0.000    0.000    0.000    0.000 
#    0.000    0.000    0.000    0.000    0.000    0.000 
#
# Total GULP energy -268236.586958 kJ/mol
# GULP energy per Si atom -5588.262228 kJ/mol
# Density = 1.917006 g / cm^3
# Si number density = 19.213794 Si / 1000 Ang^3
#
#
#
# Elastic Constant Matrix: (Units=GPa)
#
#
# Indices 1 2 3 4 5 6 
#
# 1 147.4399 74.8197 54.2326 0.0000 0.0000 0.0000
# 2 74.8197 147.4399 54.2326 0.0000 0.0000 0.0000
# 3 54.2326 54.2326 136.1005 0.0000 0.0000 0.0000
# 4 0.0000 0.0000 0.0000 -42.7203 0.0000 0.0000
# 5 0.0000 0.0000 0.0000 0.0000 -42.7203 0.0000
# 6 0.0000 0.0000 0.0000 0.0000 0.0000 34.8816
#
#
#
# Elastic Compliance Matrix: (Units=1/GPa)
#
#
# Indices 1 2 3 4 5 6 
#
# 1 0.009678 -0.004092 -0.002226 0.000000 0.000000 0.000000
# 2 -0.004092 0.009678 -0.002226 0.000000 0.000000 0.000000
# 3 -0.002226 -0.002226 0.009121 0.000000 0.000000 0.000000
# 4 0.000000 0.000000 0.000000 -0.023408 0.000000 0.000000
# 5 0.000000 0.000000 0.000000 0.000000 -0.023408 0.000000
# 6 0.000000 0.000000 0.000000 0.000000 0.000000 0.028668
#
#
# Mechanical properties :
#
#
# Convention : Reuss Voigt Hill
#
# Bulk Modulus (GPa) = 87.80050 88.61667 88.20859
# Shear Modulus (GPa) = 160.18930 6.40122 83.29526
#
# Velocity S-wave (km/s) = 9.14073 1.82724 6.59135
# Velocity P-wave (km/s) = 12.53794 7.11851 10.19493
#
# Compressibility (1/GPa) = 0.01138946
#
# Stress axis : x y z
#
# Youngs Moduli (GPa) = 103.32897 103.32897 109.63436
#
# Poissons Ratio (x) = 0.42287 0.24401
# Poissons Ratio (y) = 0.42287 0.24401
# Poissons Ratio (z) = 0.22997 0.22997
#
# Static dielectric constant tensor:
#      x y z
#    x 1.667590 0.000000 0.000000 
#    y 0.000000 1.667590 0.000000 
#    z 0.000000 0.000000 1.657520 
# 
# From -- ./inp_files/9699.got.cif
#   From: 2010.05.17/outbox.cif.g08.bks.cpg/sg142_5_cif.got.tgz:9699.got - 2010.05.20 13:39:18.
