data_PCOD9574069
_publ_section_title
;
Structure prediction by ZEFSAII (Michael W. Deem and Ramdas Pophale) SiO2 
 PCOD9574069
Probable space group: I 41/A C D
;
_chemical_formula_sum "Si O2"
_cell_formula_units_Z 160
_cell_length_a 20.448572
_cell_length_b 20.448572
_cell_length_c 19.535713
_cell_angle_alpha 90.000000
_cell_angle_beta 90.000000
_cell_angle_gamma 90.000000
_cell_volume 8168.743068
_symmetry_space_group_name_H-M "I 41/A C D"
_symmetry_group_IT_number 142
_space_group.IT_coordinate_system_code '2'
_symmetry_cell_setting 'tetragonal'
loop_
_space_group_symop_operation_xyz
x,y,z
1/4-y,3/4+x,1/4+z
-x,1/2-y,z
1/4+y,1/4-x,3/4+z
x,-y,1/2-z
1/2-x,y,-z
3/4+y,1/4+x,1/4-z
1/4-y,1/4-x,1/4-z
-x,-y,-z
3/4+y,1/4-x,3/4-z
x,1/2+y,-z
3/4-y,3/4+x,1/4-z
-x,y,1/2+z
1/2+x,-y,z
1/4-y,3/4-x,3/4+z
3/4+y,3/4+x,3/4+z
1/2+x,1/2+y,1/2+z
3/4-y,1/4+x,3/4+z
1/2-x,-y,1/2+z
3/4+y,3/4-x,1/4+z
1/2+x,1/2-y,-z
-x,1/2+y,1/2-z
1/4+y,3/4+x,3/4-z
3/4-y,3/4-x,3/4-z
1/2-x,1/2-y,1/2-z
1/4+y,3/4-x,1/4-z
1/2+x,y,1/2-z
1/4-y,1/4+x,3/4-z
1/2-x,1/2+y,z
x,1/2-y,1/2+z
3/4-y,1/4-x,1/4+z
1/4+y,1/4+x,1/4+z
loop_
_atom_site_type_symbol
_atom_site_label
_atom_site_fract_x
_atom_site_fract_y
_atom_site_fract_z
Si Si1 0.750000 0.124135 0.500000
Si Si2 0.425186 0.632719 0.317627
Si Si3 0.684654 0.243613 0.340853
Si Si4 0.500000 0.250000 0.991262
Si Si5 0.508249 0.921215 0.931067
Si Si6 0.927112 0.177112 0.125000
Si Si7 0.658511 0.591490 0.625000
O O1 0.687282 0.164683 0.530265
O O2 0.712785 0.086028 0.436553
O O3 0.468685 0.688225 0.279771
O O4 0.355702 0.668501 0.323700
O O5 0.458346 0.625229 0.391398
O O6 0.760358 0.250787 0.356284
O O7 0.678906 0.259295 0.260225
O O8 0.645498 0.296856 0.385151
O O9 0.664597 0.167667 0.351296
O O10 0.470341 0.302741 0.939700
#
# Coordination Sequence:
#
# PCOD9574069 Si02
#       7
#    16  32  32  16  32  16  16
#     4  12  24  42  76  98 136 186 250 280 362 434
#     4  12  23  42  66 102 133 182 229 296 352 425
#     4  11  23  42  67  93 135 178 229 284 353 414
#     4  11  22  37  64  98 131 161 234 290 346 401
#     4  11  24  40  64  94 137 176 223 285 350 422
#     4  11  20  38  61  94 127 167 216 295 340 397
#     4  12  22  47  69 102 129 191 238 290 346 440
#
# _framework density 19.586856999999998
#
# number of rings (size 3 to 8) (size 9 to 14) (size 15 to 20)
#    0.000    0.600    6.000    3.600    0.000    0.000 
#    0.000    1.000    0.000    1.200    0.000    0.000 
#    0.000    0.000    0.000    0.000    0.000    0.000 
#
# Total GULP energy -445664.234930 kJ/mol
# GULP energy per Si atom -5570.802937 kJ/mol
# Density = 1.954228 g / cm^3
# Si number density = 19.586857 Si / 1000 Ang^3
#
#
#
# Elastic Constant Matrix: (Units=GPa)
#
#
# Indices 1 2 3 4 5 6 
#
# 1 91.6087 50.2593 18.7049 0.0000 0.0000 0.0000
# 2 50.2593 91.6094 18.7044 0.0000 0.0000 0.0000
# 3 18.7049 18.7044 75.2347 0.0000 0.0000 0.0000
# 4 0.0000 0.0000 0.0000 37.3192 0.0000 0.0000
# 5 0.0000 0.0000 0.0000 0.0000 37.3194 0.0000
# 6 0.0000 0.0000 0.0000 0.0000 0.0000 24.6928
#
#
#
# Elastic Compliance Matrix: (Units=1/GPa)
#
#
# Indices 1 2 3 4 5 6 
#
# 1 0.015864 -0.008320 -0.001876 0.000000 0.000000 0.000000
# 2 -0.008320 0.015864 -0.001875 0.000000 0.000000 0.000000
# 3 -0.001876 -0.001875 0.014224 0.000000 0.000000 0.000000
# 4 0.000000 0.000000 0.000000 0.026796 0.000000 0.000000
# 5 0.000000 0.000000 0.000000 0.000000 0.026796 0.000000
# 6 0.000000 0.000000 0.000000 0.000000 0.000000 0.040498
#
#
# Mechanical properties :
#
#
# Convention : Reuss Voigt Hill
#
# Bulk Modulus (GPa) = 45.85203 48.19889 47.02546
# Shear Modulus (GPa) = 29.16255 31.25188 30.20721
#
# Velocity S-wave (km/s) = 3.86279 3.99877 3.93137
# Velocity P-wave (km/s) = 6.58447 6.78096 6.68344
#
# Compressibility (1/GPa) = 0.02180928
#
# Stress axis : x y z
#
# Youngs Moduli (GPa) = 63.03693 63.03764 70.30242
#
# Poissons Ratio (x) = 0.52449 0.13185
# Poissons Ratio (y) = 0.52449 0.13184
# Poissons Ratio (z) = 0.11823 0.11821
#
# Static dielectric constant tensor:
#      x y z
#    x 1.857450 0.000000 0.000000 
#    y 0.000000 1.857450 0.000000 
#    z 0.000000 0.000000 1.749980 
# 
# From -- ./inp_files/7474.got.cif
#   From: 2010.05.17/outbox.cif.g08.bks.cpg/sg142_4_cif.got.tgz:7474.got - 2010.05.20 13:39:18.
