data_PCOD9574844
_publ_section_title
;
Structure prediction by ZEFSAII (Michael W. Deem and Ramdas Pophale) SiO2 
 PCOD9574844
Probable space group: R 3
;
_chemical_formula_sum "Si O2"
_cell_formula_units_Z 36
_cell_length_a 13.470857
_cell_length_b 13.470857
_cell_length_c 9.127559
_cell_angle_alpha 90.000000
_cell_angle_beta 90.000000
_cell_angle_gamma 120.000000
_cell_volume 1434.418020
_symmetry_space_group_name_H-M "R 3"
_symmetry_group_IT_number 146
_symmetry_cell_setting 'hexagonal'
loop_
_space_group_symop_operation_xyz
x,y,z
-y,x-y,z
-x+y,-x,z
2/3+x,1/3+y,1/3+z
2/3-y,1/3+x-y,1/3+z
2/3-x+y,1/3-x,1/3+z
1/3+x,2/3+y,2/3+z
1/3-y,2/3+x-y,2/3+z
1/3-x+y,2/3-x,2/3+z
loop_
_atom_site_type_symbol
_atom_site_label
_atom_site_fract_x
_atom_site_fract_y
_atom_site_fract_z
Si Si1 0.640601 0.775835 0.308720
Si Si2 0.455279 0.104076 0.281625
Si Si3 0.692732 0.890832 0.793387
Si Si4 0.684536 0.121946 0.820482
O O1 0.660062 0.670490 0.282447
O O2 0.568603 0.745789 0.460658
O O3 0.572668 0.794630 0.176804
O O4 0.752937 0.896533 0.354786
O O5 0.427331 0.205370 0.258636
O O6 0.523070 0.086271 0.413988
O O7 0.764730 0.920877 0.641449
O O8 0.673271 0.996177 0.819660
#
# Coordination Sequence:
#
# PCOD9574844 Si02
#       4
#     9   9   9   9
#     4   9  18  31  54  76 100 133 172 204 246 304
#     4   9  18  34  54  75 100 136 172 203 246 306
#     4   9  18  31  54  76 100 133 172 204 246 304
#     4   9  18  34  54  75 100 136 172 203 246 306
#
# _framework density 25.097287000000001
#
# number of rings (size 3 to 8) (size 9 to 14) (size 15 to 20)
#    0.000    3.000    0.000    0.000    0.000    8.000 
#    0.000    0.000    0.000  238.000    0.000    0.000 
#    0.000    0.000    0.000    0.000    0.000    0.000 
#
# Total GULP energy -66884.856400 kJ/mol
# GULP energy per Si atom -5573.738033 kJ/mol
# Density = 2.504016 g / cm^3
# Si number density = 25.097287 Si / 1000 Ang^3
#
#
#
# Elastic Constant Matrix: (Units=GPa)
#
#
# Indices 1 2 3 4 5 6 
#
# 1 86.5939 36.7562 18.4382 -9.5053 -3.9495 0.0000
# 2 36.7562 86.5939 18.4382 9.5053 3.9495 0.0000
# 3 18.4382 18.4382 47.7380 0.0000 0.0000 0.0000
# 4 -9.5053 9.5053 0.0000 44.8343 0.0000 3.9495
# 5 -3.9495 3.9495 0.0000 0.0000 44.8343 -9.5053
# 6 0.0000 0.0000 0.0000 3.9495 -9.5053 24.9189
#
#
#
# Elastic Compliance Matrix: (Units=1/GPa)
#
#
# Indices 1 2 3 4 5 6 
#
# 1 0.015666 -0.006501 -0.003540 0.004700 0.001953 0.000000
# 2 -0.006501 0.015666 -0.003540 -0.004700 -0.001953 0.000000
# 3 -0.003540 -0.003540 0.023682 0.000000 0.000000 0.000000
# 4 0.004700 -0.004700 0.000000 0.024641 0.000000 -0.003906
# 5 0.001953 -0.001953 0.000000 0.000000 0.024641 0.009399
# 6 0.000000 0.000000 0.000000 -0.003906 0.009399 0.044335
#
#
# Mechanical properties :
#
#
# Convention : Reuss Voigt Hill
#
# Bulk Modulus (GPa) = 35.90288 40.91009 38.40649
# Shear Modulus (GPa) = 27.01565 32.73706 29.87635
#
# Velocity S-wave (km/s) = 3.28447 3.61557 3.45399
# Velocity P-wave (km/s) = 5.35912 5.81084 5.58954
#
# Compressibility (1/GPa) = 0.02785292
#
# Stress axis : x y z
#
# Youngs Moduli (GPa) = 63.83124 63.83124 42.22574
#
# Poissons Ratio (x) = 0.41497 0.14948
# Poissons Ratio (y) = 0.41497 0.14948
# Poissons Ratio (z) = 0.22596 0.22596
#
# Static dielectric constant tensor:
#      x y z
#    x 2.079940 0.000000 0.000000 
#    y 0.000000 2.079940 0.000000 
#    z 0.000000 0.000000 2.090950 
# 
# From -- ./inp_files/1016.got.cif
#   From: 2010.05.17/outbox.cif.g08.bks.cpg/sg146_cif.got.tgz:1016.got - 2010.05.20 13:48:23.
