data_PCOD9574713
_publ_section_title
;
Structure prediction by ZEFSAII (Michael W. Deem and Ramdas Pophale) SiO2 
 PCOD9574713
Probable space group: R 3
;
_chemical_formula_sum "Si O2"
_cell_formula_units_Z 63
_cell_length_a 15.962963
_cell_length_b 15.962963
_cell_length_c 12.569471
_cell_angle_alpha 90.000000
_cell_angle_beta 90.000000
_cell_angle_gamma 120.000000
_cell_volume 2773.796821
_symmetry_space_group_name_H-M "R 3"
_symmetry_group_IT_number 146
_symmetry_cell_setting 'hexagonal'
loop_
_space_group_symop_operation_xyz
x,y,z
-y,x-y,z
-x+y,-x,z
2/3+x,1/3+y,1/3+z
2/3-y,1/3+x-y,1/3+z
2/3-x+y,1/3-x,1/3+z
1/3+x,2/3+y,2/3+z
1/3-y,2/3+x-y,2/3+z
1/3-x+y,2/3-x,2/3+z
loop_
_atom_site_type_symbol
_atom_site_label
_atom_site_fract_x
_atom_site_fract_y
_atom_site_fract_z
Si Si1 0.063308 0.519859 0.588670
Si Si2 0.695429 0.855573 0.692870
Si Si3 0.255877 0.810762 0.072549
Si Si4 0.125877 0.561377 0.973705
Si Si5 0.808052 0.001007 0.103226
Si Si6 0.324842 0.967406 0.238495
Si Si7 0.584304 0.926985 0.157452
O O1 0.081033 0.565973 0.471810
O O2 0.957555 0.480654 0.645484
O O3 0.133039 0.596632 0.674551
O O4 0.055506 0.416724 0.570038
O O5 0.582663 0.804601 0.730671
O O6 0.728165 0.782555 0.646962
O O7 0.706947 0.928421 0.597962
O O8 0.311939 0.917098 0.124690
O O9 0.186775 0.737117 0.160850
O O10 0.340386 0.794075 0.032980
O O11 0.170254 0.633969 0.875821
O O12 0.051337 0.453656 0.931294
O O13 0.069973 0.593347 0.056414
O O14 0.698314 0.978295 0.132744
#
# Coordination Sequence:
#
# PCOD9574713 Si02
#       7
#     9   9   9   9   9   9   9
#     4  10  21  39  62  92 134 173 230 290 349 422
#     4  12  24  37  65 102 137 181 228 297 363 437
#     4  10  21  41  64  97 131 178 238 299 347 441
#     4  11  21  41  68  94 137 186 230 306 351 434
#     4  11  23  40  64  98 141 177 229 293 364 433
#     4  11  22  42  67  99 130 181 246 282 350 436
#     4  11  22  40  64 100 136 176 235 293 376 427
#
# _framework density 22.71255
#
# number of rings (size 3 to 8) (size 9 to 14) (size 15 to 20)
#    0.000    1.143    4.286    5.143    2.000    0.000 
#    0.857    0.000    0.000    0.571    0.000    0.000 
#    0.000    0.000    0.000    0.000    0.000    0.000 
#
# Total GULP energy -117178.899367 kJ/mol
# GULP energy per Si atom -5579.947589 kJ/mol
# Density = 2.266086 g / cm^3
# Si number density = 22.712550 Si / 1000 Ang^3
#
#
#
# Elastic Constant Matrix: (Units=GPa)
#
#
# Indices 1 2 3 4 5 6 
#
# 1 48.5927 -3.5503 4.8821 -2.4540 1.9872 0.0000
# 2 -3.5503 48.5927 4.8821 2.4540 -1.9872 0.0000
# 3 4.8821 4.8821 130.2888 0.0000 0.0000 0.0000
# 4 -2.4540 2.4540 0.0000 31.8958 0.0000 -1.9872
# 5 1.9872 -1.9872 0.0000 0.0000 31.8958 -2.4540
# 6 0.0000 0.0000 0.0000 -1.9872 -2.4540 26.0715
#
#
#
# Elastic Compliance Matrix: (Units=1/GPa)
#
#
# Indices 1 2 3 4 5 6 
#
# 1 0.020897 0.001486 -0.000839 0.001493 -0.001209 0.000000
# 2 0.001486 0.020897 -0.000839 -0.001493 0.001209 0.000000
# 3 -0.000839 -0.000839 0.007738 0.000000 0.000000 0.000000
# 4 0.001493 -0.001493 0.000000 0.031733 0.000000 0.002419
# 5 -0.001209 0.001209 0.000000 0.000000 0.031733 0.002987
# 6 0.000000 0.000000 0.000000 0.002419 0.002987 0.038822
#
#
# Mechanical properties :
#
#
# Convention : Reuss Voigt Hill
#
# Bulk Modulus (GPa) = 20.34612 26.65577 23.50094
# Shear Modulus (GPa) = 29.65872 32.72330 31.19101
#
# Velocity S-wave (km/s) = 3.61755 3.79985 3.70982
# Velocity P-wave (km/s) = 5.14066 5.56897 5.35910
#
# Compressibility (1/GPa) = 0.04914943
#
# Stress axis : x y z
#
# Youngs Moduli (GPa) = 47.85391 47.85391 129.23049
#
# Poissons Ratio (x) = -0.07112 0.10839
# Poissons Ratio (y) = -0.07112 0.10839
# Poissons Ratio (z) = 0.04014 0.04014
#
# Static dielectric constant tensor:
#      x y z
#    x 1.896310 0.000000 0.000000 
#    y 0.000000 1.896310 0.000000 
#    z 0.000000 0.000000 1.889700 
# 
# From -- ./inp_files/1230.got.cif
#   From: 2010.05.17/outbox.cif.g08.bks.cpg/sg146_cif.got.tgz:1230.got - 2010.05.20 13:48:23.
