data_PCOD9574446
_publ_section_title
;
Structure prediction by ZEFSAII (Michael W. Deem and Ramdas Pophale) SiO2 
 PCOD9574446
Probable space group: P 31
;
_chemical_formula_sum "Si O2"
_cell_formula_units_Z 24
_cell_length_a 11.695444
_cell_length_b 11.695444
_cell_length_c 8.826647
_cell_angle_alpha 90.000000
_cell_angle_beta 90.000000
_cell_angle_gamma 120.000000
_cell_volume 1045.586140
_symmetry_space_group_name_H-M "P 31"
_symmetry_group_IT_number 144
_symmetry_cell_setting 'hexagonal'
loop_
_space_group_symop_operation_xyz
x,y,z
-y,x-y,1/3+z
-x+y,-x,2/3+z
loop_
_atom_site_type_symbol
_atom_site_label
_atom_site_fract_x
_atom_site_fract_y
_atom_site_fract_z
Si Si1 0.703991 0.002619 0.811210
Si Si2 0.937155 0.930790 0.167836
Si Si3 0.194332 0.416569 0.274043
Si Si4 0.718297 0.147400 0.509134
Si Si5 0.494715 0.913812 0.044336
Si Si6 0.332225 0.809615 0.512324
Si Si7 0.200805 0.294044 0.006139
Si Si8 0.475608 0.066446 0.325997
O O1 0.637438 0.847497 0.769045
O O2 0.859138 0.067592 0.828025
O O3 0.672073 0.066896 0.667432
O O4 0.631476 0.003279 0.961752
O O5 0.796112 0.916936 0.200946
O O6 0.008205 0.993400 0.332117
O O7 0.094991 0.471011 0.279916
O O8 0.343193 0.538825 0.234622
O O9 0.135696 0.285672 0.169575
O O10 0.604139 0.163039 0.426600
O O11 0.848848 0.278854 0.560085
O O12 0.734083 0.050204 0.391063
O O13 0.454574 0.760165 0.061686
O O14 0.501727 0.979567 0.204433
O O15 0.218268 0.779596 0.634769
O O16 0.378846 0.953467 0.442415
#
# Coordination Sequence:
#
# PCOD9574446 Si02
#       8
#     3   3   3   3   3   3   3   3
#     4  11  24  46  68 105 152 188 258 314 388 479
#     4  12  27  46  74 105 151 212 260 331 398 477
#     4  11  22  39  71 111 153 187 246 327 402 482
#     4  11  26  49  72 107 154 207 268 321 391 498
#     4  12  24  40  72 114 145 194 250 327 408 475
#     4  12  20  41  73 108 148 193 238 329 401 459
#     4  11  23  43  69 105 149 193 259 323 392 477
#     4  12  26  46  75 105 156 210 261 324 396 481
#
# _framework density 22.953634000000001
#
# number of rings (size 3 to 8) (size 9 to 14) (size 15 to 20)
#    0.000    0.500    3.750    6.750    0.000    5.000 
#    0.000    0.000    0.000    0.000    0.000    0.000 
#    0.000    0.000    0.000    0.000    0.000    0.000 
#
# Total GULP energy -133799.965605 kJ/mol
# GULP energy per Si atom -5574.998567 kJ/mol
# Density = 2.290139 g / cm^3
# Si number density = 22.953634 Si / 1000 Ang^3
#
#
#
# Elastic Constant Matrix: (Units=GPa)
#
#
# Indices 1 2 3 4 5 6 
#
# 1 80.5588 26.7252 40.6383 -2.3139 -10.1168 0.0000
# 2 26.7252 80.5588 40.6383 2.3139 10.1168 0.0000
# 3 40.6383 40.6383 85.8137 0.0000 0.0000 0.0000
# 4 -2.3139 2.3139 0.0000 41.9001 0.0000 10.1168
# 5 -10.1168 10.1168 0.0000 0.0000 41.9001 -2.3139
# 6 0.0000 0.0000 0.0000 10.1168 -2.3139 26.9168
#
#
#
# Elastic Compliance Matrix: (Units=1/GPa)
#
#
# Indices 1 2 3 4 5 6 
#
# 1 0.017537 -0.003000 -0.006884 0.001134 0.004959 0.000000
# 2 -0.003000 0.017537 -0.006884 -0.001134 -0.004959 0.000000
# 3 -0.006884 -0.006884 0.018173 0.000000 0.000000 0.000000
# 4 0.001134 -0.001134 0.000000 0.026386 0.000000 -0.009917
# 5 0.004959 -0.004959 0.000000 0.000000 0.026386 0.002268
# 6 0.000000 0.000000 0.000000 -0.009917 0.002268 0.041074
#
#
# Mechanical properties :
#
#
# Convention : Reuss Voigt Hill
#
# Bulk Modulus (GPa) = 50.73551 51.43719 51.08635
# Shear Modulus (GPa) = 26.70967 31.40539 29.05753
#
# Velocity S-wave (km/s) = 3.41491 3.70294 3.56184
# Velocity P-wave (km/s) = 6.14006 6.38281 6.26261
#
# Compressibility (1/GPa) = 0.01971006
#
# Stress axis : x y z
#
# Youngs Moduli (GPa) = 57.02381 57.02381 55.02680
#
# Poissons Ratio (x) = 0.17110 0.37879
# Poissons Ratio (y) = 0.17110 0.37879
# Poissons Ratio (z) = 0.39254 0.39254
#
# Static dielectric constant tensor:
#      x y z
#    x 1.918500 0.000000 0.000000 
#    y 0.000000 1.918500 0.000000 
#    z 0.000000 0.000000 1.980390 
# 
# From -- ./inp_files/420.got.cif
#   From: 2010.05.17/outbox.cif.g08.bks.cpg/sg144_cif.got.tgz:420.got - 2010.05.20 13:46:34.
