data_PCOD9574958
_publ_section_title
;
Structure prediction by ZEFSAII (Michael W. Deem and Ramdas Pophale) SiO2 
 PCOD9574958
Probable space group: P -3
;
_chemical_formula_sum "Si O2"
_cell_formula_units_Z 48
_cell_length_a 17.157888
_cell_length_b 17.157888
_cell_length_c 8.823698
_cell_angle_alpha 90.000000
_cell_angle_beta 90.000000
_cell_angle_gamma 120.000000
_cell_volume 2249.618757
_symmetry_space_group_name_H-M "P -3"
_symmetry_group_IT_number 147
_symmetry_cell_setting 'hexagonal'
loop_
_space_group_symop_operation_xyz
x,y,z
-y,x-y,z
-x+y,-x,z
-x,-y,-z
y,-x+y,-z
x-y,x,-z
loop_
_atom_site_type_symbol
_atom_site_label
_atom_site_fract_x
_atom_site_fract_y
_atom_site_fract_z
Si Si1 0.676739 0.626000 0.602700
Si Si2 0.112872 0.304835 0.094481
Si Si3 0.470657 0.914910 0.219480
Si Si4 0.846825 0.689686 0.413354
Si Si5 0.220202 0.769732 0.855016
Si Si6 0.994104 0.776088 0.206295
Si Si7 0.123585 0.558422 0.864688
Si Si8 0.677310 0.075312 0.643272
O O1 0.647177 0.533799 0.689292
O O2 0.770664 0.690018 0.516088
O O3 0.685085 0.691421 0.740344
O O4 0.610442 0.605785 0.463131
O O5 0.150102 0.248597 0.185548
O O6 0.060616 0.337812 0.206906
O O7 0.195138 0.393223 0.013097
O O8 0.050390 0.243462 0.958679
O O9 0.374927 0.875595 0.300653
O O10 0.521144 0.025075 0.213633
O O11 0.452692 0.890072 0.044818
O O12 0.799239 0.625862 0.271528
O O13 0.927755 0.778940 0.334801
O O14 0.878652 0.637254 0.525659
O O15 0.179024 0.663975 0.827986
O O16 0.328021 0.821021 0.837713
#
# Coordination Sequence:
#
# PCOD9574958 Si02
#       8
#     6   6   6   6   6   6   6   6
#     4  11  22  40  61  95 134 168 215 275 338 407
#     4  11  22  40  65  97 127 169 225 279 328 404
#     4  11  23  37  62  94 126 171 227 281 328 390
#     4  10  23  40  62  92 130 171 212 273 337 392
#     4  11  23  40  61  86 129 175 226 268 335 392
#     4  10  23  39  64  96 129 165 216 278 330 399
#     4  11  23  39  62  90 128 174 226 280 324 384
#     4  11  22  37  61  92 129 170 218 268 338 390
#
# _framework density 21.336946999999999
#
# number of rings (size 3 to 8) (size 9 to 14) (size 15 to 20)
#    0.000    1.250    2.500    4.375    7.000    1.000 
#    0.000    0.000    0.000    2.250    0.000    0.875 
#    0.000    0.000    0.000    0.000    0.000    0.000 
#
# Total GULP energy -267340.264697 kJ/mol
# GULP energy per Si atom -5569.588848 kJ/mol
# Density = 2.128838 g / cm^3
# Si number density = 21.336947 Si / 1000 Ang^3
#
#
#
# Elastic Constant Matrix: (Units=GPa)
#
#
# Indices 1 2 3 4 5 6 
#
# 1 52.7099 10.8264 12.8990 -0.1513 -2.3322 0.0000
# 2 10.8264 52.7099 12.8990 0.1513 2.3322 0.0000
# 3 12.8990 12.8990 105.9399 0.0000 0.0000 0.0000
# 4 -0.1513 0.1513 0.0000 33.8569 0.0000 2.3322
# 5 -2.3322 2.3322 0.0000 0.0000 33.8569 -0.1513
# 6 0.0000 0.0000 0.0000 2.3322 -0.1513 20.9418
#
#
#
# Elastic Compliance Matrix: (Units=1/GPa)
#
#
# Indices 1 2 3 4 5 6 
#
# 1 0.020309 -0.003752 -0.002016 0.000108 0.001657 0.000000
# 2 -0.003752 0.020309 -0.002016 -0.000108 -0.001657 0.000000
# 3 -0.002016 -0.002016 0.009930 0.000000 0.000000 0.000000
# 4 0.000108 -0.000108 0.000000 0.029765 0.000000 -0.003315
# 5 0.001657 -0.001657 0.000000 0.000000 0.029765 0.000215
# 6 0.000000 0.000000 0.000000 -0.003315 0.000215 0.048122
#
#
# Mechanical properties :
#
#
# Convention : Reuss Voigt Hill
#
# Bulk Modulus (GPa) = 28.58663 31.62318 30.10491
# Shear Modulus (GPa) = 26.96437 29.38014 28.17226
#
# Velocity S-wave (km/s) = 3.55877 3.71477 3.63761
# Velocity P-wave (km/s) = 5.50575 5.76649 5.63762
#
# Compressibility (1/GPa) = 0.03498138
#
# Stress axis : x y z
#
# Youngs Moduli (GPa) = 49.23839 49.23839 100.70245
#
# Poissons Ratio (x) = 0.18473 0.20302
# Poissons Ratio (y) = 0.18473 0.20302
# Poissons Ratio (z) = 0.09927 0.09927
#
# Static dielectric constant tensor:
#      x y z
#    x 1.850710 0.000000 0.000000 
#    y 0.000000 1.850710 0.000000 
#    z 0.000000 0.000000 1.779390 
# 
# From -- ./inp_files/671.got.cif
#   From: 2010.05.17/outbox.cif.g08.bks.cpg/sg147_cif.got.tgz:671.got - 2010.05.20 13:49:32.
