data_PCOD9574170
_publ_section_title
;
Structure prediction by ZEFSAII (Michael W. Deem and Ramdas Pophale) SiO2 
 PCOD9574170
Probable space group: I 41/A C D
;
_chemical_formula_sum "Si O2"
_cell_formula_units_Z 176
_cell_length_a 22.877928
_cell_length_b 22.877928
_cell_length_c 15.512278
_cell_angle_alpha 90.000000
_cell_angle_beta 90.000000
_cell_angle_gamma 90.000000
_cell_volume 8119.119939
_symmetry_space_group_name_H-M "I 41/A C D"
_symmetry_group_IT_number 142
_space_group.IT_coordinate_system_code '2'
_symmetry_cell_setting 'tetragonal'
loop_
_space_group_symop_operation_xyz
x,y,z
1/4-y,3/4+x,1/4+z
-x,1/2-y,z
1/4+y,1/4-x,3/4+z
x,-y,1/2-z
1/2-x,y,-z
3/4+y,1/4+x,1/4-z
1/4-y,1/4-x,1/4-z
-x,-y,-z
3/4+y,1/4-x,3/4-z
x,1/2+y,-z
3/4-y,3/4+x,1/4-z
-x,y,1/2+z
1/2+x,-y,z
1/4-y,3/4-x,3/4+z
3/4+y,3/4+x,3/4+z
1/2+x,1/2+y,1/2+z
3/4-y,1/4+x,3/4+z
1/2-x,-y,1/2+z
3/4+y,3/4-x,1/4+z
1/2+x,1/2-y,-z
-x,1/2+y,1/2-z
1/4+y,3/4+x,3/4-z
3/4-y,3/4-x,3/4-z
1/2-x,1/2-y,1/2-z
1/4+y,3/4-x,1/4-z
1/2+x,y,1/2-z
1/4-y,1/4+x,3/4-z
1/2-x,1/2+y,z
x,1/2-y,1/2+z
3/4-y,1/4-x,1/4+z
1/4+y,1/4+x,1/4+z
loop_
_atom_site_type_symbol
_atom_site_label
_atom_site_fract_x
_atom_site_fract_y
_atom_site_fract_z
Si Si1 0.582358 0.704534 0.391207
Si Si2 0.784720 0.714856 0.826598
Si Si3 0.265508 0.604534 0.089301
Si Si4 0.551417 0.890134 0.171752
Si Si5 0.913114 0.000000 0.250000
Si Si6 0.366226 0.589788 0.469111
O O1 0.517770 0.677125 0.401990
O O2 0.615396 0.711380 0.482918
O O3 0.616946 0.661336 0.328496
O O4 0.750000 0.750000 0.750000
O O5 0.842908 0.747865 0.860048
O O6 0.805351 0.652371 0.791330
O O7 0.747756 0.702190 0.913180
O O8 0.317257 0.567257 0.125000
O O9 0.296692 0.666452 0.072126
O O10 0.209752 0.603061 0.148811
O O11 0.250000 0.576040 0.000000
O O12 0.593062 0.843062 0.125000
O O13 0.873507 0.941539 0.249424
#
# Coordination Sequence:
#
# PCOD9574170 Si02
#       6
#    32  32  32  32  16  32
#     4  11  25  45  76 112 146 197 249 320 391 459
#     4  12  28  48  77 114 150 203 261 314 385 460
#     4  11  25  41  70 108 148 201 251 307 379 457
#     4  11  24  45  74 109 147 193 259 316 382 458
#     4  12  32  46  76 112 154 204 248 320 390 454
#     4  12  27  48  76 105 160 196 256 313 380 456
#
# _framework density 21.677226000000001
#
# number of rings (size 3 to 8) (size 9 to 14) (size 15 to 20)
#    0.000    0.545    3.636    2.727   12.727    0.000 
#    0.000    5.455    0.000    0.000    0.000    0.000 
#    0.000    0.000    0.000    0.000    0.000    0.000 
#
# Total GULP energy -491831.798703 kJ/mol
# GULP energy per Si atom -5588.997713 kJ/mol
# Density = 2.162789 g / cm^3
# Si number density = 21.677226 Si / 1000 Ang^3
#
#
#
# Elastic Constant Matrix: (Units=GPa)
#
#
# Indices 1 2 3 4 5 6 
#
# 1 79.9422 19.0171 42.3070 0.0000 0.0000 0.0000
# 2 19.0171 79.9422 42.3070 0.0000 0.0000 0.0000
# 3 42.3070 42.3070 151.9110 0.0000 0.0000 0.0000
# 4 0.0000 0.0000 0.0000 25.7905 0.0000 0.0000
# 5 0.0000 0.0000 0.0000 0.0000 25.7905 0.0000
# 6 0.0000 0.0000 0.0000 0.0000 0.0000 32.4994
#
#
#
# Elastic Compliance Matrix: (Units=1/GPa)
#
#
# Indices 1 2 3 4 5 6 
#
# 1 0.014839 -0.001575 -0.003694 0.000000 0.000000 0.000000
# 2 -0.001575 0.014839 -0.003694 0.000000 0.000000 0.000000
# 3 -0.003694 -0.003694 0.008640 0.000000 0.000000 0.000000
# 4 0.000000 0.000000 0.000000 0.038774 0.000000 0.000000
# 5 0.000000 0.000000 0.000000 0.000000 0.038774 0.000000
# 6 0.000000 0.000000 0.000000 0.000000 0.000000 0.030770
#
#
# Mechanical properties :
#
#
# Convention : Reuss Voigt Hill
#
# Bulk Modulus (GPa) = 49.03909 57.67306 53.35608
# Shear Modulus (GPa) = 29.17863 30.69367 29.93615
#
# Velocity S-wave (km/s) = 3.67284 3.76698 3.72021
# Velocity P-wave (km/s) = 6.37635 6.75154 6.56663
#
# Compressibility (1/GPa) = 0.02039189
#
# Stress axis : x y z
#
# Youngs Moduli (GPa) = 67.39183 67.39183 115.73687
#
# Poissons Ratio (x) = 0.10614 0.42752
# Poissons Ratio (y) = 0.10614 0.42752
# Poissons Ratio (z) = 0.24894 0.24894
#
# Static dielectric constant tensor:
#      x y z
#    x 1.843140 0.000000 0.000000 
#    y 0.000000 1.843140 0.000000 
#    z 0.000000 0.000000 1.822200 
# 
# From -- ./inp_files/5541.got.cif
#   From: 2010.05.17/outbox.cif.g08.bks.cpg/sg142_3_cif.got.tgz:5541.got - 2010.05.20 13:39:18.
