data_PCOD9574301
_publ_section_title
;
Structure prediction by ZEFSAII (Michael W. Deem and Ramdas Pophale) SiO2 
 PCOD9574301
Probable space group: P 31
;
_chemical_formula_sum "Si O2"
_cell_formula_units_Z 24
_cell_length_a 14.385841
_cell_length_b 14.385841
_cell_length_c 5.435987
_cell_angle_alpha 90.000000
_cell_angle_beta 90.000000
_cell_angle_gamma 120.000000
_cell_volume 974.270501
_symmetry_space_group_name_H-M "P 31"
_symmetry_group_IT_number 144
_symmetry_cell_setting 'hexagonal'
loop_
_space_group_symop_operation_xyz
x,y,z
-y,x-y,1/3+z
-x+y,-x,2/3+z
loop_
_atom_site_type_symbol
_atom_site_label
_atom_site_fract_x
_atom_site_fract_y
_atom_site_fract_z
Si Si1 0.719066 0.549062 0.642160
Si Si2 0.088184 0.110311 0.741806
Si Si3 0.898464 0.681047 0.275950
Si Si4 0.976479 0.232835 0.605985
Si Si5 0.532440 0.971708 0.941511
Si Si6 0.660334 0.229568 0.703803
Si Si7 0.534581 0.599370 0.115313
Si Si8 0.296357 0.562524 0.590861
O O1 0.791784 0.591077 0.404010
O O2 0.719534 0.657588 0.719470
O O3 0.785341 0.526210 0.853108
O O4 0.609186 0.437880 0.575012
O O5 0.215448 0.184342 0.783395
O O6 0.053082 0.181840 0.573248
O O7 0.066729 0.996718 0.630702
O O8 0.952866 0.610546 0.220770
O O9 0.863386 0.731835 0.058131
O O10 0.028556 0.339616 0.774875
O O11 0.465616 0.970643 0.701628
O O12 0.525613 0.855618 0.932802
O O13 0.481609 0.976321 0.208403
O O14 0.743548 0.340610 0.831665
O O15 0.470801 0.664311 0.093266
O O16 0.404941 0.668992 0.673309
#
# Coordination Sequence:
#
# PCOD9574301 Si02
#       8
#     3   3   3   3   3   3   3   3
#     4  11  23  42  64  96 134 194 235 294 343 432
#     4  10  22  48  77 106 134 181 242 312 386 444
#     4  11  26  45  70 101 142 184 242 303 369 432
#     4  11  26  45  70 101 142 184 242 303 369 432
#     4  11  26  45  71 110 147 192 244 296 366 444
#     4   9  20  40  61  93 128 184 230 274 339 414
#     4  11  26  45  71 110 147 192 244 296 366 444
#     4  10  19  42  74 105 144 183 229 292 366 440
#
# _framework density 24.633815999999999
#
# number of rings (size 3 to 8) (size 9 to 14) (size 15 to 20)
#    0.000    1.500    1.250    2.250    3.500    5.000 
#    4.500    0.000    0.000    0.000    0.000    0.000 
#    0.000    0.000    0.000    0.000    0.000    0.000 
#
# Total GULP energy -133776.013116 kJ/mol
# GULP energy per Si atom -5574.000546 kJ/mol
# Density = 2.457775 g / cm^3
# Si number density = 24.633816 Si / 1000 Ang^3
#
#
#
# Elastic Constant Matrix: (Units=GPa)
#
#
# Indices 1 2 3 4 5 6 
#
# 1 86.1526 43.8930 10.9435 -17.1513 -16.8054 0.0000
# 2 43.8930 86.1526 10.9435 17.1513 16.8054 0.0000
# 3 10.9435 10.9435 77.7055 0.0000 0.0000 0.0000
# 4 -17.1513 17.1513 0.0000 12.4363 0.0000 16.8054
# 5 -16.8054 16.8054 0.0000 0.0000 12.4363 -17.1513
# 6 0.0000 0.0000 0.0000 16.8054 -17.1513 21.1298
#
#
#
# Elastic Compliance Matrix: (Units=1/GPa)
#
#
# Indices 1 2 3 4 5 6 
#
# 1 -0.005969 0.013846 -0.001109 -0.027327 -0.026776 0.000000
# 2 0.013846 -0.005969 -0.001109 0.027327 0.026776 0.000000
# 3 -0.001109 -0.001109 0.013182 0.000000 0.000000 0.000000
# 4 -0.027327 0.027327 0.000000 -0.067332 0.000000 0.053552
# 5 -0.026776 0.026776 0.000000 0.000000 -0.067332 -0.054655
# 6 0.000000 0.000000 0.000000 0.053552 -0.054655 -0.039630
#
#
# Mechanical properties :
#
#
# Convention : Reuss Voigt Hill
#
# Bulk Modulus (GPa) = 40.82107 42.39676 41.60892
# Shear Modulus (GPa) = -26.57598 21.48253 -2.54673
#
# Velocity S-wave (km/s) = -3.28814 2.95629 -1.01788
# Velocity P-wave (km/s) = 1.48032 5.37597 3.94287
#
# Compressibility (1/GPa) = 0.02449715
#
# Stress axis : x y z
#
# Youngs Moduli (GPa) = -167.52484 -167.52484 75.86366
#
# Poissons Ratio (x) = 2.31948 0.08415
# Poissons Ratio (y) = 2.31948 0.08415
# Poissons Ratio (z) = -0.18583 -0.18583
#
# Static dielectric constant tensor:
#      x y z
#    x 2.183130 0.000000 0.000000 
#    y 0.000000 2.183130 0.000000 
#    z 0.000000 0.000000 1.995130 
# 
# From -- ./inp_files/163.got.cif
#   From: 2010.05.17/outbox.cif.g08.bks.cpg/sg144_cif.got.tgz:163.got - 2010.05.20 13:46:34.
