data_PCOD9574998
_publ_section_title
;
Structure prediction by ZEFSAII (Michael W. Deem and Ramdas Pophale) SiO2 
 PCOD9574998
Probable space group: R -3
;
_chemical_formula_sum "Si O2"
_cell_formula_units_Z 90
_cell_length_a 21.518257
_cell_length_b 21.518257
_cell_length_c 11.718809
_cell_angle_alpha 90.000000
_cell_angle_beta 90.000000
_cell_angle_gamma 120.000000
_cell_volume 4699.247163
_symmetry_space_group_name_H-M "R -3"
_symmetry_group_IT_number 148
_symmetry_cell_setting 'hexagonal'
loop_
_space_group_symop_operation_xyz
x,y,z
-y,x-y,z
-x+y,-x,z
-x,-y,-z
y,-x+y,-z
x-y,x,-z
2/3+x,1/3+y,1/3+z
2/3-y,1/3+x-y,1/3+z
2/3-x+y,1/3-x,1/3+z
2/3-x,1/3-y,1/3-z
2/3+y,1/3-x+y,1/3-z
2/3+x-y,1/3+x,1/3-z
1/3+x,2/3+y,2/3+z
1/3-y,2/3+x-y,2/3+z
1/3-x+y,2/3-x,2/3+z
1/3-x,2/3-y,2/3-z
1/3+y,2/3-x+y,2/3-z
1/3+x-y,2/3+x,2/3-z
loop_
_atom_site_type_symbol
_atom_site_label
_atom_site_fract_x
_atom_site_fract_y
_atom_site_fract_z
Si Si1 0.736236 0.136494 0.596773
Si Si2 0.541251 0.487883 0.825131
Si Si3 0.564770 0.813768 0.932009
Si Si4 0.031748 0.704934 0.648798
Si Si5 0.942407 0.400528 0.451871
O O1 0.799464 0.154552 0.507060
O O2 0.770976 0.183083 0.711320
O O3 0.665387 0.139889 0.567320
O O4 0.704417 0.052155 0.626395
O O5 0.538507 0.430319 0.733600
O O6 0.601044 0.563552 0.773648
O O7 0.552519 0.753632 0.838488
O O8 0.651933 0.863931 0.925680
O O9 0.040901 0.739035 0.771941
O O10 0.074885 0.661653 0.638698
#
# Coordination Sequence:
#
# PCOD9574998 Si02
#       5
#    18  18  18  18  18
#     4  10  19  30  47  70 100 137 166 210 244 304
#     4  10  19  29  46  70  97 132 178 197 252 305
#     4   9  19  31  44  68  96 133 169 206 244 300
#     4  10  17  31  47  69  96 135 163 205 250 304
#     4   9  18  29  47  67  96 131 166 204 251 298
#
# _framework density 19.152003000000001
#
# number of rings (size 3 to 8) (size 9 to 14) (size 15 to 20)
#    0.000    2.400    2.000    1.200    8.400    0.000 
#    0.000    0.000    0.000    0.000    0.000    0.000 
#    2.000    1.600    0.000   27.400    0.800    0.400 
#
# Total GULP energy -167064.802192 kJ/mol
# GULP energy per Si atom -5568.826740 kJ/mol
# Density = 1.910841 g / cm^3
# Si number density = 19.152003 Si / 1000 Ang^3
#
#
#
# Elastic Constant Matrix: (Units=GPa)
#
#
# Indices 1 2 3 4 5 6 
#
# 1 42.3709 -3.6154 -6.7028 -2.6146 0.1869 0.0000
# 2 -3.6154 42.3709 -6.7028 2.6146 -0.1869 0.0000
# 3 -6.7028 -6.7028 25.3042 0.0000 0.0000 0.0000
# 4 -2.6146 2.6146 0.0000 16.9072 0.0000 -0.1869
# 5 0.1869 -0.1869 0.0000 0.0000 16.9072 -2.6146
# 6 0.0000 0.0000 0.0000 -0.1869 -2.6146 22.9932
#
#
#
# Elastic Compliance Matrix: (Units=1/GPa)
#
#
# Indices 1 2 3 4 5 6 
#
# 1 0.025271 0.003134 0.007524 0.003423 -0.000245 0.000000
# 2 0.003134 0.025271 0.007524 -0.003423 0.000245 0.000000
# 3 0.007524 0.007524 0.043505 0.000000 0.000000 0.000000
# 4 0.003423 -0.003423 0.000000 0.060211 0.000000 0.000490
# 5 -0.000245 0.000245 0.000000 0.000000 0.060211 0.006847
# 6 0.000000 0.000000 0.000000 0.000490 0.006847 0.044274
#
#
# Mechanical properties :
#
#
# Convention : Reuss Voigt Hill
#
# Bulk Modulus (GPa) = 7.66792 8.44488 8.05640
# Shear Modulus (GPa) = 18.80773 19.83264 19.32018
#
# Velocity S-wave (km/s) = 3.13713 3.22147 3.17958
# Velocity P-wave (km/s) = 4.13938 4.27272 4.20658
#
# Compressibility (1/GPa) = 0.13041342
#
# Stress axis : x y z
#
# Youngs Moduli (GPa) = 39.57078 39.57078 22.98572
#
# Poissons Ratio (x) = -0.12403 -0.17295
# Poissons Ratio (y) = -0.12403 -0.17295
# Poissons Ratio (z) = -0.29774 -0.29774
#
# Static dielectric constant tensor:
#      x y z
#    x 1.705270 0.000000 0.000000 
#    y 0.000000 1.705270 0.000000 
#    z 0.000000 0.000000 1.807030 
# 
# From -- ./inp_files/2161.got.cif
#   From: 2010.05.17/outbox.cif.g08.bks.cpg/sg148_2_cif.got.tgz:2161.got - 2010.05.20 13:50:20.
