data_PCOD9574953
_publ_section_title
;
Structure prediction by ZEFSAII (Michael W. Deem and Ramdas Pophale) SiO2 
 PCOD9574953
Probable space group: P -3
;
_chemical_formula_sum "Si O2"
_cell_formula_units_Z 30
_cell_length_a 17.534060
_cell_length_b 17.534060
_cell_length_c 5.135794
_cell_angle_alpha 90.000000
_cell_angle_beta 90.000000
_cell_angle_gamma 120.000000
_cell_volume 1367.424019
_symmetry_space_group_name_H-M "P -3"
_symmetry_group_IT_number 147
_symmetry_cell_setting 'hexagonal'
loop_
_space_group_symop_operation_xyz
x,y,z
-y,x-y,z
-x+y,-x,z
-x,-y,-z
y,-x+y,-z
x-y,x,-z
loop_
_atom_site_type_symbol
_atom_site_label
_atom_site_fract_x
_atom_site_fract_y
_atom_site_fract_z
Si Si1 0.790918 0.277462 0.303054
Si Si2 0.332165 0.880919 0.394550
Si Si3 0.160521 0.339572 0.031286
Si Si4 0.879039 0.386364 0.823243
Si Si5 0.301046 0.309992 0.232224
O O1 0.695207 0.196821 0.389920
O O2 0.834294 0.333807 0.558846
O O3 0.840421 0.224020 0.216209
O O4 0.810229 0.344034 0.062164
O O5 0.258564 0.836087 0.174520
O O6 0.424816 0.910405 0.260138
O O7 0.316676 0.956939 0.517231
O O8 0.205276 0.301393 0.221551
O O9 0.061810 0.287630 0.930429
O O10 0.956997 0.365279 0.883909
#
# Coordination Sequence:
#
# PCOD9574953 Si02
#       5
#     6   6   6   6   6
#     4  10  22  43  59  90 137 171 228 273 325 385
#     4  11  23  41  68  96 133 182 229 281 329 393
#     4  10  23  43  68  96 132 172 219 280 335 405
#     4  11  24  40  66  95 134 180 228 273 331 392
#     4  10  23  41  68  98 135 169 229 277 342 403
#
# _framework density 21.939063999999998
#
# number of rings (size 3 to 8) (size 9 to 14) (size 15 to 20)
#    0.000    1.600    4.000    0.600   11.200    0.800 
#    1.200    2.000    0.000    0.400    0.000    1.400 
#    0.000    0.000    0.000    0.000    0.000    0.000 
#
# Total GULP energy -167074.572437 kJ/mol
# GULP energy per Si atom -5569.152415 kJ/mol
# Density = 2.188913 g / cm^3
# Si number density = 21.939064 Si / 1000 Ang^3
#
#
#
# Elastic Constant Matrix: (Units=GPa)
#
#
# Indices 1 2 3 4 5 6 
#
# 1 80.7380 39.1626 32.6474 2.8978 1.9716 0.0000
# 2 39.1626 80.7380 32.6474 -2.8978 -1.9716 0.0000
# 3 32.6474 32.6474 111.4913 0.0000 0.0000 0.0000
# 4 2.8978 -2.8978 0.0000 22.6625 0.0000 -1.9716
# 5 1.9716 -1.9716 0.0000 0.0000 22.6625 2.8978
# 6 0.0000 0.0000 0.0000 -1.9716 2.8978 20.7877
#
#
#
# Elastic Compliance Matrix: (Units=1/GPa)
#
#
# Indices 1 2 3 4 5 6 
#
# 1 0.017310 -0.007387 -0.002906 -0.003158 -0.002149 0.000000
# 2 -0.007387 0.017310 -0.002906 0.003158 0.002149 0.000000
# 3 -0.002906 -0.002906 0.010671 0.000000 0.000000 0.000000
# 4 -0.003158 0.003158 0.000000 0.045307 0.000000 0.004297
# 5 -0.002149 0.002149 0.000000 0.000000 0.045307 -0.006316
# 6 0.000000 0.000000 0.000000 0.004297 -0.006316 0.049393
#
#
# Mechanical properties :
#
#
# Convention : Reuss Voigt Hill
#
# Bulk Modulus (GPa) = 52.92750 53.54246 53.23498
# Shear Modulus (GPa) = 22.93659 24.45652 23.69656
#
# Velocity S-wave (km/s) = 3.23688 3.34241 3.29007
# Velocity P-wave (km/s) = 6.17632 6.27325 6.22497
#
# Compressibility (1/GPa) = 0.01889377
#
# Stress axis : x y z
#
# Youngs Moduli (GPa) = 57.77134 57.77134 93.71236
#
# Poissons Ratio (x) = 0.42676 0.27229
# Poissons Ratio (y) = 0.42676 0.27229
# Poissons Ratio (z) = 0.16786 0.16786
#
# Static dielectric constant tensor:
#      x y z
#    x 1.874650 0.000000 0.000000 
#    y 0.000000 1.874650 0.000000 
#    z 0.000000 0.000000 1.895810 
# 
# From -- ./inp_files/169.got.cif
#   From: 2010.05.17/outbox.cif.g08.bks.cpg/sg147_cif.got.tgz:169.got - 2010.05.20 13:49:32.
