data_PCOD9574702
_publ_section_title
;
Structure prediction by ZEFSAII (Michael W. Deem and Ramdas Pophale) SiO2 
 PCOD9574702
Probable space group: R 3
;
_chemical_formula_sum "Si O2"
_cell_formula_units_Z 54
_cell_length_a 14.426801
_cell_length_b 14.426801
_cell_length_c 12.897375
_cell_angle_alpha 90.000000
_cell_angle_beta 90.000000
_cell_angle_gamma 120.000000
_cell_volume 2324.727439
_symmetry_space_group_name_H-M "R 3"
_symmetry_group_IT_number 146
_symmetry_cell_setting 'hexagonal'
loop_
_space_group_symop_operation_xyz
x,y,z
-y,x-y,z
-x+y,-x,z
2/3+x,1/3+y,1/3+z
2/3-y,1/3+x-y,1/3+z
2/3-x+y,1/3-x,1/3+z
1/3+x,2/3+y,2/3+z
1/3-y,2/3+x-y,2/3+z
1/3-x+y,2/3-x,2/3+z
loop_
_atom_site_type_symbol
_atom_site_label
_atom_site_fract_x
_atom_site_fract_y
_atom_site_fract_z
Si Si1 0.091936 0.816240 0.390410
Si Si2 0.086443 0.217681 0.911331
Si Si3 0.559850 0.081201 0.868932
Si Si4 0.565979 0.073679 0.259609
Si Si5 0.304659 0.918666 0.029110
Si Si6 0.376748 0.870711 0.347570
O O1 0.098807 0.767590 0.280905
O O2 0.156261 0.781413 0.471213
O O3 0.982718 0.785045 0.447846
O O4 0.155625 0.943940 0.371543
O O5 0.184822 0.207605 0.953939
O O6 0.064690 0.174318 0.793706
O O7 0.966193 0.152304 0.956584
O O8 0.115072 0.339290 0.932948
O O9 0.450611 0.022599 0.802325
O O10 0.550787 0.172370 0.936814
O O11 0.494525 0.954185 0.304873
O O12 0.383375 0.045384 0.027416
#
# Coordination Sequence:
#
# PCOD9574702 Si02
#       6
#     9   9   9   9   9   9
#     4  11  24  41  68 104 142 189 247 297 371 443
#     4  11  23  40  71  99 142 185 237 311 367 437
#     4  11  23  42  68 103 143 188 247 304 363 450
#     4  11  23  39  64 105 133 180 244 297 369 430
#     4  10  21  45  68  97 139 196 230 291 378 444
#     4  10  20  43  69  96 141 192 233 300 374 438
#
# _framework density 23.228529000000002
#
# number of rings (size 3 to 8) (size 9 to 14) (size 15 to 20)
#    0.000    1.333    5.000    2.333    4.667    0.000 
#    1.000    0.000    0.000    0.000    0.000    0.000 
#    0.000    0.000    0.000    0.000    0.000    0.000 
#
# Total GULP energy -100355.882971 kJ/mol
# GULP energy per Si atom -5575.326832 kJ/mol
# Density = 2.317566 g / cm^3
# Si number density = 23.228529 Si / 1000 Ang^3
#
#
#
# Elastic Constant Matrix: (Units=GPa)
#
#
# Indices 1 2 3 4 5 6 
#
# 1 102.1044 44.5721 24.2156 -6.9516 1.9669 0.0000
# 2 44.5721 102.1044 24.2156 6.9516 -1.9669 0.0000
# 3 24.2156 24.2156 65.5521 0.0000 0.0000 0.0000
# 4 -6.9516 6.9516 0.0000 33.2440 0.0000 -1.9669
# 5 1.9669 -1.9669 0.0000 0.0000 33.2440 -6.9516
# 6 0.0000 0.0000 0.0000 -1.9669 -6.9516 28.7662
#
#
#
# Elastic Compliance Matrix: (Units=1/GPa)
#
#
# Indices 1 2 3 4 5 6 
#
# 1 0.013075 -0.005310 -0.002868 0.003844 -0.001088 0.000000
# 2 -0.005310 0.013075 -0.002868 -0.003844 0.001088 0.000000
# 3 -0.002868 -0.002868 0.017374 0.000000 0.000000 0.000000
# 4 0.003844 -0.003844 0.000000 0.031817 0.000000 0.002175
# 5 -0.001088 0.001088 0.000000 0.000000 0.031817 0.007689
# 6 0.000000 0.000000 0.000000 0.002175 0.007689 0.036770
#
#
# Mechanical properties :
#
#
# Convention : Reuss Voigt Hill
#
# Bulk Modulus (GPa) = 46.66287 50.64085 48.65186
# Shear Modulus (GPa) = 28.87412 30.83469 29.85441
#
# Velocity S-wave (km/s) = 3.52951 3.64737 3.58892
# Velocity P-wave (km/s) = 6.06153 6.29176 6.17772
#
# Compressibility (1/GPa) = 0.02143032
#
# Stress axis : x y z
#
# Youngs Moduli (GPa) = 76.48239 76.48239 57.55636
#
# Poissons Ratio (x) = 0.40613 0.16510
# Poissons Ratio (y) = 0.40613 0.16510
# Poissons Ratio (z) = 0.21938 0.21938
#
# Static dielectric constant tensor:
#      x y z
#    x 1.952810 0.000000 0.000000 
#    y 0.000000 1.952810 0.000000 
#    z 0.000000 0.000000 1.948860 
# 
# From -- ./inp_files/1511.got.cif
#   From: 2010.05.17/outbox.cif.g08.bks.cpg/sg146_cif.got.tgz:1511.got - 2010.05.20 13:48:23.
