data_PCOD9574137
_publ_section_title
;
Structure prediction by ZEFSAII (Michael W. Deem and Ramdas Pophale) SiO2 
 PCOD9574137
Probable space group: I 41/A C D
;
_chemical_formula_sum "Si O2"
_cell_formula_units_Z 160
_cell_length_a 22.803417
_cell_length_b 22.803417
_cell_length_c 14.643913
_cell_angle_alpha 90.000000
_cell_angle_beta 90.000000
_cell_angle_gamma 90.000000
_cell_volume 7614.773649
_symmetry_space_group_name_H-M "I 41/A C D"
_symmetry_group_IT_number 142
_space_group.IT_coordinate_system_code '2'
_symmetry_cell_setting 'tetragonal'
loop_
_space_group_symop_operation_xyz
x,y,z
1/4-y,3/4+x,1/4+z
-x,1/2-y,z
1/4+y,1/4-x,3/4+z
x,-y,1/2-z
1/2-x,y,-z
3/4+y,1/4+x,1/4-z
1/4-y,1/4-x,1/4-z
-x,-y,-z
3/4+y,1/4-x,3/4-z
x,1/2+y,-z
3/4-y,3/4+x,1/4-z
-x,y,1/2+z
1/2+x,-y,z
1/4-y,3/4-x,3/4+z
3/4+y,3/4+x,3/4+z
1/2+x,1/2+y,1/2+z
3/4-y,1/4+x,3/4+z
1/2-x,-y,1/2+z
3/4+y,3/4-x,1/4+z
1/2+x,1/2-y,-z
-x,1/2+y,1/2-z
1/4+y,3/4+x,3/4-z
3/4-y,3/4-x,3/4-z
1/2-x,1/2-y,1/2-z
1/4+y,3/4-x,1/4-z
1/2+x,y,1/2-z
1/4-y,1/4+x,3/4-z
1/2-x,1/2+y,z
x,1/2-y,1/2+z
3/4-y,1/4-x,1/4+z
1/4+y,1/4+x,1/4+z
loop_
_atom_site_type_symbol
_atom_site_label
_atom_site_fract_x
_atom_site_fract_y
_atom_site_fract_z
Si Si1 0.048484 0.068263 0.771376
Si Si2 0.671783 0.400338 0.170838
Si Si3 0.402252 0.752088 0.626998
Si Si4 0.686166 0.735757 0.292162
Si Si5 0.317039 0.947091 0.524586
O O1 0.117052 0.084599 0.764179
O O2 0.009428 0.108741 0.706778
O O3 0.027374 0.077196 0.873727
O O4 0.040565 0.000000 0.750000
O O5 0.683001 0.330914 0.171910
O O6 0.732994 0.426776 0.208736
O O7 0.654543 0.424725 0.069690
O O8 0.451287 0.701287 0.625000
O O9 0.436878 0.813123 0.625000
O O10 0.362689 0.745137 0.715936
O O11 0.750000 0.750000 0.250000
O O12 0.250000 0.933311 0.500000
O O13 0.330506 0.919495 0.625000
#
# Coordination Sequence:
#
# PCOD9574137 Si02
#       5
#    32  32  32  32  32
#     4  12  26  45  73 108 141 186 236 299 369 431
#     4  11  23  43  71 102 144 187 239 299 362 438
#     4  11  26  50  75 101 142 194 245 297 357 431
#     4  12  26  47  69 108 144 186 245 295 358 432
#     4   9  20  40  65 103 142 189 232 290 371 441
#
# _framework density 21.011786000000001
#
# number of rings (size 3 to 8) (size 9 to 14) (size 15 to 20)
#    0.000    1.000    4.000    1.800    2.800    2.400 
#    3.600    2.000    0.000    0.000    0.000    0.000 
#    0.000    0.000    0.000    0.000    0.000    0.000 
#
# Total GULP energy -447137.649766 kJ/mol
# GULP energy per Si atom -5589.220622 kJ/mol
# Density = 2.096396 g / cm^3
# Si number density = 21.011786 Si / 1000 Ang^3
#
#
#
# Elastic Constant Matrix: (Units=GPa)
#
#
# Indices 1 2 3 4 5 6 
#
# 1 91.8406 28.3996 57.3600 0.0000 0.0000 0.0000
# 2 28.3996 91.8347 57.3582 0.0000 0.0000 0.0000
# 3 57.3600 57.3582 151.3751 0.0000 0.0000 0.0000
# 4 0.0000 0.0000 0.0000 28.8689 0.0000 0.0000
# 5 0.0000 0.0000 0.0000 0.0000 28.8682 0.0000
# 6 0.0000 0.0000 0.0000 0.0000 0.0000 38.3710
#
#
#
# Elastic Compliance Matrix: (Units=1/GPa)
#
#
# Indices 1 2 3 4 5 6 
#
# 1 0.014394 -0.001369 -0.004936 0.000000 0.000000 0.000000
# 2 -0.001369 0.014395 -0.004936 0.000000 0.000000 0.000000
# 3 -0.004936 -0.004936 0.010347 0.000000 0.000000 0.000000
# 4 0.000000 0.000000 0.000000 0.034639 0.000000 0.000000
# 5 0.000000 0.000000 0.000000 0.000000 0.034640 0.000000
# 6 0.000000 0.000000 0.000000 0.000000 0.000000 0.026061
#
#
# Mechanical properties :
#
#
# Convention : Reuss Voigt Hill
#
# Bulk Modulus (GPa) = 60.03995 69.03178 64.53586
# Shear Modulus (GPa) = 30.76734 32.01711 31.39223
#
# Velocity S-wave (km/s) = 3.83076 3.90778 3.86946
# Velocity P-wave (km/s) = 6.94282 7.29974 7.12351
#
# Compressibility (1/GPa) = 0.01665558
#
# Stress axis : x y z
#
# Youngs Moduli (GPa) = 69.47167 69.46716 96.64892
#
# Poissons Ratio (x) = 0.09507 0.47704
# Poissons Ratio (y) = 0.09508 0.47706
# Poissons Ratio (z) = 0.34290 0.34289
#
# Static dielectric constant tensor:
#      x y z
#    x 1.742100 0.000000 0.000000 
#    y 0.000000 1.742110 0.000000 
#    z 0.000000 0.000000 1.736210 
# 
# From -- ./inp_files/5463.got.cif
#   From: 2010.05.17/outbox.cif.g08.bks.cpg/sg142_3_cif.got.tgz:5463.got - 2010.05.20 13:39:18.
