data_PCOD9574885
_publ_section_title
;
Structure prediction by ZEFSAII (Michael W. Deem and Ramdas Pophale) SiO2 
 PCOD9574885
Probable space group: P -3
;
_chemical_formula_sum "Si O2"
_cell_formula_units_Z 36
_cell_length_a 13.185625
_cell_length_b 13.185625
_cell_length_c 15.396765
_cell_angle_alpha 90.000000
_cell_angle_beta 90.000000
_cell_angle_gamma 120.000000
_cell_volume 2318.256859
_symmetry_space_group_name_H-M "P -3"
_symmetry_group_IT_number 147
_symmetry_cell_setting 'hexagonal'
loop_
_space_group_symop_operation_xyz
x,y,z
-y,x-y,z
-x+y,-x,z
-x,-y,-z
y,-x+y,-z
x-y,x,-z
loop_
_atom_site_type_symbol
_atom_site_label
_atom_site_fract_x
_atom_site_fract_y
_atom_site_fract_z
Si Si1 0.333683 0.428069 0.648980
Si Si2 0.428069 0.333683 0.351020
Si Si3 0.666317 0.094386 0.148980
Si Si4 0.000000 0.758526 0.500000
Si Si5 0.905614 0.333683 0.148980
Si Si6 0.000000 0.241474 0.000000
O O1 0.457367 0.542633 0.629384
O O2 0.228681 0.457362 0.639945
O O3 0.303478 0.322754 0.583528
O O4 0.334466 0.395904 0.750000
O O5 0.395904 0.334466 0.250000
O O6 0.322754 0.303478 0.416472
O O7 0.771319 0.228681 0.139945
O O8 0.542633 0.085265 0.129384
O O9 0.696522 0.019276 0.083528
O O10 0.884926 0.769851 0.509590
O O11 0.980724 0.303478 0.083528
O O12 0.115074 0.230149 0.009590
#
# Coordination Sequence:
#
# PCOD9574885 Si02
#       6
#     6   6   6   6   6   6
#     4   9  17  30  49  71  92 115 147 190 238 283
#     4   9  17  30  49  71  92 115 147 190 238 283
#     4   9  17  30  49  71  92 115 147 190 238 283
#     4  10  20  32  46  66  94 128 162 192 222 262
#     4   9  17  30  49  71  92 115 147 190 238 283
#     4  10  20  32  46  66  94 128 162 192 222 262
#
# _framework density 15.528907999999999
#
# number of rings (size 3 to 8) (size 9 to 14) (size 15 to 20)
#    0.000    2.667    0.000    2.000    0.000    4.000 
#    0.000    0.000    0.000    5.333    0.000    0.000 
#    0.000    0.000    0.000    0.000    0.000    0.000 
#
# Total GULP energy -200647.245095 kJ/mol
# GULP energy per Si atom -5573.534586 kJ/mol
# Density = 1.549356 g / cm^3
# Si number density = 15.528908 Si / 1000 Ang^3
#
#
#
# Elastic Constant Matrix: (Units=GPa)
#
#
# Indices 1 2 3 4 5 6 
#
# 1 112.3148 75.0752 84.9637 0.0000 0.0000 0.0000
# 2 75.0752 112.3148 84.9637 0.0000 0.0000 0.0000
# 3 84.9637 84.9637 106.4699 0.0000 0.0000 0.0000
# 4 0.0000 0.0000 0.0000 24.9824 0.0000 0.0000
# 5 0.0000 0.0000 0.0000 0.0000 24.9824 0.0000
# 6 0.0000 0.0000 0.0000 0.0000 0.0000 18.6198
#
#
#
# Elastic Compliance Matrix: (Units=1/GPa)
#
#
# Indices 1 2 3 4 5 6 
#
# 1 0.023082 -0.003772 -0.015409 0.000000 0.000000 0.000000
# 2 -0.003772 0.023082 -0.015409 0.000000 0.000000 0.000000
# 3 -0.015409 -0.015409 0.033986 0.000000 0.000000 0.000000
# 4 0.000000 0.000000 0.000000 0.040028 0.000000 0.000000
# 5 0.000000 0.000000 0.000000 0.000000 0.040028 0.000000
# 6 0.000000 0.000000 0.000000 0.000000 0.000000 0.053706
#
#
# Mechanical properties :
#
#
# Convention : Reuss Voigt Hill
#
# Bulk Modulus (GPa) = 91.17378 91.23386 91.20382
# Shear Modulus (GPa) = 17.43686 19.45672 18.44679
#
# Velocity S-wave (km/s) = 3.35455 3.54352 3.45033
# Velocity P-wave (km/s) = 8.59324 8.69601 8.64478
#
# Compressibility (1/GPa) = 0.01096807
#
# Stress axis : x y z
#
# Youngs Moduli (GPa) = 43.32466 43.32466 29.42381
#
# Poissons Ratio (x) = 0.16340 0.45341
# Poissons Ratio (y) = 0.16340 0.45341
# Poissons Ratio (z) = 0.66761 0.66761
#
# Static dielectric constant tensor:
#      x y z
#    x 1.490380 0.000000 0.000000 
#    y 0.000000 1.490380 0.000000 
#    z 0.000000 0.000000 1.512480 
# 
# From -- ./inp_files/920.got.cif
#   From: 2010.05.17/outbox.cif.g08.bks.cpg/sg147_cif.got.tgz:920.got - 2010.05.20 13:49:32.
