data_PCOD9574526
_publ_section_title
;
Structure prediction by ZEFSAII (Michael W. Deem and Ramdas Pophale) SiO2 
 PCOD9574526
Probable space group: P 32
;
_chemical_formula_sum "Si O2"
_cell_formula_units_Z 18
_cell_length_a 8.096257
_cell_length_b 8.096257
_cell_length_c 11.521404
_cell_angle_alpha 90.000000
_cell_angle_beta 90.000000
_cell_angle_gamma 120.000000
_cell_volume 654.040449
_symmetry_space_group_name_H-M "P 32"
_symmetry_group_IT_number 145
_symmetry_cell_setting 'hexagonal'
loop_
_space_group_symop_operation_xyz
x,y,z
-y,x-y,2/3+z
-x+y,-x,1/3+z
loop_
_atom_site_type_symbol
_atom_site_label
_atom_site_fract_x
_atom_site_fract_y
_atom_site_fract_z
Si Si1 0.867487 0.991430 0.639600
Si Si2 0.934052 0.698168 0.553451
Si Si3 0.456227 0.112371 0.611261
Si Si4 0.175090 0.670643 0.143575
Si Si5 0.001295 0.530739 0.889298
Si Si6 0.422310 0.094809 0.884927
O O1 0.774510 0.984370 0.762118
O O2 0.704830 0.907474 0.538575
O O3 0.997875 0.212973 0.607731
O O4 0.973299 0.870956 0.637118
O O5 0.896531 0.309753 0.413336
O O6 0.994089 0.545316 0.585558
O O7 0.390796 0.907350 0.557794
O O8 0.397788 0.247259 0.540737
O O9 0.687951 0.222501 0.599916
O O10 0.081606 0.586446 0.020167
O O11 0.869800 0.299169 0.878291
O O12 0.189978 0.591439 0.814159
#
# Coordination Sequence:
#
# PCOD9574526 Si02
#       6
#     3   3   3   3   3   3
#     4  10  20  39  64 101 148 188 259 342 379 484
#     4  10  21  37  69  98 146 198 254 336 401 476
#     4  10  17  34  66  98 131 191 258 316 391 485
#     4  10  20  39  64 101 148 188 259 342 379 484
#     4  10  21  37  69  98 146 198 254 336 401 476
#     4  10  17  34  66  98 131 191 258 316 391 485
#
# _framework density 27.521229999999999
#
# number of rings (size 3 to 8) (size 9 to 14) (size 15 to 20)
#    0.000    2.000    6.667    0.000    0.000    0.000 
#    0.000    6.667   14.667    0.000    0.000    0.000 
#    0.000    0.000    0.000    0.000    0.000    0.000 
#
# Total GULP energy -100853.999622 kJ/mol
# GULP energy per Si atom -5602.999979 kJ/mol
# Density = 2.745859 g / cm^3
# Si number density = 27.521230 Si / 1000 Ang^3
#
#
#
# Elastic Constant Matrix: (Units=GPa)
#
#
# Indices 1 2 3 4 5 6 
#
# 1 140.0583 46.9155 32.5158 5.8369 2.4480 0.0000
# 2 46.9155 140.0583 32.5158 -5.8369 -2.4480 0.0000
# 3 32.5158 32.5158 122.8415 0.0000 0.0000 0.0000
# 4 5.8369 -5.8369 0.0000 32.3493 0.0000 -2.4480
# 5 2.4480 -2.4480 0.0000 0.0000 32.3493 5.8369
# 6 0.0000 0.0000 0.0000 -2.4480 5.8369 46.5714
#
#
#
# Elastic Compliance Matrix: (Units=1/GPa)
#
#
# Indices 1 2 3 4 5 6 
#
# 1 0.008460 -0.002569 -0.001559 -0.001990 -0.000835 0.000000
# 2 -0.002569 0.008460 -0.001559 0.001990 0.000835 0.000000
# 3 -0.001559 -0.001559 0.008966 0.000000 0.000000 0.000000
# 4 -0.001990 0.001990 0.000000 0.031757 0.000000 0.001669
# 5 -0.000835 0.000835 0.000000 0.000000 0.031757 -0.003980
# 6 0.000000 0.000000 0.000000 0.001669 -0.003980 0.022059
#
#
# Mechanical properties :
#
#
# Convention : Reuss Voigt Hill
#
# Bulk Modulus (GPa) = 68.91616 69.65026 69.28321
# Shear Modulus (GPa) = 39.16289 41.65473 40.40881
#
# Velocity S-wave (km/s) = 3.77637 3.89466 3.83597
# Velocity P-wave (km/s) = 6.64154 6.75183 6.69691
#
# Compressibility (1/GPa) = 0.01451039
#
# Stress axis : x y z
#
# Youngs Moduli (GPa) = 118.20213 118.20213 111.53210
#
# Poissons Ratio (x) = 0.30371 0.17391
# Poissons Ratio (y) = 0.30371 0.17391
# Poissons Ratio (z) = 0.18431 0.18431
#
# Static dielectric constant tensor:
#      x y z
#    x 2.234970 0.000000 0.000000 
#    y 0.000000 2.234970 0.000000 
#    z 0.000000 0.000000 2.059400 
# 
# From -- ./inp_files/654.got.cif
#   From: 2010.05.17/outbox.cif.g08.bks.cpg/sg145_cif.got.tgz:654.got - 2010.05.20 13:47:28.
