data_PCOD9574509
_publ_section_title
;
Structure prediction by ZEFSAII (Michael W. Deem and Ramdas Pophale) SiO2 
 PCOD9574509
Probable space group: P 31
;
_chemical_formula_sum "Si O2"
_cell_formula_units_Z 21
_cell_length_a 9.501331
_cell_length_b 9.501331
_cell_length_c 10.913446
_cell_angle_alpha 90.000000
_cell_angle_beta 90.000000
_cell_angle_gamma 120.000000
_cell_volume 853.220795
_symmetry_space_group_name_H-M "P 31"
_symmetry_group_IT_number 144
_symmetry_cell_setting 'hexagonal'
loop_
_space_group_symop_operation_xyz
x,y,z
-y,x-y,1/3+z
-x+y,-x,2/3+z
loop_
_atom_site_type_symbol
_atom_site_label
_atom_site_fract_x
_atom_site_fract_y
_atom_site_fract_z
Si Si1 0.465690 0.768005 0.392890
Si Si2 0.761984 0.234018 0.230529
Si Si3 0.286138 0.418507 0.333145
Si Si4 0.428845 0.252020 0.495014
Si Si5 0.217759 0.012520 0.691957
Si Si6 0.206931 0.059033 0.088574
Si Si7 0.414671 0.033431 0.286382
O O1 0.326559 0.581947 0.404001
O O2 0.534220 0.849399 0.524506
O O3 0.620055 0.767082 0.329175
O O4 0.391440 0.860511 0.320102
O O5 0.793021 0.416183 0.240314
O O6 0.798800 0.160848 0.351225
O O7 0.572896 0.119897 0.200321
O O8 0.882132 0.230759 0.128774
O O9 0.397230 0.357855 0.396342
O O10 0.104412 0.275117 0.352829
O O11 0.463425 0.134510 0.412065
O O12 0.272671 0.135238 0.577282
O O13 0.034734 0.940596 0.741210
O O14 0.266344 0.041270 0.222961
#
# Coordination Sequence:
#
# PCOD9574509 Si02
#       7
#     3   3   3   3   3   3   3
#     4  12  25  48  76 113 161 213 268 342 409 489
#     4  12  26  48  78 111 163 212 273 339 411 490
#     4  12  26  48  76 111 160 212 263 337 407 494
#     4  12  27  45  78 114 155 211 275 325 418 488
#     4  12  26  49  76 115 164 213 267 350 405 489
#     4  12  27  48  75 116 158 212 272 339 415 490
#     4  12  27  46  81 114 155 215 278 330 413 500
#
# _framework density 24.612618999999999
#
# number of rings (size 3 to 8) (size 9 to 14) (size 15 to 20)
#    0.000    0.000    4.286    5.143    4.000    0.000 
#    0.000    0.000    0.000    0.000    0.000    0.000 
#    0.000    0.000    0.000    0.000    0.000    0.000 
#
# Total GULP energy -117704.491519 kJ/mol
# GULP energy per Si atom -5604.975787 kJ/mol
# Density = 2.455660 g / cm^3
# Si number density = 24.612619 Si / 1000 Ang^3
#
#
#
# Elastic Constant Matrix: (Units=GPa)
#
#
# Indices 1 2 3 4 5 6 
#
# 1 140.7919 56.8171 41.1887 -0.3224 -4.6871 0.0000
# 2 56.8171 140.7919 41.1887 0.3224 4.6871 0.0000
# 3 41.1887 41.1887 72.5667 0.0000 0.0000 0.0000
# 4 -0.3224 0.3224 0.0000 32.4320 0.0000 4.6871
# 5 -4.6871 4.6871 0.0000 0.0000 32.4320 -0.3224
# 6 0.0000 0.0000 0.0000 4.6871 -0.3224 41.9874
#
#
#
# Elastic Compliance Matrix: (Units=1/GPa)
#
#
# Indices 1 2 3 4 5 6 
#
# 1 0.009367 -0.002738 -0.003763 0.000120 0.001749 0.000000
# 2 -0.002738 0.009367 -0.003763 -0.000120 -0.001749 0.000000
# 3 -0.003763 -0.003763 0.018052 0.000000 0.000000 0.000000
# 4 0.000120 -0.000120 0.000000 0.031342 0.000000 -0.003499
# 5 0.001749 -0.001749 0.000000 0.000000 0.031342 0.000241
# 6 0.000000 0.000000 0.000000 -0.003499 0.000241 0.024209
#
#
# Mechanical properties :
#
#
# Convention : Reuss Voigt Hill
#
# Bulk Modulus (GPa) = 61.50324 70.28219 65.89271
# Shear Modulus (GPa) = 33.41715 35.70067 34.55891
#
# Velocity S-wave (km/s) = 3.68873 3.81268 3.75122
# Velocity P-wave (km/s) = 6.57153 6.92816 6.75220
#
# Compressibility (1/GPa) = 0.01625931
#
# Stress axis : x y z
#
# Youngs Moduli (GPa) = 106.76024 106.76024 55.39627
#
# Poissons Ratio (x) = 0.29228 0.20844
# Poissons Ratio (y) = 0.29228 0.20844
# Poissons Ratio (z) = 0.40170 0.40170
#
# Static dielectric constant tensor:
#      x y z
#    x 1.948160 0.000000 0.000000 
#    y 0.000000 1.948160 0.000000 
#    z 0.000000 0.000000 1.989460 
# 
# From -- ./inp_files/600.got.cif
#   From: 2010.05.17/outbox.cif.g08.bks.cpg/sg144_cif.got.tgz:600.got - 2010.05.20 13:46:34.
