data_PCOD9574755
_publ_section_title
;
Structure prediction by ZEFSAII (Michael W. Deem and Ramdas Pophale) SiO2 
 PCOD9574755
Probable space group: R 3
;
_chemical_formula_sum "Si O2"
_cell_formula_units_Z 45
_cell_length_a 14.196688
_cell_length_b 14.196688
_cell_length_c 12.726917
_cell_angle_alpha 90.000000
_cell_angle_beta 90.000000
_cell_angle_gamma 120.000000
_cell_volume 2221.405892
_symmetry_space_group_name_H-M "R 3"
_symmetry_group_IT_number 146
_symmetry_cell_setting 'hexagonal'
loop_
_space_group_symop_operation_xyz
x,y,z
-y,x-y,z
-x+y,-x,z
2/3+x,1/3+y,1/3+z
2/3-y,1/3+x-y,1/3+z
2/3-x+y,1/3-x,1/3+z
1/3+x,2/3+y,2/3+z
1/3-y,2/3+x-y,2/3+z
1/3-x+y,2/3-x,2/3+z
loop_
_atom_site_type_symbol
_atom_site_label
_atom_site_fract_x
_atom_site_fract_y
_atom_site_fract_z
Si Si1 0.240772 0.929988 0.026160
Si Si2 0.122027 0.663450 0.734816
Si Si3 0.279397 0.750619 0.915256
Si Si4 0.787362 0.775809 0.805520
Si Si5 0.341838 0.457413 0.481309
O O1 0.130109 0.872779 0.092212
O O2 0.347159 0.009311 0.090295
O O3 0.249166 0.830401 0.973811
O O4 0.232097 0.999327 0.930618
O O5 0.236775 0.738110 0.794369
O O6 0.124799 0.666869 0.608389
O O7 0.041349 0.703134 0.777974
O O8 0.218210 0.621120 0.941963
O O9 0.894218 0.772245 0.774330
O O10 0.798355 0.891667 0.777823
#
# Coordination Sequence:
#
# PCOD9574755 Si02
#       5
#     9   9   9   9   9
#     4  11  24  43  68  98 137 176 228 274 334 397
#     4  11  22  42  62 101 128 175 225 274 335 387
#     4  10  23  38  69  95 127 170 227 271 329 384
#     4  11  24  42  64  97 130 179 222 278 328 404
#     4  11  25  39  67  93 138 174 226 271 342 390
#
# _framework density 20.257439999999999
#
# number of rings (size 3 to 8) (size 9 to 14) (size 15 to 20)
#    0.400    0.800    4.000    2.800    8.400    1.600 
#    0.000    0.000    0.000    0.000    0.000    0.000 
#    0.000    0.000    0.000    0.000    0.000    0.000 
#
# Total GULP energy -83691.563139 kJ/mol
# GULP energy per Si atom -5579.437543 kJ/mol
# Density = 2.021133 g / cm^3
# Si number density = 20.257440 Si / 1000 Ang^3
#
#
#
# Elastic Constant Matrix: (Units=GPa)
#
#
# Indices 1 2 3 4 5 6 
#
# 1 161.1799 74.5664 30.2672 -1.5607 3.8617 0.0000
# 2 74.5664 161.1799 30.2672 1.5607 -3.8617 0.0000
# 3 30.2672 30.2672 33.3590 0.0000 0.0000 0.0000
# 4 -1.5607 1.5607 0.0000 26.2023 0.0000 -3.8617
# 5 3.8617 -3.8617 0.0000 0.0000 26.2023 -1.5607
# 6 0.0000 0.0000 0.0000 -3.8617 -1.5607 43.3067
#
#
#
# Elastic Compliance Matrix: (Units=1/GPa)
#
#
# Indices 1 2 3 4 5 6 
#
# 1 0.008628 -0.003097 -0.005018 0.000698 -0.001728 0.000000
# 2 -0.003097 0.008628 -0.005018 -0.000698 0.001728 0.000000
# 3 -0.005018 -0.005018 0.039082 0.000000 0.000000 0.000000
# 4 0.000698 -0.000698 0.000000 0.038757 0.000000 0.003456
# 5 -0.001728 0.001728 0.000000 0.000000 0.038757 0.001397
# 6 0.000000 0.000000 0.000000 0.003456 0.001397 0.023450
#
#
# Mechanical properties :
#
#
# Convention : Reuss Voigt Hill
#
# Bulk Modulus (GPa) = 33.25358 69.54672 51.40015
# Shear Modulus (GPa) = 25.82770 33.85013 29.83892
#
# Velocity S-wave (km/s) = 3.57455 4.09222 3.84211
# Velocity P-wave (km/s) = 5.78685 7.53222 6.71647
#
# Compressibility (1/GPa) = 0.03007195
#
# Stress axis : x y z
#
# Youngs Moduli (GPa) = 115.90775 115.90775 25.58701
#
# Poissons Ratio (x) = 0.35900 0.12839
# Poissons Ratio (y) = 0.35900 0.12839
# Poissons Ratio (z) = 0.58160 0.58160
#
# Static dielectric constant tensor:
#      x y z
#    x 1.726310 0.000000 0.000000 
#    y 0.000000 1.726310 0.000000 
#    z 0.000000 0.000000 1.723910 
# 
# From -- ./inp_files/1068.got.cif
#   From: 2010.05.17/outbox.cif.g08.bks.cpg/sg146_cif.got.tgz:1068.got - 2010.05.20 13:48:23.
