data_PCOD9574077
_publ_section_title
;
Structure prediction by ZEFSAII (Michael W. Deem and Ramdas Pophale) SiO2 
 PCOD9574077
Probable space group: I 41/A C D
;
_chemical_formula_sum "Si O2"
_cell_formula_units_Z 136
_cell_length_a 19.171986
_cell_length_b 19.171986
_cell_length_c 14.012403
_cell_angle_alpha 90.000000
_cell_angle_beta 90.000000
_cell_angle_gamma 90.000000
_cell_volume 5150.469570
_symmetry_space_group_name_H-M "I 41/A C D"
_symmetry_group_IT_number 142
_space_group.IT_coordinate_system_code '2'
_symmetry_cell_setting 'tetragonal'
loop_
_space_group_symop_operation_xyz
x,y,z
1/4-y,3/4+x,1/4+z
-x,1/2-y,z
1/4+y,1/4-x,3/4+z
x,-y,1/2-z
1/2-x,y,-z
3/4+y,1/4+x,1/4-z
1/4-y,1/4-x,1/4-z
-x,-y,-z
3/4+y,1/4-x,3/4-z
x,1/2+y,-z
3/4-y,3/4+x,1/4-z
-x,y,1/2+z
1/2+x,-y,z
1/4-y,3/4-x,3/4+z
3/4+y,3/4+x,3/4+z
1/2+x,1/2+y,1/2+z
3/4-y,1/4+x,3/4+z
1/2-x,-y,1/2+z
3/4+y,3/4-x,1/4+z
1/2+x,1/2-y,-z
-x,1/2+y,1/2-z
1/4+y,3/4+x,3/4-z
3/4-y,3/4-x,3/4-z
1/2-x,1/2-y,1/2-z
1/4+y,3/4-x,1/4-z
1/2+x,y,1/2-z
1/4-y,1/4+x,3/4-z
1/2-x,1/2+y,z
x,1/2-y,1/2+z
3/4-y,1/4-x,1/4+z
1/4+y,1/4+x,1/4+z
loop_
_atom_site_type_symbol
_atom_site_label
_atom_site_fract_x
_atom_site_fract_y
_atom_site_fract_z
Si Si1 0.899232 0.704786 0.485926
Si Si2 0.908799 0.658799 0.875000
Si Si3 0.277998 0.143618 0.243532
Si Si4 0.477045 0.038094 0.148387
Si Si5 0.670133 0.420133 0.875000
Si Si6 0.500000 0.750000 0.375000
O O1 0.900483 0.759162 0.398269
O O2 0.862728 0.752489 0.564814
O O3 0.852371 0.639268 0.454013
O O4 0.970684 0.695323 0.543562
O O5 0.855375 0.639909 0.788444
O O6 0.229635 0.160472 0.335323
O O7 0.268529 0.208270 0.169987
O O8 0.243185 0.084010 0.180073
O O9 0.472874 0.000000 0.250000
#
# Coordination Sequence:
#
# PCOD9574077 Si02
#       6
#    32  16  32  32  16   8
#     4  12  23  42  68 101 141 181 228 288 356 421
#     4  12  24  43  70 103 142 188 238 298 358 436
#     4  11  24  42  70 103 136 182 246 292 354 431
#     4  11  20  44  69  96 130 190 238 271 344 464
#     4  12  24  43  70 103 142 188 238 298 358 436
#     4  12  24  34  60 112 148 174 224 316 370 392
#
# _framework density 26.405360000000002
#
# number of rings (size 3 to 8) (size 9 to 14) (size 15 to 20)
#    0.000    0.471    4.706    5.647    0.000    0.000 
#    0.000    0.000    0.000   22.588    0.000    0.000 
#    0.000    0.000    0.000    0.000    0.000    0.000 
#
# Total GULP energy -379209.292742 kJ/mol
# GULP energy per Si atom -5576.607246 kJ/mol
# Density = 2.634526 g / cm^3
# Si number density = 26.405360 Si / 1000 Ang^3
#
#
#
# Elastic Constant Matrix: (Units=GPa)
#
#
# Indices 1 2 3 4 5 6 
#
# 1 57.8997 11.0992 49.2507 0.0000 0.0000 0.0000
# 2 11.0992 57.8997 49.2507 0.0000 0.0000 0.0000
# 3 49.2507 49.2507 204.2796 0.0000 0.0000 0.0000
# 4 0.0000 0.0000 0.0000 26.2430 0.0000 0.0000
# 5 0.0000 0.0000 0.0000 0.0000 26.2430 0.0000
# 6 0.0000 0.0000 0.0000 0.0000 0.0000 18.5625
#
#
#
# Elastic Compliance Matrix: (Units=1/GPa)
#
#
# Indices 1 2 3 4 5 6 
#
# 1 0.021733 0.000366 -0.005328 0.000000 0.000000 0.000000
# 2 0.000366 0.021733 -0.005328 0.000000 0.000000 0.000000
# 3 -0.005328 -0.005328 0.007464 0.000000 0.000000 0.000000
# 4 0.000000 0.000000 0.000000 0.038105 0.000000 0.000000
# 5 0.000000 0.000000 0.000000 0.000000 0.038105 0.000000
# 6 0.000000 0.000000 0.000000 0.000000 0.000000 0.053872
#
#
# Mechanical properties :
#
#
# Convention : Reuss Voigt Hill
#
# Bulk Modulus (GPa) = 32.94823 59.92003 46.43413
# Shear Modulus (GPa) = 23.61714 28.24158 25.92936
#
# Velocity S-wave (km/s) = 2.99391 3.27393 3.13705
# Velocity P-wave (km/s) = 4.94533 6.08548 5.54479
#
# Compressibility (1/GPa) = 0.03035064
#
# Stress axis : x y z
#
# Youngs Moduli (GPa) = 46.01255 46.01255 133.97026
#
# Poissons Ratio (x) = -0.01684 0.71379
# Poissons Ratio (y) = -0.01684 0.71379
# Poissons Ratio (z) = 0.24515 0.24515
#
# Static dielectric constant tensor:
#      x y z
#    x 2.203590 0.000000 0.000000 
#    y 0.000000 2.203590 0.000000 
#    z 0.000000 0.000000 2.431240 
# 
# From -- ./inp_files/5172.got.cif
#   From: 2010.05.17/outbox.cif.g08.bks.cpg/sg142_3_cif.got.tgz:5172.got - 2010.05.20 13:39:18.
