data_PCOD9574460
_publ_section_title
;
Structure prediction by ZEFSAII (Michael W. Deem and Ramdas Pophale) SiO2 
 PCOD9574460
Probable space group: P 31
;
_chemical_formula_sum "Si O2"
_cell_formula_units_Z 24
_cell_length_a 13.458309
_cell_length_b 13.458309
_cell_length_c 6.635052
_cell_angle_alpha 90.000000
_cell_angle_beta 90.000000
_cell_angle_gamma 120.000000
_cell_volume 1040.772847
_symmetry_space_group_name_H-M "P 31"
_symmetry_group_IT_number 144
_symmetry_cell_setting 'hexagonal'
loop_
_space_group_symop_operation_xyz
x,y,z
-y,x-y,1/3+z
-x+y,-x,2/3+z
loop_
_atom_site_type_symbol
_atom_site_label
_atom_site_fract_x
_atom_site_fract_y
_atom_site_fract_z
Si Si1 0.403094 0.453145 0.150260
Si Si2 0.434526 0.551215 0.758803
Si Si3 0.256993 0.253487 0.907923
Si Si4 0.045708 0.261881 0.744099
Si Si5 0.792758 0.602754 0.291834
Si Si6 0.546432 0.104607 0.830150
Si Si7 0.205631 0.772507 0.125949
Si Si8 0.951124 0.898102 0.812184
O O1 0.504987 0.475871 0.294989
O O2 0.290527 0.401396 0.288920
O O3 0.427349 0.556847 0.002106
O O4 0.374946 0.360959 0.977191
O O5 0.522538 0.512288 0.673939
O O6 0.315521 0.472059 0.645329
O O7 0.472087 0.678878 0.689296
O O8 0.152702 0.280919 0.885418
O O9 0.294245 0.207172 0.715626
O O10 0.218112 0.165342 0.090545
O O11 0.104890 0.344577 0.553051
O O12 0.011403 0.139718 0.651025
O O13 0.931577 0.256355 0.834922
O O14 0.825425 0.511576 0.190269
O O15 0.694840 0.523794 0.456569
O O16 0.924992 0.935808 0.597172
#
# Coordination Sequence:
#
# PCOD9574460 Si02
#       8
#     3   3   3   3   3   3   3   3
#     4  11  23  47  73  98 149 187 251 313 374 465
#     4  11  25  46  71 107 145 188 251 305 387 458
#     4  12  23  44  72 104 145 197 242 318 387 455
#     4  12  24  45  71 111 146 190 255 310 392 460
#     4  12  27  50  78 108 156 204 271 324 388 484
#     4  11  27  51  72 110 147 206 260 319 388 456
#     4  11  26  42  72 105 140 189 240 312 379 456
#     4  12  23  39  63 103 148 189 238 293 377 472
#
# _framework density 23.059785999999999
#
# number of rings (size 3 to 8) (size 9 to 14) (size 15 to 20)
#    0.000    0.500    3.750    4.500    5.250    2.000 
#    4.500    0.000    0.000    0.000    0.000    0.000 
#    0.000    0.000    0.000    0.000    0.000    0.000 
#
# Total GULP energy -133722.844382 kJ/mol
# GULP energy per Si atom -5571.785183 kJ/mol
# Density = 2.300730 g / cm^3
# Si number density = 23.059786 Si / 1000 Ang^3
#
#
#
# Elastic Constant Matrix: (Units=GPa)
#
#
# Indices 1 2 3 4 5 6 
#
# 1 78.4602 25.4059 22.5039 -5.7598 4.1746 0.0000
# 2 25.4059 78.4602 22.5039 5.7598 -4.1746 0.0000
# 3 22.5039 22.5039 79.2982 0.0000 0.0000 0.0000
# 4 -5.7598 5.7598 0.0000 25.4537 0.0000 -4.1746
# 5 4.1746 -4.1746 0.0000 0.0000 25.4537 -5.7598
# 6 0.0000 0.0000 0.0000 -4.1746 -5.7598 26.5271
#
#
#
# Elastic Compliance Matrix: (Units=1/GPa)
#
#
# Indices 1 2 3 4 5 6 
#
# 1 0.015677 -0.004699 -0.003115 0.004611 -0.003342 0.000000
# 2 -0.004699 0.015677 -0.003115 -0.004611 0.003342 0.000000
# 3 -0.003115 -0.003115 0.014379 0.000000 0.000000 0.000000
# 4 0.004611 -0.004611 0.000000 0.042470 0.000000 0.006683
# 5 -0.003342 0.003342 0.000000 0.000000 0.042470 0.009221
# 6 0.000000 0.000000 0.000000 0.006683 0.009221 0.040751
#
#
# Mechanical properties :
#
#
# Convention : Reuss Voigt Hill
#
# Bulk Modulus (GPa) = 41.88853 41.89402 41.89128
# Shear Modulus (GPa) = 24.84598 26.54058 25.69328
#
# Velocity S-wave (km/s) = 3.28603 3.39624 3.34159
# Velocity P-wave (km/s) = 5.70981 5.79537 5.75275
#
# Compressibility (1/GPa) = 0.02387288
#
# Stress axis : x y z
#
# Youngs Moduli (GPa) = 63.78902 63.78902 69.54666
#
# Poissons Ratio (x) = 0.29974 0.21666
# Poissons Ratio (y) = 0.29974 0.21666
# Poissons Ratio (z) = 0.19873 0.19873
#
# Static dielectric constant tensor:
#      x y z
#    x 2.081310 0.000000 0.000000 
#    y 0.000000 2.081310 0.000000 
#    z 0.000000 0.000000 1.856670 
# 
# From -- ./inp_files/154.got.cif
#   From: 2010.05.17/outbox.cif.g08.bks.cpg/sg144_cif.got.tgz:154.got - 2010.05.20 13:46:34.
