data_PCOD9574484
_publ_section_title
;
Structure prediction by ZEFSAII (Michael W. Deem and Ramdas Pophale) SiO2 
 PCOD9574484
Probable space group: P 31
;
_chemical_formula_sum "Si O2"
_cell_formula_units_Z 18
_cell_length_a 11.539324
_cell_length_b 11.539324
_cell_length_c 6.002751
_cell_angle_alpha 90.000000
_cell_angle_beta 90.000000
_cell_angle_gamma 120.000000
_cell_volume 692.216099
_symmetry_space_group_name_H-M "P 31"
_symmetry_group_IT_number 144
_symmetry_cell_setting 'hexagonal'
loop_
_space_group_symop_operation_xyz
x,y,z
-y,x-y,1/3+z
-x+y,-x,2/3+z
loop_
_atom_site_type_symbol
_atom_site_label
_atom_site_fract_x
_atom_site_fract_y
_atom_site_fract_z
Si Si1 0.085602 0.378801 0.166980
Si Si2 0.023427 0.813480 0.598756
Si Si3 0.627040 0.104838 0.167414
Si Si4 0.704566 0.549337 0.184744
Si Si5 0.407762 0.792237 0.121299
Si Si6 0.181748 0.011215 0.238453
O O1 0.198385 0.520623 0.250744
O O2 0.038018 0.284218 0.383152
O O3 0.160777 0.326914 0.009439
O O4 0.959264 0.371763 0.040693
O O5 0.909564 0.658970 0.598004
O O6 0.970700 0.872672 0.786456
O O7 0.060208 0.886588 0.362835
O O8 0.553071 0.152710 0.338798
O O9 0.524536 0.947626 0.120640
O O10 0.698904 0.204250 0.960841
O O11 0.797513 0.694653 0.069816
O O12 0.319336 0.756500 0.347177
#
# Coordination Sequence:
#
# PCOD9574484 Si02
#       6
#     3   3   3   3   3   3
#     4  11  25  49  77 124 165 212 277 354 431 523
#     4  11  27  47  82 113 169 213 273 351 432 516
#     4  12  27  56  85 122 168 229 284 357 432 521
#     4  11  28  54  83 121 166 222 290 346 435 520
#     4  12  28  48  84 126 162 221 285 363 434 500
#     4  11  25  52  75 126 160 217 279 345 432 516
#
# _framework density 26.003442
#
# number of rings (size 3 to 8) (size 9 to 14) (size 15 to 20)
#    0.000    0.667    3.333    2.000   11.667    1.333 
#    0.000   10.000    0.000    0.000    0.000    0.000 
#    0.000    0.000    0.000    0.000    0.000    0.000 
#
# Total GULP energy -100811.311822 kJ/mol
# GULP energy per Si atom -5600.628435 kJ/mol
# Density = 2.594426 g / cm^3
# Si number density = 26.003442 Si / 1000 Ang^3
#
#
#
# Elastic Constant Matrix: (Units=GPa)
#
#
# Indices 1 2 3 4 5 6 
#
# 1 121.4926 45.6323 59.4957 -2.8446 0.5126 0.0000
# 2 45.6323 121.4926 59.4957 2.8446 -0.5126 0.0000
# 3 59.4957 59.4957 120.4943 0.0000 0.0000 0.0000
# 4 -2.8446 2.8446 0.0000 68.6325 0.0000 -0.5126
# 5 0.5126 -0.5126 0.0000 0.0000 68.6325 -2.8446
# 6 0.0000 0.0000 0.0000 -0.5126 -2.8446 37.9302
#
#
#
# Elastic Compliance Matrix: (Units=1/GPa)
#
#
# Indices 1 2 3 4 5 6 
#
# 1 0.011226 -0.001999 -0.004556 0.000548 -0.000099 0.000000
# 2 -0.001999 0.011226 -0.004556 -0.000548 0.000099 0.000000
# 3 -0.004556 -0.004556 0.012799 0.000000 0.000000 0.000000
# 4 0.000548 -0.000548 0.000000 0.014617 0.000000 0.000198
# 5 -0.000099 0.000099 0.000000 0.000000 0.014617 0.001096
# 6 0.000000 0.000000 0.000000 0.000198 0.001096 0.026449
#
#
# Mechanical properties :
#
#
# Convention : Reuss Voigt Hill
#
# Bulk Modulus (GPa) = 76.75346 76.96965 76.86156
# Shear Modulus (GPa) = 42.55350 48.29610 45.42480
#
# Velocity S-wave (km/s) = 4.04970 4.31431 4.18410
# Velocity P-wave (km/s) = 7.17269 7.38118 7.27768
#
# Compressibility (1/GPa) = 0.01302873
#
# Stress axis : x y z
#
# Youngs Moduli (GPa) = 89.07848 89.07848 78.13389
#
# Poissons Ratio (x) = 0.17802 0.35600
# Poissons Ratio (y) = 0.17802 0.35600
# Poissons Ratio (z) = 0.40586 0.40586
#
# Static dielectric constant tensor:
#      x y z
#    x 2.137930 0.000000 0.000000 
#    y 0.000000 2.137930 0.000000 
#    z 0.000000 0.000000 2.065000 
# 
# From -- ./inp_files/96.got.cif
#   From: 2010.05.17/outbox.cif.g08.bks.cpg/sg144_cif.got.tgz:96.got - 2010.05.20 13:46:34.
