data_PCOD9574169
_publ_section_title
;
Structure prediction by ZEFSAII (Michael W. Deem and Ramdas Pophale) SiO2 
 PCOD9574169
Probable space group: I 41/A C D
;
_chemical_formula_sum "Si O2"
_cell_formula_units_Z 96
_cell_length_a 15.781606
_cell_length_b 15.781606
_cell_length_c 14.528900
_cell_angle_alpha 90.000000
_cell_angle_beta 90.000000
_cell_angle_gamma 90.000000
_cell_volume 3618.554583
_symmetry_space_group_name_H-M "I 41/A C D"
_symmetry_group_IT_number 142
_space_group.IT_coordinate_system_code '2'
_symmetry_cell_setting 'tetragonal'
loop_
_space_group_symop_operation_xyz
x,y,z
1/4-y,3/4+x,1/4+z
-x,1/2-y,z
1/4+y,1/4-x,3/4+z
x,-y,1/2-z
1/2-x,y,-z
3/4+y,1/4+x,1/4-z
1/4-y,1/4-x,1/4-z
-x,-y,-z
3/4+y,1/4-x,3/4-z
x,1/2+y,-z
3/4-y,3/4+x,1/4-z
-x,y,1/2+z
1/2+x,-y,z
1/4-y,3/4-x,3/4+z
3/4+y,3/4+x,3/4+z
1/2+x,1/2+y,1/2+z
3/4-y,1/4+x,3/4+z
1/2-x,-y,1/2+z
3/4+y,3/4-x,1/4+z
1/2+x,1/2-y,-z
-x,1/2+y,1/2-z
1/4+y,3/4+x,3/4-z
3/4-y,3/4-x,3/4-z
1/2-x,1/2-y,1/2-z
1/4+y,3/4-x,1/4-z
1/2+x,y,1/2-z
1/4-y,1/4+x,3/4-z
1/2-x,1/2+y,z
x,1/2-y,1/2+z
3/4-y,1/4-x,1/4+z
1/4+y,1/4+x,1/4+z
loop_
_atom_site_type_symbol
_atom_site_label
_atom_site_fract_x
_atom_site_fract_y
_atom_site_fract_z
Si Si1 0.357243 0.796839 0.748041
Si Si2 0.338820 0.741977 0.460060
Si Si3 0.128604 0.439615 0.036714
O O1 0.448563 0.839175 0.745942
O O2 0.348126 0.754593 0.849805
O O3 0.281656 0.865828 0.742473
O O4 0.336927 0.717689 0.682414
O O5 0.250000 0.773408 0.500000
O O6 0.344187 0.641853 0.479278
O O7 0.189181 0.439181 0.125000
#
# Coordination Sequence:
#
# PCOD9574169 Si02
#       3
#    32  32  32
#     4  11  25  44  68 104 138 184 237 289 352 425
#     4  12  24  44  70 101 142 188 230 289 360 416
#     4  11  24  45  70 100 138 181 235 290 350 420
#
# _framework density 26.529928999999999
#
# number of rings (size 3 to 8) (size 9 to 14) (size 15 to 20)
#    0.000    0.667    6.667    1.000    0.000    4.000 
#    0.000    0.000    0.000    0.000    0.000    0.000 
#    0.000    0.000    0.000    0.000    0.000    0.000 
#
# Total GULP energy -268674.235591 kJ/mol
# GULP energy per Si atom -5597.379908 kJ/mol
# Density = 2.646955 g / cm^3
# Si number density = 26.529929 Si / 1000 Ang^3
#
#
#
# Elastic Constant Matrix: (Units=GPa)
#
#
# Indices 1 2 3 4 5 6 
#
# 1 97.0393 50.9254 -2.3635 0.0000 0.0000 0.0000
# 2 50.9254 97.0393 -2.3635 0.0000 0.0000 0.0000
# 3 -2.3635 -2.3635 34.8290 0.0000 0.0000 0.0000
# 4 0.0000 0.0000 0.0000 31.7677 0.0000 0.0000
# 5 0.0000 0.0000 0.0000 0.0000 31.7677 0.0000
# 6 0.0000 0.0000 0.0000 0.0000 0.0000 47.5883
#
#
#
# Elastic Compliance Matrix: (Units=1/GPa)
#
#
# Indices 1 2 3 4 5 6 
#
# 1 0.014229 -0.007456 0.000460 0.000000 0.000000 0.000000
# 2 -0.007456 0.014229 0.000460 0.000000 0.000000 0.000000
# 3 0.000460 0.000460 0.028774 0.000000 0.000000 0.000000
# 4 0.000000 0.000000 0.000000 0.031478 0.000000 0.000000
# 5 0.000000 0.000000 0.000000 0.000000 0.031478 0.000000
# 6 0.000000 0.000000 0.000000 0.000000 0.000000 0.021014
#
#
# Mechanical properties :
#
#
# Convention : Reuss Voigt Hill
#
# Bulk Modulus (GPa) = 22.64561 35.70049 29.17305
# Shear Modulus (GPa) = 29.58639 34.40536 31.99587
#
# Velocity S-wave (km/s) = 3.34310 3.60509 3.47656
# Velocity P-wave (km/s) = 4.84315 5.55111 5.20917
#
# Compressibility (1/GPa) = 0.04415867
#
# Stress axis : x y z
#
# Youngs Moduli (GPa) = 70.27775 70.27775 34.75347
#
# Poissons Ratio (x) = 0.52401 -0.01597
# Poissons Ratio (y) = 0.52401 -0.01597
# Poissons Ratio (z) = -0.03230 -0.03230
#
# Static dielectric constant tensor:
#      x y z
#    x 2.067390 0.000000 0.000000 
#    y 0.000000 2.067390 0.000000 
#    z 0.000000 0.000000 2.279320 
# 
# From -- ./inp_files/6571.got.cif
#   From: 2010.05.17/outbox.cif.g08.bks.cpg/sg142_4_cif.got.tgz:6571.got - 2010.05.20 13:39:18.
