data_PCOD9574794
_publ_section_title
;
Structure prediction by ZEFSAII (Michael W. Deem and Ramdas Pophale) SiO2 
 PCOD9574794
Probable space group: R 3
;
_chemical_formula_sum "Si O2"
_cell_formula_units_Z 42
_cell_length_a 13.978939
_cell_length_b 13.978939
_cell_length_c 10.312361
_cell_angle_alpha 90.000000
_cell_angle_beta 90.000000
_cell_angle_gamma 120.000000
_cell_volume 1745.167670
_symmetry_space_group_name_H-M "R 3"
_symmetry_group_IT_number 146
_symmetry_cell_setting 'hexagonal'
loop_
_space_group_symop_operation_xyz
x,y,z
-y,x-y,z
-x+y,-x,z
2/3+x,1/3+y,1/3+z
2/3-y,1/3+x-y,1/3+z
2/3-x+y,1/3-x,1/3+z
1/3+x,2/3+y,2/3+z
1/3-y,2/3+x-y,2/3+z
1/3-x+y,2/3-x,2/3+z
loop_
_atom_site_type_symbol
_atom_site_label
_atom_site_fract_x
_atom_site_fract_y
_atom_site_fract_z
Si Si1 0.661365 0.815893 0.718090
Si Si2 0.666668 0.333334 0.535449
Si Si3 0.779330 0.968691 0.212903
Si Si4 0.129652 0.998849 0.874244
Si Si5 0.875759 0.544950 0.842770
Si Si6 0.666667 0.333333 0.847832
O O1 0.611370 0.850683 0.839214
O O2 0.772343 0.816673 0.764134
O O3 0.290952 0.851760 0.649725
O O4 0.701086 0.913140 0.610695
O O5 0.742574 0.456931 0.491711
O O6 0.666668 0.333334 0.691289
O O7 0.660269 0.889839 0.158274
O O8 0.771869 0.947528 0.366335
O O9 0.998990 0.898157 0.872368
O O10 0.786228 0.424855 0.891514
#
# Coordination Sequence:
#
# PCOD9574794 Si02
#       6
#     9   3   9   9   9   3
#     4  12  26  50  80 122 162 228 282 352 440 510
#     4   9  24  45  66 106 152 196 258 340 413 493
#     4  11  24  45  75 110 154 206 268 340 419 506
#     4  10  28  52  82 118 168 224 280 362 428 512
#     4  11  24  45  75 110 154 206 268 340 419 506
#     4   9  24  45  66 106 152 196 258 340 413 493
#
# _framework density 24.066455999999999
#
# number of rings (size 3 to 8) (size 9 to 14) (size 15 to 20)
#    0.429    0.857    2.143    1.286    6.000    0.000 
#   15.429    0.000    0.000    0.000    0.000    0.000 
#    0.000    0.000    0.000    0.000    0.000    0.000 
#
# Total GULP energy -78059.954073 kJ/mol
# GULP energy per Si atom -5575.711005 kJ/mol
# Density = 2.401168 g / cm^3
# Si number density = 24.066456 Si / 1000 Ang^3
#
#
#
# Elastic Constant Matrix: (Units=GPa)
#
#
# Indices 1 2 3 4 5 6 
#
# 1 123.3986 67.6993 28.7339 -0.2064 -1.1831 -0.0008
# 2 67.6993 123.3996 28.7342 0.2064 1.1831 -0.0002
# 3 28.7339 28.7342 105.2678 -0.0002 0.0001 -0.0002
# 4 -0.2064 0.2064 -0.0002 30.6023 -0.0004 1.1829
# 5 -1.1831 1.1831 0.0001 -0.0004 30.6024 -0.2064
# 6 -0.0008 -0.0002 -0.0002 1.1829 -0.2064 27.8504
#
#
#
# Elastic Compliance Matrix: (Units=1/GPa)
#
#
# Indices 1 2 3 4 5 6 
#
# 1 0.011842 -0.006141 -0.001556 0.000121 0.000695 0.000000
# 2 -0.006141 0.011842 -0.001556 -0.000121 -0.000695 0.000000
# 3 -0.001556 -0.001556 0.010349 0.000000 0.000000 0.000000
# 4 0.000121 -0.000121 0.000000 0.032733 0.000000 -0.001390
# 5 0.000695 -0.000695 0.000000 0.000000 0.032733 0.000243
# 6 0.000000 0.000000 0.000000 -0.001390 0.000243 0.035967
#
#
# Mechanical properties :
#
#
# Convention : Reuss Voigt Hill
#
# Bulk Modulus (GPa) = 64.40657 66.93344 65.67001
# Shear Modulus (GPa) = 31.41711 32.93758 32.17734
#
# Velocity S-wave (km/s) = 3.61700 3.70349 3.66050
# Velocity P-wave (km/s) = 6.65309 6.79412 6.72397
#
# Compressibility (1/GPa) = 0.01552637
#
# Stress axis : x y z
#
# Youngs Moduli (GPa) = 84.44237 84.44304 96.62678
#
# Poissons Ratio (x) = 0.51861 0.15036
# Poissons Ratio (y) = 0.51860 0.15036
# Poissons Ratio (z) = 0.13140 0.13140
#
# Static dielectric constant tensor:
#      x y z
#    x 1.908500 0.000000 0.000000 
#    y 0.000000 1.908500 0.000000 
#    z 0.000000 0.000000 1.987100 
# 
# From -- ./inp_files/1110.got.cif
#   From: 2010.05.17/outbox.cif.g08.bks.cpg/sg146_cif.got.tgz:1110.got - 2010.05.20 13:48:23.
