data_PCOD9574335
_publ_section_title
;
Structure prediction by ZEFSAII (Michael W. Deem and Ramdas Pophale) SiO2 
 PCOD9574335
Probable space group: P 31
;
_chemical_formula_sum "Si O2"
_cell_formula_units_Z 18
_cell_length_a 6.848082
_cell_length_b 6.848082
_cell_length_c 16.980955
_cell_angle_alpha 90.000000
_cell_angle_beta 90.000000
_cell_angle_gamma 120.000000
_cell_volume 689.653027
_symmetry_space_group_name_H-M "P 31"
_symmetry_group_IT_number 144
_symmetry_cell_setting 'hexagonal'
loop_
_space_group_symop_operation_xyz
x,y,z
-y,x-y,1/3+z
-x+y,-x,2/3+z
loop_
_atom_site_type_symbol
_atom_site_label
_atom_site_fract_x
_atom_site_fract_y
_atom_site_fract_z
Si Si1 0.812869 0.414802 0.678890
Si Si2 0.076758 0.596426 0.392311
Si Si3 0.759426 0.976126 0.747598
Si Si4 0.306590 0.169185 0.861471
Si Si5 0.128248 0.303728 0.059686
Si Si6 0.860299 0.060174 0.925418
O O1 0.788200 0.175394 0.691930
O O2 0.804217 0.496381 0.590271
O O3 0.050697 0.606137 0.715709
O O4 0.615466 0.434034 0.722647
O O5 0.066147 0.714671 0.472808
O O6 0.221048 0.473069 0.395965
O O7 0.091983 0.738674 0.314570
O O8 0.964824 0.922704 0.737342
O O9 0.773435 0.054523 0.838096
O O10 0.072225 0.021959 0.908423
O O11 0.321557 0.994663 0.802435
O O12 0.995918 0.286356 0.978838
#
# Coordination Sequence:
#
# PCOD9574335 Si02
#       6
#     3   3   3   3   3   3
#     4  10  21  37  65  98 139 184 241 300 380 456
#     4  10  22  40  60  99 144 181 240 306 377 450
#     4  10  21  37  63 100 136 187 238 302 378 447
#     4   9  19  40  67  91 133 194 242 308 377 446
#     4   8  18  40  65  93 132 185 242 301 375 438
#     4   9  19  40  64  89 136 183 243 299 361 451
#
# _framework density 26.100083999999999
#
# number of rings (size 3 to 8) (size 9 to 14) (size 15 to 20)
#    0.000    2.667    0.000    0.000    4.667    0.000 
#    6.000    8.333    0.000    0.000    0.000    0.000 
#    0.000    0.000    0.000    0.000    0.000    0.000 
#
# Total GULP energy -100602.947622 kJ/mol
# GULP energy per Si atom -5589.052646 kJ/mol
# Density = 2.604068 g / cm^3
# Si number density = 26.100084 Si / 1000 Ang^3
#
#
#
# Elastic Constant Matrix: (Units=GPa)
#
#
# Indices 1 2 3 4 5 6 
#
# 1 147.5748 48.9017 49.2358 6.1512 -0.7875 0.0000
# 2 48.9017 147.5748 49.2358 -6.1512 0.7875 0.0000
# 3 49.2358 49.2358 160.0265 0.0000 0.0000 0.0000
# 4 6.1512 -6.1512 0.0000 31.0878 0.0000 0.7875
# 5 -0.7875 0.7875 0.0000 0.0000 31.0878 6.1512
# 6 0.0000 0.0000 0.0000 0.7875 6.1512 49.3366
#
#
#
# Elastic Compliance Matrix: (Units=1/GPa)
#
#
# Indices 1 2 3 4 5 6 
#
# 1 0.008206 -0.002189 -0.001851 -0.002057 0.000263 0.000000
# 2 -0.002189 0.008206 -0.001851 0.002057 -0.000263 0.000000
# 3 -0.001851 -0.001851 0.007388 0.000000 0.000000 0.000000
# 4 -0.002057 0.002057 0.000000 0.032994 0.000000 -0.000527
# 5 0.000263 -0.000263 0.000000 0.000000 0.032994 -0.004114
# 6 0.000000 0.000000 0.000000 -0.000527 -0.004114 0.020790
#
#
# Mechanical properties :
#
#
# Convention : Reuss Voigt Hill
#
# Bulk Modulus (GPa) = 83.21104 83.32471 83.26788
# Shear Modulus (GPa) = 39.56672 42.82263 41.19467
#
# Velocity S-wave (km/s) = 3.89776 4.05496 3.97714
# Velocity P-wave (km/s) = 7.22547 7.34289 7.28442
#
# Compressibility (1/GPa) = 0.01201764
#
# Stress axis : x y z
#
# Youngs Moduli (GPa) = 121.85679 121.85679 135.35011
#
# Poissons Ratio (x) = 0.26672 0.25059
# Poissons Ratio (y) = 0.26672 0.25059
# Poissons Ratio (z) = 0.22561 0.22561
#
# Static dielectric constant tensor:
#      x y z
#    x 2.148140 0.000000 0.000000 
#    y 0.000000 2.148140 0.000000 
#    z 0.000000 0.000000 2.086740 
# 
# From -- ./inp_files/725.got.cif
#   From: 2010.05.17/outbox.cif.g08.bks.cpg/sg144_cif.got.tgz:725.got - 2010.05.20 13:46:34.
