data_PCOD9574406
_publ_section_title
;
Structure prediction by ZEFSAII (Michael W. Deem and Ramdas Pophale) SiO2 
 PCOD9574406
Probable space group: P 31
;
_chemical_formula_sum "Si O2"
_cell_formula_units_Z 18
_cell_length_a 11.391395
_cell_length_b 11.391395
_cell_length_c 6.069289
_cell_angle_alpha 90.000000
_cell_angle_beta 90.000000
_cell_angle_gamma 120.000000
_cell_volume 682.059516
_symmetry_space_group_name_H-M "P 31"
_symmetry_group_IT_number 144
_symmetry_cell_setting 'hexagonal'
loop_
_space_group_symop_operation_xyz
x,y,z
-y,x-y,1/3+z
-x+y,-x,2/3+z
loop_
_atom_site_type_symbol
_atom_site_label
_atom_site_fract_x
_atom_site_fract_y
_atom_site_fract_z
Si Si1 0.088893 0.381742 0.440850
Si Si2 0.697802 0.456727 0.223169
Si Si3 0.233293 0.087366 0.447694
Si Si4 0.767290 0.912669 0.430047
Si Si5 0.993586 0.548349 0.670153
Si Si6 0.364203 0.563691 0.365852
O O1 0.081300 0.318450 0.203808
O O2 0.052626 0.500170 0.471065
O O3 0.246214 0.444745 0.507867
O O4 0.994365 0.265236 0.605603
O O5 0.620842 0.391232 0.450680
O O6 0.804110 0.618776 0.225746
O O7 0.573522 0.417231 0.049910
O O8 0.175766 0.165238 0.304555
O O9 0.113880 0.973236 0.596596
O O10 0.674781 0.970585 0.325346
O O11 0.066512 0.541951 0.897785
O O12 0.422469 0.699059 0.501044
#
# Coordination Sequence:
#
# PCOD9574406 Si02
#       6
#     3   3   3   3   3   3
#     4  10  25  40  74 114 153 208 255 329 401 470
#     4  11  25  50  76 113 158 210 267 317 395 485
#     4  11  27  52  80 117 158 214 267 333 409 483
#     4  11  26  52  82 115 160 210 267 333 406 487
#     4  10  23  46  70 114 158 196 269 320 407 468
#     4  11  22  38  66 107 159 204 251 332 402 465
#
# _framework density 26.390658999999999
#
# number of rings (size 3 to 8) (size 9 to 14) (size 15 to 20)
#    0.000    1.333    3.333    0.000   11.667    5.333 
#    3.000    0.000    0.000    0.000    0.000    0.000 
#    0.000    0.000    0.000    0.000    0.000    0.000 
#
# Total GULP energy -100671.330209 kJ/mol
# GULP energy per Si atom -5592.851678 kJ/mol
# Density = 2.633059 g / cm^3
# Si number density = 26.390659 Si / 1000 Ang^3
#
#
#
# Elastic Constant Matrix: (Units=GPa)
#
#
# Indices 1 2 3 4 5 6 
#
# 1 119.2864 53.0868 49.9855 12.4863 2.9081 0.0000
# 2 53.0868 119.2864 49.9855 -12.4863 -2.9081 0.0000
# 3 49.9855 49.9855 43.3244 0.0000 0.0000 0.0000
# 4 12.4863 -12.4863 0.0000 58.5856 0.0000 -2.9081
# 5 2.9081 -2.9081 0.0000 0.0000 58.5856 12.4863
# 6 0.0000 0.0000 0.0000 -2.9081 12.4863 33.0998
#
#
#
# Elastic Compliance Matrix: (Units=1/GPa)
#
#
# Indices 1 2 3 4 5 6 
#
# 1 0.017019 0.000515 -0.020230 -0.003518 -0.000819 0.000000
# 2 0.000515 0.017019 -0.020230 0.003518 0.000819 0.000000
# 3 -0.020230 -0.020230 0.069762 0.000000 0.000000 0.000000
# 4 -0.003518 0.003518 0.000000 0.018650 0.000000 0.001639
# 5 -0.000819 0.000819 0.000000 0.000000 0.018650 -0.007035
# 6 0.000000 0.000000 0.000000 0.001639 -0.007035 0.033010
#
#
# Mechanical properties :
#
#
# Convention : Reuss Voigt Hill
#
# Bulk Modulus (GPa) = 41.82241 65.33474 53.57857
# Shear Modulus (GPa) = 19.08612 38.64349 28.86480
#
# Velocity S-wave (km/s) = 2.69218 3.83075 3.31078
# Velocity P-wave (km/s) = 5.05427 6.66159 5.91280
#
# Compressibility (1/GPa) = 0.02391063
#
# Stress axis : x y z
#
# Youngs Moduli (GPa) = 58.75644 58.75644 14.33445
#
# Poissons Ratio (x) = -0.03024 0.28998
# Poissons Ratio (y) = -0.03024 0.28998
# Poissons Ratio (z) = 1.18863 1.18863
#
# Static dielectric constant tensor:
#      x y z
#    x 2.108980 0.000000 0.000000 
#    y 0.000000 2.108980 0.000000 
#    z 0.000000 0.000000 2.096040 
# 
# From -- ./inp_files/104.got.cif
#   From: 2010.05.17/outbox.cif.g08.bks.cpg/sg144_cif.got.tgz:104.got - 2010.05.20 13:46:34.
