data_PCOD9574842
_publ_section_title
;
Structure prediction by ZEFSAII (Michael W. Deem and Ramdas Pophale) SiO2 
 PCOD9574842
Probable space group: R 3
;
_chemical_formula_sum "Si O2"
_cell_formula_units_Z 18
_cell_length_a 8.026686
_cell_length_b 8.026686
_cell_length_c 10.248496
_cell_angle_alpha 90.000000
_cell_angle_beta 90.000000
_cell_angle_gamma 120.000000
_cell_volume 571.825233
_symmetry_space_group_name_H-M "R 3"
_symmetry_group_IT_number 146
_symmetry_cell_setting 'hexagonal'
loop_
_space_group_symop_operation_xyz
x,y,z
-y,x-y,z
-x+y,-x,z
2/3+x,1/3+y,1/3+z
2/3-y,1/3+x-y,1/3+z
2/3-x+y,1/3-x,1/3+z
1/3+x,2/3+y,2/3+z
1/3-y,2/3+x-y,2/3+z
1/3-x+y,2/3-x,2/3+z
loop_
_atom_site_type_symbol
_atom_site_label
_atom_site_fract_x
_atom_site_fract_y
_atom_site_fract_z
Si Si1 0.675973 0.967933 0.841720
Si Si2 0.032066 0.324026 0.341720
O O1 0.719377 0.858220 0.723024
O O2 0.475112 0.947290 0.889690
O O3 0.710573 0.854723 0.962163
O O4 0.810814 0.188055 0.795496
#
# Coordination Sequence:
#
# PCOD9574842 Si02
#       2
#     9   9
#     4  12  28  50  76 110 148 194 244 302 364 434
#     4  12  28  50  76 110 148 194 244 302 364 434
#
# _framework density 31.478152000000001
#
# number of rings (size 3 to 8) (size 9 to 14) (size 15 to 20)
#    0.000    0.000    0.000    8.000    0.000    8.000 
#    0.000    0.000    0.000    0.000    0.000    0.000 
#    0.000    0.000    0.000    0.000    0.000    0.000 
#
# Total GULP energy -33450.172261 kJ/mol
# GULP energy per Si atom -5575.028710 kJ/mol
# Density = 3.140651 g / cm^3
# Si number density = 31.478152 Si / 1000 Ang^3
#
#
#
# Elastic Constant Matrix: (Units=GPa)
#
#
# Indices 1 2 3 4 5 6 
#
# 1 196.5236 -1.4914 56.2152 -2.6620 -0.0002 0.0000
# 2 -1.4914 196.5236 56.2152 2.6620 0.0002 0.0000
# 3 56.2152 56.2152 308.8274 0.0000 0.0000 0.0000
# 4 -2.6620 2.6620 0.0000 39.7420 0.0000 0.0002
# 5 -0.0002 0.0002 0.0000 0.0000 39.7420 -2.6620
# 6 0.0000 0.0000 0.0000 0.0002 -2.6620 99.0075
#
#
#
# Elastic Compliance Matrix: (Units=1/GPa)
#
#
# Indices 1 2 3 4 5 6 
#
# 1 0.005394 0.000335 -0.001043 0.000339 0.000000 0.000000
# 2 0.000335 0.005394 -0.001043 -0.000339 0.000000 0.000000
# 3 -0.001043 -0.001043 0.003618 0.000000 0.000000 0.000000
# 4 0.000339 -0.000339 0.000000 0.025208 0.000000 0.000000
# 5 0.000000 0.000000 0.000000 0.000000 0.025208 0.000678
# 6 0.000000 0.000000 0.000000 0.000000 0.000678 0.010118
#
#
# Mechanical properties :
#
#
# Convention : Reuss Voigt Hill
#
# Bulk Modulus (GPa) = 91.71248 102.63920 97.17584
# Shear Modulus (GPa) = 60.91951 75.09400 68.00675
#
# Velocity S-wave (km/s) = 4.40397 4.88955 4.65310
# Velocity P-wave (km/s) = 7.42014 8.03456 7.73346
#
# Compressibility (1/GPa) = 0.01090364
#
# Stress axis : x y z
#
# Youngs Moduli (GPa) = 185.39629 185.39629 276.42096
#
# Poissons Ratio (x) = -0.06204 0.28824
# Poissons Ratio (y) = -0.06204 0.28824
# Poissons Ratio (z) = 0.19332 0.19332
#
# Static dielectric constant tensor:
#      x y z
#    x 2.460520 0.000000 0.000000 
#    y 0.000000 2.460520 0.000000 
#    z 0.000000 0.000000 3.102180 
# 
# From -- ./inp_files/961.got.cif
#   From: 2010.05.17/outbox.cif.g08.bks.cpg/sg146_cif.got.tgz:961.got - 2010.05.20 13:48:23.
