data_PCOD9574102
_publ_section_title
;
Structure prediction by ZEFSAII (Michael W. Deem and Ramdas Pophale) SiO2 
 PCOD9574102
Probable space group: I 41/A C D
;
_chemical_formula_sum "Si O2"
_cell_formula_units_Z 160
_cell_length_a 29.084744
_cell_length_b 29.084744
_cell_length_c 9.043917
_cell_angle_alpha 90.000000
_cell_angle_beta 90.000000
_cell_angle_gamma 90.000000
_cell_volume 7650.451373
_symmetry_space_group_name_H-M "I 41/A C D"
_symmetry_group_IT_number 142
_space_group.IT_coordinate_system_code '2'
_symmetry_cell_setting 'tetragonal'
loop_
_space_group_symop_operation_xyz
x,y,z
1/4-y,3/4+x,1/4+z
-x,1/2-y,z
1/4+y,1/4-x,3/4+z
x,-y,1/2-z
1/2-x,y,-z
3/4+y,1/4+x,1/4-z
1/4-y,1/4-x,1/4-z
-x,-y,-z
3/4+y,1/4-x,3/4-z
x,1/2+y,-z
3/4-y,3/4+x,1/4-z
-x,y,1/2+z
1/2+x,-y,z
1/4-y,3/4-x,3/4+z
3/4+y,3/4+x,3/4+z
1/2+x,1/2+y,1/2+z
3/4-y,1/4+x,3/4+z
1/2-x,-y,1/2+z
3/4+y,3/4-x,1/4+z
1/2+x,1/2-y,-z
-x,1/2+y,1/2-z
1/4+y,3/4+x,3/4-z
3/4-y,3/4-x,3/4-z
1/2-x,1/2-y,1/2-z
1/4+y,3/4-x,1/4-z
1/2+x,y,1/2-z
1/4-y,1/4+x,3/4-z
1/2-x,1/2+y,z
x,1/2-y,1/2+z
3/4-y,1/4-x,1/4+z
1/4+y,1/4+x,1/4+z
loop_
_atom_site_type_symbol
_atom_site_label
_atom_site_fract_x
_atom_site_fract_y
_atom_site_fract_z
Si Si1 0.554858 0.000000 0.750000
Si Si2 0.810208 0.225672 0.593054
Si Si3 0.006119 0.120161 0.404676
Si Si4 0.103661 0.842026 0.046315
Si Si5 0.808593 0.636928 0.225081
Si Si6 0.209880 0.040121 0.125000
O O1 0.519167 0.973535 0.642965
O O2 0.588460 0.966182 0.836814
O O3 0.855745 0.237159 0.686737
O O4 0.823408 0.226575 0.422246
O O5 0.798870 0.174957 0.647941
O O6 0.050604 0.151170 0.411946
O O7 0.961969 0.136646 0.314542
O O8 0.138657 0.866044 0.163717
O O9 0.108649 0.858649 0.875000
O O10 0.790621 0.588372 0.283764
O O11 0.212596 0.000000 0.250000
#
# Coordination Sequence:
#
# PCOD9574102 Si02
#       6
#    16  32  32  32  32  16
#     4  12  22  40  74 110 140 174 222 298 374 426
#     4  11  22  41  65 108 139 168 222 292 360 421
#     4  11  22  39  63  93 136 184 228 274 343 417
#     4  11  22  43  65  99 142 185 230 286 350 420
#     4  11  26  44  74 106 136 186 233 295 363 424
#     4  12  32  56  76 106 142 199 252 300 348 427
#
# _framework density 20.913798
#
# number of rings (size 3 to 8) (size 9 to 14) (size 15 to 20)
#    0.000    0.800    6.000    1.800    2.800    6.000 
#    0.000    1.000    0.000    0.000    0.000    0.000 
#    0.000    0.000    0.000    0.000    0.000    0.000 
#
# Total GULP energy -445932.562390 kJ/mol
# GULP energy per Si atom -5574.157030 kJ/mol
# Density = 2.086620 g / cm^3
# Si number density = 20.913798 Si / 1000 Ang^3
#
#
#
# Elastic Constant Matrix: (Units=GPa)
#
#
# Indices 1 2 3 4 5 6 
#
# 1 129.2888 43.3325 42.9571 0.0000 0.0000 0.0000
# 2 43.3325 129.2902 42.9569 0.0000 0.0000 0.0000
# 3 42.9571 42.9569 90.0500 0.0000 0.0000 0.0000
# 4 0.0000 0.0000 0.0000 33.5210 0.0000 0.0000
# 5 0.0000 0.0000 0.0000 0.0000 33.5208 0.0000
# 6 0.0000 0.0000 0.0000 0.0000 0.0000 24.0850
#
#
#
# Elastic Compliance Matrix: (Units=1/GPa)
#
#
# Indices 1 2 3 4 5 6 
#
# 1 0.009615 -0.002019 -0.003624 0.000000 0.000000 0.000000
# 2 -0.002019 0.009615 -0.003624 0.000000 0.000000 0.000000
# 3 -0.003624 -0.003624 0.014562 0.000000 0.000000 0.000000
# 4 0.000000 0.000000 0.000000 0.029832 0.000000 0.000000
# 5 0.000000 0.000000 0.000000 0.000000 0.029832 0.000000
# 6 0.000000 0.000000 0.000000 0.000000 0.000000 0.041520
#
#
# Mechanical properties :
#
#
# Convention : Reuss Voigt Hill
#
# Bulk Modulus (GPa) = 65.53010 67.45800 66.49405
# Shear Modulus (GPa) = 31.52668 32.85084 32.18876
#
# Velocity S-wave (km/s) = 3.88681 3.96760 3.92741
# Velocity P-wave (km/s) = 7.17945 7.30167 7.24082
#
# Compressibility (1/GPa) = 0.01526016
#
# Stress axis : x y z
#
# Youngs Moduli (GPa) = 104.00171 104.00325 68.67027
#
# Poissons Ratio (x) = 0.20994 0.24885
# Poissons Ratio (y) = 0.20993 0.24885
# Poissons Ratio (z) = 0.37689 0.37689
#
# Static dielectric constant tensor:
#      x y z
#    x 1.781130 0.000000 0.000000 
#    y 0.000000 1.781130 0.000000 
#    z 0.000000 0.000000 1.802210 
# 
# From -- ./inp_files/2212.got.cif
#   From: 2010.05.17/outbox.cif.g08.bks.cpg/sg142_2_cif.got.tgz:2212.got - 2010.05.20 13:39:18.
