data_PCOD9574007
_publ_section_title
;
Structure prediction by ZEFSAII (Michael W. Deem and Ramdas Pophale) SiO2 
 PCOD9574007
Probable space group: I 41/A C D
;
_chemical_formula_sum "Si O2"
_cell_formula_units_Z 72
_cell_length_a 19.709406
_cell_length_b 19.709406
_cell_length_c 8.396024
_cell_angle_alpha 90.000000
_cell_angle_beta 90.000000
_cell_angle_gamma 90.000000
_cell_volume 3261.525233
_symmetry_space_group_name_H-M "I 41/A C D"
_symmetry_group_IT_number 142
_space_group.IT_coordinate_system_code '2'
_symmetry_cell_setting 'tetragonal'
loop_
_space_group_symop_operation_xyz
x,y,z
1/4-y,3/4+x,1/4+z
-x,1/2-y,z
1/4+y,1/4-x,3/4+z
x,-y,1/2-z
1/2-x,y,-z
3/4+y,1/4+x,1/4-z
1/4-y,1/4-x,1/4-z
-x,-y,-z
3/4+y,1/4-x,3/4-z
x,1/2+y,-z
3/4-y,3/4+x,1/4-z
-x,y,1/2+z
1/2+x,-y,z
1/4-y,3/4-x,3/4+z
3/4+y,3/4+x,3/4+z
1/2+x,1/2+y,1/2+z
3/4-y,1/4+x,3/4+z
1/2-x,-y,1/2+z
3/4+y,3/4-x,1/4+z
1/2+x,1/2-y,-z
-x,1/2+y,1/2-z
1/4+y,3/4+x,3/4-z
3/4-y,3/4-x,3/4-z
1/2-x,1/2-y,1/2-z
1/4+y,3/4-x,1/4-z
1/2+x,y,1/2-z
1/4-y,1/4+x,3/4-z
1/2-x,1/2+y,z
x,1/2-y,1/2+z
3/4-y,1/4-x,1/4+z
1/4+y,1/4+x,1/4+z
loop_
_atom_site_type_symbol
_atom_site_label
_atom_site_fract_x
_atom_site_fract_y
_atom_site_fract_z
Si Si1 0.261864 0.824483 0.687752
Si Si2 0.500000 0.250000 0.125000
Si Si3 0.083110 0.666891 0.875000
Si Si4 0.809452 0.059452 0.125000
O O1 0.250000 0.832455 0.500000
O O2 0.250000 0.750000 0.750000
O O3 0.342760 0.833716 0.706382
O O4 0.208981 0.871888 0.782484
O O5 0.470160 0.310792 0.236032
O O6 0.802108 0.000000 0.250000
#
# Coordination Sequence:
#
# PCOD9574007 Si02
#       4
#    32   8  16  16
#     4  12  26  44  70 102 141 190 247 313 386 466
#     4  10  24  42  72 102 144 190 244 314 380 470
#     4  11  23  44  67 102 140 188 245 307 383 456
#     4  12  25  44  69  99 138 185 239 304 373 454
#
# _framework density 22.075562999999999
#
# number of rings (size 3 to 8) (size 9 to 14) (size 15 to 20)
#    0.000    0.444    0.000    9.333    0.000    7.111 
#    0.000    0.000    0.000    0.000    0.000    0.000 
#    0.000    0.000    0.000    0.000    0.000    0.000 
#
# Total GULP energy -200978.341349 kJ/mol
# GULP energy per Si atom -5582.731704 kJ/mol
# Density = 2.202532 g / cm^3
# Si number density = 22.075563 Si / 1000 Ang^3
#
#
#
# Elastic Constant Matrix: (Units=GPa)
#
#
# Indices 1 2 3 4 5 6 
#
# 1 274.5595 -50.6597 46.5381 0.0000 0.0000 0.0000
# 2 -50.6597 274.5591 46.5385 0.0000 0.0000 0.0000
# 3 46.5381 46.5385 138.1920 0.0000 0.0000 0.0000
# 4 0.0000 0.0000 0.0000 47.6281 0.0000 0.0000
# 5 0.0000 0.0000 0.0000 0.0000 47.6283 0.0000
# 6 0.0000 0.0000 0.0000 0.0000 0.0000 36.3112
#
#
#
# Elastic Compliance Matrix: (Units=1/GPa)
#
#
# Indices 1 2 3 4 5 6 
#
# 1 0.004134 0.001059 -0.001749 0.000000 0.000000 0.000000
# 2 0.001059 0.004134 -0.001749 0.000000 0.000000 0.000000
# 3 -0.001749 -0.001749 0.008414 0.000000 0.000000 0.000000
# 4 0.000000 0.000000 0.000000 0.020996 0.000000 0.000000
# 5 0.000000 0.000000 0.000000 0.000000 0.020996 0.000000
# 6 0.000000 0.000000 0.000000 0.000000 0.000000 0.027540
#
#
# Mechanical properties :
#
#
# Convention : Reuss Voigt Hill
#
# Bulk Modulus (GPa) = 84.70847 85.79381 85.25114
# Shear Modulus (GPa) = 52.61690 69.30641 60.96166
#
# Velocity S-wave (km/s) = 4.88740 5.60921 5.26070
# Velocity P-wave (km/s) = 8.38476 8.99439 8.69492
#
# Compressibility (1/GPa) = 0.01180520
#
# Stress axis : x y z
#
# Youngs Moduli (GPa) = 241.89141 241.89078 118.84568
#
# Poissons Ratio (x) = -0.25622 0.20785
# Poissons Ratio (y) = -0.25622 0.20785
# Poissons Ratio (z) = 0.42305 0.42305
#
# Static dielectric constant tensor:
#      x y z
#    x 1.813250 0.000000 0.000000 
#    y 0.000000 1.813260 0.000000 
#    z 0.000000 0.000000 1.773540 
# 
# From -- ./inp_files/1422.got.cif
#   From: 2010.05.17/outbox.cif.g08.bks.cpg/sg142_1_cif.got.tgz:1422.got - 2010.05.20 13:39:18.
