data_PCOD9574692
_publ_section_title
;
Structure prediction by ZEFSAII (Michael W. Deem and Ramdas Pophale) SiO2 
 PCOD9574692
Probable space group: R 3
;
_chemical_formula_sum "Si O2"
_cell_formula_units_Z 72
_cell_length_a 22.350534
_cell_length_b 22.350534
_cell_length_c 9.577843
_cell_angle_alpha 90.000000
_cell_angle_beta 90.000000
_cell_angle_gamma 120.000000
_cell_volume 4143.564972
_symmetry_space_group_name_H-M "R 3"
_symmetry_group_IT_number 146
_symmetry_cell_setting 'hexagonal'
loop_
_space_group_symop_operation_xyz
x,y,z
-y,x-y,z
-x+y,-x,z
2/3+x,1/3+y,1/3+z
2/3-y,1/3+x-y,1/3+z
2/3-x+y,1/3-x,1/3+z
1/3+x,2/3+y,2/3+z
1/3-y,2/3+x-y,2/3+z
1/3-x+y,2/3-x,2/3+z
loop_
_atom_site_type_symbol
_atom_site_label
_atom_site_fract_x
_atom_site_fract_y
_atom_site_fract_z
Si Si1 0.849883 0.752558 0.305600
Si Si2 0.380043 0.237896 0.956552
Si Si3 0.305234 0.042662 0.532974
Si Si4 0.671855 0.542699 0.398810
Si Si5 0.246635 0.884272 0.507448
Si Si6 0.810211 0.592995 0.248291
Si Si7 0.447764 0.348382 0.726212
Si Si8 0.726499 0.993358 0.083071
O O1 0.791677 0.740508 0.415985
O O2 0.845092 0.796469 0.177312
O O3 0.830363 0.674355 0.258033
O O4 0.922285 0.781405 0.385133
O O5 0.331634 0.164435 0.885731
O O6 0.430152 0.288563 0.837071
O O7 0.420876 0.226904 0.083688
O O8 0.328749 0.262202 0.026883
O O9 0.382869 0.077238 0.471424
O O10 0.303101 0.078957 0.674895
O O11 0.273562 0.962168 0.560530
O O12 0.629796 0.531229 0.256144
O O13 0.744000 0.550455 0.347346
O O14 0.872805 0.584039 0.304693
O O15 0.429305 0.330469 0.563172
O O16 0.394138 0.373377 0.771660
#
# Coordination Sequence:
#
# PCOD9574692 Si02
#       8
#     9   9   9   9   9   9   9   9
#     4  10  20  36  51  76 111 156 193 226 289 346
#     4  12  22  34  53  82 118 157 195 235 291 350
#     4  11  21  31  51  78 110 149 186 229 286 340
#     4  11  19  37  54  74 115 153 185 239 283 353
#     4  12  21  32  51  78 113 153 187 230 293 343
#     4  10  21  34  55  80 108 158 200 228 288 354
#     4  11  22  34  53  76 114 160 191 233 283 348
#     4  11  20  36  52  76 115 160 191 232 281 342
#
# _framework density 17.376342000000001
#
# number of rings (size 3 to 8) (size 9 to 14) (size 15 to 20)
#    0.000    1.000    7.500    1.500    5.250    0.000 
#    0.000    0.000    0.000    0.000    0.000    0.000 
#   22.500    0.000   10.250    0.000    0.000    0.000 
#
# Total GULP energy -133784.858924 kJ/mol
# GULP energy per Si atom -5574.369122 kJ/mol
# Density = 1.733679 g / cm^3
# Si number density = 17.376342 Si / 1000 Ang^3
#
#
#
# Elastic Constant Matrix: (Units=GPa)
#
#
# Indices 1 2 3 4 5 6 
#
# 1 43.5144 15.4095 13.0144 2.9784 7.1891 0.0000
# 2 15.4095 43.5141 13.0132 -2.9783 -7.1877 0.0000
# 3 13.0144 13.0132 98.1678 0.0012 0.0055 0.0008
# 4 2.9784 -2.9783 0.0012 20.8905 0.0008 -7.1878
# 5 7.1891 -7.1877 0.0055 0.0008 20.8939 2.9789
# 6 0.0000 0.0000 0.0008 -7.1878 2.9789 14.0525
#
#
#
# Elastic Compliance Matrix: (Units=1/GPa)
#
#
# Indices 1 2 3 4 5 6 
#
# 1 0.031425 -0.013399 -0.002389 -0.006390 -0.015421 0.000001
# 2 -0.013399 0.031425 -0.002390 0.006390 0.015421 0.000000
# 3 -0.002389 -0.002390 0.010820 -0.000001 -0.000003 0.000000
# 4 -0.006390 0.006390 -0.000001 0.060304 -0.000003 0.030846
# 5 -0.015421 0.015421 -0.000003 -0.000003 0.060295 -0.012783
# 6 0.000001 0.000000 0.000000 0.030846 -0.012783 0.089649
#
#
# Mechanical properties :
#
#
# Convention : Reuss Voigt Hill
#
# Bulk Modulus (GPa) = 26.79913 29.78561 28.29237
# Shear Modulus (GPa) = 15.02798 20.75133 17.88965
#
# Velocity S-wave (km/s) = 2.94403 3.45951 3.21213
# Velocity P-wave (km/s) = 5.19737 5.75641 5.48402
#
# Compressibility (1/GPa) = 0.03731464
#
# Stress axis : x y z
#
# Youngs Moduli (GPa) = 31.82144 31.82139 92.41943
#
# Poissons Ratio (x) = 0.42637 0.22080
# Poissons Ratio (y) = 0.42637 0.22092
# Poissons Ratio (z) = 0.07602 0.07607
#
# Static dielectric constant tensor:
#      x y z
#    x 1.606430 0.000000 0.000000 
#    y 0.000000 1.606430 0.000000 
#    z 0.000000 0.000000 1.627850 
# 
# From -- ./inp_files/928.got.cif
#   From: 2010.05.17/outbox.cif.g08.bks.cpg/sg146_cif.got.tgz:928.got - 2010.05.20 13:48:23.
