data_PCOD9574504
_publ_section_title
;
Structure prediction by ZEFSAII (Michael W. Deem and Ramdas Pophale) SiO2 
 PCOD9574504
Probable space group: P 31
;
_chemical_formula_sum "Si O2"
_cell_formula_units_Z 24
_cell_length_a 13.754815
_cell_length_b 13.754815
_cell_length_c 6.384322
_cell_angle_alpha 90.000000
_cell_angle_beta 90.000000
_cell_angle_gamma 120.000000
_cell_volume 1046.055969
_symmetry_space_group_name_H-M "P 31"
_symmetry_group_IT_number 144
_symmetry_cell_setting 'hexagonal'
loop_
_space_group_symop_operation_xyz
x,y,z
-y,x-y,1/3+z
-x+y,-x,2/3+z
loop_
_atom_site_type_symbol
_atom_site_label
_atom_site_fract_x
_atom_site_fract_y
_atom_site_fract_z
Si Si1 0.595106 0.950749 0.193870
Si Si2 0.951949 0.059528 0.011680
Si Si3 0.777928 0.562168 0.861375
Si Si4 0.529936 0.096829 0.479482
Si Si5 0.237039 0.613121 0.378244
Si Si6 0.744406 0.015319 0.812742
Si Si7 0.605148 0.804507 0.532595
Si Si8 0.944599 0.280398 0.141456
O O1 0.484528 0.882858 0.055906
O O2 0.625730 0.863732 0.305985
O O3 0.559974 0.007354 0.377502
O O4 0.692403 0.027349 0.031623
O O5 0.845536 0.992195 0.860116
O O6 0.060020 0.069825 0.893161
O O7 0.949385 0.175365 0.034919
O O8 0.805906 0.461384 0.870930
O O9 0.768485 0.609732 0.636956
O O10 0.658204 0.518865 0.964549
O O11 0.877154 0.660491 0.998469
O O12 0.435852 0.062686 0.660441
O O13 0.268538 0.589803 0.606585
O O14 0.245174 0.525323 0.227559
O O15 0.651505 0.905504 0.695664
O O16 0.658903 0.726755 0.576677
#
# Coordination Sequence:
#
# PCOD9574504 Si02
#       8
#     3   3   3   3   3   3   3   3
#     4  12  27  46  75 110 156 201 260 320 390 474
#     4  12  28  48  81 111 155 198 258 320 400 472
#     4  12  30  50  79 111 154 204 267 326 394 468
#     4  12  30  49  81 110 155 202 267 326 399 465
#     4  12  25  42  67 106 148 196 247 302 381 460
#     4  12  27  49  74 112 151 205 257 325 388 472
#     4  12  27  44  75 105 156 200 253 320 391 462
#     4  12  30  50  78 117 153 204 269 321 403 479
#
# _framework density 22.943321000000001
#
# number of rings (size 3 to 8) (size 9 to 14) (size 15 to 20)
#    0.000    0.000    5.000    3.000   14.000    2.000 
#    0.000    0.000    0.000    0.000    0.000    0.000 
#    0.000    0.000    0.000    0.000    0.000    0.000 
#
# Total GULP energy -134074.200788 kJ/mol
# GULP energy per Si atom -5586.425033 kJ/mol
# Density = 2.289110 g / cm^3
# Si number density = 22.943321 Si / 1000 Ang^3
#
#
#
# Elastic Constant Matrix: (Units=GPa)
#
#
# Indices 1 2 3 4 5 6 
#
# 1 105.4268 22.1912 35.7105 -5.1329 1.1516 0.0000
# 2 22.1912 105.4268 35.7105 5.1329 -1.1516 0.0000
# 3 35.7105 35.7105 87.3678 0.0000 0.0000 0.0000
# 4 -5.1329 5.1329 0.0000 45.3794 0.0000 -1.1516
# 5 1.1516 -1.1516 0.0000 0.0000 45.3794 -5.1329
# 6 0.0000 0.0000 0.0000 -1.1516 -5.1329 41.6178
#
#
#
# Elastic Compliance Matrix: (Units=1/GPa)
#
#
# Indices 1 2 3 4 5 6 
#
# 1 0.011176 -0.001016 -0.004153 0.001379 -0.000309 0.000000
# 2 -0.001016 0.011176 -0.004153 -0.001379 0.000309 0.000000
# 3 -0.004153 -0.004153 0.014841 0.000000 0.000000 0.000000
# 4 0.001379 -0.001379 0.000000 0.022364 0.000000 0.000619
# 5 -0.000309 0.000309 0.000000 0.000000 0.022364 0.002758
# 6 0.000000 0.000000 0.000000 0.000619 0.002758 0.024386
#
#
# Mechanical properties :
#
#
# Convention : Reuss Voigt Hill
#
# Bulk Modulus (GPa) = 53.90970 53.93841 53.92406
# Shear Modulus (GPa) = 38.12892 40.11594 39.12243
#
# Velocity S-wave (km/s) = 4.08103 4.18602 4.13386
# Velocity P-wave (km/s) = 6.76420 6.85012 6.80729
#
# Compressibility (1/GPa) = 0.01854954
#
# Stress axis : x y z
#
# Youngs Moduli (GPa) = 89.47459 89.47459 67.38257
#
# Poissons Ratio (x) = 0.09094 0.27982
# Poissons Ratio (y) = 0.09094 0.27982
# Poissons Ratio (z) = 0.37157 0.37157
#
# Static dielectric constant tensor:
#      x y z
#    x 1.883300 0.000000 0.000000 
#    y 0.000000 1.883300 0.000000 
#    z 0.000000 0.000000 1.876380 
# 
# From -- ./inp_files/143.got.cif
#   From: 2010.05.17/outbox.cif.g08.bks.cpg/sg144_cif.got.tgz:143.got - 2010.05.20 13:46:34.
