data_PCOD9574590
_publ_section_title
;
Structure prediction by ZEFSAII (Michael W. Deem and Ramdas Pophale) SiO2 
 PCOD9574590
Probable space group: P 32
;
_chemical_formula_sum "Si O2"
_cell_formula_units_Z 18
_cell_length_a 6.803591
_cell_length_b 6.803591
_cell_length_c 19.526711
_cell_angle_alpha 90.000000
_cell_angle_beta 90.000000
_cell_angle_gamma 120.000000
_cell_volume 782.773521
_symmetry_space_group_name_H-M "P 32"
_symmetry_group_IT_number 145
_symmetry_cell_setting 'hexagonal'
loop_
_space_group_symop_operation_xyz
x,y,z
-y,x-y,2/3+z
-x+y,-x,1/3+z
loop_
_atom_site_type_symbol
_atom_site_label
_atom_site_fract_x
_atom_site_fract_y
_atom_site_fract_z
Si Si1 0.206015 0.389697 0.242930
Si Si2 0.376360 0.083174 0.927154
Si Si3 0.734365 0.317642 0.037579
Si Si4 0.606635 0.992356 0.482322
Si Si5 0.907288 0.206810 0.803992
Si Si6 0.999003 0.951729 0.683861
O O1 0.457226 0.596813 0.261966
O O2 0.069841 0.269659 0.312460
O O3 0.053879 0.437759 0.190690
O O4 0.279379 0.231038 0.200273
O O5 0.370564 0.176153 0.852893
O O6 0.591767 0.278219 0.968765
O O7 0.152520 0.051528 0.963917
O O8 0.929906 0.548782 0.070738
O O9 0.533249 0.214560 0.095103
O O10 0.863112 0.177364 0.026122
O O11 0.599849 0.755289 0.492200
O O12 0.976236 0.058622 0.754691
#
# Coordination Sequence:
#
# PCOD9574590 Si02
#       6
#     3   3   3   3   3   3
#     4  11  23  42  64  97 130 168 220 265 321 385
#     4  10  23  44  65  95 133 168 215 272 320 384
#     4  10  23  44  65  95 133 168 215 272 320 384
#     4  12  24  40  70  96 124 180 216 264 328 386
#     4  11  23  42  64  97 130 168 220 265 321 385
#     4  10  22  46  64  90 138 172 208 270 324 376
#
# _framework density 22.995152999999998
#
# number of rings (size 3 to 8) (size 9 to 14) (size 15 to 20)
#    0.000    1.333    5.000    0.000    2.333    2.667 
#    9.000    0.000    0.000    0.000    0.000    0.000 
#    0.000    0.000    0.000    0.000    0.000    0.000 
#
# Total GULP energy -100330.270739 kJ/mol
# GULP energy per Si atom -5573.903930 kJ/mol
# Density = 2.294282 g / cm^3
# Si number density = 22.995153 Si / 1000 Ang^3
#
#
#
# Elastic Constant Matrix: (Units=GPa)
#
#
# Indices 1 2 3 4 5 6 
#
# 1 68.4876 16.5967 -0.2730 -4.2739 -0.8138 0.0000
# 2 16.5967 68.4876 -0.2730 4.2739 0.8138 0.0000
# 3 -0.2730 -0.2730 61.9595 0.0000 0.0000 0.0000
# 4 -4.2739 4.2739 0.0000 34.5530 0.0000 0.8138
# 5 -0.8138 0.8138 0.0000 0.0000 34.5530 -4.2739
# 6 0.0000 0.0000 0.0000 0.8138 -4.2739 25.9455
#
#
#
# Elastic Compliance Matrix: (Units=1/GPa)
#
#
# Indices 1 2 3 4 5 6 
#
# 1 0.015720 -0.003967 0.000052 0.002435 0.000464 0.000000
# 2 -0.003967 0.015720 0.000052 -0.002435 -0.000464 0.000000
# 3 0.000052 0.000052 0.016140 0.000000 0.000000 0.000000
# 4 0.002435 -0.002435 0.000000 0.029565 0.000000 -0.000927
# 5 0.000464 -0.000464 0.000000 0.000000 0.029565 0.004870
# 6 0.000000 0.000000 0.000000 -0.000927 0.004870 0.039374
#
#
# Mechanical properties :
#
#
# Convention : Reuss Voigt Hill
#
# Bulk Modulus (GPa) = 25.09159 25.67065 25.38112
# Shear Modulus (GPa) = 29.92301 31.20257 30.56279
#
# Velocity S-wave (km/s) = 3.61123 3.68763 3.64963
# Velocity P-wave (km/s) = 5.32197 5.41473 5.36855
#
# Compressibility (1/GPa) = 0.03985399
#
# Stress axis : x y z
#
# Youngs Moduli (GPa) = 63.61277 63.61277 61.95774
#
# Poissons Ratio (x) = 0.25233 -0.00321
# Poissons Ratio (y) = 0.25233 -0.00321
# Poissons Ratio (z) = -0.00329 -0.00329
#
# Static dielectric constant tensor:
#      x y z
#    x 1.902110 0.000000 0.000000 
#    y 0.000000 1.902110 0.000000 
#    z 0.000000 0.000000 1.848830 
# 
# From -- ./inp_files/988.got.cif
#   From: 2010.05.17/outbox.cif.g08.bks.cpg/sg145_cif.got.tgz:988.got - 2010.05.20 13:47:28.
