data_PCOD9574923
_publ_section_title
;
Structure prediction by ZEFSAII (Michael W. Deem and Ramdas Pophale) SiO2 
 PCOD9574923
Probable space group: P -3
;
_chemical_formula_sum "Si O2"
_cell_formula_units_Z 42
_cell_length_a 21.829815
_cell_length_b 21.829815
_cell_length_c 5.195193
_cell_angle_alpha 90.000000
_cell_angle_beta 90.000000
_cell_angle_gamma 120.000000
_cell_volume 2144.037753
_symmetry_space_group_name_H-M "P -3"
_symmetry_group_IT_number 147
_symmetry_cell_setting 'hexagonal'
loop_
_space_group_symop_operation_xyz
x,y,z
-y,x-y,z
-x+y,-x,z
-x,-y,-z
y,-x+y,-z
x-y,x,-z
loop_
_atom_site_type_symbol
_atom_site_label
_atom_site_fract_x
_atom_site_fract_y
_atom_site_fract_z
Si Si1 0.980215 0.786540 0.193797
Si Si2 0.755775 0.150824 0.730986
Si Si3 0.437200 0.135971 0.903152
Si Si4 0.863045 0.102787 0.670367
Si Si5 0.911000 0.391490 0.380124
Si Si6 0.610055 0.067586 0.488911
Si Si7 0.674623 0.015855 0.093079
O O1 0.931859 0.796307 0.401002
O O2 0.977825 0.713870 0.282690
O O3 0.059646 0.847050 0.223224
O O4 0.953506 0.777790 0.901022
O O5 0.793140 0.225625 0.879341
O O6 0.822652 0.147067 0.618104
O O7 0.688158 0.132593 0.553778
O O8 0.717400 0.081043 0.905813
O O9 0.454896 0.117787 0.620212
O O10 0.363408 0.066117 0.988682
O O11 0.487453 0.133797 0.125184
O O12 0.907805 0.460942 0.457839
O O13 0.995744 0.421104 0.335069
O O14 0.619685 0.033081 0.230414
#
# Coordination Sequence:
#
# PCOD9574923 Si02
#       7
#     6   6   6   6   6   6   6
#     4  11  22  39  58  91 123 162 204 254 316 379
#     4  11  22  36  62  92 126 166 200 257 314 376
#     4  11  23  39  59  92 129 158 206 254 308 368
#     4  11  23  38  62  88 127 164 203 261 319 367
#     4  10  24  39  62  88 129 160 204 255 301 373
#     4  10  21  39  62  90 123 164 203 248 316 368
#     4  10  21  36  59  91 128 157 201 244 314 377
#
# _framework density 19.589209
#
# number of rings (size 3 to 8) (size 9 to 14) (size 15 to 20)
#    0.000    1.429    4.286    0.857    4.000    1.714 
#    0.000    0.000    0.000    6.286    3.714    0.000 
#    0.000    0.000    0.000    0.000    0.000    0.000 
#
# Total GULP energy -233885.981325 kJ/mol
# GULP energy per Si atom -5568.713841 kJ/mol
# Density = 1.954462 g / cm^3
# Si number density = 19.589209 Si / 1000 Ang^3
#
#
#
# Elastic Constant Matrix: (Units=GPa)
#
#
# Indices 1 2 3 4 5 6 
#
# 1 72.9030 29.9776 15.3771 -4.5562 -3.8999 0.0000
# 2 29.9776 72.9030 15.3771 4.5562 3.8999 0.0000
# 3 15.3771 15.3771 49.8429 0.0000 0.0000 0.0000
# 4 -4.5562 4.5562 0.0000 20.1327 0.0000 3.8999
# 5 -3.8999 3.8999 0.0000 0.0000 20.1327 -4.5562
# 6 0.0000 0.0000 0.0000 3.8999 -4.5562 21.4627
#
#
#
# Elastic Compliance Matrix: (Units=1/GPa)
#
#
# Indices 1 2 3 4 5 6 
#
# 1 0.018059 -0.007352 -0.003303 0.005751 0.004922 0.000000
# 2 -0.007352 0.018059 -0.003303 -0.005751 -0.004922 0.000000
# 3 -0.003303 -0.003303 0.022101 0.000000 0.000000 0.000000
# 4 0.005751 -0.005751 0.000000 0.054180 0.000000 -0.009845
# 5 0.004922 -0.004922 0.000000 0.000000 0.054180 0.011502
# 6 0.000000 0.000000 0.000000 -0.009845 0.011502 0.050823
#
#
# Mechanical properties :
#
#
# Convention : Reuss Voigt Hill
#
# Bulk Modulus (GPa) = 33.00033 35.23474 34.11754
# Shear Modulus (GPa) = 19.57544 21.34010 20.45777
#
# Velocity S-wave (km/s) = 3.16460 3.30416 3.23513
# Velocity P-wave (km/s) = 5.49869 5.70811 5.60438
#
# Compressibility (1/GPa) = 0.03030272
#
# Stress axis : x y z
#
# Youngs Moduli (GPa) = 55.37265 55.37265 45.24624
#
# Poissons Ratio (x) = 0.40710 0.14947
# Poissons Ratio (y) = 0.40710 0.14947
# Poissons Ratio (z) = 0.18292 0.18292
#
# Static dielectric constant tensor:
#      x y z
#    x 1.716980 0.000000 0.000000 
#    y 0.000000 1.716980 0.000000 
#    z 0.000000 0.000000 1.797490 
# 
# From -- ./inp_files/247.got.cif
#   From: 2010.05.17/outbox.cif.g08.bks.cpg/sg147_cif.got.tgz:247.got - 2010.05.20 13:49:32.
