data_PCOD9574518
_publ_section_title
;
Structure prediction by ZEFSAII (Michael W. Deem and Ramdas Pophale) SiO2 
 PCOD9574518
Probable space group: P 31
;
_chemical_formula_sum "Si O2"
_cell_formula_units_Z 12
_cell_length_a 7.723412
_cell_length_b 7.723412
_cell_length_c 9.838856
_cell_angle_alpha 90.000000
_cell_angle_beta 90.000000
_cell_angle_gamma 120.000000
_cell_volume 508.269022
_symmetry_space_group_name_H-M "P 31"
_symmetry_group_IT_number 144
_symmetry_cell_setting 'hexagonal'
loop_
_space_group_symop_operation_xyz
x,y,z
-y,x-y,1/3+z
-x+y,-x,2/3+z
loop_
_atom_site_type_symbol
_atom_site_label
_atom_site_fract_x
_atom_site_fract_y
_atom_site_fract_z
Si Si1 0.564686 0.435314 0.240930
Si Si2 0.540148 0.459856 0.740929
Si Si3 0.109926 0.820094 0.083095
Si Si4 0.179906 0.890073 0.398764
O O1 0.504809 0.225979 0.171257
O O2 0.774020 0.495185 0.310603
O O3 0.398824 0.400423 0.350953
O O4 0.599579 0.601177 0.130907
O O5 0.624912 0.677634 0.674341
O O6 0.322369 0.375089 0.807515
O O7 0.169789 0.830212 0.240929
O O8 0.947084 0.894168 0.074263
#
# Coordination Sequence:
#
# PCOD9574518 Si02
#       4
#     3   3   3   3
#     4  12  26  50  82 118 164 218 278 346 418 492
#     4  12  26  48  76 114 164 204 276 350 400 498
#     4  12  27  51  79 121 160 222 283 335 427 497
#     4  12  27  51  79 121 160 222 283 335 427 497
#
# _framework density 23.609539999999999
#
# number of rings (size 3 to 8) (size 9 to 14) (size 15 to 20)
#    0.000    0.000    7.500    0.000    7.000    0.000 
#    4.500    0.000    0.000    0.000    0.000    0.000 
#    0.000    0.000    0.000    0.000    0.000    0.000 
#
# Total GULP energy -67140.520653 kJ/mol
# GULP energy per Si atom -5595.043388 kJ/mol
# Density = 2.355580 g / cm^3
# Si number density = 23.609540 Si / 1000 Ang^3
#
#
#
# Elastic Constant Matrix: (Units=GPa)
#
#
# Indices 1 2 3 4 5 6 
#
# 1 175.8692 102.9375 52.0159 -0.0005 -7.2401 0.0000
# 2 102.9375 175.8692 52.0159 0.0005 7.2401 0.0000
# 3 52.0159 52.0159 126.8480 0.0000 0.0000 0.0000
# 4 -0.0005 0.0005 0.0000 32.7425 0.0000 7.2401
# 5 -7.2401 7.2401 0.0000 0.0000 32.7425 -0.0005
# 6 0.0000 0.0000 0.0000 7.2401 -0.0005 36.4658
#
#
#
# Elastic Compliance Matrix: (Units=1/GPa)
#
#
# Indices 1 2 3 4 5 6 
#
# 1 0.009288 -0.005053 -0.001736 0.000000 0.003171 0.000000
# 2 -0.005053 0.009288 -0.001736 0.000000 -0.003171 0.000000
# 3 -0.001736 -0.001736 0.009308 0.000000 0.000000 0.000000
# 4 0.000000 0.000000 0.000000 0.031944 0.000000 -0.006342
# 5 0.003171 -0.003171 0.000000 0.000000 0.031944 0.000000
# 6 0.000000 0.000000 0.000000 -0.006342 0.000000 0.028682
#
#
# Mechanical properties :
#
#
# Convention : Reuss Voigt Hill
#
# Bulk Modulus (GPa) = 92.32784 99.16944 95.74864
# Shear Modulus (GPa) = 35.43195 38.49798 36.96497
#
# Velocity S-wave (km/s) = 3.87815 4.04246 3.96116
# Velocity P-wave (km/s) = 7.69704 7.99274 7.84628
#
# Compressibility (1/GPa) = 0.01083097
#
# Stress axis : x y z
#
# Youngs Moduli (GPa) = 107.66742 107.66742 107.43919
#
# Poissons Ratio (x) = 0.54407 0.18657
# Poissons Ratio (y) = 0.54407 0.18657
# Poissons Ratio (z) = 0.18696 0.18696
#
# Static dielectric constant tensor:
#      x y z
#    x 1.916620 0.000000 0.000000 
#    y 0.000000 1.916620 0.000000 
#    z 0.000000 0.000000 1.936520 
# 
# From -- ./inp_files/207.got.cif
#   From: 2010.05.17/outbox.cif.g08.bks.cpg/sg144_cif.got.tgz:207.got - 2010.05.20 13:46:34.
