data_PCOD9574315
_publ_section_title
;
Structure prediction by ZEFSAII (Michael W. Deem and Ramdas Pophale) SiO2 
 PCOD9574315
Probable space group: P 31
;
_chemical_formula_sum "Si O2"
_cell_formula_units_Z 24
_cell_length_a 10.710920
_cell_length_b 10.710920
_cell_length_c 12.944949
_cell_angle_alpha 90.000000
_cell_angle_beta 90.000000
_cell_angle_gamma 120.000000
_cell_volume 1286.128987
_symmetry_space_group_name_H-M "P 31"
_symmetry_group_IT_number 144
_symmetry_cell_setting 'hexagonal'
loop_
_space_group_symop_operation_xyz
x,y,z
-y,x-y,1/3+z
-x+y,-x,2/3+z
loop_
_atom_site_type_symbol
_atom_site_label
_atom_site_fract_x
_atom_site_fract_y
_atom_site_fract_z
Si Si1 0.332205 0.569074 0.563250
Si Si2 0.056645 0.205152 0.332541
Si Si3 0.499054 0.911350 0.529733
Si Si4 0.224956 0.192176 0.140824
Si Si5 0.501769 0.178514 0.201710
Si Si6 0.508896 0.590934 0.747773
Si Si7 0.835260 0.341677 0.774230
Si Si8 0.647049 0.005732 0.754110
O O1 0.406428 0.740266 0.542431
O O2 0.366885 0.548264 0.680821
O O3 0.171505 0.500217 0.517704
O O4 0.393426 0.483886 0.496915
O O5 0.104665 0.174508 0.222777
O O6 0.058355 0.357545 0.340511
O O7 0.188069 0.241165 0.410706
O O8 0.908369 0.075957 0.374700
O O9 0.573535 0.976856 0.640787
O O10 0.636402 0.954064 0.455252
O O11 0.429054 0.003693 0.488291
O O12 0.336374 0.146616 0.190970
O O13 0.595201 0.342130 0.165979
O O14 0.530743 0.156995 0.319017
O O15 0.522531 0.074061 0.123228
O O16 0.741191 0.170702 0.783632
#
# Coordination Sequence:
#
# PCOD9574315 Si02
#       8
#     3   3   3   3   3   3   3   3
#     4  11  20  38  60  84 121 152 205 248 311 369
#     4   9  16  34  56  75 107 147 192 223 294 357
#     4  10  20  37  57  84 112 159 195 242 309 362
#     4   9  16  34  56  75 107 147 192 223 294 357
#     4  10  22  35  59  86 112 159 197 251 303 374
#     4  10  22  35  59  86 112 159 197 251 303 374
#     4  11  20  38  60  84 121 152 205 248 311 369
#     4  10  20  37  57  84 112 159 195 242 309 362
#
# _framework density 18.660647999999998
#
# number of rings (size 3 to 8) (size 9 to 14) (size 15 to 20)
#    0.000    2.000    7.500    0.000    3.500    0.000 
#    0.000    1.250    0.000   12.000    0.000    0.000 
#    0.000    0.000    0.000    0.000    0.000    0.000 
#
# Total GULP energy -133624.174811 kJ/mol
# GULP energy per Si atom -5567.673950 kJ/mol
# Density = 1.861818 g / cm^3
# Si number density = 18.660648 Si / 1000 Ang^3
#
#
#
# Elastic Constant Matrix: (Units=GPa)
#
#
# Indices 1 2 3 4 5 6 
#
# 1 50.4647 7.5069 -7.0097 -8.5349 -2.1021 0.0000
# 2 7.5069 50.4647 -7.0097 8.5349 2.1021 0.0000
# 3 -7.0097 -7.0097 17.8677 0.0000 0.0000 0.0000
# 4 -8.5349 8.5349 0.0000 28.3403 0.0000 2.1021
# 5 -2.1021 2.1021 0.0000 0.0000 28.3403 -8.5349
# 6 0.0000 0.0000 0.0000 2.1021 -8.5349 21.4789
#
#
#
# Elastic Compliance Matrix: (Units=1/GPa)
#
#
# Indices 1 2 3 4 5 6 
#
# 1 0.022860 -0.003803 0.007477 0.008030 0.001978 0.000000
# 2 -0.003803 0.022860 0.007477 -0.008030 -0.001978 0.000000
# 3 0.007477 0.007477 0.061833 0.000000 0.000000 0.000000
# 4 0.008030 -0.008030 0.000000 0.040415 0.000000 -0.003955
# 5 0.001978 -0.001978 0.000000 0.000000 0.040415 0.016059
# 6 0.000000 0.000000 0.000000 -0.003955 0.016059 0.053326
#
#
# Mechanical properties :
#
#
# Convention : Reuss Voigt Hill
#
# Bulk Modulus (GPa) = 7.70089 11.75247 9.72668
# Shear Modulus (GPa) = 19.03355 23.98586 21.50970
#
# Velocity S-wave (km/s) = 3.19718 3.58910 3.39879
# Velocity P-wave (km/s) = 4.21486 4.84635 4.54160
#
# Compressibility (1/GPa) = 0.12985513
#
# Stress axis : x y z
#
# Youngs Moduli (GPa) = 43.74374 43.74374 16.17259
#
# Poissons Ratio (x) = 0.16634 -0.12092
# Poissons Ratio (y) = 0.16634 -0.12092
# Poissons Ratio (z) = -0.32705 -0.32705
#
# Static dielectric constant tensor:
#      x y z
#    x 1.675000 0.000000 0.000000 
#    y 0.000000 1.675000 0.000000 
#    z 0.000000 0.000000 1.663560 
# 
# From -- ./inp_files/675.got.cif
#   From: 2010.05.17/outbox.cif.g08.bks.cpg/sg144_cif.got.tgz:675.got - 2010.05.20 13:46:34.
