data_PCOD9574712
_publ_section_title
;
Structure prediction by ZEFSAII (Michael W. Deem and Ramdas Pophale) SiO2 
 PCOD9574712
Probable space group: R 3
;
_chemical_formula_sum "Si O2"
_cell_formula_units_Z 54
_cell_length_a 13.202557
_cell_length_b 13.202557
_cell_length_c 15.357645
_cell_angle_alpha 90.000000
_cell_angle_beta 90.000000
_cell_angle_gamma 120.000000
_cell_volume 2318.309199
_symmetry_space_group_name_H-M "R 3"
_symmetry_group_IT_number 146
_symmetry_cell_setting 'hexagonal'
loop_
_space_group_symop_operation_xyz
x,y,z
-y,x-y,z
-x+y,-x,z
2/3+x,1/3+y,1/3+z
2/3-y,1/3+x-y,1/3+z
2/3-x+y,1/3-x,1/3+z
1/3+x,2/3+y,2/3+z
1/3-y,2/3+x-y,2/3+z
1/3-x+y,2/3-x,2/3+z
loop_
_atom_site_type_symbol
_atom_site_label
_atom_site_fract_x
_atom_site_fract_y
_atom_site_fract_z
Si Si1 0.525260 0.236280 0.392220
Si Si2 0.033367 0.795650 0.657021
Si Si3 0.211355 0.812046 0.074809
Si Si4 0.005551 0.632818 0.504324
Si Si5 0.195167 0.039196 0.237951
Si Si6 0.303235 0.872378 0.253512
O O1 0.628090 0.210391 0.364166
O O2 0.393114 0.150231 0.367829
O O3 0.526303 0.231711 0.498115
O O4 0.033846 0.692690 0.599184
O O5 0.013022 0.774609 0.760025
O O6 0.923586 0.803704 0.620922
O O7 0.155236 0.909467 0.634392
O O8 0.310219 0.863734 0.148611
O O9 0.089089 0.732979 0.125052
O O10 0.248894 0.757652 0.996828
O O11 0.944237 0.494195 0.521709
O O12 0.248721 0.956703 0.263721
#
# Coordination Sequence:
#
# PCOD9574712 Si02
#       6
#     9   9   9   9   9   9
#     4   9  18  35  60  85 126 161 206 267 338 379
#     4  11  25  45  70  96 140 185 230 281 345 410
#     4  10  21  39  61  98 129 170 220 274 337 395
#     4  11  22  42  68  98 132 177 225 285 344 402
#     4  11  22  38  67  98 130 171 226 283 334 401
#     4  10  26  43  68  95 139 182 227 280 338 413
#
# _framework density 23.292836000000001
#
# number of rings (size 3 to 8) (size 9 to 14) (size 15 to 20)
#    0.333    1.333    3.333    0.333    7.000    0.000 
#    3.000    0.000    0.000    0.667    0.000    0.000 
#    0.000    0.000    0.000    0.000    0.000    0.000 
#
# Total GULP energy -100298.602443 kJ/mol
# GULP energy per Si atom -5572.144580 kJ/mol
# Density = 2.323982 g / cm^3
# Si number density = 23.292836 Si / 1000 Ang^3
#
#
#
# Elastic Constant Matrix: (Units=GPa)
#
#
# Indices 1 2 3 4 5 6 
#
# 1 63.5540 16.3396 -10.9289 3.4725 0.1868 0.0000
# 2 16.3396 63.5540 -10.9289 -3.4725 -0.1868 0.0000
# 3 -10.9289 -10.9289 61.8333 0.0000 0.0000 0.0000
# 4 3.4725 -3.4725 0.0000 29.7882 0.0000 -0.1868
# 5 0.1868 -0.1868 0.0000 0.0000 29.7882 3.4725
# 6 0.0000 0.0000 0.0000 -0.1868 3.4725 23.6072
#
#
#
# Elastic Compliance Matrix: (Units=1/GPa)
#
#
# Indices 1 2 3 4 5 6 
#
# 1 0.017352 -0.004199 0.002325 -0.002512 -0.000135 0.000000
# 2 -0.004199 0.017352 0.002325 0.002512 0.000135 0.000000
# 3 0.002325 0.002325 0.016994 0.000000 0.000000 0.000000
# 4 -0.002512 0.002512 0.000000 0.034158 0.000000 0.000270
# 5 -0.000135 0.000135 0.000000 0.000000 0.034158 -0.005025
# 6 0.000000 0.000000 0.000000 0.000270 -0.005025 0.043101
#
#
# Mechanical properties :
#
#
# Convention : Reuss Voigt Hill
#
# Bulk Modulus (GPa) = 19.01199 19.76722 19.38961
# Shear Modulus (GPa) = 27.81699 29.60067 28.70883
#
# Velocity S-wave (km/s) = 3.45951 3.56870 3.51453
# Velocity P-wave (km/s) = 4.91299 5.04833 4.98112
#
# Compressibility (1/GPa) = 0.05259838
#
# Stress axis : x y z
#
# Youngs Moduli (GPa) = 57.63151 57.63151 58.84330
#
# Poissons Ratio (x) = 0.24199 -0.13679
# Poissons Ratio (y) = 0.24199 -0.13679
# Poissons Ratio (z) = -0.13398 -0.13398
#
# Static dielectric constant tensor:
#      x y z
#    x 1.901760 0.000000 0.000000 
#    y 0.000000 1.901760 0.000000 
#    z 0.000000 0.000000 1.898870 
# 
# From -- ./inp_files/1497.got.cif
#   From: 2010.05.17/outbox.cif.g08.bks.cpg/sg146_cif.got.tgz:1497.got - 2010.05.20 13:48:23.
