data_PCOD9574433
_publ_section_title
;
Structure prediction by ZEFSAII (Michael W. Deem and Ramdas Pophale) SiO2 
 PCOD9574433
Probable space group: P 31
;
_chemical_formula_sum "Si O2"
_cell_formula_units_Z 21
_cell_length_a 8.783046
_cell_length_b 8.783046
_cell_length_c 15.393793
_cell_angle_alpha 90.000000
_cell_angle_beta 90.000000
_cell_angle_gamma 120.000000
_cell_volume 1028.410705
_symmetry_space_group_name_H-M "P 31"
_symmetry_group_IT_number 144
_symmetry_cell_setting 'hexagonal'
loop_
_space_group_symop_operation_xyz
x,y,z
-y,x-y,1/3+z
-x+y,-x,2/3+z
loop_
_atom_site_type_symbol
_atom_site_label
_atom_site_fract_x
_atom_site_fract_y
_atom_site_fract_z
Si Si1 0.093825 0.769748 0.875000
Si Si2 0.490005 0.965198 0.881543
Si Si3 0.350138 0.171804 0.630869
Si Si4 0.048070 0.933027 0.513547
Si Si5 0.328938 0.237059 0.393921
Si Si6 0.440117 0.263861 0.820956
Si Si7 0.604514 0.181143 0.476133
O O1 0.292729 0.807661 0.883606
O O2 0.984210 0.614270 0.807598
O O3 0.085112 0.942287 0.848686
O O4 0.994450 0.710379 0.967184
O O5 0.635626 0.003759 0.954216
O O6 0.599734 0.983814 0.793834
O O7 0.460499 0.133615 0.887241
O O8 0.398027 0.161929 0.728708
O O9 0.484021 0.162883 0.561065
O O10 0.159184 0.024551 0.599858
O O11 0.007262 0.732545 0.506596
O O12 0.164980 0.064400 0.436680
O O13 0.491938 0.200201 0.398700
O O14 0.636750 0.426613 0.815061
#
# Coordination Sequence:
#
# PCOD9574433 Si02
#       7
#     3   3   3   3   3   3   3
#     4  11  19  35  56  77 106 138 178 232 265 313
#     4   8  19  33  51  75 100 137 176 206 269 332
#     4   9  17  35  53  71 105 141 167 214 273 321
#     4   9  19  32  53  81 104 136 179 215 269 330
#     4   9  19  37  52  73 109 141 170 222 278 323
#     4   9  16  32  53  74 100 135 176 216 257 318
#     4   9  19  32  52  75 100 138 182 215 265 327
#
# _framework density 20.41986
#
# number of rings (size 3 to 8) (size 9 to 14) (size 15 to 20)
#    0.000    3.429    0.000    2.571    0.000    1.143 
#    0.000   20.000    0.000    0.000    0.000    0.000 
#    0.000    0.000    0.000    0.000    0.000    0.000 
#
# Total GULP energy -116913.522118 kJ/mol
# GULP energy per Si atom -5567.310577 kJ/mol
# Density = 2.037338 g / cm^3
# Si number density = 20.419860 Si / 1000 Ang^3
#
#
#
# Elastic Constant Matrix: (Units=GPa)
#
#
# Indices 1 2 3 4 5 6 
#
# 1 97.3489 30.6847 0.1098 -6.8388 -0.8463 0.0000
# 2 30.6847 97.3489 0.1098 6.8388 0.8463 0.0000
# 3 0.1098 0.1098 23.0687 0.0000 0.0000 0.0000
# 4 -6.8388 6.8388 0.0000 13.5160 0.0000 0.8463
# 5 -0.8463 0.8463 0.0000 0.0000 13.5160 -6.8388
# 6 0.0000 0.0000 0.0000 0.8463 -6.8388 33.3321
#
#
#
# Elastic Compliance Matrix: (Units=1/GPa)
#
#
# Indices 1 2 3 4 5 6 
#
# 1 0.012289 -0.004479 -0.000037 0.008484 0.001050 0.000000
# 2 -0.004479 0.012289 -0.000037 -0.008484 -0.001050 0.000000
# 3 -0.000037 -0.000037 0.043349 0.000000 0.000000 0.000000
# 4 0.008484 -0.008484 0.000000 0.082704 0.000000 -0.002100
# 5 0.001050 -0.001050 0.000000 0.000000 0.082704 0.016969
# 6 0.000000 0.000000 0.000000 -0.002100 0.016969 0.033536
#
#
# Mechanical properties :
#
#
# Convention : Reuss Voigt Hill
#
# Bulk Modulus (GPa) = 17.00061 31.06389 24.03225
# Shear Modulus (GPa) = 16.91566 24.53030 20.72298
#
# Velocity S-wave (km/s) = 2.88130 3.46973 3.18912
# Velocity P-wave (km/s) = 4.40600 5.59443 5.03540
#
# Compressibility (1/GPa) = 0.05882141
#
# Stress axis : x y z
#
# Youngs Moduli (GPa) = 81.37203 81.37203 23.06856
#
# Poissons Ratio (x) = 0.36444 0.00086
# Poissons Ratio (y) = 0.36444 0.00086
# Poissons Ratio (z) = 0.00302 0.00302
#
# Static dielectric constant tensor:
#      x y z
#    x 1.771660 0.000000 0.000000 
#    y 0.000000 1.771660 0.000000 
#    z 0.000000 0.000000 1.759800 
# 
# From -- ./inp_files/777.got.cif
#   From: 2010.05.17/outbox.cif.g08.bks.cpg/sg144_cif.got.tgz:777.got - 2010.05.20 13:46:34.
