data_PCOD9574629
_publ_section_title
;
Structure prediction by ZEFSAII (Michael W. Deem and Ramdas Pophale) SiO2 
 PCOD9574629
Probable space group: P 32
;
_chemical_formula_sum "Si O2"
_cell_formula_units_Z 24
_cell_length_a 14.608267
_cell_length_b 14.608267
_cell_length_c 5.609575
_cell_angle_alpha 90.000000
_cell_angle_beta 90.000000
_cell_angle_gamma 120.000000
_cell_volume 1036.711668
_symmetry_space_group_name_H-M "P 32"
_symmetry_group_IT_number 145
_symmetry_cell_setting 'hexagonal'
loop_
_space_group_symop_operation_xyz
x,y,z
-y,x-y,2/3+z
-x+y,-x,1/3+z
loop_
_atom_site_type_symbol
_atom_site_label
_atom_site_fract_x
_atom_site_fract_y
_atom_site_fract_z
Si Si1 0.442824 0.378511 0.804110
Si Si2 0.500122 0.675578 0.262103
Si Si3 0.024513 0.267997 0.695011
Si Si4 0.449068 0.115126 0.336125
Si Si5 0.570742 0.334780 0.139467
Si Si6 0.155173 0.594053 0.081866
Si Si7 0.910226 0.891375 0.674677
Si Si8 0.863419 0.166613 0.319639
O O1 0.548608 0.453017 0.650431
O O2 0.382875 0.443621 0.804509
O O3 0.369718 0.257526 0.731799
O O4 0.501190 0.383723 0.052411
O O5 0.627361 0.747688 0.250498
O O6 0.475342 0.603944 0.504249
O O7 0.447062 0.744176 0.338971
O O8 0.457153 0.624171 0.998337
O O9 0.945464 0.176688 0.518752
O O10 0.948312 0.306684 0.812847
O O11 0.053981 0.202733 0.878013
O O12 0.500733 0.240624 0.315910
O O13 0.382964 0.093162 0.579449
O O14 0.684800 0.410221 0.251038
O O15 0.894509 0.780846 0.778960
O O16 0.016474 0.945306 0.521375
#
# Coordination Sequence:
#
# PCOD9574629 Si02
#       8
#     3   3   3   3   3   3   3   3
#     4  12  24  42  67 109 144 196 255 308 376 464
#     4  12  27  53  77 113 148 201 258 323 400 459
#     4  11  25  46  76 105 153 198 251 318 393 456
#     4  11  22  42  62 101 149 199 243 302 367 453
#     4  12  23  36  63  97 148 203 241 288 365 453
#     4  12  28  49  80 105 149 195 258 329 387 471
#     4  11  26  50  79 108 147 198 251 322 394 472
#     4  11  25  46  70 110 152 198 255 316 382 468
#
# _framework density 23.150122
#
# number of rings (size 3 to 8) (size 9 to 14) (size 15 to 20)
#    0.000    0.500    3.750    4.500    3.500    4.000 
#    2.250    0.000    0.000    0.000    0.000    0.000 
#    0.000    0.000    0.000    0.000    0.000    0.000 
#
# Total GULP energy -133956.552803 kJ/mol
# GULP energy per Si atom -5581.523033 kJ/mol
# Density = 2.309743 g / cm^3
# Si number density = 23.150122 Si / 1000 Ang^3
#
#
#
# Elastic Constant Matrix: (Units=GPa)
#
#
# Indices 1 2 3 4 5 6 
#
# 1 97.1345 23.6928 28.1171 -2.9288 -1.9872 0.0000
# 2 23.6928 97.1345 28.1171 2.9288 1.9872 0.0000
# 3 28.1171 28.1171 88.5577 0.0000 0.0000 0.0000
# 4 -2.9288 2.9288 0.0000 24.5460 0.0000 1.9872
# 5 -1.9872 1.9872 0.0000 0.0000 24.5460 -2.9288
# 6 0.0000 0.0000 0.0000 1.9872 -2.9288 36.7208
#
#
#
# Elastic Compliance Matrix: (Units=1/GPa)
#
#
# Indices 1 2 3 4 5 6 
#
# 1 0.011760 -0.002048 -0.003083 0.001648 0.001118 0.000000
# 2 -0.002048 0.011760 -0.003083 -0.001648 -0.001118 0.000000
# 3 -0.003083 -0.003083 0.013250 0.000000 0.000000 0.000000
# 4 0.001648 -0.001648 0.000000 0.041314 0.000000 -0.002236
# 5 0.001118 -0.001118 0.000000 0.000000 0.041314 0.003295
# 6 0.000000 0.000000 0.000000 -0.002236 0.003295 0.027616
#
#
# Mechanical properties :
#
#
# Convention : Reuss Voigt Hill
#
# Bulk Modulus (GPa) = 49.16606 49.18672 49.17639
# Shear Modulus (GPa) = 29.37310 30.68920 30.03115
#
# Velocity S-wave (km/s) = 3.56590 3.64491 3.60562
# Velocity P-wave (km/s) = 6.18371 6.24554 6.21470
#
# Compressibility (1/GPa) = 0.02033923
#
# Stress axis : x y z
#
# Youngs Moduli (GPa) = 85.03603 85.03603 75.47181
#
# Poissons Ratio (x) = 0.17419 0.23270
# Poissons Ratio (y) = 0.17419 0.23270
# Poissons Ratio (z) = 0.26219 0.26219
#
# Static dielectric constant tensor:
#      x y z
#    x 1.870710 0.000000 0.000000 
#    y 0.000000 1.870710 0.000000 
#    z 0.000000 0.000000 2.076700 
# 
# From -- ./inp_files/182.got.cif
#   From: 2010.05.17/outbox.cif.g08.bks.cpg/sg145_cif.got.tgz:182.got - 2010.05.20 13:47:28.
