data_PCOD9574970
_publ_section_title
;
Structure prediction by ZEFSAII (Michael W. Deem and Ramdas Pophale) SiO2 
 PCOD9574970
Probable space group: P -3
;
_chemical_formula_sum "Si O2"
_cell_formula_units_Z 36
_cell_length_a 10.836294
_cell_length_b 10.836294
_cell_length_c 14.475276
_cell_angle_alpha 90.000000
_cell_angle_beta 90.000000
_cell_angle_gamma 120.000000
_cell_volume 1472.038076
_symmetry_space_group_name_H-M "P -3"
_symmetry_group_IT_number 147
_symmetry_cell_setting 'hexagonal'
loop_
_space_group_symop_operation_xyz
x,y,z
-y,x-y,z
-x+y,-x,z
-x,-y,-z
y,-x+y,-z
x-y,x,-z
loop_
_atom_site_type_symbol
_atom_site_label
_atom_site_fract_x
_atom_site_fract_y
_atom_site_fract_z
Si Si1 0.484322 0.651702 0.644070
Si Si2 0.094887 0.328740 0.276526
Si Si3 0.262389 0.035716 0.031738
Si Si4 0.211009 0.909206 0.786986
Si Si5 0.646021 0.162497 0.897121
Si Si6 0.249017 0.936798 0.484361
O O1 0.470611 0.793580 0.633040
O O2 0.547353 0.668148 0.746016
O O3 0.581214 0.649186 0.563087
O O4 0.198312 0.269497 0.244030
O O5 0.120775 0.455939 0.206796
O O6 0.113094 0.376404 0.382404
O O7 0.937231 0.193302 0.264985
O O8 0.361779 0.965122 0.042234
O O9 0.309868 0.159872 0.109356
O O10 0.112775 0.889363 0.049650
O O11 0.790806 0.318310 0.912674
O O12 0.090350 0.825516 0.516963
#
# Coordination Sequence:
#
# PCOD9574970 Si02
#       6
#     6   6   6   6   6   6
#     4  10  25  44  58  93 136 184 230 258 319 391
#     4  11  21  38  70  94 130 175 218 275 332 377
#     4  11  23  42  72 103 128 158 210 281 345 399
#     4  11  22  42  65  97 130 165 215 279 342 395
#     4   9  23  44  60  97 130 174 221 251 317 406
#     4  12  22  40  65 103 134 171 223 288 329 366
#
# _framework density 24.455891000000001
#
# number of rings (size 3 to 8) (size 9 to 14) (size 15 to 20)
#    0.667    0.667    3.333    2.667    0.000    6.667 
#    0.000    1.667    0.000    0.000    0.000    0.000 
#    0.000    0.000    0.000    0.000    0.000    0.000 
#
# Total GULP energy -200720.660556 kJ/mol
# GULP energy per Si atom -5575.573904 kJ/mol
# Density = 2.440023 g / cm^3
# Si number density = 24.455891 Si / 1000 Ang^3
#
#
#
# Elastic Constant Matrix: (Units=GPa)
#
#
# Indices 1 2 3 4 5 6 
#
# 1 68.9319 -2.7020 5.5322 6.7129 0.5034 0.0000
# 2 -2.7020 68.9319 5.5322 -6.7129 -0.5034 0.0000
# 3 5.5322 5.5322 105.2009 0.0000 0.0000 0.0000
# 4 6.7129 -6.7129 0.0000 25.2862 0.0000 -0.5034
# 5 0.5034 -0.5034 0.0000 0.0000 25.2862 6.7129
# 6 0.0000 0.0000 0.0000 -0.5034 6.7129 35.8169
#
#
#
# Elastic Compliance Matrix: (Units=1/GPa)
#
#
# Indices 1 2 3 4 5 6 
#
# 1 0.014964 0.000269 -0.000801 -0.003901 -0.000293 0.000000
# 2 0.000269 0.014964 -0.000801 0.003901 0.000293 0.000000
# 3 -0.000801 -0.000801 0.009590 0.000000 0.000000 0.000000
# 4 -0.003901 0.003901 0.000000 0.041630 0.000000 0.000585
# 5 -0.000293 0.000293 0.000000 0.000000 0.041630 -0.007802
# 6 0.000000 0.000000 0.000000 0.000585 -0.007802 0.029390
#
#
# Mechanical properties :
#
#
# Convention : Reuss Voigt Hill
#
# Bulk Modulus (GPa) = 27.13618 28.86549 28.00084
# Shear Modulus (GPa) = 29.91879 32.92469 31.42174
#
# Velocity S-wave (km/s) = 3.50148 3.67316 3.58835
# Velocity P-wave (km/s) = 5.24091 5.46060 5.35189
#
# Compressibility (1/GPa) = 0.03685117
#
# Stress axis : x y z
#
# Youngs Moduli (GPa) = 66.82729 66.82729 104.27665
#
# Poissons Ratio (x) = -0.01796 0.08353
# Poissons Ratio (y) = -0.01796 0.08353
# Poissons Ratio (z) = 0.05353 0.05353
#
# Static dielectric constant tensor:
#      x y z
#    x 1.942750 0.000000 0.000000 
#    y 0.000000 1.942750 0.000000 
#    z 0.000000 0.000000 2.089540 
# 
# From -- ./inp_files/941.got.cif
#   From: 2010.05.17/outbox.cif.g08.bks.cpg/sg147_cif.got.tgz:941.got - 2010.05.20 13:49:32.
