data_PCOD9574737
_publ_section_title
;
Structure prediction by ZEFSAII (Michael W. Deem and Ramdas Pophale) SiO2 
 PCOD9574737
Probable space group: R 3
;
_chemical_formula_sum "Si O2"
_cell_formula_units_Z 27
_cell_length_a 7.182230
_cell_length_b 7.182230
_cell_length_c 24.422213
_cell_angle_alpha 90.000000
_cell_angle_beta 90.000000
_cell_angle_gamma 120.000000
_cell_volume 1091.023898
_symmetry_space_group_name_H-M "R 3"
_symmetry_group_IT_number 146
_symmetry_cell_setting 'hexagonal'
loop_
_space_group_symop_operation_xyz
x,y,z
-y,x-y,z
-x+y,-x,z
2/3+x,1/3+y,1/3+z
2/3-y,1/3+x-y,1/3+z
2/3-x+y,1/3-x,1/3+z
1/3+x,2/3+y,2/3+z
1/3-y,2/3+x-y,2/3+z
1/3-x+y,2/3-x,2/3+z
loop_
_atom_site_type_symbol
_atom_site_label
_atom_site_fract_x
_atom_site_fract_y
_atom_site_fract_z
Si Si1 0.946131 0.211988 0.761880
Si Si2 0.720539 0.599192 0.535964
Si Si3 0.244987 0.000004 0.982254
O O1 0.936194 0.333337 0.815588
O O2 0.954353 0.313379 0.703405
O O3 0.176686 0.218107 0.763516
O O4 0.489983 0.374758 0.534329
O O5 0.712319 0.692370 0.594437
O O6 0.198890 0.198894 0.982255
#
# Coordination Sequence:
#
# PCOD9574737 Si02
#       3
#     9   9   9
#     4  10  22  38  64  91 127 163 211 251 316 369
#     4  10  22  38  64  91 127 163 211 251 316 369
#     4  10  22  38  66  88 130 164 210 256 316 362
#
# _framework density 24.747396999999999
#
# number of rings (size 3 to 8) (size 9 to 14) (size 15 to 20)
#    2.000    0.000    0.000    4.000    4.667    0.000 
#    0.000    0.000    0.000    5.333    0.000    0.000 
#    0.000    0.000    0.000    0.000    0.000    0.000 
#
# Total GULP energy -50230.634801 kJ/mol
# GULP energy per Si atom -5581.181645 kJ/mol
# Density = 2.469107 g / cm^3
# Si number density = 24.747397 Si / 1000 Ang^3
#
#
#
# Elastic Constant Matrix: (Units=GPa)
#
#
# Indices 1 2 3 4 5 6 
#
# 1 64.9940 -3.4655 32.5658 9.0172 -0.0001 0.0000
# 2 -3.4655 64.9940 32.5658 -9.0172 0.0001 0.0000
# 3 32.5658 32.5658 239.9552 0.0000 0.0000 0.0000
# 4 9.0172 -9.0172 0.0000 39.1697 0.0000 0.0001
# 5 -0.0001 0.0001 0.0000 0.0000 39.1697 9.0172
# 6 0.0000 0.0000 0.0000 0.0001 9.0172 34.2297
#
#
#
# Elastic Compliance Matrix: (Units=1/GPa)
#
#
# Indices 1 2 3 4 5 6 
#
# 1 0.017265 0.001715 -0.002576 -0.003580 0.000000 0.000000
# 2 0.001715 0.017265 -0.002576 0.003580 0.000000 0.000000
# 3 -0.002576 -0.002576 0.004867 0.000000 0.000000 0.000000
# 4 -0.003580 0.003580 0.000000 0.027178 0.000000 0.000000
# 5 0.000000 0.000000 0.000000 0.000000 0.027178 -0.007160
# 6 0.000000 0.000000 0.000000 0.000000 -0.007160 0.031100
#
#
# Mechanical properties :
#
#
# Convention : Reuss Voigt Hill
#
# Bulk Modulus (GPa) = 30.74851 54.80838 42.77844
# Shear Modulus (GPa) = 35.07112 43.06563 39.06837
#
# Velocity S-wave (km/s) = 3.76861 4.17611 3.97758
# Velocity P-wave (km/s) = 5.60254 6.74154 6.19826
#
# Compressibility (1/GPa) = 0.03252191
#
# Stress axis : x y z
#
# Youngs Moduli (GPa) = 57.92161 57.92161 205.48246
#
# Poissons Ratio (x) = -0.09931 0.52928
# Poissons Ratio (y) = -0.09931 0.52928
# Poissons Ratio (z) = 0.14919 0.14919
#
# Static dielectric constant tensor:
#      x y z
#    x 1.978720 0.000000 0.000000 
#    y 0.000000 1.978720 0.000000 
#    z 0.000000 0.000000 1.890220 
# 
# From -- ./inp_files/2162.got.cif
#   From: 2010.05.17/outbox.cif.g08.bks.cpg/sg146_cif.got.tgz:2162.got - 2010.05.20 13:48:23.
