data_PCOD9574098
_publ_section_title
;
Structure prediction by ZEFSAII (Michael W. Deem and Ramdas Pophale) SiO2 
 PCOD9574098
Probable space group: I 41/A C D
;
_chemical_formula_sum "Si O2"
_cell_formula_units_Z 96
_cell_length_a 18.359488
_cell_length_b 18.359488
_cell_length_c 14.581977
_cell_angle_alpha 90.000000
_cell_angle_beta 90.000000
_cell_angle_gamma 90.000000
_cell_volume 4915.158647
_symmetry_space_group_name_H-M "I 41/A C D"
_symmetry_group_IT_number 142
_space_group.IT_coordinate_system_code '2'
_symmetry_cell_setting 'tetragonal'
loop_
_space_group_symop_operation_xyz
x,y,z
1/4-y,3/4+x,1/4+z
-x,1/2-y,z
1/4+y,1/4-x,3/4+z
x,-y,1/2-z
1/2-x,y,-z
3/4+y,1/4+x,1/4-z
1/4-y,1/4-x,1/4-z
-x,-y,-z
3/4+y,1/4-x,3/4-z
x,1/2+y,-z
3/4-y,3/4+x,1/4-z
-x,y,1/2+z
1/2+x,-y,z
1/4-y,3/4-x,3/4+z
3/4+y,3/4+x,3/4+z
1/2+x,1/2+y,1/2+z
3/4-y,1/4+x,3/4+z
1/2-x,-y,1/2+z
3/4+y,3/4-x,1/4+z
1/2+x,1/2-y,-z
-x,1/2+y,1/2-z
1/4+y,3/4+x,3/4-z
3/4-y,3/4-x,3/4-z
1/2-x,1/2-y,1/2-z
1/4+y,3/4-x,1/4-z
1/2+x,y,1/2-z
1/4-y,1/4+x,3/4-z
1/2-x,1/2+y,z
x,1/2-y,1/2+z
3/4-y,1/4-x,1/4+z
1/4+y,1/4+x,1/4+z
loop_
_atom_site_type_symbol
_atom_site_label
_atom_site_fract_x
_atom_site_fract_y
_atom_site_fract_z
Si Si1 0.177476 0.814163 0.845175
Si Si2 0.466777 0.407108 0.574633
Si Si3 0.084880 0.727885 0.992008
O O1 0.139223 0.889223 0.875000
O O2 0.165334 0.788156 0.740234
O O3 0.264123 0.811598 0.854534
O O4 0.006001 0.885712 0.839609
O O5 0.413007 0.357987 0.513226
O O6 0.484392 0.362487 0.665489
O O7 0.000000 0.750000 0.977689
#
# Coordination Sequence:
#
# PCOD9574098 Si02
#       3
#    32  32  32
#     4  11  23  37  60  94 128 166 212 269 324 388
#     4  11  22  36  60  94 125 161 217 266 323 375
#     4  12  20  37  65  91 123 164 220 270 310 380
#
# _framework density 19.531416
#
# number of rings (size 3 to 8) (size 9 to 14) (size 15 to 20)
#    0.000    0.667    6.667    2.000    0.000    0.000 
#    0.000    0.000    0.000   24.000    0.000    0.000 
#    0.000    0.000    0.000    0.000    0.000    0.000 
#
# Total GULP energy -267997.465510 kJ/mol
# GULP energy per Si atom -5583.280531 kJ/mol
# Density = 1.948696 g / cm^3
# Si number density = 19.531416 Si / 1000 Ang^3
#
#
#
# Elastic Constant Matrix: (Units=GPa)
#
#
# Indices 1 2 3 4 5 6 
#
# 1 151.0593 66.5740 41.9343 0.0000 0.0000 0.0000
# 2 66.5740 151.0593 41.9343 0.0000 0.0000 0.0000
# 3 41.9343 41.9343 113.4040 0.0000 0.0000 0.0000
# 4 0.0000 0.0000 0.0000 30.4930 0.0000 0.0000
# 5 0.0000 0.0000 0.0000 0.0000 30.4930 0.0000
# 6 0.0000 0.0000 0.0000 0.0000 0.0000 23.8316
#
#
#
# Elastic Compliance Matrix: (Units=1/GPa)
#
#
# Indices 1 2 3 4 5 6 
#
# 1 0.008597 -0.003239 -0.001981 0.000000 0.000000 0.000000
# 2 -0.003239 0.008597 -0.001981 0.000000 0.000000 0.000000
# 3 -0.001981 -0.001981 0.010283 0.000000 0.000000 0.000000
# 4 0.000000 0.000000 0.000000 0.032794 0.000000 0.000000
# 5 0.000000 0.000000 0.000000 0.000000 0.032794 0.000000
# 6 0.000000 0.000000 0.000000 0.000000 0.000000 0.041961
#
#
# Mechanical properties :
#
#
# Convention : Reuss Voigt Hill
#
# Bulk Modulus (GPa) = 76.48429 79.60087 78.04258
# Shear Modulus (GPa) = 32.51187 34.63553 33.57370
#
# Velocity S-wave (km/s) = 4.08437 4.21565 4.15053
# Velocity P-wave (km/s) = 7.84139 8.03364 7.93810
#
# Compressibility (1/GPa) = 0.01307458
#
# Stress axis : x y z
#
# Youngs Moduli (GPa) = 116.31397 116.31397 97.24393
#
# Poissons Ratio (x) = 0.37674 0.19268
# Poissons Ratio (y) = 0.37674 0.19268
# Poissons Ratio (z) = 0.23047 0.23047
#
# Static dielectric constant tensor:
#      x y z
#    x 1.706760 0.000000 0.000000 
#    y 0.000000 1.706760 0.000000 
#    z 0.000000 0.000000 1.726510 
# 
# From -- ./inp_files/6568.got.cif
#   From: 2010.05.17/outbox.cif.g08.bks.cpg/sg142_4_cif.got.tgz:6568.got - 2010.05.20 13:39:18.
