data_PCOD9574655
_publ_section_title
;
Structure prediction by ZEFSAII (Michael W. Deem and Ramdas Pophale) SiO2 
 PCOD9574655
Probable space group: P 32
;
_chemical_formula_sum "Si O2"
_cell_formula_units_Z 21
_cell_length_a 8.857489
_cell_length_b 8.857489
_cell_length_c 12.337901
_cell_angle_alpha 90.000000
_cell_angle_beta 90.000000
_cell_angle_gamma 120.000000
_cell_volume 838.287820
_symmetry_space_group_name_H-M "P 32"
_symmetry_group_IT_number 145
_symmetry_cell_setting 'hexagonal'
loop_
_space_group_symop_operation_xyz
x,y,z
-y,x-y,2/3+z
-x+y,-x,1/3+z
loop_
_atom_site_type_symbol
_atom_site_label
_atom_site_fract_x
_atom_site_fract_y
_atom_site_fract_z
Si Si1 0.161217 0.079908 0.718590
Si Si2 0.193223 0.162848 0.939393
Si Si3 0.118958 0.466259 0.856650
Si Si4 0.547530 0.425258 0.716187
Si Si5 0.633369 0.498248 0.317970
Si Si6 0.425425 0.571120 0.131753
Si Si7 0.077997 0.389705 0.233155
O O1 0.157608 0.023778 0.841958
O O2 0.351445 0.258877 0.717314
O O3 0.967046 0.043759 0.699551
O O4 0.185213 0.975554 0.623039
O O5 0.164565 0.313934 0.887011
O O6 0.389084 0.229765 0.973167
O O7 0.271270 0.667212 0.841905
O O8 0.007264 0.420569 0.746563
O O9 0.005716 0.462617 0.956363
O O10 0.710869 0.402341 0.684223
O O11 0.595065 0.530794 0.828672
O O12 0.538997 0.516630 0.209202
O O13 0.228222 0.419614 0.148335
O O14 0.489017 0.616418 0.008154
#
# Coordination Sequence:
#
# PCOD9574655 Si02
#       7
#     3   3   3   3   3   3   3
#     4  12  29  52  81 117 168 223 277 352 429 518
#     4  12  28  53  81 122 170 224 282 353 434 520
#     4  12  28  52  85 122 172 224 291 357 435 520
#     4  12  31  53  84 122 169 223 293 359 430 518
#     4  12  28  54  85 125 170 223 290 360 432 521
#     4  12  26  52  88 122 170 228 285 351 434 528
#     4  12  28  48  88 122 165 221 288 348 434 509
#
# _framework density 25.051061000000001
#
# number of rings (size 3 to 8) (size 9 to 14) (size 15 to 20)
#    0.000    0.000    4.286    3.429   10.000    0.000 
#    0.000    0.000    0.000    0.000    0.000    0.000 
#    0.000    0.000    0.000    0.000    0.000    0.000 
#
# Total GULP energy -117404.187783 kJ/mol
# GULP energy per Si atom -5590.675609 kJ/mol
# Density = 2.499404 g / cm^3
# Si number density = 25.051061 Si / 1000 Ang^3
#
#
#
# Elastic Constant Matrix: (Units=GPa)
#
#
# Indices 1 2 3 4 5 6 
#
# 1 97.9058 46.4052 18.9029 3.9427 -3.7045 0.0000
# 2 46.4052 97.9058 18.9029 -3.9427 3.7045 0.0000
# 3 18.9029 18.9029 119.9189 0.0000 0.0000 0.0000
# 4 3.9427 -3.9427 0.0000 51.9188 0.0000 3.7045
# 5 -3.7045 3.7045 0.0000 0.0000 51.9188 3.9427
# 6 0.0000 0.0000 0.0000 3.7045 3.9427 25.7503
#
#
#
# Elastic Compliance Matrix: (Units=1/GPa)
#
#
# Indices 1 2 3 4 5 6 
#
# 1 0.013540 -0.006312 -0.001139 -0.001508 0.001416 0.000000
# 2 -0.006312 0.013540 -0.001139 0.001508 -0.001416 0.000000
# 3 -0.001139 -0.001139 0.008698 0.000000 0.000000 0.000000
# 4 -0.001508 0.001508 0.000000 0.019692 0.000000 -0.002833
# 5 0.001416 -0.001416 0.000000 0.000000 0.019692 -0.003015
# 6 0.000000 0.000000 0.000000 -0.002833 -0.003015 0.039704
#
#
# Mechanical properties :
#
#
# Convention : Reuss Voigt Hill
#
# Bulk Modulus (GPa) = 53.77302 53.79472 53.78387
# Shear Modulus (GPa) = 36.16749 41.35222 38.75985
#
# Velocity S-wave (km/s) = 3.80379 4.06731 3.93776
# Velocity P-wave (km/s) = 6.38778 6.60136 6.49545
#
# Compressibility (1/GPa) = 0.01859669
#
# Stress axis : x y z
#
# Youngs Moduli (GPa) = 73.85576 73.85576 114.96676
#
# Poissons Ratio (x) = 0.46617 0.13099
# Poissons Ratio (y) = 0.46617 0.13099
# Poissons Ratio (z) = 0.08415 0.08415
#
# Static dielectric constant tensor:
#      x y z
#    x 2.101150 0.000000 0.000000 
#    y 0.000000 2.101150 0.000000 
#    z 0.000000 0.000000 1.948980 
# 
# From -- ./inp_files/640.got.cif
#   From: 2010.05.17/outbox.cif.g08.bks.cpg/sg145_cif.got.tgz:640.got - 2010.05.20 13:47:28.
