data_PCOD9574236
_publ_section_title
;
Structure prediction by ZEFSAII (Michael W. Deem and Ramdas Pophale) SiO2 
 PCOD9574236
Probable space group: I 41/A C D
;
_chemical_formula_sum "Si O2"
_cell_formula_units_Z 80
_cell_length_a 9.205050
_cell_length_b 9.205050
_cell_length_c 33.616349
_cell_angle_alpha 90.000000
_cell_angle_beta 90.000000
_cell_angle_gamma 90.000000
_cell_volume 2848.412268
_symmetry_space_group_name_H-M "I 41/A C D"
_symmetry_group_IT_number 142
_space_group.IT_coordinate_system_code '2'
_symmetry_cell_setting 'tetragonal'
loop_
_space_group_symop_operation_xyz
x,y,z
1/4-y,3/4+x,1/4+z
-x,1/2-y,z
1/4+y,1/4-x,3/4+z
x,-y,1/2-z
1/2-x,y,-z
3/4+y,1/4+x,1/4-z
1/4-y,1/4-x,1/4-z
-x,-y,-z
3/4+y,1/4-x,3/4-z
x,1/2+y,-z
3/4-y,3/4+x,1/4-z
-x,y,1/2+z
1/2+x,-y,z
1/4-y,3/4-x,3/4+z
3/4+y,3/4+x,3/4+z
1/2+x,1/2+y,1/2+z
3/4-y,1/4+x,3/4+z
1/2-x,-y,1/2+z
3/4+y,3/4-x,1/4+z
1/2+x,1/2-y,-z
-x,1/2+y,1/2-z
1/4+y,3/4+x,3/4-z
3/4-y,3/4-x,3/4-z
1/2-x,1/2-y,1/2-z
1/4+y,3/4-x,1/4-z
1/2+x,y,1/2-z
1/4-y,1/4+x,3/4-z
1/2-x,1/2+y,z
x,1/2-y,1/2+z
3/4-y,1/4-x,1/4+z
1/4+y,1/4+x,1/4+z
loop_
_atom_site_type_symbol
_atom_site_label
_atom_site_fract_x
_atom_site_fract_y
_atom_site_fract_z
Si Si1 0.367055 0.117055 0.375000
Si Si2 0.689092 0.000000 0.750000
Si Si3 0.500000 0.250000 0.239967
Si Si4 0.259997 0.367864 0.570414
O O1 0.507209 0.086837 0.346495
O O2 0.352443 0.971130 0.400986
O O3 0.778856 0.065876 0.712600
O O4 0.951877 0.126012 0.790824
O O5 0.396179 0.143284 0.265163
#
# Coordination Sequence:
#
# PCOD9574236 Si02
#       4
#    16  16  16  32
#     4  12  28  52  88 124 184 242 302 382 472 556
#     4  12  28  56  94 134 182 242 324 388 462 560
#     4  12  26  57  90 125 182 238 312 388 460 553
#     4  12  27  54  84 132 177 239 307 385 466 560
#
# _framework density 28.085822
#
# number of rings (size 3 to 8) (size 9 to 14) (size 15 to 20)
#    0.000    0.000    4.000    4.800    0.000    0.800 
#    0.000    0.000    0.000    0.000    0.000    0.000 
#    0.000    0.000    0.000    0.000    0.000    0.000 
#
# Total GULP energy -223440.897333 kJ/mol
# GULP energy per Si atom -5586.022433 kJ/mol
# Density = 2.802190 g / cm^3
# Si number density = 28.085822 Si / 1000 Ang^3
#
#
#
# Elastic Constant Matrix: (Units=GPa)
#
#
# Indices 1 2 3 4 5 6 
#
# 1 178.7583 85.0859 71.0726 0.0000 0.0000 0.0000
# 2 85.0859 178.7583 71.0726 0.0000 0.0000 0.0000
# 3 71.0726 71.0726 196.9532 0.0000 0.0000 0.0000
# 4 0.0000 0.0000 0.0000 54.3319 0.0000 0.0000
# 5 0.0000 0.0000 0.0000 0.0000 54.3318 0.0000
# 6 0.0000 0.0000 0.0000 0.0000 0.0000 46.6937
#
#
#
# Elastic Compliance Matrix: (Units=1/GPa)
#
#
# Indices 1 2 3 4 5 6 
#
# 1 0.007690 -0.002985 -0.001698 0.000000 0.000000 0.000000
# 2 -0.002985 0.007690 -0.001698 0.000000 0.000000 0.000000
# 3 -0.001698 -0.001698 0.006303 0.000000 0.000000 0.000000
# 4 0.000000 0.000000 0.000000 0.018405 0.000000 0.000000
# 5 0.000000 0.000000 0.000000 0.000000 0.018405 0.000000
# 6 0.000000 0.000000 0.000000 0.000000 0.000000 0.021416
#
#
# Mechanical properties :
#
#
# Convention : Reuss Voigt Hill
#
# Bulk Modulus (GPa) = 112.09313 112.10354 112.09834
# Shear Modulus (GPa) = 52.27640 52.88739 52.58190
#
# Velocity S-wave (km/s) = 4.31897 4.34414 4.33157
# Velocity P-wave (km/s) = 8.05412 8.07238 8.06326
#
# Compressibility (1/GPa) = 0.00892115
#
# Stress axis : x y z
#
# Youngs Moduli (GPa) = 130.03659 130.03660 158.66308
#
# Poissons Ratio (x) = 0.38821 0.26937
# Poissons Ratio (y) = 0.38821 0.26937
# Poissons Ratio (z) = 0.22077 0.22077
#
# Static dielectric constant tensor:
#      x y z
#    x 2.495920 0.000000 0.000000 
#    y 0.000000 2.495920 0.000000 
#    z 0.000000 0.000000 2.115340 
# 
# From -- ./inp_files/11926.got.cif
#   From: 2010.05.17/outbox.cif.g08.bks.cpg/sg142_6_cif.got.tgz:11926.got - 2010.05.20 13:39:18.
