data_PCOD9574006
_publ_section_title
;
Structure prediction by ZEFSAII (Michael W. Deem and Ramdas Pophale) SiO2 
 PCOD9574006
Probable space group: I 41/A C D
;
_chemical_formula_sum "Si O2"
_cell_formula_units_Z 112
_cell_length_a 14.478295
_cell_length_b 14.478295
_cell_length_c 18.022528
_cell_angle_alpha 90.000000
_cell_angle_beta 90.000000
_cell_angle_gamma 90.000000
_cell_volume 3777.900812
_symmetry_space_group_name_H-M "I 41/A C D"
_symmetry_group_IT_number 142
_space_group.IT_coordinate_system_code '2'
_symmetry_cell_setting 'tetragonal'
loop_
_space_group_symop_operation_xyz
x,y,z
1/4-y,3/4+x,1/4+z
-x,1/2-y,z
1/4+y,1/4-x,3/4+z
x,-y,1/2-z
1/2-x,y,-z
3/4+y,1/4+x,1/4-z
1/4-y,1/4-x,1/4-z
-x,-y,-z
3/4+y,1/4-x,3/4-z
x,1/2+y,-z
3/4-y,3/4+x,1/4-z
-x,y,1/2+z
1/2+x,-y,z
1/4-y,3/4-x,3/4+z
3/4+y,3/4+x,3/4+z
1/2+x,1/2+y,1/2+z
3/4-y,1/4+x,3/4+z
1/2-x,-y,1/2+z
3/4+y,3/4-x,1/4+z
1/2+x,1/2-y,-z
-x,1/2+y,1/2-z
1/4+y,3/4+x,3/4-z
3/4-y,3/4-x,3/4-z
1/2-x,1/2-y,1/2-z
1/4+y,3/4-x,1/4-z
1/2+x,y,1/2-z
1/4-y,1/4+x,3/4-z
1/2-x,1/2+y,z
x,1/2-y,1/2+z
3/4-y,1/4-x,1/4+z
1/4+y,1/4+x,1/4+z
loop_
_atom_site_type_symbol
_atom_site_label
_atom_site_fract_x
_atom_site_fract_y
_atom_site_fract_z
Si Si1 0.644765 0.894765 0.625000
Si Si2 0.161787 0.092456 0.836679
Si Si3 0.687921 0.303090 0.931239
Si Si4 0.975289 0.857323 0.032311
O O1 0.734189 0.919357 0.572500
O O2 0.653408 0.783808 0.615860
O O3 0.244359 0.130720 0.887026
O O4 0.153454 0.173202 0.774025
O O5 0.072476 0.104645 0.892417
O O6 0.750000 0.267186 0.000000
O O7 0.603349 0.357503 0.969792
O O8 0.000000 0.750000 0.039602
#
# Coordination Sequence:
#
# PCOD9574006 Si02
#       4
#    16  32  32  32
#     4  12  24  46  73 111 160 200 280 344 398 526
#     4  11  20  43  75 102 156 212 256 338 422 497
#     4  10  24  42  71 116 150 206 277 338 415 512
#     4  11  19  42  76 102 146 207 261 322 432 493
#
# _framework density 29.646094000000002
#
# number of rings (size 3 to 8) (size 9 to 14) (size 15 to 20)
#    0.000    1.143    5.714    1.714    0.000    3.429 
#    5.143    2.857    0.000    0.000    0.000    0.000 
#    0.000    0.000    0.000    0.000    0.000    0.000 
#
# Total GULP energy -313327.805095 kJ/mol
# GULP energy per Si atom -5595.139377 kJ/mol
# Density = 2.957862 g / cm^3
# Si number density = 29.646094 Si / 1000 Ang^3
#
#
#
# Elastic Constant Matrix: (Units=GPa)
#
#
# Indices 1 2 3 4 5 6 
#
# 1 206.2167 19.0483 63.0397 0.0000 0.0000 0.0000
# 2 19.0483 206.2167 63.0397 0.0000 0.0000 0.0000
# 3 63.0397 63.0397 106.2664 0.0000 0.0000 0.0000
# 4 0.0000 0.0000 0.0000 32.1486 0.0000 0.0000
# 5 0.0000 0.0000 0.0000 0.0000 32.1486 0.0000
# 6 0.0000 0.0000 0.0000 0.0000 0.0000 50.1985
#
#
#
# Elastic Compliance Matrix: (Units=1/GPa)
#
#
# Indices 1 2 3 4 5 6 
#
# 1 0.005994 0.000651 -0.003942 0.000000 0.000000 0.000000
# 2 0.000651 0.005994 -0.003942 0.000000 0.000000 0.000000
# 3 -0.003942 -0.003942 0.014088 0.000000 0.000000 0.000000
# 4 0.000000 0.000000 0.000000 0.031106 0.000000 0.000000
# 5 0.000000 0.000000 0.000000 0.000000 0.031106 0.000000
# 6 0.000000 0.000000 0.000000 0.000000 0.000000 0.019921
#
#
# Mechanical properties :
#
#
# Convention : Reuss Voigt Hill
#
# Bulk Modulus (GPa) = 86.13541 89.88390 88.00966
# Shear Modulus (GPa) = 39.51167 47.80397 43.65782
#
# Velocity S-wave (km/s) = 3.65468 4.01994 3.84165
# Velocity P-wave (km/s) = 6.85030 7.20634 7.03057
#
# Compressibility (1/GPa) = 0.01160963
#
# Stress axis : x y z
#
# Youngs Moduli (GPa) = 166.82591 166.82591 70.98347
#
# Poissons Ratio (x) = -0.10869 0.27985
# Poissons Ratio (y) = -0.10869 0.27985
# Poissons Ratio (z) = 0.65770 0.65770
#
# Static dielectric constant tensor:
#      x y z
#    x 2.254910 0.000000 0.000000 
#    y 0.000000 2.254910 0.000000 
#    z 0.000000 0.000000 2.515150 
# 
# From -- ./inp_files/11085.got.cif
#   From: 2010.05.17/outbox.cif.g08.bks.cpg/sg142_6_cif.got.tgz:11085.got - 2010.05.20 13:39:18.
