data_PCOD9574720
_publ_section_title
;
Structure prediction by ZEFSAII (Michael W. Deem and Ramdas Pophale) SiO2 
 PCOD9574720
Probable space group: R 3
;
_chemical_formula_sum "Si O2"
_cell_formula_units_Z 51
_cell_length_a 14.642199
_cell_length_b 14.642199
_cell_length_c 12.889013
_cell_angle_alpha 90.000000
_cell_angle_beta 90.000000
_cell_angle_gamma 120.000000
_cell_volume 2393.111333
_symmetry_space_group_name_H-M "R 3"
_symmetry_group_IT_number 146
_symmetry_cell_setting 'hexagonal'
loop_
_space_group_symop_operation_xyz
x,y,z
-y,x-y,z
-x+y,-x,z
2/3+x,1/3+y,1/3+z
2/3-y,1/3+x-y,1/3+z
2/3-x+y,1/3-x,1/3+z
1/3+x,2/3+y,2/3+z
1/3-y,2/3+x-y,2/3+z
1/3-x+y,2/3-x,2/3+z
loop_
_atom_site_type_symbol
_atom_site_label
_atom_site_fract_x
_atom_site_fract_y
_atom_site_fract_z
Si Si1 0.304866 0.310031 0.127080
Si Si2 0.414316 0.612777 0.336694
Si Si3 0.982401 0.515762 0.262921
Si Si4 0.793667 0.851991 0.905628
Si Si5 0.904600 0.487638 0.637606
Si Si6 0.000000 0.000000 0.270530
Si Si7 0.666667 0.333334 0.355086
O O1 0.421635 0.383801 0.172443
O O2 0.234961 0.236532 0.221190
O O3 0.305106 0.236624 0.034717
O O4 0.268147 0.387350 0.079616
O O5 0.446536 0.734322 0.323382
O O6 0.461516 0.562897 0.260092
O O7 0.445767 0.602001 0.453591
O O8 0.907174 0.392459 0.260274
O O9 0.672014 0.813237 0.929869
O O10 0.880997 0.947519 0.976420
O O11 0.788636 0.387031 0.639970
O O12 0.000000 0.000000 0.145040
#
# Coordination Sequence:
#
# PCOD9574720 Si02
#       7
#     9   9   9   9   9   3   3
#     4  10  22  42  71  96 133 179 225 291 343 426
#     4  10  21  40  65  98 137 181 228 295 350 406
#     4  11  22  42  67 104 139 172 235 287 356 418
#     4  12  21  39  72 105 133 174 235 294 348 414
#     4  11  24  46  66  97 134 184 233 285 362 419
#     4  12  27  48  60  94 152 187 231 294 360 445
#     4  12  21  39  75 106 134 181 231 312 345 418
#
# _framework density 21.311171000000002
#
# number of rings (size 3 to 8) (size 9 to 14) (size 15 to 20)
#    0.353    0.706    3.529    5.294    0.000    0.000 
#   12.706    0.000    0.000    0.000    0.000    0.000 
#    0.000    0.000    0.000    0.000    0.000    0.000 
#
# Total GULP energy -94999.879756 kJ/mol
# GULP energy per Si atom -5588.228221 kJ/mol
# Density = 2.126267 g / cm^3
# Si number density = 21.311171 Si / 1000 Ang^3
#
#
#
# Elastic Constant Matrix: (Units=GPa)
#
#
# Indices 1 2 3 4 5 6 
#
# 1 128.4548 59.1312 25.2601 8.8651 1.9319 0.0000
# 2 59.1312 128.4553 25.2601 -8.8649 -1.9323 0.0002
# 3 25.2601 25.2601 35.8172 -0.0001 0.0001 0.0000
# 4 8.8651 -8.8649 -0.0001 15.9181 -0.0001 -1.9319
# 5 1.9319 -1.9323 0.0001 -0.0001 15.9179 8.8650
# 6 0.0000 0.0002 0.0000 -1.9319 8.8650 34.6620
#
#
#
# Elastic Compliance Matrix: (Units=1/GPa)
#
#
# Indices 1 2 3 4 5 6 
#
# 1 0.011768 -0.005187 -0.004641 -0.009442 -0.002058 0.000000
# 2 -0.005187 0.011768 -0.004641 0.009442 0.002058 0.000000
# 3 -0.004641 -0.004641 0.034466 0.000000 0.000000 0.000000
# 4 -0.009442 0.009442 0.000000 0.073838 0.000001 0.004115
# 5 -0.002058 0.002058 0.000000 0.000001 0.073839 -0.018885
# 6 0.000000 0.000000 0.000000 0.004115 -0.018885 0.033909
#
#
# Mechanical properties :
#
#
# Convention : Reuss Voigt Hill
#
# Bulk Modulus (GPa) = 34.40804 56.89225 45.65014
# Shear Modulus (GPa) = 17.97179 25.50466 21.73822
#
# Velocity S-wave (km/s) = 2.90712 3.46320 3.19727
# Velocity P-wave (km/s) = 5.23918 6.53801 5.92430
#
# Compressibility (1/GPa) = 0.02906298
#
# Stress axis : x y z
#
# Youngs Moduli (GPa) = 84.97781 84.97839 29.01424
#
# Poissons Ratio (x) = 0.44078 0.13466
# Poissons Ratio (y) = 0.44077 0.13466
# Poissons Ratio (z) = 0.39440 0.39439
#
# Static dielectric constant tensor:
#      x y z
#    x 1.786800 0.000000 0.000000 
#    y 0.000000 1.786800 0.000000 
#    z 0.000000 0.000000 1.770560 
# 
# From -- ./inp_files/1515.got.cif
#   From: 2010.05.17/outbox.cif.g08.bks.cpg/sg146_cif.got.tgz:1515.got - 2010.05.20 13:48:23.
