data_PCOD9574609
_publ_section_title
;
Structure prediction by ZEFSAII (Michael W. Deem and Ramdas Pophale) SiO2 
 PCOD9574609
Probable space group: P 32
;
_chemical_formula_sum "Si O2"
_cell_formula_units_Z 18
_cell_length_a 11.794465
_cell_length_b 11.794465
_cell_length_c 5.999056
_cell_angle_alpha 90.000000
_cell_angle_beta 90.000000
_cell_angle_gamma 120.000000
_cell_volume 722.719944
_symmetry_space_group_name_H-M "P 32"
_symmetry_group_IT_number 145
_symmetry_cell_setting 'hexagonal'
loop_
_space_group_symop_operation_xyz
x,y,z
-y,x-y,2/3+z
-x+y,-x,1/3+z
loop_
_atom_site_type_symbol
_atom_site_label
_atom_site_fract_x
_atom_site_fract_y
_atom_site_fract_z
Si Si1 0.838248 0.617504 0.052460
Si Si2 0.714086 0.904007 0.110907
Si Si3 0.529249 0.663175 0.436621
Si Si4 0.942285 0.067781 0.625806
Si Si5 0.522405 0.855067 0.753803
Si Si6 0.572021 0.505698 0.793648
O O1 0.878887 0.719644 0.259417
O O2 0.830747 0.478614 0.093207
O O3 0.701356 0.583736 0.941347
O O4 0.961440 0.698972 0.886237
O O5 0.620268 0.781564 0.270452
O O6 0.845427 0.897959 0.108310
O O7 0.661587 0.894260 0.862856
O O8 0.481686 0.723622 0.626656
O O9 0.406021 0.560663 0.300111
O O10 0.589013 0.584281 0.564213
O O11 0.029167 0.105522 0.852273
O O12 0.508607 0.954527 0.591931
#
# Coordination Sequence:
#
# PCOD9574609 Si02
#       6
#     3   3   3   3   3   3
#     4  11  25  52  70 111 151 200 254 298 382 447
#     4  11  25  46  72 109 148 192 255 306 374 438
#     4  12  25  47  73 110 149 197 246 312 370 443
#     4  10  24  43  76 112 143 194 247 313 369 433
#     4  12  25  45  75 109 150 198 243 309 369 443
#     4  12  28  49  76 109 157 199 249 310 374 456
#
# _framework density 24.905912000000001
#
# number of rings (size 3 to 8) (size 9 to 14) (size 15 to 20)
#    0.000    0.667    3.333    3.000    2.333   13.333 
#    6.000    0.000    0.000    0.000    0.000    0.000 
#    0.000    0.000    0.000    0.000    0.000    0.000 
#
# Total GULP energy -100747.780864 kJ/mol
# GULP energy per Si atom -5597.098937 kJ/mol
# Density = 2.484922 g / cm^3
# Si number density = 24.905912 Si / 1000 Ang^3
#
#
#
# Elastic Constant Matrix: (Units=GPa)
#
#
# Indices 1 2 3 4 5 6 
#
# 1 85.6206 13.9673 25.1093 2.3821 7.4908 0.0000
# 2 13.9673 85.6206 25.1093 -2.3821 -7.4908 0.0000
# 3 25.1093 25.1093 75.5220 0.0000 0.0000 0.0000
# 4 2.3821 -2.3821 0.0000 45.8650 0.0000 -7.4908
# 5 7.4908 -7.4908 0.0000 0.0000 45.8650 2.3821
# 6 0.0000 0.0000 0.0000 -7.4908 2.3821 35.8266
#
#
#
# Elastic Compliance Matrix: (Units=1/GPa)
#
#
# Indices 1 2 3 4 5 6 
#
# 1 0.013283 -0.001219 -0.004011 -0.000753 -0.002368 0.000000
# 2 -0.001219 0.013283 -0.004011 0.000753 0.002368 0.000000
# 3 -0.004011 -0.004011 0.015908 0.000000 0.000000 0.000000
# 4 -0.000753 0.000753 0.000000 0.022655 0.000000 0.004737
# 5 -0.002368 0.002368 0.000000 0.000000 0.022655 -0.001506
# 6 0.000000 0.000000 0.000000 0.004737 -0.001506 0.029003
#
#
# Mechanical properties :
#
#
# Convention : Reuss Voigt Hill
#
# Bulk Modulus (GPa) = 41.68006 41.68167 41.68086
# Shear Modulus (GPa) = 34.90032 37.68314 36.29173
#
# Velocity S-wave (km/s) = 3.74744 3.89398 3.82141
# Velocity P-wave (km/s) = 5.95783 6.08189 6.02018
#
# Compressibility (1/GPa) = 0.02399229
#
# Stress axis : x y z
#
# Youngs Moduli (GPa) = 75.28605 75.28605 62.86029
#
# Poissons Ratio (x) = 0.09175 0.25213
# Poissons Ratio (y) = 0.09175 0.25213
# Poissons Ratio (z) = 0.30197 0.30197
#
# Static dielectric constant tensor:
#      x y z
#    x 2.003340 0.000000 0.000000 
#    y 0.000000 2.003340 0.000000 
#    z 0.000000 0.000000 1.976370 
# 
# From -- ./inp_files/130.got.cif
#   From: 2010.05.17/outbox.cif.g08.bks.cpg/sg145_cif.got.tgz:130.got - 2010.05.20 13:47:28.
