data_PCOD9574363
_publ_section_title
;
Structure prediction by ZEFSAII (Michael W. Deem and Ramdas Pophale) SiO2 
 PCOD9574363
Probable space group: P 31
;
_chemical_formula_sum "Si O2"
_cell_formula_units_Z 24
_cell_length_a 9.326028
_cell_length_b 9.326028
_cell_length_c 16.212815
_cell_angle_alpha 90.000000
_cell_angle_beta 90.000000
_cell_angle_gamma 120.000000
_cell_volume 1221.187890
_symmetry_space_group_name_H-M "P 31"
_symmetry_group_IT_number 144
_symmetry_cell_setting 'hexagonal'
loop_
_space_group_symop_operation_xyz
x,y,z
-y,x-y,1/3+z
-x+y,-x,2/3+z
loop_
_atom_site_type_symbol
_atom_site_label
_atom_site_fract_x
_atom_site_fract_y
_atom_site_fract_z
Si Si1 0.779421 0.944037 0.133940
Si Si2 0.469548 0.491733 0.348975
Si Si3 0.708707 0.605872 0.203838
Si Si4 0.953232 0.580871 0.333705
Si Si5 0.316636 0.250645 0.977483
Si Si6 0.635974 0.749479 0.631077
Si Si7 0.717813 0.343855 0.723665
Si Si8 0.705550 0.810164 0.447000
O O1 0.776462 0.774210 0.152330
O O2 0.666363 0.930047 0.056670
O O3 0.724657 0.992265 0.219512
O O4 0.955281 0.105104 0.112908
O O5 0.559535 0.581079 0.263559
O O6 0.276593 0.430541 0.352826
O O7 0.500517 0.338047 0.356331
O O8 0.579449 0.622346 0.419258
O O9 0.853266 0.617246 0.263424
O O10 0.644625 0.449047 0.143639
O O11 0.806484 0.447230 0.393282
O O12 0.051755 0.496908 0.296573
O O13 0.246846 0.052915 0.988375
O O14 0.511734 0.345728 0.994398
O O15 0.236422 0.309245 0.047107
O O16 0.663561 0.828295 0.540369
#
# Coordination Sequence:
#
# PCOD9574363 Si02
#       8
#     3   3   3   3   3   3   3   3
#     4  11  21  39  66  91 130 169 214 269 319 388
#     4  11  22  41  63  94 123 167 208 257 325 380
#     4  11  22  40  67  91 123 173 217 258 320 391
#     4  10  22  41  64  97 126 169 212 267 333 378
#     4  10  22  41  63  95 124 170 211 267 325 378
#     4  10  24  39  66  93 132 162 216 267 322 386
#     4  10  22  38  67  89 124 161 218 254 315 388
#     4  11  21  43  64  86 132 167 206 267 327 375
#
# _framework density 19.652992999999999
#
# number of rings (size 3 to 8) (size 9 to 14) (size 15 to 20)
#    0.000    1.500    3.750    1.500    7.000    2.000 
#    0.000    0.000    0.000    0.000    0.000    0.000 
#    0.000    0.000    0.000    0.000    0.000    0.000 
#
# Total GULP energy -133979.528174 kJ/mol
# GULP energy per Si atom -5582.480341 kJ/mol
# Density = 1.960826 g / cm^3
# Si number density = 19.652993 Si / 1000 Ang^3
#
#
#
# Elastic Constant Matrix: (Units=GPa)
#
#
# Indices 1 2 3 4 5 6 
#
# 1 65.4165 23.4333 13.3154 2.7275 -1.2979 0.0000
# 2 23.4333 65.4165 13.3154 -2.7275 1.2979 0.0000
# 3 13.3154 13.3154 37.5621 0.0000 0.0000 0.0000
# 4 2.7275 -2.7275 0.0000 30.0506 0.0000 1.2979
# 5 -1.2979 1.2979 0.0000 0.0000 30.0506 2.7275
# 6 0.0000 0.0000 0.0000 1.2979 2.7275 20.9916
#
#
#
# Elastic Compliance Matrix: (Units=1/GPa)
#
#
# Indices 1 2 3 4 5 6 
#
# 1 0.018381 -0.005788 -0.004464 -0.002194 0.001044 0.000000
# 2 -0.005788 0.018381 -0.004464 0.002194 -0.001044 0.000000
# 3 -0.004464 -0.004464 0.029788 0.000000 0.000000 0.000000
# 4 -0.002194 0.002194 0.000000 0.033766 0.000000 -0.002088
# 5 0.001044 -0.001044 0.000000 0.000000 0.033766 -0.004387
# 6 0.000000 0.000000 0.000000 -0.002088 -0.004387 0.048337
#
#
# Mechanical properties :
#
#
# Convention : Reuss Voigt Hill
#
# Bulk Modulus (GPa) = 26.94177 29.83594 28.38885
# Shear Modulus (GPa) = 22.29934 24.10729 23.20332
#
# Velocity S-wave (km/s) = 3.37212 3.50615 3.43979
# Velocity P-wave (km/s) = 5.37588 5.62184 5.50024
#
# Compressibility (1/GPa) = 0.03711709
#
# Stress axis : x y z
#
# Youngs Moduli (GPa) = 54.40465 54.40465 33.57112
#
# Poissons Ratio (x) = 0.31488 0.14986
# Poissons Ratio (y) = 0.31488 0.14986
# Poissons Ratio (z) = 0.24287 0.24287
#
# Static dielectric constant tensor:
#      x y z
#    x 1.701990 0.000000 0.000000 
#    y 0.000000 1.701990 0.000000 
#    z 0.000000 0.000000 1.690410 
# 
# From -- ./inp_files/832.got.cif
#   From: 2010.05.17/outbox.cif.g08.bks.cpg/sg144_cif.got.tgz:832.got - 2010.05.20 13:46:34.
