data_PCOD9574639
_publ_section_title
;
Structure prediction by ZEFSAII (Michael W. Deem and Ramdas Pophale) SiO2 
 PCOD9574639
Probable space group: P 32
;
_chemical_formula_sum "Si O2"
_cell_formula_units_Z 12
_cell_length_a 7.284532
_cell_length_b 7.284532
_cell_length_c 9.227976
_cell_angle_alpha 90.000000
_cell_angle_beta 90.000000
_cell_angle_gamma 120.000000
_cell_volume 424.072782
_symmetry_space_group_name_H-M "P 32"
_symmetry_group_IT_number 145
_symmetry_cell_setting 'hexagonal'
loop_
_space_group_symop_operation_xyz
x,y,z
-y,x-y,2/3+z
-x+y,-x,1/3+z
loop_
_atom_site_type_symbol
_atom_site_label
_atom_site_fract_x
_atom_site_fract_y
_atom_site_fract_z
Si Si1 0.513765 0.807361 0.262260
Si Si2 0.810784 0.656329 0.395347
Si Si3 0.807362 0.513765 0.081073
Si Si4 0.656330 0.810784 0.947985
O O1 0.649294 0.740942 0.367988
O O2 0.298636 0.589269 0.233151
O O3 0.505636 1.000000 0.338332
O O4 0.641426 0.881640 0.111681
O O5 0.709367 0.410730 0.443514
O O6 0.999999 0.794248 0.504999
O O7 0.881641 0.641427 0.231651
O O8 0.740943 0.649294 0.975344
#
# Coordination Sequence:
#
# PCOD9574639 Si02
#       4
#     3   3   3   3
#     4  11  28  48  78 115 159 216 263 344 406 482
#     4  11  25  49  76 116 157 206 278 323 410 485
#     4  11  28  48  78 115 159 216 263 344 406 482
#     4  11  25  49  76 116 157 206 278 323 410 485
#
# _framework density 28.297032000000002
#
# number of rings (size 3 to 8) (size 9 to 14) (size 15 to 20)
#    0.000    1.000    5.000    0.000   14.000    0.000 
#    0.000    2.500    0.000    0.000    0.000    0.000 
#    0.000    0.000    0.000    0.000    0.000    0.000 
#
# Total GULP energy -67358.075684 kJ/mol
# GULP energy per Si atom -5613.172974 kJ/mol
# Density = 2.823263 g / cm^3
# Si number density = 28.297032 Si / 1000 Ang^3
#
#
#
# Elastic Constant Matrix: (Units=GPa)
#
#
# Indices 1 2 3 4 5 6 
#
# 1 142.0876 40.1921 67.8284 1.8913 0.0001 0.0000
# 2 40.1921 142.0876 67.8284 -1.8913 -0.0001 0.0000
# 3 67.8284 67.8284 148.8759 0.0000 0.0000 0.0000
# 4 1.8913 -1.8913 0.0000 69.9098 0.0000 -0.0001
# 5 0.0001 -0.0001 0.0000 0.0000 69.9098 1.8913
# 6 0.0000 0.0000 0.0000 -0.0001 1.8913 50.9478
#
#
#
# Elastic Compliance Matrix: (Units=1/GPa)
#
#
# Indices 1 2 3 4 5 6 
#
# 1 0.009062 -0.000762 -0.003782 -0.000266 0.000000 0.000000
# 2 -0.000762 0.009062 -0.003782 0.000266 0.000000 0.000000
# 3 -0.003782 -0.003782 0.010163 0.000000 0.000000 0.000000
# 4 -0.000266 0.000266 0.000000 0.014319 0.000000 0.000000
# 5 0.000000 0.000000 0.000000 0.000000 0.014319 -0.000532
# 6 0.000000 0.000000 0.000000 0.000000 -0.000532 0.019648
#
#
# Mechanical properties :
#
#
# Convention : Reuss Voigt Hill
#
# Bulk Modulus (GPa) = 85.93257 87.19430 86.56343
# Shear Modulus (GPa) = 51.49255 55.30029 53.39642
#
# Velocity S-wave (km/s) = 4.27044 4.42552 4.34867
# Velocity P-wave (km/s) = 7.39929 7.54947 7.47476
#
# Compressibility (1/GPa) = 0.01163703
#
# Stress axis : x y z
#
# Youngs Moduli (GPa) = 110.34858 110.34858 98.39643
#
# Poissons Ratio (x) = 0.08405 0.37211
# Poissons Ratio (y) = 0.08405 0.37211
# Poissons Ratio (z) = 0.41731 0.41731
#
# Static dielectric constant tensor:
#      x y z
#    x 2.170560 0.000000 0.000000 
#    y 0.000000 2.170560 0.000000 
#    z 0.000000 0.000000 2.240080 
# 
# From -- ./inp_files/254.got.cif
#   From: 2010.05.17/outbox.cif.g08.bks.cpg/sg145_cif.got.tgz:254.got - 2010.05.20 13:47:28.
