data_PCOD9574404
_publ_section_title
;
Structure prediction by ZEFSAII (Michael W. Deem and Ramdas Pophale) SiO2 
 PCOD9574404
Probable space group: P 31
;
_chemical_formula_sum "Si O2"
_cell_formula_units_Z 12
_cell_length_a 9.565555
_cell_length_b 9.565555
_cell_length_c 5.502148
_cell_angle_alpha 90.000000
_cell_angle_beta 90.000000
_cell_angle_gamma 120.000000
_cell_volume 435.996744
_symmetry_space_group_name_H-M "P 31"
_symmetry_group_IT_number 144
_symmetry_cell_setting 'hexagonal'
loop_
_space_group_symop_operation_xyz
x,y,z
-y,x-y,1/3+z
-x+y,-x,2/3+z
loop_
_atom_site_type_symbol
_atom_site_label
_atom_site_fract_x
_atom_site_fract_y
_atom_site_fract_z
Si Si1 0.440010 0.323752 0.181600
Si Si2 0.888859 0.054562 0.849462
Si Si3 0.489301 0.780927 0.339399
Si Si4 0.662773 0.609598 0.508827
O O1 0.312475 0.267388 0.401639
O O2 0.355056 0.385012 0.987144
O O3 0.597688 0.471203 0.300240
O O4 0.453315 0.175916 0.068818
O O5 0.019365 0.122310 0.632210
O O6 0.946349 0.181552 0.066457
O O7 0.327851 0.773464 0.437064
O O8 0.542567 0.682095 0.525322
#
# Coordination Sequence:
#
# PCOD9574404 Si02
#       4
#     3   3   3   3
#     4  11  26  46  72 106 146 191 239 301 370 434
#     4  12  25  46  77 106 140 190 250 300 355 436
#     4  10  23  44  71 100 134 180 236 292 353 424
#     4  11  26  46  72 106 146 191 239 301 370 434
#
# _framework density 27.523140000000001
#
# number of rings (size 3 to 8) (size 9 to 14) (size 15 to 20)
#    0.000    1.000    0.000    6.000    0.000   20.000 
#    0.000    2.500    0.000    0.000    0.000    0.000 
#    0.000    0.000    0.000    0.000    0.000    0.000 
#
# Total GULP energy -67262.172466 kJ/mol
# GULP energy per Si atom -5605.181039 kJ/mol
# Density = 2.746050 g / cm^3
# Si number density = 27.523140 Si / 1000 Ang^3
#
#
#
# Elastic Constant Matrix: (Units=GPa)
#
#
# Indices 1 2 3 4 5 6 
#
# 1 103.4810 24.4726 21.1328 1.0811 0.8938 0.0000
# 2 24.4726 103.4810 21.1328 -1.0811 -0.8938 0.0000
# 3 21.1328 21.1328 88.0372 0.0000 0.0000 0.0000
# 4 1.0811 -1.0811 0.0000 37.0436 0.0000 -0.8938
# 5 0.8938 -0.8938 0.0000 0.0000 37.0436 1.0811
# 6 0.0000 0.0000 0.0000 -0.8938 1.0811 39.5042
#
#
#
# Elastic Compliance Matrix: (Units=1/GPa)
#
#
# Indices 1 2 3 4 5 6 
#
# 1 0.010581 -0.002093 -0.002038 -0.000370 -0.000306 0.000000
# 2 -0.002093 0.010581 -0.002038 0.000370 0.000306 0.000000
# 3 -0.002038 -0.002038 0.012337 0.000000 0.000000 0.000000
# 4 -0.000370 0.000370 0.000000 0.027032 0.000000 0.000612
# 5 -0.000306 0.000306 0.000000 0.000000 0.027032 -0.000740
# 6 0.000000 0.000000 0.000000 0.000612 -0.000740 0.025348
#
#
# Mechanical properties :
#
#
# Convention : Reuss Voigt Hill
#
# Bulk Modulus (GPa) = 47.25118 47.60838 47.42978
# Shear Modulus (GPa) = 37.79272 37.93571 37.86421
#
# Velocity S-wave (km/s) = 3.70959 3.71660 3.71310
# Velocity P-wave (km/s) = 5.96265 5.97935 5.97100
#
# Compressibility (1/GPa) = 0.02116349
#
# Stress axis : x y z
#
# Youngs Moduli (GPa) = 94.50769 94.50769 81.05666
#
# Poissons Ratio (x) = 0.19778 0.16516
# Poissons Ratio (y) = 0.19778 0.16516
# Poissons Ratio (z) = 0.19257 0.19257
#
# Static dielectric constant tensor:
#      x y z
#    x 2.096250 0.000000 0.000000 
#    y 0.000000 2.096250 0.000000 
#    z 0.000000 0.000000 2.125500 
# 
# From -- ./inp_files/46.got.cif
#   From: 2010.05.17/outbox.cif.g08.bks.cpg/sg144_cif.got.tgz:46.got - 2010.05.20 13:46:34.
