data_PCOD9574858
_publ_section_title
;
Structure prediction by ZEFSAII (Michael W. Deem and Ramdas Pophale) SiO2 
 PCOD9574858
Probable space group: P -3
;
_chemical_formula_sum "Si O2"
_cell_formula_units_Z 40
_cell_length_a 17.992602
_cell_length_b 17.992602
_cell_length_c 10.148208
_cell_angle_alpha 90.000000
_cell_angle_beta 90.000000
_cell_angle_gamma 120.000000
_cell_volume 2845.168151
_symmetry_space_group_name_H-M "P -3"
_symmetry_group_IT_number 147
_symmetry_cell_setting 'hexagonal'
loop_
_space_group_symop_operation_xyz
x,y,z
-y,x-y,z
-x+y,-x,z
-x,-y,-z
y,-x+y,-z
x-y,x,-z
loop_
_atom_site_type_symbol
_atom_site_label
_atom_site_fract_x
_atom_site_fract_y
_atom_site_fract_z
Si Si1 0.052160 0.437028 0.120360
Si Si2 0.666667 0.333335 0.482281
Si Si3 0.232164 0.467198 0.201521
Si Si4 0.616006 0.553014 0.366427
Si Si5 0.763491 0.533027 0.478283
Si Si6 0.666668 0.333335 0.799465
Si Si7 0.066096 0.447907 0.606052
Si Si8 0.053392 0.613965 0.145003
O O1 0.135478 0.428590 0.148861
O O2 0.076561 0.536932 0.141537
O O3 0.976989 0.384699 0.226063
O O4 0.010425 0.406144 0.977330
O O5 0.712813 0.432042 0.443247
O O6 0.666668 0.333334 0.640932
O O7 0.230099 0.460128 0.361983
O O8 0.280669 0.567645 0.161790
O O9 0.293632 0.432890 0.146834
O O10 0.706448 0.570545 0.420620
O O11 0.575847 0.591540 0.468500
O O12 0.547978 0.450836 0.366426
O O13 0.855855 0.569278 0.412027
O O14 0.999143 0.397444 0.721386
#
# Coordination Sequence:
#
# PCOD9574858 Si02
#       8
#     6   2   6   6   6   2   6   6
#     4  10  21  34  47  68  98 129 163 204 248 288
#     4   9  18  24  39  76  92 124 174 208 236 271
#     4  11  18  31  51  69  91 129 170 210 240 286
#     4  10  19  30  46  69  94 122 162 207 244 278
#     4  11  18  29  49  71  96 126 170 214 239 275
#     4   9  18  24  45  73  89 118 180 208 230 280
#     4  10  19  30  46  69  94 122 162 207 244 278
#     4  10  21  34  47  68  98 129 163 204 248 288
#
# _framework density 14.058923999999999
#
# number of rings (size 3 to 8) (size 9 to 14) (size 15 to 20)
#    0.000    1.800    6.000    0.000    0.000    1.200 
#    0.000    0.000    0.000    0.000    0.000    0.000 
#    0.000    0.000    0.000   18.000    0.000    0.000 
#
# Total GULP energy -222884.138020 kJ/mol
# GULP energy per Si atom -5572.103451 kJ/mol
# Density = 1.402692 g / cm^3
# Si number density = 14.058924 Si / 1000 Ang^3
#
#
#
# Elastic Constant Matrix: (Units=GPa)
#
#
# Indices 1 2 3 4 5 6 
#
# 1 58.3753 16.0940 -0.0140 0.7619 2.8512 -0.0001
# 2 16.0940 58.3766 -0.0139 -0.7619 -2.8512 0.0001
# 3 -0.0140 -0.0139 35.0116 0.0000 0.0001 0.0000
# 4 0.7619 -0.7619 0.0000 13.7850 0.0000 -2.8512
# 5 2.8512 -2.8512 0.0001 0.0000 13.7848 0.7619
# 6 -0.0001 0.0001 0.0000 -2.8512 0.7619 21.1406
#
#
#
# Elastic Compliance Matrix: (Units=1/GPa)
#
#
# Indices 1 2 3 4 5 6 
#
# 1 0.018904 -0.005476 0.000005 -0.001347 -0.005043 0.000000
# 2 -0.005476 0.018904 0.000005 0.001347 0.005043 0.000000
# 3 0.000005 0.000005 0.028562 0.000000 0.000000 0.000000
# 4 -0.001347 0.001347 0.000000 0.074778 0.000000 0.010085
# 5 -0.005043 0.005043 0.000000 0.000000 0.074779 -0.002695
# 6 0.000000 0.000000 0.000000 0.010085 -0.002695 0.048760
#
#
# Mechanical properties :
#
#
# Convention : Reuss Voigt Hill
#
# Bulk Modulus (GPa) = 18.03758 20.43288 19.23523
# Shear Modulus (GPa) = 17.00129 18.78856 17.89492
#
# Velocity S-wave (km/s) = 3.48125 3.65967 3.57158
# Velocity P-wave (km/s) = 5.38671 5.69411 5.54254
#
# Compressibility (1/GPa) = 0.05543981
#
# Stress axis : x y z
#
# Youngs Moduli (GPa) = 52.89876 52.90000 35.01157
#
# Poissons Ratio (x) = 0.28966 -0.00019
# Poissons Ratio (y) = 0.28965 -0.00019
# Poissons Ratio (z) = -0.00028 -0.00028
#
# Static dielectric constant tensor:
#      x y z
#    x 1.458000 0.000000 0.000000 
#    y 0.000000 1.458000 0.000000 
#    z 0.000000 0.000000 1.461980 
# 
# From -- ./inp_files/659.got.cif
#   From: 2010.05.17/outbox.cif.g08.bks.cpg/sg147_cif.got.tgz:659.got - 2010.05.20 13:49:32.
