data_PCOD9574013
_publ_section_title
;
Structure prediction by ZEFSAII (Michael W. Deem and Ramdas Pophale) SiO2 
 PCOD9574013
Probable space group: I 41/A C D
;
_chemical_formula_sum "Si O2"
_cell_formula_units_Z 32
_cell_length_a 12.471981
_cell_length_b 12.471981
_cell_length_c 6.910891
_cell_angle_alpha 90.000000
_cell_angle_beta 90.000000
_cell_angle_gamma 90.000000
_cell_volume 1074.991238
_symmetry_space_group_name_H-M "I 41/A C D"
_symmetry_group_IT_number 142
_space_group.IT_coordinate_system_code '2'
_symmetry_cell_setting 'tetragonal'
loop_
_space_group_symop_operation_xyz
x,y,z
1/4-y,3/4+x,1/4+z
-x,1/2-y,z
1/4+y,1/4-x,3/4+z
x,-y,1/2-z
1/2-x,y,-z
3/4+y,1/4+x,1/4-z
1/4-y,1/4-x,1/4-z
-x,-y,-z
3/4+y,1/4-x,3/4-z
x,1/2+y,-z
3/4-y,3/4+x,1/4-z
-x,y,1/2+z
1/2+x,-y,z
1/4-y,3/4-x,3/4+z
3/4+y,3/4+x,3/4+z
1/2+x,1/2+y,1/2+z
3/4-y,1/4+x,3/4+z
1/2-x,-y,1/2+z
3/4+y,3/4-x,1/4+z
1/2+x,1/2-y,-z
-x,1/2+y,1/2-z
1/4+y,3/4+x,3/4-z
3/4-y,3/4-x,3/4-z
1/2-x,1/2-y,1/2-z
1/4+y,3/4-x,1/4-z
1/2+x,y,1/2-z
1/4-y,1/4+x,3/4-z
1/2-x,1/2+y,z
x,1/2-y,1/2+z
3/4-y,1/4-x,1/4+z
1/4+y,1/4+x,1/4+z
loop_
_atom_site_type_symbol
_atom_site_label
_atom_site_fract_x
_atom_site_fract_y
_atom_site_fract_z
Si Si1 0.575482 0.500000 0.750000
Si Si2 0.374280 0.124280 0.375000
O O1 0.633961 0.455087 0.560195
O O2 0.493198 0.595974 0.695999
#
# Coordination Sequence:
#
# PCOD9574013 Si02
#       2
#    16  16
#     4  10  24  44  70 106 152 202 256 316 388 464
#     4  10  24  43  70 106 152 203 256 318 388 465
#
# _framework density 29.767685
#
# number of rings (size 3 to 8) (size 9 to 14) (size 15 to 20)
#    0.000    2.000    0.000    0.000    0.000   26.000 
#    0.000    0.000    0.000    0.000    0.000    0.000 
#    0.000    0.000    0.000    0.000    0.000    0.000 
#
# Total GULP energy -89637.697012 kJ/mol
# GULP energy per Si atom -5602.356063 kJ/mol
# Density = 2.969993 g / cm^3
# Si number density = 29.767685 Si / 1000 Ang^3
#
#
#
# Elastic Constant Matrix: (Units=GPa)
#
#
# Indices 1 2 3 4 5 6 
#
# 1 130.5531 109.7751 116.7792 0.0000 0.0000 0.0000
# 2 109.7751 130.5531 116.7792 0.0000 0.0000 0.0000
# 3 116.7792 116.7792 314.6919 0.0000 0.0000 0.0000
# 4 0.0000 0.0000 0.0000 101.9078 0.0000 0.0000
# 5 0.0000 0.0000 0.0000 0.0000 101.9078 0.0000
# 6 0.0000 0.0000 0.0000 0.0000 0.0000 111.2978
#
#
#
# Elastic Compliance Matrix: (Units=1/GPa)
#
#
# Indices 1 2 3 4 5 6 
#
# 1 0.027318 -0.020810 -0.002415 0.000000 0.000000 0.000000
# 2 -0.020810 0.027318 -0.002415 0.000000 0.000000 0.000000
# 3 -0.002415 -0.002415 0.004970 0.000000 0.000000 0.000000
# 4 0.000000 0.000000 0.000000 0.009813 0.000000 0.000000
# 5 0.000000 0.000000 0.000000 0.000000 0.009813 0.000000
# 6 0.000000 0.000000 0.000000 0.000000 0.000000 0.008985
#
#
# Mechanical properties :
#
#
# Convention : Reuss Voigt Hill
#
# Bulk Modulus (GPa) = 120.10719 140.27391 130.19055
# Shear Modulus (GPa) = 35.14398 78.52033 56.83215
#
# Velocity S-wave (km/s) = 3.43973 5.14150 4.37417
# Velocity P-wave (km/s) = 7.49743 9.08140 8.32716
#
# Compressibility (1/GPa) = 0.00832590
#
# Stress axis : x y z
#
# Youngs Moduli (GPa) = 36.60598 36.60598 201.20226
#
# Poissons Ratio (x) = 0.76177 0.48592
# Poissons Ratio (y) = 0.76177 0.48592
# Poissons Ratio (z) = 0.08841 0.08841
#
# Static dielectric constant tensor:
#      x y z
#    x 2.323290 0.000000 0.000000 
#    y 0.000000 2.323290 0.000000 
#    z 0.000000 0.000000 2.266400 
# 
# From -- ./inp_files/787.got.cif
#   From: 2010.05.17/outbox.cif.g08.bks.cpg/sg142_1_cif.got.tgz:787.got - 2010.05.20 13:39:18.
