data_PCOD9574311
_publ_section_title
;
Structure prediction by ZEFSAII (Michael W. Deem and Ramdas Pophale) SiO2 
 PCOD9574311
Probable space group: P 31
;
_chemical_formula_sum "Si O2"
_cell_formula_units_Z 15
_cell_length_a 8.462708
_cell_length_b 8.462708
_cell_length_c 12.827163
_cell_angle_alpha 90.000000
_cell_angle_beta 90.000000
_cell_angle_gamma 120.000000
_cell_volume 795.572857
_symmetry_space_group_name_H-M "P 31"
_symmetry_group_IT_number 144
_symmetry_cell_setting 'hexagonal'
loop_
_space_group_symop_operation_xyz
x,y,z
-y,x-y,1/3+z
-x+y,-x,2/3+z
loop_
_atom_site_type_symbol
_atom_site_label
_atom_site_fract_x
_atom_site_fract_y
_atom_site_fract_z
Si Si1 0.547345 0.094657 0.639210
Si Si2 0.638046 0.043148 0.044075
Si Si3 0.329809 0.479406 0.500231
Si Si4 0.956887 0.361617 0.567714
Si Si5 0.149603 0.479202 0.778256
O O1 0.451426 0.209316 0.675097
O O2 0.757921 0.208785 0.603237
O O3 0.552310 0.979389 0.736917
O O4 0.426775 0.979302 0.541616
O O5 0.538485 0.077253 0.139247
O O6 0.672061 0.882806 0.089322
O O7 0.514644 0.945415 0.941523
O O8 0.330709 0.665393 0.472547
O O9 0.117457 0.327950 0.522481
O O10 0.054389 0.484933 0.670329
#
# Coordination Sequence:
#
# PCOD9574311 Si02
#       5
#     3   3   3   3   3
#     4  12  22  38  64  90 120 160 210 260 314 380
#     4  10  20  36  60  86 117 156 204 252 309 375
#     4  10  21  39  60  86 122 162 203 256 320 377
#     4  10  20  36  60  86 117 156 204 252 309 375
#     4  10  21  39  60  86 122 162 203 256 320 377
#
# _framework density 18.854336
#
# number of rings (size 3 to 8) (size 9 to 14) (size 15 to 20)
#    0.000    1.600    0.000    8.400    0.000    0.000 
#    0.000    8.000    0.000   14.400    0.000    0.000 
#    0.000    0.000    0.000    0.000    0.000    0.000 
#
# Total GULP energy -83502.123949 kJ/mol
# GULP energy per Si atom -5566.808263 kJ/mol
# Density = 1.881142 g / cm^3
# Si number density = 18.854336 Si / 1000 Ang^3
#
#
#
# Elastic Constant Matrix: (Units=GPa)
#
#
# Indices 1 2 3 4 5 6 
#
# 1 100.0320 77.1719 76.2588 0.0352 3.9075 0.0000
# 2 77.1719 100.0320 76.2588 -0.0352 -3.9075 0.0000
# 3 76.2588 76.2588 184.9657 0.0000 0.0000 0.0000
# 4 0.0352 -0.0352 0.0000 45.9306 0.0000 -3.9075
# 5 3.9075 -3.9075 0.0000 0.0000 45.9306 0.0352
# 6 0.0000 0.0000 0.0000 -3.9075 0.0352 11.4301
#
#
#
# Elastic Compliance Matrix: (Units=1/GPa)
#
#
# Indices 1 2 3 4 5 6 
#
# 1 0.026901 -0.018154 -0.003606 -0.000035 -0.003833 0.000000
# 2 -0.018154 0.026901 -0.003606 0.000035 0.003833 0.000000
# 3 -0.003606 -0.003606 0.008380 0.000000 0.000000 0.000000
# 4 -0.000035 0.000035 0.000000 0.022424 0.000000 0.007666
# 5 -0.003833 0.003833 0.000000 0.000000 0.022424 -0.000069
# 6 0.000000 0.000000 0.000000 0.007666 -0.000069 0.090110
#
#
# Mechanical properties :
#
#
# Convention : Reuss Voigt Hill
#
# Bulk Modulus (GPa) = 87.34336 93.82319 90.58327
# Shear Modulus (GPa) = 19.86577 31.01427 25.44002
#
# Velocity S-wave (km/s) = 3.24951 4.06019 3.67726
# Velocity P-wave (km/s) = 7.77850 8.47646 8.13497
#
# Compressibility (1/GPa) = 0.01144907
#
# Stress axis : x y z
#
# Youngs Moduli (GPa) = 37.17340 37.17340 119.33055
#
# Poissons Ratio (x) = 0.67484 0.43034
# Poissons Ratio (y) = 0.67484 0.43034
# Poissons Ratio (z) = 0.13406 0.13406
#
# Static dielectric constant tensor:
#      x y z
#    x 1.675730 0.000000 0.000000 
#    y 0.000000 1.675730 0.000000 
#    z 0.000000 0.000000 1.660170 
# 
# From -- ./inp_files/467.got.cif
#   From: 2010.05.17/outbox.cif.g08.bks.cpg/sg144_cif.got.tgz:467.got - 2010.05.20 13:46:34.
