data_PCOD9574903
_publ_section_title
;
Structure prediction by ZEFSAII (Michael W. Deem and Ramdas Pophale) SiO2 
 PCOD9574903
Probable space group: P -3
;
_chemical_formula_sum "Si O2"
_cell_formula_units_Z 48
_cell_length_a 12.617671
_cell_length_b 12.617671
_cell_length_c 20.990531
_cell_angle_alpha 90.000000
_cell_angle_beta 90.000000
_cell_angle_gamma 120.000000
_cell_volume 2894.092816
_symmetry_space_group_name_H-M "P -3"
_symmetry_group_IT_number 147
_symmetry_cell_setting 'hexagonal'
loop_
_space_group_symop_operation_xyz
x,y,z
-y,x-y,z
-x+y,-x,z
-x,-y,-z
y,-x+y,-z
x-y,x,-z
loop_
_atom_site_type_symbol
_atom_site_label
_atom_site_fract_x
_atom_site_fract_y
_atom_site_fract_z
Si Si1 0.081913 0.414763 0.374645
Si Si2 0.918087 0.332850 0.874645
Si Si3 0.252179 0.252181 0.999999
Si Si4 0.000220 0.747943 0.249999
Si Si5 0.747722 0.747943 0.250001
Si Si6 0.999999 0.747819 0.499999
Si Si7 0.081913 0.667150 0.374644
Si Si8 0.667150 0.081913 0.874644
O O1 0.074828 0.537414 0.374496
O O2 0.222724 0.445448 0.373015
O O3 0.017886 0.332540 0.312680
O O4 0.022386 0.335264 0.437965
O O5 0.982115 0.314655 0.812680
O O6 0.777276 0.222724 0.873015
O O7 0.925171 0.462586 0.874496
O O8 0.977614 0.312878 0.937965
O O9 0.335259 0.312877 0.937962
O O10 0.239206 0.119604 0.008673
O O11 0.017888 0.685344 0.312677
O O12 0.871707 0.743415 0.250000
O O13 0.111741 0.888259 0.250000
O O14 0.667455 0.685343 0.187323
O O15 0.022383 0.687124 0.437962
O O16 0.880396 0.760794 0.491327
#
# Coordination Sequence:
#
# PCOD9574903 Si02
#       8
#     6   6   6   6   6   6   6   6
#     4  10  20  34  53  76 103 135 170 208 250 299
#     4  10  20  34  53  76 103 135 170 208 250 299
#     4  10  20  34  54  78 104 134 168 210 256 302
#     4  10  20  34  54  78 104 134 168 210 256 302
#     4  10  20  34  54  78 104 134 168 210 256 302
#     4  10  20  34  54  78 104 134 168 210 256 302
#     4  10  20  34  53  76 103 135 170 208 250 299
#     4  10  20  34  53  76 103 135 170 208 250 299
#
# _framework density 16.585508000000001
#
# number of rings (size 3 to 8) (size 9 to 14) (size 15 to 20)
#    0.000    2.000    0.000    4.000    0.000    0.000 
#    0.000    7.500    0.000   17.000    0.000    0.000 
#    0.000    0.000    0.000    0.000    0.000    0.000 
#
# Total GULP energy -268036.976795 kJ/mol
# GULP energy per Si atom -5584.103683 kJ/mol
# Density = 1.654776 g / cm^3
# Si number density = 16.585508 Si / 1000 Ang^3
#
#
#
# Elastic Constant Matrix: (Units=GPa)
#
#
# Indices 1 2 3 4 5 6 
#
# 1 151.3946 113.6150 101.1805 0.0001 -0.0007 0.0000
# 2 113.6150 151.3946 101.1805 -0.0001 0.0007 0.0000
# 3 101.1805 101.1805 177.8650 0.0000 0.0000 0.0000
# 4 0.0001 -0.0001 0.0000 13.8871 0.0000 0.0007
# 5 -0.0007 0.0007 0.0000 0.0000 13.8871 0.0001
# 6 0.0000 0.0000 0.0000 0.0007 0.0001 18.8898
#
#
#
# Elastic Compliance Matrix: (Units=1/GPa)
#
#
# Indices 1 2 3 4 5 6 
#
# 1 0.016570 -0.009899 -0.003795 0.000000 0.000001 0.000000
# 2 -0.009899 0.016570 -0.003795 0.000000 -0.000001 0.000000
# 3 -0.003795 -0.003795 0.009940 0.000000 0.000000 0.000000
# 4 0.000000 0.000000 0.000000 0.072009 0.000000 -0.000003
# 5 0.000001 -0.000001 0.000000 0.000000 0.072009 0.000000
# 6 0.000000 0.000000 0.000000 -0.000003 0.000000 0.052939
#
#
# Mechanical properties :
#
#
# Convention : Reuss Voigt Hill
#
# Bulk Modulus (GPa) = 123.42025 123.62292 123.52159
# Shear Modulus (GPa) = 18.00394 20.31134 19.15764
#
# Velocity S-wave (km/s) = 3.29830 3.50329 3.40234
# Velocity P-wave (km/s) = 9.43828 9.54267 9.49062
#
# Compressibility (1/GPa) = 0.00810240
#
# Stress axis : x y z
#
# Youngs Moduli (GPa) = 60.34879 60.34879 100.60364
#
# Poissons Ratio (x) = 0.59739 0.38180
# Poissons Ratio (y) = 0.59739 0.38180
# Poissons Ratio (z) = 0.22903 0.22903
#
# Static dielectric constant tensor:
#      x y z
#    x 1.522780 0.000000 0.000000 
#    y 0.000000 1.522780 0.000000 
#    z 0.000000 0.000000 1.546320 
# 
# From -- ./inp_files/1088.got.cif
#   From: 2010.05.17/outbox.cif.g08.bks.cpg/sg147_cif.got.tgz:1088.got - 2010.05.20 13:49:32.
