data_PCOD9574205
_publ_section_title
;
Structure prediction by ZEFSAII (Michael W. Deem and Ramdas Pophale) SiO2 
 PCOD9574205
Probable space group: I 41/A C D
;
_chemical_formula_sum "Si O2"
_cell_formula_units_Z 96
_cell_length_a 30.989981
_cell_length_b 30.989981
_cell_length_c 5.131312
_cell_angle_alpha 90.000000
_cell_angle_beta 90.000000
_cell_angle_gamma 90.000000
_cell_volume 4928.003889
_symmetry_space_group_name_H-M "I 41/A C D"
_symmetry_group_IT_number 142
_space_group.IT_coordinate_system_code '2'
_symmetry_cell_setting 'tetragonal'
loop_
_space_group_symop_operation_xyz
x,y,z
1/4-y,3/4+x,1/4+z
-x,1/2-y,z
1/4+y,1/4-x,3/4+z
x,-y,1/2-z
1/2-x,y,-z
3/4+y,1/4+x,1/4-z
1/4-y,1/4-x,1/4-z
-x,-y,-z
3/4+y,1/4-x,3/4-z
x,1/2+y,-z
3/4-y,3/4+x,1/4-z
-x,y,1/2+z
1/2+x,-y,z
1/4-y,3/4-x,3/4+z
3/4+y,3/4+x,3/4+z
1/2+x,1/2+y,1/2+z
3/4-y,1/4+x,3/4+z
1/2-x,-y,1/2+z
3/4+y,3/4-x,1/4+z
1/2+x,1/2-y,-z
-x,1/2+y,1/2-z
1/4+y,3/4+x,3/4-z
3/4-y,3/4-x,3/4-z
1/2-x,1/2-y,1/2-z
1/4+y,3/4-x,1/4-z
1/2+x,y,1/2-z
1/4-y,1/4+x,3/4-z
1/2-x,1/2+y,z
x,1/2-y,1/2+z
3/4-y,1/4-x,1/4+z
1/4+y,1/4+x,1/4+z
loop_
_atom_site_type_symbol
_atom_site_label
_atom_site_fract_x
_atom_site_fract_y
_atom_site_fract_z
Si Si1 0.750000 0.629107 0.000000
Si Si2 0.439185 0.500000 0.250000
Si Si3 0.154102 0.775416 0.531169
Si Si4 0.383227 0.133227 0.875000
Si Si5 0.339722 0.910279 0.125000
O O1 0.759117 0.659822 0.246705
O O2 0.710323 0.600319 0.095329
O O3 0.465591 0.544228 0.283559
O O4 0.143878 0.762752 0.827663
O O5 0.128874 0.816983 0.422539
O O6 0.360642 0.112226 0.624932
#
# Coordination Sequence:
#
# PCOD9574205 Si02
#       5
#    16  16  32  16  16
#     4  12  22  39  65  92 130 178 224 262 305 381
#     4  12  22  41  63 100 132 164 208 276 333 381
#     4  12  24  41  66  99 130 166 212 267 330 396
#     4  12  24  44  67  89 134 172 210 265 328 401
#     4  12  22  42  63  92 128 181 224 255 316 373
#
# _framework density 19.480505999999998
#
# number of rings (size 3 to 8) (size 9 to 14) (size 15 to 20)
#    0.000    0.000    6.667    5.000    0.000    0.000 
#    0.000    3.333    0.000    3.000    0.000    0.000 
#    0.000    0.000    0.000    0.000    0.000    0.000 
#
# Total GULP energy -268357.833914 kJ/mol
# GULP energy per Si atom -5590.788207 kJ/mol
# Density = 1.943617 g / cm^3
# Si number density = 19.480506 Si / 1000 Ang^3
#
#
#
# Elastic Constant Matrix: (Units=GPa)
#
#
# Indices 1 2 3 4 5 6 
#
# 1 66.6534 10.1061 -7.5234 0.0000 0.0000 0.0000
# 2 10.1061 66.6559 -7.5217 0.0000 0.0000 0.0000
# 3 -7.5234 -7.5217 84.2703 0.0000 0.0000 0.0000
# 4 0.0000 0.0000 0.0000 58.4003 0.0000 0.0000
# 5 0.0000 0.0000 0.0000 0.0000 58.4124 0.0000
# 6 0.0000 0.0000 0.0000 0.0000 0.0000 -73.7293
#
#
#
# Elastic Compliance Matrix: (Units=1/GPa)
#
#
# Indices 1 2 3 4 5 6 
#
# 1 0.015472 -0.002212 0.001184 0.000000 0.000000 0.000000
# 2 -0.002212 0.015471 0.001183 0.000000 0.000000 0.000000
# 3 0.001184 0.001183 0.012078 0.000000 0.000000 0.000000
# 4 0.000000 0.000000 0.000000 0.017123 0.000000 0.000000
# 5 0.000000 0.000000 0.000000 0.000000 0.017120 0.000000
# 6 0.000000 0.000000 0.000000 0.000000 0.000000 -0.013563
#
#
# Mechanical properties :
#
#
# Convention : Reuss Voigt Hill
#
# Bulk Modulus (GPa) = 23.07795 23.07795 23.07795
# Shear Modulus (GPa) = 64.23869 23.45125 43.84497
#
# Velocity S-wave (km/s) = 5.74869 3.47339 4.74931
# Velocity P-wave (km/s) = 7.47902 5.28757 6.47665
#
# Compressibility (1/GPa) = 0.04333140
#
# Stress axis : x y z
#
# Youngs Moduli (GPa) = 64.63278 64.63554 82.79583
#
# Poissons Ratio (x) = 0.14299 -0.09802
# Poissons Ratio (y) = 0.14298 -0.09798
# Poissons Ratio (z) = -0.07652 -0.07649
#
# Static dielectric constant tensor:
#      x y z
#    x 1.693620 0.000000 0.000000 
#    y 0.000000 1.693610 0.000000 
#    z 0.000000 0.000000 1.667940 
# 
# From -- ./inp_files/705.got.cif
#   From: 2010.05.17/outbox.cif.g08.bks.cpg/sg142_1_cif.got.tgz:705.got - 2010.05.20 13:39:18.
