data_PCOD9574686
_publ_section_title
;
Structure prediction by ZEFSAII (Michael W. Deem and Ramdas Pophale) SiO2 
 PCOD9574686
Probable space group: R 3
;
_chemical_formula_sum "Si O2"
_cell_formula_units_Z 60
_cell_length_a 15.898665
_cell_length_b 15.898665
_cell_length_c 13.026546
_cell_angle_alpha 90.000000
_cell_angle_beta 90.000000
_cell_angle_gamma 120.000000
_cell_volume 2851.551543
_symmetry_space_group_name_H-M "R 3"
_symmetry_group_IT_number 146
_symmetry_cell_setting 'hexagonal'
loop_
_space_group_symop_operation_xyz
x,y,z
-y,x-y,z
-x+y,-x,z
2/3+x,1/3+y,1/3+z
2/3-y,1/3+x-y,1/3+z
2/3-x+y,1/3-x,1/3+z
1/3+x,2/3+y,2/3+z
1/3-y,2/3+x-y,2/3+z
1/3-x+y,2/3-x,2/3+z
loop_
_atom_site_type_symbol
_atom_site_label
_atom_site_fract_x
_atom_site_fract_y
_atom_site_fract_z
Si Si1 0.000000 0.000000 0.824156
Si Si2 0.261483 0.479774 0.133918
Si Si3 0.351514 0.294700 0.920099
Si Si4 0.000000 0.000000 0.579494
Si Si5 0.478197 0.879288 0.552291
Si Si6 0.068129 0.495511 0.765548
Si Si7 0.182504 0.191019 0.256850
Si Si8 0.534882 0.496740 0.426023
O O1 0.000000 0.000000 0.701407
O O2 0.899667 0.983792 0.867083
O O3 0.332852 0.451594 0.194751
O O4 0.438226 0.695516 0.200292
O O5 0.159404 0.380520 0.117507
O O6 0.307783 0.518265 0.022076
O O7 0.254991 0.251086 0.849929
O O8 0.355364 0.393511 0.960147
O O9 0.324364 0.206441 0.998155
O O10 0.475890 0.906306 0.670437
O O11 0.438991 0.938114 0.487504
O O12 0.120778 0.560293 0.865877
O O13 0.109180 0.424722 0.737185
O O14 0.226577 0.149814 0.171399
#
# Coordination Sequence:
#
# PCOD9574686 Si02
#       8
#     3   9   9   3   9   9   9   9
#     4  12  27  48  61 107 142 189 231 291 358 431
#     4  11  24  46  69  95 141 187 234 278 352 436
#     4  10  19  42  72  99 132 182 224 283 352 426
#     4  12  30  48  64  95 142 189 240 282 340 443
#     4  11  22  41  69  96 139 174 228 285 353 417
#     4  11  23  41  68 106 133 169 237 291 352 416
#     4  10  20  39  68 101 135 179 221 285 359 425
#     4  11  21  39  67 101 136 173 231 295 346 414
#
# _framework density 21.041176
#
# number of rings (size 3 to 8) (size 9 to 14) (size 15 to 20)
#    0.000    1.200    4.500    3.600    2.100    1.200 
#    9.000    0.000    0.000    0.000    0.000    0.000 
#    0.000    0.000    0.000    0.000    0.000    0.000 
#
# Total GULP energy -111678.813980 kJ/mol
# GULP energy per Si atom -5583.940699 kJ/mol
# Density = 2.099329 g / cm^3
# Si number density = 21.041176 Si / 1000 Ang^3
#
#
#
# Elastic Constant Matrix: (Units=GPa)
#
#
# Indices 1 2 3 4 5 6 
#
# 1 75.1432 9.8937 18.3209 -5.1326 -6.2464 0.0000
# 2 9.8937 75.1432 18.3209 5.1326 6.2464 0.0000
# 3 18.3209 18.3209 60.2419 0.0000 0.0000 0.0000
# 4 -5.1326 5.1326 0.0000 16.3939 0.0000 6.2464
# 5 -6.2464 6.2464 0.0000 0.0000 16.3939 -5.1326
# 6 0.0000 0.0000 0.0000 6.2464 -5.1326 32.6248
#
#
#
# Elastic Compliance Matrix: (Units=1/GPa)
#
#
# Indices 1 2 3 4 5 6 
#
# 1 0.015496 -0.001963 -0.004116 0.005466 0.006652 0.000000
# 2 -0.001963 0.015496 -0.004116 -0.005466 -0.006652 0.000000
# 3 -0.004116 -0.004116 0.019103 0.000000 0.000000 0.000000
# 4 0.005466 -0.005466 0.000000 0.069490 0.000000 -0.013305
# 5 0.006652 -0.006652 0.000000 0.000000 0.069490 0.010932
# 6 0.000000 0.000000 0.000000 -0.013305 0.010932 0.034919
#
#
# Mechanical properties :
#
#
# Convention : Reuss Voigt Hill
#
# Bulk Modulus (GPa) = 33.66282 33.73326 33.69804
# Shear Modulus (GPa) = 19.66291 24.01538 21.83914
#
# Velocity S-wave (km/s) = 3.06027 3.38205 3.22518
# Velocity P-wave (km/s) = 5.34044 5.59624 5.46983
#
# Compressibility (1/GPa) = 0.02970636
#
# Stress axis : x y z
#
# Youngs Moduli (GPa) = 64.53188 64.53188 52.34754
#
# Poissons Ratio (x) = 0.12669 0.21545
# Poissons Ratio (y) = 0.12669 0.21545
# Poissons Ratio (z) = 0.26559 0.26559
#
# Static dielectric constant tensor:
#      x y z
#    x 1.793290 0.000000 0.000000 
#    y 0.000000 1.793290 0.000000 
#    z 0.000000 0.000000 1.791270 
# 
# From -- ./inp_files/1261.got.cif
#   From: 2010.05.17/outbox.cif.g08.bks.cpg/sg146_cif.got.tgz:1261.got - 2010.05.20 13:48:23.
