data_PCOD9574400
_publ_section_title
;
Structure prediction by ZEFSAII (Michael W. Deem and Ramdas Pophale) SiO2 
 PCOD9574400
Probable space group: P 31
;
_chemical_formula_sum "Si O2"
_cell_formula_units_Z 18
_cell_length_a 7.980252
_cell_length_b 7.980252
_cell_length_c 12.313330
_cell_angle_alpha 90.000000
_cell_angle_beta 90.000000
_cell_angle_gamma 120.000000
_cell_volume 679.108806
_symmetry_space_group_name_H-M "P 31"
_symmetry_group_IT_number 144
_symmetry_cell_setting 'hexagonal'
loop_
_space_group_symop_operation_xyz
x,y,z
-y,x-y,1/3+z
-x+y,-x,2/3+z
loop_
_atom_site_type_symbol
_atom_site_label
_atom_site_fract_x
_atom_site_fract_y
_atom_site_fract_z
Si Si1 0.785737 0.356760 0.614270
Si Si2 0.469519 0.127954 0.778258
Si Si3 0.229356 0.295940 0.656420
Si Si4 0.282355 0.789941 0.924156
Si Si5 0.355279 0.323115 0.118943
Si Si6 0.036882 0.904364 0.084507
O O1 0.655440 0.201281 0.703561
O O2 0.671845 0.457727 0.564573
O O3 0.797630 0.244867 0.509990
O O4 0.958911 0.534751 0.675642
O O5 0.351959 0.223723 0.726814
O O6 0.356131 0.904267 0.807898
O O7 0.340701 0.528915 0.648600
O O8 0.194818 0.217405 0.532916
O O9 0.013348 0.177097 0.705729
O O10 0.097756 0.604864 0.871614
O O11 0.172671 0.869271 0.001211
O O12 0.143438 0.138814 0.097690
#
# Coordination Sequence:
#
# PCOD9574400 Si02
#       6
#     3   3   3   3   3   3
#     4  10  23  42  75 109 152 216 266 337 427 491
#     4  11  20  42  74 110 152 207 273 337 412 501
#     4  12  26  47  81 112 162 219 277 340 432 511
#     4  12  25  45  76 121 161 210 284 348 415 524
#     4  11  23  45  75 112 159 212 280 342 425 510
#     4  12  25  49  77 114 164 222 268 354 431 503
#
# _framework density 26.505329
#
# number of rings (size 3 to 8) (size 9 to 14) (size 15 to 20)
#    0.000    0.667    6.667    1.000    2.333    0.000 
#    3.000    0.000    0.000    0.000    0.000    0.000 
#    0.000    0.000    0.000    0.000    0.000    0.000 
#
# Total GULP energy -100598.383972 kJ/mol
# GULP energy per Si atom -5588.799110 kJ/mol
# Density = 2.644500 g / cm^3
# Si number density = 26.505329 Si / 1000 Ang^3
#
#
#
# Elastic Constant Matrix: (Units=GPa)
#
#
# Indices 1 2 3 4 5 6 
#
# 1 117.5128 34.8201 28.6602 0.6245 7.0134 0.0000
# 2 34.8201 117.5128 28.6602 -0.6245 -7.0134 0.0000
# 3 28.6602 28.6602 97.8595 0.0000 0.0000 0.0000
# 4 0.6245 -0.6245 0.0000 49.0968 0.0000 -7.0134
# 5 7.0134 -7.0134 0.0000 0.0000 49.0968 0.6245
# 6 0.0000 0.0000 0.0000 -7.0134 0.6245 41.3463
#
#
#
# Elastic Compliance Matrix: (Units=1/GPa)
#
#
# Indices 1 2 3 4 5 6 
#
# 1 0.009887 -0.002509 -0.002161 -0.000158 -0.001771 0.000000
# 2 -0.002509 0.009887 -0.002161 0.000158 0.001771 0.000000
# 3 -0.002161 -0.002161 0.011484 0.000000 0.000000 0.000000
# 4 -0.000158 0.000158 0.000000 0.020878 0.000000 0.003541
# 5 -0.001771 0.001771 0.000000 0.000000 0.020878 -0.000315
# 6 0.000000 0.000000 0.000000 0.003541 -0.000315 0.024791
#
#
# Mechanical properties :
#
#
# Convention : Reuss Voigt Hill
#
# Bulk Modulus (GPa) = 56.82849 57.46287 57.14568
# Shear Modulus (GPa) = 42.61445 43.95764 43.28604
#
# Velocity S-wave (km/s) = 4.01405 4.07682 4.04556
# Velocity P-wave (km/s) = 6.55518 6.62476 6.59006
#
# Compressibility (1/GPa) = 0.01759681
#
# Stress axis : x y z
#
# Youngs Moduli (GPa) = 101.14648 101.14648 87.07514
#
# Poissons Ratio (x) = 0.25378 0.18814
# Poissons Ratio (y) = 0.25378 0.18814
# Poissons Ratio (z) = 0.21855 0.21855
#
# Static dielectric constant tensor:
#      x y z
#    x 2.205230 0.000000 0.000000 
#    y 0.000000 2.205230 0.000000 
#    z 0.000000 0.000000 2.026350 
# 
# From -- ./inp_files/566.got.cif
#   From: 2010.05.17/outbox.cif.g08.bks.cpg/sg144_cif.got.tgz:566.got - 2010.05.20 13:46:34.
