data_PCOD9574486
_publ_section_title
;
Structure prediction by ZEFSAII (Michael W. Deem and Ramdas Pophale) SiO2 
 PCOD9574486
Probable space group: P 31
;
_chemical_formula_sum "Si O2"
_cell_formula_units_Z 12
_cell_length_a 5.028564
_cell_length_b 5.028564
_cell_length_c 20.144268
_cell_angle_alpha 90.000000
_cell_angle_beta 90.000000
_cell_angle_gamma 120.000000
_cell_volume 441.133547
_symmetry_space_group_name_H-M "P 31"
_symmetry_group_IT_number 144
_symmetry_cell_setting 'hexagonal'
loop_
_space_group_symop_operation_xyz
x,y,z
-y,x-y,1/3+z
-x+y,-x,2/3+z
loop_
_atom_site_type_symbol
_atom_site_label
_atom_site_fract_x
_atom_site_fract_y
_atom_site_fract_z
Si Si1 0.006631 0.600886 0.427250
Si Si2 0.922036 0.267811 0.962812
Si Si3 0.388840 0.303447 0.484158
Si Si4 0.966803 0.398039 0.687210
O O1 0.031145 0.759385 0.346307
O O2 0.748989 0.557725 0.481276
O O3 0.762376 0.267568 0.391753
O O4 0.239161 0.493633 0.455552
O O5 0.831821 0.132237 0.890176
O O6 0.839347 0.537559 0.971671
O O7 0.272865 0.444481 0.984444
O O8 0.272191 0.999757 0.435268
#
# Coordination Sequence:
#
# PCOD9574486 Si02
#       4
#     3   3   3   3
#     4  11  25  53  74 122 158 209 274 347 393 511
#     4  11  28  50  86 115 166 219 274 342 425 484
#     4  11  28  50  86 115 166 219 274 342 425 484
#     4  11  25  53  74 122 158 209 274 347 393 511
#
# _framework density 27.202645
#
# number of rings (size 3 to 8) (size 9 to 14) (size 15 to 20)
#    0.000    1.000    5.000    0.000   14.000    0.000 
#    0.000    0.000    0.000    0.000    0.000    0.000 
#    0.000    0.000    0.000    0.000    0.000    0.000 
#
# Total GULP energy -66824.056962 kJ/mol
# GULP energy per Si atom -5568.671413 kJ/mol
# Density = 2.714073 g / cm^3
# Si number density = 27.202645 Si / 1000 Ang^3
#
#
#
# Elastic Constant Matrix: (Units=GPa)
#
#
# Indices 1 2 3 4 5 6 
#
# 1 100.3752 95.8998 20.1965 -2.8048 -14.7926 0.0000
# 2 95.8998 100.3752 20.1965 2.8048 14.7926 0.0000
# 3 20.1965 20.1965 178.6087 0.0000 0.0000 0.0000
# 4 -2.8048 2.8048 0.0000 14.9876 0.0000 14.7926
# 5 -14.7926 14.7926 0.0000 0.0000 14.9876 -2.8048
# 6 0.0000 0.0000 0.0000 14.7926 -2.8048 2.2377
#
#
#
# Elastic Compliance Matrix: (Units=1/GPa)
#
#
# Indices 1 2 3 4 5 6 
#
# 1 -0.016791 0.022007 -0.000590 -0.007261 -0.038293 0.000000
# 2 0.022007 -0.016791 -0.000590 0.007261 0.038293 0.000000
# 3 -0.000590 -0.000590 0.005732 0.000000 0.000000 0.000000
# 4 -0.007261 0.007261 0.000000 -0.011585 0.000000 0.076586
# 5 -0.038293 0.038293 0.000000 0.000000 -0.011585 -0.014521
# 6 0.000000 0.000000 0.000000 0.076586 -0.014521 -0.077595
#
#
# Mechanical properties :
#
#
# Convention : Reuss Voigt Hill
#
# Bulk Modulus (GPa) = 72.43529 72.43830 72.43679
# Shear Modulus (GPa) = -30.18098 22.64697 -3.76701
#
# Velocity S-wave (km/s) = -3.33451 2.88849 -1.17805
# Velocity P-wave (km/s) = 3.44392 6.14910 4.98357
#
# Compressibility (1/GPa) = 0.01380543
#
# Stress axis : x y z
#
# Youngs Moduli (GPa) = -59.55686 -59.55686 174.45235
#
# Poissons Ratio (x) = 1.31067 0.10290
# Poissons Ratio (y) = 1.31067 0.10290
# Poissons Ratio (z) = -0.03513 -0.03513
#
# Static dielectric constant tensor:
#      x y z
#    x 2.200240 0.000000 0.000000 
#    y 0.000000 2.200240 0.000000 
#    z 0.000000 0.000000 2.421540 
# 
# From -- ./inp_files/893.got.cif
#   From: 2010.05.17/outbox.cif.g08.bks.cpg/sg144_cif.got.tgz:893.got - 2010.05.20 13:46:34.
