data_PCOD9574911
_publ_section_title
;
Structure prediction by ZEFSAII (Michael W. Deem and Ramdas Pophale) SiO2 
 PCOD9574911
Probable space group: P -3
;
_chemical_formula_sum "Si O2"
_cell_formula_units_Z 36
_cell_length_a 16.518497
_cell_length_b 16.518497
_cell_length_c 8.862523
_cell_angle_alpha 90.000000
_cell_angle_beta 90.000000
_cell_angle_gamma 120.000000
_cell_volume 2094.252606
_symmetry_space_group_name_H-M "P -3"
_symmetry_group_IT_number 147
_symmetry_cell_setting 'hexagonal'
loop_
_space_group_symop_operation_xyz
x,y,z
-y,x-y,z
-x+y,-x,z
-x,-y,-z
y,-x+y,-z
x-y,x,-z
loop_
_atom_site_type_symbol
_atom_site_label
_atom_site_fract_x
_atom_site_fract_y
_atom_site_fract_z
Si Si1 0.623328 0.899967 0.178909
Si Si2 0.563456 0.450314 0.328557
Si Si3 0.379564 0.273261 0.681518
Si Si4 0.273261 0.893697 0.681518
Si Si5 0.276639 0.376672 0.821090
Si Si6 0.436544 0.549686 0.328557
O O1 0.648592 0.827421 0.254375
O O2 0.515831 0.866417 0.223255
O O3 0.685041 0.003584 0.247833
O O4 0.634145 0.902611 1.000000
O O5 0.488897 0.345600 0.280202
O O6 0.649414 0.515831 0.223255
O O7 0.500000 0.500000 0.334465
O O8 0.596584 0.450893 0.500000
O O9 0.372609 0.273044 0.500000
O O10 0.318543 0.314959 0.752166
O O11 0.488897 0.345600 0.719799
O O12 0.172580 0.821171 0.745625
#
# Coordination Sequence:
#
# PCOD9574911 Si02
#       6
#     6   6   6   6   6   6
#     4  11  21  33  53  81 110 137 173 224 274 310
#     4   8  16  32  52  72  97 134 174 210 251 310
#     4  10  20  36  56  76 104 144 184 215 256 320
#     4  10  20  36  56  76 104 144 184 215 256 320
#     4  11  21  33  53  81 110 137 173 224 274 310
#     4   8  16  32  52  72  97 134 174 210 251 310
#
# _framework density 17.189903999999999
#
# number of rings (size 3 to 8) (size 9 to 14) (size 15 to 20)
#    0.000    2.333    0.000    6.000    0.000    7.333 
#    2.000    0.000    0.000    0.667    0.000    4.667 
#    0.000    0.000    0.000    0.000    0.000    0.000 
#
# Total GULP energy -200753.979111 kJ/mol
# GULP energy per Si atom -5576.499420 kJ/mol
# Density = 1.715078 g / cm^3
# Si number density = 17.189904 Si / 1000 Ang^3
#
#
#
# Elastic Constant Matrix: (Units=GPa)
#
#
# Indices 1 2 3 4 5 6 
#
# 1 90.9393 48.2207 53.4648 0.0000 0.0000 0.0000
# 2 48.2207 90.9393 53.4648 0.0000 0.0000 0.0000
# 3 53.4648 53.4648 101.9160 0.0000 0.0000 0.0000
# 4 0.0000 0.0000 0.0000 10.2197 0.0000 0.0000
# 5 0.0000 0.0000 0.0000 0.0000 10.2197 0.0000
# 6 0.0000 0.0000 0.0000 0.0000 0.0000 21.3593
#
#
#
# Elastic Compliance Matrix: (Units=1/GPa)
#
#
# Indices 1 2 3 4 5 6 
#
# 1 0.017724 -0.005685 -0.006316 0.000000 0.000000 0.000000
# 2 -0.005685 0.017724 -0.006316 0.000000 0.000000 0.000000
# 3 -0.006316 -0.006316 0.016438 0.000000 0.000000 0.000000
# 4 0.000000 0.000000 0.000000 0.097850 0.000000 0.000000
# 5 0.000000 0.000000 0.000000 0.000000 0.097850 0.000000
# 6 0.000000 0.000000 0.000000 0.000000 0.000000 0.046818
#
#
# Mechanical properties :
#
#
# Convention : Reuss Voigt Hill
#
# Bulk Modulus (GPa) = 65.55779 66.01059 65.78419
# Shear Modulus (GPa) = 14.87561 16.93604 15.90583
#
# Velocity S-wave (km/s) = 2.94491 3.14225 3.04518
# Velocity P-wave (km/s) = 7.05574 7.18673 7.12154
#
# Compressibility (1/GPa) = 0.01525372
#
# Stress axis : x y z
#
# Youngs Moduli (GPa) = 56.42107 56.42107 60.83393
#
# Poissons Ratio (x) = 0.32076 0.38420
# Poissons Ratio (y) = 0.32076 0.38420
# Poissons Ratio (z) = 0.35633 0.35633
#
# Static dielectric constant tensor:
#      x y z
#    x 1.589880 0.000000 0.000000 
#    y 0.000000 1.589880 0.000000 
#    z 0.000000 0.000000 1.567440 
# 
# From -- ./inp_files/590.got.cif
#   From: 2010.05.17/outbox.cif.g08.bks.cpg/sg147_cif.got.tgz:590.got - 2010.05.20 13:49:32.
