data_PCOD9574393
_publ_section_title
;
Structure prediction by ZEFSAII (Michael W. Deem and Ramdas Pophale) SiO2 
 PCOD9574393
Probable space group: P 31
;
_chemical_formula_sum "Si O2"
_cell_formula_units_Z 18
_cell_length_a 9.079505
_cell_length_b 9.079505
_cell_length_c 10.954562
_cell_angle_alpha 90.000000
_cell_angle_beta 90.000000
_cell_angle_gamma 120.000000
_cell_volume 782.077864
_symmetry_space_group_name_H-M "P 31"
_symmetry_group_IT_number 144
_symmetry_cell_setting 'hexagonal'
loop_
_space_group_symop_operation_xyz
x,y,z
-y,x-y,1/3+z
-x+y,-x,2/3+z
loop_
_atom_site_type_symbol
_atom_site_label
_atom_site_fract_x
_atom_site_fract_y
_atom_site_fract_z
Si Si1 0.622809 0.475489 0.105620
Si Si2 0.254565 0.928857 0.628340
Si Si3 0.825976 0.099092 0.398904
Si Si4 0.450801 0.176056 0.819509
Si Si5 0.108500 0.660921 0.426739
Si Si6 0.295309 0.933286 0.221968
O O1 0.708317 0.635741 0.196227
O O2 0.419990 0.350122 0.127382
O O3 0.722248 0.373917 0.128010
O O4 0.631123 0.551736 0.971010
O O5 0.208026 0.761243 0.550164
O O6 0.067882 0.880331 0.673446
O O7 0.369522 0.996886 0.748830
O O8 0.846537 0.231497 0.291481
O O9 0.975866 0.177236 0.496446
O O10 0.378317 0.293336 0.764986
O O11 0.193487 0.776812 0.310701
O O12 0.112655 0.489433 0.442406
#
# Coordination Sequence:
#
# PCOD9574393 Si02
#       6
#     3   3   3   3   3   3
#     4  11  20  40  74 103 134 194 248 298 357 449
#     4  10  23  38  66 106 142 174 240 308 355 427
#     4  11  21  41  69  99 146 192 233 302 369 441
#     4  11  21  40  70 102 137 186 246 291 361 450
#     4  10  23  42  65  99 139 187 239 303 358 433
#     4  11  22  43  68  97 146 189 246 304 366 432
#
# _framework density 23.015612000000001
#
# number of rings (size 3 to 8) (size 9 to 14) (size 15 to 20)
#    0.000    1.333    5.000    2.000    0.000    2.667 
#    3.000    1.667    0.000    0.000    0.000    0.000 
#    0.000    0.000    0.000    0.000    0.000    0.000 
#
# Total GULP energy -100465.963987 kJ/mol
# GULP energy per Si atom -5581.442444 kJ/mol
# Density = 2.296323 g / cm^3
# Si number density = 23.015612 Si / 1000 Ang^3
#
#
#
# Elastic Constant Matrix: (Units=GPa)
#
#
# Indices 1 2 3 4 5 6 
#
# 1 96.9888 55.9355 48.6570 -10.6376 -3.1381 0.0000
# 2 55.9355 96.9888 48.6570 10.6376 3.1381 0.0000
# 3 48.6570 48.6570 77.7618 0.0000 0.0000 0.0000
# 4 -10.6376 10.6376 0.0000 33.2706 0.0000 3.1381
# 5 -3.1381 3.1381 0.0000 0.0000 33.2706 -10.6376
# 6 0.0000 0.0000 0.0000 3.1381 -10.6376 20.5267
#
#
#
# Elastic Compliance Matrix: (Units=1/GPa)
#
#
# Indices 1 2 3 4 5 6 
#
# 1 0.020288 -0.009422 -0.006799 0.009499 0.002802 0.000000
# 2 -0.009422 0.020288 -0.006799 -0.009499 -0.002802 0.000000
# 3 -0.006799 -0.006799 0.021368 0.000000 0.000000 0.000000
# 4 0.009499 -0.009499 0.000000 0.036659 0.000000 -0.005604
# 5 0.002802 -0.002802 0.000000 0.000000 0.036659 0.018998
# 6 0.000000 0.000000 0.000000 -0.005604 0.018998 0.059419
#
#
# Mechanical properties :
#
#
# Convention : Reuss Voigt Hill
#
# Bulk Modulus (GPa) = 62.87704 64.24869 63.56287
# Shear Modulus (GPa) = 20.32337 25.31292 22.81815
#
# Velocity S-wave (km/s) = 2.97480 3.31994 3.15210
# Velocity P-wave (km/s) = 6.25922 6.53237 6.39726
#
# Compressibility (1/GPa) = 0.01590406
#
# Stress axis : x y z
#
# Youngs Moduli (GPa) = 49.29106 49.29106 46.79875
#
# Poissons Ratio (x) = 0.46442 0.31818
# Poissons Ratio (y) = 0.46442 0.31818
# Poissons Ratio (z) = 0.33512 0.33512
#
# Static dielectric constant tensor:
#      x y z
#    x 1.873510 0.000000 0.000000 
#    y 0.000000 1.873510 0.000000 
#    z 0.000000 0.000000 1.900190 
# 
# From -- ./inp_files/567.got.cif
#   From: 2010.05.17/outbox.cif.g08.bks.cpg/sg144_cif.got.tgz:567.got - 2010.05.20 13:46:34.
