data_PCOD9574734
_publ_section_title
;
Structure prediction by ZEFSAII (Michael W. Deem and Ramdas Pophale) SiO2 
 PCOD9574734
Probable space group: R 3
;
_chemical_formula_sum "Si O2"
_cell_formula_units_Z 36
_cell_length_a 7.066675
_cell_length_b 7.066675
_cell_length_c 33.163021
_cell_angle_alpha 90.000000
_cell_angle_beta 90.000000
_cell_angle_gamma 120.000000
_cell_volume 1434.217292
_symmetry_space_group_name_H-M "R 3"
_symmetry_group_IT_number 146
_symmetry_cell_setting 'hexagonal'
loop_
_space_group_symop_operation_xyz
x,y,z
-y,x-y,z
-x+y,-x,z
2/3+x,1/3+y,1/3+z
2/3-y,1/3+x-y,1/3+z
2/3-x+y,1/3-x,1/3+z
1/3+x,2/3+y,2/3+z
1/3-y,2/3+x-y,2/3+z
1/3-x+y,2/3-x,2/3+z
loop_
_atom_site_type_symbol
_atom_site_label
_atom_site_fract_x
_atom_site_fract_y
_atom_site_fract_z
Si Si1 0.421635 0.081823 0.361090
Si Si2 0.728233 0.783261 0.277890
Si Si3 0.546807 0.604194 0.857578
Si Si4 0.607944 0.545153 0.111519
O O1 0.671732 0.133951 0.361742
O O2 0.321756 0.948748 0.320184
O O3 0.281803 0.971248 0.400840
O O4 0.617395 0.695085 0.234566
O O5 0.821399 0.043338 0.277797
O O6 0.555242 0.840022 0.857212
O O7 0.663324 0.593027 0.817350
O O8 0.443188 0.287600 0.113353
#
# Coordination Sequence:
#
# PCOD9574734 Si02
#       4
#     9   9   9   9
#     4  10  22  34  55  81 110 152 189 227 280 329
#     4   8  18  34  59  82 109 145 180 228 277 337
#     4   8  16  36  59  79 109 144 179 223 287 334
#     4  10  22  32  53  80 114 147 188 234 266 322
#
# _framework density 25.100801000000001
#
# number of rings (size 3 to 8) (size 9 to 14) (size 15 to 20)
#    2.000    1.000    0.000    1.500    3.500    2.000 
#    0.000    0.000    0.000    1.000    0.000    0.000 
#    0.000    0.000    0.000    0.000    0.000    0.000 
#
# Total GULP energy -66851.176229 kJ/mol
# GULP energy per Si atom -5570.931352 kJ/mol
# Density = 2.504367 g / cm^3
# Si number density = 25.100801 Si / 1000 Ang^3
#
#
#
# Elastic Constant Matrix: (Units=GPa)
#
#
# Indices 1 2 3 4 5 6 
#
# 1 63.9728 11.1095 44.5802 7.2780 -1.7897 0.0000
# 2 11.1095 63.9728 44.5802 -7.2780 1.7897 0.0000
# 3 44.5802 44.5802 277.7114 0.0000 0.0000 0.0000
# 4 7.2780 -7.2780 0.0000 25.9063 0.0000 1.7897
# 5 -1.7897 1.7897 0.0000 0.0000 25.9063 7.2780
# 6 0.0000 0.0000 0.0000 1.7897 7.2780 26.4317
#
#
#
# Elastic Compliance Matrix: (Units=1/GPa)
#
#
# Indices 1 2 3 4 5 6 
#
# 1 0.018531 -0.002076 -0.002642 -0.005789 0.001424 0.000000
# 2 -0.002076 0.018531 -0.002642 0.005789 -0.001424 0.000000
# 3 -0.002642 -0.002642 0.004449 0.000000 0.000000 0.000000
# 4 -0.005789 0.005789 0.000000 0.042050 0.000000 -0.002847
# 5 0.001424 -0.001424 0.000000 0.000000 0.042050 -0.011579
# 6 0.000000 0.000000 0.000000 -0.002847 -0.011579 0.041214
#
#
# Mechanical properties :
#
#
# Convention : Reuss Voigt Hill
#
# Bulk Modulus (GPa) = 37.32201 67.35520 52.33861
# Shear Modulus (GPa) = 26.25009 36.00799 31.12904
#
# Velocity S-wave (km/s) = 3.23737 3.79164 3.52541
# Velocity P-wave (km/s) = 5.37357 6.78681 6.12111
#
# Compressibility (1/GPa) = 0.02679384
#
# Stress axis : x y z
#
# Youngs Moduli (GPa) = 53.96251 53.96251 224.77227
#
# Poissons Ratio (x) = 0.11202 0.59375
# Poissons Ratio (y) = 0.11202 0.59375
# Poissons Ratio (z) = 0.14255 0.14255
#
# Static dielectric constant tensor:
#      x y z
#    x 2.035040 0.000000 0.000000 
#    y 0.000000 2.035040 0.000000 
#    z 0.000000 0.000000 1.952930 
# 
# From -- ./inp_files/2192.got.cif
#   From: 2010.05.17/outbox.cif.g08.bks.cpg/sg146_cif.got.tgz:2192.got - 2010.05.20 13:48:23.
