data_PCOD9574531
_publ_section_title
;
Structure prediction by ZEFSAII (Michael W. Deem and Ramdas Pophale) SiO2 
 PCOD9574531
Probable space group: P 32
;
_chemical_formula_sum "Si O2"
_cell_formula_units_Z 24
_cell_length_a 8.189840
_cell_length_b 8.189840
_cell_length_c 20.315973
_cell_angle_alpha 90.000000
_cell_angle_beta 90.000000
_cell_angle_gamma 120.000000
_cell_volume 1180.100769
_symmetry_space_group_name_H-M "P 32"
_symmetry_group_IT_number 145
_symmetry_cell_setting 'hexagonal'
loop_
_space_group_symop_operation_xyz
x,y,z
-y,x-y,2/3+z
-x+y,-x,1/3+z
loop_
_atom_site_type_symbol
_atom_site_label
_atom_site_fract_x
_atom_site_fract_y
_atom_site_fract_z
Si Si1 0.345736 0.467214 0.963420
Si Si2 0.268002 0.483300 0.387355
Si Si3 0.322530 0.212442 0.086352
Si Si4 0.119533 0.789094 0.054172
Si Si5 0.874834 0.520849 0.167832
Si Si6 0.499374 0.534065 0.175412
Si Si7 0.477234 0.346532 0.456386
Si Si8 0.351582 0.481232 0.586196
O O1 0.397903 0.411610 0.895375
O O2 0.161775 0.486404 0.951008
O O3 0.505494 0.673636 0.988548
O O4 0.323396 0.326023 0.021834
O O5 0.463697 0.686661 0.395359
O O6 0.123827 0.460126 0.444418
O O7 0.332516 0.331551 0.400309
O O8 0.328660 0.331877 0.151054
O O9 0.513733 0.200364 0.094768
O O10 0.166545 0.996696 0.075398
O O11 0.963767 0.648208 0.104049
O O12 0.062251 0.733059 0.978157
O O13 0.679908 0.510902 0.188876
O O14 0.836165 0.315905 0.146947
O O15 0.480037 0.663281 0.230361
O O16 0.429709 0.429798 0.521607
#
# Coordination Sequence:
#
# PCOD9574531 Si02
#       8
#     3   3   3   3   3   3   3   3
#     4  10  19  33  59  85 108 146 198 245 298 353
#     4   8  17  36  56  75 107 153 191 227 283 356
#     4   9  18  35  59  85 114 149 192 246 295 345
#     4  10  20  36  60  85 117 153 192 245 298 350
#     4  11  21  33  57  87 115 148 193 249 299 350
#     4   9  18  34  55  81 113 150 193 237 289 349
#     4   9  19  35  57  81 113 153 194 233 286 358
#     4  10  20  38  59  81 115 162 201 234 294 373
#
# _framework density 20.337244999999999
#
# number of rings (size 3 to 8) (size 9 to 14) (size 15 to 20)
#    0.000    2.500    0.000    3.000    0.000    3.000 
#    0.000   12.500    0.000   21.000    0.000    0.000 
#    0.000    0.000    0.000    0.000    0.000    0.000 
#
# Total GULP energy -133697.764323 kJ/mol
# GULP energy per Si atom -5570.740180 kJ/mol
# Density = 2.029096 g / cm^3
# Si number density = 20.337245 Si / 1000 Ang^3
#
#
#
# Elastic Constant Matrix: (Units=GPa)
#
#
# Indices 1 2 3 4 5 6 
#
# 1 61.3923 24.0373 23.7911 -8.6994 6.3415 0.0000
# 2 24.0373 61.3923 23.7911 8.6994 -6.3415 0.0000
# 3 23.7911 23.7911 98.8215 0.0000 0.0000 0.0000
# 4 -8.6994 8.6994 0.0000 26.5908 0.0000 -6.3415
# 5 6.3415 -6.3415 0.0000 0.0000 26.5908 -8.6994
# 6 0.0000 0.0000 0.0000 -6.3415 -8.6994 18.6775
#
#
#
# Elastic Compliance Matrix: (Units=1/GPa)
#
#
# Indices 1 2 3 4 5 6 
#
# 1 0.024218 -0.010700 -0.003254 0.011424 -0.008328 0.000000
# 2 -0.010700 0.024218 -0.003254 -0.011424 0.008328 0.000000
# 3 -0.003254 -0.003254 0.011686 0.000000 0.000000 0.000000
# 4 0.011424 -0.011424 0.000000 0.049054 0.000000 0.016655
# 5 -0.008328 0.008328 0.000000 0.000000 0.049054 0.022848
# 6 0.000000 0.000000 0.000000 0.016655 0.022848 0.069837
#
#
# Mechanical properties :
#
#
# Convention : Reuss Voigt Hill
#
# Bulk Modulus (GPa) = 38.90331 40.53836 39.72083
# Shear Modulus (GPa) = 18.44653 24.37092 21.40873
#
# Velocity S-wave (km/s) = 3.01496 3.46546 3.24803
# Velocity P-wave (km/s) = 5.59380 5.99907 5.79998
#
# Compressibility (1/GPa) = 0.02570475
#
# Stress axis : x y z
#
# Youngs Moduli (GPa) = 41.29109 41.29109 85.57046
#
# Poissons Ratio (x) = 0.44182 0.27849
# Poissons Ratio (y) = 0.44182 0.27849
# Poissons Ratio (z) = 0.13438 0.13438
#
# Static dielectric constant tensor:
#      x y z
#    x 1.752950 0.000000 0.000000 
#    y 0.000000 1.752950 0.000000 
#    z 0.000000 0.000000 1.727160 
# 
# From -- ./inp_files/953.got.cif
#   From: 2010.05.17/outbox.cif.g08.bks.cpg/sg145_cif.got.tgz:953.got - 2010.05.20 13:47:28.
