data_PCOD9574305
_publ_section_title
;
Structure prediction by ZEFSAII (Michael W. Deem and Ramdas Pophale) SiO2 
 PCOD9574305
Probable space group: P 31
;
_chemical_formula_sum "Si O2"
_cell_formula_units_Z 24
_cell_length_a 10.968679
_cell_length_b 10.968679
_cell_length_c 11.211085
_cell_angle_alpha 90.000000
_cell_angle_beta 90.000000
_cell_angle_gamma 120.000000
_cell_volume 1168.118578
_symmetry_space_group_name_H-M "P 31"
_symmetry_group_IT_number 144
_symmetry_cell_setting 'hexagonal'
loop_
_space_group_symop_operation_xyz
x,y,z
-y,x-y,1/3+z
-x+y,-x,2/3+z
loop_
_atom_site_type_symbol
_atom_site_label
_atom_site_fract_x
_atom_site_fract_y
_atom_site_fract_z
Si Si1 0.663149 0.894273 0.737210
Si Si2 0.914624 0.067485 0.568226
Si Si3 0.255384 0.533364 0.695706
Si Si4 0.106875 0.250016 0.036849
Si Si5 0.997750 0.364364 0.539898
Si Si6 0.246097 0.505745 0.196917
Si Si7 0.818378 0.057935 0.952425
Si Si8 0.634302 0.988865 0.183611
O O1 0.627294 0.735820 0.772149
O O2 0.547617 0.859570 0.634285
O O3 0.811424 0.970960 0.670191
O O4 0.697508 0.000261 0.849058
O O5 0.888382 0.198955 0.546995
O O6 0.075551 0.136467 0.606889
O O7 0.877188 0.968184 0.453448
O O8 0.104167 0.415166 0.651522
O O9 0.372640 0.598230 0.591433
O O10 0.233468 0.652218 0.753868
O O11 0.312275 0.476117 0.798380
O O12 0.122768 0.368430 0.132125
O O13 0.250413 0.297644 0.962267
O O14 0.971446 0.199270 0.951268
O O15 0.944377 0.476855 0.532190
O O16 0.747939 0.058141 0.077919
#
# Coordination Sequence:
#
# PCOD9574305 Si02
#       8
#     3   3   3   3   3   3   3   3
#     4  10  20  34  56  86 124 162 211 257 329 391
#     4  10  21  37  59  91 124 169 210 266 331 391
#     4  12  20  36  59  96 130 155 206 274 345 379
#     4  11  23  38  59  96 129 175 214 271 324 406
#     4  11  21  36  63  93 123 168 205 276 326 384
#     4  11  21  35  59  93 127 161 212 272 334 389
#     4  11  22  36  58  88 133 170 209 266 325 388
#     4  12  22  38  61  95 130 164 217 272 332 392
#
# _framework density 20.545860000000001
#
# number of rings (size 3 to 8) (size 9 to 14) (size 15 to 20)
#    0.000    1.000    6.250    3.000    0.000    2.000 
#    0.000    0.000    0.000    0.000   19.500    0.000 
#    0.000    0.000    0.000    0.000    0.000    0.000 
#
# Total GULP energy -133635.155634 kJ/mol
# GULP energy per Si atom -5568.131485 kJ/mol
# Density = 2.049910 g / cm^3
# Si number density = 20.545860 Si / 1000 Ang^3
#
#
#
# Elastic Constant Matrix: (Units=GPa)
#
#
# Indices 1 2 3 4 5 6 
#
# 1 60.8461 15.0045 13.8710 -1.7936 -4.5176 0.0000
# 2 15.0045 60.8461 13.8710 1.7936 4.5176 0.0000
# 3 13.8710 13.8710 77.0900 0.0000 0.0000 0.0000
# 4 -1.7936 1.7936 0.0000 27.4088 0.0000 4.5176
# 5 -4.5176 4.5176 0.0000 0.0000 27.4088 -1.7936
# 6 0.0000 0.0000 0.0000 4.5176 -1.7936 22.9208
#
#
#
# Elastic Compliance Matrix: (Units=1/GPa)
#
#
# Indices 1 2 3 4 5 6 
#
# 1 0.018390 -0.004277 -0.002539 0.001483 0.003736 0.000000
# 2 -0.004277 0.018390 -0.002539 -0.001483 -0.003736 0.000000
# 3 -0.002539 -0.002539 0.013886 0.000000 0.000000 0.000000
# 4 0.001483 -0.001483 0.000000 0.037910 0.000000 -0.007472
# 5 0.003736 -0.003736 0.000000 0.000000 0.037910 0.002967
# 6 0.000000 0.000000 0.000000 -0.007472 0.002967 0.045333
#
#
# Mechanical properties :
#
#
# Convention : Reuss Voigt Hill
#
# Bulk Modulus (GPa) = 31.29542 31.58611 31.44076
# Shear Modulus (GPa) = 24.85322 25.95008 25.40165
#
# Velocity S-wave (km/s) = 3.48177 3.55777 3.51998
# Velocity P-wave (km/s) = 5.60613 5.68189 5.64413
#
# Compressibility (1/GPa) = 0.03195356
#
# Stress axis : x y z
#
# Youngs Moduli (GPa) = 54.37855 54.37855 72.01680
#
# Poissons Ratio (x) = 0.23258 0.18287
# Poissons Ratio (y) = 0.23258 0.18287
# Poissons Ratio (z) = 0.13808 0.13808
#
# Static dielectric constant tensor:
#      x y z
#    x 1.775150 0.000000 0.000000 
#    y 0.000000 1.775150 0.000000 
#    z 0.000000 0.000000 1.817190 
# 
# From -- ./inp_files/681.got.cif
#   From: 2010.05.17/outbox.cif.g08.bks.cpg/sg144_cif.got.tgz:681.got - 2010.05.20 13:46:34.
