data_PCOD9574553
_publ_section_title
;
Structure prediction by ZEFSAII (Michael W. Deem and Ramdas Pophale) SiO2 
 PCOD9574553
Probable space group: P 32
;
_chemical_formula_sum "Si O2"
_cell_formula_units_Z 18
_cell_length_a 12.492034
_cell_length_b 12.492034
_cell_length_c 7.667694
_cell_angle_alpha 90.000000
_cell_angle_beta 90.000000
_cell_angle_gamma 120.000000
_cell_volume 1036.243262
_symmetry_space_group_name_H-M "P 32"
_symmetry_group_IT_number 145
_symmetry_cell_setting 'hexagonal'
loop_
_space_group_symop_operation_xyz
x,y,z
-y,x-y,2/3+z
-x+y,-x,1/3+z
loop_
_atom_site_type_symbol
_atom_site_label
_atom_site_fract_x
_atom_site_fract_y
_atom_site_fract_z
Si Si1 0.096835 0.350927 0.317270
Si Si2 0.518177 0.735444 0.629028
Si Si3 0.678513 0.981996 0.466370
Si Si4 0.935358 0.895253 0.076066
Si Si5 0.095867 0.632222 0.807410
Si Si6 0.502550 0.954280 0.757699
O O1 0.131778 0.396499 0.118288
O O2 0.225923 0.411105 0.421115
O O3 0.032813 0.205573 0.343187
O O4 0.017674 0.411960 0.383800
O O5 0.608954 0.831975 0.485921
O O6 0.429344 0.600715 0.555706
O O7 0.451039 0.808617 0.704617
O O8 0.625860 0.000001 0.285412
O O9 0.822784 0.034219 0.463068
O O10 0.621879 0.018391 0.630983
O O11 0.951900 0.978318 0.246597
O O12 0.033001 0.566266 0.626733
#
# Coordination Sequence:
#
# PCOD9574553 Si02
#       6
#     3   3   3   3   3   3
#     4  11  21  36  56  92 117 163 192 244 319 358
#     4   9  19  33  58  89 124 140 185 256 319 366
#     4  10  21  38  55  86 118 159 191 249 305 357
#     4  12  26  42  60  82 130 174 215 242 283 382
#     4  11  19  33  56  85 119 145 186 244 319 357
#     4   9  22  32  57  88 118 141 189 247 313 368
#
# _framework density 17.370436999999999
#
# number of rings (size 3 to 8) (size 9 to 14) (size 15 to 20)
#    1.000    0.667    3.333    2.000    7.000    0.000 
#    0.000    0.000    0.000    0.000    4.333    0.000 
#    0.000    0.000    0.000    0.000    0.000    0.000 
#
# Total GULP energy -100292.590637 kJ/mol
# GULP energy per Si atom -5571.810591 kJ/mol
# Density = 1.733090 g / cm^3
# Si number density = 17.370437 Si / 1000 Ang^3
#
#
#
# Elastic Constant Matrix: (Units=GPa)
#
#
# Indices 1 2 3 4 5 6 
#
# 1 64.5338 28.0562 24.2353 0.0640 -0.6334 0.0000
# 2 28.0562 64.5338 24.2353 -0.0640 0.6334 0.0000
# 3 24.2353 24.2353 127.3813 0.0000 0.0000 0.0000
# 4 0.0640 -0.0640 0.0000 15.9910 0.0000 0.6334
# 5 -0.6334 0.6334 0.0000 0.0000 15.9910 0.0640
# 6 0.0000 0.0000 0.0000 0.6334 0.0640 18.2388
#
#
#
# Elastic Compliance Matrix: (Units=1/GPa)
#
#
# Indices 1 2 3 4 5 6 
#
# 1 0.019724 -0.007729 -0.002282 -0.000110 0.001087 0.000000
# 2 -0.007729 0.019724 -0.002282 0.000110 -0.001087 0.000000
# 3 -0.002282 -0.002282 0.008719 0.000000 0.000000 0.000000
# 4 -0.000110 0.000110 0.000000 0.062622 0.000000 -0.002175
# 5 0.001087 -0.001087 0.000000 0.000000 0.062622 -0.000220
# 6 0.000000 0.000000 0.000000 -0.002175 -0.000220 0.054905
#
#
# Mechanical properties :
#
#
# Convention : Reuss Voigt Hill
#
# Bulk Modulus (GPa) = 42.40832 45.50025 43.95428
# Shear Modulus (GPa) = 19.17463 22.03894 20.60679
#
# Velocity S-wave (km/s) = 3.32605 3.56583 3.44803
# Velocity P-wave (km/s) = 6.26237 6.57301 6.41957
#
# Compressibility (1/GPa) = 0.02358028
#
# Stress axis : x y z
#
# Youngs Moduli (GPa) = 50.70061 50.70061 114.69420
#
# Poissons Ratio (x) = 0.39185 0.26175
# Poissons Ratio (y) = 0.39185 0.26175
# Poissons Ratio (z) = 0.11571 0.11571
#
# Static dielectric constant tensor:
#      x y z
#    x 1.589060 0.000000 0.000000 
#    y 0.000000 1.589060 0.000000 
#    z 0.000000 0.000000 1.642270 
# 
# From -- ./inp_files/339.got.cif
#   From: 2010.05.17/outbox.cif.g08.bks.cpg/sg145_cif.got.tgz:339.got - 2010.05.20 13:47:28.
