data_PCOD9574067
_publ_section_title
;
Structure prediction by ZEFSAII (Michael W. Deem and Ramdas Pophale) SiO2 
 PCOD9574067
Probable space group: I 41/A C D
;
_chemical_formula_sum "Si O2"
_cell_formula_units_Z 64
_cell_length_a 12.529505
_cell_length_b 12.529505
_cell_length_c 21.269288
_cell_angle_alpha 90.000000
_cell_angle_beta 90.000000
_cell_angle_gamma 90.000000
_cell_volume 3339.033524
_symmetry_space_group_name_H-M "I 41/A C D"
_symmetry_group_IT_number 142
_space_group.IT_coordinate_system_code '2'
_symmetry_cell_setting 'tetragonal'
loop_
_space_group_symop_operation_xyz
x,y,z
1/4-y,3/4+x,1/4+z
-x,1/2-y,z
1/4+y,1/4-x,3/4+z
x,-y,1/2-z
1/2-x,y,-z
3/4+y,1/4+x,1/4-z
1/4-y,1/4-x,1/4-z
-x,-y,-z
3/4+y,1/4-x,3/4-z
x,1/2+y,-z
3/4-y,3/4+x,1/4-z
-x,y,1/2+z
1/2+x,-y,z
1/4-y,3/4-x,3/4+z
3/4+y,3/4+x,3/4+z
1/2+x,1/2+y,1/2+z
3/4-y,1/4+x,3/4+z
1/2-x,-y,1/2+z
3/4+y,3/4-x,1/4+z
1/2+x,1/2-y,-z
-x,1/2+y,1/2-z
1/4+y,3/4+x,3/4-z
3/4-y,3/4-x,3/4-z
1/2-x,1/2-y,1/2-z
1/4+y,3/4-x,1/4-z
1/2+x,y,1/2-z
1/4-y,1/4+x,3/4-z
1/2-x,1/2+y,z
x,1/2-y,1/2+z
3/4-y,1/4-x,1/4+z
1/4+y,1/4+x,1/4+z
loop_
_atom_site_type_symbol
_atom_site_label
_atom_site_fract_x
_atom_site_fract_y
_atom_site_fract_z
Si Si1 0.000000 0.250000 0.225120
Si Si2 0.624673 0.125328 0.875000
Si Si3 0.561137 0.891084 0.910304
O O1 0.956710 0.155726 0.180947
O O2 0.905047 0.291562 0.270109
O O3 0.742330 0.142466 0.847896
O O4 0.633221 0.803555 0.874397
#
# Coordination Sequence:
#
# PCOD9574067 Si02
#       3
#    16  16  32
#     4   9  21  38  56  90 121 143 196 248 272 343
#     4  11  20  36  64  85 112 162 194 227 296 346
#     4   9  21  39  55  83 122 151 189 242 286 338
#
# _framework density 19.167223
#
# number of rings (size 3 to 8) (size 9 to 14) (size 15 to 20)
#    0.000    3.000    0.000    1.500    0.000   12.000 
#    0.000   10.000    0.000    0.000    0.000    0.000 
#    0.000    0.000    0.000    0.000    0.000    0.000 
#
# Total GULP energy -178515.833795 kJ/mol
# GULP energy per Si atom -5578.619806 kJ/mol
# Density = 1.912360 g / cm^3
# Si number density = 19.167223 Si / 1000 Ang^3
#
#
#
# Elastic Constant Matrix: (Units=GPa)
#
#
# Indices 1 2 3 4 5 6 
#
# 1 78.2692 77.8092 41.0499 0.0000 0.0000 0.0000
# 2 77.8092 78.2696 41.0498 0.0000 0.0000 0.0000
# 3 41.0499 41.0498 126.0605 0.0000 0.0000 0.0000
# 4 0.0000 0.0000 0.0000 4.2726 0.0000 0.0000
# 5 0.0000 0.0000 0.0000 0.0000 4.2726 0.0000
# 6 0.0000 0.0000 0.0000 0.0000 0.0000 20.1379
#
#
#
# Elastic Compliance Matrix: (Units=1/GPa)
#
#
# Indices 1 2 3 4 5 6 
#
# 1 1.090543 -1.082808 -0.002520 0.000000 0.000000 0.000000
# 2 -1.082808 1.090535 -0.002515 0.000000 0.000000 0.000000
# 3 -0.002520 -0.002515 0.009572 0.000000 0.000000 0.000000
# 4 0.000000 0.000000 0.000000 0.234050 0.000000 0.000000
# 5 0.000000 0.000000 0.000000 0.000000 0.234052 0.000000
# 6 0.000000 0.000000 0.000000 0.000000 0.000000 0.049658
#
#
# Mechanical properties :
#
#
# Convention : Reuss Voigt Hill
#
# Bulk Modulus (GPa) = 66.82439 66.93523 66.87981
# Shear Modulus (GPa) = 1.02269 13.91597 7.46933
#
# Velocity S-wave (km/s) = 0.73124 2.69742 1.97621
# Velocity P-wave (km/s) = 5.97097 6.68573 6.33843
#
# Compressibility (1/GPa) = 0.01496460
#
# Stress axis : x y z
#
# Youngs Moduli (GPa) = 0.91697 0.91698 104.46771
#
# Poissons Ratio (x) = 0.99291 0.26325
# Poissons Ratio (y) = 0.99291 0.26277
# Poissons Ratio (z) = 0.00231 0.00231
#
# Static dielectric constant tensor:
#      x y z
#    x 1.649780 0.000000 0.000000 
#    y 0.000000 1.649780 0.000000 
#    z 0.000000 0.000000 1.683560 
# 
# From -- ./inp_files/6271.got.cif
#   From: 2010.05.17/outbox.cif.g08.bks.cpg/sg142_4_cif.got.tgz:6271.got - 2010.05.20 13:39:18.
