data_PCOD9574052
_publ_section_title
;
Structure prediction by ZEFSAII (Michael W. Deem and Ramdas Pophale) SiO2 
 PCOD9574052
Probable space group: I 41/A C D
;
_chemical_formula_sum "Si O2"
_cell_formula_units_Z 216
_cell_length_a 30.647219
_cell_length_b 30.647219
_cell_length_c 12.235422
_cell_angle_alpha 90.000000
_cell_angle_beta 90.000000
_cell_angle_gamma 90.000000
_cell_volume 11492.144981
_symmetry_space_group_name_H-M "I 41/A C D"
_symmetry_group_IT_number 142
_space_group.IT_coordinate_system_code '2'
_symmetry_cell_setting 'tetragonal'
loop_
_space_group_symop_operation_xyz
x,y,z
1/4-y,3/4+x,1/4+z
-x,1/2-y,z
1/4+y,1/4-x,3/4+z
x,-y,1/2-z
1/2-x,y,-z
3/4+y,1/4+x,1/4-z
1/4-y,1/4-x,1/4-z
-x,-y,-z
3/4+y,1/4-x,3/4-z
x,1/2+y,-z
3/4-y,3/4+x,1/4-z
-x,y,1/2+z
1/2+x,-y,z
1/4-y,3/4-x,3/4+z
3/4+y,3/4+x,3/4+z
1/2+x,1/2+y,1/2+z
3/4-y,1/4+x,3/4+z
1/2-x,-y,1/2+z
3/4+y,3/4-x,1/4+z
1/2+x,1/2-y,-z
-x,1/2+y,1/2-z
1/4+y,3/4+x,3/4-z
3/4-y,3/4-x,3/4-z
1/2-x,1/2-y,1/2-z
1/4+y,3/4-x,1/4-z
1/2+x,y,1/2-z
1/4-y,1/4+x,3/4-z
1/2-x,1/2+y,z
x,1/2-y,1/2+z
3/4-y,1/4-x,1/4+z
1/4+y,1/4+x,1/4+z
loop_
_atom_site_type_symbol
_atom_site_label
_atom_site_fract_x
_atom_site_fract_y
_atom_site_fract_z
Si Si1 0.571661 0.546828 0.077053
Si Si2 0.440632 0.049124 0.086139
Si Si3 0.395692 0.817096 0.903368
Si Si4 0.585722 0.273163 0.997359
Si Si5 0.614645 0.635356 0.125000
Si Si6 0.334129 0.725558 0.117639
Si Si7 0.540218 0.539542 0.834594
Si Si8 0.500000 0.250000 0.375000
O O1 0.582009 0.497027 0.110387
O O2 0.604428 0.584161 0.113791
O O3 0.524129 0.563522 0.122246
O O4 0.566866 0.543978 0.945345
O O5 0.421994 0.094731 0.128819
O O6 0.489713 0.040022 0.129205
O O7 0.447766 0.059318 0.957906
O O8 0.395742 0.764996 0.923799
O O9 0.431575 0.829418 0.812760
O O10 0.404867 0.841416 0.017593
O O11 0.613902 0.273602 0.883471
O O12 0.540395 0.253851 0.956206
O O13 0.329145 0.704638 0.998041
O O14 0.548058 0.500000 0.750000
#
# Coordination Sequence:
#
# PCOD9574052 Si02
#       8
#    32  32  32  32  16  32  32   8
#     4  11  22  36  60  89 122 154 205 248 324 372
#     4  11  22  36  59  89 114 158 195 258 319 375
#     4  12  26  40  60  83 124 167 217 258 308 358
#     4  12  24  41  57  84 116 171 223 260 302 365
#     4  12  25  40  58  89 124 172 193 266 302 380
#     4  11  20  35  60  82 118 151 202 260 306 359
#     4  11  17  33  57  91 112 148 199 250 314 374
#     4  12  26  42  60  74 120 172 230 262 288 346
#
# _framework density 18.795446999999999
#
# number of rings (size 3 to 8) (size 9 to 14) (size 15 to 20)
#    0.000    0.593    5.926    4.000    2.074    0.000 
#    0.000    0.000    0.000    0.000    0.000    0.000 
#    0.000    9.481    0.000    0.000    0.000    0.000 
#
# Total GULP energy -602332.689051 kJ/mol
# GULP energy per Si atom -5577.154528 kJ/mol
# Density = 1.875267 g / cm^3
# Si number density = 18.795447 Si / 1000 Ang^3
#
#
#
# Elastic Constant Matrix: (Units=GPa)
#
#
# Indices 1 2 3 4 5 6 
#
# 1 139.3802 -0.9021 32.3597 0.0000 0.0000 0.0000
# 2 -0.9021 139.3755 32.3557 0.0000 0.0000 0.0000
# 3 32.3597 32.3557 101.8914 0.0000 0.0000 0.0000
# 4 0.0000 0.0000 0.0000 26.2959 0.0000 0.0000
# 5 0.0000 0.0000 0.0000 0.0000 26.2955 0.0000
# 6 0.0000 0.0000 0.0000 0.0000 0.0000 18.1633
#
#
#
# Elastic Compliance Matrix: (Units=1/GPa)
#
#
# Indices 1 2 3 4 5 6 
#
# 1 0.007804 0.000676 -0.002693 0.000000 0.000000 0.000000
# 2 0.000676 0.007804 -0.002693 0.000000 0.000000 0.000000
# 3 -0.002693 -0.002693 0.011525 0.000000 0.000000 0.000000
# 4 0.000000 0.000000 0.000000 0.038029 0.000000 0.000000
# 5 0.000000 0.000000 0.000000 0.000000 0.038029 0.000000
# 6 0.000000 0.000000 0.000000 0.000000 0.000000 0.055056
#
#
# Mechanical properties :
#
#
# Convention : Reuss Voigt Hill
#
# Bulk Modulus (GPa) = 56.45620 56.47485 56.46553
# Shear Modulus (GPa) = 28.80642 35.27320 32.03981
#
# Velocity S-wave (km/s) = 3.91913 4.33678 4.13323
# Velocity P-wave (km/s) = 7.11209 7.42894 7.27224
#
# Compressibility (1/GPa) = 0.01771285
#
# Stress axis : x y z
#
# Youngs Moduli (GPa) = 128.13529 128.13316 86.76934
#
# Poissons Ratio (x) = -0.08658 0.23368
# Poissons Ratio (y) = -0.08658 0.23366
# Poissons Ratio (z) = 0.34508 0.34505
#
# Static dielectric constant tensor:
#      x y z
#    x 1.753150 0.000000 0.000000 
#    y 0.000000 1.753160 0.000000 
#    z 0.000000 0.000000 1.754420 
# 
# From -- ./inp_files/4249.got.cif
#   From: 2010.05.17/outbox.cif.g08.bks.cpg/sg142_3_cif.got.tgz:4249.got - 2010.05.20 13:39:18.
