data_PCOD9574413
_publ_section_title
;
Structure prediction by ZEFSAII (Michael W. Deem and Ramdas Pophale) SiO2 
 PCOD9574413
Probable space group: P 31
;
_chemical_formula_sum "Si O2"
_cell_formula_units_Z 21
_cell_length_a 8.163465
_cell_length_b 8.163465
_cell_length_c 13.711743
_cell_angle_alpha 90.000000
_cell_angle_beta 90.000000
_cell_angle_gamma 120.000000
_cell_volume 791.356851
_symmetry_space_group_name_H-M "P 31"
_symmetry_group_IT_number 144
_symmetry_cell_setting 'hexagonal'
loop_
_space_group_symop_operation_xyz
x,y,z
-y,x-y,1/3+z
-x+y,-x,2/3+z
loop_
_atom_site_type_symbol
_atom_site_label
_atom_site_fract_x
_atom_site_fract_y
_atom_site_fract_z
Si Si1 0.041981 0.985675 0.917560
Si Si2 0.327548 0.535836 0.526076
Si Si3 0.463695 0.716420 0.347009
Si Si4 0.280048 0.188290 0.425943
Si Si5 0.511381 0.092862 0.129377
Si Si6 0.802023 0.718751 0.403117
Si Si7 0.869068 0.467832 0.669204
O O1 0.221708 0.026622 0.850206
O O2 0.930455 0.034000 0.832553
O O3 0.996745 0.091528 0.004140
O O4 0.988059 0.797893 0.982812
O O5 0.427615 0.722570 0.460507
O O6 0.365157 0.624167 0.632072
O O7 0.380953 0.384786 0.487201
O O8 0.105762 0.440799 0.496135
O O9 0.598520 0.625866 0.347248
O O10 0.574738 0.928404 0.309203
O O11 0.428288 0.116684 0.402401
O O12 0.691037 0.099010 0.075946
O O13 0.450617 0.205919 0.058114
O O14 0.589569 0.209507 0.230310
#
# Coordination Sequence:
#
# PCOD9574413 Si02
#       7
#     3   3   3   3   3   3   3
#     4  10  24  42  78 110 146 186 258 306 392 454
#     4  11  27  45  71 106 147 193 255 315 388 466
#     4  11  27  45  71 106 147 193 255 315 388 466
#     4  11  25  46  76 108 150 200 250 320 390 464
#     4  11  27  45  71 106 147 193 255 315 388 466
#     4  11  25  46  76 108 150 200 250 320 390 464
#     4  11  27  45  71 106 147 193 255 315 388 466
#
# _framework density 26.536697
#
# number of rings (size 3 to 8) (size 9 to 14) (size 15 to 20)
#    0.000    1.143    0.000    4.286   20.000    0.000 
#    0.000    0.000    0.000    0.000    0.000    0.000 
#    0.000    0.000    0.000    0.000    0.000    0.000 
#
# Total GULP energy -116906.947470 kJ/mol
# GULP energy per Si atom -5566.997499 kJ/mol
# Density = 2.647630 g / cm^3
# Si number density = 26.536697 Si / 1000 Ang^3
#
#
#
# Elastic Constant Matrix: (Units=GPa)
#
#
# Indices 1 2 3 4 5 6 
#
# 1 48.0685 1.9748 -0.4015 -2.3176 8.4084 0.0000
# 2 1.9748 48.0685 -0.4015 2.3176 -8.4084 0.0000
# 3 -0.4015 -0.4015 109.3599 0.0000 0.0000 0.0000
# 4 -2.3176 2.3176 0.0000 33.3239 0.0000 -8.4084
# 5 8.4084 -8.4084 0.0000 0.0000 33.3239 -2.3176
# 6 0.0000 0.0000 0.0000 -8.4084 -2.3176 23.0468
#
#
#
# Elastic Compliance Matrix: (Units=1/GPa)
#
#
# Indices 1 2 3 4 5 6 
#
# 1 0.022032 -0.002048 0.000073 0.001675 -0.006076 0.000000
# 2 -0.002048 0.022032 0.000073 -0.001675 0.006076 0.000000
# 3 0.000073 0.000073 0.009145 0.000000 0.000000 0.000000
# 4 0.001675 -0.001675 0.000000 0.033308 0.000000 0.012152
# 5 -0.006076 0.006076 0.000000 0.000000 0.033308 0.003349
# 6 0.000000 0.000000 0.000000 0.012152 0.003349 0.048160
#
#
# Mechanical properties :
#
#
# Convention : Reuss Voigt Hill
#
# Bulk Modulus (GPa) = 20.24048 23.09336 21.66692
# Shear Modulus (GPa) = 26.55966 31.56061 29.06014
#
# Velocity S-wave (km/s) = 3.16708 3.45239 3.31281
# Velocity P-wave (km/s) = 4.58451 4.96118 4.77656
#
# Compressibility (1/GPa) = 0.04940594
#
# Stress axis : x y z
#
# Youngs Moduli (GPa) = 45.38854 45.38854 109.35345
#
# Poissons Ratio (x) = 0.09296 -0.00802
# Poissons Ratio (y) = 0.09296 -0.00802
# Poissons Ratio (z) = -0.00333 -0.00333
#
# Static dielectric constant tensor:
#      x y z
#    x 2.251340 0.000000 0.000000 
#    y 0.000000 2.251340 0.000000 
#    z 0.000000 0.000000 2.005260 
# 
# From -- ./inp_files/591.got.cif
#   From: 2010.05.17/outbox.cif.g08.bks.cpg/sg144_cif.got.tgz:591.got - 2010.05.20 13:46:34.
