data_PCOD9574752
_publ_section_title
;
Structure prediction by ZEFSAII (Michael W. Deem and Ramdas Pophale) SiO2 
 PCOD9574752
Probable space group: R 3
;
_chemical_formula_sum "Si O2"
_cell_formula_units_Z 33
_cell_length_a 10.006112
_cell_length_b 10.006112
_cell_length_c 13.459790
_cell_angle_alpha 90.000000
_cell_angle_beta 90.000000
_cell_angle_gamma 120.000000
_cell_volume 1167.077335
_symmetry_space_group_name_H-M "R 3"
_symmetry_group_IT_number 146
_symmetry_cell_setting 'hexagonal'
loop_
_space_group_symop_operation_xyz
x,y,z
-y,x-y,z
-x+y,-x,z
2/3+x,1/3+y,1/3+z
2/3-y,1/3+x-y,1/3+z
2/3-x+y,1/3-x,1/3+z
1/3+x,2/3+y,2/3+z
1/3-y,2/3+x-y,2/3+z
1/3-x+y,2/3-x,2/3+z
loop_
_atom_site_type_symbol
_atom_site_label
_atom_site_fract_x
_atom_site_fract_y
_atom_site_fract_z
Si Si1 0.000000 0.000000 0.701967
Si Si2 0.924681 0.354169 0.313197
Si Si3 0.517198 0.003120 0.106578
Si Si4 0.333335 0.666668 0.131603
Si Si5 0.527321 0.759555 0.854168
O O1 0.159936 0.146629 0.741389
O O2 0.000000 0.000000 0.583862
O O3 0.864019 0.419210 0.400903
O O4 0.985536 0.472591 0.222598
O O5 0.048980 0.335370 0.376154
O O6 0.843080 0.193071 0.249776
O O7 0.483275 0.827528 0.097244
O O8 0.422957 0.835826 0.878967
#
# Coordination Sequence:
#
# PCOD9574752 Si02
#       5
#     3   9   9   3   9
#     4  12  27  57  78 124 158 220 267 342 399 493
#     4  10  22  46  68 114 144 204 256 318 392 476
#     4  11  26  50  83 112 170 205 275 328 416 471
#     4  12  27  57  78 124 158 220 267 342 399 493
#     4   9  22  42  69 100 146 189 249 316 378 465
#
# _framework density 28.275762
#
# number of rings (size 3 to 8) (size 9 to 14) (size 15 to 20)
#    0.545    1.091    2.727    0.000    7.636    0.000 
#   24.545    0.000    0.000    1.091    0.000    0.000 
#    0.000    0.000    0.000    0.000    0.000    0.000 
#
# Total GULP energy -61358.790559 kJ/mol
# GULP energy per Si atom -5578.071869 kJ/mol
# Density = 2.821141 g / cm^3
# Si number density = 28.275762 Si / 1000 Ang^3
#
#
#
# Elastic Constant Matrix: (Units=GPa)
#
#
# Indices 1 2 3 4 5 6 
#
# 1 110.0961 66.2109 34.3785 13.0923 1.2658 0.0000
# 2 66.2109 110.0973 34.3785 -13.0924 -1.2659 0.0002
# 3 34.3785 34.3785 234.0979 0.0004 -0.0001 0.0000
# 4 13.0923 -13.0924 0.0004 45.8435 0.0003 -1.2659
# 5 1.2658 -1.2659 -0.0001 0.0003 45.8436 13.0924
# 6 0.0000 0.0002 0.0000 -1.2659 13.0924 21.9425
#
#
#
# Elastic Compliance Matrix: (Units=1/GPa)
#
#
# Indices 1 2 3 4 5 6 
#
# 1 0.016768 -0.010752 -0.000884 -0.007859 -0.000760 0.000000
# 2 -0.010752 0.016768 -0.000884 0.007859 0.000760 0.000000
# 3 -0.000884 -0.000884 0.004531 0.000000 0.000000 0.000000
# 4 -0.007859 0.007859 0.000000 0.026344 0.000000 0.001520
# 5 -0.000760 0.000760 0.000000 0.000000 0.026344 -0.015719
# 6 0.000000 0.000000 0.000000 0.001520 -0.015719 0.055040
#
#
# Mechanical properties :
#
#
# Convention : Reuss Voigt Hill
#
# Bulk Modulus (GPa) = 76.74615 80.46969 78.60792
# Shear Modulus (GPa) = 28.54260 44.01414 36.27837
#
# Velocity S-wave (km/s) = 3.18061 3.94966 3.58581
# Velocity P-wave (km/s) = 6.37882 7.02285 6.70857
#
# Compressibility (1/GPa) = 0.01302997
#
# Stress axis : x y z
#
# Youngs Moduli (GPa) = 59.63707 59.63770 220.69083
#
# Poissons Ratio (x) = 0.64120 0.19499
# Poissons Ratio (y) = 0.64119 0.19499
# Poissons Ratio (z) = 0.05269 0.05269
#
# Static dielectric constant tensor:
#      x y z
#    x 2.249530 0.000000 0.000000 
#    y 0.000000 2.249530 0.000000 
#    z 0.000000 0.000000 2.093620 
# 
# From -- ./inp_files/1355.got.cif
#   From: 2010.05.17/outbox.cif.g08.bks.cpg/sg146_cif.got.tgz:1355.got - 2010.05.20 13:48:23.
