data_PCOD9574831
_publ_section_title
;
Structure prediction by ZEFSAII (Michael W. Deem and Ramdas Pophale) SiO2 
 PCOD9574831
Probable space group: R 3
;
_chemical_formula_sum "Si O2"
_cell_formula_units_Z 51
_cell_length_a 17.489525
_cell_length_b 17.489525
_cell_length_c 7.858340
_cell_angle_alpha 90.000000
_cell_angle_beta 90.000000
_cell_angle_gamma 120.000000
_cell_volume 2081.696807
_symmetry_space_group_name_H-M "R 3"
_symmetry_group_IT_number 146
_symmetry_cell_setting 'hexagonal'
loop_
_space_group_symop_operation_xyz
x,y,z
-y,x-y,z
-x+y,-x,z
2/3+x,1/3+y,1/3+z
2/3-y,1/3+x-y,1/3+z
2/3-x+y,1/3-x,1/3+z
1/3+x,2/3+y,2/3+z
1/3-y,2/3+x-y,2/3+z
1/3-x+y,2/3-x,2/3+z
loop_
_atom_site_type_symbol
_atom_site_label
_atom_site_fract_x
_atom_site_fract_y
_atom_site_fract_z
Si Si1 0.000000 0.000000 0.875000
Si Si2 0.842004 0.378205 0.340411
Si Si3 0.449906 0.991316 0.183358
Si Si4 0.196050 0.114296 0.353332
Si Si5 0.047292 0.639607 0.252022
Si Si6 0.011502 0.419625 0.828471
Si Si7 0.666667 0.333334 0.805345
O O1 0.076432 0.985860 0.949934
O O2 0.000000 0.000000 0.674389
O O3 0.903878 0.421872 0.179127
O O4 0.853334 0.449878 0.482422
O O5 0.884052 0.321964 0.412220
O O6 0.503356 0.957267 0.293903
O O7 0.348997 0.964908 0.227198
O O8 0.444913 0.961630 0.990721
O O9 0.221299 0.194866 0.480101
O O10 0.277548 0.097334 0.376870
O O11 0.099588 0.035207 0.407556
O O12 0.038641 0.682258 0.431416
#
# Coordination Sequence:
#
# PCOD9574831 Si02
#       7
#     3   9   9   9   9   9   3
#     4  12  31  47  73 114 151 194 247 321 388 452
#     4  12  26  46  75 108 147 193 256 310 373 454
#     4  12  24  47  70 110 144 194 253 308 371 450
#     4  12  25  48  75 105 151 196 250 306 379 452
#     4  12  28  48  75 112 155 201 249 313 388 453
#     4  12  24  45  74 108 146 198 248 310 370 445
#     4  12  28  53  76 111 148 200 247 318 385 458
#
# _framework density 24.499243
#
# number of rings (size 3 to 8) (size 9 to 14) (size 15 to 20)
#    0.000    0.000    5.294    4.235    2.471    1.412 
#    0.000    0.000    0.000    0.000    0.000    0.000 
#    0.000    0.000    0.000    0.000    0.000    0.000 
#
# Total GULP energy -94883.408141 kJ/mol
# GULP energy per Si atom -5581.376949 kJ/mol
# Density = 2.444348 g / cm^3
# Si number density = 24.499243 Si / 1000 Ang^3
#
#
#
# Elastic Constant Matrix: (Units=GPa)
#
#
# Indices 1 2 3 4 5 6 
#
# 1 82.2185 28.5152 -6.5756 -6.7569 13.6384 0.0004
# 2 28.5152 82.2171 -6.5748 6.7571 -13.6391 -0.0005
# 3 -6.5756 -6.5748 52.5241 0.0002 0.0021 0.0007
# 4 -6.7569 6.7571 0.0002 25.9319 0.0003 -13.6390
# 5 13.6384 -13.6391 0.0021 0.0003 25.9340 -6.7568
# 6 0.0004 -0.0005 0.0007 -13.6390 -6.7568 26.8515
#
#
#
# Elastic Compliance Matrix: (Units=1/GPa)
#
#
# Indices 1 2 3 4 5 6 
#
# 1 0.018536 -0.009369 0.001148 0.007271 -0.014675 0.000000
# 2 -0.009369 0.018536 0.001147 -0.007271 0.014675 0.000000
# 3 0.001148 0.001147 0.019326 -0.000001 -0.000003 -0.000001
# 4 0.007271 -0.007271 -0.000001 0.057791 -0.000001 0.029354
# 5 -0.014675 0.014675 -0.000003 -0.000001 0.057783 0.014541
# 6 0.000000 0.000000 -0.000001 0.029354 0.014541 0.055811
#
#
# Mechanical properties :
#
#
# Convention : Reuss Voigt Hill
#
# Bulk Modulus (GPa) = 23.66837 27.52104 25.59470
# Shear Modulus (GPa) = 19.53014 29.18314 24.35664
#
# Velocity S-wave (km/s) = 2.82649 3.45510 3.15648
# Velocity P-wave (km/s) = 4.50931 5.21294 4.87384
#
# Compressibility (1/GPa) = 0.04225049
#
# Stress axis : x y z
#
# Youngs Moduli (GPa) = 53.94955 53.94850 51.74323
#
# Poissons Ratio (x) = 0.50544 -0.05942
# Poissons Ratio (y) = 0.50545 -0.05934
# Poissons Ratio (z) = -0.06195 -0.06187
#
# Static dielectric constant tensor:
#      x y z
#    x 2.001010 0.000000 0.000000 
#    y 0.000000 2.001010 0.000000 
#    z 0.000000 0.000000 1.928100 
# 
# From -- ./inp_files/695.got.cif
#   From: 2010.05.17/outbox.cif.g08.bks.cpg/sg146_cif.got.tgz:695.got - 2010.05.20 13:48:23.
