data_PCOD9574898
_publ_section_title
;
Structure prediction by ZEFSAII (Michael W. Deem and Ramdas Pophale) SiO2 
 PCOD9574898
Probable space group: P -3
;
_chemical_formula_sum "Si O2"
_cell_formula_units_Z 36
_cell_length_a 12.662493
_cell_length_b 12.662493
_cell_length_c 15.670223
_cell_angle_alpha 90.000000
_cell_angle_beta 90.000000
_cell_angle_gamma 120.000000
_cell_volume 2175.926619
_symmetry_space_group_name_H-M "P -3"
_symmetry_group_IT_number 147
_symmetry_cell_setting 'hexagonal'
loop_
_space_group_symop_operation_xyz
x,y,z
-y,x-y,z
-x+y,-x,z
-x,-y,-z
y,-x+y,-z
x-y,x,-z
loop_
_atom_site_type_symbol
_atom_site_label
_atom_site_fract_x
_atom_site_fract_y
_atom_site_fract_z
Si Si1 0.081869 0.415448 0.583684
Si Si2 0.415448 0.081869 0.083684
Si Si3 0.584552 0.918131 0.583684
Si Si4 0.749547 0.000466 0.250000
Si Si5 0.081869 0.415448 0.916316
Si Si6 0.749081 0.999534 0.750000
O O1 0.095001 0.547501 0.595889
O O2 0.213687 0.427374 0.573243
O O3 0.019478 0.331623 0.666111
O O4 0.999999 0.355884 0.500001
O O5 0.427374 0.213687 0.073243
O O6 0.547501 0.095001 0.095889
O O7 0.331623 0.019478 0.166111
O O8 0.355884 0.999999 0.000001
O O9 0.668378 0.980522 0.666110
O O10 0.687856 0.019478 0.166110
O O11 0.889831 0.110169 0.250000
O O12 0.742044 0.871022 0.250000
#
# Coordination Sequence:
#
# PCOD9574898 Si02
#       6
#     6   6   6   6   6   6
#     4  10  20  34  53  76 103 135 170 209 252 300
#     4  10  20  34  53  76 103 135 170 209 252 300
#     4  10  20  34  53  76 103 135 170 209 252 300
#     4  10  20  34  52  74 100 130 166 208 254 302
#     4  10  20  34  53  76 103 135 170 209 252 300
#     4  10  20  34  52  74 100 130 166 208 254 302
#
# _framework density 16.544675999999999
#
# number of rings (size 3 to 8) (size 9 to 14) (size 15 to 20)
#    0.000    2.000    0.000    4.000    0.000    0.000 
#    0.000    3.333    0.000   20.000    0.000    0.000 
#    0.000    0.000    0.000    0.000    0.000    0.000 
#
# Total GULP energy -201009.550119 kJ/mol
# GULP energy per Si atom -5583.598614 kJ/mol
# Density = 1.650702 g / cm^3
# Si number density = 16.544676 Si / 1000 Ang^3
#
#
#
# Elastic Constant Matrix: (Units=GPa)
#
#
# Indices 1 2 3 4 5 6 
#
# 1 148.1146 109.8207 109.9584 0.0000 0.0002 0.0000
# 2 109.8207 148.1146 109.9584 0.0000 -0.0002 0.0000
# 3 109.9584 109.9584 166.7423 0.0000 0.0000 0.0000
# 4 0.0000 0.0000 0.0000 24.8271 0.0000 -0.0002
# 5 0.0002 -0.0002 0.0000 0.0000 24.8271 0.0000
# 6 0.0000 0.0000 0.0000 -0.0002 0.0000 19.1469
#
#
#
# Elastic Compliance Matrix: (Units=1/GPa)
#
#
# Indices 1 2 3 4 5 6 
#
# 1 0.017485 -0.008629 -0.005840 0.000000 0.000000 0.000000
# 2 -0.008629 0.017485 -0.005840 0.000000 0.000000 0.000000
# 3 -0.005840 -0.005840 0.013700 0.000000 0.000000 0.000000
# 4 0.000000 0.000000 0.000000 0.040279 0.000000 0.000000
# 5 0.000000 0.000000 0.000000 0.000000 0.040279 0.000000
# 6 0.000000 0.000000 0.000000 0.000000 0.000000 0.052228
#
#
# Mechanical properties :
#
#
# Convention : Reuss Voigt Hill
#
# Bulk Modulus (GPa) = 124.20002 124.71625 124.45814
# Shear Modulus (GPa) = 22.24613 22.64251 22.44432
#
# Velocity S-wave (km/s) = 3.67087 3.70343 3.68719
# Velocity P-wave (km/s) = 9.65399 9.68671 9.67036
#
# Compressibility (1/GPa) = 0.00805153
#
# Stress axis : x y z
#
# Youngs Moduli (GPa) = 57.19128 57.19128 72.99137
#
# Poissons Ratio (x) = 0.49348 0.42630
# Poissons Ratio (y) = 0.49348 0.42630
# Poissons Ratio (z) = 0.33402 0.33402
#
# Static dielectric constant tensor:
#      x y z
#    x 1.523600 0.000000 0.000000 
#    y 0.000000 1.523600 0.000000 
#    z 0.000000 0.000000 1.534200 
# 
# From -- ./inp_files/919.got.cif
#   From: 2010.05.17/outbox.cif.g08.bks.cpg/sg147_cif.got.tgz:919.got - 2010.05.20 13:49:32.
