data_PCOD9574644
_publ_section_title
;
Structure prediction by ZEFSAII (Michael W. Deem and Ramdas Pophale) SiO2 
 PCOD9574644
Probable space group: P 32
;
_chemical_formula_sum "Si O2"
_cell_formula_units_Z 21
_cell_length_a 9.717719
_cell_length_b 9.717719
_cell_length_c 10.798877
_cell_angle_alpha 90.000000
_cell_angle_beta 90.000000
_cell_angle_gamma 120.000000
_cell_volume 883.156968
_symmetry_space_group_name_H-M "P 32"
_symmetry_group_IT_number 145
_symmetry_cell_setting 'hexagonal'
loop_
_space_group_symop_operation_xyz
x,y,z
-y,x-y,2/3+z
-x+y,-x,1/3+z
loop_
_atom_site_type_symbol
_atom_site_label
_atom_site_fract_x
_atom_site_fract_y
_atom_site_fract_z
Si Si1 0.132935 0.096295 0.644150
Si Si2 0.593638 0.933880 0.159235
Si Si3 0.789398 0.010770 0.586509
Si Si4 0.507998 0.270303 0.335403
Si Si5 0.333880 0.894639 0.344879
Si Si6 0.282561 0.877078 0.623234
Si Si7 0.851886 0.465246 0.393798
O O1 0.201142 0.240480 0.546816
O O2 0.211084 0.169912 0.775895
O O3 0.177789 0.963859 0.607290
O O4 0.944917 0.025500 0.651873
O O5 0.463451 0.878333 0.265704
O O6 0.541334 0.813205 0.045272
O O7 0.634420 0.104371 0.105133
O O8 0.643620 0.836216 0.612584
O O9 0.743478 0.133579 0.644588
O O10 0.687351 0.310414 0.357926
O O11 0.493995 0.336138 0.202558
O O12 0.393152 0.083072 0.347545
O O13 0.317781 0.839557 0.486522
O O14 0.443484 0.002943 0.691680
#
# Coordination Sequence:
#
# PCOD9574644 Si02
#       7
#     3   3   3   3   3   3   3
#     4  12  23  46  75 111 147 195 259 318 375 465
#     4  12  26  46  78 116 152 200 256 318 396 456
#     4  12  26  46  74 107 147 199 256 313 381 458
#     4  12  23  46  75 111 147 195 259 318 375 465
#     4  12  25  49  75 110 157 201 251 321 390 465
#     4  12  25  49  75 110 157 201 251 321 390 465
#     4  12  26  46  74 107 147 199 256 313 381 458
#
# _framework density 23.77833
#
# number of rings (size 3 to 8) (size 9 to 14) (size 15 to 20)
#    0.000    0.000    4.286    6.857    0.000    0.000 
#    7.714    0.000    0.000    0.000    0.000    0.000 
#    0.000    0.000    0.000    0.000    0.000    0.000 
#
# Total GULP energy -117890.467606 kJ/mol
# GULP energy per Si atom -5613.831791 kJ/mol
# Density = 2.372421 g / cm^3
# Si number density = 23.778330 Si / 1000 Ang^3
#
#
#
# Elastic Constant Matrix: (Units=GPa)
#
#
# Indices 1 2 3 4 5 6 
#
# 1 65.0750 14.7269 25.3902 4.1473 2.7440 0.0000
# 2 14.7269 65.0750 25.3902 -4.1473 -2.7440 0.0000
# 3 25.3902 25.3902 139.2523 0.0000 0.0000 0.0000
# 4 4.1473 -4.1473 0.0000 39.9223 0.0000 -2.7440
# 5 2.7440 -2.7440 0.0000 0.0000 39.9223 4.1473
# 6 0.0000 0.0000 0.0000 -2.7440 4.1473 25.1741
#
#
#
# Elastic Compliance Matrix: (Units=1/GPa)
#
#
# Indices 1 2 3 4 5 6 
#
# 1 0.017269 -0.003094 -0.002585 -0.002115 -0.001400 0.000000
# 2 -0.003094 0.017269 -0.002585 0.002115 0.001400 0.000000
# 3 -0.002585 -0.002585 0.008124 0.000000 0.000000 0.000000
# 4 -0.002115 0.002115 0.000000 0.025681 0.000000 0.002799
# 5 -0.001400 0.001400 0.000000 0.000000 0.025681 -0.004231
# 6 0.000000 0.000000 0.000000 0.002799 -0.004231 0.040726
#
#
# Mechanical properties :
#
#
# Convention : Reuss Voigt Hill
#
# Bulk Modulus (GPa) = 38.26073 44.49079 41.37576
# Shear Modulus (GPa) = 31.25255 34.59674 32.92465
#
# Velocity S-wave (km/s) = 3.62930 3.81854 3.72512
# Velocity P-wave (km/s) = 5.80413 6.18005 5.99504
#
# Compressibility (1/GPa) = 0.02613646
#
# Stress axis : x y z
#
# Youngs Moduli (GPa) = 57.90637 57.90637 123.09574
#
# Poissons Ratio (x) = 0.17913 0.31817
# Poissons Ratio (y) = 0.17913 0.31817
# Poissons Ratio (z) = 0.14967 0.14967
#
# Static dielectric constant tensor:
#      x y z
#    x 1.879210 0.000000 0.000000 
#    y 0.000000 1.879210 0.000000 
#    z 0.000000 0.000000 1.877410 
# 
# From -- ./inp_files/613.got.cif
#   From: 2010.05.17/outbox.cif.g08.bks.cpg/sg145_cif.got.tgz:613.got - 2010.05.20 13:47:28.
