data_PCOD9574884
_publ_section_title
;
Structure prediction by ZEFSAII (Michael W. Deem and Ramdas Pophale) SiO2 
 PCOD9574884
Probable space group: P -3
;
_chemical_formula_sum "Si O2"
_cell_formula_units_Z 42
_cell_length_a 13.413053
_cell_length_b 13.413053
_cell_length_c 17.923179
_cell_angle_alpha 90.000000
_cell_angle_beta 90.000000
_cell_angle_gamma 120.000000
_cell_volume 2792.549983
_symmetry_space_group_name_H-M "P -3"
_symmetry_group_IT_number 147
_symmetry_cell_setting 'hexagonal'
loop_
_space_group_symop_operation_xyz
x,y,z
-y,x-y,z
-x+y,-x,z
-x,-y,-z
y,-x+y,-z
x-y,x,-z
loop_
_atom_site_type_symbol
_atom_site_label
_atom_site_fract_x
_atom_site_fract_y
_atom_site_fract_z
Si Si1 0.333434 0.432015 0.623161
Si Si2 0.763332 0.999339 0.085291
Si Si3 0.901942 0.567807 0.202809
Si Si4 0.665865 0.567807 0.202809
Si Si5 0.333434 0.901419 0.623161
Si Si6 0.000661 0.236668 0.085291
Si Si7 0.761766 1.000000 0.500000
O O1 0.334660 0.401524 0.710157
O O2 0.231644 0.463289 0.615241
O O3 0.456534 0.543466 0.605170
O O4 0.298361 0.323554 0.569938
O O5 0.688933 0.020039 0.146215
O O6 0.893378 0.106622 0.090859
O O7 0.762238 0.881119 0.097814
O O8 0.724699 1.000000 1.000000
O O9 0.772433 0.544865 0.193743
O O10 0.905666 0.452833 0.187067
O O11 0.933136 0.598476 0.289843
O O12 0.688933 0.668894 0.146215
O O13 0.298361 0.974807 0.569938
O O14 0.773151 0.886576 0.489135
#
# Coordination Sequence:
#
# PCOD9574884 Si02
#       7
#     6   6   6   6   6   6   6
#     4   9  17  30  48  68  88 112 145 185 225 263
#     4   9  17  29  45  65  89 118 152 188 223 259
#     4   9  17  29  46  67  89 113 143 182 226 268
#     4   9  17  29  46  67  89 113 143 182 226 268
#     4   9  17  30  48  68  88 112 145 185 225 263
#     4   9  17  29  45  65  89 118 152 188 223 259
#     4  10  20  32  46  66  94 124 150 178 216 262
#
# _framework density 15.040017000000001
#
# number of rings (size 3 to 8) (size 9 to 14) (size 15 to 20)
#    0.000    2.857    0.000    1.429    0.000    5.143 
#    0.000    0.000    0.000    4.571    0.000    0.000 
#    0.000    0.000    0.000    0.000    0.000    0.000 
#
# Total GULP energy -233957.815775 kJ/mol
# GULP energy per Si atom -5570.424185 kJ/mol
# Density = 1.500579 g / cm^3
# Si number density = 15.040017 Si / 1000 Ang^3
#
#
#
# Elastic Constant Matrix: (Units=GPa)
#
#
# Indices 1 2 3 4 5 6 
#
# 1 98.7230 62.0226 79.4504 0.2857 0.0000 0.0000
# 2 62.0226 98.7230 79.4504 -0.2857 0.0000 0.0000
# 3 79.4504 79.4504 104.7203 0.0000 0.0000 0.0000
# 4 0.2857 -0.2857 0.0000 24.8467 0.0000 0.0000
# 5 0.0000 0.0000 0.0000 0.0000 24.8467 0.2857
# 6 0.0000 0.0000 0.0000 0.0000 0.2857 18.3502
#
#
#
# Elastic Compliance Matrix: (Units=1/GPa)
#
#
# Indices 1 2 3 4 5 6 
#
# 1 0.026068 -0.001185 -0.018878 -0.000313 0.000000 0.000000
# 2 -0.001185 0.026068 -0.018878 0.000313 0.000000 0.000000
# 3 -0.018878 -0.018878 0.038195 0.000000 0.000000 0.000000
# 4 -0.000313 0.000313 0.000000 0.040254 0.000000 0.000000
# 5 0.000000 0.000000 0.000000 0.000000 0.040254 -0.000627
# 6 0.000000 0.000000 0.000000 0.000000 -0.000627 0.054505
#
#
# Mechanical properties :
#
#
# Convention : Reuss Voigt Hill
#
# Bulk Modulus (GPa) = 80.34031 82.66813 81.50422
# Shear Modulus (GPa) = 16.26679 19.02491 17.64585
#
# Velocity S-wave (km/s) = 3.29229 3.56048 3.42900
# Velocity P-wave (km/s) = 8.24535 8.48454 8.36580
#
# Compressibility (1/GPa) = 0.01244705
#
# Stress axis : x y z
#
# Youngs Moduli (GPa) = 38.36189 38.36189 26.18162
#
# Poissons Ratio (x) = 0.04546 0.49426
# Poissons Ratio (y) = 0.04546 0.49426
# Poissons Ratio (z) = 0.72420 0.72420
#
# Static dielectric constant tensor:
#      x y z
#    x 1.473700 0.000000 0.000000 
#    y 0.000000 1.473700 0.000000 
#    z 0.000000 0.000000 1.501460 
# 
# From -- ./inp_files/1023.got.cif
#   From: 2010.05.17/outbox.cif.g08.bks.cpg/sg147_cif.got.tgz:1023.got - 2010.05.20 13:49:32.
