data_PCOD9574410
_publ_section_title
;
Structure prediction by ZEFSAII (Michael W. Deem and Ramdas Pophale) SiO2 
 PCOD9574410
Probable space group: P 31
;
_chemical_formula_sum "Si O2"
_cell_formula_units_Z 18
_cell_length_a 8.297173
_cell_length_b 8.297173
_cell_length_c 11.244145
_cell_angle_alpha 90.000000
_cell_angle_beta 90.000000
_cell_angle_gamma 120.000000
_cell_volume 670.374305
_symmetry_space_group_name_H-M "P 31"
_symmetry_group_IT_number 144
_symmetry_cell_setting 'hexagonal'
loop_
_space_group_symop_operation_xyz
x,y,z
-y,x-y,1/3+z
-x+y,-x,2/3+z
loop_
_atom_site_type_symbol
_atom_site_label
_atom_site_fract_x
_atom_site_fract_y
_atom_site_fract_z
Si Si1 0.486505 0.209760 0.851920
Si Si2 0.723251 0.513484 0.018587
Si Si3 0.818516 0.965790 0.290224
Si Si4 0.148793 0.609991 0.769286
Si Si5 0.148800 0.609998 0.269284
Si Si6 0.034203 0.852718 0.123555
O O1 0.581886 0.193628 0.734068
O O2 0.278645 0.169867 0.854780
O O3 0.497632 0.060002 0.939940
O O4 0.611734 0.418106 0.900736
O O5 0.562369 0.502357 0.106609
O O6 0.891217 0.721347 0.021445
O O7 0.611511 0.854495 0.342295
O O8 0.906086 0.852498 0.231683
O O9 0.946419 0.093908 0.398350
O O10 0.272893 0.526160 0.717543
O O11 0.253265 0.727091 0.884213
O O12 0.145507 0.757015 0.175622
#
# Coordination Sequence:
#
# PCOD9574410 Si02
#       6
#     3   3   3   3   3   3
#     4  10  24  42  64  92 126 166 210 260 312 370
#     4  10  24  42  64  92 126 166 210 260 312 370
#     4  11  24  41  65  94 127 167 209 258 312 371
#     4  11  24  41  65  94 127 167 209 258 312 371
#     4  11  24  41  65  94 127 167 209 258 312 371
#     4  11  24  41  65  94 127 167 209 258 312 371
#
# _framework density 26.850670000000001
#
# number of rings (size 3 to 8) (size 9 to 14) (size 15 to 20)
#    0.000    1.333    0.000    4.000    0.000   24.000 
#    0.000    0.000    0.000    0.000    0.000    0.000 
#    0.000    0.000    0.000    0.000    0.000    0.000 
#
# Total GULP energy -100887.248400 kJ/mol
# GULP energy per Si atom -5604.847133 kJ/mol
# Density = 2.678956 g / cm^3
# Si number density = 26.850670 Si / 1000 Ang^3
#
#
#
# Elastic Constant Matrix: (Units=GPa)
#
#
# Indices 1 2 3 4 5 6 
#
# 1 105.8125 17.0580 13.9190 1.5336 -10.1972 0.0000
# 2 17.0580 105.8125 13.9190 -1.5336 10.1972 0.0000
# 3 13.9190 13.9190 46.1490 0.0000 0.0000 0.0000
# 4 1.5336 -1.5336 0.0000 43.8461 0.0000 10.1972
# 5 -10.1972 10.1972 0.0000 0.0000 43.8461 1.5336
# 6 0.0000 0.0000 0.0000 10.1972 1.5336 44.3772
#
#
#
# Elastic Compliance Matrix: (Units=1/GPa)
#
#
# Indices 1 2 3 4 5 6 
#
# 1 0.010327 -0.001591 -0.002635 -0.000417 0.002772 0.000000
# 2 -0.001591 0.010327 -0.002635 0.000417 -0.002772 0.000000
# 3 -0.002635 -0.002635 0.023258 0.000000 0.000000 0.000000
# 4 -0.000417 0.000417 0.000000 0.024125 0.000000 -0.005544
# 5 0.002772 -0.002772 0.000000 0.000000 0.024125 -0.000834
# 6 0.000000 0.000000 0.000000 -0.005544 -0.000834 0.023837
#
#
# Mechanical properties :
#
#
# Convention : Reuss Voigt Hill
#
# Bulk Modulus (GPa) = 33.12302 38.61844 35.87073
# Shear Modulus (GPa) = 35.76916 40.60576 38.18746
#
# Velocity S-wave (km/s) = 3.65382 3.89302 3.77532
# Velocity P-wave (km/s) = 5.49212 5.88400 5.69143
#
# Compressibility (1/GPa) = 0.03019048
#
# Stress axis : x y z
#
# Youngs Moduli (GPa) = 96.83369 96.83369 42.99542
#
# Poissons Ratio (x) = 0.15410 0.11328
# Poissons Ratio (y) = 0.15410 0.11328
# Poissons Ratio (z) = 0.25513 0.25513
#
# Static dielectric constant tensor:
#      x y z
#    x 2.027250 0.000000 0.000000 
#    y 0.000000 2.027250 0.000000 
#    z 0.000000 0.000000 2.055020 
# 
# From -- ./inp_files/501.got.cif
#   From: 2010.05.17/outbox.cif.g08.bks.cpg/sg144_cif.got.tgz:501.got - 2010.05.20 13:46:34.
