data_PCOD9574027
_publ_section_title
;
Structure prediction by ZEFSAII (Michael W. Deem and Ramdas Pophale) SiO2 
 PCOD9574027
Probable space group: I 41/A C D
;
_chemical_formula_sum "Si O2"
_cell_formula_units_Z 136
_cell_length_a 22.654579
_cell_length_b 22.654579
_cell_length_c 11.756334
_cell_angle_alpha 90.000000
_cell_angle_beta 90.000000
_cell_angle_gamma 90.000000
_cell_volume 6033.702707
_symmetry_space_group_name_H-M "I 41/A C D"
_symmetry_group_IT_number 142
_space_group.IT_coordinate_system_code '2'
_symmetry_cell_setting 'tetragonal'
loop_
_space_group_symop_operation_xyz
x,y,z
1/4-y,3/4+x,1/4+z
-x,1/2-y,z
1/4+y,1/4-x,3/4+z
x,-y,1/2-z
1/2-x,y,-z
3/4+y,1/4+x,1/4-z
1/4-y,1/4-x,1/4-z
-x,-y,-z
3/4+y,1/4-x,3/4-z
x,1/2+y,-z
3/4-y,3/4+x,1/4-z
-x,y,1/2+z
1/2+x,-y,z
1/4-y,3/4-x,3/4+z
3/4+y,3/4+x,3/4+z
1/2+x,1/2+y,1/2+z
3/4-y,1/4+x,3/4+z
1/2-x,-y,1/2+z
3/4+y,3/4-x,1/4+z
1/2+x,1/2-y,-z
-x,1/2+y,1/2-z
1/4+y,3/4+x,3/4-z
3/4-y,3/4-x,3/4-z
1/2-x,1/2-y,1/2-z
1/4+y,3/4-x,1/4-z
1/2+x,y,1/2-z
1/4-y,1/4+x,3/4-z
1/2-x,1/2+y,z
x,1/2-y,1/2+z
3/4-y,1/4-x,1/4+z
1/4+y,1/4+x,1/4+z
loop_
_atom_site_type_symbol
_atom_site_label
_atom_site_fract_x
_atom_site_fract_y
_atom_site_fract_z
Si Si1 0.000000 0.250000 0.375000
Si Si2 0.436107 0.638189 0.395583
Si Si3 0.830001 0.648045 0.280135
Si Si4 0.687159 0.746983 0.540215
Si Si5 0.201733 0.135915 0.668553
O O1 0.968101 0.303121 0.442297
O O2 0.381202 0.651231 0.312728
O O3 0.482667 0.606748 0.311339
O O4 0.411413 0.593281 0.487623
O O5 0.849568 0.599568 0.375000
O O6 0.828462 0.709985 0.347476
O O7 0.767209 0.635344 0.221040
O O8 0.750000 0.722500 0.500000
O O9 0.695198 0.815283 0.569620
O O10 0.176378 0.073623 0.625000
#
# Coordination Sequence:
#
# PCOD9574027 Si02
#       5
#     8  32  32  32  32
#     4  12  24  40  70 104 144 170 216 304 362 404
#     4  11  25  45  68 106 146 186 236 305 358 437
#     4  10  24  46  73 100 139 194 243 291 368 427
#     4  11  23  43  74  98 136 193 246 289 358 440
#     4  12  26  42  72 107 141 189 248 298 364 432
#
# _framework density 22.540057999999998
#
# number of rings (size 3 to 8) (size 9 to 14) (size 15 to 20)
#    0.000    0.941    2.353    3.529    6.588    0.000 
#    0.000   14.118    0.000    0.000    0.000    0.000 
#    0.000    0.000    0.000    0.000    0.000    0.000 
#
# Total GULP energy -380495.862740 kJ/mol
# GULP energy per Si atom -5595.527393 kJ/mol
# Density = 2.248876 g / cm^3
# Si number density = 22.540058 Si / 1000 Ang^3
#
#
#
# Elastic Constant Matrix: (Units=GPa)
#
#
# Indices 1 2 3 4 5 6 
#
# 1 117.7667 54.1455 37.3455 0.0000 0.0000 0.0000
# 2 54.1455 117.7730 37.3469 0.0000 0.0000 0.0000
# 3 37.3455 37.3469 85.1860 0.0000 0.0000 0.0000
# 4 0.0000 0.0000 0.0000 20.6714 0.0000 0.0000
# 5 0.0000 0.0000 0.0000 0.0000 20.6723 0.0000
# 6 0.0000 0.0000 0.0000 0.0000 0.0000 24.8537
#
#
#
# Elastic Compliance Matrix: (Units=1/GPa)
#
#
# Indices 1 2 3 4 5 6 
#
# 1 0.011452 -0.004266 -0.003150 0.000000 0.000000 0.000000
# 2 -0.004266 0.011451 -0.003150 0.000000 0.000000 0.000000
# 3 -0.003150 -0.003150 0.014501 0.000000 0.000000 0.000000
# 4 0.000000 0.000000 0.000000 0.048376 0.000000 0.000000
# 5 0.000000 0.000000 0.000000 0.000000 0.048374 0.000000
# 6 0.000000 0.000000 0.000000 0.000000 0.000000 0.040235
#
#
# Mechanical properties :
#
#
# Convention : Reuss Voigt Hill
#
# Bulk Modulus (GPa) = 61.45747 64.26682 62.86214
# Shear Modulus (GPa) = 24.88238 26.03201 25.45720
#
# Velocity S-wave (km/s) = 3.32613 3.40210 3.36433
# Velocity P-wave (km/s) = 6.48660 6.63374 6.56058
#
# Compressibility (1/GPa) = 0.01627142
#
# Stress axis : x y z
#
# Youngs Moduli (GPa) = 87.32362 87.32801 68.96009
#
# Poissons Ratio (x) = 0.37253 0.21724
# Poissons Ratio (y) = 0.37251 0.21724
# Poissons Ratio (z) = 0.27508 0.27510
#
# Static dielectric constant tensor:
#      x y z
#    x 1.840310 0.000000 0.000000 
#    y 0.000000 1.840310 0.000000 
#    z 0.000000 0.000000 1.985660 
# 
# From -- ./inp_files/3593.got.cif
#   From: 2010.05.17/outbox.cif.g08.bks.cpg/sg142_2_cif.got.tgz:3593.got - 2010.05.20 13:39:18.
