data_PCOD9574768
_publ_section_title
;
Structure prediction by ZEFSAII (Michael W. Deem and Ramdas Pophale) SiO2 
 PCOD9574768
Probable space group: R 3
;
_chemical_formula_sum "Si O2"
_cell_formula_units_Z 42
_cell_length_a 7.955077
_cell_length_b 7.955077
_cell_length_c 38.932627
_cell_angle_alpha 90.000000
_cell_angle_beta 90.000000
_cell_angle_gamma 120.000000
_cell_volume 2133.698815
_symmetry_space_group_name_H-M "R 3"
_symmetry_group_IT_number 146
_symmetry_cell_setting 'hexagonal'
loop_
_space_group_symop_operation_xyz
x,y,z
-y,x-y,z
-x+y,-x,z
2/3+x,1/3+y,1/3+z
2/3-y,1/3+x-y,1/3+z
2/3-x+y,1/3-x,1/3+z
1/3+x,2/3+y,2/3+z
1/3-y,2/3+x-y,2/3+z
1/3-x+y,2/3-x,2/3+z
loop_
_atom_site_type_symbol
_atom_site_label
_atom_site_fract_x
_atom_site_fract_y
_atom_site_fract_z
Si Si1 0.576969 0.749641 0.786740
Si Si2 0.666668 0.333335 0.088973
Si Si3 0.034432 0.356069 0.864461
Si Si4 0.186164 0.776825 0.635476
Si Si5 0.666668 0.333334 0.007137
Si Si6 0.705300 0.040692 0.893695
O O1 0.469315 0.873090 0.778162
O O2 0.602197 0.736054 0.827638
O O3 0.785875 0.844110 0.769588
O O4 0.666668 0.333334 0.048108
O O5 0.058728 0.537431 0.885703
O O6 0.119986 0.249369 0.887120
O O7 0.807467 0.201918 0.864249
O O8 0.125553 0.547337 0.639076
O O9 0.095509 0.872134 0.660345
O O10 0.109422 0.793909 0.597849
#
# Coordination Sequence:
#
# PCOD9574768 Si02
#       6
#     9   3   9   9   3   9
#     4  10  23  46  67 100 138 178 229 286 338 414
#     4  12  27  48  75  93 132 183 234 309 357 393
#     4  12  21  37  61  96 139 179 219 260 328 413
#     4  10  23  46  68 100 141 179 224 286 339 414
#     4  12  27  48  72  99 129 180 240 300 363 396
#     4  12  21  37  61  96 139 181 216 259 331 412
#
# _framework density 19.684128000000001
#
# number of rings (size 3 to 8) (size 9 to 14) (size 15 to 20)
#    0.857    0.000    4.286    3.857    0.000    1.714 
#    2.571    0.000    0.000    0.000    0.000    0.000 
#    0.000    0.000    0.000    0.000    0.000    0.000 
#
# Total GULP energy -77941.858142 kJ/mol
# GULP energy per Si atom -5567.275582 kJ/mol
# Density = 1.963933 g / cm^3
# Si number density = 19.684128 Si / 1000 Ang^3
#
#
#
# Elastic Constant Matrix: (Units=GPa)
#
#
# Indices 1 2 3 4 5 6 
#
# 1 116.7692 43.9363 50.9113 -4.7034 6.4313 -0.0004
# 2 43.9363 116.7689 50.9110 4.7034 -6.4318 -0.0004
# 3 50.9113 50.9110 116.1375 0.0002 -0.0003 -0.0003
# 4 -4.7034 4.7034 0.0002 15.9197 0.0001 -6.4315
# 5 6.4313 -6.4318 -0.0003 0.0001 15.9195 -4.7033
# 6 -0.0004 -0.0004 -0.0003 -6.4315 -4.7033 36.4160
#
#
#
# Elastic Compliance Matrix: (Units=1/GPa)
#
#
# Indices 1 2 3 4 5 6 
#
# 1 0.012017 -0.003402 -0.003777 0.004555 -0.006229 0.000000
# 2 -0.003402 0.012017 -0.003777 -0.004555 0.006229 0.000000
# 3 -0.003777 -0.003777 0.011922 0.000000 0.000000 0.000000
# 4 0.004555 -0.004555 0.000000 0.070540 0.000000 0.012458
# 5 -0.006229 0.006229 0.000000 0.000000 0.070541 0.009111
# 6 0.000000 0.000000 0.000000 0.012458 0.009111 0.030837
#
#
# Mechanical properties :
#
#
# Convention : Reuss Voigt Hill
#
# Bulk Modulus (GPa) = 71.19642 71.24365 71.22003
# Shear Modulus (GPa) = 21.32502 27.24549 24.28526
#
# Velocity S-wave (km/s) = 3.29502 3.72443 3.51629
# Velocity P-wave (km/s) = 7.12209 7.40049 7.26262
#
# Compressibility (1/GPa) = 0.01404565
#
# Stress axis : x y z
#
# Youngs Moduli (GPa) = 83.21516 83.21504 83.88041
#
# Poissons Ratio (x) = 0.28306 0.31680
# Poissons Ratio (y) = 0.28306 0.31679
# Poissons Ratio (z) = 0.31429 0.31428
#
# Static dielectric constant tensor:
#      x y z
#    x 1.784180 0.000000 0.000000 
#    y 0.000000 1.784180 0.000000 
#    z 0.000000 0.000000 1.654120 
# 
# From -- ./inp_files/2308.got.cif
#   From: 2010.05.17/outbox.cif.g08.bks.cpg/sg146_cif.got.tgz:2308.got - 2010.05.20 13:48:23.
