data_PCOD9574130
_publ_section_title
;
Structure prediction by ZEFSAII (Michael W. Deem and Ramdas Pophale) SiO2 
 PCOD9574130
Probable space group: I 41/A C D
;
_chemical_formula_sum "Si O2"
_cell_formula_units_Z 160
_cell_length_a 21.757185
_cell_length_b 21.757185
_cell_length_c 17.043134
_cell_angle_alpha 90.000000
_cell_angle_beta 90.000000
_cell_angle_gamma 90.000000
_cell_volume 8067.795247
_symmetry_space_group_name_H-M "I 41/A C D"
_symmetry_group_IT_number 142
_space_group.IT_coordinate_system_code '2'
_symmetry_cell_setting 'tetragonal'
loop_
_space_group_symop_operation_xyz
x,y,z
1/4-y,3/4+x,1/4+z
-x,1/2-y,z
1/4+y,1/4-x,3/4+z
x,-y,1/2-z
1/2-x,y,-z
3/4+y,1/4+x,1/4-z
1/4-y,1/4-x,1/4-z
-x,-y,-z
3/4+y,1/4-x,3/4-z
x,1/2+y,-z
3/4-y,3/4+x,1/4-z
-x,y,1/2+z
1/2+x,-y,z
1/4-y,3/4-x,3/4+z
3/4+y,3/4+x,3/4+z
1/2+x,1/2+y,1/2+z
3/4-y,1/4+x,3/4+z
1/2-x,-y,1/2+z
3/4+y,3/4-x,1/4+z
1/2+x,1/2-y,-z
-x,1/2+y,1/2-z
1/4+y,3/4+x,3/4-z
3/4-y,3/4-x,3/4-z
1/2-x,1/2-y,1/2-z
1/4+y,3/4-x,1/4-z
1/2+x,y,1/2-z
1/4-y,1/4+x,3/4-z
1/2-x,1/2+y,z
x,1/2-y,1/2+z
3/4-y,1/4-x,1/4+z
1/4+y,1/4+x,1/4+z
loop_
_atom_site_type_symbol
_atom_site_label
_atom_site_fract_x
_atom_site_fract_y
_atom_site_fract_z
Si Si1 0.316633 0.930902 0.030868
Si Si2 0.230687 0.320075 0.759637
Si Si3 0.154887 0.325741 0.914056
Si Si4 0.798948 0.861349 0.894707
Si Si5 0.931113 0.410400 0.311550
O O1 0.318548 0.931453 0.125000
O O2 0.374296 0.971067 0.001433
O O3 0.250000 0.953503 0.000000
O O4 0.326927 0.864614 0.990482
O O5 0.250000 0.250000 0.750000
O O6 0.206085 0.329619 0.846626
O O7 0.184751 0.327959 0.686545
O O8 0.150836 0.254020 0.933453
O O9 0.098858 0.359352 0.868483
O O10 0.818203 0.931798 0.875000
O O11 0.727863 0.843551 0.910488
O O12 0.836367 0.838580 0.970394
#
# Coordination Sequence:
#
# PCOD9574130 Si02
#       5
#    32  32  32  32  32
#     4  12  27  43  67 107 145 185 237 299 361 434
#     4  12  24  44  70  99 142 187 233 288 365 435
#     4  12  24  47  68 101 137 189 235 288 360 427
#     4  11  23  41  67 102 132 173 229 290 349 426
#     4  11  26  42  71  99 138 184 231 295 353 426
#
# _framework density 19.831935999999999
#
# number of rings (size 3 to 8) (size 9 to 14) (size 15 to 20)
#    0.000    0.400    8.000    0.000    5.600    2.800 
#    0.000    0.000    0.000    0.000    0.000    0.000 
#    0.000    0.000    0.000    0.000    0.000    0.000 
#
# Total GULP energy -445748.774257 kJ/mol
# GULP energy per Si atom -5571.859678 kJ/mol
# Density = 1.978680 g / cm^3
# Si number density = 19.831936 Si / 1000 Ang^3
#
#
#
# Elastic Constant Matrix: (Units=GPa)
#
#
# Indices 1 2 3 4 5 6 
#
# 1 116.2877 93.0087 59.9745 0.0000 0.0000 0.0000
# 2 93.0087 116.2845 59.9734 0.0000 0.0000 0.0000
# 3 59.9745 59.9734 188.9348 0.0000 0.0000 0.0000
# 4 0.0000 0.0000 0.0000 37.8224 0.0000 0.0000
# 5 0.0000 0.0000 0.0000 0.0000 37.8164 0.0000
# 6 0.0000 0.0000 0.0000 0.0000 0.0000 59.2013
#
#
#
# Elastic Compliance Matrix: (Units=1/GPa)
#
#
# Indices 1 2 3 4 5 6 
#
# 1 0.024400 -0.018560 -0.001854 0.000000 0.000000 0.000000
# 2 -0.018560 0.024401 -0.001854 0.000000 0.000000 0.000000
# 3 -0.001854 -0.001854 0.006470 0.000000 0.000000 0.000000
# 4 0.000000 0.000000 0.000000 0.026439 0.000000 0.000000
# 5 0.000000 0.000000 0.000000 0.000000 0.026444 0.000000
# 6 0.000000 0.000000 0.000000 0.000000 0.000000 0.016892
#
#
# Mechanical properties :
#
#
# Convention : Reuss Voigt Hill
#
# Bulk Modulus (GPa) = 93.15362 94.15782 93.65572
# Shear Modulus (GPa) = 28.87529 40.87137 34.87333
#
# Velocity S-wave (km/s) = 3.81990 4.54462 4.19793
# Velocity P-wave (km/s) = 8.15653 8.66713 8.41570
#
# Compressibility (1/GPa) = 0.01073496
#
# Stress axis : x y z
#
# Youngs Moduli (GPa) = 40.98375 40.98267 154.56343
#
# Poissons Ratio (x) = 0.76063 0.28656
# Poissons Ratio (y) = 0.76065 0.28655
# Poissons Ratio (z) = 0.07598 0.07598
#
# Static dielectric constant tensor:
#      x y z
#    x 1.724250 0.000000 0.000000 
#    y 0.000000 1.724260 0.000000 
#    z 0.000000 0.000000 1.744750 
# 
# From -- ./inp_files/7356.got.cif
#   From: 2010.05.17/outbox.cif.g08.bks.cpg/sg142_4_cif.got.tgz:7356.got - 2010.05.20 13:39:18.
