data_PCOD9574506
_publ_section_title
;
Structure prediction by ZEFSAII (Michael W. Deem and Ramdas Pophale) SiO2 
 PCOD9574506
Probable space group: P 31
;
_chemical_formula_sum "Si O2"
_cell_formula_units_Z 24
_cell_length_a 11.689243
_cell_length_b 11.689243
_cell_length_c 9.067745
_cell_angle_alpha 90.000000
_cell_angle_beta 90.000000
_cell_angle_gamma 120.000000
_cell_volume 1073.007368
_symmetry_space_group_name_H-M "P 31"
_symmetry_group_IT_number 144
_symmetry_cell_setting 'hexagonal'
loop_
_space_group_symop_operation_xyz
x,y,z
-y,x-y,1/3+z
-x+y,-x,2/3+z
loop_
_atom_site_type_symbol
_atom_site_label
_atom_site_fract_x
_atom_site_fract_y
_atom_site_fract_z
Si Si1 0.916181 0.840053 0.228370
Si Si2 0.936981 0.468972 0.538718
Si Si3 0.253905 0.963838 0.819626
Si Si4 0.173390 0.590537 0.061704
Si Si5 0.358827 0.821444 0.411291
Si Si6 0.974503 0.845223 0.911291
Si Si7 0.623400 0.920576 0.986288
Si Si8 0.801342 0.603649 0.705385
O O1 0.791934 0.799480 0.333589
O O2 0.003549 0.782443 0.297417
O O3 0.889965 0.789548 0.060322
O O4 0.016080 0.996763 0.211128
O O5 0.861660 0.515401 0.650103
O O6 0.848732 0.320406 0.483438
O O7 0.071270 0.495318 0.617216
O O8 0.982028 0.565204 0.397613
O O9 0.329776 0.884216 0.797422
O O10 0.126474 0.883598 0.924002
O O11 0.351305 0.101459 0.897615
O O12 0.330100 0.647352 0.044461
O O13 0.132812 0.674209 0.166919
O O14 0.122882 0.566243 0.893658
O O15 0.206855 0.783068 0.423997
O O16 0.909285 0.737938 0.783882
#
# Coordination Sequence:
#
# PCOD9574506 Si02
#       8
#     3   3   3   3   3   3   3   3
#     4  12  26  43  69 107 146 183 236 293 368 436
#     4  12  27  53  73 100 145 196 250 300 354 439
#     4  12  25  45  73 102 145 185 237 300 361 433
#     4  12  26  43  69 107 146 183 236 293 368 436
#     4  12  26  43  73 109 142 182 235 299 375 434
#     4  12  26  43  73 109 142 182 235 299 375 434
#     4  12  25  45  73 102 145 185 237 300 361 433
#     4  12  27  53  73 100 145 196 250 300 354 439
#
# _framework density 22.367042999999999
#
# number of rings (size 3 to 8) (size 9 to 14) (size 15 to 20)
#    0.000    0.000    7.500    1.500    7.000    0.000 
#    4.500    0.000    0.000    0.000    0.000    0.000 
#    0.000    0.000    0.000    0.000    0.000    0.000 
#
# Total GULP energy -134423.860459 kJ/mol
# GULP energy per Si atom -5600.994186 kJ/mol
# Density = 2.231613 g / cm^3
# Si number density = 22.367043 Si / 1000 Ang^3
#
#
#
# Elastic Constant Matrix: (Units=GPa)
#
#
# Indices 1 2 3 4 5 6 
#
# 1 82.2599 28.4860 7.0553 0.0000 0.0000 0.0000
# 2 28.4860 82.2599 7.0553 0.0000 0.0000 0.0000
# 3 7.0553 7.0553 75.0443 0.0000 0.0000 0.0000
# 4 0.0000 0.0000 0.0000 46.0220 0.0000 0.0000
# 5 0.0000 0.0000 0.0000 0.0000 46.0220 0.0000
# 6 0.0000 0.0000 0.0000 0.0000 0.0000 26.8870
#
#
#
# Elastic Compliance Matrix: (Units=1/GPa)
#
#
# Indices 1 2 3 4 5 6 
#
# 1 0.013868 -0.004729 -0.000859 0.000000 0.000000 0.000000
# 2 -0.004729 0.013868 -0.000859 0.000000 0.000000 0.000000
# 3 -0.000859 -0.000859 0.013487 0.000000 0.000000 0.000000
# 4 0.000000 0.000000 0.000000 0.021729 0.000000 0.000000
# 5 0.000000 0.000000 0.000000 0.000000 0.021729 0.000000
# 6 0.000000 0.000000 0.000000 0.000000 0.000000 0.037193
#
#
# Mechanical properties :
#
#
# Convention : Reuss Voigt Hill
#
# Bulk Modulus (GPa) = 35.30016 36.08411 35.69214
# Shear Modulus (GPa) = 34.67173 36.91736 35.79455
#
# Velocity S-wave (km/s) = 3.94144 4.06707 4.00475
# Velocity P-wave (km/s) = 6.04398 6.18244 6.11360
#
# Compressibility (1/GPa) = 0.02832848
#
# Stress axis : x y z
#
# Youngs Moduli (GPa) = 72.10965 72.10965 74.14532
#
# Poissons Ratio (x) = 0.34098 0.06371
# Poissons Ratio (y) = 0.34098 0.06371
# Poissons Ratio (z) = 0.06196 0.06196
#
# Static dielectric constant tensor:
#      x y z
#    x 1.786440 0.000000 0.000000 
#    y 0.000000 1.786440 0.000000 
#    z 0.000000 0.000000 1.887480 
# 
# From -- ./inp_files/421.got.cif
#   From: 2010.05.17/outbox.cif.g08.bks.cpg/sg144_cif.got.tgz:421.got - 2010.05.20 13:46:34.
