data_PCOD9574708
_publ_section_title
;
Structure prediction by ZEFSAII (Michael W. Deem and Ramdas Pophale) SiO2 
 PCOD9574708
Probable space group: R 3
;
_chemical_formula_sum "Si O2"
_cell_formula_units_Z 42
_cell_length_a 13.598671
_cell_length_b 13.598671
_cell_length_c 10.209919
_cell_angle_alpha 90.000000
_cell_angle_beta 90.000000
_cell_angle_gamma 120.000000
_cell_volume 1635.105811
_symmetry_space_group_name_H-M "R 3"
_symmetry_group_IT_number 146
_symmetry_cell_setting 'hexagonal'
loop_
_space_group_symop_operation_xyz
x,y,z
-y,x-y,z
-x+y,-x,z
2/3+x,1/3+y,1/3+z
2/3-y,1/3+x-y,1/3+z
2/3-x+y,1/3-x,1/3+z
1/3+x,2/3+y,2/3+z
1/3-y,2/3+x-y,2/3+z
1/3-x+y,2/3-x,2/3+z
loop_
_atom_site_type_symbol
_atom_site_label
_atom_site_fract_x
_atom_site_fract_y
_atom_site_fract_z
Si Si1 0.050804 0.428784 0.558520
Si Si2 0.000000 0.000000 0.041992
Si Si3 0.191368 0.217040 0.566424
Si Si4 0.566389 0.086236 0.402903
Si Si5 0.858378 0.207786 0.670704
Si Si6 0.666668 0.333335 0.052079
O O1 0.007072 0.513644 0.517640
O O2 0.929218 0.323398 0.595896
O O3 0.135616 0.441315 0.672420
O O4 0.113083 0.403287 0.438591
O O5 0.992916 0.882933 0.091924
O O6 0.000000 0.000000 0.879174
O O7 0.249440 0.342083 0.630319
O O8 0.284863 0.179162 0.569503
O O9 0.143045 0.230695 0.428233
O O10 0.090790 0.122177 0.656977
#
# Coordination Sequence:
#
# PCOD9574708 Si02
#       6
#     9   3   9   9   9   3
#     4   9  19  40  63  87 125 173 218 273 334 393
#     4  12  24  39  61  92 130 183 231 276 337 416
#     4  11  22  39  64  97 128 170 223 279 331 401
#     4  10  21  38  60  89 125 169 222 280 334 395
#     4  10  21  39  65  94 129 171 219 270 332 397
#     4  12  21  39  67  95 127 174 231 276 334 416
#
# _framework density 25.686409999999999
#
# number of rings (size 3 to 8) (size 9 to 14) (size 15 to 20)
#    0.000    1.714    0.000    7.714    0.000    1.714 
#    0.000   10.714    0.000    0.000    0.000    0.000 
#    0.000    0.000    0.000    0.000    0.000    0.000 
#
# Total GULP energy -78119.559814 kJ/mol
# GULP energy per Si atom -5579.968558 kJ/mol
# Density = 2.562795 g / cm^3
# Si number density = 25.686410 Si / 1000 Ang^3
#
#
#
# Elastic Constant Matrix: (Units=GPa)
#
#
# Indices 1 2 3 4 5 6 
#
# 1 108.9746 24.5843 17.1208 -10.8939 6.0592 0.0001
# 2 24.5843 108.9751 17.1208 10.8935 -6.0592 0.0006
# 3 17.1208 17.1208 36.5918 0.0001 0.0000 0.0003
# 4 -10.8939 10.8935 0.0001 26.1377 0.0002 -6.0592
# 5 6.0592 -6.0592 0.0000 0.0002 26.1378 -10.8939
# 6 0.0001 0.0006 0.0003 -6.0592 -10.8939 42.1954
#
#
#
# Elastic Compliance Matrix: (Units=1/GPa)
#
#
# Indices 1 2 3 4 5 6 
#
# 1 0.011150 -0.002643 -0.003981 0.005749 -0.003197 0.000000
# 2 -0.002643 0.011150 -0.003981 -0.005749 0.003197 0.000000
# 3 -0.003981 -0.003981 0.031054 0.000000 0.000000 0.000000
# 4 0.005749 -0.005749 0.000000 0.044533 0.000000 0.006395
# 5 -0.003197 0.003197 0.000000 0.000000 0.044533 0.011497
# 6 0.000000 0.000000 0.000000 0.006395 0.011497 0.027586
#
#
# Mechanical properties :
#
#
# Convention : Reuss Voigt Hill
#
# Bulk Modulus (GPa) = 31.10764 41.35480 36.23122
# Shear Modulus (GPa) = 24.76103 31.94190 28.35146
#
# Velocity S-wave (km/s) = 3.10816 3.53020 3.32588
# Velocity P-wave (km/s) = 5.00177 5.72287 5.37443
#
# Compressibility (1/GPa) = 0.03214645
#
# Stress axis : x y z
#
# Youngs Moduli (GPa) = 89.68219 89.68312 32.20245
#
# Poissons Ratio (x) = 0.23699 0.12819
# Poissons Ratio (y) = 0.23699 0.12819
# Poissons Ratio (z) = 0.35700 0.35700
#
# Static dielectric constant tensor:
#      x y z
#    x 2.065260 0.000000 0.000000 
#    y 0.000000 2.065250 0.000000 
#    z 0.000000 0.000000 2.029330 
# 
# From -- ./inp_files/1056.got.cif
#   From: 2010.05.17/outbox.cif.g08.bks.cpg/sg146_cif.got.tgz:1056.got - 2010.05.20 13:48:23.
