data_PCOD9574481
_publ_section_title
;
Structure prediction by ZEFSAII (Michael W. Deem and Ramdas Pophale) SiO2 
 PCOD9574481
Probable space group: P 31
;
_chemical_formula_sum "Si O2"
_cell_formula_units_Z 21
_cell_length_a 9.028714
_cell_length_b 9.028714
_cell_length_c 13.347296
_cell_angle_alpha 90.000000
_cell_angle_beta 90.000000
_cell_angle_gamma 120.000000
_cell_volume 942.270763
_symmetry_space_group_name_H-M "P 31"
_symmetry_group_IT_number 144
_symmetry_cell_setting 'hexagonal'
loop_
_space_group_symop_operation_xyz
x,y,z
-y,x-y,1/3+z
-x+y,-x,2/3+z
loop_
_atom_site_type_symbol
_atom_site_label
_atom_site_fract_x
_atom_site_fract_y
_atom_site_fract_z
Si Si1 0.507696 0.130791 0.350360
Si Si2 0.126644 0.626301 0.200617
Si Si3 0.207447 0.218876 0.821975
Si Si4 0.317077 0.768160 0.412363
Si Si5 0.299522 0.023394 0.968516
Si Si6 0.196661 0.162572 0.409881
Si Si7 0.604287 0.182257 0.119579
O O1 0.324378 0.115856 0.354433
O O2 0.575045 0.161861 0.237786
O O3 0.628498 0.294999 0.416381
O O4 0.481943 0.954476 0.396123
O O5 0.223520 0.711789 0.304679
O O6 0.273097 0.652611 0.121652
O O7 0.015263 0.423530 0.221514
O O8 0.016537 0.711083 0.163083
O O9 0.206677 0.397048 0.821213
O O10 0.248187 0.157116 0.925428
O O11 0.379860 0.271641 0.757391
O O12 0.022331 0.071912 0.783700
O O13 0.420787 0.079336 0.065318
O O14 0.120418 0.865074 0.999299
#
# Coordination Sequence:
#
# PCOD9574481 Si02
#       7
#     3   3   3   3   3   3   3
#     4  11  27  44  75 104 150 199 247 310 377 454
#     4  12  24  49  73 106 148 196 252 307 379 450
#     4  11  25  46  70 105 143 194 241 309 374 441
#     4  11  25  47  73 104 149 195 249 307 380 449
#     4  12  26  44  75 106 147 189 246 314 367 454
#     4  11  27  46  70 110 144 193 249 310 377 451
#     4  12  24  50  70 105 151 198 254 305 378 451
#
# _framework density 22.286588999999999
#
# number of rings (size 3 to 8) (size 9 to 14) (size 15 to 20)
#    0.000    0.571    4.286    2.571    8.000    0.000 
#    2.571    0.000    0.000    0.000    0.000    0.000 
#    0.000    0.000    0.000    0.000    0.000    0.000 
#
# Total GULP energy -117349.532627 kJ/mol
# GULP energy per Si atom -5588.072982 kJ/mol
# Density = 2.223586 g / cm^3
# Si number density = 22.286589 Si / 1000 Ang^3
#
#
#
# Elastic Constant Matrix: (Units=GPa)
#
#
# Indices 1 2 3 4 5 6 
#
# 1 110.7504 36.1740 40.8532 -2.6130 -4.1507 0.0000
# 2 36.1740 110.7504 40.8532 2.6130 4.1507 0.0000
# 3 40.8532 40.8532 88.9479 0.0000 0.0000 0.0000
# 4 -2.6130 2.6130 0.0000 36.6948 0.0000 4.1507
# 5 -4.1507 4.1507 0.0000 0.0000 36.6948 -2.6130
# 6 0.0000 0.0000 0.0000 4.1507 -2.6130 37.2882
#
#
#
# Elastic Compliance Matrix: (Units=1/GPa)
#
#
# Indices 1 2 3 4 5 6 
#
# 1 0.011395 -0.002254 -0.004198 0.000972 0.001544 0.000000
# 2 -0.002254 0.011395 -0.004198 -0.000972 -0.001544 0.000000
# 3 -0.004198 -0.004198 0.015099 0.000000 0.000000 0.000000
# 4 0.000972 -0.000972 0.000000 0.027739 0.000000 -0.003088
# 5 0.001544 -0.001544 0.000000 0.000000 0.027739 0.001944
# 6 0.000000 0.000000 0.000000 -0.003088 0.001944 0.027298
#
#
# Mechanical properties :
#
#
# Convention : Reuss Voigt Hill
#
# Bulk Modulus (GPa) = 60.28628 60.68996 60.48812
# Shear Modulus (GPa) = 33.89899 34.97347 34.43623
#
# Velocity S-wave (km/s) = 3.90429 3.96569 3.93511
# Velocity P-wave (km/s) = 6.88723 6.94691 6.91713
#
# Compressibility (1/GPa) = 0.01658752
#
# Stress axis : x y z
#
# Youngs Moduli (GPa) = 87.75767 87.75767 66.22902
#
# Poissons Ratio (x) = 0.19781 0.27806
# Poissons Ratio (y) = 0.19781 0.27806
# Poissons Ratio (z) = 0.36844 0.36844
#
# Static dielectric constant tensor:
#      x y z
#    x 1.859500 0.000000 0.000000 
#    y 0.000000 1.859500 0.000000 
#    z 0.000000 0.000000 1.803500 
# 
# From -- ./inp_files/596.got.cif
#   From: 2010.05.17/outbox.cif.g08.bks.cpg/sg144_cif.got.tgz:596.got - 2010.05.20 13:46:34.
