data_PCOD9574540
_publ_section_title
;
Structure prediction by ZEFSAII (Michael W. Deem and Ramdas Pophale) SiO2 
 PCOD9574540
Probable space group: P 32
;
_chemical_formula_sum "Si O2"
_cell_formula_units_Z 18
_cell_length_a 8.164541
_cell_length_b 8.164541
_cell_length_c 12.484136
_cell_angle_alpha 90.000000
_cell_angle_beta 90.000000
_cell_angle_gamma 120.000000
_cell_volume 720.696929
_symmetry_space_group_name_H-M "P 32"
_symmetry_group_IT_number 145
_symmetry_cell_setting 'hexagonal'
loop_
_space_group_symop_operation_xyz
x,y,z
-y,x-y,2/3+z
-x+y,-x,1/3+z
loop_
_atom_site_type_symbol
_atom_site_label
_atom_site_fract_x
_atom_site_fract_y
_atom_site_fract_z
Si Si1 0.795432 0.001534 0.634710
Si Si2 0.770602 0.639249 0.740701
Si Si3 0.625153 0.390032 0.556579
Si Si4 0.001861 0.503603 0.452060
Si Si5 0.299300 0.468235 0.329047
Si Si6 0.668832 0.757927 0.425408
O O1 0.771008 0.826363 0.708223
O O2 0.646526 0.049417 0.687592
O O3 0.742447 0.920823 0.515051
O O4 0.998326 0.180283 0.662440
O O5 0.617475 0.455619 0.675696
O O6 0.763020 0.563718 0.858985
O O7 0.964119 0.665238 0.692529
O O8 0.653017 0.574067 0.488242
O O9 0.814106 0.383438 0.523599
O O10 0.108282 0.413585 0.391075
O O11 0.151257 0.662810 0.535222
O O12 0.460788 0.670848 0.376003
#
# Coordination Sequence:
#
# PCOD9574540 Si02
#       6
#     3   3   3   3   3   3
#     4  10  20  37  57  81 110 148 191 237 288 347
#     4   9  18  34  54  75 105 142 182 227 279 337
#     4   8  17  33  52  74 105 142 175 221 281 335
#     4  10  20  34  54  80 110 145 188 234 288 349
#     4  10  20  36  55  79 111 148 187 236 289 346
#     4   9  19  36  56  77 111 149 183 231 291 342
#
# _framework density 24.975826999999999
#
# number of rings (size 3 to 8) (size 9 to 14) (size 15 to 20)
#    0.000    2.667    0.000    2.000    0.000    2.667 
#    0.000    5.000    0.000    0.000    0.000    0.000 
#    0.000    0.000    0.000    0.000    0.000    0.000 
#
# Total GULP energy -100487.344075 kJ/mol
# GULP energy per Si atom -5582.630226 kJ/mol
# Density = 2.491898 g / cm^3
# Si number density = 24.975827 Si / 1000 Ang^3
#
#
#
# Elastic Constant Matrix: (Units=GPa)
#
#
# Indices 1 2 3 4 5 6 
#
# 1 38.5956 3.5612 21.0551 2.9706 -6.8164 0.0000
# 2 3.5612 38.5956 21.0551 -2.9706 6.8164 0.0000
# 3 21.0551 21.0551 69.6951 0.0000 0.0000 0.0000
# 4 2.9706 -2.9706 0.0000 38.2980 0.0000 6.8164
# 5 -6.8164 6.8164 0.0000 0.0000 38.2980 2.9706
# 6 0.0000 0.0000 0.0000 6.8164 2.9706 17.5172
#
#
#
# Elastic Compliance Matrix: (Units=1/GPa)
#
#
# Indices 1 2 3 4 5 6 
#
# 1 0.032540 0.001433 -0.010263 -0.002413 0.005537 0.000000
# 2 0.001433 0.032540 -0.010263 0.002413 -0.005537 0.000000
# 3 -0.010263 -0.010263 0.020549 0.000000 0.000000 0.000000
# 4 -0.002413 0.002413 0.000000 0.028456 0.000000 -0.011073
# 5 0.005537 -0.005537 0.000000 0.000000 0.028456 -0.004826
# 6 0.000000 0.000000 0.000000 -0.011073 -0.004826 0.062214
#
#
# Mechanical properties :
#
#
# Convention : Reuss Voigt Hill
#
# Bulk Modulus (GPa) = 21.07841 26.46992 23.77416
# Shear Modulus (GPa) = 19.32316 25.57031 22.44673
#
# Velocity S-wave (km/s) = 2.78452 3.20316 3.00115
# Velocity P-wave (km/s) = 4.33542 4.92966 4.64206
#
# Compressibility (1/GPa) = 0.04744192
#
# Stress axis : x y z
#
# Youngs Moduli (GPa) = 30.73145 30.73145 48.66316
#
# Poissons Ratio (x) = -0.04404 0.49945
# Poissons Ratio (y) = -0.04404 0.49945
# Poissons Ratio (z) = 0.31541 0.31541
#
# Static dielectric constant tensor:
#      x y z
#    x 1.998820 0.000000 0.000000 
#    y 0.000000 1.998820 0.000000 
#    z 0.000000 0.000000 2.007780 
# 
# From -- ./inp_files/538.got.cif
#   From: 2010.05.17/outbox.cif.g08.bks.cpg/sg145_cif.got.tgz:538.got - 2010.05.20 13:47:28.
