data_PCOD9574875
_publ_section_title
;
Structure prediction by ZEFSAII (Michael W. Deem and Ramdas Pophale) SiO2 
 PCOD9574875
Probable space group: P -3
;
_chemical_formula_sum "Si O2"
_cell_formula_units_Z 48
_cell_length_a 17.523005
_cell_length_b 17.523005
_cell_length_c 9.239936
_cell_angle_alpha 90.000000
_cell_angle_beta 90.000000
_cell_angle_gamma 120.000000
_cell_volume 2457.065673
_symmetry_space_group_name_H-M "P -3"
_symmetry_group_IT_number 147
_symmetry_cell_setting 'hexagonal'
loop_
_space_group_symop_operation_xyz
x,y,z
-y,x-y,z
-x+y,-x,z
-x,-y,-z
y,-x+y,-z
x-y,x,-z
loop_
_atom_site_type_symbol
_atom_site_label
_atom_site_fract_x
_atom_site_fract_y
_atom_site_fract_z
Si Si1 0.131143 0.371032 0.401657
Si Si2 0.189206 0.116922 0.444340
Si Si3 0.486491 0.577918 0.063308
Si Si4 0.757794 0.228146 0.335803
Si Si5 0.178420 0.289313 0.829185
Si Si6 0.086612 0.329365 0.090177
Si Si7 0.533607 0.556250 0.354952
Si Si8 0.412696 0.572183 0.779087
O O1 0.090194 0.280813 0.488655
O O2 0.212610 0.442951 0.495933
O O3 0.144541 0.352156 0.236931
O O4 0.059524 0.402479 0.394648
O O5 0.121406 0.152033 0.455704
O O6 0.214052 0.098320 0.285575
O O7 0.578543 0.669858 0.049353
O O8 0.467015 0.558664 0.234437
O O9 0.500000 0.500000 0.000000
O O10 0.417068 0.580737 0.952919
O O11 0.829179 0.213115 0.249322
O O12 0.658032 0.160838 0.286104
O O13 0.770054 0.321983 0.292520
O O14 0.257509 0.272167 0.873057
O O15 0.124625 0.293668 0.966808
O O16 0.500000 0.500000 0.500000
O O17 0.581153 0.512875 0.267939
#
# Coordination Sequence:
#
# PCOD9574875 Si02
#       8
#     6   6   6   6   6   6   6   6
#     4  10  22  40  62  92 129 167 219 282 324 395
#     4  11  24  42  64  91 127 174 220 270 339 407
#     4   9  19  35  61  86 125 163 209 264 318 385
#     4  11  22  40  62  94 133 175 223 270 337 399
#     4  11  24  40  67  97 132 174 219 280 335 402
#     4  11  22  42  63  96 133 164 221 279 333 398
#     4  10  19  36  63  90 122 160 221 273 325 385
#     4  11  21  38  61  93 128 175 215 271 330 400
#
# _framework density 19.535499000000002
#
# number of rings (size 3 to 8) (size 9 to 14) (size 15 to 20)
#    0.000    1.500    3.750    2.625    3.500    0.000 
#    0.000    3.750    0.000    1.000    0.000    0.000 
#    0.000    0.000    0.000    0.000    0.000    0.000 
#
# Total GULP energy -267625.659279 kJ/mol
# GULP energy per Si atom -5575.534568 kJ/mol
# Density = 1.949103 g / cm^3
# Si number density = 19.535499 Si / 1000 Ang^3
#
#
#
# Elastic Constant Matrix: (Units=GPa)
#
#
# Indices 1 2 3 4 5 6 
#
# 1 72.4029 19.3801 49.4754 4.0864 0.3445 0.0000
# 2 19.3801 72.4029 49.4754 -4.0864 -0.3445 0.0000
# 3 49.4754 49.4754 140.6238 0.0000 0.0000 0.0000
# 4 4.0864 -4.0864 0.0000 23.4463 0.0000 -0.3445
# 5 0.3445 -0.3445 0.0000 0.0000 23.4463 4.0864
# 6 0.0000 0.0000 0.0000 -0.3445 4.0864 26.5114
#
#
#
# Elastic Compliance Matrix: (Units=1/GPa)
#
#
# Indices 1 2 3 4 5 6 
#
# 1 0.018469 -0.000915 -0.006176 -0.003378 -0.000285 0.000000
# 2 -0.000915 0.018469 -0.006176 0.003378 0.000285 0.000000
# 3 -0.006176 -0.006176 0.011457 0.000000 0.000000 0.000000
# 4 -0.003378 0.003378 0.000000 0.043837 0.000000 0.000570
# 5 -0.000285 0.000285 0.000000 0.000000 0.043837 -0.006757
# 6 0.000000 0.000000 0.000000 0.000570 -0.006757 0.038769
#
#
# Mechanical properties :
#
#
# Convention : Reuss Voigt Hill
#
# Bulk Modulus (GPa) = 45.74483 58.01016 51.87750
# Shear Modulus (GPa) = 23.96278 25.82070 24.89174
#
# Velocity S-wave (km/s) = 3.50612 3.63951 3.57344
# Velocity P-wave (km/s) = 6.31329 6.88626 6.60599
#
# Compressibility (1/GPa) = 0.02186040
#
# Stress axis : x y z
#
# Youngs Moduli (GPa) = 54.14543 54.14543 87.28466
#
# Poissons Ratio (x) = 0.04957 0.53905
# Poissons Ratio (y) = 0.04957 0.53905
# Poissons Ratio (z) = 0.33439 0.33439
#
# Static dielectric constant tensor:
#      x y z
#    x 1.701610 0.000000 0.000000 
#    y 0.000000 1.701610 0.000000 
#    z 0.000000 0.000000 1.737470 
# 
# From -- ./inp_files/691.got.cif
#   From: 2010.05.17/outbox.cif.g08.bks.cpg/sg147_cif.got.tgz:691.got - 2010.05.20 13:49:32.
