data_PCOD9574444
_publ_section_title
;
Structure prediction by ZEFSAII (Michael W. Deem and Ramdas Pophale) SiO2 
 PCOD9574444
Probable space group: P 31
;
_chemical_formula_sum "Si O2"
_cell_formula_units_Z 21
_cell_length_a 8.789551
_cell_length_b 8.789551
_cell_length_c 12.318956
_cell_angle_alpha 90.000000
_cell_angle_beta 90.000000
_cell_angle_gamma 120.000000
_cell_volume 824.210070
_symmetry_space_group_name_H-M "P 31"
_symmetry_group_IT_number 144
_symmetry_cell_setting 'hexagonal'
loop_
_space_group_symop_operation_xyz
x,y,z
-y,x-y,1/3+z
-x+y,-x,2/3+z
loop_
_atom_site_type_symbol
_atom_site_label
_atom_site_fract_x
_atom_site_fract_y
_atom_site_fract_z
Si Si1 0.556128 0.760078 0.842960
Si Si2 0.035463 0.383229 0.894487
Si Si3 0.884397 0.521071 0.501105
Si Si4 0.789311 0.977640 0.641668
Si Si5 0.544862 0.787652 0.451596
Si Si6 0.680727 0.277106 0.666051
Si Si7 0.796171 0.923879 0.053242
O O1 0.495506 0.554613 0.827498
O O2 0.675409 0.853438 0.738888
O O3 0.400873 0.805604 0.835136
O O4 0.653141 0.834146 0.957006
O O5 0.104857 0.550109 0.813497
O O6 0.024777 0.234078 0.817687
O O7 0.171666 0.425712 0.994989
O O8 0.850699 0.342957 0.942870
O O9 0.818877 0.470829 0.622664
O O10 0.705436 0.376848 0.443394
O O11 0.929879 0.701526 0.445648
O O12 0.716276 0.886832 0.526381
O O13 0.768236 0.152575 0.652460
O O14 0.987935 0.027265 0.662025
#
# Coordination Sequence:
#
# PCOD9574444 Si02
#       7
#     3   3   3   3   3   3   3
#     4  12  24  50  78 115 153 214 267 339 400 505
#     4  11  24  45  82 113 162 209 281 327 412 479
#     4  12  28  47  79 109 157 215 277 324 422 493
#     4  11  26  51  79 111 167 199 281 338 415 475
#     4  11  21  46  84 117 148 219 266 337 399 494
#     4  11  26  50  73 113 156 216 258 347 398 493
#     4  12  27  47  75 118 159 206 262 342 404 487
#
# _framework density 25.478939
#
# number of rings (size 3 to 8) (size 9 to 14) (size 15 to 20)
#    0.000    0.571    5.714    2.571    4.000    2.286 
#    5.143    0.000    0.000    0.000    0.000    0.000 
#    0.000    0.000    0.000    0.000    0.000    0.000 
#
# Total GULP energy -117484.117047 kJ/mol
# GULP energy per Si atom -5594.481764 kJ/mol
# Density = 2.542095 g / cm^3
# Si number density = 25.478939 Si / 1000 Ang^3
#
#
#
# Elastic Constant Matrix: (Units=GPa)
#
#
# Indices 1 2 3 4 5 6 
#
# 1 86.0878 27.2037 46.0544 18.1412 8.3499 0.0000
# 2 27.2037 86.0878 46.0544 -18.1412 -8.3499 0.0000
# 3 46.0544 46.0544 124.3437 0.0000 0.0000 0.0000
# 4 18.1412 -18.1412 0.0000 41.5048 0.0000 -8.3499
# 5 8.3499 -8.3499 0.0000 0.0000 41.5048 18.1412
# 6 0.0000 0.0000 0.0000 -8.3499 18.1412 29.4421
#
#
#
# Elastic Compliance Matrix: (Units=1/GPa)
#
#
# Indices 1 2 3 4 5 6 
#
# 1 0.018920 -0.006290 -0.004678 -0.011019 -0.005072 0.000000
# 2 -0.006290 0.018920 -0.004678 0.011019 0.005072 0.000000
# 3 -0.004678 -0.004678 0.011507 0.000000 0.000000 0.000000
# 4 -0.011019 0.011019 0.000000 0.035767 0.000000 0.010144
# 5 -0.005072 0.005072 0.000000 0.000000 0.035767 -0.022038
# 6 0.000000 0.000000 0.000000 0.010144 -0.022038 0.050421
#
#
# Mechanical properties :
#
#
# Convention : Reuss Voigt Hill
#
# Bulk Modulus (GPa) = 55.38368 59.46051 57.42209
# Shear Modulus (GPa) = 23.96768 34.30412 29.13590
#
# Velocity S-wave (km/s) = 3.07039 3.67327 3.38528
# Velocity P-wave (km/s) = 5.86122 6.43260 6.15355
#
# Compressibility (1/GPa) = 0.01805586
#
# Stress axis : x y z
#
# Youngs Moduli (GPa) = 52.85322 52.85322 86.90030
#
# Poissons Ratio (x) = 0.33246 0.40651
# Poissons Ratio (y) = 0.33246 0.40651
# Poissons Ratio (z) = 0.24724 0.24724
#
# Static dielectric constant tensor:
#      x y z
#    x 2.063460 0.000000 0.000000 
#    y 0.000000 2.063460 0.000000 
#    z 0.000000 0.000000 1.975640 
# 
# From -- ./inp_files/590.got.cif
#   From: 2010.05.17/outbox.cif.g08.bks.cpg/sg144_cif.got.tgz:590.got - 2010.05.20 13:46:34.
