data_PCOD9574640
_publ_section_title
;
Structure prediction by ZEFSAII (Michael W. Deem and Ramdas Pophale) SiO2 
 PCOD9574640
Probable space group: P 32
;
_chemical_formula_sum "Si O2"
_cell_formula_units_Z 15
_cell_length_a 7.018548
_cell_length_b 7.018548
_cell_length_c 14.523892
_cell_angle_alpha 90.000000
_cell_angle_beta 90.000000
_cell_angle_gamma 120.000000
_cell_volume 619.595409
_symmetry_space_group_name_H-M "P 32"
_symmetry_group_IT_number 145
_symmetry_cell_setting 'hexagonal'
loop_
_space_group_symop_operation_xyz
x,y,z
-y,x-y,2/3+z
-x+y,-x,1/3+z
loop_
_atom_site_type_symbol
_atom_site_label
_atom_site_fract_x
_atom_site_fract_y
_atom_site_fract_z
Si Si1 0.804274 0.701952 0.574780
Si Si2 0.434277 0.388849 0.715423
Si Si3 0.035290 0.470945 0.728285
Si Si4 0.899054 0.621240 0.254308
Si Si5 0.240230 0.906899 0.651530
O O1 0.666662 0.583374 0.484866
O O2 0.817604 0.937349 0.581279
O O3 0.061847 0.774574 0.571619
O O4 0.884556 0.319770 0.643771
O O5 0.653104 0.551216 0.659294
O O6 0.477822 0.333325 0.818198
O O7 0.270688 0.484275 0.721788
O O8 0.288764 0.151287 0.668116
O O9 0.107910 0.728517 0.731442
O O10 0.044562 0.529182 0.301611
#
# Coordination Sequence:
#
# PCOD9574640 Si02
#       5
#     3   3   3   3   3
#     4  11  26  46  74 108 146 192 249 307 370 443
#     4  11  26  46  74 108 146 192 249 307 370 443
#     4  11  26  46  74 108 146 192 249 307 370 443
#     4  11  26  46  74 108 146 192 249 307 370 443
#     4  12  26  44  76 104 142 200 238 304 368 440
#
# _framework density 24.209350000000001
#
# number of rings (size 3 to 8) (size 9 to 14) (size 15 to 20)
#    0.000    0.800    4.000    1.200    5.600    6.400 
#    0.000    0.000    0.000    0.000    0.000    0.000 
#    0.000    0.000    0.000    0.000    0.000    0.000 
#
# Total GULP energy -83816.091196 kJ/mol
# GULP energy per Si atom -5587.739413 kJ/mol
# Density = 2.415425 g / cm^3
# Si number density = 24.209350 Si / 1000 Ang^3
#
#
#
# Elastic Constant Matrix: (Units=GPa)
#
#
# Indices 1 2 3 4 5 6 
#
# 1 76.3858 33.5900 -4.0231 -5.7221 0.0004 0.0000
# 2 33.5900 76.3858 -4.0231 5.7221 -0.0004 0.0000
# 3 -4.0231 -4.0231 79.4056 0.0000 0.0000 0.0000
# 4 -5.7221 5.7221 0.0000 18.4928 0.0000 -0.0004
# 5 0.0004 -0.0004 0.0000 0.0000 18.4928 -5.7221
# 6 0.0000 0.0000 0.0000 -0.0004 -5.7221 21.3979
#
#
#
# Elastic Compliance Matrix: (Units=1/GPa)
#
#
# Indices 1 2 3 4 5 6 
#
# 1 0.017301 -0.008174 0.000462 0.007882 0.000000 0.000000
# 2 -0.008174 0.017301 0.000462 -0.007882 0.000000 0.000000
# 3 0.000462 0.000462 0.012640 0.000000 0.000000 0.000000
# 4 0.007882 -0.007882 0.000000 0.058953 0.000000 0.000001
# 5 0.000000 0.000000 0.000000 0.000000 0.058953 0.015765
# 6 0.000000 0.000000 0.000000 0.000001 0.015765 0.050949
#
#
# Mechanical properties :
#
#
# Convention : Reuss Voigt Hill
#
# Bulk Modulus (GPa) = 30.54038 31.47387 31.00712
# Shear Modulus (GPa) = 20.70305 25.45226 23.07766
#
# Velocity S-wave (km/s) = 2.92750 3.24596 3.09083
# Velocity P-wave (km/s) = 4.90607 5.20358 5.05701
#
# Compressibility (1/GPa) = 0.03274354
#
# Stress axis : x y z
#
# Youngs Moduli (GPa) = 57.80120 57.80119 79.11129
#
# Poissons Ratio (x) = 0.47246 -0.03658
# Poissons Ratio (y) = 0.47246 -0.03658
# Poissons Ratio (z) = -0.02673 -0.02673
#
# Static dielectric constant tensor:
#      x y z
#    x 2.005180 0.000000 0.000000 
#    y 0.000000 2.005180 0.000000 
#    z 0.000000 0.000000 1.997400 
# 
# From -- ./inp_files/900.got.cif
#   From: 2010.05.17/outbox.cif.g08.bks.cpg/sg145_cif.got.tgz:900.got - 2010.05.20 13:47:28.
