data_PCOD9574929
_publ_section_title
;
Structure prediction by ZEFSAII (Michael W. Deem and Ramdas Pophale) SiO2 
 PCOD9574929
Probable space group: P -3
;
_chemical_formula_sum "Si O2"
_cell_formula_units_Z 42
_cell_length_a 16.275346
_cell_length_b 16.275346
_cell_length_c 8.612550
_cell_angle_alpha 90.000000
_cell_angle_beta 90.000000
_cell_angle_gamma 120.000000
_cell_volume 1975.708408
_symmetry_space_group_name_H-M "P -3"
_symmetry_group_IT_number 147
_symmetry_cell_setting 'hexagonal'
loop_
_space_group_symop_operation_xyz
x,y,z
-y,x-y,z
-x+y,-x,z
-x,-y,-z
y,-x+y,-z
x-y,x,-z
loop_
_atom_site_type_symbol
_atom_site_label
_atom_site_fract_x
_atom_site_fract_y
_atom_site_fract_z
Si Si1 0.437824 0.395656 0.135891
Si Si2 0.791454 0.874734 0.029305
Si Si3 0.610198 0.891909 0.543617
Si Si4 0.407727 0.622964 0.045186
Si Si5 0.949987 0.272350 0.119130
Si Si6 0.091351 0.384478 0.560515
Si Si7 0.885379 0.441948 0.646203
O O1 0.413872 0.313920 0.260835
O O2 0.456107 0.483611 0.244799
O O3 0.529012 0.410573 0.043218
O O4 0.351309 0.366437 0.015690
O O5 0.748543 0.786424 0.148780
O O6 0.862603 0.850172 0.930856
O O7 0.702383 0.871144 0.942148
O O8 0.630236 0.807250 0.516591
O O9 0.509535 0.865938 0.468651
O O10 0.617452 0.917003 0.725504
O O11 0.689866 0.986703 0.460940
O O12 0.435270 0.731019 0.006907
O O13 0.419148 0.614998 0.228747
O O14 0.093539 0.467191 0.453714
#
# Coordination Sequence:
#
# PCOD9574929 Si02
#       7
#     6   6   6   6   6   6   6
#     4  11  23  40  69  98 137 169 232 284 348 404
#     4   8  18  36  61  98 137 167 216 272 335 379
#     4  11  24  45  69  96 142 175 240 267 351 422
#     4  10  24  43  66  99 132 169 229 284 350 386
#     4  10  21  37  68 105 127 178 219 282 340 393
#     4  11  26  45  69 100 136 192 226 288 351 415
#     4  11  24  45  69  94 137 190 225 282 346 419
#
# _framework density 21.258196999999999
#
# number of rings (size 3 to 8) (size 9 to 14) (size 15 to 20)
#    1.143    0.571    0.000    4.857    0.000    8.000 
#    0.857    0.000    0.000    0.286    0.000    0.000 
#    0.000    0.000    0.000    0.000    0.000    0.000 
#
# Total GULP energy -234262.136278 kJ/mol
# GULP energy per Si atom -5577.669911 kJ/mol
# Density = 2.120981 g / cm^3
# Si number density = 21.258197 Si / 1000 Ang^3
#
#
#
# Elastic Constant Matrix: (Units=GPa)
#
#
# Indices 1 2 3 4 5 6 
#
# 1 100.4517 69.2529 39.7999 -9.8509 -6.4432 0.0000
# 2 69.2529 100.4517 39.7999 9.8509 6.4432 0.0000
# 3 39.7999 39.7999 90.4865 0.0000 0.0000 0.0000
# 4 -9.8509 9.8509 0.0000 26.2853 0.0000 6.4432
# 5 -6.4432 6.4432 0.0000 0.0000 26.2853 -9.8509
# 6 0.0000 0.0000 0.0000 6.4432 -9.8509 15.5994
#
#
#
# Elastic Compliance Matrix: (Units=1/GPa)
#
#
# Indices 1 2 3 4 5 6 
#
# 1 0.027918 -0.020494 -0.003266 0.018143 0.011867 0.000000
# 2 -0.020494 0.027918 -0.003266 -0.018143 -0.011867 0.000000
# 3 -0.003266 -0.003266 0.013924 0.000000 0.000000 0.000000
# 4 0.018143 -0.018143 0.000000 0.057461 0.000000 -0.023734
# 5 0.011867 -0.011867 0.000000 0.000000 0.057461 0.036286
# 6 0.000000 0.000000 0.000000 -0.023734 0.036286 0.096823
#
#
# Mechanical properties :
#
#
# Convention : Reuss Voigt Hill
#
# Bulk Modulus (GPa) = 63.65178 65.45505 64.55341
# Shear Modulus (GPa) = 14.67178 23.13645 18.90412
#
# Velocity S-wave (km/s) = 2.62996 3.30260 2.98529
# Velocity P-wave (km/s) = 6.26334 6.73797 6.50499
#
# Compressibility (1/GPa) = 0.01571048
#
# Stress axis : x y z
#
# Youngs Moduli (GPa) = 35.81939 35.81939 71.81840
#
# Poissons Ratio (x) = 0.73407 0.23452
# Poissons Ratio (y) = 0.73407 0.23452
# Poissons Ratio (z) = 0.11697 0.11697
#
# Static dielectric constant tensor:
#      x y z
#    x 1.804030 0.000000 0.000000 
#    y 0.000000 1.804030 0.000000 
#    z 0.000000 0.000000 1.776710 
# 
# From -- ./inp_files/619.got.cif
#   From: 2010.05.17/outbox.cif.g08.bks.cpg/sg147_cif.got.tgz:619.got - 2010.05.20 13:49:32.
