data_PCOD9574567
_publ_section_title
;
Structure prediction by ZEFSAII (Michael W. Deem and Ramdas Pophale) SiO2 
 PCOD9574567
Probable space group: P 32
;
_chemical_formula_sum "Si O2"
_cell_formula_units_Z 15
_cell_length_a 8.138237
_cell_length_b 8.138237
_cell_length_c 11.206886
_cell_angle_alpha 90.000000
_cell_angle_beta 90.000000
_cell_angle_gamma 120.000000
_cell_volume 642.800568
_symmetry_space_group_name_H-M "P 32"
_symmetry_group_IT_number 145
_symmetry_cell_setting 'hexagonal'
loop_
_space_group_symop_operation_xyz
x,y,z
-y,x-y,2/3+z
-x+y,-x,1/3+z
loop_
_atom_site_type_symbol
_atom_site_label
_atom_site_fract_x
_atom_site_fract_y
_atom_site_fract_z
Si Si1 0.757914 0.378963 0.036950
Si Si2 0.762214 0.881106 0.536944
Si Si3 0.094774 0.189551 0.370277
Si Si4 0.524748 0.002477 0.131394
Si Si5 0.997528 0.475260 0.275837
O O1 0.618466 0.155776 0.026870
O O2 0.888083 0.427865 0.150933
O O3 0.888092 0.460227 0.922971
O O4 0.618463 0.462698 0.047031
O O5 0.611104 0.700518 0.458424
O O6 0.904870 0.855779 0.627402
O O7 0.611112 0.910588 0.615470
O O8 0.904863 0.049087 0.446482
O O9 0.251633 0.342300 0.461271
O O10 0.090676 0.342311 0.279288
#
# Coordination Sequence:
#
# PCOD9574567 Si02
#       5
#     3   3   3   3   3
#     4  10  21  47  72 106 158 206 253 329 406 466
#     4  12  26  50  80 114 162 214 266 340 398 484
#     4  12  27  51  80 116 162 216 273 325 414 474
#     4  11  24  47  78 113 156 207 266 331 398 482
#     4  11  24  47  78 113 156 207 266 331 398 482
#
# _framework density 23.335388999999999
#
# number of rings (size 3 to 8) (size 9 to 14) (size 15 to 20)
#    0.000    0.800    4.000    3.600    0.000    1.600 
#    7.200    0.000    0.000    0.000    0.000    0.000 
#    0.000    0.000    0.000    0.000    0.000    0.000 
#
# Total GULP energy -83562.974852 kJ/mol
# GULP energy per Si atom -5570.864990 kJ/mol
# Density = 2.328228 g / cm^3
# Si number density = 23.335389 Si / 1000 Ang^3
#
#
#
# Elastic Constant Matrix: (Units=GPa)
#
#
# Indices 1 2 3 4 5 6 
#
# 1 145.6816 80.1172 37.4548 -0.0018 -11.8892 0.0000
# 2 80.1172 145.6816 37.4548 0.0018 11.8892 0.0000
# 3 37.4548 37.4548 86.8064 0.0000 0.0000 0.0000
# 4 -0.0018 0.0018 0.0000 33.4098 0.0000 11.8892
# 5 -11.8892 11.8892 0.0000 0.0000 33.4098 -0.0018
# 6 0.0000 0.0000 0.0000 11.8892 -0.0018 32.7822
#
#
#
# Elastic Compliance Matrix: (Units=1/GPa)
#
#
# Indices 1 2 3 4 5 6 
#
# 1 0.011340 -0.006172 -0.002230 0.000001 0.006232 0.000000
# 2 -0.006172 0.011340 -0.002230 -0.000001 -0.006232 0.000000
# 3 -0.002230 -0.002230 0.013444 0.000000 0.000000 0.000000
# 4 0.000001 -0.000001 0.000000 0.034367 0.000000 -0.012464
# 5 0.006232 -0.006232 0.000000 0.000000 0.034367 0.000002
# 6 0.000000 0.000000 0.000000 -0.012464 0.000002 0.035025
#
#
# Mechanical properties :
#
#
# Convention : Reuss Voigt Hill
#
# Bulk Modulus (GPa) = 67.28994 76.46925 71.87960
# Shear Modulus (GPa) = 30.10207 34.79653 32.44930
#
# Velocity S-wave (km/s) = 3.59552 3.86573 3.73307
# Velocity P-wave (km/s) = 6.79232 7.26402 7.03212
#
# Compressibility (1/GPa) = 0.01486106
#
# Stress axis : x y z
#
# Youngs Moduli (GPa) = 88.17980 88.17980 74.38062
#
# Poissons Ratio (x) = 0.54424 0.16588
# Poissons Ratio (y) = 0.54424 0.16588
# Poissons Ratio (z) = 0.19665 0.19665
#
# Static dielectric constant tensor:
#      x y z
#    x 2.041280 0.000000 0.000000 
#    y 0.000000 2.041280 0.000000 
#    z 0.000000 0.000000 1.904020 
# 
# From -- ./inp_files/518.got.cif
#   From: 2010.05.17/outbox.cif.g08.bks.cpg/sg145_cif.got.tgz:518.got - 2010.05.20 13:47:28.
