data_PCOD9574877
_publ_section_title
;
Structure prediction by ZEFSAII (Michael W. Deem and Ramdas Pophale) SiO2 
 PCOD9574877
Probable space group: P -3
;
_chemical_formula_sum "Si O2"
_cell_formula_units_Z 36
_cell_length_a 11.222266
_cell_length_b 11.222266
_cell_length_c 15.431461
_cell_angle_alpha 90.000000
_cell_angle_beta 90.000000
_cell_angle_gamma 120.000000
_cell_volume 1683.056883
_symmetry_space_group_name_H-M "P -3"
_symmetry_group_IT_number 147
_symmetry_cell_setting 'hexagonal'
loop_
_space_group_symop_operation_xyz
x,y,z
-y,x-y,z
-x+y,-x,z
-x,-y,-z
y,-x+y,-z
x-y,x,-z
loop_
_atom_site_type_symbol
_atom_site_label
_atom_site_fract_x
_atom_site_fract_y
_atom_site_fract_z
Si Si1 0.642381 0.602769 0.408831
Si Si2 0.615366 0.587804 0.220163
Si Si3 0.236697 0.967140 0.956114
Si Si4 0.827783 0.483926 0.936590
Si Si5 0.921539 0.643043 0.225180
Si Si6 0.921793 0.618985 0.414855
O O1 0.633837 0.658078 0.314454
O O2 0.758795 0.559093 0.410262
O O3 0.497411 0.462362 0.414125
O O4 0.678952 0.706310 0.489191
O O5 0.567563 0.653886 0.146237
O O6 0.762101 0.597646 0.207328
O O7 0.493174 0.428875 0.222838
O O8 0.252746 0.998288 0.854153
O O9 0.340436 0.911730 0.981145
O O10 0.090704 0.838344 0.984696
O O11 0.674453 0.464220 0.936312
O O12 0.967841 0.699769 0.323285
#
# Coordination Sequence:
#
# PCOD9574877 Si02
#       6
#     6   6   6   6   6   6
#     4   9  18  34  59  84 119 155 196 242 293 356
#     4  10  19  39  59  93 120 162 203 252 306 363
#     4  12  25  43  64  87 121 166 212 256 299 363
#     4  10  24  41  59  91 129 156 204 254 318 374
#     4  10  21  35  63  84 120 157 206 247 301 365
#     4   9  18  36  54  86 115 154 194 240 293 355
#
# _framework density 21.389652999999999
#
# number of rings (size 3 to 8) (size 9 to 14) (size 15 to 20)
#    0.333    1.667    1.667    1.833    2.333    4.000 
#   12.000    0.000    0.000    0.333    0.000    0.000 
#    0.000    0.000    0.000    0.000    0.000    0.000 
#
# Total GULP energy -200579.274850 kJ/mol
# GULP energy per Si atom -5571.646524 kJ/mol
# Density = 2.134097 g / cm^3
# Si number density = 21.389653 Si / 1000 Ang^3
#
#
#
# Elastic Constant Matrix: (Units=GPa)
#
#
# Indices 1 2 3 4 5 6 
#
# 1 67.3295 -8.6293 23.6492 -7.3731 -32.8069 0.0000
# 2 -8.6293 67.3295 23.6492 7.3731 32.8069 0.0000
# 3 23.6492 23.6492 183.6581 0.0000 0.0000 0.0000
# 4 -7.3731 7.3731 0.0000 157.5212 0.0000 32.8069
# 5 -32.8069 32.8069 0.0000 0.0000 157.5212 -7.3731
# 6 0.0000 0.0000 0.0000 32.8069 -7.3731 37.9794
#
#
#
# Elastic Compliance Matrix: (Units=1/GPa)
#
#
# Indices 1 2 3 4 5 6 
#
# 1 0.017620 0.001388 -0.002448 0.000760 0.003381 0.000000
# 2 0.001388 0.017620 -0.002448 -0.000760 -0.003381 0.000000
# 3 -0.002448 -0.002448 0.006075 0.000000 0.000000 0.000000
# 4 0.000760 -0.000760 0.000000 0.007828 0.000000 -0.006762
# 5 0.003381 -0.003381 0.000000 0.000000 0.007828 0.001520
# 6 0.000000 0.000000 0.000000 -0.006762 0.001520 0.032466
#
#
# Mechanical properties :
#
#
# Convention : Reuss Voigt Hill
#
# Bulk Modulus (GPa) = 29.15396 43.96170 36.55783
# Shear Modulus (GPa) = 46.34509 89.24755 67.79632
#
# Velocity S-wave (km/s) = 4.65984 6.46647 5.63601
# Velocity P-wave (km/s) = 6.52776 8.73791 7.71241
#
# Compressibility (1/GPa) = 0.03430066
#
# Stress axis : x y z
#
# Youngs Moduli (GPa) = 56.75236 56.75236 164.60237
#
# Poissons Ratio (x) = -0.07874 0.40288
# Poissons Ratio (y) = -0.07874 0.40288
# Poissons Ratio (z) = 0.13891 0.13891
#
# Static dielectric constant tensor:
#      x y z
#    x 1.779470 0.000000 0.000000 
#    y 0.000000 1.779470 0.000000 
#    z 0.000000 0.000000 1.861960 
# 
# From -- ./inp_files/929.got.cif
#   From: 2010.05.17/outbox.cif.g08.bks.cpg/sg147_cif.got.tgz:929.got - 2010.05.20 13:49:32.
