data_PCOD9574121
_publ_section_title
;
Structure prediction by ZEFSAII (Michael W. Deem and Ramdas Pophale) SiO2 
 PCOD9574121
Probable space group: I 41/A C D
;
_chemical_formula_sum "Si O2"
_cell_formula_units_Z 176
_cell_length_a 23.666828
_cell_length_b 23.666828
_cell_length_c 15.587559
_cell_angle_alpha 90.000000
_cell_angle_beta 90.000000
_cell_angle_gamma 90.000000
_cell_volume 8730.884025
_symmetry_space_group_name_H-M "I 41/A C D"
_symmetry_group_IT_number 142
_space_group.IT_coordinate_system_code '2'
_symmetry_cell_setting 'tetragonal'
loop_
_space_group_symop_operation_xyz
x,y,z
1/4-y,3/4+x,1/4+z
-x,1/2-y,z
1/4+y,1/4-x,3/4+z
x,-y,1/2-z
1/2-x,y,-z
3/4+y,1/4+x,1/4-z
1/4-y,1/4-x,1/4-z
-x,-y,-z
3/4+y,1/4-x,3/4-z
x,1/2+y,-z
3/4-y,3/4+x,1/4-z
-x,y,1/2+z
1/2+x,-y,z
1/4-y,3/4-x,3/4+z
3/4+y,3/4+x,3/4+z
1/2+x,1/2+y,1/2+z
3/4-y,1/4+x,3/4+z
1/2-x,-y,1/2+z
3/4+y,3/4-x,1/4+z
1/2+x,1/2-y,-z
-x,1/2+y,1/2-z
1/4+y,3/4+x,3/4-z
3/4-y,3/4-x,3/4-z
1/2-x,1/2-y,1/2-z
1/4+y,3/4-x,1/4-z
1/2+x,y,1/2-z
1/4-y,1/4+x,3/4-z
1/2-x,1/2+y,z
x,1/2-y,1/2+z
3/4-y,1/4-x,1/4+z
1/4+y,1/4+x,1/4+z
loop_
_atom_site_type_symbol
_atom_site_label
_atom_site_fract_x
_atom_site_fract_y
_atom_site_fract_z
Si Si1 0.683064 0.304636 0.001088
Si Si2 0.188326 0.483672 0.042579
Si Si3 0.503856 0.181881 0.517106
Si Si4 0.616144 0.803838 0.446243
Si Si5 0.096887 0.846887 0.375000
Si Si6 0.849875 0.582440 0.111600
O O1 0.647358 0.246871 0.005993
O O2 0.669763 0.343024 0.083786
O O3 0.750000 0.295254 0.000000
O O4 0.656953 0.338842 0.921024
O O5 0.192493 0.442493 0.125000
O O6 0.178612 0.546680 0.076668
O O7 0.250000 0.482370 0.000000
O O8 0.148511 0.461222 0.967256
O O9 0.500000 0.250000 0.516852
O O10 0.437761 0.167988 0.506523
O O11 0.527644 0.158271 0.607109
O O12 0.547158 0.161572 0.444888
O O13 0.657657 0.854729 0.424976
#
# Coordination Sequence:
#
# PCOD9574121 Si02
#       6
#    32  32  32  32  16  32
#     4  12  28  42  62 103 143 171 218 285 343 393
#     4   9  21  42  68  95 121 172 235 275 313 402
#     4  12  19  40  70  96 121 166 236 265 320 388
#     4  12  22  43  67  93 136 178 211 284 335 400
#     4  12  25  42  70 100 130 178 234 278 316 414
#     4  11  22  43  70  92 132 177 222 270 340 394
#
# _framework density 20.158325999999999
#
# number of rings (size 3 to 8) (size 9 to 14) (size 15 to 20)
#    0.000    0.727    7.273    0.818    2.545    2.182 
#    6.545    1.818    0.000    0.000    0.000    0.000 
#    0.000    0.000    0.000    0.000    0.000    0.000 
#
# Total GULP energy -491486.721065 kJ/mol
# GULP energy per Si atom -5585.076376 kJ/mol
# Density = 2.011244 g / cm^3
# Si number density = 20.158326 Si / 1000 Ang^3
#
#
#
# Elastic Constant Matrix: (Units=GPa)
#
#
# Indices 1 2 3 4 5 6 
#
# 1 70.8283 -5.2754 26.1999 0.0000 0.0000 0.0000
# 2 -5.2754 70.8283 26.1999 0.0000 0.0000 0.0000
# 3 26.1999 26.1999 58.7674 0.0000 0.0000 0.0000
# 4 0.0000 0.0000 0.0000 26.8485 0.0000 0.0000
# 5 0.0000 0.0000 0.0000 0.0000 26.8485 0.0000
# 6 0.0000 0.0000 0.0000 0.0000 0.0000 24.0139
#
#
#
# Elastic Compliance Matrix: (Units=1/GPa)
#
#
# Indices 1 2 3 4 5 6 
#
# 1 0.018421 0.005281 -0.010567 0.000000 0.000000 0.000000
# 2 0.005281 0.018421 -0.010567 0.000000 0.000000 0.000000
# 3 -0.010567 -0.010567 0.026438 0.000000 0.000000 0.000000
# 4 0.000000 0.000000 0.000000 0.037246 0.000000 0.000000
# 5 0.000000 0.000000 0.000000 0.000000 0.037246 0.000000
# 6 0.000000 0.000000 0.000000 0.000000 0.000000 0.041642
#
#
# Mechanical properties :
#
#
# Convention : Reuss Voigt Hill
#
# Bulk Modulus (GPa) = 31.67151 32.74140 32.20646
# Shear Modulus (GPa) = 22.55878 25.76218 24.16048
#
# Velocity S-wave (km/s) = 3.34889 3.57878 3.46574
# Velocity P-wave (km/s) = 5.54066 5.77532 5.65921
#
# Compressibility (1/GPa) = 0.03157412
#
# Stress axis : x y z
#
# Youngs Moduli (GPa) = 54.28703 54.28703 37.82455
#
# Poissons Ratio (x) = -0.28667 0.39968
# Poissons Ratio (y) = -0.28667 0.39968
# Poissons Ratio (z) = 0.57363 0.57363
#
# Static dielectric constant tensor:
#      x y z
#    x 1.729910 0.000000 0.000000 
#    y 0.000000 1.729910 0.000000 
#    z 0.000000 0.000000 1.738060 
# 
# From -- ./inp_files/5552.got.cif
#   From: 2010.05.17/outbox.cif.g08.bks.cpg/sg142_3_cif.got.tgz:5552.got - 2010.05.20 13:39:18.
