data_PCOD9574278
_publ_section_title
;
Structure prediction by ZEFSAII (Michael W. Deem and Ramdas Pophale) SiO2 
 PCOD9574278
Probable space group: P 3
;
_chemical_formula_sum "Si O2"
_cell_formula_units_Z 13
_cell_length_a 9.858135
_cell_length_b 9.858135
_cell_length_c 7.607726
_cell_angle_alpha 90.000000
_cell_angle_beta 90.000000
_cell_angle_gamma 120.000000
_cell_volume 640.287490
_symmetry_space_group_name_H-M "P 3"
_symmetry_group_IT_number 143
_symmetry_cell_setting 'hexagonal'
loop_
_space_group_symop_operation_xyz
x,y,z
-y,x-y,z
-x+y,-x,z
loop_
_atom_site_type_symbol
_atom_site_label
_atom_site_fract_x
_atom_site_fract_y
_atom_site_fract_z
Si Si1 0.000000 0.000000 0.608596
Si Si2 0.000000 0.000000 0.034131
Si Si3 0.639803 0.144864 0.321367
Si Si4 0.065824 0.727280 0.616733
Si Si5 0.272724 0.338544 0.025998
Si Si6 0.333333 0.666668 0.531784
Si Si7 0.333335 0.666667 0.110956
O O1 0.822820 0.945165 0.555373
O O2 0.000000 0.000000 0.821364
O O3 0.122347 0.177179 0.087356
O O4 0.801385 0.311507 0.321370
O O5 0.629868 0.046069 0.491724
O O6 0.629872 0.046077 0.151005
O O7 0.018930 0.697041 0.821365
O O8 0.237750 0.749176 0.597394
O O9 0.250832 0.488575 0.045344
O O10 0.333334 0.666667 0.321370
#
# Coordination Sequence:
#
# PCOD9574278 Si02
#       7
#     1   1   3   3   3   1   1
#     4   9  24  43  68 100 133 176 229 277 335 403
#     4   9  24  43  68 100 133 176 229 277 335 403
#     4  10  26  42  64 100 136 174 226 276 340 400
#     4  11  24  44  69  98 137 181 226 278 341 405
#     4  11  24  44  69  98 137 181 226 278 341 405
#     4  12  25  44  70 100 140 178 226 287 340 403
#     4  12  25  44  70 100 140 178 226 287 340 403
#
# _framework density 20.303381999999999
#
# number of rings (size 3 to 8) (size 9 to 14) (size 15 to 20)
#    0.462    0.923    2.308    1.385    6.462    3.692 
#    0.000    0.000    0.000    0.000    0.000    0.000 
#    0.000    0.000    0.000    0.000    0.000    0.000 
#
# Total GULP energy -72630.939727 kJ/mol
# GULP energy per Si atom -5586.995364 kJ/mol
# Density = 2.025717 g / cm^3
# Si number density = 20.303382 Si / 1000 Ang^3
#
#
#
# Elastic Constant Matrix: (Units=GPa)
#
#
# Indices 1 2 3 4 5 6 
#
# 1 107.5831 24.5951 18.4643 -0.0001 0.0002 -0.0002
# 2 24.5951 107.5810 18.4640 0.0000 -0.0014 -0.0003
# 3 18.4643 18.4640 116.4526 -0.0001 0.0004 -0.0001
# 4 -0.0001 0.0000 -0.0001 28.4913 -0.0002 -0.0014
# 5 0.0002 -0.0014 0.0004 -0.0002 28.4915 -0.0001
# 6 -0.0002 -0.0003 -0.0001 -0.0014 -0.0001 41.4940
#
#
#
# Elastic Compliance Matrix: (Units=1/GPa)
#
#
# Indices 1 2 3 4 5 6 
#
# 1 0.009983 -0.002067 -0.001255 0.000000 0.000000 0.000000
# 2 -0.002067 0.009983 -0.001255 0.000000 0.000001 0.000000
# 3 -0.001255 -0.001255 0.008985 0.000000 0.000000 0.000000
# 4 0.000000 0.000000 0.000000 0.035098 0.000000 0.000001
# 5 0.000000 0.000001 0.000000 0.000000 0.035098 0.000000
# 6 0.000000 0.000000 0.000000 0.000001 0.000000 0.024100
#
#
# Mechanical properties :
#
#
# Convention : Reuss Voigt Hill
#
# Bulk Modulus (GPa) = 50.51245 50.51817 50.51531
# Shear Modulus (GPa) = 35.97080 37.70156 36.83618
#
# Velocity S-wave (km/s) = 4.21368 4.31386 4.26407
# Velocity P-wave (km/s) = 6.97182 7.05324 7.01265
#
# Compressibility (1/GPa) = 0.01979710
#
# Stress axis : x y z
#
# Youngs Moduli (GPa) = 100.16939 100.16747 111.29401
#
# Poissons Ratio (x) = 0.20704 0.13969
# Poissons Ratio (y) = 0.20704 0.13969
# Poissons Ratio (z) = 0.12573 0.12573
#
# Static dielectric constant tensor:
#      x y z
#    x 1.710010 0.000000 0.000000 
#    y 0.000000 1.710020 0.000000 
#    z 0.000000 0.000000 1.706550 
# 
# From -- ./inp_files/117.got.cif
#   From: 2010.05.17/outbox.cif.g08.bks.cpg/sg143_cif.got.tgz:117.got - 2010.05.20 13:46:24.
