data_PCOD9574250
_publ_section_title
;
Structure prediction by ZEFSAII (Michael W. Deem and Ramdas Pophale) SiO2 
 PCOD9574250
Probable space group: I 41/A C D
;
_chemical_formula_sum "Si O2"
_cell_formula_units_Z 108
_cell_length_a 27.000000
_cell_length_b 27.000000
_cell_length_c 15.000000
_cell_angle_alpha 90.000000
_cell_angle_beta 90.000000
_cell_angle_gamma 90.000000
_cell_volume 10935.000000
_symmetry_space_group_name_H-M "I 41/A C D"
_symmetry_group_IT_number 142
_space_group.IT_coordinate_system_code '2'
_symmetry_cell_setting 'tetragonal'
loop_
_space_group_symop_operation_xyz
x,y,z
1/4-y,3/4+x,1/4+z
-x,1/2-y,z
1/4+y,1/4-x,3/4+z
x,-y,1/2-z
1/2-x,y,-z
3/4+y,1/4+x,1/4-z
1/4-y,1/4-x,1/4-z
-x,-y,-z
3/4+y,1/4-x,3/4-z
x,1/2+y,-z
3/4-y,3/4+x,1/4-z
-x,y,1/2+z
1/2+x,-y,z
1/4-y,3/4-x,3/4+z
3/4+y,3/4+x,3/4+z
1/2+x,1/2+y,1/2+z
3/4-y,1/4+x,3/4+z
1/2-x,-y,1/2+z
3/4+y,3/4-x,1/4+z
1/2+x,1/2-y,-z
-x,1/2+y,1/2-z
1/4+y,3/4+x,3/4-z
3/4-y,3/4-x,3/4-z
1/2-x,1/2-y,1/2-z
1/4+y,3/4-x,1/4-z
1/2+x,y,1/2-z
1/4-y,1/4+x,3/4-z
1/2-x,1/2+y,z
x,1/2-y,1/2+z
3/4-y,1/4-x,1/4+z
1/4+y,1/4+x,1/4+z
loop_
_atom_site_type_symbol
_atom_site_label
_atom_site_fract_x
_atom_site_fract_y
_atom_site_fract_z
Si Si1 0.345931 0.134683 0.615653
Si Si2 0.655037 0.541616 0.540417
Si Si3 0.400971 0.703088 0.935642
Si Si4 0.000000 0.250000 0.375000
Si Si5 0.903381 0.846620 0.875000
Si Si6 0.509940 0.948209 0.879983
Si Si7 0.305705 0.439316 0.979115
Si Si8 0.951099 0.543735 0.421809
O O1 0.328330 0.106914 0.707363
O O2 0.402438 0.151392 0.628130
O O3 0.311114 0.182985 0.599839
O O4 0.340511 0.095736 0.536958
O O5 0.680080 0.569921 0.625000
O O6 0.688861 0.496522 0.508358
O O7 0.601406 0.516640 0.560132
O O8 0.446208 0.740251 0.918529
O O9 0.347150 0.728441 0.914029
O O10 0.412791 0.682653 0.034470
O O11 0.846365 0.824672 0.859334
O O12 0.484562 0.003059 0.867846
O O13 0.517550 0.944030 0.988407
O O14 0.315393 0.434608 0.875000
O O15 0.250000 0.423153 0.000000
#
# Coordination Sequence:
#
# PCOD9574250 Si02
#       8
#    32  32  32   8  16  32  32  32
#     4  11  23  43  68  99 136 178 230 286 346 412
#     4  11  21  39  69 100 135 180 223 275 343 412
#     4  12  23  45  70  98 137 179 229 297 350 417
#     4  12  24  46  76  92 132 186 228 292 370 404
#     4  12  22  41  68 108 144 166 232 294 340 428
#     4  10  22  42  68  98 134 186 224 281 366 409
#     4  12  25  44  64  94 140 187 228 278 329 413
#     4  10  20  43  69  99 137 176 224 288 342 427
#
# _framework density 9.8765429999999999
#
# number of rings (size 3 to 8) (size 9 to 14) (size 15 to 20)
#    0.000    0.889    6.667    1.333    0.000    0.889 
#    2.667    4.444    0.000    0.000    0.000    0.000 
#    0.000    0.000    0.000    0.000    0.000    0.000 
#
# Total GULP energy -601213.028990 kJ/mol
# GULP energy per Si atom -5566.787305 kJ/mol
# Density = 0.985406 g / cm^3
# Si number density = 9.876543 Si / 1000 Ang^3
#
#
#
# Elastic Constant Matrix: (Units=GPa)
#
#
# Indices 1 2 3 4 5 6 
#
# 1 103.7937 44.7945 45.0984 0.0000 0.0000 0.0000
# 2 44.7945 103.7950 45.0990 0.0000 0.0000 0.0000
# 3 45.0984 45.0990 107.7584 0.0000 0.0000 0.0000
# 4 0.0000 0.0000 0.0000 15.4316 0.0000 0.0000
# 5 0.0000 0.0000 0.0000 0.0000 15.4307 0.0000
# 6 0.0000 0.0000 0.0000 0.0000 0.0000 48.1817
#
#
#
# Elastic Compliance Matrix: (Units=1/GPa)
#
#
# Indices 1 2 3 4 5 6 
#
# 1 0.012986 -0.003964 -0.003776 0.000000 0.000000 0.000000
# 2 -0.003964 0.012986 -0.003776 0.000000 0.000000 0.000000
# 3 -0.003776 -0.003776 0.012441 0.000000 0.000000 0.000000
# 4 0.000000 0.000000 0.000000 0.064802 0.000000 0.000000
# 5 0.000000 0.000000 0.000000 0.000000 0.064806 0.000000
# 6 0.000000 0.000000 0.000000 0.000000 0.000000 0.020755
#
#
# Mechanical properties :
#
#
# Convention : Reuss Voigt Hill
#
# Bulk Modulus (GPa) = 65.01472 65.03676 65.02574
# Shear Modulus (GPa) = 23.04867 27.83249 25.44058
#
# Velocity S-wave (km/s) = 3.41961 3.75776 3.59267
# Velocity P-wave (km/s) = 6.96970 7.19889 7.08523
#
# Compressibility (1/GPa) = 0.01538113
#
# Stress axis : x y z
#
# Youngs Moduli (GPa) = 77.00794 77.00861 80.38238
#
# Poissons Ratio (x) = 0.30523 0.30351
# Poissons Ratio (y) = 0.30523 0.30351
# Poissons Ratio (z) = 0.29077 0.29078
#
# Static dielectric constant tensor:
#      x y z
#    x 1.731210 0.000000 0.000000 
#    y 0.000000 1.731210 0.000000 
#    z 0.000000 0.000000 1.709810 
# 
# From -- ./inp_files/5800.got.cif
#   From: 2010.05.17/outbox.ucp.g08.bks.cvg/sg142_3_cif.got.tgz:5800.got - 2010.06.11 11:43:53.
