data_PCOD9574886
_publ_section_title
;
Structure prediction by ZEFSAII (Michael W. Deem and Ramdas Pophale) SiO2 
 PCOD9574886
Probable space group: P -3
;
_chemical_formula_sum "Si O2"
_cell_formula_units_Z 40
_cell_length_a 19.497842
_cell_length_b 19.497842
_cell_length_c 8.700855
_cell_angle_alpha 90.000000
_cell_angle_beta 90.000000
_cell_angle_gamma 120.000000
_cell_volume 2864.611008
_symmetry_space_group_name_H-M "P -3"
_symmetry_group_IT_number 147
_symmetry_cell_setting 'hexagonal'
loop_
_space_group_symop_operation_xyz
x,y,z
-y,x-y,z
-x+y,-x,z
-x,-y,-z
y,-x+y,-z
x-y,x,-z
loop_
_atom_site_type_symbol
_atom_site_label
_atom_site_fract_x
_atom_site_fract_y
_atom_site_fract_z
Si Si1 0.333335 0.666667 0.934279
Si Si2 0.623946 0.537238 0.434147
Si Si3 0.244750 0.755251 0.066590
Si Si4 0.462762 0.086708 0.065853
Si Si5 0.489500 0.244751 0.566591
Si Si6 0.537240 0.623947 0.565853
Si Si7 0.462760 0.376053 0.065853
Si Si8 0.666667 0.333335 0.434282
O O1 0.333334 0.666667 0.749999
O O2 0.288823 0.711183 0.995869
O O3 0.630239 0.542953 0.250000
O O4 0.704482 0.549325 0.506743
O O5 0.596465 0.596464 0.500003
O O6 0.551524 0.448474 0.472120
O O7 0.246734 0.753266 0.249999
O O8 0.155156 0.704483 0.006744
O O9 0.295516 0.844846 0.006747
O O10 0.551525 0.103049 0.027880
O O11 0.403535 0.000001 0.999999
O O12 0.450669 0.295517 0.506748
O O13 0.577640 0.288825 0.495872
O O14 0.542954 0.630242 0.750000
#
# Coordination Sequence:
#
# PCOD9574886 Si02
#       8
#     2   6   6   6   6   6   6   2
#     4  12  22  32  43  63  88 116 154 195 232 266
#     4  10  20  33  48  65  90 118 150 189 231 272
#     4  12  22  32  48  67  89 118 153 191 232 274
#     4  10  20  33  48  65  90 118 150 189 231 272
#     4  12  22  32  48  67  89 118 153 191 232 274
#     4  10  20  33  48  65  90 118 150 189 231 272
#     4  10  20  33  48  65  90 118 150 189 231 272
#     4  12  22  32  43  63  88 116 154 195 232 266
#
# _framework density 13.963502
#
# number of rings (size 3 to 8) (size 9 to 14) (size 15 to 20)
#    0.000    1.200    3.000    5.400    0.000    2.400 
#    0.000    0.000    0.000    0.000    0.000    0.000 
#    0.000    0.000    0.000    0.900    0.000   12.600 
#
# Total GULP energy -223474.620939 kJ/mol
# GULP energy per Si atom -5586.865523 kJ/mol
# Density = 1.393172 g / cm^3
# Si number density = 13.963502 Si / 1000 Ang^3
#
#
#
# Elastic Constant Matrix: (Units=GPa)
#
#
# Indices 1 2 3 4 5 6 
#
# 1 101.4501 49.4640 48.2558 0.0001 -0.0001 0.0002
# 2 49.4640 101.4499 48.2553 0.0001 0.0002 0.0001
# 3 48.2558 48.2553 102.5384 0.0001 0.0000 -0.0001
# 4 0.0001 0.0001 0.0001 23.4905 0.0001 0.0001
# 5 -0.0001 0.0002 0.0000 0.0001 23.4905 -0.0001
# 6 0.0002 0.0001 -0.0001 0.0001 -0.0001 25.9930
#
#
#
# Elastic Compliance Matrix: (Units=1/GPa)
#
#
# Indices 1 2 3 4 5 6 
#
# 1 0.014358 -0.004878 -0.004461 0.000000 0.000000 0.000000
# 2 -0.004878 0.014358 -0.004461 0.000000 0.000000 0.000000
# 3 -0.004461 -0.004461 0.013951 0.000000 0.000000 0.000000
# 4 0.000000 0.000000 0.000000 0.042570 0.000000 0.000000
# 5 0.000000 0.000000 0.000000 0.000000 0.042570 0.000000
# 6 0.000000 0.000000 0.000000 0.000000 0.000000 0.038472
#
#
# Mechanical properties :
#
#
# Convention : Reuss Voigt Hill
#
# Bulk Modulus (GPa) = 66.37648 66.37650 66.37649
# Shear Modulus (GPa) = 25.13807 25.22568 25.18187
#
# Velocity S-wave (km/s) = 4.24756 4.25496 4.25126
# Velocity P-wave (km/s) = 8.46727 8.47222 8.46974
#
# Compressibility (1/GPa) = 0.01506558
#
# Stress axis : x y z
#
# Youngs Moduli (GPa) = 69.64965 69.64989 71.67842
#
# Poissons Ratio (x) = 0.33978 0.31976
# Poissons Ratio (y) = 0.33978 0.31975
# Poissons Ratio (z) = 0.31071 0.31070
#
# Static dielectric constant tensor:
#      x y z
#    x 1.458310 0.000000 0.000000 
#    y 0.000000 1.458310 0.000000 
#    z 0.000000 0.000000 1.457000 
# 
# From -- ./inp_files/654.got.cif
#   From: 2010.05.17/outbox.cif.g08.bks.cpg/sg147_cif.got.tgz:654.got - 2010.05.20 13:49:32.
