data_PCOD9574356
_publ_section_title
;
Structure prediction by ZEFSAII (Michael W. Deem and Ramdas Pophale) SiO2 
 PCOD9574356
Probable space group: P 31
;
_chemical_formula_sum "Si O2"
_cell_formula_units_Z 18
_cell_length_a 11.316229
_cell_length_b 11.316229
_cell_length_c 6.279075
_cell_angle_alpha 90.000000
_cell_angle_beta 90.000000
_cell_angle_gamma 120.000000
_cell_volume 696.353491
_symmetry_space_group_name_H-M "P 31"
_symmetry_group_IT_number 144
_symmetry_cell_setting 'hexagonal'
loop_
_space_group_symop_operation_xyz
x,y,z
-y,x-y,1/3+z
-x+y,-x,2/3+z
loop_
_atom_site_type_symbol
_atom_site_label
_atom_site_fract_x
_atom_site_fract_y
_atom_site_fract_z
Si Si1 0.406954 0.289283 0.814450
Si Si2 0.068771 0.929051 0.901808
Si Si3 0.995960 0.314863 0.944851
Si Si4 0.203959 0.617594 0.990385
Si Si5 0.672734 0.865634 0.933891
Si Si6 0.742861 0.295117 0.501552
O O1 0.290695 0.325375 0.782376
O O2 0.555590 0.419728 0.764317
O O3 0.379963 0.161774 0.668217
O O4 0.422162 0.246602 0.055964
O O5 0.038756 0.825465 0.095512
O O6 0.091645 0.060483 0.039362
O O7 0.202903 0.942471 0.793552
O O8 0.060158 0.477795 0.964312
O O9 0.052783 0.297078 0.715520
O O10 0.307388 0.577576 0.103594
O O11 0.194697 0.725106 0.145763
O O12 0.727237 0.327100 0.739907
#
# Coordination Sequence:
#
# PCOD9574356 Si02
#       6
#     3   3   3   3   3   3
#     4  10  21  44  64  98 133 160 228 276 346 414
#     4  12  25  46  70 102 143 176 234 296 360 426
#     4  12  25  45  71 101 137 189 234 294 350 418
#     4  12  25  50  68  98 142 185 246 292 344 424
#     4  12  25  45  71 101 137 189 234 294 350 418
#     4   8  19  42  58  94 128 159 208 266 346 396
#
# _framework density 25.848941
#
# number of rings (size 3 to 8) (size 9 to 14) (size 15 to 20)
#    1.000    0.000    3.333    5.000    0.000    0.000 
#   15.000    0.000    0.000    0.000    0.000    0.000 
#    0.000    0.000    0.000    0.000    0.000    0.000 
#
# Total GULP energy -100515.958374 kJ/mol
# GULP energy per Si atom -5584.219910 kJ/mol
# Density = 2.579011 g / cm^3
# Si number density = 25.848941 Si / 1000 Ang^3
#
#
#
# Elastic Constant Matrix: (Units=GPa)
#
#
# Indices 1 2 3 4 5 6 
#
# 1 49.3570 -3.0895 22.2787 -5.9242 4.8060 0.0000
# 2 -3.0895 49.3570 22.2787 5.9242 -4.8060 0.0000
# 3 22.2787 22.2787 77.7585 0.0000 0.0000 0.0000
# 4 -5.9242 5.9242 0.0000 44.1877 0.0000 -4.8060
# 5 4.8060 -4.8060 0.0000 0.0000 44.1877 -5.9242
# 6 0.0000 0.0000 0.0000 -4.8060 -5.9242 26.2232
#
#
#
# Elastic Compliance Matrix: (Units=1/GPa)
#
#
# Indices 1 2 3 4 5 6 
#
# 1 0.024962 0.004887 -0.008552 0.002691 -0.002183 0.000000
# 2 0.004887 0.024962 -0.008552 -0.002691 0.002183 0.000000
# 3 -0.008552 -0.008552 0.017761 0.000000 0.000000 0.000000
# 4 0.002691 -0.002691 0.000000 0.023827 0.000000 0.004367
# 5 -0.002183 0.002183 0.000000 0.000000 0.023827 0.005383
# 6 0.000000 0.000000 0.000000 0.004367 0.005383 0.040151
#
#
# Mechanical properties :
#
#
# Convention : Reuss Voigt Hill
#
# Bulk Modulus (GPa) = 23.12080 28.82314 25.97197
# Shear Modulus (GPa) = 25.72776 31.92006 28.82391
#
# Velocity S-wave (km/s) = 3.15828 3.51788 3.34292
# Velocity P-wave (km/s) = 4.71844 5.26075 4.99695
#
# Compressibility (1/GPa) = 0.04325110
#
# Stress axis : x y z
#
# Youngs Moduli (GPa) = 40.06027 40.06027 56.30331
#
# Poissons Ratio (x) = -0.19578 0.48152
# Poissons Ratio (y) = -0.19578 0.48152
# Poissons Ratio (z) = 0.34260 0.34260
#
# Static dielectric constant tensor:
#      x y z
#    x 2.063940 0.000000 0.000000 
#    y 0.000000 2.063940 0.000000 
#    z 0.000000 0.000000 2.049890 
# 
# From -- ./inp_files/93.got.cif
#   From: 2010.05.17/outbox.cif.g08.bks.cpg/sg144_cif.got.tgz:93.got - 2010.05.20 13:46:34.
