data_PCOD9574656
_publ_section_title
;
Structure prediction by ZEFSAII (Michael W. Deem and Ramdas Pophale) SiO2 
 PCOD9574656
Probable space group: P 32
;
_chemical_formula_sum "Si O2"
_cell_formula_units_Z 18
_cell_length_a 9.486432
_cell_length_b 9.486432
_cell_length_c 8.980153
_cell_angle_alpha 90.000000
_cell_angle_beta 90.000000
_cell_angle_gamma 120.000000
_cell_volume 699.874489
_symmetry_space_group_name_H-M "P 32"
_symmetry_group_IT_number 145
_symmetry_cell_setting 'hexagonal'
loop_
_space_group_symop_operation_xyz
x,y,z
-y,x-y,2/3+z
-x+y,-x,1/3+z
loop_
_atom_site_type_symbol
_atom_site_label
_atom_site_fract_x
_atom_site_fract_y
_atom_site_fract_z
Si Si1 0.712617 0.106077 0.003980
Si Si2 0.767474 0.877517 0.388324
Si Si3 0.415167 0.745740 0.482823
Si Si4 0.464980 0.082707 0.566779
Si Si5 0.072815 0.230541 0.411874
Si Si6 0.451710 0.179414 0.034867
O O1 0.814717 0.217901 0.141668
O O2 0.527370 0.061771 0.021739
O O3 0.746530 0.960644 0.964177
O O4 0.765908 0.234433 0.870774
O O5 0.608488 0.801533 0.490587
O O6 0.706557 0.892130 0.224511
O O7 0.812581 0.739813 0.351424
O O8 0.931202 0.043606 0.420636
O O9 0.336909 0.671821 0.314932
O O10 0.425455 0.920338 0.481154
O O11 0.655388 0.187759 0.605661
O O12 0.348085 0.016032 0.710590
#
# Coordination Sequence:
#
# PCOD9574656 Si02
#       6
#     3   3   3   3   3   3
#     4  12  27  48  78 113 156 208 272 335 408 491
#     4  12  27  48  80 115 167 213 272 343 415 488
#     4  12  30  53  85 125 174 222 281 352 422 496
#     4  12  28  50  81 119 163 216 276 341 421 501
#     4  12  27  50  79 115 163 215 274 340 417 494
#     4  12  27  47  81 113 159 212 269 335 415 496
#
# _framework density 25.718897999999999
#
# number of rings (size 3 to 8) (size 9 to 14) (size 15 to 20)
#    0.000    0.000    3.333    5.000   11.667    0.000 
#    0.000    0.000    0.000    0.000    0.000    0.000 
#    0.000    0.000    0.000    0.000    0.000    0.000 
#
# Total GULP energy -100483.169754 kJ/mol
# GULP energy per Si atom -5582.398320 kJ/mol
# Density = 2.566036 g / cm^3
# Si number density = 25.718898 Si / 1000 Ang^3
#
#
#
# Elastic Constant Matrix: (Units=GPa)
#
#
# Indices 1 2 3 4 5 6 
#
# 1 145.4549 63.2569 4.2665 0.0656 3.9180 0.0000
# 2 63.2569 145.4549 4.2665 -0.0656 -3.9180 0.0000
# 3 4.2665 4.2665 69.4611 0.0000 0.0000 0.0000
# 4 0.0656 -0.0656 0.0000 29.1142 0.0000 -3.9180
# 5 3.9180 -3.9180 0.0000 0.0000 29.1142 0.0656
# 6 0.0000 0.0000 0.0000 -3.9180 0.0656 41.0990
#
#
#
# Elastic Compliance Matrix: (Units=1/GPa)
#
#
# Indices 1 2 3 4 5 6 
#
# 1 0.008564 -0.003760 -0.000295 -0.000028 -0.001658 0.000000
# 2 -0.003760 0.008564 -0.000295 0.000028 0.001658 0.000000
# 3 -0.000295 -0.000295 0.014433 0.000000 0.000000 0.000000
# 4 -0.000028 0.000028 0.000000 0.034794 0.000000 0.003317
# 5 -0.001658 0.001658 0.000000 0.000000 0.034794 -0.000056
# 6 0.000000 0.000000 0.000000 0.003317 -0.000056 0.024648
#
#
# Mechanical properties :
#
#
# Convention : Reuss Voigt Hill
#
# Bulk Modulus (GPa) = 43.74575 55.99453 49.87014
# Shear Modulus (GPa) = 35.18243 39.10419 37.14331
#
# Velocity S-wave (km/s) = 3.70261 3.90352 3.80439
# Velocity P-wave (km/s) = 5.94350 6.49120 6.22338
#
# Compressibility (1/GPa) = 0.02285936
#
# Stress axis : x y z
#
# Youngs Moduli (GPa) = 116.77292 116.77292 69.28666
#
# Poissons Ratio (x) = 0.43910 0.02044
# Poissons Ratio (y) = 0.43910 0.02044
# Poissons Ratio (z) = 0.03445 0.03445
#
# Static dielectric constant tensor:
#      x y z
#    x 2.072930 0.000000 0.000000 
#    y 0.000000 2.072930 0.000000 
#    z 0.000000 0.000000 2.481030 
# 
# From -- ./inp_files/281.got.cif
#   From: 2010.05.17/outbox.cif.g08.bks.cpg/sg145_cif.got.tgz:281.got - 2010.05.20 13:47:28.
