data_PCOD9574834
_publ_section_title
;
Structure prediction by ZEFSAII (Michael W. Deem and Ramdas Pophale) SiO2 
 PCOD9574834
Probable space group: R 3
;
_chemical_formula_sum "Si O2"
_cell_formula_units_Z 42
_cell_length_a 15.928917
_cell_length_b 15.928917
_cell_length_c 9.958050
_cell_angle_alpha 90.000000
_cell_angle_beta 90.000000
_cell_angle_gamma 120.000000
_cell_volume 2188.151727
_symmetry_space_group_name_H-M "R 3"
_symmetry_group_IT_number 146
_symmetry_cell_setting 'hexagonal'
loop_
_space_group_symop_operation_xyz
x,y,z
-y,x-y,z
-x+y,-x,z
2/3+x,1/3+y,1/3+z
2/3-y,1/3+x-y,1/3+z
2/3-x+y,1/3-x,1/3+z
1/3+x,2/3+y,2/3+z
1/3-y,2/3+x-y,2/3+z
1/3-x+y,2/3-x,2/3+z
loop_
_atom_site_type_symbol
_atom_site_label
_atom_site_fract_x
_atom_site_fract_y
_atom_site_fract_z
Si Si1 0.296357 0.842126 0.535420
Si Si2 0.792904 0.727569 0.172504
Si Si3 0.666667 0.333335 0.833046
Si Si4 0.000000 0.000000 0.818607
Si Si5 0.496806 0.511271 0.959302
Si Si6 0.872547 0.492424 0.728534
O O1 0.259513 0.844201 0.684328
O O2 0.318022 0.754507 0.529911
O O3 0.227149 0.836925 0.413473
O O4 0.391609 0.946363 0.520430
O O5 0.733810 0.780665 0.226637
O O6 0.886024 0.762051 0.264717
O O7 0.774797 0.400781 0.781735
O O8 0.666668 0.333334 0.991923
O O9 0.480896 0.434168 0.843194
O O10 0.394102 0.485946 0.022474
#
# Coordination Sequence:
#
# PCOD9574834 Si02
#       6
#     9   9   3   3   9   9
#     4  12  27  46  73 101 147 183 234 288 357 423
#     4  12  26  46  74 105 143 189 232 291 359 419
#     4  12  24  49  74 103 144 193 236 286 345 439
#     4  12  30  43  71 112 138 184 236 292 360 409
#     4  12  26  48  71 109 139 192 235 290 359 415
#     4  12  27  46  77 104 145 185 241 291 350 421
#
# _framework density 19.194282000000001
#
# number of rings (size 3 to 8) (size 9 to 14) (size 15 to 20)
#    0.000    0.000    8.571    0.000    6.000    3.429 
#    0.000    0.000    0.000    0.000    0.000    0.000 
#    0.000    0.000    0.000    0.000    0.000    0.000 
#
# Total GULP energy -78319.930526 kJ/mol
# GULP energy per Si atom -5594.280752 kJ/mol
# Density = 1.915059 g / cm^3
# Si number density = 19.194282 Si / 1000 Ang^3
#
#
#
# Elastic Constant Matrix: (Units=GPa)
#
#
# Indices 1 2 3 4 5 6 
#
# 1 58.6122 -1.3573 -11.7976 0.2048 0.1220 0.0001
# 2 -1.3573 58.6117 -11.7979 -0.2052 -0.1230 -0.0004
# 3 -11.7976 -11.7979 80.1548 0.0009 0.0014 0.0012
# 4 0.2048 -0.2052 0.0009 41.0100 0.0012 -0.1213
# 5 0.1220 -0.1230 0.0014 0.0012 41.0115 0.2058
# 6 0.0001 -0.0004 0.0012 -0.1213 0.2058 29.9854
#
#
#
# Elastic Compliance Matrix: (Units=1/GPa)
#
#
# Indices 1 2 3 4 5 6 
#
# 1 0.017635 0.000959 0.002737 -0.000083 -0.000050 0.000000
# 2 0.000959 0.017635 0.002737 0.000083 0.000050 0.000000
# 3 0.002737 0.002737 0.013281 0.000000 0.000000 0.000000
# 4 -0.000083 0.000083 0.000000 0.024385 -0.000001 0.000099
# 5 -0.000050 0.000050 0.000000 -0.000001 0.024385 -0.000167
# 6 0.000000 0.000000 0.000000 0.000099 -0.000167 0.033351
#
#
# Mechanical properties :
#
#
# Convention : Reuss Voigt Hill
#
# Bulk Modulus (GPa) = 16.28242 16.38588 16.33415
# Shear Modulus (GPa) = 36.15863 37.22346 36.69105
#
# Velocity S-wave (km/s) = 4.34501 4.40853 4.37688
# Velocity P-wave (km/s) = 5.80289 5.87102 5.83705
#
# Compressibility (1/GPa) = 0.06141592
#
# Stress axis : x y z
#
# Youngs Moduli (GPa) = 56.70620 56.70561 75.29274
#
# Poissons Ratio (x) = -0.05437 -0.20605
# Poissons Ratio (y) = -0.05437 -0.20606
# Poissons Ratio (z) = -0.15519 -0.15519
#
# Static dielectric constant tensor:
#      x y z
#    x 1.643650 0.000000 0.000000 
#    y 0.000000 1.643650 0.000000 
#    z 0.000000 0.000000 1.661620 
# 
# From -- ./inp_files/1100.got.cif
#   From: 2010.05.17/outbox.cif.g08.bks.cpg/sg146_cif.got.tgz:1100.got - 2010.05.20 13:48:23.
