data_PCOD9574975
_publ_section_title
;
Structure prediction by ZEFSAII (Michael W. Deem and Ramdas Pophale) SiO2 
 PCOD9574975
Probable space group: P -3
;
_chemical_formula_sum "Si O2"
_cell_formula_units_Z 48
_cell_length_a 18.429131
_cell_length_b 18.429131
_cell_length_c 9.071102
_cell_angle_alpha 90.000000
_cell_angle_beta 90.000000
_cell_angle_gamma 120.000000
_cell_volume 2668.089516
_symmetry_space_group_name_H-M "P -3"
_symmetry_group_IT_number 147
_symmetry_cell_setting 'hexagonal'
loop_
_space_group_symop_operation_xyz
x,y,z
-y,x-y,z
-x+y,-x,z
-x,-y,-z
y,-x+y,-z
x-y,x,-z
loop_
_atom_site_type_symbol
_atom_site_label
_atom_site_fract_x
_atom_site_fract_y
_atom_site_fract_z
Si Si1 0.109981 0.483076 0.675101
Si Si2 0.077835 0.192607 0.820322
Si Si3 0.109981 0.483076 0.324899
Si Si4 0.364261 0.452745 0.675313
Si Si5 0.547255 0.911516 0.324688
Si Si6 0.196781 0.812384 0.176321
Si Si7 0.192607 0.114773 0.820322
Si Si8 0.384397 0.196781 0.176320
O O1 0.126026 0.484801 0.500000
O O2 0.123963 0.574031 0.717290
O O3 0.162339 0.449892 0.761421
O O4 0.011373 0.417713 0.698604
O O5 0.135530 0.153833 0.772264
O O6 0.120543 0.289545 0.774839
O O7 0.981697 0.135530 0.772264
O O8 0.077014 0.191480 1.000000
O O9 0.123963 0.574031 0.282710
O O10 0.162339 0.449892 0.238579
O O11 0.011373 0.417713 0.301396
O O12 0.347624 0.450153 0.500000
O O13 0.278679 0.409140 0.763584
O O14 0.590860 0.869539 0.236417
O O15 0.169002 0.879457 0.225161
O O16 0.197549 0.811901 0.000000
#
# Coordination Sequence:
#
# PCOD9574975 Si02
#       8
#     6   6   6   6   6   6   6   6
#     4   9  19  37  58  77 100 136 182 225 266 318
#     4   9  17  29  46  71 106 146 182 213 249 300
#     4   9  19  37  58  77 100 136 182 225 266 318
#     4   9  19  37  58  77 100 136 182 225 266 318
#     4   9  19  37  58  77 100 136 182 225 266 318
#     4  11  21  32  51  82 114 140 171 219 276 332
#     4   9  17  29  46  71 106 146 182 213 249 300
#     4  11  21  32  51  82 114 140 171 219 276 332
#
# _framework density 17.990400999999999
#
# number of rings (size 3 to 8) (size 9 to 14) (size 15 to 20)
#    0.000    2.500    0.000    4.000    0.000    5.000 
#    1.500    2.500    0.000    0.000    0.000    0.000 
#    0.000   12.000    0.000    0.000    0.000    0.000 
#
# Total GULP energy -267819.982614 kJ/mol
# GULP energy per Si atom -5579.582971 kJ/mol
# Density = 1.794945 g / cm^3
# Si number density = 17.990401 Si / 1000 Ang^3
#
#
#
# Elastic Constant Matrix: (Units=GPa)
#
#
# Indices 1 2 3 4 5 6 
#
# 1 26.3036 -14.0823 4.4079 0.0000 0.0000 0.0000
# 2 -14.0823 26.3036 4.4079 0.0000 0.0000 0.0000
# 3 4.4079 4.4079 11.3153 0.0000 0.0000 0.0000
# 4 0.0000 0.0000 0.0000 20.2120 0.0000 0.0000
# 5 0.0000 0.0000 0.0000 0.0000 20.2120 0.0000
# 6 0.0000 0.0000 0.0000 0.0000 0.0000 20.1930
#
#
#
# Elastic Compliance Matrix: (Units=1/GPa)
#
#
# Indices 1 2 3 4 5 6 
#
# 1 0.069283 0.044522 -0.044333 0.000000 0.000000 0.000000
# 2 0.044522 0.069283 -0.044333 0.000000 0.000000 0.000000
# 3 -0.044333 -0.044333 0.122916 0.000000 0.000000 0.000000
# 4 0.000000 0.000000 0.000000 0.049476 0.000000 0.000000
# 5 0.000000 0.000000 0.000000 0.000000 0.049476 0.000000
# 6 0.000000 0.000000 0.000000 0.000000 0.000000 0.049522
#
#
# Mechanical properties :
#
#
# Convention : Reuss Voigt Hill
#
# Bulk Modulus (GPa) = 5.77391 5.93217 5.85304
# Shear Modulus (GPa) = 8.99319 16.73598 12.86459
#
# Velocity S-wave (km/s) = 2.23824 3.05335 2.67700
# Velocity P-wave (km/s) = 3.14580 3.96675 3.57989
#
# Compressibility (1/GPa) = 0.17319300
#
# Stress axis : x y z
#
# Youngs Moduli (GPa) = 14.43353 14.43353 8.13562
#
# Poissons Ratio (x) = -0.64261 0.36068
# Poissons Ratio (y) = -0.64261 0.36068
# Poissons Ratio (z) = 0.63989 0.63989
#
# Static dielectric constant tensor:
#      x y z
#    x 1.604620 0.000000 0.000000 
#    y 0.000000 1.604620 0.000000 
#    z 0.000000 0.000000 1.599540 
# 
# From -- ./inp_files/682.got.cif
#   From: 2010.05.17/outbox.cif.g08.bks.cpg/sg147_cif.got.tgz:682.got - 2010.05.20 13:49:32.
