data_PCOD9574674
_publ_section_title
;
Structure prediction by ZEFSAII (Michael W. Deem and Ramdas Pophale) SiO2 
 PCOD9574674
Probable space group: R 3
;
_chemical_formula_sum "Si O2"
_cell_formula_units_Z 72
_cell_length_a 15.948262
_cell_length_b 15.948262
_cell_length_c 17.458232
_cell_angle_alpha 90.000000
_cell_angle_beta 90.000000
_cell_angle_gamma 120.000000
_cell_volume 3845.542501
_symmetry_space_group_name_H-M "R 3"
_symmetry_group_IT_number 146
_symmetry_cell_setting 'hexagonal'
loop_
_space_group_symop_operation_xyz
x,y,z
-y,x-y,z
-x+y,-x,z
2/3+x,1/3+y,1/3+z
2/3-y,1/3+x-y,1/3+z
2/3-x+y,1/3-x,1/3+z
1/3+x,2/3+y,2/3+z
1/3-y,2/3+x-y,2/3+z
1/3-x+y,2/3-x,2/3+z
loop_
_atom_site_type_symbol
_atom_site_label
_atom_site_fract_x
_atom_site_fract_y
_atom_site_fract_z
Si Si1 0.208066 0.216347 0.695470
Si Si2 0.164364 0.910906 0.574881
Si Si3 0.707962 0.111292 0.355775
Si Si4 0.773985 0.029337 0.866000
Si Si5 0.733866 0.527841 0.743585
Si Si6 0.198373 0.131957 0.336025
Si Si7 0.222573 0.867541 0.295539
Si Si8 0.758704 0.964141 0.192539
O O1 0.121609 0.215519 0.648207
O O2 0.298425 0.327627 0.689578
O O3 0.198426 0.196454 0.786111
O O4 0.234516 0.143021 0.653571
O O5 0.157161 0.811453 0.544787
O O6 0.132568 0.947790 0.500351
O O7 0.265176 0.002419 0.598809
O O8 0.681817 0.141754 0.275756
O O9 0.816337 0.128871 0.350689
O O10 0.698607 0.151101 0.437297
O O11 0.655788 0.982651 0.862779
O O12 0.828575 0.523239 0.722026
O O13 0.643489 0.447779 0.696637
O O14 0.751510 0.626767 0.705480
O O15 0.185121 0.153210 0.248543
O O16 0.142244 0.851326 0.231085
#
# Coordination Sequence:
#
# PCOD9574674 Si02
#       8
#     9   9   9   9   9   9   9   9
#     4  10  18  35  53  76 109 145 188 234 281 338
#     4  11  21  31  54  81 104 153 187 219 299 359
#     4   9  15  30  58  79  95 137 196 239 261 324
#     4   9  16  33  55  76 100 141 192 242 270 324
#     4  11  21  35  50  80 121 146 181 236 288 347
#     4  10  19  31  51  79 110 149 177 227 288 338
#     4  11  20  34  50  76 124 148 169 238 302 340
#     4   9  16  31  53  79 107 143 188 233 279 330
#
# _framework density 18.722975999999999
#
# number of rings (size 3 to 8) (size 9 to 14) (size 15 to 20)
#    0.000    2.000    6.250    1.750    1.750    0.000 
#    0.750    5.000    0.000    0.000    0.000    0.000 
#    0.000    0.000    0.000    0.000    0.000    0.000 
#
# Total GULP energy -133645.534127 kJ/mol
# GULP energy per Si atom -5568.563922 kJ/mol
# Density = 1.868036 g / cm^3
# Si number density = 18.722976 Si / 1000 Ang^3
#
#
#
# Elastic Constant Matrix: (Units=GPa)
#
#
# Indices 1 2 3 4 5 6 
#
# 1 37.7105 12.6985 23.1578 2.9913 -2.2940 0.0000
# 2 12.6985 37.7105 23.1578 -2.9913 2.2940 0.0000
# 3 23.1578 23.1578 161.3369 0.0000 0.0000 0.0000
# 4 2.9913 -2.9913 0.0000 12.9552 0.0000 2.2940
# 5 -2.2940 2.2940 0.0000 0.0000 12.9552 2.9913
# 6 0.0000 0.0000 0.0000 2.2940 2.9913 12.5060
#
#
#
# Elastic Compliance Matrix: (Units=1/GPa)
#
#
# Indices 1 2 3 4 5 6 
#
# 1 0.033338 -0.010487 -0.003280 -0.010119 0.007760 0.000000
# 2 -0.010487 0.033338 -0.003280 0.010119 -0.007760 0.000000
# 3 -0.003280 -0.003280 0.007140 0.000000 0.000000 0.000000
# 4 -0.010119 0.010119 0.000000 0.084610 0.000000 -0.015520
# 5 0.007760 -0.007760 0.000000 0.000000 0.084610 -0.020238
# 6 0.000000 0.000000 0.000000 -0.015520 -0.020238 0.087649
#
#
# Mechanical properties :
#
#
# Convention : Reuss Voigt Hill
#
# Bulk Modulus (GPa) = 25.17462 39.42066 32.29764
# Shear Modulus (GPa) = 13.22687 19.53288 16.37987
#
# Velocity S-wave (km/s) = 2.66080 3.23345 2.96100
# Velocity P-wave (km/s) = 4.78694 5.91952 5.38310
#
# Compressibility (1/GPa) = 0.03972254
#
# Stress axis : x y z
#
# Youngs Moduli (GPa) = 29.99581 29.99581 140.05967
#
# Poissons Ratio (x) = 0.31455 0.45940
# Poissons Ratio (y) = 0.31455 0.45940
# Poissons Ratio (z) = 0.09839 0.09839
#
# Static dielectric constant tensor:
#      x y z
#    x 1.669470 0.000000 0.000000 
#    y 0.000000 1.669470 0.000000 
#    z 0.000000 0.000000 1.704150 
# 
# From -- ./inp_files/1788.got.cif
#   From: 2010.05.17/outbox.cif.g08.bks.cpg/sg146_cif.got.tgz:1788.got - 2010.05.20 13:48:23.
