data_PCOD9574909
_publ_section_title
;
Structure prediction by ZEFSAII (Michael W. Deem and Ramdas Pophale) SiO2 
 PCOD9574909
Probable space group: P -3
;
_chemical_formula_sum "Si O2"
_cell_formula_units_Z 48
_cell_length_a 13.923011
_cell_length_b 13.923011
_cell_length_c 13.347802
_cell_angle_alpha 90.000000
_cell_angle_beta 90.000000
_cell_angle_gamma 120.000000
_cell_volume 2240.818699
_symmetry_space_group_name_H-M "P -3"
_symmetry_group_IT_number 147
_symmetry_cell_setting 'hexagonal'
loop_
_space_group_symop_operation_xyz
x,y,z
-y,x-y,z
-x+y,-x,z
-x,-y,-z
y,-x+y,-z
x-y,x,-z
loop_
_atom_site_type_symbol
_atom_site_label
_atom_site_fract_x
_atom_site_fract_y
_atom_site_fract_z
Si Si1 0.485630 0.606857 0.877065
Si Si2 0.458003 0.265492 0.790733
Si Si3 0.334051 0.870690 0.434254
Si Si4 0.281174 0.446877 0.764138
Si Si5 0.087521 0.837382 0.890016
Si Si6 0.537963 0.126220 0.909839
Si Si7 0.864708 0.323872 0.463049
Si Si8 0.089579 0.838791 0.111123
O O1 0.407828 0.525181 0.792059
O O2 0.524375 0.726782 0.831915
O O3 0.577465 0.571884 0.901845
O O4 0.409256 0.572143 0.976292
O O5 0.484451 0.323866 0.683440
O O6 0.530032 0.213188 0.836410
O O7 0.474341 0.358628 0.870401
O O8 0.336471 0.160027 0.802907
O O9 0.209490 0.785472 0.471314
O O10 0.425081 0.848488 0.490907
O O11 0.377822 0.001616 0.453105
O O12 0.240688 0.323179 0.800501
O O13 0.279695 0.465395 0.647018
O O14 0.970082 0.830706 0.900965
O O15 0.182820 0.960857 0.867561
O O16 0.110761 0.803737 0.000285
#
# Coordination Sequence:
#
# PCOD9574909 Si02
#       8
#     6   6   6   6   6   6   6   6
#     4  11  23  38  59  91 130 167 201 241 295 365
#     4  12  23  39  61  86 119 159 204 253 307 372
#     4  11  25  45  68  94 124 163 217 283 352 412
#     4  12  23  39  61  86 119 159 204 253 307 372
#     4  10  20  35  57  87 123 161 199 239 288 354
#     4  11  23  38  59  91 130 167 201 241 295 365
#     4  11  25  45  68  94 124 163 217 283 352 412
#     4  10  20  35  57  87 123 161 199 239 288 354
#
# _framework density 21.420743000000002
#
# number of rings (size 3 to 8) (size 9 to 14) (size 15 to 20)
#    0.000    1.000    0.000    7.750    0.000    9.000 
#    0.000    0.000    0.000    0.250    0.000    0.000 
#    0.000    0.000    0.000    0.000    0.000    0.000 
#
# Total GULP energy -268022.167261 kJ/mol
# GULP energy per Si atom -5583.795151 kJ/mol
# Density = 2.137199 g / cm^3
# Si number density = 21.420743 Si / 1000 Ang^3
#
#
#
# Elastic Constant Matrix: (Units=GPa)
#
#
# Indices 1 2 3 4 5 6 
#
# 1 98.8656 25.7267 15.6508 -1.3070 2.9206 0.0000
# 2 25.7267 98.8656 15.6508 1.3070 -2.9206 0.0000
# 3 15.6508 15.6508 98.8101 0.0000 0.0000 0.0000
# 4 -1.3070 1.3070 0.0000 25.5182 0.0000 -2.9206
# 5 2.9206 -2.9206 0.0000 0.0000 25.5182 -1.3070
# 6 0.0000 0.0000 0.0000 -2.9206 -1.3070 36.5695
#
#
#
# Elastic Compliance Matrix: (Units=1/GPa)
#
#
# Indices 1 2 3 4 5 6 
#
# 1 0.011092 -0.002733 -0.001324 0.000708 -0.001582 0.000000
# 2 -0.002733 0.011092 -0.001324 -0.000708 0.001582 0.000000
# 3 -0.001324 -0.001324 0.010540 0.000000 0.000000 0.000000
# 4 0.000708 -0.000708 0.000000 0.039622 0.000000 0.003164
# 5 -0.001582 0.001582 0.000000 0.000000 0.039622 0.001416
# 6 0.000000 0.000000 0.000000 0.003164 0.001416 0.027649
#
#
# Mechanical properties :
#
#
# Convention : Reuss Voigt Hill
#
# Bulk Modulus (GPa) = 45.53411 45.62198 45.57805
# Shear Modulus (GPa) = 31.70614 33.48872 32.59743
#
# Velocity S-wave (km/s) = 3.85146 3.95825 3.90522
# Velocity P-wave (km/s) = 6.40948 6.49881 6.45430
#
# Compressibility (1/GPa) = 0.02196156
#
# Stress axis : x y z
#
# Youngs Moduli (GPa) = 90.15879 90.15879 94.87811
#
# Poissons Ratio (x) = 0.24638 0.12562
# Poissons Ratio (y) = 0.24638 0.12562
# Poissons Ratio (z) = 0.11937 0.11937
#
# Static dielectric constant tensor:
#      x y z
#    x 1.832640 0.000000 0.000000 
#    y 0.000000 1.832640 0.000000 
#    z 0.000000 0.000000 1.788460 
# 
# From -- ./inp_files/870.got.cif
#   From: 2010.05.17/outbox.cif.g08.bks.cpg/sg147_cif.got.tgz:870.got - 2010.05.20 13:49:32.
