data_PCOD9574866
_publ_section_title
;
Structure prediction by ZEFSAII (Michael W. Deem and Ramdas Pophale) SiO2 
 PCOD9574866
Probable space group: P -3
;
_chemical_formula_sum "Si O2"
_cell_formula_units_Z 42
_cell_length_a 24.590258
_cell_length_b 24.590258
_cell_length_c 5.057850
_cell_angle_alpha 90.000000
_cell_angle_beta 90.000000
_cell_angle_gamma 120.000000
_cell_volume 2648.638867
_symmetry_space_group_name_H-M "P -3"
_symmetry_group_IT_number 147
_symmetry_cell_setting 'hexagonal'
loop_
_space_group_symop_operation_xyz
x,y,z
-y,x-y,z
-x+y,-x,z
-x,-y,-z
y,-x+y,-z
x-y,x,-z
loop_
_atom_site_type_symbol
_atom_site_label
_atom_site_fract_x
_atom_site_fract_y
_atom_site_fract_z
Si Si1 0.570960 0.633567 0.655509
Si Si2 0.185103 0.442422 0.753380
Si Si3 0.515793 0.416842 0.843780
Si Si4 0.538495 0.847133 0.684130
Si Si5 0.468533 0.692242 0.254756
Si Si6 0.447104 0.074735 0.817430
Si Si7 0.322678 0.592440 0.869511
O O1 0.596115 0.707430 0.698801
O O2 0.541264 0.611536 0.365569
O O3 0.618920 0.610374 0.728856
O O4 0.513049 0.599706 0.863712
O O5 0.233662 0.417824 0.719738
O O6 0.210052 0.497479 0.533101
O O7 0.198947 0.475167 0.038568
O O8 0.555376 0.381427 0.785221
O O9 0.559550 0.490395 0.807318
O O10 0.542366 0.871630 0.390382
O O11 0.467532 0.792271 0.762568
O O12 0.557311 0.902908 0.890929
O O13 0.424046 0.720585 0.175153
O O14 0.385507 0.656913 0.794597
#
# Coordination Sequence:
#
# PCOD9574866 Si02
#       7
#     6   6   6   6   6   6   6
#     4  10  20  35  51  70  83 116 144 180 210 273
#     4   9  19  34  50  60  87 109 143 162 221 261
#     4  10  19  32  51  66  88 106 140 178 226 256
#     4  11  22  35  46  69  89 117 135 186 223 267
#     4   9  17  31  45  63  77 110 137 177 200 264
#     4  12  22  32  50  68  92 105 144 179 228 253
#     4   9  19  33  47  60  87 114 150 168 216 275
#
# _framework density 15.857203
#
# number of rings (size 3 to 8) (size 9 to 14) (size 15 to 20)
#    0.286    1.714    0.000    5.143    0.000    4.571 
#    0.000    7.143    0.000    0.000    0.000    0.000 
#    0.000    0.000    0.000    0.000    0.000    0.000 
#
# Total GULP energy -234089.872209 kJ/mol
# GULP energy per Si atom -5573.568386 kJ/mol
# Density = 1.582111 g / cm^3
# Si number density = 15.857203 Si / 1000 Ang^3
#
#
#
# Elastic Constant Matrix: (Units=GPa)
#
#
# Indices 1 2 3 4 5 6 
#
# 1 37.1578 15.7875 -5.6351 0.4983 -0.4717 0.0000
# 2 15.7875 37.1578 -5.6351 -0.4983 0.4717 0.0000
# 3 -5.6351 -5.6351 50.8811 0.0000 0.0000 0.0000
# 4 0.4983 -0.4983 0.0000 16.1774 0.0000 0.4717
# 5 -0.4717 0.4717 0.0000 0.0000 16.1774 0.4983
# 6 0.0000 0.0000 0.0000 0.4717 0.4983 10.6852
#
#
#
# Elastic Compliance Matrix: (Units=1/GPa)
#
#
# Indices 1 2 3 4 5 6 
#
# 1 0.033132 -0.013789 0.002142 -0.001445 0.001368 0.000000
# 2 -0.013789 0.033132 0.002142 0.001445 -0.001368 0.000000
# 3 0.002142 0.002142 0.020128 0.000000 0.000000 0.000000
# 4 -0.001445 0.001445 0.000000 0.061983 0.000000 -0.002736
# 5 0.001368 -0.001368 0.000000 0.000000 0.061983 -0.002891
# 6 0.000000 0.000000 0.000000 -0.002736 -0.002891 0.093843
#
#
# Mechanical properties :
#
#
# Convention : Reuss Voigt Hill
#
# Bulk Modulus (GPa) = 14.84024 14.91456 14.87740
# Shear Modulus (GPa) = 14.46453 16.65331 15.55892
#
# Velocity S-wave (km/s) = 3.02350 3.24420 3.13579
# Velocity P-wave (km/s) = 4.64411 4.84346 4.74483
#
# Compressibility (1/GPa) = 0.06738434
#
# Stress axis : x y z
#
# Youngs Moduli (GPa) = 30.18185 30.18185 49.68154
#
# Poissons Ratio (x) = 0.41618 -0.10643
# Poissons Ratio (y) = 0.41618 -0.10643
# Poissons Ratio (z) = -0.06466 -0.06466
#
# Static dielectric constant tensor:
#      x y z
#    x 1.583550 0.000000 0.000000 
#    y 0.000000 1.583550 0.000000 
#    z 0.000000 0.000000 1.608630 
# 
# From -- ./inp_files/266.got.cif
#   From: 2010.05.17/outbox.cif.g08.bks.cpg/sg147_cif.got.tgz:266.got - 2010.05.20 13:49:32.
