data_PCOD9574912
_publ_section_title
;
Structure prediction by ZEFSAII (Michael W. Deem and Ramdas Pophale) SiO2 
 PCOD9574912
Probable space group: P -3
;
_chemical_formula_sum "Si O2"
_cell_formula_units_Z 34
_cell_length_a 11.209776
_cell_length_b 11.209776
_cell_length_c 16.167307
_cell_angle_alpha 90.000000
_cell_angle_beta 90.000000
_cell_angle_gamma 120.000000
_cell_volume 1759.390269
_symmetry_space_group_name_H-M "P -3"
_symmetry_group_IT_number 147
_symmetry_cell_setting 'hexagonal'
loop_
_space_group_symop_operation_xyz
x,y,z
-y,x-y,z
-x+y,-x,z
-x,-y,-z
y,-x+y,-z
x-y,x,-z
loop_
_atom_site_type_symbol
_atom_site_label
_atom_site_fract_x
_atom_site_fract_y
_atom_site_fract_z
Si Si1 0.700669 0.938455 0.901092
Si Si2 0.333334 0.666668 0.648985
Si Si3 0.666668 0.333335 0.547595
Si Si4 0.151681 0.789036 0.716420
Si Si5 0.063470 0.748946 0.079816
Si Si6 0.558866 0.668290 0.337580
Si Si7 0.402540 0.065665 0.748084
O O1 0.632489 0.893822 0.811186
O O2 0.761273 0.835756 0.917375
O O3 0.813311 0.099169 0.898090
O O4 0.622517 0.920115 0.988264
O O5 0.333334 0.666667 0.550127
O O6 0.252473 0.739101 0.683088
O O7 0.529059 0.328935 0.584050
O O8 0.015974 0.715227 0.659067
O O9 0.247355 0.954468 0.720015
O O10 0.051945 0.647935 0.153226
O O11 0.560027 0.781282 0.276342
O O12 0.471823 0.516506 0.298314
#
# Coordination Sequence:
#
# PCOD9574912 Si02
#       7
#     6   2   2   6   6   6   6
#     4   9  17  29  50  82 119 160 199 246 276 339
#     4  12  24  42  63  88 116 151 192 246 309 366
#     4   9  24  42  69  88 107 151 201 240 300 372
#     4  11  21  37  60  87 122 152 193 245 300 346
#     4   9  16  29  50  81 119 161 206 235 282 328
#     4  10  20  41  60  86 119 150 200 241 290 366
#     4  10  20  36  60  86 118 163 197 242 286 343
#
# _framework density 19.324877000000001
#
# number of rings (size 3 to 8) (size 9 to 14) (size 15 to 20)
#    0.000    2.118    3.529    0.706    0.000    2.118 
#    1.059    2.647    0.000    0.000    0.000    1.235 
#    0.000    0.000    0.000    0.000    0.000    0.000 
#
# Total GULP energy -189320.171501 kJ/mol
# GULP energy per Si atom -5568.240338 kJ/mol
# Density = 1.928089 g / cm^3
# Si number density = 19.324877 Si / 1000 Ang^3
#
#
#
# Elastic Constant Matrix: (Units=GPa)
#
#
# Indices 1 2 3 4 5 6 
#
# 1 20.0469 29.9924 25.4481 29.3148 14.1127 -0.0159
# 2 29.9924 20.0458 25.4558 -29.3159 -14.1110 0.0139
# 3 25.4481 25.4558 109.2047 0.0038 0.0026 -0.0006
# 4 29.3148 -29.3159 0.0038 -14.0003 0.0035 -14.0976
# 5 14.1127 -14.1110 0.0026 0.0035 -14.0430 29.3541
# 6 -0.0159 0.0139 -0.0006 -14.0976 29.3541 -4.9983
#
#
#
# Elastic Compliance Matrix: (Units=1/GPa)
#
#
# Indices 1 2 3 4 5 6 
#
# 1 0.016639 0.009557 -0.006106 0.014826 0.007125 0.000002
# 2 0.009557 0.016638 -0.006105 -0.014828 -0.007125 -0.000003
# 3 -0.006106 -0.006105 0.012003 0.000001 0.000000 0.000000
# 4 0.014826 -0.014828 0.000001 0.005023 0.000000 -0.014257
# 5 0.007125 -0.007125 0.000000 0.000000 0.005053 0.029634
# 6 0.000002 -0.000003 0.000000 -0.014257 0.029634 0.014176
#
#
# Mechanical properties :
#
#
# Convention : Reuss Voigt Hill
#
# Bulk Modulus (GPa) = 25.01713 34.56555 29.79134
# Shear Modulus (GPa) = 56.71262 -2.04825 27.33219
#
# Velocity S-wave (km/s) = 5.42316 -1.03063 3.76487
# Velocity P-wave (km/s) = 7.22412 4.06314 5.86076
#
# Compressibility (1/GPa) = 0.03997261
#
# Stress axis : x y z
#
# Youngs Moduli (GPa) = 60.09979 60.10394 83.31276
#
# Poissons Ratio (x) = -0.57441 0.50869
# Poissons Ratio (y) = -0.57437 0.50860
# Poissons Ratio (z) = 0.36696 0.36691
#
# Static dielectric constant tensor:
#      x y z
#    x 1.688990 0.000000 0.000000 
#    y 0.000000 1.688990 0.000000 
#    z 0.000000 0.000000 1.691940 
# 
# From -- ./inp_files/945.got.cif
#   From: 2010.05.17/outbox.cif.g08.bks.cpg/sg147_cif.got.tgz:945.got - 2010.05.20 13:49:32.
