data_PCOD9574876
_publ_section_title
;
Structure prediction by ZEFSAII (Michael W. Deem and Ramdas Pophale) SiO2 
 PCOD9574876
Probable space group: P -3
;
_chemical_formula_sum "Si O2"
_cell_formula_units_Z 42
_cell_length_a 11.547702
_cell_length_b 11.547702
_cell_length_c 18.233155
_cell_angle_alpha 90.000000
_cell_angle_beta 90.000000
_cell_angle_gamma 120.000000
_cell_volume 2105.637427
_symmetry_space_group_name_H-M "P -3"
_symmetry_group_IT_number 147
_symmetry_cell_setting 'hexagonal'
loop_
_space_group_symop_operation_xyz
x,y,z
-y,x-y,z
-x+y,-x,z
-x,-y,-z
y,-x+y,-z
x-y,x,-z
loop_
_atom_site_type_symbol
_atom_site_label
_atom_site_fract_x
_atom_site_fract_y
_atom_site_fract_z
Si Si1 0.030270 0.614827 0.306242
Si Si2 0.819730 0.485338 0.431487
Si Si3 0.310677 0.926416 0.154232
Si Si4 0.714441 0.085819 0.685773
Si Si5 0.638394 0.585662 0.855485
Si Si6 0.275073 0.003483 0.003073
Si Si7 0.723326 0.769675 0.469137
O O1 0.158922 0.762733 0.314942
O O2 0.082174 0.509255 0.319883
O O3 0.977374 0.608003 0.222752
O O4 0.909568 0.569545 0.363232
O O5 0.667128 0.457604 0.430869
O O6 0.897685 0.572396 0.501678
O O7 0.301059 0.980240 0.234005
O O8 0.428157 0.891170 0.149592
O O9 0.172646 0.789228 0.147839
O O10 0.337029 0.017545 0.083610
O O11 0.742493 0.017956 0.616896
O O12 0.632701 0.645322 0.934329
O O13 0.131699 0.872070 0.007048
O O14 0.832238 0.750277 0.513108
#
# Coordination Sequence:
#
# PCOD9574876 Si02
#       7
#     6   6   6   6   6   6   6
#     4  10  19  39  59  92 122 151 199 243 299 354
#     4  10  24  41  60  88 123 158 196 252 302 359
#     4   9  18  35  57  85 112 145 188 236 287 343
#     4  10  21  35  62  89 116 154 193 246 296 352
#     4   9  18  33  59  85 114 147 183 237 287 342
#     4  10  20  36  54  80 113 153 194 233 279 339
#     4  12  25  43  63  86 120 158 205 251 299 355
#
# _framework density 19.946453000000002
#
# number of rings (size 3 to 8) (size 9 to 14) (size 15 to 20)
#    0.286    1.714    1.429    2.143    2.000    3.429 
#    7.714    0.000    0.000    0.571    0.000    0.000 
#    0.000    0.000    0.000    0.000    0.000    0.000 
#
# Total GULP energy -233923.138690 kJ/mol
# GULP energy per Si atom -5569.598540 kJ/mol
# Density = 1.990105 g / cm^3
# Si number density = 19.946453 Si / 1000 Ang^3
#
#
#
# Elastic Constant Matrix: (Units=GPa)
#
#
# Indices 1 2 3 4 5 6 
#
# 1 56.9032 7.8611 34.0366 -5.0391 2.7493 0.0000
# 2 7.8611 56.9032 34.0366 5.0391 -2.7493 0.0000
# 3 34.0366 34.0366 167.7190 0.0000 0.0000 0.0000
# 4 -5.0391 5.0391 0.0000 31.4571 0.0000 -2.7493
# 5 2.7493 -2.7493 0.0000 0.0000 31.4571 -5.0391
# 6 0.0000 0.0000 0.0000 -2.7493 -5.0391 24.5211
#
#
#
# Elastic Compliance Matrix: (Units=1/GPa)
#
#
# Indices 1 2 3 4 5 6 
#
# 1 0.020464 -0.000837 -0.003983 0.003412 -0.001862 0.000000
# 2 -0.000837 0.020464 -0.003983 -0.003412 0.001862 0.000000
# 3 -0.003983 -0.003983 0.007579 0.000000 0.000000 0.000000
# 4 0.003412 -0.003412 0.000000 0.033208 0.000000 0.003723
# 5 -0.001862 0.001862 0.000000 0.000000 0.033208 0.006824
# 6 0.000000 0.000000 0.000000 0.003723 0.006824 0.042601
#
#
# Mechanical properties :
#
#
# Convention : Reuss Voigt Hill
#
# Bulk Modulus (GPa) = 32.36142 48.15487 40.25815
# Shear Modulus (GPa) = 26.96439 31.19313 29.07876
#
# Velocity S-wave (km/s) = 3.68072 3.95884 3.82231
# Velocity P-wave (km/s) = 5.85858 6.71498 6.30135
#
# Compressibility (1/GPa) = 0.03090099
#
# Stress axis : x y z
#
# Youngs Moduli (GPa) = 48.86661 48.86661 131.94352
#
# Poissons Ratio (x) = 0.04088 0.52555
# Poissons Ratio (y) = 0.04088 0.52555
# Poissons Ratio (z) = 0.19464 0.19464
#
# Static dielectric constant tensor:
#      x y z
#    x 1.693730 0.000000 0.000000 
#    y 0.000000 1.693730 0.000000 
#    z 0.000000 0.000000 1.797440 
# 
# From -- ./inp_files/1047.got.cif
#   From: 2010.05.17/outbox.cif.g08.bks.cpg/sg147_cif.got.tgz:1047.got - 2010.05.20 13:49:32.
