data_PCOD9574527
_publ_section_title
;
Structure prediction by ZEFSAII (Michael W. Deem and Ramdas Pophale) SiO2 
 PCOD9574527
Probable space group: P 32
;
_chemical_formula_sum "Si O2"
_cell_formula_units_Z 21
_cell_length_a 7.855880
_cell_length_b 7.855880
_cell_length_c 14.587441
_cell_angle_alpha 90.000000
_cell_angle_beta 90.000000
_cell_angle_gamma 120.000000
_cell_volume 779.649538
_symmetry_space_group_name_H-M "P 32"
_symmetry_group_IT_number 145
_symmetry_cell_setting 'hexagonal'
loop_
_space_group_symop_operation_xyz
x,y,z
-y,x-y,2/3+z
-x+y,-x,1/3+z
loop_
_atom_site_type_symbol
_atom_site_label
_atom_site_fract_x
_atom_site_fract_y
_atom_site_fract_z
Si Si1 0.072770 0.447053 0.647640
Si Si2 0.280292 0.161759 0.173688
Si Si3 0.011803 0.831927 0.273211
Si Si4 0.246201 0.051130 0.455582
Si Si5 0.963717 0.475789 0.357030
Si Si6 0.547869 0.213795 0.319588
Si Si7 0.527544 0.821341 0.143560
O O1 0.967217 0.216648 0.625368
O O2 0.148927 0.523194 0.748828
O O3 0.242888 0.536905 0.572362
O O4 0.891639 0.491676 0.639781
O O5 0.432884 0.307919 0.098818
O O6 0.418227 0.101728 0.233024
O O7 0.085155 0.944673 0.177981
O O8 0.140406 0.264225 0.186113
O O9 0.048891 0.650580 0.284178
O O10 0.122667 0.980570 0.358504
O O11 0.458030 0.102958 0.414514
O O12 0.279665 0.260816 0.486889
O O13 0.775606 0.289717 0.315323
O O14 0.113031 0.433077 0.409223
#
# Coordination Sequence:
#
# PCOD9574527 Si02
#       7
#     3   3   3   3   3   3   3
#     4  10  20  39  64  91 134 169 219 272 345 389
#     4  10  17  36  65  85 120 166 218 259 329 408
#     4   9  19  38  61  89 118 171 219 265 323 407
#     4   9  19  35  64  90 119 168 216 259 329 399
#     4  10  21  37  60  91 125 165 213 277 338 391
#     4   9  19  37  60  88 126 163 209 276 325 393
#     4  11  21  40  64  96 132 174 214 288 339 401
#
# _framework density 26.935178000000001
#
# number of rings (size 3 to 8) (size 9 to 14) (size 15 to 20)
#    0.000    2.286    2.857    0.000    0.000    0.000 
#   10.286    8.571    0.000    0.000    0.000    0.000 
#    0.000    0.000    0.000    0.000    0.000    0.000 
#
# Total GULP energy -117038.601482 kJ/mol
# GULP energy per Si atom -5573.266737 kJ/mol
# Density = 2.687387 g / cm^3
# Si number density = 26.935178 Si / 1000 Ang^3
#
#
#
# Elastic Constant Matrix: (Units=GPa)
#
#
# Indices 1 2 3 4 5 6 
#
# 1 91.3810 32.3780 38.0514 0.3009 8.0684 0.0000
# 2 32.3780 91.3810 38.0514 -0.3009 -8.0684 0.0000
# 3 38.0514 38.0514 85.7598 0.0000 0.0000 0.0000
# 4 0.3009 -0.3009 0.0000 43.0217 0.0000 -8.0684
# 5 8.0684 -8.0684 0.0000 0.0000 43.0217 0.3009
# 6 0.0000 0.0000 0.0000 -8.0684 0.3009 29.5015
#
#
#
# Elastic Compliance Matrix: (Units=1/GPa)
#
#
# Indices 1 2 3 4 5 6 
#
# 1 0.014489 -0.003377 -0.004930 -0.000125 -0.003351 0.000000
# 2 -0.003377 0.014489 -0.004930 0.000125 0.003351 0.000000
# 3 -0.004930 -0.004930 0.016036 0.000000 0.000000 0.000000
# 4 -0.000125 0.000125 0.000000 0.024503 0.000000 0.006701
# 5 -0.003351 0.003351 0.000000 0.000000 0.024503 -0.000250
# 6 0.000000 0.000000 0.000000 0.006701 -0.000250 0.035732
#
#
# Mechanical properties :
#
#
# Convention : Reuss Voigt Hill
#
# Bulk Modulus (GPa) = 53.94259 53.94260 53.94259
# Shear Modulus (GPa) = 30.78709 33.77837 32.28273
#
# Velocity S-wave (km/s) = 3.38451 3.54512 3.46574
# Velocity P-wave (km/s) = 5.94504 6.06856 6.00712
#
# Compressibility (1/GPa) = 0.01853823
#
# Stress axis : x y z
#
# Youngs Moduli (GPa) = 69.01784 69.01784 62.36086
#
# Poissons Ratio (x) = 0.23307 0.30746
# Poissons Ratio (y) = 0.23307 0.30746
# Poissons Ratio (z) = 0.34029 0.34029
#
# Static dielectric constant tensor:
#      x y z
#    x 2.209410 0.000000 0.000000 
#    y 0.000000 2.209410 0.000000 
#    z 0.000000 0.000000 2.539470 
# 
# From -- ./inp_files/756.got.cif
#   From: 2010.05.17/outbox.cif.g08.bks.cpg/sg145_cif.got.tgz:756.got - 2010.05.20 13:47:28.
