data_PCOD9574738
_publ_section_title
;
Structure prediction by ZEFSAII (Michael W. Deem and Ramdas Pophale) SiO2 
 PCOD9574738
Probable space group: R 3
;
_chemical_formula_sum "Si O2"
_cell_formula_units_Z 51
_cell_length_a 11.505692
_cell_length_b 11.505692
_cell_length_c 19.760155
_cell_angle_alpha 90.000000
_cell_angle_beta 90.000000
_cell_angle_gamma 120.000000
_cell_volume 2265.408192
_symmetry_space_group_name_H-M "R 3"
_symmetry_group_IT_number 146
_symmetry_cell_setting 'hexagonal'
loop_
_space_group_symop_operation_xyz
x,y,z
-y,x-y,z
-x+y,-x,z
2/3+x,1/3+y,1/3+z
2/3-y,1/3+x-y,1/3+z
2/3-x+y,1/3-x,1/3+z
1/3+x,2/3+y,2/3+z
1/3-y,2/3+x-y,2/3+z
1/3-x+y,2/3-x,2/3+z
loop_
_atom_site_type_symbol
_atom_site_label
_atom_site_fract_x
_atom_site_fract_y
_atom_site_fract_z
Si Si1 0.739685 0.973781 0.336170
Si Si2 0.893100 0.660194 0.200827
Si Si3 0.666667 0.333334 0.136282
Si Si4 0.840002 0.110835 0.047676
Si Si5 0.973555 0.239487 0.395550
Si Si6 0.333334 0.666668 0.637560
Si Si7 0.475400 0.070205 0.174281
O O1 0.778703 0.020933 0.259734
O O2 0.593265 0.955248 0.351225
O O3 0.841075 0.098247 0.383798
O O4 0.754630 0.847888 0.352384
O O5 0.917250 0.731185 0.128006
O O6 0.931501 0.540811 0.197098
O O7 0.733069 0.598641 0.217268
O O8 0.666668 0.333334 0.221458
O O9 0.544680 0.190612 0.117843
O O10 0.883595 0.020655 0.003680
O O11 0.968184 0.257782 0.042391
O O12 0.030915 0.269670 0.472409
#
# Coordination Sequence:
#
# PCOD9574738 Si02
#       7
#     9   9   3   9   9   3   9
#     4  12  25  45  67 100 137 181 226 274 359 407
#     4  10  22  38  68  98 135 176 230 277 336 409
#     4   9  18  33  66 102 129 177 223 275 340 399
#     4  11  23  42  68 103 129 176 232 288 326 411
#     4  11  25  43  67  95 141 178 217 281 343 414
#     4  12  21  39  72 105 138 168 235 302 340 393
#     4   9  18  38  62  95 127 180 217 265 324 403
#
# _framework density 22.512499999999999
#
# number of rings (size 3 to 8) (size 9 to 14) (size 15 to 20)
#    0.000    1.412    3.529    2.824    2.471    1.412 
#    1.059    0.000    0.000    0.000    0.000    0.000 
#    0.000    0.000    0.000    0.000    0.000    0.000 
#
# Total GULP energy -94834.252137 kJ/mol
# GULP energy per Si atom -5578.485420 kJ/mol
# Density = 2.246126 g / cm^3
# Si number density = 22.512500 Si / 1000 Ang^3
#
#
#
# Elastic Constant Matrix: (Units=GPa)
#
#
# Indices 1 2 3 4 5 6 
#
# 1 85.9631 25.4646 32.2293 2.9888 -8.8090 0.0001
# 2 25.4646 85.9630 32.2291 -2.9886 8.8089 0.0001
# 3 32.2293 32.2291 119.4231 0.0002 -0.0001 0.0001
# 4 2.9888 -2.9886 0.0002 31.4520 0.0001 8.8089
# 5 -8.8090 8.8089 -0.0001 0.0001 31.4520 2.9887
# 6 0.0001 0.0001 0.0001 8.8089 2.9887 30.2493
#
#
#
# Elastic Compliance Matrix: (Units=1/GPa)
#
#
# Indices 1 2 3 4 5 6 
#
# 1 0.014409 -0.003774 -0.002870 -0.001728 0.005093 0.000000
# 2 -0.003774 0.014409 -0.002870 0.001728 -0.005093 0.000000
# 3 -0.002870 -0.002870 0.009923 0.000000 0.000000 0.000000
# 4 -0.001728 0.001728 0.000000 0.034975 0.000000 -0.010185
# 5 0.005093 -0.005093 0.000000 0.000000 0.034975 -0.003456
# 6 0.000000 0.000000 0.000000 -0.010185 -0.003456 0.036366
#
#
# Mechanical properties :
#
#
# Convention : Reuss Voigt Hill
#
# Bulk Modulus (GPa) = 50.73069 52.35503 51.54286
# Shear Modulus (GPa) = 29.29860 32.05909 30.67884
#
# Velocity S-wave (km/s) = 3.61146 3.77776 3.69555
# Velocity P-wave (km/s) = 6.32246 6.50654 6.41516
#
# Compressibility (1/GPa) = 0.01971193
#
# Stress axis : x y z
#
# Youngs Moduli (GPa) = 69.40155 69.40160 100.77929
#
# Poissons Ratio (x) = 0.26194 0.28924
# Poissons Ratio (y) = 0.26194 0.28924
# Poissons Ratio (z) = 0.19918 0.19918
#
# Static dielectric constant tensor:
#      x y z
#    x 1.878620 0.000000 0.000000 
#    y 0.000000 1.878620 0.000000 
#    z 0.000000 0.000000 1.874270 
# 
# From -- ./inp_files/1983.got.cif
#   From: 2010.05.17/outbox.cif.g08.bks.cpg/sg146_cif.got.tgz:1983.got - 2010.05.20 13:48:23.
