data_PCOD9574456
_publ_section_title
;
Structure prediction by ZEFSAII (Michael W. Deem and Ramdas Pophale) SiO2 
 PCOD9574456
Probable space group: P 31
;
_chemical_formula_sum "Si O2"
_cell_formula_units_Z 21
_cell_length_a 9.316464
_cell_length_b 9.316464
_cell_length_c 11.416707
_cell_angle_alpha 90.000000
_cell_angle_beta 90.000000
_cell_angle_gamma 120.000000
_cell_volume 858.170749
_symmetry_space_group_name_H-M "P 31"
_symmetry_group_IT_number 144
_symmetry_cell_setting 'hexagonal'
loop_
_space_group_symop_operation_xyz
x,y,z
-y,x-y,1/3+z
-x+y,-x,2/3+z
loop_
_atom_site_type_symbol
_atom_site_label
_atom_site_fract_x
_atom_site_fract_y
_atom_site_fract_z
Si Si1 0.155906 0.689068 0.412150
Si Si2 0.933465 0.690938 0.598429
Si Si3 0.561557 0.797171 0.699798
Si Si4 0.487771 0.310271 0.387276
Si Si5 0.257559 0.997441 0.256283
Si Si6 0.812279 0.906616 0.499426
Si Si7 0.816405 0.437578 0.295946
O O1 0.285647 0.626340 0.392495
O O2 0.222386 0.870126 0.360792
O O3 0.072800 0.660238 0.539550
O O4 0.003158 0.557686 0.332614
O O5 0.896554 0.793782 0.499685
O O6 0.753475 0.531678 0.626216
O O7 0.014393 0.802287 0.714661
O O8 0.661156 0.760152 0.801967
O O9 0.643272 0.803259 0.574085
O O10 0.592931 0.981383 0.709962
O O11 0.682865 0.429268 0.385634
O O12 0.470817 0.254632 0.520430
O O13 0.425393 0.167528 0.289678
O O14 0.129798 0.065086 0.246518
#
# Coordination Sequence:
#
# PCOD9574456 Si02
#       7
#     3   3   3   3   3   3   3
#     4  12  25  45  75 108 150 193 253 327 385 469
#     4  12  25  43  81 115 155 205 272 315 403 481
#     4  11  24  49  72 108 159 198 252 327 400 460
#     4  11  27  46  78 102 154 205 258 323 407 468
#     4  11  24  47  74 110 149 199 255 323 393 467
#     4  11  23  44  78 114 156 205 257 327 392 483
#     4  12  24  48  72 109 149 205 261 328 384 480
#
# _framework density 24.470654
#
# number of rings (size 3 to 8) (size 9 to 14) (size 15 to 20)
#    0.000    0.571    5.714    1.714    6.000    1.143 
#    2.571    1.429    0.000    0.000    0.000    0.000 
#    0.000    0.000    0.000    0.000    0.000    0.000 
#
# Total GULP energy -117308.268355 kJ/mol
# GULP energy per Si atom -5586.108017 kJ/mol
# Density = 2.441496 g / cm^3
# Si number density = 24.470654 Si / 1000 Ang^3
#
#
#
# Elastic Constant Matrix: (Units=GPa)
#
#
# Indices 1 2 3 4 5 6 
#
# 1 27.7291 99.0701 20.8313 7.4041 -33.6802 0.0000
# 2 99.0701 27.7291 20.8313 -7.4041 33.6802 0.0000
# 3 20.8313 20.8313 83.0214 0.0000 0.0000 0.0000
# 4 7.4041 -7.4041 0.0000 16.6010 0.0000 33.6802
# 5 -33.6802 33.6802 0.0000 0.0000 16.6010 7.4041
# 6 0.0000 0.0000 0.0000 33.6802 7.4041 -35.6705
#
#
#
# Elastic Compliance Matrix: (Units=1/GPa)
#
#
# Indices 1 2 3 4 5 6 
#
# 1 0.001968 0.006627 -0.002157 0.002078 -0.009454 0.000000
# 2 0.006627 0.001968 -0.002157 -0.002078 0.009454 0.000000
# 3 -0.002157 -0.002157 0.013127 0.000000 0.000000 0.000000
# 4 0.002078 -0.002078 0.000000 0.020025 0.000000 0.018907
# 5 -0.009454 0.009454 0.000000 0.000000 0.020025 0.004156
# 6 0.000000 0.000000 0.000000 0.018907 0.004156 -0.009319
#
#
# Mechanical properties :
#
#
# Convention : Reuss Voigt Hill
#
# Bulk Modulus (GPa) = 46.10210 46.66057 46.38133
# Shear Modulus (GPa) = 99.21717 -0.64391 49.28663
#
# Velocity S-wave (km/s) = 6.37443 -0.51352 4.49275
# Velocity P-wave (km/s) = 8.54743 4.33102 6.77555
#
# Compressibility (1/GPa) = 0.02169099
#
# Stress axis : x y z
#
# Youngs Moduli (GPa) = 508.20854 508.20854 76.17684
#
# Poissons Ratio (x) = -3.36810 0.16429
# Poissons Ratio (y) = -3.36810 0.16429
# Poissons Ratio (z) = 1.09602 1.09602
#
# Static dielectric constant tensor:
#      x y z
#    x 1.948260 0.000000 0.000000 
#    y 0.000000 1.948260 0.000000 
#    z 0.000000 0.000000 1.956150 
# 
# From -- ./inp_files/616.got.cif
#   From: 2010.05.17/outbox.cif.g08.bks.cpg/sg144_cif.got.tgz:616.got - 2010.05.20 13:46:34.
