data_PCOD9574569
_publ_section_title
;
Structure prediction by ZEFSAII (Michael W. Deem and Ramdas Pophale) SiO2 
 PCOD9574569
Probable space group: P 32
;
_chemical_formula_sum "Si O2"
_cell_formula_units_Z 21
_cell_length_a 11.719506
_cell_length_b 11.719506
_cell_length_c 7.756177
_cell_angle_alpha 90.000000
_cell_angle_beta 90.000000
_cell_angle_gamma 120.000000
_cell_volume 922.564958
_symmetry_space_group_name_H-M "P 32"
_symmetry_group_IT_number 145
_symmetry_cell_setting 'hexagonal'
loop_
_space_group_symop_operation_xyz
x,y,z
-y,x-y,2/3+z
-x+y,-x,1/3+z
loop_
_atom_site_type_symbol
_atom_site_label
_atom_site_fract_x
_atom_site_fract_y
_atom_site_fract_z
Si Si1 0.795733 0.728546 0.171020
Si Si2 0.965720 0.475056 0.385491
Si Si3 0.253957 0.658334 0.536438
Si Si4 0.692718 0.146465 0.033218
Si Si5 0.443609 0.531322 0.711624
Si Si6 0.441159 0.105160 0.170612
Si Si7 0.047727 0.776275 0.943122
O O1 0.672019 0.613996 0.065983
O O2 0.759507 0.654807 0.357320
O O3 0.779931 0.856952 0.204917
O O4 0.934188 0.765566 0.076685
O O5 0.105738 0.573287 0.476994
O O6 0.972583 0.514910 0.187992
O O7 0.873985 0.504897 0.507974
O O8 0.329172 0.607310 0.407254
O O9 0.332896 0.808208 0.468560
O O10 0.841781 0.255874 0.010622
O O11 0.597797 0.184637 0.134076
O O12 0.699458 0.027184 0.122245
O O13 0.537378 0.572204 0.546326
O O14 0.290067 0.420293 0.687631
#
# Coordination Sequence:
#
# PCOD9574569 Si02
#       7
#     3   3   3   3   3   3   3
#     4  11  25  43  65  93 134 184 233 282 338 420
#     4  10  22  39  65  98 130 168 220 281 356 419
#     4  10  22  34  62  96 130 166 210 270 346 404
#     4  10  23  41  65  94 130 168 220 279 341 411
#     4  10  22  39  65  98 130 168 220 281 356 419
#     4  10  23  41  65  94 130 168 220 279 341 411
#     4  11  25  43  65  93 134 184 233 282 338 420
#
# _framework density 22.762626000000001
#
# number of rings (size 3 to 8) (size 9 to 14) (size 15 to 20)
#    0.000    1.714    0.000    2.571   14.000    6.857 
#    0.000    0.000    0.000    0.000    0.000    0.000 
#    0.000    0.000    0.000    0.000    0.000    0.000 
#
# Total GULP energy -116935.443940 kJ/mol
# GULP energy per Si atom -5568.354473 kJ/mol
# Density = 2.271082 g / cm^3
# Si number density = 22.762626 Si / 1000 Ang^3
#
#
#
# Elastic Constant Matrix: (Units=GPa)
#
#
# Indices 1 2 3 4 5 6 
#
# 1 99.8088 33.2414 27.7860 -0.6355 -1.5431 0.0000
# 2 33.2414 99.8088 27.7860 0.6355 1.5431 0.0000
# 3 27.7860 27.7860 67.5075 0.0000 0.0000 0.0000
# 4 -0.6355 0.6355 0.0000 32.8920 0.0000 1.5431
# 5 -1.5431 1.5431 0.0000 0.0000 32.8920 -0.6355
# 6 0.0000 0.0000 0.0000 1.5431 -0.6355 33.2837
#
#
#
# Elastic Compliance Matrix: (Units=1/GPa)
#
#
# Indices 1 2 3 4 5 6 
#
# 1 0.012069 -0.002992 -0.003736 0.000291 0.000707 0.000000
# 2 -0.002992 0.012069 -0.003736 -0.000291 -0.000707 0.000000
# 3 -0.003736 -0.003736 0.017888 0.000000 0.000000 0.000000
# 4 0.000291 -0.000291 0.000000 0.030480 0.000000 -0.001413
# 5 0.000707 -0.000707 0.000000 0.000000 0.030480 0.000582
# 6 0.000000 0.000000 0.000000 -0.001413 0.000582 0.030121
#
#
# Mechanical properties :
#
#
# Convention : Reuss Voigt Hill
#
# Bulk Modulus (GPa) = 47.39808 49.41688 48.40748
# Shear Modulus (GPa) = 31.04297 31.70100 31.37198
#
# Velocity S-wave (km/s) = 3.69693 3.73591 3.71647
# Velocity P-wave (km/s) = 6.25228 6.35343 6.30306
#
# Compressibility (1/GPa) = 0.02109790
#
# Stress axis : x y z
#
# Youngs Moduli (GPa) = 82.86033 82.86033 55.90196
#
# Poissons Ratio (x) = 0.24793 0.20884
# Poissons Ratio (y) = 0.24793 0.20884
# Poissons Ratio (z) = 0.30955 0.30955
#
# Static dielectric constant tensor:
#      x y z
#    x 1.927330 0.000000 0.000000 
#    y 0.000000 1.927330 0.000000 
#    z 0.000000 0.000000 1.913220 
# 
# From -- ./inp_files/354.got.cif
#   From: 2010.05.17/outbox.cif.g08.bks.cpg/sg145_cif.got.tgz:354.got - 2010.05.20 13:47:28.
