data_PCOD9574740
_publ_section_title
;
Structure prediction by ZEFSAII (Michael W. Deem and Ramdas Pophale) SiO2 
 PCOD9574740
Probable space group: R 3
;
_chemical_formula_sum "Si O2"
_cell_formula_units_Z 48
_cell_length_a 12.558448
_cell_length_b 12.558448
_cell_length_c 16.203882
_cell_angle_alpha 90.000000
_cell_angle_beta 90.000000
_cell_angle_gamma 120.000000
_cell_volume 2213.205022
_symmetry_space_group_name_H-M "R 3"
_symmetry_group_IT_number 146
_symmetry_cell_setting 'hexagonal'
loop_
_space_group_symop_operation_xyz
x,y,z
-y,x-y,z
-x+y,-x,z
2/3+x,1/3+y,1/3+z
2/3-y,1/3+x-y,1/3+z
2/3-x+y,1/3-x,1/3+z
1/3+x,2/3+y,2/3+z
1/3-y,2/3+x-y,2/3+z
1/3-x+y,2/3-x,2/3+z
loop_
_atom_site_type_symbol
_atom_site_label
_atom_site_fract_x
_atom_site_fract_y
_atom_site_fract_z
Si Si1 0.666666 0.333333 0.357205
Si Si2 0.271271 0.224893 0.671491
Si Si3 0.666667 0.333335 0.777709
Si Si4 0.015856 0.206170 0.920645
Si Si5 0.666667 0.333333 0.975365
Si Si6 0.194958 0.997485 0.327460
Si Si7 0.102282 0.699840 0.521098
Si Si8 0.666668 0.333334 0.548695
O O1 0.632754 0.430026 0.320175
O O2 0.666668 0.333334 0.452933
O O3 0.364422 0.174413 0.660479
O O4 0.293162 0.314776 0.595175
O O5 0.048114 0.681982 0.429260
O O6 0.130225 0.113662 0.670990
O O7 0.666668 0.333334 0.875495
O O8 0.795984 0.354595 0.739525
O O9 0.069080 0.328741 0.974153
O O10 0.128017 0.209005 0.871020
O O11 0.899416 0.162233 0.860171
O O12 0.128236 0.024496 0.252244
#
# Coordination Sequence:
#
# PCOD9574740 Si02
#       8
#     3   9   3   9   3   9   9   3
#     4   9  22  38  61  90 121 158 205 253 305 358
#     4  12  25  42  64  92 125 164 207 256 311 372
#     4  10  22  42  61  91 130 164 208 259 308 367
#     4  10  22  41  63  89 122 162 205 255 306 366
#     4  12  25  41  64  93 127 167 205 256 314 370
#     4  10  22  40  61  89 124 163 205 254 304 365
#     4  11  24  43  64  92 125 162 207 259 311 369
#     4  10  22  39  58  88 124 158 202 256 305 355
#
# _framework density 21.688003999999999
#
# number of rings (size 3 to 8) (size 9 to 14) (size 15 to 20)
#    0.000    1.500    0.000    6.000    0.000    9.000 
#    0.000    0.000    0.000    0.000    0.000    0.000 
#    0.000    0.000    0.000    0.000    0.000    0.000 
#
# Total GULP energy -89431.128354 kJ/mol
# GULP energy per Si atom -5589.445522 kJ/mol
# Density = 2.163864 g / cm^3
# Si number density = 21.688004 Si / 1000 Ang^3
#
#
#
# Elastic Constant Matrix: (Units=GPa)
#
#
# Indices 1 2 3 4 5 6 
#
# 1 58.8412 27.8072 25.8419 -8.6322 0.0814 0.0011
# 2 27.8072 58.8382 25.8400 8.6332 -0.0812 -0.0005
# 3 25.8419 25.8400 134.8058 0.0009 -0.0007 0.0002
# 4 -8.6322 8.6332 0.0009 4.8936 0.0003 -0.0801
# 5 0.0814 -0.0812 -0.0007 0.0003 4.8906 -8.6347
# 6 0.0011 -0.0005 0.0002 -0.0801 -8.6347 15.5155
#
#
#
# Elastic Compliance Matrix: (Units=1/GPa)
#
#
# Indices 1 2 3 4 5 6 
#
# 1 0.880829 -0.867848 -0.002523 3.084402 -0.074716 -0.025748
# 2 -0.867848 0.880930 -0.002473 -3.084583 0.074603 0.025684
# 3 -0.002523 -0.002473 0.008376 -0.000089 0.000074 0.000040
# 4 3.084402 -3.084583 -0.000089 11.086494 -0.156683 -0.030282
# 5 -0.074716 0.074603 0.000074 -0.156683 11.801462 6.566984
# 6 -0.025748 0.025684 0.000040 -0.030282 6.566984 3.718975
#
#
# Mechanical properties :
#
#
# Convention : Reuss Voigt Hill
#
# Bulk Modulus (GPa) = 40.90630 45.71813 43.31221
# Shear Modulus (GPa) = 0.16594 16.59300 8.37947
#
# Velocity S-wave (km/s) = 0.27691 2.76900 1.96775
# Velocity P-wave (km/s) = 4.35941 5.59901 5.01763
#
# Compressibility (1/GPa) = 0.02444611
#
# Stress axis : x y z
#
# Youngs Moduli (GPa) = 1.13529 1.13516 119.39255
#
# Poissons Ratio (x) = 0.98515 0.30122
# Poissons Ratio (y) = 0.98526 0.29525
# Poissons Ratio (z) = 0.00286 0.00281
#
# Static dielectric constant tensor:
#      x y z
#    x 1.842030 0.000000 0.000000 
#    y 0.000000 1.842040 0.000000 
#    z 0.000000 0.000000 1.782170 
# 
# From -- ./inp_files/2133.got.cif
#   From: 2010.05.17/outbox.cif.g08.bks.cpg/sg146_cif.got.tgz:2133.got - 2010.05.20 13:48:23.
