data_PCOD9574859
_publ_section_title
;
Structure prediction by ZEFSAII (Michael W. Deem and Ramdas Pophale) SiO2 
 PCOD9574859
Probable space group: P -3
;
_chemical_formula_sum "Si O2"
_cell_formula_units_Z 36
_cell_length_a 18.736811
_cell_length_b 18.736811
_cell_length_c 8.810954
_cell_angle_alpha 90.000000
_cell_angle_beta 90.000000
_cell_angle_gamma 120.000000
_cell_volume 2678.828543
_symmetry_space_group_name_H-M "P -3"
_symmetry_group_IT_number 147
_symmetry_cell_setting 'hexagonal'
loop_
_space_group_symop_operation_xyz
x,y,z
-y,x-y,z
-x+y,-x,z
-x,-y,-z
y,-x+y,-z
x-y,x,-z
loop_
_atom_site_type_symbol
_atom_site_label
_atom_site_fract_x
_atom_site_fract_y
_atom_site_fract_z
Si Si1 0.333058 0.823503 0.819839
Si Si2 0.176492 0.668724 0.682914
Si Si3 0.490444 0.666942 0.180161
Si Si4 0.176492 0.668724 0.317086
Si Si5 0.416642 0.410422 0.325674
Si Si6 0.416642 0.410422 0.674326
O O1 0.249411 0.754040 0.744246
O O2 0.408397 0.814056 0.752951
O O3 0.352978 0.915255 0.775391
O O4 0.330040 0.813287 1.000000
O O5 0.179484 0.664189 0.500000
O O6 0.085182 0.652140 0.723538
O O7 0.405659 0.591603 0.247049
O O8 0.504628 0.750589 0.255754
O O9 0.562277 0.647022 0.224609
O O10 0.085182 0.652140 0.276462
O O11 0.401889 0.380712 0.500000
O O12 0.500000 0.500000 0.326137
#
# Coordination Sequence:
#
# PCOD9574859 Si02
#       6
#     6   6   6   6   6   6
#     4  11  20  28  41  61  82 101 128 168 207 237
#     4  10  19  31  44  56  76 106 138 166 193 234
#     4  11  20  28  41  61  82 101 128 168 207 237
#     4  10  19  31  44  56  76 106 138 166 193 234
#     4   8  16  30  44  56  73 102 134 161 194 235
#     4   8  16  30  44  56  73 102 134 161 194 235
#
# _framework density 13.43871
#
# number of rings (size 3 to 8) (size 9 to 14) (size 15 to 20)
#    0.000    2.333    0.000    6.667    0.000    7.333 
#    0.000    0.000    0.000    0.000    0.000    0.000 
#    0.000    0.000    0.000    1.000    0.000   19.333 
#
# Total GULP energy -200640.453645 kJ/mol
# GULP energy per Si atom -5573.345935 kJ/mol
# Density = 1.340812 g / cm^3
# Si number density = 13.438710 Si / 1000 Ang^3
#
#
#
# Elastic Constant Matrix: (Units=GPa)
#
#
# Indices 1 2 3 4 5 6 
#
# 1 80.4975 43.3451 39.0635 0.0000 0.0000 0.0000
# 2 43.3451 80.4975 39.0635 0.0000 0.0000 0.0000
# 3 39.0635 39.0635 75.2393 0.0000 0.0000 0.0000
# 4 0.0000 0.0000 0.0000 10.9958 0.0000 0.0000
# 5 0.0000 0.0000 0.0000 0.0000 10.9958 0.0000
# 6 0.0000 0.0000 0.0000 0.0000 0.0000 18.5762
#
#
#
# Elastic Compliance Matrix: (Units=1/GPa)
#
#
# Indices 1 2 3 4 5 6 
#
# 1 0.019462 -0.007454 -0.006234 0.000000 0.000000 0.000000
# 2 -0.007454 0.019462 -0.006234 0.000000 0.000000 0.000000
# 3 -0.006234 -0.006234 0.019764 0.000000 0.000000 0.000000
# 4 0.000000 0.000000 0.000000 0.090944 0.000000 0.000000
# 5 0.000000 0.000000 0.000000 0.000000 0.090944 0.000000
# 6 0.000000 0.000000 0.000000 0.000000 0.000000 0.053832
#
#
# Mechanical properties :
#
#
# Convention : Reuss Voigt Hill
#
# Bulk Modulus (GPa) = 53.07076 53.24206 53.15641
# Shear Modulus (GPa) = 14.68278 15.76437 15.22357
#
# Velocity S-wave (km/s) = 3.30900 3.42871 3.36938
# Velocity P-wave (km/s) = 7.36043 7.44172 7.40119
#
# Compressibility (1/GPa) = 0.01884277
#
# Stress axis : x y z
#
# Youngs Moduli (GPa) = 51.38237 51.38237 50.59578
#
# Poissons Ratio (x) = 0.38302 0.31543
# Poissons Ratio (y) = 0.38302 0.31543
# Poissons Ratio (z) = 0.32033 0.32033
#
# Static dielectric constant tensor:
#      x y z
#    x 1.439180 0.000000 0.000000 
#    y 0.000000 1.439180 0.000000 
#    z 0.000000 0.000000 1.445450 
# 
# From -- ./inp_files/597.got.cif
#   From: 2010.05.17/outbox.cif.g08.bks.cpg/sg147_cif.got.tgz:597.got - 2010.05.20 13:49:32.
