data_PCOD9574370
_publ_section_title
;
Structure prediction by ZEFSAII (Michael W. Deem and Ramdas Pophale) SiO2 
 PCOD9574370
Probable space group: P 31
;
_chemical_formula_sum "Si O2"
_cell_formula_units_Z 12
_cell_length_a 5.570898
_cell_length_b 5.570898
_cell_length_c 16.548980
_cell_angle_alpha 90.000000
_cell_angle_beta 90.000000
_cell_angle_gamma 120.000000
_cell_volume 444.787196
_symmetry_space_group_name_H-M "P 31"
_symmetry_group_IT_number 144
_symmetry_cell_setting 'hexagonal'
loop_
_space_group_symop_operation_xyz
x,y,z
-y,x-y,1/3+z
-x+y,-x,2/3+z
loop_
_atom_site_type_symbol
_atom_site_label
_atom_site_fract_x
_atom_site_fract_y
_atom_site_fract_z
Si Si1 0.197620 0.612925 0.625000
Si Si2 0.802380 0.415305 0.483989
Si Si3 0.756431 0.764449 0.111936
Si Si4 0.991982 0.235551 0.330387
O O1 1.000000 0.404370 0.554495
O O2 0.167089 0.497067 0.715812
O O3 0.062334 0.810789 0.633072
O O4 0.514518 0.705938 0.604541
O O5 0.485482 0.191420 0.504448
O O6 0.832911 0.329978 0.393178
O O7 0.937666 0.748455 0.475917
O O8 0.000000 0.803337 0.054495
#
# Coordination Sequence:
#
# PCOD9574370 Si02
#       4
#     3   3   3   3
#     4  10  23  39  62  95 124 171 220 271 341 407
#     4  10  23  39  62  95 124 171 220 271 341 407
#     4  10  22  41  62  90 131 162 222 276 330 412
#     4  10  22  41  62  90 131 162 222 276 330 412
#
# _framework density 26.979194
#
# number of rings (size 3 to 8) (size 9 to 14) (size 15 to 20)
#    0.000    2.000    0.000    1.500    7.000    2.000 
#    0.000    0.000    0.000    0.000    0.000    0.000 
#    0.000    0.000    0.000    0.000    0.000    0.000 
#
# Total GULP energy -66836.776383 kJ/mol
# GULP energy per Si atom -5569.731365 kJ/mol
# Density = 2.691779 g / cm^3
# Si number density = 26.979194 Si / 1000 Ang^3
#
#
#
# Elastic Constant Matrix: (Units=GPa)
#
#
# Indices 1 2 3 4 5 6 
#
# 1 138.8008 65.5970 24.3134 -3.4551 0.0000 0.0000
# 2 65.5970 138.8008 24.3134 3.4551 0.0000 0.0000
# 3 24.3134 24.3134 69.2888 0.0000 0.0000 0.0000
# 4 -3.4551 3.4551 0.0000 42.5257 0.0000 0.0000
# 5 0.0000 0.0000 0.0000 0.0000 42.5257 -3.4551
# 6 0.0000 0.0000 0.0000 0.0000 -3.4551 36.6019
#
#
#
# Elastic Compliance Matrix: (Units=1/GPa)
#
#
# Indices 1 2 3 4 5 6 
#
# 1 0.009552 -0.004214 -0.001873 0.001118 0.000000 0.000000
# 2 -0.004214 0.009552 -0.001873 -0.001118 0.000000 0.000000
# 3 -0.001873 -0.001873 0.015747 0.000000 0.000000 0.000000
# 4 0.001118 -0.001118 0.000000 0.023697 0.000000 0.000000
# 5 0.000000 0.000000 0.000000 0.000000 0.023697 0.002237
# 6 0.000000 0.000000 0.000000 0.000000 0.002237 0.027532
#
#
# Mechanical properties :
#
#
# Convention : Reuss Voigt Hill
#
# Bulk Modulus (GPa) = 52.82475 63.92643 58.37559
# Shear Modulus (GPa) = 37.87658 39.84177 38.85917
#
# Velocity S-wave (km/s) = 3.75095 3.84703 3.79930
# Velocity P-wave (km/s) = 6.19531 6.59386 6.39769
#
# Compressibility (1/GPa) = 0.01893052
#
# Stress axis : x y z
#
# Youngs Moduli (GPa) = 104.68945 104.68945 63.50459
#
# Poissons Ratio (x) = 0.44116 0.11895
# Poissons Ratio (y) = 0.44116 0.11895
# Poissons Ratio (z) = 0.19610 0.19610
#
# Static dielectric constant tensor:
#      x y z
#    x 2.185130 0.000000 0.000000 
#    y 0.000000 2.185130 0.000000 
#    z 0.000000 0.000000 2.268670 
# 
# From -- ./inp_files/695.got.cif
#   From: 2010.05.17/outbox.cif.g08.bks.cpg/sg144_cif.got.tgz:695.got - 2010.05.20 13:46:34.
