data_PCOD9574979
_publ_section_title
;
Structure prediction by ZEFSAII (Michael W. Deem and Ramdas Pophale) SiO2 
 PCOD9574979
Probable space group: P -3
;
_chemical_formula_sum "Si O2"
_cell_formula_units_Z 48
_cell_length_a 16.399235
_cell_length_b 16.399235
_cell_length_c 9.266488
_cell_angle_alpha 90.000000
_cell_angle_beta 90.000000
_cell_angle_gamma 120.000000
_cell_volume 2158.206410
_symmetry_space_group_name_H-M "P -3"
_symmetry_group_IT_number 147
_symmetry_cell_setting 'hexagonal'
loop_
_space_group_symop_operation_xyz
x,y,z
-y,x-y,z
-x+y,-x,z
-x,-y,-z
y,-x+y,-z
x-y,x,-z
loop_
_atom_site_type_symbol
_atom_site_label
_atom_site_fract_x
_atom_site_fract_y
_atom_site_fract_z
Si Si1 0.166145 0.495876 0.546325
Si Si2 0.822300 0.677492 0.173888
Si Si3 0.643061 0.516323 0.848144
Si Si4 0.512028 0.849795 0.664996
Si Si5 0.695603 0.017853 0.983914
Si Si6 0.481847 0.318919 0.795780
Si Si7 0.363676 0.029937 0.575576
Si Si8 0.072240 0.857871 0.524005
O O1 0.151666 0.565413 0.654075
O O2 0.267400 0.508535 0.572401
O O3 0.162130 0.504943 0.373591
O O4 0.082060 0.392114 0.584899
O O5 0.731552 0.572681 0.204754
O O6 0.782960 0.725670 0.063883
O O7 0.848237 0.736236 0.321855
O O8 0.908260 0.672804 0.101846
O O9 0.561914 0.410636 0.876994
O O10 0.742157 0.518002 0.840445
O O11 0.633659 0.555390 0.692897
O O12 0.638033 0.591368 0.952665
O O13 0.584953 0.942343 0.578500
O O14 0.694729 0.077087 0.846636
O O15 0.294440 0.072540 0.578728
O O16 0.962943 0.828196 0.534332
#
# Coordination Sequence:
#
# PCOD9574979 Si02
#       8
#     6   6   6   6   6   6   6   6
#     4  12  22  41  68 104 141 177 228 299 364 427
#     4  11  27  47  73 103 142 191 244 293 352 435
#     4  12  25  44  70 101 140 190 242 295 347 435
#     4  11  23  41  65 105 139 175 227 298 366 410
#     4  12  26  49  69 100 144 199 247 289 348 435
#     4  12  24  43  71 104 142 189 245 293 358 433
#     4  11  22  38  67  99 137 178 234 283 358 429
#     4  11  24  43  72 106 143 174 229 306 379 424
#
# _framework density 22.240690000000001
#
# number of rings (size 3 to 8) (size 9 to 14) (size 15 to 20)
#    0.000    0.500    3.750    5.875    3.500    1.000 
#    2.250    0.000    0.000    1.000    0.000    0.000 
#    0.000    0.000    0.000    0.000    0.000    0.000 
#
# Total GULP energy -268326.479975 kJ/mol
# GULP energy per Si atom -5590.134999 kJ/mol
# Density = 2.219007 g / cm^3
# Si number density = 22.240690 Si / 1000 Ang^3
#
#
#
# Elastic Constant Matrix: (Units=GPa)
#
#
# Indices 1 2 3 4 5 6 
#
# 1 88.9471 25.6314 20.3160 -4.4517 9.6904 0.0000
# 2 25.6314 88.9471 20.3160 4.4517 -9.6904 0.0000
# 3 20.3160 20.3160 66.2918 0.0000 0.0000 0.0000
# 4 -4.4517 4.4517 0.0000 23.8132 0.0000 -9.6904
# 5 9.6904 -9.6904 0.0000 0.0000 23.8132 -4.4517
# 6 0.0000 0.0000 0.0000 -9.6904 -4.4517 31.6579
#
#
#
# Elastic Compliance Matrix: (Units=1/GPa)
#
#
# Indices 1 2 3 4 5 6 
#
# 1 0.014196 -0.004404 -0.003001 0.003477 -0.007569 0.000000
# 2 -0.004404 0.014196 -0.003001 -0.003477 0.007569 0.000000
# 3 -0.003001 -0.003001 0.016924 0.000000 0.000000 0.000000
# 4 0.003477 -0.003477 0.000000 0.049453 0.000000 0.015138
# 5 -0.007569 0.007569 0.000000 0.000000 0.049453 0.006954
# 6 0.000000 0.000000 0.000000 0.015138 0.006954 0.037199
#
#
# Mechanical properties :
#
#
# Convention : Reuss Voigt Hill
#
# Bulk Modulus (GPa) = 40.80900 41.85697 41.33299
# Shear Modulus (GPa) = 23.76417 27.71836 25.74127
#
# Velocity S-wave (km/s) = 3.27234 3.53411 3.40574
# Velocity P-wave (km/s) = 5.71544 5.95937 5.83868
#
# Compressibility (1/GPa) = 0.02450440
#
# Stress axis : x y z
#
# Youngs Moduli (GPa) = 70.44394 70.44394 59.08736
#
# Poissons Ratio (x) = 0.31023 0.17731
# Poissons Ratio (y) = 0.31023 0.17731
# Poissons Ratio (z) = 0.21139 0.21139
#
# Static dielectric constant tensor:
#      x y z
#    x 1.800700 0.000000 0.000000 
#    y 0.000000 1.800700 0.000000 
#    z 0.000000 0.000000 1.884410 
# 
# From -- ./inp_files/673.got.cif
#   From: 2010.05.17/outbox.cif.g08.bks.cpg/sg147_cif.got.tgz:673.got - 2010.05.20 13:49:32.
