data_PCOD9574635
_publ_section_title
;
Structure prediction by ZEFSAII (Michael W. Deem and Ramdas Pophale) SiO2 
 PCOD9574635
Probable space group: P 32
;
_chemical_formula_sum "Si O2"
_cell_formula_units_Z 21
_cell_length_a 11.674795
_cell_length_b 11.674795
_cell_length_c 8.237573
_cell_angle_alpha 90.000000
_cell_angle_beta 90.000000
_cell_angle_gamma 120.000000
_cell_volume 972.363022
_symmetry_space_group_name_H-M "P 32"
_symmetry_group_IT_number 145
_symmetry_cell_setting 'hexagonal'
loop_
_space_group_symop_operation_xyz
x,y,z
-y,x-y,2/3+z
-x+y,-x,1/3+z
loop_
_atom_site_type_symbol
_atom_site_label
_atom_site_fract_x
_atom_site_fract_y
_atom_site_fract_z
Si Si1 0.201784 0.132649 0.470740
Si Si2 0.616121 0.250202 0.820022
Si Si3 0.679298 0.797674 0.324926
Si Si4 0.132657 0.201783 0.974671
Si Si5 0.000000 0.641247 0.556042
Si Si6 0.365922 0.749797 0.958740
Si Si7 0.320694 0.118355 0.787157
O O1 0.153721 0.222947 0.561405
O O2 0.308131 0.234018 0.344241
O O3 0.266446 0.083383 0.605698
O O4 0.086187 0.999995 0.389379
O O5 0.705650 0.347109 0.675654
O O6 0.620043 0.113551 0.807984
O O7 0.471530 0.229557 0.782982
O O8 0.733558 0.816948 0.506379
O O9 0.528461 0.758032 0.329121
O O10 0.684657 0.684672 0.222701
O O11 0.222943 0.153704 0.884013
O O12 0.234028 0.308138 0.101162
O O13 0.113551 0.620046 0.637444
O O14 0.347110 0.705660 0.769771
#
# Coordination Sequence:
#
# PCOD9574635 Si02
#       7
#     3   3   3   3   3   3   3
#     4  11  25  42  72 108 146 191 247 313 392 437
#     4  12  26  49  75 106 153 206 257 309 373 456
#     4  11  24  44  68 107 149 196 243 311 375 454
#     4  11  25  42  72 108 146 191 247 313 392 437
#     4  12  24  46  72 110 146 198 258 310 376 450
#     4  12  26  49  75 106 153 206 257 309 373 456
#     4  11  24  44  68 107 149 196 243 311 375 454
#
# _framework density 21.596871
#
# number of rings (size 3 to 8) (size 9 to 14) (size 15 to 20)
#    0.000    0.571    4.286    3.429    6.000    0.000 
#    0.000    0.000    0.000    0.000    0.000    0.000 
#    0.000    0.000    0.000    0.000    0.000    0.000 
#
# Total GULP energy -117296.819874 kJ/mol
# GULP energy per Si atom -5585.562851 kJ/mol
# Density = 2.154772 g / cm^3
# Si number density = 21.596871 Si / 1000 Ang^3
#
#
#
# Elastic Constant Matrix: (Units=GPa)
#
#
# Indices 1 2 3 4 5 6 
#
# 1 83.8889 24.1482 22.7697 7.5777 -0.0006 0.0000
# 2 24.1482 83.8889 22.7697 -7.5777 0.0006 0.0000
# 3 22.7697 22.7697 104.0739 0.0000 0.0000 0.0000
# 4 7.5777 -7.5777 0.0000 23.7446 0.0000 0.0006
# 5 -0.0006 0.0006 0.0000 0.0000 23.7446 7.5777
# 6 0.0000 0.0000 0.0000 0.0006 7.5777 29.8704
#
#
#
# Elastic Compliance Matrix: (Units=1/GPa)
#
#
# Indices 1 2 3 4 5 6 
#
# 1 0.014205 -0.004009 -0.002231 -0.005813 0.000000 0.000000
# 2 -0.004009 0.014205 -0.002231 0.005813 0.000000 0.000000
# 3 -0.002231 -0.002231 0.010585 0.000000 0.000000 0.000000
# 4 -0.005813 0.005813 0.000000 0.045825 0.000000 -0.000001
# 5 0.000000 0.000000 0.000000 0.000000 0.045825 -0.011625
# 6 0.000000 0.000000 0.000000 -0.000001 -0.011625 0.036427
#
#
# Mechanical properties :
#
#
# Convention : Reuss Voigt Hill
#
# Bulk Modulus (GPa) = 45.34271 45.69187 45.51729
# Shear Modulus (GPa) = 26.12832 28.94954 27.53893
#
# Velocity S-wave (km/s) = 3.48202 3.66519 3.57478
# Velocity P-wave (km/s) = 6.09972 6.25413 6.17741
#
# Compressibility (1/GPa) = 0.02205426
#
# Stress axis : x y z
#
# Youngs Moduli (GPa) = 70.39775 70.39775 94.47609
#
# Poissons Ratio (x) = 0.28220 0.21076
# Poissons Ratio (y) = 0.28220 0.21076
# Poissons Ratio (z) = 0.15704 0.15704
#
# Static dielectric constant tensor:
#      x y z
#    x 1.807620 0.000000 0.000000 
#    y 0.000000 1.807620 0.000000 
#    z 0.000000 0.000000 1.820590 
# 
# From -- ./inp_files/430.got.cif
#   From: 2010.05.17/outbox.cif.g08.bks.cpg/sg145_cif.got.tgz:430.got - 2010.05.20 13:47:28.
