data_PCOD9574745
_publ_section_title
;
Structure prediction by ZEFSAII (Michael W. Deem and Ramdas Pophale) SiO2 
 PCOD9574745
Probable space group: R 3
;
_chemical_formula_sum "Si O2"
_cell_formula_units_Z 51
_cell_length_a 14.372783
_cell_length_b 14.372783
_cell_length_c 11.735505
_cell_angle_alpha 90.000000
_cell_angle_beta 90.000000
_cell_angle_gamma 120.000000
_cell_volume 2099.491650
_symmetry_space_group_name_H-M "R 3"
_symmetry_group_IT_number 146
_symmetry_cell_setting 'hexagonal'
loop_
_space_group_symop_operation_xyz
x,y,z
-y,x-y,z
-x+y,-x,z
2/3+x,1/3+y,1/3+z
2/3-y,1/3+x-y,1/3+z
2/3-x+y,1/3-x,1/3+z
1/3+x,2/3+y,2/3+z
1/3-y,2/3+x-y,2/3+z
1/3-x+y,2/3-x,2/3+z
loop_
_atom_site_type_symbol
_atom_site_label
_atom_site_fract_x
_atom_site_fract_y
_atom_site_fract_z
Si Si1 0.738152 0.099980 0.637290
Si Si2 0.000000 0.000000 0.252958
Si Si3 0.711433 0.569594 0.327171
Si Si4 0.399261 0.507496 0.220229
Si Si5 0.666668 0.333334 0.858948
Si Si6 0.300729 0.941564 0.208873
Si Si7 0.185806 0.146037 0.100165
O O1 0.709092 0.128351 0.758376
O O2 0.666697 0.093574 0.528026
O O3 0.860918 0.198327 0.616775
O O4 0.724433 0.981582 0.641013
O O5 0.936324 0.885181 0.193436
O O6 0.000000 0.000000 0.387697
O O7 0.707874 0.635063 0.218206
O O8 0.749004 0.664968 0.418338
O O9 0.785690 0.516579 0.349664
O O10 0.588999 0.476068 0.353797
O O11 0.324184 0.558893 0.236364
O O12 0.519367 0.605395 0.226711
#
# Coordination Sequence:
#
# PCOD9574745 Si02
#       7
#     9   3   9   9   3   9   9
#     4  11  24  40  65 100 131 173 229 278 332 398
#     4   9  15  33  60  90 121 155 211 270 336 369
#     4  10  22  41  66  95 134 169 219 275 345 404
#     4  12  25  42  65  98 134 180 228 279 337 405
#     4  12  21  39  69  90 130 167 223 285 333 390
#     4  11  23  43  66  93 137 180 214 276 357 402
#     4   9  20  36  63  94 125 162 222 281 326 388
#
# _framework density 24.291595000000001
#
# number of rings (size 3 to 8) (size 9 to 14) (size 15 to 20)
#    0.000    1.412    5.294    0.353    2.471    2.824 
#    0.000    0.000    0.000    0.000    0.000    0.000 
#    0.000    0.000    0.000    0.000    0.000    0.000 
#
# Total GULP energy -94740.172698 kJ/mol
# GULP energy per Si atom -5572.951335 kJ/mol
# Density = 2.423631 g / cm^3
# Si number density = 24.291595 Si / 1000 Ang^3
#
#
#
# Elastic Constant Matrix: (Units=GPa)
#
#
# Indices 1 2 3 4 5 6 
#
# 1 88.2333 5.5234 -1.2499 -1.2283 -1.7296 0.0001
# 2 5.5234 88.2330 -1.2497 1.2289 1.7296 0.0001
# 3 -1.2499 -1.2497 12.8642 0.0000 0.0000 0.0000
# 4 -1.2283 1.2289 0.0000 19.2516 0.0001 1.7299
# 5 -1.7296 1.7296 0.0000 0.0001 19.2524 -1.2282
# 6 0.0001 0.0001 0.0000 1.7299 -1.2282 41.3551
#
#
#
# Elastic Compliance Matrix: (Units=1/GPa)
#
#
# Indices 1 2 3 4 5 6 
#
# 1 0.011426 -0.000733 0.001039 0.000776 0.001092 0.000000
# 2 -0.000733 0.011426 0.001039 -0.000776 -0.001092 0.000000
# 3 0.001039 0.001039 0.077937 0.000000 0.000000 0.000000
# 4 0.000776 -0.000776 0.000000 0.052239 0.000000 -0.002185
# 5 0.001092 -0.001092 0.000000 0.000000 0.052237 0.001551
# 6 0.000000 0.000000 0.000000 -0.002185 0.001551 0.024318
#
#
# Mechanical properties :
#
#
# Convention : Reuss Voigt Hill
#
# Bulk Modulus (GPa) = 9.66369 21.70867 15.68618
# Shear Modulus (GPa) = 19.12868 28.39226 23.76047
#
# Velocity S-wave (km/s) = 2.80922 3.42250 3.13091
# Velocity P-wave (km/s) = 3.80908 4.95722 4.42059
#
# Compressibility (1/GPa) = 0.10348018
#
# Stress axis : x y z
#
# Youngs Moduli (GPa) = 87.51666 87.51634 12.83084
#
# Poissons Ratio (x) = 0.06413 -0.01333
# Poissons Ratio (y) = 0.06413 -0.01333
# Poissons Ratio (z) = -0.09093 -0.09091
#
# Static dielectric constant tensor:
#      x y z
#    x 2.015050 0.000000 0.000000 
#    y 0.000000 2.015050 0.000000 
#    z 0.000000 0.000000 1.928370 
# 
# From -- ./inp_files/1512.got.cif
#   From: 2010.05.17/outbox.cif.g08.bks.cpg/sg146_cif.got.tgz:1512.got - 2010.05.20 13:48:23.
