data_PCOD9574651
_publ_section_title
;
Structure prediction by ZEFSAII (Michael W. Deem and Ramdas Pophale) SiO2 
 PCOD9574651
Probable space group: P 32
;
_chemical_formula_sum "Si O2"
_cell_formula_units_Z 15
_cell_length_a 10.820999
_cell_length_b 10.820999
_cell_length_c 6.364513
_cell_angle_alpha 90.000000
_cell_angle_beta 90.000000
_cell_angle_gamma 120.000000
_cell_volume 645.402322
_symmetry_space_group_name_H-M "P 32"
_symmetry_group_IT_number 145
_symmetry_cell_setting 'hexagonal'
loop_
_space_group_symop_operation_xyz
x,y,z
-y,x-y,2/3+z
-x+y,-x,1/3+z
loop_
_atom_site_type_symbol
_atom_site_label
_atom_site_fract_x
_atom_site_fract_y
_atom_site_fract_z
Si Si1 0.111523 0.241632 0.651680
Si Si2 0.332013 0.549525 0.780605
Si Si3 0.999998 0.381291 0.324487
Si Si4 0.869870 0.758335 0.663983
Si Si5 0.782495 0.450457 0.535126
O O1 0.245663 0.379445 0.755069
O O2 0.034313 0.310413 0.519122
O O3 0.165634 0.165595 0.491213
O O4 0.999977 0.139222 0.824486
O O5 0.394609 0.630025 0.559977
O O6 0.466077 0.596975 0.932478
O O7 0.869081 0.402975 0.383252
O O8 0.965693 0.276168 0.129762
O O9 0.866252 0.620539 0.560632
O O10 0.630034 0.394619 0.422428
#
# Coordination Sequence:
#
# PCOD9574651 Si02
#       5
#     3   3   3   3   3
#     4  12  30  51  79 114 161 215 267 327 408 487
#     4  12  26  47  81 117 154 202 268 340 402 469
#     4  12  28  48  74 116 156 204 266 336 396 476
#     4  12  30  51  79 114 161 215 267 327 408 487
#     4  12  26  47  81 117 154 202 268 340 402 469
#
# _framework density 23.241318
#
# number of rings (size 3 to 8) (size 9 to 14) (size 15 to 20)
#    0.000    0.000    8.000    0.000   11.200    3.200 
#    0.000    0.000    0.000    0.000    0.000    0.000 
#    0.000    0.000    0.000    0.000    0.000    0.000 
#
# Total GULP energy -84105.713968 kJ/mol
# GULP energy per Si atom -5607.047598 kJ/mol
# Density = 2.318842 g / cm^3
# Si number density = 23.241318 Si / 1000 Ang^3
#
#
#
# Elastic Constant Matrix: (Units=GPa)
#
#
# Indices 1 2 3 4 5 6 
#
# 1 117.3879 67.8009 54.5788 2.6230 0.0029 0.0000
# 2 67.8009 117.3879 54.5788 -2.6230 -0.0029 0.0000
# 3 54.5788 54.5788 109.5841 0.0000 0.0000 0.0000
# 4 2.6230 -2.6230 0.0000 51.6395 0.0000 -0.0029
# 5 0.0029 -0.0029 0.0000 0.0000 51.6395 2.6230
# 6 0.0000 0.0000 0.0000 -0.0029 2.6230 24.7935
#
#
#
# Elastic Compliance Matrix: (Units=1/GPa)
#
#
# Indices 1 2 3 4 5 6 
#
# 1 0.013960 -0.006316 -0.003807 -0.001030 -0.000001 0.000000
# 2 -0.006316 0.013960 -0.003807 0.001030 0.000001 0.000000
# 3 -0.003807 -0.003807 0.012918 0.000000 0.000000 0.000000
# 4 -0.001030 0.001030 0.000000 0.019470 0.000000 0.000002
# 5 -0.000001 0.000001 0.000000 0.000000 0.019470 -0.002060
# 6 0.000000 0.000000 0.000000 0.000002 -0.002060 0.040551
#
#
# Mechanical properties :
#
#
# Convention : Reuss Voigt Hill
#
# Bulk Modulus (GPa) = 77.05826 77.58632 77.32229
# Shear Modulus (GPa) = 32.78402 36.77460 34.77931
#
# Velocity S-wave (km/s) = 3.75986 3.98212 3.87259
# Velocity P-wave (km/s) = 7.21640 7.38908 7.30325
#
# Compressibility (1/GPa) = 0.01297719
#
# Stress axis : x y z
#
# Youngs Moduli (GPa) = 71.63452 71.63452 77.41313
#
# Poissons Ratio (x) = 0.45243 0.29472
# Poissons Ratio (y) = 0.45243 0.29472
# Poissons Ratio (z) = 0.27272 0.27272
#
# Static dielectric constant tensor:
#      x y z
#    x 1.858340 0.000000 0.000000 
#    y 0.000000 1.858340 0.000000 
#    z 0.000000 0.000000 1.886370 
# 
# From -- ./inp_files/75.got.cif
#   From: 2010.05.17/outbox.cif.g08.bks.cpg/sg145_cif.got.tgz:75.got - 2010.05.20 13:47:28.
