data_PCOD9574721
_publ_section_title
;
Structure prediction by ZEFSAII (Michael W. Deem and Ramdas Pophale) SiO2 
 PCOD9574721
Probable space group: R 3
;
_chemical_formula_sum "Si O2"
_cell_formula_units_Z 42
_cell_length_a 10.114714
_cell_length_b 10.114714
_cell_length_c 19.804673
_cell_angle_alpha 90.000000
_cell_angle_beta 90.000000
_cell_angle_gamma 120.000000
_cell_volume 1754.710692
_symmetry_space_group_name_H-M "R 3"
_symmetry_group_IT_number 146
_symmetry_cell_setting 'hexagonal'
loop_
_space_group_symop_operation_xyz
x,y,z
-y,x-y,z
-x+y,-x,z
2/3+x,1/3+y,1/3+z
2/3-y,1/3+x-y,1/3+z
2/3-x+y,1/3-x,1/3+z
1/3+x,2/3+y,2/3+z
1/3-y,2/3+x-y,2/3+z
1/3-x+y,2/3-x,2/3+z
loop_
_atom_site_type_symbol
_atom_site_label
_atom_site_fract_x
_atom_site_fract_y
_atom_site_fract_z
Si Si1 0.334152 0.210007 0.553030
Si Si2 0.000000 0.000000 0.066442
Si Si3 0.666668 0.333335 0.561817
Si Si4 0.128148 0.346467 0.067260
Si Si5 0.823870 0.978263 0.832808
Si Si6 0.633567 0.868970 0.361343
O O1 0.491790 0.225142 0.579747
O O2 0.293758 0.124188 0.481601
O O3 0.368707 0.379540 0.534174
O O4 0.231815 0.161531 0.619592
O O5 0.000000 0.000000 0.147429
O O6 0.033462 0.167430 0.048250
O O7 0.033818 0.427455 0.048492
O O8 0.292187 0.404677 0.032655
O O9 0.804272 0.989838 0.752624
O O10 0.982469 0.133356 0.850264
#
# Coordination Sequence:
#
# PCOD9574721 Si02
#       6
#     9   3   3   9   9   9
#     4  10  21  40  66 100 130 184 225 284 350 420
#     4   9  21  39  66  96 135 183 231 298 350 403
#     4   9  18  33  69  90 123 168 234 265 344 415
#     4  10  23  42  67 100 142 179 238 294 349 432
#     4   9  23  43  63  91 142 174 226 290 341 408
#     4  11  22  41  67  99 138 180 234 285 354 422
#
# _framework density 23.935572000000001
#
# number of rings (size 3 to 8) (size 9 to 14) (size 15 to 20)
#    0.429    1.714    0.000    1.714   12.000    0.000 
#   11.571    0.000    0.000    0.000    0.000    0.000 
#    0.000    0.000    0.000    0.000    0.000    0.000 
#
# Total GULP energy -78229.370028 kJ/mol
# GULP energy per Si atom -5587.812145 kJ/mol
# Density = 2.388109 g / cm^3
# Si number density = 23.935572 Si / 1000 Ang^3
#
#
#
# Elastic Constant Matrix: (Units=GPa)
#
#
# Indices 1 2 3 4 5 6 
#
# 1 75.4172 16.0320 9.6853 -1.2312 -0.5475 -0.0005
# 2 16.0320 75.4179 9.6852 1.2309 0.5476 -0.0004
# 3 9.6853 9.6852 120.4628 0.0000 0.0001 -0.0003
# 4 -1.2312 1.2309 0.0000 3.9621 -0.0002 0.5473
# 5 -0.5475 0.5476 0.0001 -0.0002 3.9626 -1.2309
# 6 -0.0005 -0.0004 -0.0003 0.5473 -1.2309 29.6925
#
#
#
# Elastic Compliance Matrix: (Units=1/GPa)
#
#
# Indices 1 2 3 4 5 6 
#
# 1 0.014114 -0.002989 -0.000894 0.005314 0.002364 0.000000
# 2 -0.002989 0.014114 -0.000894 -0.005314 -0.002363 0.000000
# 3 -0.000894 -0.000894 0.008445 0.000000 0.000000 0.000000
# 4 0.005314 -0.005314 0.000000 0.256345 0.000011 -0.004725
# 5 0.002364 -0.002363 0.000000 0.000011 0.256313 0.010625
# 6 0.000000 0.000000 0.000000 -0.004725 0.010625 0.034206
#
#
# Mechanical properties :
#
#
# Convention : Reuss Voigt Hill
#
# Bulk Modulus (GPa) = 36.87807 38.01144 37.44476
# Shear Modulus (GPa) = 8.30383 23.24980 15.77682
#
# Velocity S-wave (km/s) = 1.86461 3.12003 2.57015
# Velocity P-wave (km/s) = 4.48067 5.37537 4.94828
#
# Compressibility (1/GPa) = 0.02711639
#
# Stress axis : x y z
#
# Youngs Moduli (GPa) = 70.85261 70.85346 118.41133
#
# Poissons Ratio (x) = 0.21180 0.10591
# Poissons Ratio (y) = 0.21180 0.10591
# Poissons Ratio (z) = 0.06337 0.06337
#
# Static dielectric constant tensor:
#      x y z
#    x 1.931400 0.000000 0.000000 
#    y 0.000000 1.931400 0.000000 
#    z 0.000000 0.000000 1.957430 
# 
# From -- ./inp_files/1705.got.cif
#   From: 2010.05.17/outbox.cif.g08.bks.cpg/sg146_cif.got.tgz:1705.got - 2010.05.20 13:48:23.
