data_PCOD9574143
_publ_section_title
;
Structure prediction by ZEFSAII (Michael W. Deem and Ramdas Pophale) SiO2 
 PCOD9574143
Probable space group: I 41/A C D
;
_chemical_formula_sum "Si O2"
_cell_formula_units_Z 136
_cell_length_a 22.914252
_cell_length_b 22.914252
_cell_length_c 10.984505
_cell_angle_alpha 90.000000
_cell_angle_beta 90.000000
_cell_angle_gamma 90.000000
_cell_volume 5767.556542
_symmetry_space_group_name_H-M "I 41/A C D"
_symmetry_group_IT_number 142
_space_group.IT_coordinate_system_code '2'
_symmetry_cell_setting 'tetragonal'
loop_
_space_group_symop_operation_xyz
x,y,z
1/4-y,3/4+x,1/4+z
-x,1/2-y,z
1/4+y,1/4-x,3/4+z
x,-y,1/2-z
1/2-x,y,-z
3/4+y,1/4+x,1/4-z
1/4-y,1/4-x,1/4-z
-x,-y,-z
3/4+y,1/4-x,3/4-z
x,1/2+y,-z
3/4-y,3/4+x,1/4-z
-x,y,1/2+z
1/2+x,-y,z
1/4-y,3/4-x,3/4+z
3/4+y,3/4+x,3/4+z
1/2+x,1/2+y,1/2+z
3/4-y,1/4+x,3/4+z
1/2-x,-y,1/2+z
3/4+y,3/4-x,1/4+z
1/2+x,1/2-y,-z
-x,1/2+y,1/2-z
1/4+y,3/4+x,3/4-z
3/4-y,3/4-x,3/4-z
1/2-x,1/2-y,1/2-z
1/4+y,3/4-x,1/4-z
1/2+x,y,1/2-z
1/4-y,1/4+x,3/4-z
1/2-x,1/2+y,z
x,1/2-y,1/2+z
3/4-y,1/4-x,1/4+z
1/4+y,1/4+x,1/4+z
loop_
_atom_site_type_symbol
_atom_site_label
_atom_site_fract_x
_atom_site_fract_y
_atom_site_fract_z
Si Si1 0.000000 0.750000 0.625000
Si Si2 0.520405 0.377033 0.675011
Si Si3 0.648274 0.700174 0.160028
Si Si4 0.140292 0.011540 0.617040
Si Si5 0.641061 0.569741 0.755675
O O1 0.941274 0.739750 0.549767
O O2 0.509740 0.384717 0.528748
O O3 0.485174 0.408269 0.783900
O O4 0.586985 0.396324 0.688195
O O5 0.596790 0.653211 0.125000
O O6 0.704999 0.662074 0.198661
O O7 0.193574 0.056427 0.625000
O O8 0.116428 0.000000 0.750000
O O9 0.166207 0.951085 0.573284
O O10 0.631528 0.500000 0.750000
O O11 0.653094 0.596907 0.625000
#
# Coordination Sequence:
#
# PCOD9574143 Si02
#       5
#     8  32  32  32  32
#     4  12  28  50  80 102 152 206 264 318 392 458
#     4  12  28  47  76 108 147 201 260 320 385 466
#     4  11  25  47  74 110 146 194 257 316 390 461
#     4  11  23  44  77 107 149 196 243 311 388 470
#     4  12  26  46  74 113 155 200 258 320 397 479
#
# _framework density 23.580176999999999
#
# number of rings (size 3 to 8) (size 9 to 14) (size 15 to 20)
#    0.000    0.471    2.353    7.059    3.294    1.882 
#    0.000    3.529    0.000    0.000    0.000    0.000 
#    0.000    0.000    0.000    0.000    0.000    0.000 
#
# Total GULP energy -380131.277113 kJ/mol
# GULP energy per Si atom -5590.165840 kJ/mol
# Density = 2.352651 g / cm^3
# Si number density = 23.580177 Si / 1000 Ang^3
#
#
#
# Elastic Constant Matrix: (Units=GPa)
#
#
# Indices 1 2 3 4 5 6 
#
# 1 87.0646 51.9613 12.0778 0.0000 0.0000 0.0000
# 2 51.9613 87.0631 12.0766 0.0000 0.0000 0.0000
# 3 12.0778 12.0766 106.1396 0.0000 0.0000 0.0000
# 4 0.0000 0.0000 0.0000 135.9242 0.0000 0.0000
# 5 0.0000 0.0000 0.0000 0.0000 135.8438 0.0000
# 6 0.0000 0.0000 0.0000 0.0000 0.0000 29.7438
#
#
#
# Elastic Compliance Matrix: (Units=1/GPa)
#
#
# Indices 1 2 3 4 5 6 
#
# 1 0.017913 -0.010575 -0.000835 0.000000 0.000000 0.000000
# 2 -0.010575 0.017913 -0.000835 0.000000 0.000000 0.000000
# 3 -0.000835 -0.000835 0.009612 0.000000 0.000000 0.000000
# 4 0.000000 0.000000 0.000000 0.007357 0.000000 0.000000
# 5 0.000000 0.000000 0.000000 0.000000 0.007361 0.000000
# 6 0.000000 0.000000 0.000000 0.000000 0.000000 0.033620
#
#
# Mechanical properties :
#
#
# Convention : Reuss Voigt Hill
#
# Bulk Modulus (GPa) = 47.73785 48.05541 47.89663
# Shear Modulus (GPa) = 39.92054 73.91247 56.91651
#
# Velocity S-wave (km/s) = 4.11904 5.60475 4.91832
# Velocity P-wave (km/s) = 6.55063 7.89355 7.25324
#
# Compressibility (1/GPa) = 0.02094774
#
# Stress axis : x y z
#
# Youngs Moduli (GPa) = 55.82579 55.82502 104.04129
#
# Poissons Ratio (x) = 0.59035 0.08689
# Poissons Ratio (y) = 0.59036 0.08686
# Poissons Ratio (z) = 0.04662 0.04660
#
# Static dielectric constant tensor:
#      x y z
#    x 1.886250 0.000000 0.000000 
#    y 0.000000 1.886240 0.000000 
#    z 0.000000 0.000000 1.920500 
# 
# From -- ./inp_files/3608.got.cif
#   From: 2010.05.17/outbox.cif.g08.bks.cpg/sg142_2_cif.got.tgz:3608.got - 2010.05.20 13:39:18.
