data_PCOD9574946
_publ_section_title
;
Structure prediction by ZEFSAII (Michael W. Deem and Ramdas Pophale) SiO2 
 PCOD9574946
Probable space group: P -3
;
_chemical_formula_sum "Si O2"
_cell_formula_units_Z 34
_cell_length_a 14.518901
_cell_length_b 14.518901
_cell_length_c 7.601583
_cell_angle_alpha 90.000000
_cell_angle_beta 90.000000
_cell_angle_gamma 120.000000
_cell_volume 1387.721003
_symmetry_space_group_name_H-M "P -3"
_symmetry_group_IT_number 147
_symmetry_cell_setting 'hexagonal'
loop_
_space_group_symop_operation_xyz
x,y,z
-y,x-y,z
-x+y,-x,z
-x,-y,-z
y,-x+y,-z
x-y,x,-z
loop_
_atom_site_type_symbol
_atom_site_label
_atom_site_fract_x
_atom_site_fract_y
_atom_site_fract_z
Si Si1 0.211135 0.094967 0.589625
Si Si2 0.666668 0.333335 0.120967
Si Si3 0.513635 0.635715 0.835232
Si Si4 0.389534 0.026163 0.158967
Si Si5 0.569807 0.728433 0.445667
Si Si6 0.333335 0.666668 0.451640
Si Si7 0.051809 0.850449 0.899805
O O1 0.180951 0.150880 0.432852
O O2 0.337787 0.149829 0.583335
O O3 0.167939 0.136068 0.746716
O O4 0.551886 0.314982 0.070721
O O5 0.666668 0.333334 0.334914
O O6 0.420517 0.513718 0.799188
O O7 0.561805 0.690325 0.648229
O O8 0.591547 0.628093 0.975159
O O9 0.336217 0.940944 0.315961
O O10 0.323648 0.087310 0.135134
O O11 0.453847 0.707861 0.396111
O O12 0.965851 0.816404 0.059360
#
# Coordination Sequence:
#
# PCOD9574946 Si02
#       7
#     6   2   6   6   6   2   6
#     4  11  25  43  68 101 128 175 223 270 335 400
#     4   9  21  37  65  91 127 176 202 265 323 382
#     4  10  22  40  63  92 133 166 217 261 320 381
#     4  10  24  40  63  97 120 175 215 264 323 389
#     4  10  23  42  66  95 134 175 213 274 323 387
#     4   9  21  43  65  97 133 173 223 262 329 394
#     4  11  25  43  66  91 131 168 213 276 333 386
#
# _framework density 24.500601
#
# number of rings (size 3 to 8) (size 9 to 14) (size 15 to 20)
#    0.000    1.765    0.000    1.941    7.412    9.882 
#    6.353    0.000    0.000    0.000    0.000    0.000 
#    0.000    0.000    0.000    0.000    0.000    0.000 
#
# Total GULP energy -190184.418012 kJ/mol
# GULP energy per Si atom -5593.659353 kJ/mol
# Density = 2.444484 g / cm^3
# Si number density = 24.500601 Si / 1000 Ang^3
#
#
#
# Elastic Constant Matrix: (Units=GPa)
#
#
# Indices 1 2 3 4 5 6 
#
# 1 100.4412 40.2349 -1.1083 -2.9287 -8.4011 0.0001
# 2 40.2349 100.4424 -1.1096 2.9277 8.4007 -0.0001
# 3 -1.1083 -1.1096 85.8314 0.0000 -0.0001 0.0007
# 4 -2.9287 2.9277 0.0000 11.5774 0.0000 8.4008
# 5 -8.4011 8.4007 -0.0001 0.0000 11.5776 -2.9283
# 6 0.0001 -0.0001 0.0007 8.4008 -2.9283 30.1039
#
#
#
# Elastic Compliance Matrix: (Units=1/GPa)
#
#
# Indices 1 2 3 4 5 6 
#
# 1 0.014300 -0.007190 0.000092 0.005436 0.015593 0.000000
# 2 -0.007190 0.014300 0.000092 -0.005435 -0.015593 0.000000
# 3 0.000092 0.000092 0.011653 0.000000 0.000000 0.000000
# 4 0.005436 -0.005435 0.000000 0.111754 0.000000 -0.031186
# 5 0.015593 -0.015593 0.000000 0.000000 0.111752 0.010870
# 6 0.000000 0.000000 0.000000 -0.031186 0.010870 0.042978
#
#
# Mechanical properties :
#
#
# Convention : Reuss Voigt Hill
#
# Bulk Modulus (GPa) = 38.10910 40.30545 39.20727
# Shear Modulus (GPa) = 15.17466 27.23166 21.20316
#
# Velocity S-wave (km/s) = 2.49139 3.33749 2.94498
# Velocity P-wave (km/s) = 4.88510 5.59806 5.25369
#
# Compressibility (1/GPa) = 0.02624045
#
# Stress axis : x y z
#
# Youngs Moduli (GPa) = 69.93027 69.93187 85.81395
#
# Poissons Ratio (x) = 0.50280 -0.00787
# Poissons Ratio (y) = 0.50279 -0.00790
# Poissons Ratio (z) = -0.00641 -0.00643
#
# Static dielectric constant tensor:
#      x y z
#    x 1.928220 0.000000 0.000000 
#    y 0.000000 1.928220 0.000000 
#    z 0.000000 0.000000 2.144490 
# 
# From -- ./inp_files/573.got.cif
#   From: 2010.05.17/outbox.cif.g08.bks.cpg/sg147_cif.got.tgz:573.got - 2010.05.20 13:49:32.
