data_PCOD9574233
_publ_section_title
;
Structure prediction by ZEFSAII (Michael W. Deem and Ramdas Pophale) SiO2 
 PCOD9574233
Probable space group: I 41/A C D
;
_chemical_formula_sum "Si O2"
_cell_formula_units_Z 80
_cell_length_a 9.883497
_cell_length_b 9.883497
_cell_length_c 33.377203
_cell_angle_alpha 90.000000
_cell_angle_beta 90.000000
_cell_angle_gamma 90.000000
_cell_volume 3260.402441
_symmetry_space_group_name_H-M "I 41/A C D"
_symmetry_group_IT_number 142
_space_group.IT_coordinate_system_code '2'
_symmetry_cell_setting 'tetragonal'
loop_
_space_group_symop_operation_xyz
x,y,z
1/4-y,3/4+x,1/4+z
-x,1/2-y,z
1/4+y,1/4-x,3/4+z
x,-y,1/2-z
1/2-x,y,-z
3/4+y,1/4+x,1/4-z
1/4-y,1/4-x,1/4-z
-x,-y,-z
3/4+y,1/4-x,3/4-z
x,1/2+y,-z
3/4-y,3/4+x,1/4-z
-x,y,1/2+z
1/2+x,-y,z
1/4-y,3/4-x,3/4+z
3/4+y,3/4+x,3/4+z
1/2+x,1/2+y,1/2+z
3/4-y,1/4+x,3/4+z
1/2-x,-y,1/2+z
3/4+y,3/4-x,1/4+z
1/2+x,1/2-y,-z
-x,1/2+y,1/2-z
1/4+y,3/4+x,3/4-z
3/4-y,3/4-x,3/4-z
1/2-x,1/2-y,1/2-z
1/4+y,3/4-x,1/4-z
1/2+x,y,1/2-z
1/4-y,1/4+x,3/4-z
1/2-x,1/2+y,z
x,1/2-y,1/2+z
3/4-y,1/4-x,1/4+z
1/4+y,1/4+x,1/4+z
loop_
_atom_site_type_symbol
_atom_site_label
_atom_site_fract_x
_atom_site_fract_y
_atom_site_fract_z
Si Si1 0.749671 0.854939 0.175062
Si Si2 0.858046 0.608046 0.875000
Si Si3 0.000000 0.250000 0.289103
Si Si4 0.250000 0.652758 0.000000
O O1 0.658585 0.751240 0.148556
O O2 0.862838 0.746737 0.187255
O O3 0.833384 0.975609 0.153319
O O4 0.678559 0.928000 0.213219
O O5 0.002062 0.383503 0.263930
#
# Coordination Sequence:
#
# PCOD9574233 Si02
#       4
#    32  16  16  16
#     4  12  27  52  74 121 158 218 280 348 433 513
#     4  12  28  48  82 110 164 214 274 357 427 502
#     4  12  26  49  78 111 160 208 278 342 414 513
#     4  12  28  48  82 116 162 220 282 346 428 526
#
# _framework density 24.536850000000001
#
# number of rings (size 3 to 8) (size 9 to 14) (size 15 to 20)
#    0.000    0.000    4.000    4.800    5.600    0.800 
#    0.000    0.000    0.000    0.000    0.000    0.000 
#    0.000    0.000    0.000    0.000    0.000    0.000 
#
# Total GULP energy -223171.474522 kJ/mol
# GULP energy per Si atom -5579.286863 kJ/mol
# Density = 2.448100 g / cm^3
# Si number density = 24.536850 Si / 1000 Ang^3
#
#
#
# Elastic Constant Matrix: (Units=GPa)
#
#
# Indices 1 2 3 4 5 6 
#
# 1 126.0396 70.2641 57.4708 0.0000 0.0000 0.0000
# 2 70.2641 126.0396 57.4708 0.0000 0.0000 0.0000
# 3 57.4708 57.4708 105.7351 0.0000 0.0000 0.0000
# 4 0.0000 0.0000 0.0000 59.3445 0.0000 0.0000
# 5 0.0000 0.0000 0.0000 0.0000 59.3445 0.0000
# 6 0.0000 0.0000 0.0000 0.0000 0.0000 -11.7410
#
#
#
# Elastic Compliance Matrix: (Units=1/GPa)
#
#
# Indices 1 2 3 4 5 6 
#
# 1 0.012701 -0.005228 -0.004061 0.000000 0.000000 0.000000
# 2 -0.005228 0.012701 -0.004061 0.000000 0.000000 0.000000
# 3 -0.004061 -0.004061 0.013873 0.000000 0.000000 0.000000
# 4 0.000000 0.000000 0.000000 0.016851 0.000000 0.000000
# 5 0.000000 0.000000 0.000000 0.000000 0.016851 0.000000
# 6 0.000000 0.000000 0.000000 0.000000 0.000000 -0.085172
#
#
# Mechanical properties :
#
#
# Convention : Reuss Voigt Hill
#
# Bulk Modulus (GPa) = 79.54548 80.91394 80.22971
# Shear Modulus (GPa) = 267.42852 32.89687 150.16270
#
# Velocity S-wave (km/s) = 10.45118 3.66555 7.83146
# Velocity P-wave (km/s) = 13.34636 7.13884 10.70253
#
# Compressibility (1/GPa) = 0.01257142
#
# Stress axis : x y z
#
# Youngs Moduli (GPa) = 78.73628 78.73628 72.08433
#
# Poissons Ratio (x) = 0.41166 0.29276
# Poissons Ratio (y) = 0.41166 0.29276
# Poissons Ratio (z) = 0.31978 0.31978
#
# Static dielectric constant tensor:
#      x y z
#    x 1.985480 0.000000 0.000000 
#    y 0.000000 1.985480 0.000000 
#    z 0.000000 0.000000 2.251550 
# 
# From -- ./inp_files/11923.got.cif
#   From: 2010.05.17/outbox.cif.g08.bks.cpg/sg142_6_cif.got.tgz:11923.got - 2010.05.20 13:39:18.
