data_PCOD9574754
_publ_section_title
;
Structure prediction by ZEFSAII (Michael W. Deem and Ramdas Pophale) SiO2 
 PCOD9574754
Probable space group: R 3
;
_chemical_formula_sum "Si O2"
_cell_formula_units_Z 45
_cell_length_a 13.082947
_cell_length_b 13.082947
_cell_length_c 14.305772
_cell_angle_alpha 90.000000
_cell_angle_beta 90.000000
_cell_angle_gamma 120.000000
_cell_volume 2120.572353
_symmetry_space_group_name_H-M "R 3"
_symmetry_group_IT_number 146
_symmetry_cell_setting 'hexagonal'
loop_
_space_group_symop_operation_xyz
x,y,z
-y,x-y,z
-x+y,-x,z
2/3+x,1/3+y,1/3+z
2/3-y,1/3+x-y,1/3+z
2/3-x+y,1/3-x,1/3+z
1/3+x,2/3+y,2/3+z
1/3-y,2/3+x-y,2/3+z
1/3-x+y,2/3-x,2/3+z
loop_
_atom_site_type_symbol
_atom_site_label
_atom_site_fract_x
_atom_site_fract_y
_atom_site_fract_z
Si Si1 0.735086 0.248288 0.639960
Si Si2 0.237024 0.233889 0.974361
Si Si3 0.233216 0.997450 0.960330
Si Si4 0.314099 0.236664 0.504764
Si Si5 0.084563 0.428613 0.125113
O O1 0.793668 0.390451 0.634120
O O2 0.765101 0.189367 0.556250
O O3 0.786043 0.230509 0.737039
O O4 0.209181 0.101573 0.991002
O O5 0.347228 0.302156 0.904507
O O6 0.120833 0.232694 0.935236
O O7 0.267889 0.305707 0.071001
O O8 0.323018 0.049346 0.873789
O O9 0.292717 0.964471 0.044738
O O10 0.222792 0.097458 0.496021
#
# Coordination Sequence:
#
# PCOD9574754 Si02
#       5
#     9   9   9   9   9
#     4  10  23  38  69  93 128 166 221 263 326 383
#     4  11  26  40  67  96 131 179 216 272 324 395
#     4  11  24  42  65  93 135 169 222 264 336 383
#     4  11  24  43  65  98 132 168 228 263 332 383
#     4  11  23  43  64  98 130 174 213 278 326 390
#
# _framework density 21.220687000000002
#
# number of rings (size 3 to 8) (size 9 to 14) (size 15 to 20)
#    0.400    0.800    2.000    4.000   11.200    0.000 
#    0.000    0.000    0.000    0.000    0.000    0.000 
#    0.000    0.000    0.000    0.000    0.000    0.000 
#
# Total GULP energy -83835.430400 kJ/mol
# GULP energy per Si atom -5589.028693 kJ/mol
# Density = 2.117239 g / cm^3
# Si number density = 21.220687 Si / 1000 Ang^3
#
#
#
# Elastic Constant Matrix: (Units=GPa)
#
#
# Indices 1 2 3 4 5 6 
#
# 1 92.5220 18.4822 19.9300 -5.7677 6.1938 0.0000
# 2 18.4822 92.5220 19.9300 5.7677 -6.1938 0.0000
# 3 19.9300 19.9300 84.3128 0.0000 0.0000 0.0000
# 4 -5.7677 5.7677 0.0000 37.1042 0.0000 -6.1938
# 5 6.1938 -6.1938 0.0000 0.0000 37.1042 -5.7677
# 6 0.0000 0.0000 0.0000 -6.1938 -5.7677 37.0199
#
#
#
# Elastic Compliance Matrix: (Units=1/GPa)
#
#
# Indices 1 2 3 4 5 6 
#
# 1 0.012047 -0.002203 -0.002327 0.002215 -0.002379 0.000000
# 2 -0.002203 0.012047 -0.002327 -0.002215 0.002379 0.000000
# 3 -0.002327 -0.002327 0.012961 0.000000 0.000000 0.000000
# 4 0.002215 -0.002215 0.000000 0.028434 0.000000 0.004757
# 5 -0.002379 0.002379 0.000000 0.000000 0.028434 0.004430
# 6 0.000000 0.000000 0.000000 0.004757 0.004430 0.028499
#
#
# Mechanical properties :
#
#
# Convention : Reuss Voigt Hill
#
# Bulk Modulus (GPa) = 42.84267 42.89349 42.86808
# Shear Modulus (GPa) = 34.74291 36.31329 35.52810
#
# Velocity S-wave (km/s) = 4.05065 4.14118 4.09616
# Velocity P-wave (km/s) = 6.48921 6.56679 6.52812
#
# Compressibility (1/GPa) = 0.02334122
#
# Stress axis : x y z
#
# Youngs Moduli (GPa) = 83.00961 83.00961 77.15621
#
# Poissons Ratio (x) = 0.18283 0.17954
# Poissons Ratio (y) = 0.18283 0.17954
# Poissons Ratio (z) = 0.19316 0.19316
#
# Static dielectric constant tensor:
#      x y z
#    x 1.805010 0.000000 0.000000 
#    y 0.000000 1.805010 0.000000 
#    z 0.000000 0.000000 1.739850 
# 
# From -- ./inp_files/1069.got.cif
#   From: 2010.05.17/outbox.cif.g08.bks.cpg/sg146_cif.got.tgz:1069.got - 2010.05.20 13:48:23.
