data_PCOD9574125
_publ_section_title
;
Structure prediction by ZEFSAII (Michael W. Deem and Ramdas Pophale) SiO2 
 PCOD9574125
Probable space group: I 41/A C D
;
_chemical_formula_sum "Si O2"
_cell_formula_units_Z 112
_cell_length_a 13.864357
_cell_length_b 13.864357
_cell_length_c 26.520343
_cell_angle_alpha 90.000000
_cell_angle_beta 90.000000
_cell_angle_gamma 90.000000
_cell_volume 5097.750808
_symmetry_space_group_name_H-M "I 41/A C D"
_symmetry_group_IT_number 142
_space_group.IT_coordinate_system_code '2'
_symmetry_cell_setting 'tetragonal'
loop_
_space_group_symop_operation_xyz
x,y,z
1/4-y,3/4+x,1/4+z
-x,1/2-y,z
1/4+y,1/4-x,3/4+z
x,-y,1/2-z
1/2-x,y,-z
3/4+y,1/4+x,1/4-z
1/4-y,1/4-x,1/4-z
-x,-y,-z
3/4+y,1/4-x,3/4-z
x,1/2+y,-z
3/4-y,3/4+x,1/4-z
-x,y,1/2+z
1/2+x,-y,z
1/4-y,3/4-x,3/4+z
3/4+y,3/4+x,3/4+z
1/2+x,1/2+y,1/2+z
3/4-y,1/4+x,3/4+z
1/2-x,-y,1/2+z
3/4+y,3/4-x,1/4+z
1/2+x,1/2-y,-z
-x,1/2+y,1/2-z
1/4+y,3/4+x,3/4-z
3/4-y,3/4-x,3/4-z
1/2-x,1/2-y,1/2-z
1/4+y,3/4-x,1/4-z
1/2+x,y,1/2-z
1/4-y,1/4+x,3/4-z
1/2-x,1/2+y,z
x,1/2-y,1/2+z
3/4-y,1/4-x,1/4+z
1/4+y,1/4+x,1/4+z
loop_
_atom_site_type_symbol
_atom_site_label
_atom_site_fract_x
_atom_site_fract_y
_atom_site_fract_z
Si Si1 0.005124 0.124606 0.908459
Si Si2 0.543704 0.157900 0.761357
Si Si3 0.378858 0.000000 0.750000
Si Si4 0.844631 0.476544 0.571951
O O1 0.932924 0.150106 0.862555
O O2 0.952320 0.162579 0.959005
O O3 0.047933 0.020419 0.919581
O O4 0.500000 0.250000 0.790252
O O5 0.452271 0.088677 0.755569
O O6 0.630419 0.104559 0.788917
O O7 0.305719 0.028792 0.705531
O O8 0.800054 0.449947 0.625000
#
# Coordination Sequence:
#
# PCOD9574125 Si02
#       4
#    32  32  16  32
#     4  11  22  45  80 105 145 206 261 312 393 470
#     4  12  26  50  75 113 154 206 259 327 394 478
#     4  12  26  50  78 108 156 202 264 328 390 478
#     4  12  30  45  78 117 155 204 270 330 399 476
#
# _framework density 21.970473999999999
#
# number of rings (size 3 to 8) (size 9 to 14) (size 15 to 20)
#    0.000    0.286    5.714    1.714   12.000    0.571 
#    0.000    0.000    0.000    0.000    0.000    0.000 
#    0.000    0.000    0.000    0.000    0.000    0.000 
#
# Total GULP energy -312575.941937 kJ/mol
# GULP energy per Si atom -5581.713249 kJ/mol
# Density = 2.192047 g / cm^3
# Si number density = 21.970474 Si / 1000 Ang^3
#
#
#
# Elastic Constant Matrix: (Units=GPa)
#
#
# Indices 1 2 3 4 5 6 
#
# 1 131.0409 61.1742 83.0585 0.0000 0.0000 0.0000
# 2 61.1742 131.0429 83.0583 0.0000 0.0000 0.0000
# 3 83.0585 83.0583 156.0758 0.0000 0.0000 0.0000
# 4 0.0000 0.0000 0.0000 5.3456 0.0000 0.0000
# 5 0.0000 0.0000 0.0000 0.0000 5.3301 0.0000
# 6 0.0000 0.0000 0.0000 0.0000 0.0000 45.9921
#
#
#
# Elastic Compliance Matrix: (Units=1/GPa)
#
#
# Indices 1 2 3 4 5 6 
#
# 1 0.011973 -0.002340 -0.005126 0.000000 0.000000 0.000000
# 2 -0.002340 0.011973 -0.005126 0.000000 0.000000 0.000000
# 3 -0.005126 -0.005126 0.011863 0.000000 0.000000 0.000000
# 4 0.000000 0.000000 0.000000 0.187069 0.000000 0.000000
# 5 0.000000 0.000000 0.000000 0.000000 0.187615 0.000000
# 6 0.000000 0.000000 0.000000 0.000000 0.000000 0.021743
#
#
# Mechanical properties :
#
#
# Convention : Reuss Voigt Hill
#
# Bulk Modulus (GPa) = 94.12943 96.97128 95.55035
# Shear Modulus (GPa) = 10.84690 24.05813 17.45251
#
# Velocity S-wave (km/s) = 2.22435 3.31270 2.82150
# Velocity P-wave (km/s) = 7.03801 7.67235 7.36201
#
# Compressibility (1/GPa) = 0.01062367
#
# Stress axis : x y z
#
# Youngs Moduli (GPa) = 83.52250 83.52461 84.29524
#
# Poissons Ratio (x) = 0.19545 0.43212
# Poissons Ratio (y) = 0.19545 0.43210
# Poissons Ratio (z) = 0.42816 0.42815
#
# Static dielectric constant tensor:
#      x y z
#    x 1.857170 0.000000 0.000000 
#    y 0.000000 1.857170 0.000000 
#    z 0.000000 0.000000 1.805240 
# 
# From -- ./inp_files/11077.got.cif
#   From: 2010.05.17/outbox.cif.g08.bks.cpg/sg142_6_cif.got.tgz:11077.got - 2010.05.20 13:39:18.
