data_PCOD9574219
_publ_section_title
;
Structure prediction by ZEFSAII (Michael W. Deem and Ramdas Pophale) SiO2 
 PCOD9574219
Probable space group: I 41/A C D
;
_chemical_formula_sum "Si O2"
_cell_formula_units_Z 136
_cell_length_a 21.720945
_cell_length_b 21.720945
_cell_length_c 13.716374
_cell_angle_alpha 90.000000
_cell_angle_beta 90.000000
_cell_angle_gamma 90.000000
_cell_volume 6471.377732
_symmetry_space_group_name_H-M "I 41/A C D"
_symmetry_group_IT_number 142
_space_group.IT_coordinate_system_code '2'
_symmetry_cell_setting 'tetragonal'
loop_
_space_group_symop_operation_xyz
x,y,z
1/4-y,3/4+x,1/4+z
-x,1/2-y,z
1/4+y,1/4-x,3/4+z
x,-y,1/2-z
1/2-x,y,-z
3/4+y,1/4+x,1/4-z
1/4-y,1/4-x,1/4-z
-x,-y,-z
3/4+y,1/4-x,3/4-z
x,1/2+y,-z
3/4-y,3/4+x,1/4-z
-x,y,1/2+z
1/2+x,-y,z
1/4-y,3/4-x,3/4+z
3/4+y,3/4+x,3/4+z
1/2+x,1/2+y,1/2+z
3/4-y,1/4+x,3/4+z
1/2-x,-y,1/2+z
3/4+y,3/4-x,1/4+z
1/2+x,1/2-y,-z
-x,1/2+y,1/2-z
1/4+y,3/4+x,3/4-z
3/4-y,3/4-x,3/4-z
1/2-x,1/2-y,1/2-z
1/4+y,3/4-x,1/4-z
1/2+x,y,1/2-z
1/4-y,1/4+x,3/4-z
1/2-x,1/2+y,z
x,1/2-y,1/2+z
3/4-y,1/4-x,1/4+z
1/4+y,1/4+x,1/4+z
loop_
_atom_site_type_symbol
_atom_site_label
_atom_site_fract_x
_atom_site_fract_y
_atom_site_fract_z
Si Si1 0.000000 0.750000 0.875000
Si Si2 0.626828 0.245369 0.993402
Si Si3 0.234460 0.084523 0.390401
Si Si4 0.045090 0.454944 0.058745
Si Si5 0.127003 0.351660 0.354764
O O1 0.998250 0.689022 0.809443
O O2 0.625518 0.190705 0.073917
O O3 0.632732 0.308779 0.051638
O O4 0.678109 0.231602 0.910413
O O5 0.250000 0.103909 0.500000
O O6 0.261244 0.139914 0.326422
O O7 0.161697 0.081222 0.380063
O O8 0.271689 0.021689 0.375000
O O9 0.062218 0.398614 0.988256
O O10 0.000000 0.500000 0.000000
#
# Coordination Sequence:
#
# PCOD9574219 Si02
#       5
#     8  32  32  32  32
#     4  12  24  42  72 108 154 184 244 302 372 448
#     4  12  25  46  71 109 146 191 245 305 379 451
#     4  12  24  49  74 100 141 197 251 297 374 448
#     4  12  26  46  72 106 145 200 245 307 377 455
#     4  12  25  47  77 104 144 197 245 311 379 452
#
# _framework density 21.015616999999999
#
# number of rings (size 3 to 8) (size 9 to 14) (size 15 to 20)
#    0.000    0.000    7.059    2.824    3.294    0.000 
#    4.235    0.000    0.000    0.000    0.000    0.000 
#    0.000    0.000    0.000    0.000    0.000    0.000 
#
# Total GULP energy -380423.890191 kJ/mol
# GULP energy per Si atom -5594.468973 kJ/mol
# Density = 2.096778 g / cm^3
# Si number density = 21.015617 Si / 1000 Ang^3
#
#
#
# Elastic Constant Matrix: (Units=GPa)
#
#
# Indices 1 2 3 4 5 6 
#
# 1 136.8573 62.6135 58.8457 0.0000 0.0000 0.0000
# 2 62.6135 136.8573 58.8457 0.0000 0.0000 0.0000
# 3 58.8457 58.8457 109.8312 0.0000 0.0000 0.0000
# 4 0.0000 0.0000 0.0000 37.6959 0.0000 0.0000
# 5 0.0000 0.0000 0.0000 0.0000 37.6959 0.0000
# 6 0.0000 0.0000 0.0000 0.0000 0.0000 33.2448
#
#
#
# Elastic Compliance Matrix: (Units=1/GPa)
#
#
# Indices 1 2 3 4 5 6 
#
# 1 0.010400 -0.003069 -0.003928 0.000000 0.000000 0.000000
# 2 -0.003069 0.010400 -0.003928 0.000000 0.000000 0.000000
# 3 -0.003928 -0.003928 0.013314 0.000000 0.000000 0.000000
# 4 0.000000 0.000000 0.000000 0.026528 0.000000 0.000000
# 5 0.000000 0.000000 0.000000 0.000000 0.026528 0.000000
# 6 0.000000 0.000000 0.000000 0.000000 0.000000 0.030080
#
#
# Mechanical properties :
#
#
# Convention : Reuss Voigt Hill
#
# Bulk Modulus (GPa) = 81.53719 82.68399 82.11059
# Shear Modulus (GPa) = 34.91948 35.27672 35.09810
#
# Velocity S-wave (km/s) = 4.08069 4.10151 4.09111
# Velocity P-wave (km/s) = 7.81571 7.86507 7.84043
#
# Compressibility (1/GPa) = 0.01226434
#
# Stress axis : x y z
#
# Youngs Moduli (GPa) = 96.15483 96.15483 75.11113
#
# Poissons Ratio (x) = 0.29512 0.29501
# Poissons Ratio (y) = 0.29512 0.29501
# Poissons Ratio (z) = 0.37766 0.37766
#
# Static dielectric constant tensor:
#      x y z
#    x 1.904610 0.000000 0.000000 
#    y 0.000000 1.904610 0.000000 
#    z 0.000000 0.000000 1.756470 
# 
# From -- ./inp_files/5154.got.cif
#   From: 2010.05.17/outbox.cif.g08.bks.cpg/sg142_3_cif.got.tgz:5154.got - 2010.05.20 13:39:18.
