data_PCOD9574479
_publ_section_title
;
Structure prediction by ZEFSAII (Michael W. Deem and Ramdas Pophale) SiO2 
 PCOD9574479
Probable space group: P 31
;
_chemical_formula_sum "Si O2"
_cell_formula_units_Z 24
_cell_length_a 8.540803
_cell_length_b 8.540803
_cell_length_c 15.374248
_cell_angle_alpha 90.000000
_cell_angle_beta 90.000000
_cell_angle_gamma 120.000000
_cell_volume 971.229630
_symmetry_space_group_name_H-M "P 31"
_symmetry_group_IT_number 144
_symmetry_cell_setting 'hexagonal'
loop_
_space_group_symop_operation_xyz
x,y,z
-y,x-y,1/3+z
-x+y,-x,2/3+z
loop_
_atom_site_type_symbol
_atom_site_label
_atom_site_fract_x
_atom_site_fract_y
_atom_site_fract_z
Si Si1 0.774170 0.234569 0.627310
Si Si2 0.593331 0.783123 0.913659
Si Si3 0.948122 0.610504 0.408906
Si Si4 0.810481 0.936477 0.731324
Si Si5 0.825551 0.250279 0.340849
Si Si6 0.220006 0.442736 0.883643
Si Si7 0.038768 0.617636 0.806042
Si Si8 0.197059 0.957014 0.726953
O O1 0.712891 0.388842 0.626524
O O2 0.986620 0.337765 0.609886
O O3 0.767067 0.092532 0.701567
O O4 0.666573 0.095898 0.551101
O O5 0.702321 0.868023 0.823206
O O6 0.377674 0.645959 0.906091
O O7 0.632803 0.931240 0.988874
O O8 0.903701 0.408026 0.411733
O O9 0.770854 0.623758 0.402920
O O10 0.036905 0.697052 0.500020
O O11 0.758504 0.769773 0.661044
O O12 0.025387 0.992592 0.740027
O O13 0.685051 0.064158 0.386610
O O14 0.103585 0.474630 0.811119
O O15 0.109641 0.327637 0.965390
O O16 0.195464 0.823803 0.800690
#
# Coordination Sequence:
#
# PCOD9574479 Si02
#       8
#     3   3   3   3   3   3   3   3
#     4  12  24  46  76 104 149 201 252 318 384 473
#     4  12  25  48  72 107 150 196 251 319 392 468
#     4  12  26  44  76 108 146 195 252 308 390 470
#     4  11  25  47  73 105 149 198 248 318 390 464
#     4  11  25  48  70 109 148 192 255 317 387 464
#     4  12  26  46  75 106 150 195 252 319 385 475
#     4  11  26  48  71 107 153 194 251 318 391 460
#     4  11  25  45  73 108 145 195 255 307 393 462
#
# _framework density 24.710940999999998
#
# number of rings (size 3 to 8) (size 9 to 14) (size 15 to 20)
#    0.000    0.500    5.000    3.750    5.250    3.000 
#    0.000    0.000    0.000    0.000    0.000    0.000 
#    0.000    0.000    0.000    0.000    0.000    0.000 
#
# Total GULP energy -133743.199279 kJ/mol
# GULP energy per Si atom -5572.633303 kJ/mol
# Density = 2.465470 g / cm^3
# Si number density = 24.710941 Si / 1000 Ang^3
#
#
#
# Elastic Constant Matrix: (Units=GPa)
#
#
# Indices 1 2 3 4 5 6 
#
# 1 52.3812 14.4951 8.9020 -4.0762 1.4627 0.0000
# 2 14.4951 52.3812 8.9020 4.0762 -1.4627 0.0000
# 3 8.9020 8.9020 57.3848 0.0000 0.0000 0.0000
# 4 -4.0762 4.0762 0.0000 35.7037 0.0000 -1.4627
# 5 1.4627 -1.4627 0.0000 0.0000 35.7037 -4.0762
# 6 0.0000 0.0000 0.0000 -1.4627 -4.0762 18.9431
#
#
#
# Elastic Compliance Matrix: (Units=1/GPa)
#
#
# Indices 1 2 3 4 5 6 
#
# 1 0.021372 -0.005775 -0.002420 0.003099 -0.001112 0.000000
# 2 -0.005775 0.021372 -0.002420 -0.003099 0.001112 0.000000
# 3 -0.002420 -0.002420 0.018177 0.000000 0.000000 0.000000
# 4 0.003099 -0.003099 0.000000 0.028807 0.000000 0.002224
# 5 -0.001112 0.001112 0.000000 0.000000 0.028807 0.006199
# 6 0.000000 0.000000 0.000000 0.002224 0.006199 0.054295
#
#
# Mechanical properties :
#
#
# Convention : Reuss Voigt Hill
#
# Bulk Modulus (GPa) = 25.19340 25.19393 25.19366
# Shear Modulus (GPa) = 24.12067 26.72665 25.42366
#
# Velocity S-wave (km/s) = 3.12767 3.29229 3.21104
# Velocity P-wave (km/s) = 4.82291 4.96688 4.89542
#
# Compressibility (1/GPa) = 0.03969294
#
# Stress axis : x y z
#
# Youngs Moduli (GPa) = 46.78931 46.78931 55.01494
#
# Poissons Ratio (x) = 0.27022 0.13311
# Poissons Ratio (y) = 0.27022 0.13311
# Poissons Ratio (z) = 0.11321 0.11321
#
# Static dielectric constant tensor:
#      x y z
#    x 2.053130 0.000000 0.000000 
#    y 0.000000 2.053130 0.000000 
#    z 0.000000 0.000000 1.961820 
# 
# From -- ./inp_files/853.got.cif
#   From: 2010.05.17/outbox.cif.g08.bks.cpg/sg144_cif.got.tgz:853.got - 2010.05.20 13:46:34.
