data_PCOD9574983
_publ_section_title
;
Structure prediction by ZEFSAII (Michael W. Deem and Ramdas Pophale) SiO2 
 PCOD9574983
Probable space group: P -3
;
_chemical_formula_sum "Si O2"
_cell_formula_units_Z 26
_cell_length_a 10.716797
_cell_length_b 10.716797
_cell_length_c 11.037309
_cell_angle_alpha 90.000000
_cell_angle_beta 90.000000
_cell_angle_gamma 120.000000
_cell_volume 1097.801555
_symmetry_space_group_name_H-M "P -3"
_symmetry_group_IT_number 147
_symmetry_cell_setting 'hexagonal'
loop_
_space_group_symop_operation_xyz
x,y,z
-y,x-y,z
-x+y,-x,z
-x,-y,-z
y,-x+y,-z
x-y,x,-z
loop_
_atom_site_type_symbol
_atom_site_label
_atom_site_fract_x
_atom_site_fract_y
_atom_site_fract_z
Si Si1 0.162431 0.523274 0.134020
Si Si2 0.971720 0.234693 0.031957
Si Si3 0.983369 0.467244 0.357687
Si Si4 0.141036 0.332540 0.725166
Si Si5 0.000000 0.000000 0.643647
O O1 0.310841 0.522780 0.109687
O O2 0.038294 0.403920 0.053073
O O3 0.119245 0.492682 0.275305
O O4 0.844834 0.168489 0.132820
O O5 0.112367 0.222832 0.069406
O O6 0.937693 0.576554 0.299333
O O7 0.872623 0.298144 0.337326
O O8 0.000000 0.500000 0.500000
O O9 0.060655 0.166973 0.681238
O O10 0.000000 0.000000 0.500000
#
# Coordination Sequence:
#
# PCOD9574983 Si02
#       5
#     6   6   6   6   2
#     4   9  24  43  66  98 139 177 236 294 349 432
#     4  11  24  44  70  96 135 189 233 295 356 420
#     4  11  25  43  74 101 148 188 233 296 374 436
#     4  11  26  45  70 107 143 188 251 297 357 457
#     4  12  24  39  73 107 145 183 243 306 370 425
#
# _framework density 23.683696999999999
#
# number of rings (size 3 to 8) (size 9 to 14) (size 15 to 20)
#    0.462    0.923    0.000    3.462   12.923    0.923 
#    4.154    0.000    0.000    0.000    0.000    0.000 
#    0.000    0.000    0.000    0.000    0.000    0.000 
#
# Total GULP energy -144990.609475 kJ/mol
# GULP energy per Si atom -5576.561903 kJ/mol
# Density = 2.362979 g / cm^3
# Si number density = 23.683697 Si / 1000 Ang^3
#
#
#
# Elastic Constant Matrix: (Units=GPa)
#
#
# Indices 1 2 3 4 5 6 
#
# 1 129.0509 40.2800 26.1421 -15.7037 -3.6853 0.0000
# 2 40.2800 129.0509 26.1421 15.7037 3.6853 0.0000
# 3 26.1421 26.1421 94.0403 0.0000 0.0000 0.0000
# 4 -15.7037 15.7037 0.0000 34.7322 0.0000 3.6853
# 5 -3.6853 3.6853 0.0000 0.0000 34.7322 -15.7037
# 6 0.0000 0.0000 0.0000 3.6853 -15.7037 44.3855
#
#
#
# Elastic Compliance Matrix: (Units=1/GPa)
#
#
# Indices 1 2 3 4 5 6 
#
# 1 0.010006 -0.003546 -0.001796 0.006127 0.001438 0.000000
# 2 -0.003546 0.010006 -0.001796 -0.006127 -0.001438 0.000000
# 3 -0.001796 -0.001796 0.011632 0.000000 0.000000 0.000000
# 4 0.006127 -0.006127 0.000000 0.034638 0.000000 -0.002876
# 5 0.001438 -0.001438 0.000000 0.000000 0.034638 0.012255
# 6 0.000000 0.000000 0.000000 -0.002876 0.012255 0.027105
#
#
# Mechanical properties :
#
#
# Convention : Reuss Voigt Hill
#
# Bulk Modulus (GPa) = 57.57367 59.69670 58.63519
# Shear Modulus (GPa) = 33.76329 40.07519 36.91924
#
# Velocity S-wave (km/s) = 3.77980 4.11798 3.95251
# Velocity P-wave (km/s) = 6.58873 6.91888 6.75582
#
# Compressibility (1/GPa) = 0.01736905
#
# Stress axis : x y z
#
# Youngs Moduli (GPa) = 99.93822 99.93822 85.96845
#
# Poissons Ratio (x) = 0.35439 0.15438
# Poissons Ratio (y) = 0.35439 0.15438
# Poissons Ratio (z) = 0.17947 0.17947
#
# Static dielectric constant tensor:
#      x y z
#    x 2.208040 0.000000 0.000000 
#    y 0.000000 2.208040 0.000000 
#    z 0.000000 0.000000 1.947830 
# 
# From -- ./inp_files/798.got.cif
#   From: 2010.05.17/outbox.cif.g08.bks.cpg/sg147_cif.got.tgz:798.got - 2010.05.20 13:49:32.
