data_PCOD9574000
_publ_section_title
;
Structure prediction by ZEFSAII (Michael W. Deem and Ramdas Pophale) SiO2 
 PCOD9574000
Probable space group: I 41/A C D
;
_chemical_formula_sum "Si O2"
_cell_formula_units_Z 112
_cell_length_a 14.395349
_cell_length_b 14.395349
_cell_length_c 21.852528
_cell_angle_alpha 90.000000
_cell_angle_beta 90.000000
_cell_angle_gamma 90.000000
_cell_volume 4528.413559
_symmetry_space_group_name_H-M "I 41/A C D"
_symmetry_group_IT_number 142
_space_group.IT_coordinate_system_code '2'
_symmetry_cell_setting 'tetragonal'
loop_
_space_group_symop_operation_xyz
x,y,z
1/4-y,3/4+x,1/4+z
-x,1/2-y,z
1/4+y,1/4-x,3/4+z
x,-y,1/2-z
1/2-x,y,-z
3/4+y,1/4+x,1/4-z
1/4-y,1/4-x,1/4-z
-x,-y,-z
3/4+y,1/4-x,3/4-z
x,1/2+y,-z
3/4-y,3/4+x,1/4-z
-x,y,1/2+z
1/2+x,-y,z
1/4-y,3/4-x,3/4+z
3/4+y,3/4+x,3/4+z
1/2+x,1/2+y,1/2+z
3/4-y,1/4+x,3/4+z
1/2-x,-y,1/2+z
3/4+y,3/4-x,1/4+z
1/2+x,1/2-y,-z
-x,1/2+y,1/2-z
1/4+y,3/4+x,3/4-z
3/4-y,3/4-x,3/4-z
1/2-x,1/2-y,1/2-z
1/4+y,3/4-x,1/4-z
1/2+x,y,1/2-z
1/4-y,1/4+x,3/4-z
1/2-x,1/2+y,z
x,1/2-y,1/2+z
3/4-y,1/4-x,1/4+z
1/4+y,1/4+x,1/4+z
loop_
_atom_site_type_symbol
_atom_site_label
_atom_site_fract_x
_atom_site_fract_y
_atom_site_fract_z
Si Si1 0.238660 0.808133 0.603858
Si Si2 0.434382 0.337753 0.697713
Si Si3 0.429731 0.947239 0.045512
Si Si4 0.250000 0.056341 0.000000
O O1 0.177124 0.745975 0.559380
O O2 0.156403 0.844034 0.651992
O O3 0.298516 0.733198 0.640936
O O4 0.285496 0.883597 0.559026
O O5 0.500000 0.250000 0.684842
O O6 0.402605 0.329865 0.766923
O O7 0.500000 0.000000 0.000000
O O8 0.331567 0.998048 0.033083
#
# Coordination Sequence:
#
# PCOD9574000 Si02
#       4
#    32  32  32  16
#     4  11  20  42  70 100 143 192 239 299 375 448
#     4  11  19  40  73  99 140 187 240 294 373 453
#     4  10  24  41  68 109 139 185 246 307 368 442
#     4  12  24  44  74 108 146 194 252 308 374 464
#
# _framework density 24.732723
#
# number of rings (size 3 to 8) (size 9 to 14) (size 15 to 20)
#    0.000    1.143    5.714    1.714    0.000    5.714 
#    0.000    4.286    0.000    6.857    0.000    0.000 
#    0.000    0.000    0.000    0.000    0.000    0.000 
#
# Total GULP energy -312568.101378 kJ/mol
# GULP energy per Si atom -5581.573239 kJ/mol
# Density = 2.467643 g / cm^3
# Si number density = 24.732723 Si / 1000 Ang^3
#
#
#
# Elastic Constant Matrix: (Units=GPa)
#
#
# Indices 1 2 3 4 5 6 
#
# 1 51.9579 11.6609 38.0694 0.0000 0.0000 0.0000
# 2 11.6609 51.9579 38.0694 0.0000 0.0000 0.0000
# 3 38.0694 38.0694 113.7259 0.0000 0.0000 0.0000
# 4 0.0000 0.0000 0.0000 39.2096 0.0000 0.0000
# 5 0.0000 0.0000 0.0000 0.0000 39.2096 0.0000
# 6 0.0000 0.0000 0.0000 0.0000 0.0000 -5.3343
#
#
#
# Elastic Compliance Matrix: (Units=1/GPa)
#
#
# Indices 1 2 3 4 5 6 
#
# 1 0.025520 0.000705 -0.008779 0.000000 0.000000 0.000000
# 2 0.000705 0.025520 -0.008779 0.000000 0.000000 0.000000
# 3 -0.008779 -0.008779 0.014670 0.000000 0.000000 0.000000
# 4 0.000000 0.000000 0.000000 0.025504 0.000000 0.000000
# 5 0.000000 0.000000 0.000000 0.000000 0.025504 0.000000
# 6 0.000000 0.000000 0.000000 0.000000 0.000000 -0.187466
#
#
# Mechanical properties :
#
#
# Convention : Reuss Voigt Hill
#
# Bulk Modulus (GPa) = 31.24470 43.69345 37.46907
# Shear Modulus (GPa) = -189.58821 23.27310 -83.15756
#
# Velocity S-wave (km/s) = -8.76477 3.07087 -5.80478
# Velocity P-wave (km/s) = 9.47459 5.50257 5.45388
#
# Compressibility (1/GPa) = 0.03200543
#
# Stress axis : x y z
#
# Youngs Moduli (GPa) = 39.18439 39.18439 68.16455
#
# Poissons Ratio (x) = -0.02761 0.59840
# Poissons Ratio (y) = -0.02761 0.59840
# Poissons Ratio (z) = 0.34399 0.34399
#
# Static dielectric constant tensor:
#      x y z
#    x 1.927880 0.000000 0.000000 
#    y 0.000000 1.927880 0.000000 
#    z 0.000000 0.000000 2.062090 
# 
# From -- ./inp_files/9735.got.cif
#   From: 2010.05.17/outbox.cif.g08.bks.cpg/sg142_5_cif.got.tgz:9735.got - 2010.05.20 13:39:18.
