data_PCOD9574256
_publ_section_title
;
Structure prediction by ZEFSAII (Michael W. Deem and Ramdas Pophale) SiO2 
 PCOD9574256
Probable space group: I 41/A C D
;
_chemical_formula_sum "Si O2"
_cell_formula_units_Z 84
_cell_length_a 21.000000
_cell_length_b 21.000000
_cell_length_c 21.000000
_cell_angle_alpha 90.000000
_cell_angle_beta 90.000000
_cell_angle_gamma 90.000000
_cell_volume 9261.000000
_symmetry_space_group_name_H-M "I 41/A C D"
_symmetry_group_IT_number 142
_space_group.IT_coordinate_system_code '2'
_symmetry_cell_setting 'tetragonal'
loop_
_space_group_symop_operation_xyz
x,y,z
1/4-y,3/4+x,1/4+z
-x,1/2-y,z
1/4+y,1/4-x,3/4+z
x,-y,1/2-z
1/2-x,y,-z
3/4+y,1/4+x,1/4-z
1/4-y,1/4-x,1/4-z
-x,-y,-z
3/4+y,1/4-x,3/4-z
x,1/2+y,-z
3/4-y,3/4+x,1/4-z
-x,y,1/2+z
1/2+x,-y,z
1/4-y,3/4-x,3/4+z
3/4+y,3/4+x,3/4+z
1/2+x,1/2+y,1/2+z
3/4-y,1/4+x,3/4+z
1/2-x,-y,1/2+z
3/4+y,3/4-x,1/4+z
1/2+x,1/2-y,-z
-x,1/2+y,1/2-z
1/4+y,3/4+x,3/4-z
3/4-y,3/4-x,3/4-z
1/2-x,1/2-y,1/2-z
1/4+y,3/4-x,1/4-z
1/2+x,y,1/2-z
1/4-y,1/4+x,3/4-z
1/2-x,1/2+y,z
x,1/2-y,1/2+z
3/4-y,1/4-x,1/4+z
1/4+y,1/4+x,1/4+z
loop_
_atom_site_type_symbol
_atom_site_label
_atom_site_fract_x
_atom_site_fract_y
_atom_site_fract_z
Si Si1 0.816413 0.167961 0.962086
Si Si2 0.000000 0.250000 0.125000
Si Si3 0.744140 0.269369 0.350985
Si Si4 0.791377 0.651319 0.729778
Si Si5 0.170257 0.564404 0.796904
Si Si6 0.866085 0.723848 0.446617
O O1 0.793199 0.188267 0.891921
O O2 0.861580 0.105978 0.967145
O O3 0.750000 0.155216 0.000000
O O4 0.850114 0.229850 0.993875
O O5 0.935785 0.257339 0.081466
O O6 0.779405 0.208206 0.320790
O O7 0.710915 0.312388 0.297202
O O8 0.688137 0.242991 0.395684
O O9 0.730025 0.605000 0.728517
O O10 0.165601 0.500000 0.750000
O O11 0.187245 0.562756 0.875000
O O12 0.101962 0.602202 0.791599
#
# Coordination Sequence:
#
# PCOD9574256 Si02
#       6
#    32   8  32  32  32  32
#     4  10  23  40  63  91 126 169 214 273 336 400
#     4  12  20  36  68  96 130 176 240 264 334 420
#     4  10  22  41  62  86 132 167 216 272 341 405
#     4  11  23  40  62  95 124 172 221 275 338 410
#     4  12  25  42  69 100 139 178 230 291 356 417
#     4  11  22  42  64  95 130 178 220 282 338 411
#
# _framework density 9.0702949999999998
#
# number of rings (size 3 to 8) (size 9 to 14) (size 15 to 20)
#    0.000    1.143    2.857    3.429    2.667    3.810 
#    0.000    0.000    0.000    0.000    0.000    0.000 
#    0.000    0.000    0.000    0.000    0.000    0.000 
#
# Total GULP energy -468487.677265 kJ/mol
# GULP energy per Si atom -5577.234253 kJ/mol
# Density = 0.904965 g / cm^3
# Si number density = 9.070295 Si / 1000 Ang^3
#
#
#
# Elastic Constant Matrix: (Units=GPa)
#
#
# Indices 1 2 3 4 5 6 
#
# 1 135.4424 62.7538 42.8261 0.0000 0.0000 0.0000
# 2 62.7538 135.4425 42.8260 0.0000 0.0000 0.0000
# 3 42.8261 42.8260 81.7917 0.0000 0.0000 0.0000
# 4 0.0000 0.0000 0.0000 30.2382 0.0000 0.0000
# 5 0.0000 0.0000 0.0000 0.0000 30.2382 0.0000
# 6 0.0000 0.0000 0.0000 0.0000 0.0000 41.4945
#
#
#
# Elastic Compliance Matrix: (Units=1/GPa)
#
#
# Indices 1 2 3 4 5 6 
#
# 1 0.010139 -0.003618 -0.003414 0.000000 0.000000 0.000000
# 2 -0.003618 0.010139 -0.003414 0.000000 0.000000 0.000000
# 3 -0.003414 -0.003414 0.015802 0.000000 0.000000 0.000000
# 4 0.000000 0.000000 0.000000 0.033071 0.000000 0.000000
# 5 0.000000 0.000000 0.000000 0.000000 0.033071 0.000000
# 6 0.000000 0.000000 0.000000 0.000000 0.000000 0.024100
#
#
# Mechanical properties :
#
#
# Convention : Reuss Voigt Hill
#
# Bulk Modulus (GPa) = 65.84925 72.16537 69.00731
# Shear Modulus (GPa) = 32.83485 34.01224 33.42355
#
# Velocity S-wave (km/s) = 4.25905 4.33474 4.29706
# Velocity P-wave (km/s) = 7.78230 8.05734 7.92102
#
# Compressibility (1/GPa) = 0.01518620
#
# Stress axis : x y z
#
# Youngs Moduli (GPa) = 98.62703 98.62726 63.28407
#
# Poissons Ratio (x) = 0.35685 0.21608
# Poissons Ratio (y) = 0.35684 0.21608
# Poissons Ratio (z) = 0.33676 0.33675
#
# Static dielectric constant tensor:
#      x y z
#    x 1.611330 0.000000 0.000000 
#    y 0.000000 1.611330 0.000000 
#    z 0.000000 0.000000 1.671420 
# 
# From -- ./inp_files/9092.got.cif
#   From: 2010.05.17/outbox.ucp.g08.bks.cvg/sg142_5_cif.got.tgz:9092.got - 2010.06.11 11:43:53.
