data_PCOD9574823
_publ_section_title
;
Structure prediction by ZEFSAII (Michael W. Deem and Ramdas Pophale) SiO2 
 PCOD9574823
Probable space group: R 3
;
_chemical_formula_sum "Si O2"
_cell_formula_units_Z 45
_cell_length_a 19.848967
_cell_length_b 19.848967
_cell_length_c 6.980080
_cell_angle_alpha 90.000000
_cell_angle_beta 90.000000
_cell_angle_gamma 120.000000
_cell_volume 2381.589195
_symmetry_space_group_name_H-M "R 3"
_symmetry_group_IT_number 146
_symmetry_cell_setting 'hexagonal'
loop_
_space_group_symop_operation_xyz
x,y,z
-y,x-y,z
-x+y,-x,z
2/3+x,1/3+y,1/3+z
2/3-y,1/3+x-y,1/3+z
2/3-x+y,1/3-x,1/3+z
1/3+x,2/3+y,2/3+z
1/3-y,2/3+x-y,2/3+z
1/3-x+y,2/3-x,2/3+z
loop_
_atom_site_type_symbol
_atom_site_label
_atom_site_fract_x
_atom_site_fract_y
_atom_site_fract_z
Si Si1 0.310608 0.130511 0.169150
Si Si2 0.452847 0.897337 0.178732
Si Si3 0.405544 0.352892 0.679272
Si Si4 0.565620 0.273354 0.158468
Si Si5 0.111964 0.488518 0.777321
O O1 0.286086 0.188847 0.262813
O O2 0.366450 0.120857 0.321391
O O3 0.238104 0.048120 0.115743
O O4 0.363147 0.171777 0.983553
O O5 0.531487 0.900116 0.111892
O O6 0.399321 0.820313 0.302944
O O7 0.409003 0.900663 0.990849
O O8 0.347510 0.306293 0.504582
O O9 0.632842 0.249838 0.163406
O O10 0.507984 0.234028 0.335880
#
# Coordination Sequence:
#
# PCOD9574823 Si02
#       5
#     9   9   9   9   9
#     4  11  27  43  67  99 134 178 223 276 322 411
#     4  11  25  43  68  99 132 172 221 272 339 387
#     4  12  24  44  70  99 133 171 228 282 335 387
#     4   9  24  43  63  98 133 164 218 272 322 396
#     4  11  26  43  66  97 134 179 220 266 336 391
#
# _framework density 18.894946999999998
#
# number of rings (size 3 to 8) (size 9 to 14) (size 15 to 20)
#    0.400    0.800    4.000    0.000    8.400    3.200 
#    0.000    0.000    0.000    0.000    0.000    0.000 
#    0.000    0.000    0.000    0.000    0.000    0.000 
#
# Total GULP energy -83819.727065 kJ/mol
# GULP energy per Si atom -5587.981804 kJ/mol
# Density = 1.885194 g / cm^3
# Si number density = 18.894947 Si / 1000 Ang^3
#
#
#
# Elastic Constant Matrix: (Units=GPa)
#
#
# Indices 1 2 3 4 5 6 
#
# 1 100.2426 54.7685 51.8542 -1.8634 0.9215 0.0016
# 2 54.7685 100.2514 51.8669 1.8617 -0.9262 -0.0014
# 3 51.8542 51.8669 138.7746 -0.0036 -0.0038 -0.0031
# 4 -1.8634 1.8617 -0.0036 22.5481 -0.0031 -0.9294
# 5 0.9215 -0.9262 -0.0038 -0.0031 22.5443 -1.8661
# 6 0.0016 -0.0014 -0.0031 -0.9294 -1.8661 22.7347
#
#
#
# Elastic Compliance Matrix: (Units=1/GPa)
#
#
# Indices 1 2 3 4 5 6 
#
# 1 0.015388 -0.006787 -0.003213 0.001831 -0.000908 -0.000002
# 2 -0.006787 0.015389 -0.003216 -0.001832 0.000909 0.000001
# 3 -0.003213 -0.003216 0.009608 0.000002 0.000001 0.000001
# 4 0.001831 -0.001832 0.000002 0.044728 0.000007 0.001829
# 5 -0.000908 0.000909 0.000001 0.000007 0.044736 0.003672
# 6 -0.000002 0.000001 0.000001 0.001829 0.003672 0.044362
#
#
# Mechanical properties :
#
#
# Convention : Reuss Voigt Hill
#
# Bulk Modulus (GPa) = 71.66400 72.91641 72.29021
# Shear Modulus (GPa) = 24.35536 25.61735 24.98635
#
# Velocity S-wave (km/s) = 3.59414 3.68608 3.64040
# Velocity P-wave (km/s) = 7.43194 7.53595 7.48412
#
# Compressibility (1/GPa) = 0.01395401
#
# Stress axis : x y z
#
# Youngs Moduli (GPa) = 64.98363 64.98287 104.07464
#
# Poissons Ratio (x) = 0.44102 0.33444
# Poissons Ratio (y) = 0.44103 0.33466
# Poissons Ratio (z) = 0.20882 0.20896
#
# Static dielectric constant tensor:
#      x y z
#    x 1.636590 0.000000 0.000000 
#    y 0.000000 1.636590 0.000000 
#    z 0.000000 0.000000 1.622270 
# 
# From -- ./inp_files/232.got.cif
#   From: 2010.05.17/outbox.cif.g08.bks.cpg/sg146_cif.got.tgz:232.got - 2010.05.20 13:48:23.
