data_PCOD9574896
_publ_section_title
;
Structure prediction by ZEFSAII (Michael W. Deem and Ramdas Pophale) SiO2 
 PCOD9574896
Probable space group: P -3
;
_chemical_formula_sum "Si O2"
_cell_formula_units_Z 24
_cell_length_a 13.924433
_cell_length_b 13.924433
_cell_length_c 8.941734
_cell_angle_alpha 90.000000
_cell_angle_beta 90.000000
_cell_angle_gamma 120.000000
_cell_volume 1501.438050
_symmetry_space_group_name_H-M "P -3"
_symmetry_group_IT_number 147
_symmetry_cell_setting 'hexagonal'
loop_
_space_group_symop_operation_xyz
x,y,z
-y,x-y,z
-x+y,-x,z
-x,-y,-z
y,-x+y,-z
x-y,x,-z
loop_
_atom_site_type_symbol
_atom_site_label
_atom_site_fract_x
_atom_site_fract_y
_atom_site_fract_z
Si Si1 0.668957 0.539778 0.928242
Si Si2 0.129178 0.668957 0.428242
Si Si3 0.870822 0.539779 0.071758
Si Si4 0.870822 0.539778 0.428242
O O1 0.671700 0.526544 0.750000
O O2 0.627475 0.627475 0.957764
O O3 0.786135 0.572270 0.000000
O O4 0.575804 0.424195 1.000000
O O5 0.151610 0.575805 0.500000
O O6 0.213865 0.786135 0.500000
O O7 0.000000 0.627475 0.457764
O O8 0.854844 0.526544 0.250000
#
# Coordination Sequence:
#
# PCOD9574896 Si02
#       4
#     6   6   6   6
#     4  10  20  33  50  72  98 128 160 196 238 283
#     4  10  20  33  50  72  98 128 160 196 238 283
#     4  10  20  33  50  72  98 128 160 196 238 283
#     4  10  20  33  50  72  98 128 160 196 238 283
#
# _framework density 15.984674999999999
#
# number of rings (size 3 to 8) (size 9 to 14) (size 15 to 20)
#    0.000    2.000    0.000    4.000    0.000    6.000 
#    0.000    0.000    0.000    1.000    0.000    0.000 
#    0.000    0.000    0.000    0.000    0.000    0.000 
#
# Total GULP energy -134000.004461 kJ/mol
# GULP energy per Si atom -5583.333519 kJ/mol
# Density = 1.594829 g / cm^3
# Si number density = 15.984675 Si / 1000 Ang^3
#
#
#
# Elastic Constant Matrix: (Units=GPa)
#
#
# Indices 1 2 3 4 5 6 
#
# 1 100.3988 64.4918 67.3006 0.0000 0.0001 0.0000
# 2 64.4918 100.3988 67.3006 0.0000 -0.0001 0.0000
# 3 67.3006 67.3006 92.1843 0.0000 0.0000 0.0000
# 4 0.0000 0.0000 0.0000 31.1272 0.0000 -0.0001
# 5 0.0001 -0.0001 0.0000 0.0000 31.1272 0.0000
# 6 0.0000 0.0000 0.0000 -0.0001 0.0000 17.9535
#
#
#
# Elastic Compliance Matrix: (Units=1/GPa)
#
#
# Indices 1 2 3 4 5 6 
#
# 1 0.021430 -0.006420 -0.010958 0.000000 0.000000 0.000000
# 2 -0.006420 0.021430 -0.010958 0.000000 0.000000 0.000000
# 3 -0.010958 -0.010958 0.026848 0.000000 0.000000 0.000000
# 4 0.000000 0.000000 0.000000 0.032126 0.000000 0.000000
# 5 0.000000 0.000000 0.000000 0.000000 0.032126 0.000000
# 6 0.000000 0.000000 0.000000 0.000000 0.000000 0.055699
#
#
# Mechanical properties :
#
#
# Convention : Reuss Voigt Hill
#
# Bulk Modulus (GPa) = 76.71531 76.79642 76.75587
# Shear Modulus (GPa) = 19.94594 22.30084 21.12339
#
# Velocity S-wave (km/s) = 3.53628 3.73921 3.63916
# Velocity P-wave (km/s) = 8.04804 8.17253 8.11052
#
# Compressibility (1/GPa) = 0.01303521
#
# Stress axis : x y z
#
# Youngs Moduli (GPa) = 46.66398 46.66398 37.24633
#
# Poissons Ratio (x) = 0.29958 0.40815
# Poissons Ratio (y) = 0.29958 0.40815
# Poissons Ratio (z) = 0.51135 0.51135
#
# Static dielectric constant tensor:
#      x y z
#    x 1.519770 0.000000 0.000000 
#    y 0.000000 1.519770 0.000000 
#    z 0.000000 0.000000 1.529160 
# 
# From -- ./inp_files/407.got.cif
#   From: 2010.05.17/outbox.cif.g08.bks.cpg/sg147_cif.got.tgz:407.got - 2010.05.20 13:49:32.
