data_PCOD9574211
_publ_section_title
;
Structure prediction by ZEFSAII (Michael W. Deem and Ramdas Pophale) SiO2 
 PCOD9574211
Probable space group: I 41/A C D
;
_chemical_formula_sum "Si O2"
_cell_formula_units_Z 112
_cell_length_a 15.266763
_cell_length_b 15.266763
_cell_length_c 20.367759
_cell_angle_alpha 90.000000
_cell_angle_beta 90.000000
_cell_angle_gamma 90.000000
_cell_volume 4747.196130
_symmetry_space_group_name_H-M "I 41/A C D"
_symmetry_group_IT_number 142
_space_group.IT_coordinate_system_code '2'
_symmetry_cell_setting 'tetragonal'
loop_
_space_group_symop_operation_xyz
x,y,z
1/4-y,3/4+x,1/4+z
-x,1/2-y,z
1/4+y,1/4-x,3/4+z
x,-y,1/2-z
1/2-x,y,-z
3/4+y,1/4+x,1/4-z
1/4-y,1/4-x,1/4-z
-x,-y,-z
3/4+y,1/4-x,3/4-z
x,1/2+y,-z
3/4-y,3/4+x,1/4-z
-x,y,1/2+z
1/2+x,-y,z
1/4-y,3/4-x,3/4+z
3/4+y,3/4+x,3/4+z
1/2+x,1/2+y,1/2+z
3/4-y,1/4+x,3/4+z
1/2-x,-y,1/2+z
3/4+y,3/4-x,1/4+z
1/2+x,1/2-y,-z
-x,1/2+y,1/2-z
1/4+y,3/4+x,3/4-z
3/4-y,3/4-x,3/4-z
1/2-x,1/2-y,1/2-z
1/4+y,3/4-x,1/4-z
1/2+x,y,1/2-z
1/4-y,1/4+x,3/4-z
1/2-x,1/2+y,z
x,1/2-y,1/2+z
3/4-y,1/4-x,1/4+z
1/4+y,1/4+x,1/4+z
loop_
_atom_site_type_symbol
_atom_site_label
_atom_site_fract_x
_atom_site_fract_y
_atom_site_fract_z
Si Si1 0.216824 0.801742 0.606251
Si Si2 0.437226 0.333480 0.706644
Si Si3 0.393605 0.947836 0.066113
Si Si4 0.250000 0.067072 0.000000
O O1 0.169246 0.745064 0.550096
O O2 0.135907 0.838710 0.649377
O O3 0.263908 0.732780 0.653746
O O4 0.267331 0.875538 0.565649
O O5 0.500000 0.250000 0.698973
O O6 0.386850 0.331013 0.774512
O O7 0.330138 0.919863 0.125000
O O8 0.336057 0.010966 0.019162
#
# Coordination Sequence:
#
# PCOD9574211 Si02
#       4
#    32  32  32  16
#     4  12  23  46  73 108 152 206 258 322 399 476
#     4  12  23  47  75 106 154 204 259 320 394 479
#     4  12  27  46  72 114 152 199 266 330 393 484
#     4  12  26  46  76 106 156 206 254 326 408 472
#
# _framework density 23.592873999999998
#
# number of rings (size 3 to 8) (size 9 to 14) (size 15 to 20)
#    0.000    0.000    5.714    4.286    0.000    0.571 
#    0.000    2.857    0.000    0.000    0.000    0.000 
#    0.000    0.000    0.000    0.000    0.000    0.000 
#
# Total GULP energy -313704.007738 kJ/mol
# GULP energy per Si atom -5601.857281 kJ/mol
# Density = 2.353918 g / cm^3
# Si number density = 23.592874 Si / 1000 Ang^3
#
#
#
# Elastic Constant Matrix: (Units=GPa)
#
#
# Indices 1 2 3 4 5 6 
#
# 1 80.5297 30.2666 69.7230 0.0000 0.0000 0.0000
# 2 30.2666 80.5284 69.7225 0.0000 0.0000 0.0000
# 3 69.7230 69.7225 119.9913 0.0000 0.0000 0.0000
# 4 0.0000 0.0000 0.0000 14.7193 0.0000 0.0000
# 5 0.0000 0.0000 0.0000 0.0000 14.7423 0.0000
# 6 0.0000 0.0000 0.0000 0.0000 0.0000 12.8843
#
#
#
# Elastic Compliance Matrix: (Units=1/GPa)
#
#
# Indices 1 2 3 4 5 6 
#
# 1 0.026744 0.006848 -0.019519 0.000000 0.000000 0.000000
# 2 0.006848 0.026744 -0.019519 0.000000 0.000000 0.000000
# 3 -0.019519 -0.019519 0.031018 0.000000 0.000000 0.000000
# 4 0.000000 0.000000 0.000000 0.067938 0.000000 0.000000
# 5 0.000000 0.000000 0.000000 0.000000 0.067832 0.000000
# 6 0.000000 0.000000 0.000000 0.000000 0.000000 0.077614
#
#
# Mechanical properties :
#
#
# Convention : Reuss Voigt Hill
#
# Bulk Modulus (GPa) = 49.68883 68.94152 59.31518
# Shear Modulus (GPa) = 13.55092 15.89166 14.72129
#
# Velocity S-wave (km/s) = 2.39919 2.59816 2.50065
# Velocity P-wave (km/s) = 5.36484 6.18751 5.79080
#
# Compressibility (1/GPa) = 0.02012525
#
# Stress axis : x y z
#
# Youngs Moduli (GPa) = 37.39208 37.39133 32.23947
#
# Poissons Ratio (x) = -0.25607 0.62929
# Poissons Ratio (y) = -0.25607 0.62930
# Poissons Ratio (z) = 0.72986 0.72986
#
# Static dielectric constant tensor:
#      x y z
#    x 1.912400 0.000000 0.000000 
#    y 0.000000 1.912400 0.000000 
#    z 0.000000 0.000000 1.882700 
# 
# From -- ./inp_files/9737.got.cif
#   From: 2010.05.17/outbox.cif.g08.bks.cpg/sg142_5_cif.got.tgz:9737.got - 2010.05.20 13:39:18.
