data_PCOD9574299
_publ_section_title
;
Structure prediction by ZEFSAII (Michael W. Deem and Ramdas Pophale) SiO2 
 PCOD9574299
Probable space group: P 31
;
_chemical_formula_sum "Si O2"
_cell_formula_units_Z 24
_cell_length_a 10.173492
_cell_length_b 10.173492
_cell_length_c 13.381532
_cell_angle_alpha 90.000000
_cell_angle_beta 90.000000
_cell_angle_gamma 120.000000
_cell_volume 1199.434577
_symmetry_space_group_name_H-M "P 31"
_symmetry_group_IT_number 144
_symmetry_cell_setting 'hexagonal'
loop_
_space_group_symop_operation_xyz
x,y,z
-y,x-y,1/3+z
-x+y,-x,2/3+z
loop_
_atom_site_type_symbol
_atom_site_label
_atom_site_fract_x
_atom_site_fract_y
_atom_site_fract_z
Si Si1 0.404104 0.668511 0.325390
Si Si2 0.063759 0.204142 0.366655
Si Si3 0.480082 0.922179 0.470068
Si Si4 0.240102 0.167988 0.192205
Si Si5 0.528952 0.139054 0.184235
Si Si6 0.502731 0.548014 0.662010
Si Si7 0.778430 0.330229 0.730529
Si Si8 0.597299 0.989478 0.786464
O O1 0.476457 0.835491 0.369236
O O2 0.445374 0.639719 0.215471
O O3 0.224909 0.604496 0.324936
O O4 0.436169 0.562316 0.400241
O O5 0.124949 0.139731 0.280759
O O6 0.020392 0.326455 0.322301
O O7 0.209989 0.299989 0.439693
O O8 0.921483 0.076006 0.426175
O O9 0.650324 0.989490 0.512802
O O10 0.452783 0.061806 0.452355
O O11 0.358691 0.107557 0.207528
O O12 0.614925 0.295875 0.124921
O O13 0.599297 0.174987 0.293796
O O14 0.521560 0.017838 0.105000
O O15 0.454534 0.436506 0.566703
O O16 0.682760 0.148877 0.727118
#
# Coordination Sequence:
#
# PCOD9574299 Si02
#       8
#     3   3   3   3   3   3   3   3
#     4  11  21  39  63  89 125 169 210 266 329 387
#     4  10  20  37  65  82 122 164 206 254 324 388
#     4  11  23  39  62  92 124 164 218 270 324 388
#     4  10  19  40  58  84 115 168 199 255 321 384
#     4  10  21  37  60  90 123 161 207 259 330 377
#     4  10  21  35  63  90 117 163 211 260 312 388
#     4  11  22  38  64  88 130 163 208 270 324 396
#     4  11  19  39  63  91 122 166 217 250 328 390
#
# _framework density 20.009429000000001
#
# number of rings (size 3 to 8) (size 9 to 14) (size 15 to 20)
#    0.000    1.500    5.000    1.500    1.750    1.000 
#    2.250    0.000   11.000    0.000    0.000    0.000 
#    0.000    0.000    0.000    0.000    0.000    0.000 
#
# Total GULP energy -133898.371974 kJ/mol
# GULP energy per Si atom -5579.098832 kJ/mol
# Density = 1.996389 g / cm^3
# Si number density = 20.009429 Si / 1000 Ang^3
#
#
#
# Elastic Constant Matrix: (Units=GPa)
#
#
# Indices 1 2 3 4 5 6 
#
# 1 41.2229 12.9442 14.9753 -4.3271 0.0151 0.0000
# 2 12.9442 41.2229 14.9753 4.3271 -0.0151 0.0000
# 3 14.9753 14.9753 93.9457 0.0000 0.0000 0.0000
# 4 -4.3271 4.3271 0.0000 36.1939 0.0000 -0.0151
# 5 0.0151 -0.0151 0.0000 0.0000 36.1939 -4.3271
# 6 0.0000 0.0000 0.0000 -0.0151 -4.3271 14.1393
#
#
#
# Elastic Compliance Matrix: (Units=1/GPa)
#
#
# Indices 1 2 3 4 5 6 
#
# 1 0.028476 -0.008230 -0.003227 0.004388 -0.000015 0.000000
# 2 -0.008230 0.028476 -0.003227 -0.004388 0.000015 0.000000
# 3 -0.003227 -0.003227 0.011673 0.000000 0.000000 0.000000
# 4 0.004388 -0.004388 0.000000 0.028678 0.000000 0.000031
# 5 -0.000015 0.000015 0.000000 0.000000 0.028678 0.008776
# 6 0.000000 0.000000 0.000000 0.000031 0.008776 0.073411
#
#
# Mechanical properties :
#
#
# Convention : Reuss Voigt Hill
#
# Bulk Modulus (GPa) = 25.47384 29.13124 27.30254
# Shear Modulus (GPa) = 20.67435 26.20519 23.43977
#
# Velocity S-wave (km/s) = 3.21788 3.62282 3.42634
# Velocity P-wave (km/s) = 5.15411 5.66482 5.41549
#
# Compressibility (1/GPa) = 0.03925595
#
# Stress axis : x y z
#
# Youngs Moduli (GPa) = 35.11778 35.11778 85.66539
#
# Poissons Ratio (x) = 0.28901 0.27647
# Poissons Ratio (y) = 0.28901 0.27647
# Poissons Ratio (z) = 0.11333 0.11333
#
# Static dielectric constant tensor:
#      x y z
#    x 1.709250 0.000000 0.000000 
#    y 0.000000 1.709250 0.000000 
#    z 0.000000 0.000000 1.786510 
# 
# From -- ./inp_files/676.got.cif
#   From: 2010.05.17/outbox.cif.g08.bks.cpg/sg144_cif.got.tgz:676.got - 2010.05.20 13:46:34.
