data_PCOD9574493
_publ_section_title
;
Structure prediction by ZEFSAII (Michael W. Deem and Ramdas Pophale) SiO2 
 PCOD9574493
Probable space group: P 31
;
_chemical_formula_sum "Si O2"
_cell_formula_units_Z 18
_cell_length_a 8.765747
_cell_length_b 8.765747
_cell_length_c 12.607718
_cell_angle_alpha 90.000000
_cell_angle_beta 90.000000
_cell_angle_gamma 120.000000
_cell_volume 838.967199
_symmetry_space_group_name_H-M "P 31"
_symmetry_group_IT_number 144
_symmetry_cell_setting 'hexagonal'
loop_
_space_group_symop_operation_xyz
x,y,z
-y,x-y,1/3+z
-x+y,-x,2/3+z
loop_
_atom_site_type_symbol
_atom_site_label
_atom_site_fract_x
_atom_site_fract_y
_atom_site_fract_z
Si Si1 0.609486 0.880795 0.339200
Si Si2 0.687340 0.400857 0.301912
Si Si3 0.893978 0.176841 0.681154
Si Si4 0.772689 0.156493 0.181155
Si Si5 0.057180 0.452538 0.839200
Si Si6 0.953150 0.020674 0.468578
O O1 0.543406 0.697360 0.280661
O O2 0.512713 0.876740 0.447328
O O3 0.812257 0.980575 0.375952
O O4 0.605747 0.998751 0.242039
O O5 0.487111 0.253813 0.334791
O O6 0.801906 0.317893 0.256741
O O7 0.789739 0.526812 0.399645
O O8 0.647242 0.501651 0.209286
O O9 0.060920 0.334583 0.742039
O O10 0.929594 0.123072 0.566312
O O11 0.864760 0.015441 0.756741
O O12 0.920479 0.100036 0.168124
#
# Coordination Sequence:
#
# PCOD9574493 Si02
#       6
#     3   3   3   3   3   3
#     4  12  25  47  68 102 144 182 234 295 353 420
#     4  12  25  44  74 102 134 185 231 288 355 424
#     4  12  24  43  72 100 136 181 233 283 352 420
#     4  12  24  43  72 100 136 181 233 283 352 420
#     4  12  25  47  68 102 144 182 234 295 353 420
#     4  12  25  44  74 102 134 185 231 288 355 424
#
# _framework density 21.454951999999999
#
# number of rings (size 3 to 8) (size 9 to 14) (size 15 to 20)
#    0.000    0.000   10.000    0.000    0.000    0.000 
#    6.000    0.000    0.000    0.000    0.000    0.000 
#    0.000    0.000    0.000    0.000    0.000    0.000 
#
# Total GULP energy -100329.008022 kJ/mol
# GULP energy per Si atom -5573.833779 kJ/mol
# Density = 2.140612 g / cm^3
# Si number density = 21.454952 Si / 1000 Ang^3
#
#
#
# Elastic Constant Matrix: (Units=GPa)
#
#
# Indices 1 2 3 4 5 6 
#
# 1 49.1308 0.2715 23.8226 0.0000 0.0000 0.0000
# 2 0.2715 49.1308 23.8226 0.0000 0.0000 0.0000
# 3 23.8226 23.8226 125.2237 0.0000 0.0000 0.0000
# 4 0.0000 0.0000 0.0000 46.5088 0.0000 0.0000
# 5 0.0000 0.0000 0.0000 0.0000 46.5088 0.0000
# 6 0.0000 0.0000 0.0000 0.0000 0.0000 24.4296
#
#
#
# Elastic Compliance Matrix: (Units=1/GPa)
#
#
# Indices 1 2 3 4 5 6 
#
# 1 0.022629 0.002162 -0.004716 0.000000 0.000000 0.000000
# 2 0.002162 0.022629 -0.004716 0.000000 0.000000 0.000000
# 3 -0.004716 -0.004716 0.009780 0.000000 0.000000 0.000000
# 4 0.000000 0.000000 0.000000 0.021501 0.000000 0.000000
# 5 0.000000 0.000000 0.000000 0.000000 0.021501 0.000000
# 6 0.000000 0.000000 0.000000 0.000000 0.000000 0.040934
#
#
# Mechanical properties :
#
#
# Convention : Reuss Voigt Hill
#
# Bulk Modulus (GPa) = 24.69361 35.47984 30.08673
# Shear Modulus (GPa) = 29.93766 35.19403 32.56584
#
# Velocity S-wave (km/s) = 3.73952 4.05454 3.90021
# Velocity P-wave (km/s) = 5.49362 6.20418 5.85968
#
# Compressibility (1/GPa) = 0.04049631
#
# Stress axis : x y z
#
# Youngs Moduli (GPa) = 44.19178 44.19178 102.24843
#
# Poissons Ratio (x) = -0.09553 0.48222
# Poissons Ratio (y) = -0.09553 0.48222
# Poissons Ratio (z) = 0.20841 0.20841
#
# Static dielectric constant tensor:
#      x y z
#    x 1.856380 0.000000 0.000000 
#    y 0.000000 1.856380 0.000000 
#    z 0.000000 0.000000 1.806700 
# 
# From -- ./inp_files/497.got.cif
#   From: 2010.05.17/outbox.cif.g08.bks.cpg/sg144_cif.got.tgz:497.got - 2010.05.20 13:46:34.
