data_PCOD9574068
_publ_section_title
;
Structure prediction by ZEFSAII (Michael W. Deem and Ramdas Pophale) SiO2 
 PCOD9574068
Probable space group: I 41/A C D
;
_chemical_formula_sum "Si O2"
_cell_formula_units_Z 96
_cell_length_a 22.202456
_cell_length_b 22.202456
_cell_length_c 9.536685
_cell_angle_alpha 90.000000
_cell_angle_beta 90.000000
_cell_angle_gamma 90.000000
_cell_volume 4701.099834
_symmetry_space_group_name_H-M "I 41/A C D"
_symmetry_group_IT_number 142
_space_group.IT_coordinate_system_code '2'
_symmetry_cell_setting 'tetragonal'
loop_
_space_group_symop_operation_xyz
x,y,z
1/4-y,3/4+x,1/4+z
-x,1/2-y,z
1/4+y,1/4-x,3/4+z
x,-y,1/2-z
1/2-x,y,-z
3/4+y,1/4+x,1/4-z
1/4-y,1/4-x,1/4-z
-x,-y,-z
3/4+y,1/4-x,3/4-z
x,1/2+y,-z
3/4-y,3/4+x,1/4-z
-x,y,1/2+z
1/2+x,-y,z
1/4-y,3/4-x,3/4+z
3/4+y,3/4+x,3/4+z
1/2+x,1/2+y,1/2+z
3/4-y,1/4+x,3/4+z
1/2-x,-y,1/2+z
3/4+y,3/4-x,1/4+z
1/2+x,1/2-y,-z
-x,1/2+y,1/2-z
1/4+y,3/4+x,3/4-z
3/4-y,3/4-x,3/4-z
1/2-x,1/2-y,1/2-z
1/4+y,3/4-x,1/4-z
1/2+x,y,1/2-z
1/4-y,1/4+x,3/4-z
1/2-x,1/2+y,z
x,1/2-y,1/2+z
3/4-y,1/4-x,1/4+z
1/4+y,1/4+x,1/4+z
loop_
_atom_site_type_symbol
_atom_site_label
_atom_site_fract_x
_atom_site_fract_y
_atom_site_fract_z
Si Si1 0.540409 0.821213 0.284859
Si Si2 0.148956 0.503371 0.400853
Si Si3 0.813238 0.868169 0.075477
O O1 0.572984 0.776329 0.397048
O O2 0.571326 0.885883 0.285904
O O3 0.546419 0.796419 0.125000
O O4 0.117824 0.500000 0.250000
O O5 0.212409 0.537592 0.375000
O O6 0.162279 0.436011 0.452592
O O7 0.115621 0.545331 0.510973
O O8 0.750000 0.859352 0.000000
#
# Coordination Sequence:
#
# PCOD9574068 Si02
#       3
#    32  32  32
#     4  11  25  45  67  89 118 166 216 261 317 387
#     4   9  18  31  55  90 127 168 207 250 312 376
#     4  11  20  37  62  92 127 162 205 260 318 376
#
# _framework density 20.420753000000001
#
# number of rings (size 3 to 8) (size 9 to 14) (size 15 to 20)
#    0.000    1.667    0.000    8.000    0.000    8.000 
#    0.000   11.667    0.000    0.000    0.000    0.000 
#    0.000    0.000    0.000    0.000    0.000    0.000 
#
# Total GULP energy -267836.579331 kJ/mol
# GULP energy per Si atom -5579.928736 kJ/mol
# Density = 2.037427 g / cm^3
# Si number density = 20.420753 Si / 1000 Ang^3
#
#
#
# Elastic Constant Matrix: (Units=GPa)
#
#
# Indices 1 2 3 4 5 6 
#
# 1 50.6478 62.2976 22.5385 0.0000 0.0000 0.0000
# 2 62.2976 50.6485 22.5363 0.0000 0.0000 0.0000
# 3 22.5385 22.5363 151.0298 0.0000 0.0000 0.0000
# 4 0.0000 0.0000 0.0000 2.8184 0.0000 0.0000
# 5 0.0000 0.0000 0.0000 0.0000 2.8264 0.0000
# 6 0.0000 0.0000 0.0000 0.0000 0.0000 28.8652
#
#
#
# Elastic Compliance Matrix: (Units=1/GPa)
#
#
# Indices 1 2 3 4 5 6 
#
# 1 -0.038214 0.047628 -0.001404 0.000000 0.000000 0.000000
# 2 0.047628 -0.038213 -0.001406 0.000000 0.000000 0.000000
# 3 -0.001404 -0.001406 0.007040 0.000000 0.000000 0.000000
# 4 0.000000 0.000000 0.000000 0.354812 0.000000 0.000000
# 5 0.000000 0.000000 0.000000 0.000000 0.353807 0.000000
# 6 0.000000 0.000000 0.000000 0.000000 0.000000 0.034644
#
#
# Mechanical properties :
#
#
# Convention : Reuss Voigt Hill
#
# Bulk Modulus (GPa) = 49.38285 51.89676 50.63981
# Shear Modulus (GPa) = 8.46037 16.56558 12.51298
#
# Velocity S-wave (km/s) = 2.03765 2.85127 2.47808
# Velocity P-wave (km/s) = 5.45630 6.02566 5.74803
#
# Compressibility (1/GPa) = 0.02024994
#
# Stress axis : x y z
#
# Youngs Moduli (GPa) = -26.16854 -26.16928 142.03550
#
# Poissons Ratio (x) = 1.24638 0.19944
# Poissons Ratio (y) = 1.24635 0.19964
# Poissons Ratio (z) = -0.03675 -0.03678
#
# Static dielectric constant tensor:
#      x y z
#    x 1.718900 0.000000 0.000000 
#    y 0.000000 1.718900 0.000000 
#    z 0.000000 0.000000 1.314560 
# 
# From -- ./inp_files/1621.got.cif
#   From: 2010.05.17/outbox.cif.g08.bks.cpg/sg142_1_cif.got.tgz:1621.got - 2010.05.20 13:39:18.
