data_PCOD9574325
_publ_section_title
;
Structure prediction by ZEFSAII (Michael W. Deem and Ramdas Pophale) SiO2 
 PCOD9574325
Probable space group: P 31
;
_chemical_formula_sum "Si O2"
_cell_formula_units_Z 24
_cell_length_a 14.978170
_cell_length_b 14.978170
_cell_length_c 5.575109
_cell_angle_alpha 90.000000
_cell_angle_beta 90.000000
_cell_angle_gamma 120.000000
_cell_volume 1083.182177
_symmetry_space_group_name_H-M "P 31"
_symmetry_group_IT_number 144
_symmetry_cell_setting 'hexagonal'
loop_
_space_group_symop_operation_xyz
x,y,z
-y,x-y,1/3+z
-x+y,-x,2/3+z
loop_
_atom_site_type_symbol
_atom_site_label
_atom_site_fract_x
_atom_site_fract_y
_atom_site_fract_z
Si Si1 0.670587 0.060110 0.843930
Si Si2 0.991418 0.154872 0.297306
Si Si3 0.446280 0.537644 0.244847
Si Si4 0.322751 0.928998 0.927849
Si Si5 0.286881 0.725199 0.067535
Si Si6 0.943080 0.820823 0.120083
Si Si7 0.922096 0.448823 0.508741
Si Si8 0.564910 0.286794 0.394515
O O1 0.764515 0.039681 0.840612
O O2 0.704373 0.167980 0.711753
O O3 0.565537 0.966076 0.741799
O O4 0.631935 0.083165 0.092849
O O5 0.040838 0.276464 0.246245
O O6 0.079407 0.128829 0.374739
O O7 0.922345 0.126321 0.542776
O O8 0.938916 0.099446 0.041852
O O9 0.532924 0.644306 0.362459
O O10 0.345127 0.546123 0.201614
O O11 0.507051 0.514777 0.045358
O O12 0.290911 0.832765 0.106705
O O13 0.432026 0.029475 0.989290
O O14 0.395528 0.745471 0.962026
O O15 0.810368 0.358134 0.574364
O O16 0.604145 0.264265 0.642963
#
# Coordination Sequence:
#
# PCOD9574325 Si02
#       8
#     3   3   3   3   3   3   3   3
#     4  11  25  40  67 102 136 184 234 294 351 438
#     4  12  27  51  76 109 142 191 244 311 367 443
#     4  10  22  40  63  99 139 179 231 291 352 427
#     4  10  24  40  66 100 135 179 238 289 356 426
#     4  10  20  40  64  93 130 174 222 281 358 422
#     4  12  28  50  79 106 145 190 246 305 378 429
#     4  11  23  40  64  97 139 181 229 289 349 429
#     4  12  23  39  61  92 134 176 222 274 347 418
#
# _framework density 22.156935000000001
#
# number of rings (size 3 to 8) (size 9 to 14) (size 15 to 20)
#    0.000    1.000    2.500    3.750    5.250    1.000 
#    2.250    0.000    0.000    0.000    0.000    0.000 
#    0.000    0.000    0.000    0.000    0.000    0.000 
#
# Total GULP energy -133850.890326 kJ/mol
# GULP energy per Si atom -5577.120430 kJ/mol
# Density = 2.210651 g / cm^3
# Si number density = 22.156935 Si / 1000 Ang^3
#
#
#
# Elastic Constant Matrix: (Units=GPa)
#
#
# Indices 1 2 3 4 5 6 
#
# 1 135.2942 48.5042 41.0931 0.4039 -1.2829 0.0000
# 2 48.5042 135.2942 41.0931 -0.4039 1.2829 0.0000
# 3 41.0931 41.0931 84.5698 0.0000 0.0000 0.0000
# 4 0.4039 -0.4039 0.0000 19.5090 0.0000 1.2829
# 5 -1.2829 1.2829 0.0000 0.0000 19.5090 0.4039
# 6 0.0000 0.0000 0.0000 1.2829 0.4039 43.3950
#
#
#
# Elastic Compliance Matrix: (Units=1/GPa)
#
#
# Indices 1 2 3 4 5 6 
#
# 1 0.009249 -0.002298 -0.003378 -0.000239 0.000759 0.000000
# 2 -0.002298 0.009249 -0.003378 0.000239 -0.000759 0.000000
# 3 -0.003378 -0.003378 0.015107 0.000000 0.000000 0.000000
# 4 -0.000239 0.000239 0.000000 0.051368 0.000000 -0.001519
# 5 0.000759 -0.000759 0.000000 0.000000 0.051368 -0.000478
# 6 0.000000 0.000000 0.000000 -0.001519 -0.000478 0.023093
#
#
# Mechanical properties :
#
#
# Convention : Reuss Voigt Hill
#
# Bulk Modulus (GPa) = 64.52137 68.50434 66.51286
# Shear Modulus (GPa) = 27.36628 31.44712 29.40670
#
# Velocity S-wave (km/s) = 3.51823 3.77143 3.64703
# Velocity P-wave (km/s) = 6.75924 7.06752 6.91510
#
# Compressibility (1/GPa) = 0.01549874
#
# Stress axis : x y z
#
# Youngs Moduli (GPa) = 108.12111 108.12111 66.19485
#
# Poissons Ratio (x) = 0.24845 0.22358
# Poissons Ratio (y) = 0.24845 0.22358
# Poissons Ratio (z) = 0.36519 0.36519
#
# Static dielectric constant tensor:
#      x y z
#    x 1.831160 0.000000 0.000000 
#    y 0.000000 1.831160 0.000000 
#    z 0.000000 0.000000 1.966380 
# 
# From -- ./inp_files/159.got.cif
#   From: 2010.05.17/outbox.cif.g08.bks.cpg/sg144_cif.got.tgz:159.got - 2010.05.20 13:46:34.
