data_PCOD9574981
_publ_section_title
;
Structure prediction by ZEFSAII (Michael W. Deem and Ramdas Pophale) SiO2 
 PCOD9574981
Probable space group: P -3
;
_chemical_formula_sum "Si O2"
_cell_formula_units_Z 28
_cell_length_a 14.632542
_cell_length_b 14.632542
_cell_length_c 8.690578
_cell_angle_alpha 90.000000
_cell_angle_beta 90.000000
_cell_angle_gamma 120.000000
_cell_volume 1611.457486
_symmetry_space_group_name_H-M "P -3"
_symmetry_group_IT_number 147
_symmetry_cell_setting 'hexagonal'
loop_
_space_group_symop_operation_xyz
x,y,z
-y,x-y,z
-x+y,-x,z
-x,-y,-z
y,-x+y,-z
x-y,x,-z
loop_
_atom_site_type_symbol
_atom_site_label
_atom_site_fract_x
_atom_site_fract_y
_atom_site_fract_z
Si Si1 0.389969 0.403767 0.565391
Si Si2 0.243717 0.801912 0.934445
Si Si3 0.403767 0.013798 0.065390
Si Si4 0.243716 0.801911 0.565553
Si Si5 0.666667 0.333333 0.566515
Si Si6 0.333334 0.666668 0.066510
O O1 0.500000 0.500000 0.500000
O O2 0.398325 0.408340 0.750000
O O3 0.287869 0.413312 0.521787
O O4 0.375412 0.293553 0.504016
O O5 0.250448 0.807823 0.749999
O O6 0.125444 0.712132 0.978212
O O7 0.293553 0.918141 0.004014
O O8 0.318377 0.759739 0.000046
O O9 0.500000 0.000000 0.000000
O O10 0.318375 0.759737 0.499949
O O11 0.666668 0.333334 0.750003
#
# Coordination Sequence:
#
# PCOD9574981 Si02
#       6
#     6   6   6   6   2   2
#     4  11  23  37  58  84 114 153 191 233 287 340
#     4  11  23  38  56  82 118 152 190 237 283 337
#     4  11  23  37  58  84 114 153 191 233 287 340
#     4  11  23  38  56  82 118 152 190 237 283 337
#     4  12  22  32  55  84 115 155 193 228 280 344
#     4  12  22  32  55  84 115 155 193 228 280 344
#
# _framework density 17.375575000000001
#
# number of rings (size 3 to 8) (size 9 to 14) (size 15 to 20)
#    0.000    0.857    4.286    3.857    0.000    5.143 
#    0.000    0.000    0.000    0.857    0.000    0.000 
#    0.000    0.000    0.000    0.000    0.000    0.000 
#
# Total GULP energy -156407.103707 kJ/mol
# GULP energy per Si atom -5585.967990 kJ/mol
# Density = 1.733603 g / cm^3
# Si number density = 17.375575 Si / 1000 Ang^3
#
#
#
# Elastic Constant Matrix: (Units=GPa)
#
#
# Indices 1 2 3 4 5 6 
#
# 1 111.7263 38.6177 31.0170 -0.0004 -0.0002 -0.0007
# 2 38.6177 111.7261 31.0176 0.0004 0.0000 -0.0004
# 3 31.0170 31.0176 47.7466 0.0000 -0.0001 -0.0005
# 4 -0.0004 0.0004 0.0000 29.6553 -0.0001 -0.0002
# 5 -0.0002 0.0000 -0.0001 -0.0001 29.6553 -0.0003
# 6 -0.0007 -0.0004 -0.0005 -0.0002 -0.0003 36.5573
#
#
#
# Elastic Compliance Matrix: (Units=1/GPa)
#
#
# Indices 1 2 3 4 5 6 
#
# 1 0.011383 -0.002296 -0.005903 0.000000 0.000000 0.000000
# 2 -0.002296 0.011383 -0.005903 0.000000 0.000000 0.000000
# 3 -0.005903 -0.005903 0.028614 0.000000 0.000000 0.000000
# 4 0.000000 0.000000 0.000000 0.033721 0.000000 0.000000
# 5 0.000000 0.000000 0.000000 0.000000 0.033721 0.000000
# 6 0.000000 0.000000 0.000000 0.000000 0.000000 0.027354
#
#
# Mechanical properties :
#
#
# Convention : Reuss Voigt Hill
#
# Bulk Modulus (GPa) = 43.14985 52.50041 47.82513
# Shear Modulus (GPa) = 27.45682 30.54337 29.00010
#
# Velocity S-wave (km/s) = 3.97948 4.19720 4.08979
# Velocity P-wave (km/s) = 6.78252 7.33276 7.06300
#
# Compressibility (1/GPa) = 0.02317505
#
# Stress axis : x y z
#
# Youngs Moduli (GPa) = 87.85268 87.85179 34.94836
#
# Poissons Ratio (x) = 0.20167 0.20630
# Poissons Ratio (y) = 0.20167 0.20631
# Poissons Ratio (z) = 0.51861 0.51862
#
# Static dielectric constant tensor:
#      x y z
#    x 1.573140 0.000000 0.000000 
#    y 0.000000 1.573140 0.000000 
#    z 0.000000 0.000000 1.575520 
# 
# From -- ./inp_files/527.got.cif
#   From: 2010.05.17/outbox.cif.g08.bks.cpg/sg147_cif.got.tgz:527.got - 2010.05.20 13:49:32.
