data_PCOD9574111
_publ_section_title
;
Structure prediction by ZEFSAII (Michael W. Deem and Ramdas Pophale) SiO2 
 PCOD9574111
Probable space group: I 41/A C D
;
_chemical_formula_sum "Si O2"
_cell_formula_units_Z 128
_cell_length_a 20.419721
_cell_length_b 20.419721
_cell_length_c 15.091915
_cell_angle_alpha 90.000000
_cell_angle_beta 90.000000
_cell_angle_gamma 90.000000
_cell_volume 6292.800424
_symmetry_space_group_name_H-M "I 41/A C D"
_symmetry_group_IT_number 142
_space_group.IT_coordinate_system_code '2'
_symmetry_cell_setting 'tetragonal'
loop_
_space_group_symop_operation_xyz
x,y,z
1/4-y,3/4+x,1/4+z
-x,1/2-y,z
1/4+y,1/4-x,3/4+z
x,-y,1/2-z
1/2-x,y,-z
3/4+y,1/4+x,1/4-z
1/4-y,1/4-x,1/4-z
-x,-y,-z
3/4+y,1/4-x,3/4-z
x,1/2+y,-z
3/4-y,3/4+x,1/4-z
-x,y,1/2+z
1/2+x,-y,z
1/4-y,3/4-x,3/4+z
3/4+y,3/4+x,3/4+z
1/2+x,1/2+y,1/2+z
3/4-y,1/4+x,3/4+z
1/2-x,-y,1/2+z
3/4+y,3/4-x,1/4+z
1/2+x,1/2-y,-z
-x,1/2+y,1/2-z
1/4+y,3/4+x,3/4-z
3/4-y,3/4-x,3/4-z
1/2-x,1/2-y,1/2-z
1/4+y,3/4-x,1/4-z
1/2+x,y,1/2-z
1/4-y,1/4+x,3/4-z
1/2-x,1/2+y,z
x,1/2-y,1/2+z
3/4-y,1/4-x,1/4+z
1/4+y,1/4+x,1/4+z
loop_
_atom_site_type_symbol
_atom_site_label
_atom_site_fract_x
_atom_site_fract_y
_atom_site_fract_z
Si Si1 0.649480 0.173412 0.196129
Si Si2 0.430293 0.180293 0.875000
Si Si3 0.077044 0.327044 0.125000
Si Si4 0.073928 0.903003 0.055417
Si Si5 0.822265 0.485375 0.036921
O O1 0.617243 0.173968 0.292946
O O2 0.673374 0.248032 0.179968
O O3 0.596008 0.153694 0.123088
O O4 0.701261 0.114515 0.208139
O O5 0.503342 0.169812 0.837879
O O6 0.127127 0.332737 0.205193
O O7 0.126798 0.959612 0.067698
O O8 0.807384 0.442617 0.125000
O O9 0.750000 0.504961 0.000000
#
# Coordination Sequence:
#
# PCOD9574111 Si02
#       5
#    32  16  16  32  32
#     4  11  22  41  67  99 132 172 227 279 339 403
#     4   9  18  36  61  88 128 170 203 266 340 401
#     4   9  20  36  57  92 130 164 209 266 337 390
#     4  11  24  40  67 101 132 175 225 286 335 403
#     4  12  25  45  67  91 133 184 232 273 338 402
#
# _framework density 20.340706000000001
#
# number of rings (size 3 to 8) (size 9 to 14) (size 15 to 20)
#    0.000    1.250    3.750    2.250    1.750    2.500 
#    0.000    0.000    0.000    0.000    0.000    0.000 
#    0.000    0.000    0.000    0.000    0.000    0.000 
#
# Total GULP energy -356679.671914 kJ/mol
# GULP energy per Si atom -5573.119874 kJ/mol
# Density = 2.029441 g / cm^3
# Si number density = 20.340706 Si / 1000 Ang^3
#
#
#
# Elastic Constant Matrix: (Units=GPa)
#
#
# Indices 1 2 3 4 5 6 
#
# 1 92.2566 89.6650 24.9397 0.0000 0.0000 0.0000
# 2 89.6650 92.2575 24.9374 0.0000 0.0000 0.0000
# 3 24.9397 24.9374 57.9411 0.0000 0.0000 0.0000
# 4 0.0000 0.0000 0.0000 32.1693 0.0000 0.0000
# 5 0.0000 0.0000 0.0000 0.0000 32.1688 0.0000
# 6 0.0000 0.0000 0.0000 0.0000 0.0000 34.0129
#
#
#
# Elastic Compliance Matrix: (Units=1/GPa)
#
#
# Indices 1 2 3 4 5 6 
#
# 1 0.196016 -0.189780 -0.002692 0.000000 0.000000 0.000000
# 2 -0.189780 0.196009 -0.002673 0.000000 0.000000 0.000000
# 3 -0.002692 -0.002673 0.019568 0.000000 0.000000 0.000000
# 4 0.000000 0.000000 0.000000 0.031086 0.000000 0.000000
# 5 0.000000 0.000000 0.000000 0.000000 0.031086 0.000000
# 6 0.000000 0.000000 0.000000 0.000000 0.000000 0.029401
#
#
# Mechanical properties :
#
#
# Convention : Reuss Voigt Hill
#
# Bulk Modulus (GPa) = 46.94216 57.94881 52.44548
# Shear Modulus (GPa) = 5.55212 26.53108 16.04160
#
# Velocity S-wave (km/s) = 1.65393 3.61547 2.81133
# Velocity P-wave (km/s) = 5.17449 6.78084 6.03138
#
# Compressibility (1/GPa) = 0.02130281
#
# Stress axis : x y z
#
# Youngs Moduli (GPa) = 5.10162 5.10180 51.10377
#
# Poissons Ratio (x) = 0.96822 0.13755
# Poissons Ratio (y) = 0.96819 0.13662
# Poissons Ratio (z) = 0.01373 0.01364
#
# Static dielectric constant tensor:
#      x y z
#    x 1.780820 0.000000 0.000000 
#    y 0.000000 1.780810 0.000000 
#    z 0.000000 0.000000 1.703340 
# 
# From -- ./inp_files/5145.got.cif
#   From: 2010.05.17/outbox.cif.g08.bks.cpg/sg142_3_cif.got.tgz:5145.got - 2010.05.20 13:39:18.
