data_PCOD9574210
_publ_section_title
;
Structure prediction by ZEFSAII (Michael W. Deem and Ramdas Pophale) SiO2 
 PCOD9574210
Probable space group: I 41/A C D
;
_chemical_formula_sum "Si O2"
_cell_formula_units_Z 144
_cell_length_a 23.972357
_cell_length_b 23.972357
_cell_length_c 9.684564
_cell_angle_alpha 90.000000
_cell_angle_beta 90.000000
_cell_angle_gamma 90.000000
_cell_volume 5565.466165
_symmetry_space_group_name_H-M "I 41/A C D"
_symmetry_group_IT_number 142
_space_group.IT_coordinate_system_code '2'
_symmetry_cell_setting 'tetragonal'
loop_
_space_group_symop_operation_xyz
x,y,z
1/4-y,3/4+x,1/4+z
-x,1/2-y,z
1/4+y,1/4-x,3/4+z
x,-y,1/2-z
1/2-x,y,-z
3/4+y,1/4+x,1/4-z
1/4-y,1/4-x,1/4-z
-x,-y,-z
3/4+y,1/4-x,3/4-z
x,1/2+y,-z
3/4-y,3/4+x,1/4-z
-x,y,1/2+z
1/2+x,-y,z
1/4-y,3/4-x,3/4+z
3/4+y,3/4+x,3/4+z
1/2+x,1/2+y,1/2+z
3/4-y,1/4+x,3/4+z
1/2-x,-y,1/2+z
3/4+y,3/4-x,1/4+z
1/2+x,1/2-y,-z
-x,1/2+y,1/2-z
1/4+y,3/4+x,3/4-z
3/4-y,3/4-x,3/4-z
1/2-x,1/2-y,1/2-z
1/4+y,3/4-x,1/4-z
1/2+x,y,1/2-z
1/4-y,1/4+x,3/4-z
1/2-x,1/2+y,z
x,1/2-y,1/2+z
3/4-y,1/4-x,1/4+z
1/4+y,1/4+x,1/4+z
loop_
_atom_site_type_symbol
_atom_site_label
_atom_site_fract_x
_atom_site_fract_y
_atom_site_fract_z
Si Si1 0.690459 0.549283 0.972685
Si Si2 0.063029 0.538495 0.584703
Si Si3 0.918751 0.168751 0.625000
Si Si4 0.988248 0.906112 0.319350
Si Si5 0.316822 0.841945 0.828581
O O1 0.630607 0.536633 0.902587
O O2 0.709598 0.599054 0.868543
O O3 0.750000 0.517519 0.000000
O O4 0.676844 0.573157 0.125000
O O5 0.962183 0.418738 0.529378
O O6 0.034275 0.556204 0.730121
O O7 0.056474 0.479418 0.503154
O O8 0.980543 0.153172 0.673588
O O9 0.905554 0.122414 0.509873
O O10 0.936781 0.915379 0.219111
#
# Coordination Sequence:
#
# PCOD9574210 Si02
#       5
#    32  32  16  32  32
#     4  12  23  45  73 108 158 214 260 317 411 492
#     4  12  26  45  80 115 156 218 274 330 401 489
#     4  12  28  42  70 115 146 190 250 352 406 446
#     4  12  25  46  77 113 155 201 275 342 396 484
#     4  12  25  46  73 111 155 206 271 329 402 483
#
# _framework density 25.873842
#
# number of rings (size 3 to 8) (size 9 to 14) (size 15 to 20)
#    0.000    0.000    8.889    1.333    3.111    0.000 
#    2.000    0.000    0.000   10.000    0.000    0.000 
#    0.000    0.000    0.000    0.000    0.000    0.000 
#
# Total GULP energy -401175.736026 kJ/mol
# GULP energy per Si atom -5571.885223 kJ/mol
# Density = 2.581495 g / cm^3
# Si number density = 25.873842 Si / 1000 Ang^3
#
#
#
# Elastic Constant Matrix: (Units=GPa)
#
#
# Indices 1 2 3 4 5 6 
#
# 1 121.8071 -0.3860 -14.7888 0.0000 0.0000 0.0000
# 2 -0.3860 121.8092 -14.7878 0.0000 0.0000 0.0000
# 3 -14.7888 -14.7878 96.7620 0.0000 0.0000 0.0000
# 4 0.0000 0.0000 0.0000 15.8240 0.0000 0.0000
# 5 0.0000 0.0000 0.0000 0.0000 15.8208 0.0000
# 6 0.0000 0.0000 0.0000 0.0000 0.0000 100.7374
#
#
#
# Elastic Compliance Matrix: (Units=1/GPa)
#
#
# Indices 1 2 3 4 5 6 
#
# 1 0.008369 0.000185 0.001307 0.000000 0.000000 0.000000
# 2 0.000185 0.008369 0.001307 0.000000 0.000000 0.000000
# 3 0.001307 0.001307 0.010734 0.000000 0.000000 0.000000
# 4 0.000000 0.000000 0.000000 0.063195 0.000000 0.000000
# 5 0.000000 0.000000 0.000000 0.000000 0.063208 0.000000
# 6 0.000000 0.000000 0.000000 0.000000 0.000000 0.009927
#
#
# Mechanical properties :
#
#
# Convention : Reuss Voigt Hill
#
# Bulk Modulus (GPa) = 30.23706 31.16145 30.69925
# Shear Modulus (GPa) = 29.54624 51.16583 40.35604
#
# Velocity S-wave (km/s) = 3.38292 4.45175 3.95362
# Velocity P-wave (km/s) = 5.19332 6.20434 5.72121
#
# Compressibility (1/GPa) = 0.03307200
#
# Stress axis : x y z
#
# Youngs Moduli (GPa) = 119.48822 119.49062 93.15984
#
# Poissons Ratio (x) = -0.02213 -0.12180
# Poissons Ratio (y) = -0.02213 -0.12179
# Poissons Ratio (z) = -0.15622 -0.15621
#
# Static dielectric constant tensor:
#      x y z
#    x 2.201360 0.000000 0.000000 
#    y 0.000000 2.201360 0.000000 
#    z 0.000000 0.000000 2.028110 
# 
# From -- ./inp_files/3744.got.cif
#   From: 2010.05.17/outbox.cif.g08.bks.cpg/sg142_2_cif.got.tgz:3744.got - 2010.05.20 13:39:18.
