data_PCOD9574339
_publ_section_title
;
Structure prediction by ZEFSAII (Michael W. Deem and Ramdas Pophale) SiO2 
 PCOD9574339
Probable space group: P 31
;
_chemical_formula_sum "Si O2"
_cell_formula_units_Z 18
_cell_length_a 5.336925
_cell_length_b 5.336925
_cell_length_c 26.879286
_cell_angle_alpha 90.000000
_cell_angle_beta 90.000000
_cell_angle_gamma 120.000000
_cell_volume 663.026000
_symmetry_space_group_name_H-M "P 31"
_symmetry_group_IT_number 144
_symmetry_cell_setting 'hexagonal'
loop_
_space_group_symop_operation_xyz
x,y,z
-y,x-y,1/3+z
-x+y,-x,2/3+z
loop_
_atom_site_type_symbol
_atom_site_label
_atom_site_fract_x
_atom_site_fract_y
_atom_site_fract_z
Si Si1 0.912894 0.883120 0.529380
Si Si2 0.753775 0.303561 0.645740
Si Si3 0.579835 0.717132 0.626266
Si Si4 0.240807 0.904880 0.403619
Si Si5 0.086833 0.470630 0.548853
Si Si6 0.425861 0.997410 0.771501
O O1 0.011024 0.206850 0.512547
O O2 0.850566 0.891762 0.588080
O O3 0.138349 0.768593 0.525418
O O4 0.646098 0.655874 0.496430
O O5 0.655645 0.529161 0.662573
O O6 0.020570 0.343110 0.678690
O O7 0.816102 0.374531 0.587039
O O8 0.528319 0.963579 0.649702
O O9 0.333334 0.527157 0.587560
O O10 0.415171 0.231566 0.426995
O O11 0.378709 0.712041 0.420893
O O12 0.898234 0.748503 0.414791
#
# Coordination Sequence:
#
# PCOD9574339 Si02
#       6
#     3   3   3   3   3   3
#     4  10  23  39  61  97 127 170 227 276 343 410
#     4  10  23  39  61  97 127 170 227 276 343 410
#     4  10  21  38  66  92 127 167 217 288 346 393
#     4  12  28  47  73 102 142 192 235 286 345 418
#     4  10  21  38  66  92 127 167 217 288 346 393
#     4  12  28  47  73 102 142 192 235 286 345 418
#
# _framework density 27.148251999999999
#
# number of rings (size 3 to 8) (size 9 to 14) (size 15 to 20)
#    0.000    1.333    0.000    4.000    9.333    0.000 
#    0.000    0.000    0.000    0.000    0.000    0.000 
#    0.000    0.000    0.000    0.000    0.000    0.000 
#
# Total GULP energy -100724.542851 kJ/mol
# GULP energy per Si atom -5595.807936 kJ/mol
# Density = 2.708646 g / cm^3
# Si number density = 27.148252 Si / 1000 Ang^3
#
#
#
# Elastic Constant Matrix: (Units=GPa)
#
#
# Indices 1 2 3 4 5 6 
#
# 1 163.4708 54.8227 16.8191 -15.1775 0.0000 0.0000
# 2 54.8227 163.4708 16.8191 15.1775 0.0000 0.0000
# 3 16.8191 16.8191 104.3964 0.0000 0.0000 0.0000
# 4 -15.1775 15.1775 0.0000 41.7658 0.0000 0.0000
# 5 0.0000 0.0000 0.0000 0.0000 41.7658 -15.1775
# 6 0.0000 0.0000 0.0000 0.0000 -15.1775 54.3240
#
#
#
# Elastic Compliance Matrix: (Units=1/GPa)
#
#
# Indices 1 2 3 4 5 6 
#
# 1 0.007471 -0.002773 -0.000757 0.003723 0.000000 0.000000
# 2 -0.002773 0.007471 -0.000757 -0.003723 0.000000 0.000000
# 3 -0.000757 -0.000757 0.009823 0.000000 0.000000 0.000000
# 4 0.003723 -0.003723 0.000000 0.026649 0.000000 0.000000
# 5 0.000000 0.000000 0.000000 0.000000 0.026649 0.007445
# 6 0.000000 0.000000 0.000000 0.000000 0.007445 0.020488
#
#
# Mechanical properties :
#
#
# Convention : Reuss Voigt Hill
#
# Bulk Modulus (GPa) = 61.76397 67.58441 64.67419
# Shear Modulus (GPa) = 44.43632 50.42960 47.43296
#
# Velocity S-wave (km/s) = 4.05013 4.31462 4.18447
# Velocity P-wave (km/s) = 6.68367 7.05478 6.87173
#
# Compressibility (1/GPa) = 0.01619067
#
# Stress axis : x y z
#
# Youngs Moduli (GPa) = 133.85345 133.85345 101.80466
#
# Poissons Ratio (x) = 0.37121 0.07705
# Poissons Ratio (y) = 0.37121 0.07705
# Poissons Ratio (z) = 0.10130 0.10130
#
# Static dielectric constant tensor:
#      x y z
#    x 2.192980 0.000000 0.000000 
#    y 0.000000 2.192980 0.000000 
#    z 0.000000 0.000000 2.198020 
# 
# From -- ./inp_files/1030.got.cif
#   From: 2010.05.17/outbox.cif.g08.bks.cpg/sg144_cif.got.tgz:1030.got - 2010.05.20 13:46:34.
