data_PCOD9574338
_publ_section_title
;
Structure prediction by ZEFSAII (Michael W. Deem and Ramdas Pophale) SiO2 
 PCOD9574338
Probable space group: P 31
;
_chemical_formula_sum "Si O2"
_cell_formula_units_Z 24
_cell_length_a 8.375524
_cell_length_b 8.375524
_cell_length_c 19.581354
_cell_angle_alpha 90.000000
_cell_angle_beta 90.000000
_cell_angle_gamma 120.000000
_cell_volume 1189.590057
_symmetry_space_group_name_H-M "P 31"
_symmetry_group_IT_number 144
_symmetry_cell_setting 'hexagonal'
loop_
_space_group_symop_operation_xyz
x,y,z
-y,x-y,1/3+z
-x+y,-x,2/3+z
loop_
_atom_site_type_symbol
_atom_site_label
_atom_site_fract_x
_atom_site_fract_y
_atom_site_fract_z
Si Si1 0.132587 0.818653 0.519350
Si Si2 0.992082 0.198613 0.265353
Si Si3 0.539729 0.550622 0.475970
Si Si4 0.988378 0.177766 0.640709
Si Si5 0.817663 0.130648 0.053127
Si Si6 0.857778 0.309457 0.774083
Si Si7 0.692402 0.538843 0.729125
Si Si8 0.321944 0.857977 0.183896
O O1 0.160468 0.653183 0.543587
O O2 0.002015 0.845893 0.570672
O O3 0.003980 0.745130 0.452031
O O4 0.322981 0.994338 0.496983
O O5 0.009228 0.348231 0.209958
O O6 0.923949 0.236783 0.336259
O O7 0.171975 0.181736 0.278098
O O8 0.674909 0.661227 0.412510
O O9 0.510057 0.345393 0.468797
O O10 0.335458 0.517730 0.481659
O O11 0.149789 0.141415 0.668419
O O12 0.082188 0.325599 0.580619
O O13 0.913211 0.243407 0.704586
O O14 0.648803 0.163618 0.033793
O O15 0.843872 0.488158 0.754703
O O16 0.626427 0.610573 0.793179
#
# Coordination Sequence:
#
# PCOD9574338 Si02
#       8
#     3   3   3   3   3   3   3   3
#     4   9  20  37  57  85 117 155 198 247 303 366
#     4  11  22  37  59  88 121 159 206 255 310 371
#     4  10  21  39  62  88 122 162 204 259 315 372
#     4  11  22  38  62  91 124 167 214 258 311 377
#     4   8  19  39  58  80 117 161 204 251 304 359
#     4  10  21  40  64  86 121 166 207 252 313 380
#     4  10  21  38  61  88 122 162 206 258 313 375
#     4  11  22  38  61  90 126 160 205 264 315 370
#
# _framework density 20.175017
#
# number of rings (size 3 to 8) (size 9 to 14) (size 15 to 20)
#    0.000    2.000    0.000    3.750    0.000    4.000 
#    0.000    6.250    0.000    0.000    0.000    0.000 
#    0.000    0.000    0.000    0.000    0.000    0.000 
#
# Total GULP energy -133928.381382 kJ/mol
# GULP energy per Si atom -5580.349224 kJ/mol
# Density = 2.012910 g / cm^3
# Si number density = 20.175017 Si / 1000 Ang^3
#
#
#
# Elastic Constant Matrix: (Units=GPa)
#
#
# Indices 1 2 3 4 5 6 
#
# 1 96.1380 44.1282 40.8139 -1.8618 2.6634 0.0000
# 2 44.1282 96.1380 40.8139 1.8618 -2.6634 0.0000
# 3 40.8139 40.8139 79.6775 0.0000 0.0000 0.0000
# 4 -1.8618 1.8618 0.0000 26.4298 0.0000 -2.6634
# 5 2.6634 -2.6634 0.0000 0.0000 26.4298 -1.8618
# 6 0.0000 0.0000 0.0000 -2.6634 -1.8618 26.0049
#
#
#
# Elastic Compliance Matrix: (Units=1/GPa)
#
#
# Indices 1 2 3 4 5 6 
#
# 1 0.014842 -0.004685 -0.005203 0.001376 -0.001968 0.000000
# 2 -0.004685 0.014842 -0.005203 -0.001376 0.001968 0.000000
# 3 -0.005203 -0.005203 0.017881 0.000000 0.000000 0.000000
# 4 0.001376 -0.001376 0.000000 0.038427 0.000000 0.003936
# 5 -0.001968 0.001968 0.000000 0.000000 0.038427 0.002751
# 6 0.000000 0.000000 0.000000 0.003936 0.002751 0.039054
#
#
# Mechanical properties :
#
#
# Convention : Reuss Voigt Hill
#
# Bulk Modulus (GPa) = 57.52558 58.16283 57.84421
# Shear Modulus (GPa) = 25.06913 25.51939 25.29426
#
# Velocity S-wave (km/s) = 3.52885 3.56040 3.54466
# Velocity P-wave (km/s) = 6.72153 6.76710 6.74435
#
# Compressibility (1/GPa) = 0.01738357
#
# Stress axis : x y z
#
# Youngs Moduli (GPa) = 67.37578 67.37578 55.92584
#
# Poissons Ratio (x) = 0.31566 0.29097
# Poissons Ratio (y) = 0.31566 0.29097
# Poissons Ratio (z) = 0.35055 0.35055
#
# Static dielectric constant tensor:
#      x y z
#    x 1.735680 0.000000 0.000000 
#    y 0.000000 1.735680 0.000000 
#    z 0.000000 0.000000 1.702380 
# 
# From -- ./inp_files/855.got.cif
#   From: 2010.05.17/outbox.cif.g08.bks.cpg/sg144_cif.got.tgz:855.got - 2010.05.20 13:46:34.
