data_PCOD9574008
_publ_section_title
;
Structure prediction by ZEFSAII (Michael W. Deem and Ramdas Pophale) SiO2 
 PCOD9574008
Probable space group: I 41/A C D
;
_chemical_formula_sum "Si O2"
_cell_formula_units_Z 176
_cell_length_a 17.829421
_cell_length_b 17.829421
_cell_length_c 24.813417
_cell_angle_alpha 90.000000
_cell_angle_beta 90.000000
_cell_angle_gamma 90.000000
_cell_volume 7887.893786
_symmetry_space_group_name_H-M "I 41/A C D"
_symmetry_group_IT_number 142
_space_group.IT_coordinate_system_code '2'
_symmetry_cell_setting 'tetragonal'
loop_
_space_group_symop_operation_xyz
x,y,z
1/4-y,3/4+x,1/4+z
-x,1/2-y,z
1/4+y,1/4-x,3/4+z
x,-y,1/2-z
1/2-x,y,-z
3/4+y,1/4+x,1/4-z
1/4-y,1/4-x,1/4-z
-x,-y,-z
3/4+y,1/4-x,3/4-z
x,1/2+y,-z
3/4-y,3/4+x,1/4-z
-x,y,1/2+z
1/2+x,-y,z
1/4-y,3/4-x,3/4+z
3/4+y,3/4+x,3/4+z
1/2+x,1/2+y,1/2+z
3/4-y,1/4+x,3/4+z
1/2-x,-y,1/2+z
3/4+y,3/4-x,1/4+z
1/2+x,1/2-y,-z
-x,1/2+y,1/2-z
1/4+y,3/4+x,3/4-z
3/4-y,3/4-x,3/4-z
1/2-x,1/2-y,1/2-z
1/4+y,3/4-x,1/4-z
1/2+x,y,1/2-z
1/4-y,1/4+x,3/4-z
1/2-x,1/2+y,z
x,1/2-y,1/2+z
3/4-y,1/4-x,1/4+z
1/4+y,1/4+x,1/4+z
loop_
_atom_site_type_symbol
_atom_site_label
_atom_site_fract_x
_atom_site_fract_y
_atom_site_fract_z
Si Si1 0.390438 0.640438 0.125000
Si Si2 0.720472 0.378608 0.092921
Si Si3 0.250000 0.792467 0.500000
Si Si4 0.791832 0.958168 0.375000
Si Si5 0.007343 0.160465 0.524983
Si Si6 0.603520 0.716303 0.347780
Si Si7 0.816613 0.148231 0.038354
O O1 0.390666 0.557459 0.150345
O O2 0.453647 0.641326 0.076807
O O3 0.697798 0.342201 0.036950
O O4 0.711436 0.467242 0.089873
O O5 0.673352 0.337000 0.138919
O O6 0.303847 0.735561 0.531156
O O7 0.790226 0.880042 0.404658
O O8 0.996261 0.138744 0.461285
O O9 0.094652 0.133717 0.532705
O O10 0.000000 0.250000 0.524013
O O11 0.530755 0.662188 0.357096
O O12 0.750000 0.114371 0.000000
#
# Coordination Sequence:
#
# PCOD9574008 Si02
#       7
#    16  32  16  16  32  32  32
#     4  11  29  44  69 110 153 192 247 309 392 450
#     4  11  26  47  69 105 149 194 246 309 376 451
#     4  10  24  42  74 100 144 188 238 304 374 434
#     4  11  26  46  72 104 144 186 248 305 366 450
#     4  12  24  44  73 106 147 191 246 317 377 450
#     4  11  24  44  73 103 139 190 254 304 366 449
#     4  10  25  43  72 104 140 189 246 299 368 447
#
# _framework density 22.312673
#
# number of rings (size 3 to 8) (size 9 to 14) (size 15 to 20)
#    0.545    0.545    1.818    3.545   11.455    0.727 
#    0.000    0.000    0.000    0.000    0.000    0.000 
#    0.000    0.000    0.000    0.000    0.000    0.000 
#
# Total GULP energy -489872.286734 kJ/mol
# GULP energy per Si atom -5566.730531 kJ/mol
# Density = 2.226189 g / cm^3
# Si number density = 22.312673 Si / 1000 Ang^3
#
#
#
# Elastic Constant Matrix: (Units=GPa)
#
#
# Indices 1 2 3 4 5 6 
#
# 1 18.2004 101.3963 28.6796 0.0000 0.0000 0.0000
# 2 101.3963 18.2025 28.6772 0.0000 0.0000 0.0000
# 3 28.6796 28.6772 76.7920 0.0000 0.0000 0.0000
# 4 0.0000 0.0000 0.0000 3.4035 0.0000 0.0000
# 5 0.0000 0.0000 0.0000 0.0000 3.3979 0.0000
# 6 0.0000 0.0000 0.0000 0.0000 0.0000 17.0306
#
#
#
# Elastic Compliance Matrix: (Units=1/GPa)
#
#
# Indices 1 2 3 4 5 6 
#
# 1 -0.000917 0.011103 -0.003804 0.000000 0.000000 0.000000
# 2 0.011103 -0.000917 -0.003804 0.000000 0.000000 0.000000
# 3 -0.003804 -0.003804 0.015863 0.000000 0.000000 0.000000
# 4 0.000000 0.000000 0.000000 0.293816 0.000000 0.000000
# 5 0.000000 0.000000 0.000000 0.000000 0.294299 0.000000
# 6 0.000000 0.000000 0.000000 0.000000 0.000000 0.058718
#
#
# Mechanical properties :
#
#
# Convention : Reuss Voigt Hill
#
# Bulk Modulus (GPa) = 47.57582 47.85570 47.71576
# Shear Modulus (GPa) = 7.56569 1.72918 4.64744
#
# Velocity S-wave (km/s) = 1.84340 0.88128 1.44478
# Velocity P-wave (km/s) = 5.08915 4.74656 4.92084
#
# Compressibility (1/GPa) = 0.02101908
#
# Stress axis : x y z
#
# Youngs Moduli (GPa) = -1090.03110 -1090.58694 63.03842
#
# Poissons Ratio (x) = 12.10857 0.23977
# Poissons Ratio (y) = 12.10240 0.23981
# Poissons Ratio (z) = -4.14605 -4.14876
#
# Static dielectric constant tensor:
#      x y z
#    x 1.799920 0.000000 0.000000 
#    y 0.000000 1.799930 0.000000 
#    z 0.000000 0.000000 1.950960 
# 
# From -- ./inp_files/11490.got.cif
#   From: 2010.05.17/outbox.cif.g08.bks.cpg/sg142_6_cif.got.tgz:11490.got - 2010.05.20 13:39:18.
