data_PCOD9574269
_publ_section_title
;
Structure prediction by ZEFSAII (Michael W. Deem and Ramdas Pophale) SiO2 
 PCOD9574269
Probable space group: P 3
;
_chemical_formula_sum "Si O2"
_cell_formula_units_Z 17
_cell_length_a 10.960966
_cell_length_b 10.960966
_cell_length_c 9.695303
_cell_angle_alpha 90.000000
_cell_angle_beta 90.000000
_cell_angle_gamma 120.000000
_cell_volume 1008.764242
_symmetry_space_group_name_H-M "P 3"
_symmetry_group_IT_number 143
_symmetry_cell_setting 'hexagonal'
loop_
_space_group_symop_operation_xyz
x,y,z
-y,x-y,z
-x+y,-x,z
loop_
_atom_site_type_symbol
_atom_site_label
_atom_site_fract_x
_atom_site_fract_y
_atom_site_fract_z
Si Si1 0.359125 0.185103 0.514920
Si Si2 0.359465 0.972066 0.290660
Si Si3 0.666666 0.333334 0.956666
Si Si4 0.923405 0.105220 0.790657
Si Si5 0.639462 0.945163 0.290659
Si Si6 0.825985 0.640886 0.066401
Si Si7 0.666668 0.333334 0.624685
O O1 0.270289 0.117280 0.651917
O O2 0.300944 0.266997 0.422146
O O3 0.515768 0.295006 0.564983
O O4 0.363381 0.066076 0.420912
O O5 0.494541 0.950484 0.290652
O O6 0.213241 0.824322 0.290668
O O7 0.363361 0.066065 0.160407
O O8 0.779240 0.484234 0.016364
O O9 0.666668 0.333334 0.790675
O O10 0.087803 0.152415 0.790660
O O11 0.882713 0.153010 0.929393
O O12 0.733011 0.033936 0.159171
#
# Coordination Sequence:
#
# PCOD9574269 Si02
#       7
#     3   3   1   3   3   3   1
#     4  11  22  39  62  89 118 157 203 247 300 364
#     4  11  23  38  60  86 123 159 202 244 302 357
#     4  12  21  37  68  94 111 154 200 265 300 346
#     4  10  22  38  60  88 122 154 194 242 308 352
#     4  11  23  38  60  86 123 159 202 244 302 357
#     4  11  22  39  62  89 118 157 203 247 300 364
#     4  12  21  37  68  94 111 154 200 265 300 346
#
# _framework density 16.852302000000002
#
# number of rings (size 3 to 8) (size 9 to 14) (size 15 to 20)
#    0.353    0.706    5.294    2.471    0.000    0.000 
#    8.471    0.000    0.000    0.000    0.000    0.000 
#    0.000    0.000    0.000    0.000    0.000    0.000 
#
# Total GULP energy -94877.359787 kJ/mol
# GULP energy per Si atom -5581.021164 kJ/mol
# Density = 1.681395 g / cm^3
# Si number density = 16.852302 Si / 1000 Ang^3
#
#
#
# Elastic Constant Matrix: (Units=GPa)
#
#
# Indices 1 2 3 4 5 6 
#
# 1 78.2936 4.0878 34.4378 0.0017 0.0011 0.0004
# 2 4.0878 78.2931 34.4377 -0.0013 -0.0010 0.0005
# 3 34.4378 34.4377 143.0743 0.0003 0.0001 0.0003
# 4 0.0017 -0.0013 0.0003 22.2995 0.0001 -0.0011
# 5 0.0011 -0.0010 0.0001 0.0001 22.2994 0.0016
# 6 0.0004 0.0005 0.0003 -0.0011 0.0016 37.1027
#
#
#
# Elastic Compliance Matrix: (Units=1/GPa)
#
#
# Indices 1 2 3 4 5 6 
#
# 1 0.014336 0.000860 -0.003658 -0.000001 -0.000001 0.000000
# 2 0.000860 0.014337 -0.003658 0.000001 0.000001 0.000000
# 3 -0.003658 -0.003658 0.008750 0.000000 0.000000 0.000000
# 4 -0.000001 0.000001 0.000000 0.044844 0.000000 0.000001
# 5 -0.000001 0.000001 0.000000 0.000000 0.044844 -0.000002
# 6 0.000000 0.000000 0.000000 0.000001 -0.000002 0.026952
#
#
# Mechanical properties :
#
#
# Convention : Reuss Voigt Hill
#
# Bulk Modulus (GPa) = 40.79536 49.50972 45.15254
# Shear Modulus (GPa) = 28.54774 31.45352 30.00063
#
# Velocity S-wave (km/s) = 4.12028 4.32490 4.22383
# Velocity P-wave (km/s) = 6.84805 7.37442 7.11610
#
# Compressibility (1/GPa) = 0.02451259
#
# Stress axis : x y z
#
# Youngs Moduli (GPa) = 69.75228 69.75190 114.28231
#
# Poissons Ratio (x) = -0.06002 0.41803
# Poissons Ratio (y) = -0.06002 0.41803
# Poissons Ratio (z) = 0.25514 0.25514
#
# Static dielectric constant tensor:
#      x y z
#    x 1.552230 0.000000 0.000000 
#    y 0.000000 1.552230 0.000000 
#    z 0.000000 0.000000 1.569600 
# 
# From -- ./inp_files/173.got.cif
#   From: 2010.05.17/outbox.cif.g08.bks.cpg/sg143_cif.got.tgz:173.got - 2010.05.20 13:46:24.
