data_PCOD9574837
_publ_section_title
;
Structure prediction by ZEFSAII (Michael W. Deem and Ramdas Pophale) SiO2 
 PCOD9574837
Probable space group: R 3
;
_chemical_formula_sum "Si O2"
_cell_formula_units_Z 51
_cell_length_a 15.700279
_cell_length_b 15.700279
_cell_length_c 9.089095
_cell_angle_alpha 90.000000
_cell_angle_beta 90.000000
_cell_angle_gamma 120.000000
_cell_volume 1940.287182
_symmetry_space_group_name_H-M "R 3"
_symmetry_group_IT_number 146
_symmetry_cell_setting 'hexagonal'
loop_
_space_group_symop_operation_xyz
x,y,z
-y,x-y,z
-x+y,-x,z
2/3+x,1/3+y,1/3+z
2/3-y,1/3+x-y,1/3+z
2/3-x+y,1/3-x,1/3+z
1/3+x,2/3+y,2/3+z
1/3-y,2/3+x-y,2/3+z
1/3-x+y,2/3-x,2/3+z
loop_
_atom_site_type_symbol
_atom_site_label
_atom_site_fract_x
_atom_site_fract_y
_atom_site_fract_z
Si Si1 0.333335 0.666668 0.564107
Si Si2 0.725674 0.889021 0.141810
Si Si3 0.333334 0.666668 0.917471
Si Si4 0.450365 0.519717 0.330409
Si Si5 0.989697 0.830243 0.413142
Si Si6 0.494080 0.371033 0.210202
Si Si7 0.310778 0.018340 0.134736
O O1 0.333334 0.666667 0.742384
O O2 0.261517 0.705673 0.511263
O O3 0.757503 0.941341 0.297913
O O4 0.608131 0.839077 0.122890
O O5 0.759079 0.807520 0.122843
O O6 0.783661 0.974698 0.024089
O O7 0.286376 0.559410 0.988785
O O8 0.396284 0.555419 0.216323
O O9 0.504567 0.475456 0.234507
O O10 0.356470 0.438421 0.418834
O O11 0.530189 0.575937 0.456827
O O12 0.321407 0.991780 0.305140
#
# Coordination Sequence:
#
# PCOD9574837 Si02
#       7
#     3   9   3   9   9   9   9
#     4  12  27  49  77 109 153 199 248 322 396 460
#     4  12  25  47  78 110 150 201 258 311 382 464
#     4  12  30  49  74 112 156 199 251 319 405 457
#     4  12  27  48  76 113 150 198 259 315 387 466
#     4  12  28  49  78 113 156 200 256 324 392 464
#     4  12  25  46  78 107 150 194 253 313 380 463
#     4  12  28  48  79 112 155 201 263 314 386 464
#
# _framework density 26.284769000000001
#
# number of rings (size 3 to 8) (size 9 to 14) (size 15 to 20)
#    0.000    0.000    3.529    6.353    4.941    1.412 
#    0.000    0.000    0.000    0.000    0.000    0.000 
#    0.000    0.000    0.000    0.000    0.000    0.000 
#
# Total GULP energy -95002.047948 kJ/mol
# GULP energy per Si atom -5588.355762 kJ/mol
# Density = 2.622494 g / cm^3
# Si number density = 26.284769 Si / 1000 Ang^3
#
#
#
# Elastic Constant Matrix: (Units=GPa)
#
#
# Indices 1 2 3 4 5 6 
#
# 1 71.6002 15.0314 16.3115 5.8396 5.4806 -0.0003
# 2 15.0314 71.5968 16.3103 -5.8390 -5.4809 0.0008
# 3 16.3115 16.3103 124.7043 0.0003 0.0000 0.0001
# 4 5.8396 -5.8390 0.0003 32.2775 0.0002 -5.4810
# 5 5.4806 -5.4809 0.0000 0.0002 32.2776 5.8397
# 6 -0.0003 0.0008 0.0001 -5.4810 5.8397 28.2840
#
#
#
# Elastic Compliance Matrix: (Units=1/GPa)
#
#
# Indices 1 2 3 4 5 6 
#
# 1 0.015577 -0.003436 -0.001588 -0.003440 -0.003228 0.000000
# 2 -0.003436 0.015578 -0.001588 0.003440 0.003229 -0.000001
# 3 -0.001588 -0.001588 0.008434 0.000000 0.000000 0.000000
# 4 -0.003440 0.003440 0.000000 0.033322 0.000000 0.006457
# 5 -0.003228 0.003229 0.000000 0.000000 0.033322 -0.006880
# 6 0.000000 -0.000001 0.000000 0.006457 -0.006880 0.038028
#
#
# Mechanical properties :
#
#
# Convention : Reuss Voigt Hill
#
# Bulk Modulus (GPa) = 37.92919 40.35642 39.14280
# Shear Modulus (GPa) = 30.07065 33.25103 31.66084
#
# Velocity S-wave (km/s) = 3.38603 3.56059 3.47440
# Velocity P-wave (km/s) = 5.45420 5.68248 5.56951
#
# Compressibility (1/GPa) = 0.02636492
#
# Stress axis : x y z
#
# Youngs Moduli (GPa) = 64.19604 64.19320 118.56217
#
# Poissons Ratio (x) = 0.22059 0.18829
# Poissons Ratio (y) = 0.22059 0.18828
# Poissons Ratio (z) = 0.10195 0.10194
#
# Static dielectric constant tensor:
#      x y z
#    x 2.085370 0.000000 0.000000 
#    y 0.000000 2.085380 0.000000 
#    z 0.000000 0.000000 2.041510 
# 
# From -- ./inp_files/659.got.cif
#   From: 2010.05.17/outbox.cif.g08.bks.cpg/sg146_cif.got.tgz:659.got - 2010.05.20 13:48:23.
