data_PCOD9574689
_publ_section_title
;
Structure prediction by ZEFSAII (Michael W. Deem and Ramdas Pophale) SiO2 
 PCOD9574689
Probable space group: R 3
;
_chemical_formula_sum "Si O2"
_cell_formula_units_Z 63
_cell_length_a 19.566908
_cell_length_b 19.566908
_cell_length_c 7.541312
_cell_angle_alpha 90.000000
_cell_angle_beta 90.000000
_cell_angle_gamma 120.000000
_cell_volume 2500.471717
_symmetry_space_group_name_H-M "R 3"
_symmetry_group_IT_number 146
_symmetry_cell_setting 'hexagonal'
loop_
_space_group_symop_operation_xyz
x,y,z
-y,x-y,z
-x+y,-x,z
2/3+x,1/3+y,1/3+z
2/3-y,1/3+x-y,1/3+z
2/3-x+y,1/3-x,1/3+z
1/3+x,2/3+y,2/3+z
1/3-y,2/3+x-y,2/3+z
1/3-x+y,2/3-x,2/3+z
loop_
_atom_site_type_symbol
_atom_site_label
_atom_site_fract_x
_atom_site_fract_y
_atom_site_fract_z
Si Si1 0.334899 0.045121 0.211510
Si Si2 0.093373 0.562175 0.039588
Si Si3 0.192370 0.235253 0.963979
Si Si4 0.473657 0.637658 0.559162
Si Si5 0.256600 0.198282 0.400934
Si Si6 0.597086 0.808194 0.451865
Si Si7 0.497719 0.695731 0.929659
O O1 0.341754 0.988695 0.352261
O O2 0.404755 0.130426 0.261192
O O3 0.251570 0.040306 0.232078
O O4 0.088171 0.634448 0.122686
O O5 0.018779 0.488947 0.138388
O O6 0.101551 0.591592 0.829864
O O7 0.166911 0.546993 0.056705
O O8 0.245890 0.331238 0.949313
O O9 0.113947 0.181663 0.842634
O O10 0.242916 0.192451 0.920969
O O11 0.526170 0.718060 0.451669
O O12 0.455979 0.670850 0.738991
O O13 0.276777 0.174082 0.586401
O O14 0.187270 0.115676 0.322064
#
# Coordination Sequence:
#
# PCOD9574689 Si02
#       7
#     9   9   9   9   9   9   9
#     4  10  20  34  60  94 127 169 210 271 335 391
#     4  10  24  43  66  97 135 182 226 274 344 410
#     4  10  23  44  67  94 138 181 227 275 340 414
#     4  10  21  41  64  95 126 175 225 273 341 403
#     4  11  24  42  67 100 137 177 226 285 337 406
#     4  11  25  41  67 103 134 176 229 283 338 405
#     4  10  21  41  65  93 131 172 223 275 343 403
#
# _framework density 25.195246999999998
#
# number of rings (size 3 to 8) (size 9 to 14) (size 15 to 20)
#    0.000    1.714    1.429    1.714    8.000    2.286 
#    1.714    0.000    0.000    0.000    0.000    0.000 
#    0.000    0.000    0.000    0.000    0.000    0.000 
#
# Total GULP energy -116966.069616 kJ/mol
# GULP energy per Si atom -5569.812839 kJ/mol
# Density = 2.513790 g / cm^3
# Si number density = 25.195247 Si / 1000 Ang^3
#
#
#
# Elastic Constant Matrix: (Units=GPa)
#
#
# Indices 1 2 3 4 5 6 
#
# 1 101.5478 39.6608 16.6630 6.6965 -2.2240 0.0008
# 2 39.6608 101.5467 16.6716 -6.6908 2.2300 0.0017
# 3 16.6630 16.6716 57.6009 0.0120 0.0011 0.0098
# 4 6.6965 -6.6908 0.0120 20.4631 0.0028 2.2297
# 5 -2.2240 2.2300 0.0011 0.0028 20.4567 6.6987
# 6 0.0008 0.0017 0.0098 2.2297 6.6987 30.9429
#
#
#
# Elastic Compliance Matrix: (Units=1/GPa)
#
#
# Indices 1 2 3 4 5 6 
#
# 1 0.012568 -0.004968 -0.002197 -0.005736 0.001909 0.000001
# 2 -0.004968 0.012570 -0.002202 0.005737 -0.001911 0.000000
# 3 -0.002197 -0.002202 0.018634 -0.000011 0.000002 -0.000005
# 4 -0.005736 0.005737 -0.000011 0.053038 -0.000005 -0.003821
# 5 0.001909 -0.001911 0.000002 -0.000005 0.053061 -0.011486
# 6 0.000001 0.000000 -0.000005 -0.003821 -0.011486 0.035080
#
#
# Mechanical properties :
#
#
# Convention : Reuss Voigt Hill
#
# Bulk Modulus (GPa) = 39.93934 45.18738 42.56336
# Shear Modulus (GPa) = 23.58163 26.88589 25.23376
#
# Velocity S-wave (km/s) = 3.06266 3.27020 3.16813
# Velocity P-wave (km/s) = 5.32849 5.67739 5.50570
#
# Compressibility (1/GPa) = 0.02503797
#
# Stress axis : x y z
#
# Youngs Moduli (GPa) = 79.56422 79.55741 53.66629
#
# Poissons Ratio (x) = 0.39524 0.11789
# Poissons Ratio (y) = 0.39528 0.11817
# Poissons Ratio (z) = 0.17478 0.17519
#
# Static dielectric constant tensor:
#      x y z
#    x 2.175960 -0.000030 0.000000 
#    y -0.000030 2.175990 0.000000 
#    z 0.000000 0.000000 2.115930 
# 
# From -- ./inp_files/843.got.cif
#   From: 2010.05.17/outbox.cif.g08.bks.cpg/sg146_cif.got.tgz:843.got - 2010.05.20 13:48:23.
