data_PCOD9574243
_publ_section_title
;
Structure prediction by ZEFSAII (Michael W. Deem and Ramdas Pophale) SiO2 
 PCOD9574243
Probable space group: I 41/A C D
;
_chemical_formula_sum "Si O2"
_cell_formula_units_Z 128
_cell_length_a 16.171768
_cell_length_b 16.171768
_cell_length_c 21.139037
_cell_angle_alpha 90.000000
_cell_angle_beta 90.000000
_cell_angle_gamma 90.000000
_cell_volume 5528.409487
_symmetry_space_group_name_H-M "I 41/A C D"
_symmetry_group_IT_number 142
_space_group.IT_coordinate_system_code '2'
_symmetry_cell_setting 'tetragonal'
loop_
_space_group_symop_operation_xyz
x,y,z
1/4-y,3/4+x,1/4+z
-x,1/2-y,z
1/4+y,1/4-x,3/4+z
x,-y,1/2-z
1/2-x,y,-z
3/4+y,1/4+x,1/4-z
1/4-y,1/4-x,1/4-z
-x,-y,-z
3/4+y,1/4-x,3/4-z
x,1/2+y,-z
3/4-y,3/4+x,1/4-z
-x,y,1/2+z
1/2+x,-y,z
1/4-y,3/4-x,3/4+z
3/4+y,3/4+x,3/4+z
1/2+x,1/2+y,1/2+z
3/4-y,1/4+x,3/4+z
1/2-x,-y,1/2+z
3/4+y,3/4-x,1/4+z
1/2+x,1/2-y,-z
-x,1/2+y,1/2-z
1/4+y,3/4+x,3/4-z
3/4-y,3/4-x,3/4-z
1/2-x,1/2-y,1/2-z
1/4+y,3/4-x,1/4-z
1/2+x,y,1/2-z
1/4-y,1/4+x,3/4-z
1/2-x,1/2+y,z
x,1/2-y,1/2+z
3/4-y,1/4-x,1/4+z
1/4+y,1/4+x,1/4+z
loop_
_atom_site_type_symbol
_atom_site_label
_atom_site_fract_x
_atom_site_fract_y
_atom_site_fract_z
Si Si1 0.842265 0.952560 0.511149
Si Si2 0.398172 0.631581 0.971616
Si Si3 0.464132 0.447679 0.120250
Si Si4 0.980287 0.374860 0.579548
O O1 0.750000 0.922541 0.500000
O O2 0.877072 0.942269 0.581960
O O3 0.908261 0.907270 0.466971
O O4 0.848908 0.048980 0.491320
O O5 0.467653 0.602812 0.920205
O O6 0.341353 0.699330 0.938485
O O7 0.446921 0.657593 0.034389
O O8 0.488807 0.543450 0.116594
O O9 0.939456 0.310545 0.625000
#
# Coordination Sequence:
#
# PCOD9574243 Si02
#       4
#    32  32  32  32
#     4   9  19  32  60 101 129 173 233 282 327 388
#     4   9  19  37  61  98 132 175 224 278 340 407
#     4   9  19  35  61  97 134 179 230 279 336 411
#     4   9  19  37  64 102 141 173 224 289 341 404
#
# _framework density 23.153134000000001
#
# number of rings (size 3 to 8) (size 9 to 14) (size 15 to 20)
#    0.000    3.000    0.000    3.000    7.000    0.500 
#    0.000    0.000   22.000    0.000   13.000    0.000 
#    0.000    0.000    0.000    0.000    0.000    0.000 
#
# Total GULP energy -358256.506343 kJ/mol
# GULP energy per Si atom -5597.757912 kJ/mol
# Density = 2.310044 g / cm^3
# Si number density = 23.153134 Si / 1000 Ang^3
#
#
#
# Elastic Constant Matrix: (Units=GPa)
#
#
# Indices 1 2 3 4 5 6 
#
# 1 89.8449 50.4013 65.0476 0.0000 0.0000 0.0000
# 2 50.4013 89.8435 65.0480 0.0000 0.0000 0.0000
# 3 65.0476 65.0480 111.6272 0.0000 0.0000 0.0000
# 4 0.0000 0.0000 0.0000 25.1185 0.0000 0.0000
# 5 0.0000 0.0000 0.0000 0.0000 25.1192 0.0000
# 6 0.0000 0.0000 0.0000 0.0000 0.0000 23.5398
#
#
#
# Elastic Compliance Matrix: (Units=1/GPa)
#
#
# Indices 1 2 3 4 5 6 
#
# 1 0.020436 -0.004917 -0.009043 0.000000 0.000000 0.000000
# 2 -0.004917 0.020437 -0.009044 0.000000 0.000000 0.000000
# 3 -0.009043 -0.009044 0.019498 0.000000 0.000000 0.000000
# 4 0.000000 0.000000 0.000000 0.039811 0.000000 0.000000
# 5 0.000000 0.000000 0.000000 0.000000 0.039810 0.000000
# 6 0.000000 0.000000 0.000000 0.000000 0.000000 0.042481
#
#
# Mechanical properties :
#
#
# Convention : Reuss Voigt Hill
#
# Bulk Modulus (GPa) = 69.62415 72.47881 71.05148
# Shear Modulus (GPa) = 21.43451 22.14340 21.78896
#
# Velocity S-wave (km/s) = 3.04595 3.09591 3.07103
# Velocity P-wave (km/s) = 6.51973 6.64467 6.58249
#
# Compressibility (1/GPa) = 0.01436283
#
# Stress axis : x y z
#
# Youngs Moduli (GPa) = 48.93354 48.93191 51.28707
#
# Poissons Ratio (x) = 0.24059 0.46380
# Poissons Ratio (y) = 0.24060 0.46383
# Poissons Ratio (z) = 0.44252 0.44253
#
# Static dielectric constant tensor:
#      x y z
#    x 1.863290 0.000000 0.000000 
#    y 0.000000 1.863290 0.000000 
#    z 0.000000 0.000000 1.868820 
# 
# From -- ./inp_files/10004.got.cif
#   From: 2010.05.17/outbox.cif.g08.bks.cpg/sg142_6_cif.got.tgz:10004.got - 2010.05.20 13:39:18.
