data_PCOD9574803
_publ_section_title
;
Structure prediction by ZEFSAII (Michael W. Deem and Ramdas Pophale) SiO2 
 PCOD9574803
Probable space group: R 3
;
_chemical_formula_sum "Si O2"
_cell_formula_units_Z 60
_cell_length_a 11.443432
_cell_length_b 11.443432
_cell_length_c 28.077994
_cell_angle_alpha 90.000000
_cell_angle_beta 90.000000
_cell_angle_gamma 120.000000
_cell_volume 3184.265673
_symmetry_space_group_name_H-M "R 3"
_symmetry_group_IT_number 146
_symmetry_cell_setting 'hexagonal'
loop_
_space_group_symop_operation_xyz
x,y,z
-y,x-y,z
-x+y,-x,z
2/3+x,1/3+y,1/3+z
2/3-y,1/3+x-y,1/3+z
2/3-x+y,1/3-x,1/3+z
1/3+x,2/3+y,2/3+z
1/3-y,2/3+x-y,2/3+z
1/3-x+y,2/3-x,2/3+z
loop_
_atom_site_type_symbol
_atom_site_label
_atom_site_fract_x
_atom_site_fract_y
_atom_site_fract_z
Si Si1 0.668676 0.062820 0.334720
Si Si2 0.668676 0.605856 0.334720
Si Si3 0.666757 0.058753 0.561960
Si Si4 0.333334 0.666668 0.505401
Si Si5 0.000000 0.000000 0.723750
Si Si6 0.725331 0.725419 0.228626
Si Si7 0.979117 0.489559 0.171325
Si Si8 0.645565 0.822782 0.390743
O O1 0.521158 0.042316 0.344082
O O2 0.781910 0.218090 0.340826
O O3 0.679600 0.021550 0.280689
O O4 0.701932 0.969916 0.368612
O O5 0.679601 0.658050 0.280689
O O6 0.701932 0.732016 0.368612
O O7 0.526887 0.053774 0.548385
O O8 0.788813 0.211188 0.563765
O O9 0.701744 0.970479 0.526389
O O10 0.333334 0.666667 0.447979
O O11 0.487950 0.743977 0.520646
O O12 0.154542 0.077271 0.708686
O O13 0.602069 0.637144 0.193055
O O14 0.987444 0.493722 0.114371
#
# Coordination Sequence:
#
# PCOD9574803 Si02
#       8
#     9   9   9   3   3   9   9   9
#     4  11  23  40  64  93 126 164 208 257 311 373
#     4  11  23  40  64  93 126 164 208 257 311 373
#     4  11  23  40  63  92 126 164 208 258 314 372
#     4   9  18  36  60  93 114 156 207 258 303 360
#     4   9  18  33  66  84 114 162 210 249 300 369
#     4  11  23  40  63  92 126 164 208 258 314 372
#     4  11  22  39  66  92 124 164 212 259 309 369
#     4  11  22  40  62  93 128 166 207 256 312 372
#
# _framework density 18.842649999999999
#
# number of rings (size 3 to 8) (size 9 to 14) (size 15 to 20)
#    0.000    1.200    6.000    0.600    0.000    1.200 
#    1.800    1.500    0.000    3.600    0.000    0.000 
#    0.000    0.000    0.000    0.000    0.000    0.000 
#
# Total GULP energy -111694.809021 kJ/mol
# GULP energy per Si atom -5584.740451 kJ/mol
# Density = 1.879976 g / cm^3
# Si number density = 18.842650 Si / 1000 Ang^3
#
#
#
# Elastic Constant Matrix: (Units=GPa)
#
#
# Indices 1 2 3 4 5 6 
#
# 1 88.2185 25.9792 28.1358 -1.0624 0.0000 0.0001
# 2 25.9792 88.2181 28.1359 1.0624 0.0000 0.0000
# 3 28.1358 28.1359 87.2083 0.0001 0.0000 0.0000
# 4 -1.0624 1.0624 0.0001 27.0629 0.0000 0.0000
# 5 0.0000 0.0000 0.0000 0.0000 27.0630 -1.0624
# 6 0.0001 0.0000 0.0000 0.0000 -1.0624 31.1197
#
#
#
# Elastic Compliance Matrix: (Units=1/GPa)
#
#
# Indices 1 2 3 4 5 6 
#
# 1 0.013250 -0.002838 -0.003359 0.000632 0.000000 0.000000
# 2 -0.002838 0.013250 -0.003359 -0.000632 0.000000 0.000000
# 3 -0.003359 -0.003359 0.013634 0.000000 0.000000 0.000000
# 4 0.000632 -0.000632 0.000000 0.037001 0.000000 0.000000
# 5 0.000000 0.000000 0.000000 0.000000 0.037000 0.001263
# 6 0.000000 0.000000 0.000000 0.000000 0.001263 0.032177
#
#
# Mechanical properties :
#
#
# Convention : Reuss Voigt Hill
#
# Bulk Modulus (GPa) = 47.57021 47.57187 47.57104
# Shear Modulus (GPa) = 28.99665 29.14206 29.06935
#
# Velocity S-wave (km/s) = 3.92712 3.93695 3.93204
# Velocity P-wave (km/s) = 6.77228 6.77996 6.77612
#
# Compressibility (1/GPa) = 0.02102156
#
# Stress axis : x y z
#
# Youngs Moduli (GPa) = 75.46999 75.46960 73.34418
#
# Poissons Ratio (x) = 0.21421 0.24638
# Poissons Ratio (y) = 0.21421 0.24638
# Poissons Ratio (z) = 0.25352 0.25352
#
# Static dielectric constant tensor:
#      x y z
#    x 1.642030 0.000000 0.000000 
#    y 0.000000 1.642040 0.000000 
#    z 0.000000 0.000000 1.625730 
# 
# From -- ./inp_files/2271.got.cif
#   From: 2010.05.17/outbox.cif.g08.bks.cpg/sg146_cif.got.tgz:2271.got - 2010.05.20 13:48:23.
