data_PCOD9574827
_publ_section_title
;
Structure prediction by ZEFSAII (Michael W. Deem and Ramdas Pophale) SiO2 
 PCOD9574827
Probable space group: R 3
;
_chemical_formula_sum "Si O2"
_cell_formula_units_Z 60
_cell_length_a 11.030876
_cell_length_b 11.030876
_cell_length_c 26.610930
_cell_angle_alpha 90.000000
_cell_angle_beta 90.000000
_cell_angle_gamma 120.000000
_cell_volume 2804.211006
_symmetry_space_group_name_H-M "R 3"
_symmetry_group_IT_number 146
_symmetry_cell_setting 'hexagonal'
loop_
_space_group_symop_operation_xyz
x,y,z
-y,x-y,z
-x+y,-x,z
2/3+x,1/3+y,1/3+z
2/3-y,1/3+x-y,1/3+z
2/3-x+y,1/3-x,1/3+z
1/3+x,2/3+y,2/3+z
1/3-y,2/3+x-y,2/3+z
1/3-x+y,2/3-x,2/3+z
loop_
_atom_site_type_symbol
_atom_site_label
_atom_site_fract_x
_atom_site_fract_y
_atom_site_fract_z
Si Si1 0.784293 0.645541 0.697960
Si Si2 0.300700 0.013853 0.934786
Si Si3 0.597920 0.936164 0.593722
Si Si4 0.333334 0.666668 0.144962
Si Si5 0.742823 0.785840 0.087840
Si Si6 0.303090 0.258667 0.041514
Si Si7 0.000000 0.000000 0.357937
Si Si8 0.851694 0.687916 0.521435
O O1 0.723676 0.706146 0.654249
O O2 0.687094 0.617484 0.746133
O O3 0.751242 0.495298 0.675597
O O4 0.938835 0.721125 0.722553
O O5 0.158082 0.866059 0.935919
O O6 0.244055 0.116858 0.916001
O O7 0.408291 0.021401 0.893487
O O8 0.663247 0.945170 0.648675
O O9 0.698034 0.046196 0.552640
O O10 0.333334 0.666667 0.084949
O O11 0.278229 0.509893 0.165228
O O12 0.854388 0.742209 0.069096
O O13 0.750473 0.845751 0.143171
O O14 0.732829 0.896789 0.051633
#
# Coordination Sequence:
#
# PCOD9574827 Si02
#       8
#     9   9   9   3   9   9   3   9
#     4  12  22  42  75 105 138 191 250 305 367 454
#     4  12  26  45  72 110 148 200 254 313 385 457
#     4  12  24  47  75 108 153 199 253 317 379 463
#     4  12  21  45  75  99 135 192 243 312 372 463
#     4  12  27  46  71 109 144 195 248 308 382 457
#     4  12  24  46  75 103 146 194 251 310 369 454
#     4  12  21  42  72 102 138 180 246 309 369 454
#     4  12  27  45  71 108 152 191 253 316 391 448
#
# _framework density 21.396393
#
# number of rings (size 3 to 8) (size 9 to 14) (size 15 to 20)
#    0.000    0.000    9.000    0.600    2.100    0.000 
#    1.800    1.500    0.000    0.000    0.000    0.000 
#    0.000    0.000    0.000    0.000    0.000    0.000 
#
# Total GULP energy -111437.177124 kJ/mol
# GULP energy per Si atom -5571.858856 kJ/mol
# Density = 2.134769 g / cm^3
# Si number density = 21.396393 Si / 1000 Ang^3
#
#
#
# Elastic Constant Matrix: (Units=GPa)
#
#
# Indices 1 2 3 4 5 6 
#
# 1 99.9879 51.1905 36.5195 7.7287 -9.1360 0.0002
# 2 51.1905 99.9877 36.5196 -7.7287 9.1359 0.0000
# 3 36.5195 36.5196 102.5492 0.0001 -0.0001 0.0001
# 4 7.7287 -7.7287 0.0001 26.6669 0.0002 9.1358
# 5 -9.1360 9.1359 -0.0001 0.0002 26.6669 7.7287
# 6 0.0002 0.0000 0.0001 9.1358 7.7287 24.3987
#
#
#
# Elastic Compliance Matrix: (Units=1/GPa)
#
#
# Indices 1 2 3 4 5 6 
#
# 1 0.017133 -0.009143 -0.002845 -0.007615 0.009002 0.000000
# 2 -0.009143 0.017133 -0.002845 0.007615 -0.009002 0.000000
# 3 -0.002845 -0.002845 0.011778 0.000000 0.000000 0.000000
# 4 -0.007615 0.007615 0.000000 0.048082 0.000000 -0.018003
# 5 0.009002 -0.009002 0.000000 0.000000 0.048082 -0.015231
# 6 0.000000 0.000000 0.000000 -0.018003 -0.015231 0.052552
#
#
# Mechanical properties :
#
#
# Convention : Reuss Voigt Hill
#
# Bulk Modulus (GPa) = 61.06540 61.22043 61.14292
# Shear Modulus (GPa) = 21.75004 27.43283 24.59143
#
# Velocity S-wave (km/s) = 3.19176 3.58456 3.39385
# Velocity P-wave (km/s) = 6.49501 6.76807 6.63294
#
# Compressibility (1/GPa) = 0.01637588
#
# Stress axis : x y z
#
# Youngs Moduli (GPa) = 58.36817 58.36788 84.90543
#
# Poissons Ratio (x) = 0.53368 0.24156
# Poissons Ratio (y) = 0.53368 0.24157
# Poissons Ratio (z) = 0.16606 0.16607
#
# Static dielectric constant tensor:
#      x y z
#    x 1.894540 0.000000 0.000000 
#    y 0.000000 1.894540 0.000000 
#    z 0.000000 0.000000 1.874930 
# 
# From -- ./inp_files/2264.got.cif
#   From: 2010.05.17/outbox.cif.g08.bks.cpg/sg146_cif.got.tgz:2264.got - 2010.05.20 13:48:23.
