data_PCOD9574836
_publ_section_title
;
Structure prediction by ZEFSAII (Michael W. Deem and Ramdas Pophale) SiO2 
 PCOD9574836
Probable space group: R 3
;
_chemical_formula_sum "Si O2"
_cell_formula_units_Z 51
_cell_length_a 16.156791
_cell_length_b 16.156791
_cell_length_c 9.237738
_cell_angle_alpha 90.000000
_cell_angle_beta 90.000000
_cell_angle_gamma 120.000000
_cell_volume 2088.365387
_symmetry_space_group_name_H-M "R 3"
_symmetry_group_IT_number 146
_symmetry_cell_setting 'hexagonal'
loop_
_space_group_symop_operation_xyz
x,y,z
-y,x-y,z
-x+y,-x,z
2/3+x,1/3+y,1/3+z
2/3-y,1/3+x-y,1/3+z
2/3-x+y,1/3-x,1/3+z
1/3+x,2/3+y,2/3+z
1/3-y,2/3+x-y,2/3+z
1/3-x+y,2/3-x,2/3+z
loop_
_atom_site_type_symbol
_atom_site_label
_atom_site_fract_x
_atom_site_fract_y
_atom_site_fract_z
Si Si1 0.333334 0.666668 0.529556
Si Si2 0.729506 0.888036 0.239717
Si Si3 0.333335 0.666668 0.183958
Si Si4 0.453468 0.504427 0.437683
Si Si5 0.993011 0.817535 0.514732
Si Si6 0.496185 0.360130 0.312106
Si Si7 0.374553 0.021749 0.568057
O O1 0.333334 0.666667 0.357457
O O2 0.256015 0.694869 0.584758
O O3 0.754116 0.942212 0.390990
O O4 0.617178 0.850293 0.212233
O O5 0.753274 0.802670 0.233166
O O6 0.795553 0.966816 0.124427
O O7 0.294315 0.559211 0.133653
O O8 0.400391 0.532272 0.316395
O O9 0.507454 0.460976 0.348574
O O10 0.362204 0.435924 0.535571
O O11 0.531984 0.570613 0.555030
O O12 0.333695 0.004220 0.735286
#
# Coordination Sequence:
#
# PCOD9574836 Si02
#       7
#     3   9   3   9   9   9   9
#     4  12  27  49  74 112 156 205 248 322 414 466
#     4  12  27  49  77 114 149 205 262 321 395 473
#     4  12  30  49  74 118 162 199 254 334 414 463
#     4  12  25  46  76 111 149 205 260 318 385 476
#     4  12  28  49  80 111 160 202 261 327 401 473
#     4  12  25  46  76 107 153 195 260 321 384 474
#     4  12  28  48  79 115 159 203 267 319 397 471
#
# _framework density 24.421012999999999
#
# number of rings (size 3 to 8) (size 9 to 14) (size 15 to 20)
#    0.000    0.000    3.529    6.353    4.941    1.412 
#    0.000    0.000    0.000    0.000    0.000    0.000 
#    0.000    0.000    0.000    0.000    0.000    0.000 
#
# Total GULP energy -94888.435693 kJ/mol
# GULP energy per Si atom -5581.672688 kJ/mol
# Density = 2.436543 g / cm^3
# Si number density = 24.421013 Si / 1000 Ang^3
#
#
#
# Elastic Constant Matrix: (Units=GPa)
#
#
# Indices 1 2 3 4 5 6 
#
# 1 55.0656 3.8516 10.4489 10.9930 5.6416 0.0000
# 2 3.8516 55.0599 10.4482 -10.9930 -5.6421 0.0009
# 3 10.4489 10.4482 107.0472 -0.0002 0.0004 -0.0001
# 4 10.9930 -10.9930 -0.0002 25.9289 0.0003 -5.6417
# 5 5.6416 -5.6421 0.0004 0.0003 25.9289 10.9932
# 6 0.0000 0.0009 -0.0001 -5.6417 10.9932 25.6062
#
#
#
# Elastic Compliance Matrix: (Units=1/GPa)
#
#
# Indices 1 2 3 4 5 6 
#
# 1 0.021469 -0.003888 -0.001716 -0.010750 -0.005517 0.000000
# 2 -0.003888 0.021472 -0.001716 0.010751 0.005519 -0.000001
# 3 -0.001716 -0.001716 0.009677 0.000000 0.000000 0.000000
# 4 -0.010750 0.010751 0.000000 0.050084 -0.000001 0.011035
# 5 -0.005517 0.005519 0.000000 -0.000001 0.050085 -0.021503
# 6 0.000000 -0.000001 0.000000 0.011035 -0.021503 0.050716
#
#
# Mechanical properties :
#
#
# Convention : Reuss Voigt Hill
#
# Bulk Modulus (GPa) = 26.33168 29.63000 27.98084
# Shear Modulus (GPa) = 21.66361 28.32107 24.99234
#
# Velocity S-wave (km/s) = 2.98163 3.40913 3.20252
# Velocity P-wave (km/s) = 4.76018 5.25886 5.01572
#
# Compressibility (1/GPa) = 0.03797707
#
# Stress axis : x y z
#
# Youngs Moduli (GPa) = 46.57851 46.57284 103.34108
#
# Poissons Ratio (x) = 0.18107 0.17735
# Poissons Ratio (y) = 0.18109 0.17736
# Poissons Ratio (z) = 0.07993 0.07993
#
# Static dielectric constant tensor:
#      x y z
#    x 1.934530 0.000000 0.000000 
#    y 0.000000 1.934540 0.000000 
#    z 0.000000 0.000000 2.054600 
# 
# From -- ./inp_files/667.got.cif
#   From: 2010.05.17/outbox.cif.g08.bks.cpg/sg146_cif.got.tgz:667.got - 2010.05.20 13:48:23.
