data_PCOD9574345
_publ_section_title
;
Structure prediction by ZEFSAII (Michael W. Deem and Ramdas Pophale) SiO2 
 PCOD9574345
Probable space group: P 31
;
_chemical_formula_sum "Si O2"
_cell_formula_units_Z 24
_cell_length_a 9.285870
_cell_length_b 9.285870
_cell_length_c 16.169742
_cell_angle_alpha 90.000000
_cell_angle_beta 90.000000
_cell_angle_gamma 120.000000
_cell_volume 1207.477150
_symmetry_space_group_name_H-M "P 31"
_symmetry_group_IT_number 144
_symmetry_cell_setting 'hexagonal'
loop_
_space_group_symop_operation_xyz
x,y,z
-y,x-y,1/3+z
-x+y,-x,2/3+z
loop_
_atom_site_type_symbol
_atom_site_label
_atom_site_fract_x
_atom_site_fract_y
_atom_site_fract_z
Si Si1 0.248829 0.337133 0.138820
Si Si2 0.992710 0.943868 0.685346
Si Si3 0.700838 0.767109 0.056635
Si Si4 0.670466 0.915496 0.223746
Si Si5 0.542358 0.258483 0.924907
Si Si6 0.267062 0.899558 0.972598
Si Si7 0.340622 0.617824 0.010554
Si Si8 0.790976 0.382792 0.770992
O O1 0.199074 0.338446 0.232141
O O2 0.280141 0.503991 0.092265
O O3 0.421810 0.339593 0.124109
O O4 0.099715 0.178795 0.093136
O O5 0.795783 0.821034 0.695307
O O6 0.053190 0.890515 0.603635
O O7 0.027197 0.128932 0.681490
O O8 0.671780 0.865740 0.130425
O O9 0.537550 0.691918 0.000593
O O10 0.703614 0.607141 0.093419
O O11 0.512128 0.766383 0.269431
O O12 0.672925 0.088477 0.238457
O O13 0.666667 0.307260 0.847950
O O14 0.429806 0.059526 0.935814
O O15 0.623996 0.333333 0.014616
O O16 0.306136 0.768401 0.014410
#
# Coordination Sequence:
#
# PCOD9574345 Si02
#       8
#     3   3   3   3   3   3   3   3
#     4  10  21  44  65  90 131 173 210 277 333 386
#     4  10  21  40  64  92 129 161 218 267 329 388
#     4  11  23  40  63  97 124 170 222 267 327 399
#     4  10  21  44  65  90 131 173 210 277 333 386
#     4  11  24  46  66  96 136 180 221 273 340 394
#     4  11  23  40  63  97 124 170 222 267 327 399
#     4  10  21  40  64  92 129 161 218 267 329 388
#     4  11  24  46  66  96 136 180 221 273 340 394
#
# _framework density 19.876152999999999
#
# number of rings (size 3 to 8) (size 9 to 14) (size 15 to 20)
#    0.000    1.500    5.000    3.000    3.500    2.000 
#    4.500    3.750    0.000    0.000    0.000    0.000 
#    0.000    0.000    0.000    0.000    0.000    0.000 
#
# Total GULP energy -134048.700617 kJ/mol
# GULP energy per Si atom -5585.362526 kJ/mol
# Density = 1.983091 g / cm^3
# Si number density = 19.876153 Si / 1000 Ang^3
#
#
#
# Elastic Constant Matrix: (Units=GPa)
#
#
# Indices 1 2 3 4 5 6 
#
# 1 92.8335 32.1558 24.9116 -9.0009 0.0000 0.0000
# 2 32.1558 92.8335 24.9116 9.0009 0.0000 0.0000
# 3 24.9116 24.9116 65.2331 0.0000 0.0000 0.0000
# 4 -9.0009 9.0009 0.0000 22.9490 0.0000 0.0000
# 5 0.0000 0.0000 0.0000 0.0000 22.9490 -9.0009
# 6 0.0000 0.0000 0.0000 0.0000 -9.0009 30.3389
#
#
#
# Elastic Compliance Matrix: (Units=1/GPa)
#
#
# Indices 1 2 3 4 5 6 
#
# 1 0.014044 -0.004607 -0.003604 0.007315 0.000000 0.000000
# 2 -0.004607 0.014044 -0.003604 -0.007315 0.000000 0.000000
# 3 -0.003604 -0.003604 0.018082 0.000000 0.000000 0.000000
# 4 0.007315 -0.007315 0.000000 0.049313 0.000000 0.000000
# 5 0.000000 0.000000 0.000000 0.000000 0.049313 0.014630
# 6 0.000000 0.000000 0.000000 0.000000 0.014630 0.037301
#
#
# Mechanical properties :
#
#
# Convention : Reuss Voigt Hill
#
# Bulk Modulus (GPa) = 44.36368 46.09536 45.22952
# Shear Modulus (GPa) = 23.44766 26.50878 24.97822
#
# Velocity S-wave (km/s) = 3.43838 3.65594 3.54883
# Velocity P-wave (km/s) = 6.17510 6.40803 6.29264
#
# Compressibility (1/GPa) = 0.02254096
#
# Stress axis : x y z
#
# Youngs Moduli (GPa) = 71.20469 71.20469 55.30280
#
# Poissons Ratio (x) = 0.32802 0.19931
# Poissons Ratio (y) = 0.32802 0.19931
# Poissons Ratio (z) = 0.25662 0.25662
#
# Static dielectric constant tensor:
#      x y z
#    x 1.698590 0.000000 0.000000 
#    y 0.000000 1.698590 0.000000 
#    z 0.000000 0.000000 1.682750 
# 
# From -- ./inp_files/869.got.cif
#   From: 2010.05.17/outbox.cif.g08.bks.cpg/sg144_cif.got.tgz:869.got - 2010.05.20 13:46:34.
