data_PCOD9574016
_publ_section_title
;
Structure prediction by ZEFSAII (Michael W. Deem and Ramdas Pophale) SiO2 
 PCOD9574016
Probable space group: I 41/A C D
;
_chemical_formula_sum "Si O2"
_cell_formula_units_Z 160
_cell_length_a 20.551223
_cell_length_b 20.551223
_cell_length_c 18.203410
_cell_angle_alpha 90.000000
_cell_angle_beta 90.000000
_cell_angle_gamma 90.000000
_cell_volume 7688.260579
_symmetry_space_group_name_H-M "I 41/A C D"
_symmetry_group_IT_number 142
_space_group.IT_coordinate_system_code '2'
_symmetry_cell_setting 'tetragonal'
loop_
_space_group_symop_operation_xyz
x,y,z
1/4-y,3/4+x,1/4+z
-x,1/2-y,z
1/4+y,1/4-x,3/4+z
x,-y,1/2-z
1/2-x,y,-z
3/4+y,1/4+x,1/4-z
1/4-y,1/4-x,1/4-z
-x,-y,-z
3/4+y,1/4-x,3/4-z
x,1/2+y,-z
3/4-y,3/4+x,1/4-z
-x,y,1/2+z
1/2+x,-y,z
1/4-y,3/4-x,3/4+z
3/4+y,3/4+x,3/4+z
1/2+x,1/2+y,1/2+z
3/4-y,1/4+x,3/4+z
1/2-x,-y,1/2+z
3/4+y,3/4-x,1/4+z
1/2+x,1/2-y,-z
-x,1/2+y,1/2-z
1/4+y,3/4+x,3/4-z
3/4-y,3/4-x,3/4-z
1/2-x,1/2-y,1/2-z
1/4+y,3/4-x,1/4-z
1/2+x,y,1/2-z
1/4-y,1/4+x,3/4-z
1/2-x,1/2+y,z
x,1/2-y,1/2+z
3/4-y,1/4-x,1/4+z
1/4+y,1/4+x,1/4+z
loop_
_atom_site_type_symbol
_atom_site_label
_atom_site_fract_x
_atom_site_fract_y
_atom_site_fract_z
Si Si1 0.250000 0.034369 0.500000
Si Si2 0.263910 0.285941 0.827663
Si Si3 0.807623 0.413181 0.352832
Si Si4 0.544768 0.415332 0.642184
Si Si5 0.095810 0.154191 0.625000
Si Si6 0.954212 0.812464 0.218713
O O1 0.207723 0.074181 0.439689
O O2 0.205696 0.989650 0.551836
O O3 0.250000 0.250000 0.750000
O O4 0.208689 0.339954 0.833563
O O5 0.238607 0.231170 0.882909
O O6 0.329824 0.324455 0.851659
O O7 0.881793 0.423714 0.332137
O O8 0.552686 0.365977 0.571118
O O9 0.493899 0.374373 0.689555
O O10 0.056494 0.175489 0.695975
O O11 0.000000 0.750000 0.206335
#
# Coordination Sequence:
#
# PCOD9574016 Si02
#       6
#    16  32  32  32  16  32
#     4  10  24  44  68  98 144 190 244 310 378 444
#     4  12  25  44  71 109 147 189 246 309 372 449
#     4  11  24  43  70 102 142 189 246 306 376 448
#     4  12  23  43  75  96 142 193 242 294 376 452
#     4  12  29  42  74 112 142 186 250 311 374 444
#     4  12  23  46  69 104 139 192 239 297 373 450
#
# _framework density 20.810949000000001
#
# number of rings (size 3 to 8) (size 9 to 14) (size 15 to 20)
#    0.000    0.400    6.000    2.700    2.800    2.400 
#    0.000    0.000    0.000    0.000    0.000    0.000 
#    0.000    0.000    0.000    0.000    0.000    0.000 
#
# Total GULP energy -445963.618033 kJ/mol
# GULP energy per Si atom -5574.545225 kJ/mol
# Density = 2.076358 g / cm^3
# Si number density = 20.810949 Si / 1000 Ang^3
#
#
#
# Elastic Constant Matrix: (Units=GPa)
#
#
# Indices 1 2 3 4 5 6 
#
# 1 115.1704 38.4601 31.2931 0.0000 0.0000 0.0000
# 2 38.4601 115.1692 31.2924 0.0000 0.0000 0.0000
# 3 31.2931 31.2924 125.6723 0.0000 0.0000 0.0000
# 4 0.0000 0.0000 0.0000 20.9042 0.0000 0.0000
# 5 0.0000 0.0000 0.0000 0.0000 20.9039 0.0000
# 6 0.0000 0.0000 0.0000 0.0000 0.0000 40.6285
#
#
#
# Elastic Compliance Matrix: (Units=1/GPa)
#
#
# Indices 1 2 3 4 5 6 
#
# 1 0.010140 -0.002896 -0.001804 0.000000 0.000000 0.000000
# 2 -0.002896 0.010140 -0.001804 0.000000 0.000000 0.000000
# 3 -0.001804 -0.001804 0.008855 0.000000 0.000000 0.000000
# 4 0.000000 0.000000 0.000000 0.047837 0.000000 0.000000
# 5 0.000000 0.000000 0.000000 0.000000 0.047838 0.000000
# 6 0.000000 0.000000 0.000000 0.000000 0.000000 0.024613
#
#
# Mechanical properties :
#
#
# Convention : Reuss Voigt Hill
#
# Bulk Modulus (GPa) = 62.00263 62.01147 62.00705
# Shear Modulus (GPa) = 29.79601 33.48505 31.64053
#
# Velocity S-wave (km/s) = 3.78795 4.01560 3.90343
# Velocity P-wave (km/s) = 6.99924 7.16675 7.08349
#
# Compressibility (1/GPa) = 0.01612835
#
# Stress axis : x y z
#
# Youngs Moduli (GPa) = 98.61907 98.61830 112.92424
#
# Poissons Ratio (x) = 0.28561 0.20369
# Poissons Ratio (y) = 0.28561 0.20369
# Poissons Ratio (z) = 0.17789 0.17788
#
# Static dielectric constant tensor:
#      x y z
#    x 1.762180 0.000000 0.000000 
#    y 0.000000 1.762190 0.000000 
#    z 0.000000 0.000000 1.775150 
# 
# From -- ./inp_files/7463.got.cif
#   From: 2010.05.17/outbox.cif.g08.bks.cpg/sg142_4_cif.got.tgz:7463.got - 2010.05.20 13:39:18.
