data_PCOD9574826
_publ_section_title
;
Structure prediction by ZEFSAII (Michael W. Deem and Ramdas Pophale) SiO2 
 PCOD9574826
Probable space group: R 3
;
_chemical_formula_sum "Si O2"
_cell_formula_units_Z 42
_cell_length_a 14.333970
_cell_length_b 14.333970
_cell_length_c 11.534017
_cell_angle_alpha 90.000000
_cell_angle_beta 90.000000
_cell_angle_gamma 120.000000
_cell_volume 2052.315860
_symmetry_space_group_name_H-M "R 3"
_symmetry_group_IT_number 146
_symmetry_cell_setting 'hexagonal'
loop_
_space_group_symop_operation_xyz
x,y,z
-y,x-y,z
-x+y,-x,z
2/3+x,1/3+y,1/3+z
2/3-y,1/3+x-y,1/3+z
2/3-x+y,1/3-x,1/3+z
1/3+x,2/3+y,2/3+z
1/3-y,2/3+x-y,2/3+z
1/3-x+y,2/3-x,2/3+z
loop_
_atom_site_type_symbol
_atom_site_label
_atom_site_fract_x
_atom_site_fract_y
_atom_site_fract_z
Si Si1 0.333335 0.666668 0.803747
Si Si2 0.695617 0.945030 0.176260
Si Si3 0.000000 0.000000 0.416565
Si Si4 0.087665 0.847991 0.433936
Si Si5 0.245668 0.818675 0.786365
Si Si6 0.611697 0.582747 0.710707
O O1 0.317367 0.763241 0.764310
O O2 0.333334 0.666667 0.943489
O O3 0.734923 0.934282 0.303307
O O4 0.666665 0.833332 0.110153
O O5 0.791179 0.052486 0.116938
O O6 0.590444 0.958610 0.180514
O O7 0.096572 0.112542 0.456000
O O8 0.265081 0.065724 0.250327
O O9 0.208822 0.947511 0.436691
O O10 0.298501 0.923775 0.706453
#
# Coordination Sequence:
#
# PCOD9574826 Si02
#       6
#     3   9   3   9   9   9
#     4  12  15  36  63  87 111 153 214 252 276 351
#     4  12  22  39  64  93 121 161 208 256 302 355
#     4  12  15  36  63  87 111 153 214 252 276 351
#     4  12  23  38  63  92 124 159 204 255 305 361
#     4  12  23  38  63  92 124 159 204 255 305 361
#     4  12  22  39  64  93 121 161 208 256 302 355
#
# _framework density 20.464686
#
# number of rings (size 3 to 8) (size 9 to 14) (size 15 to 20)
#    0.000    0.000   12.857    0.000    0.000    1.714 
#    0.000    0.000    0.000    0.857    0.000    0.000 
#    0.000    0.000    0.000    0.000    0.000    0.000 
#
# Total GULP energy -78154.929563 kJ/mol
# GULP energy per Si atom -5582.494969 kJ/mol
# Density = 2.041811 g / cm^3
# Si number density = 20.464686 Si / 1000 Ang^3
#
#
#
# Elastic Constant Matrix: (Units=GPa)
#
#
# Indices 1 2 3 4 5 6 
#
# 1 156.5525 62.4509 16.4001 4.7753 3.5662 -0.0002
# 2 62.4509 156.5520 16.4002 -4.7755 -3.5666 -0.0003
# 3 16.4001 16.4002 43.6469 -0.0002 -0.0001 0.0001
# 4 4.7753 -4.7755 -0.0002 22.2836 0.0000 -3.5667
# 5 3.5662 -3.5666 -0.0001 0.0000 22.2834 4.7752
# 6 -0.0002 -0.0003 0.0001 -3.5667 4.7752 47.0509
#
#
#
# Elastic Compliance Matrix: (Units=1/GPa)
#
#
# Indices 1 2 3 4 5 6 
#
# 1 0.007919 -0.003081 -0.001818 -0.002357 -0.001760 0.000000
# 2 -0.003081 0.007919 -0.001818 0.002357 0.001760 0.000000
# 3 -0.001818 -0.001818 0.024277 0.000000 0.000000 0.000000
# 4 -0.002357 0.002357 0.000000 0.046450 0.000000 0.003521
# 5 -0.001760 0.001760 0.000000 0.000000 0.046450 -0.004714
# 6 0.000000 0.000000 0.000000 0.003521 -0.004714 0.021999
#
#
# Mechanical properties :
#
#
# Convention : Reuss Voigt Hill
#
# Bulk Modulus (GPa) = 37.47829 60.80599 49.14214
# Shear Modulus (GPa) = 28.19415 35.75691 31.97553
#
# Velocity S-wave (km/s) = 3.71576 4.18455 3.95710
# Velocity P-wave (km/s) = 6.06321 7.28865 6.70399
#
# Compressibility (1/GPa) = 0.02668211
#
# Stress axis : x y z
#
# Youngs Moduli (GPa) = 126.27921 126.27862 41.19066
#
# Poissons Ratio (x) = 0.38901 0.07489
# Poissons Ratio (y) = 0.38901 0.07489
# Poissons Ratio (z) = 0.22958 0.22958
#
# Static dielectric constant tensor:
#      x y z
#    x 1.770110 0.000000 0.000000 
#    y 0.000000 1.770110 0.000000 
#    z 0.000000 0.000000 1.721130 
# 
# From -- ./inp_files/1452.got.cif
#   From: 2010.05.17/outbox.cif.g08.bks.cpg/sg146_cif.got.tgz:1452.got - 2010.05.20 13:48:23.
