data_PCOD9574080
_publ_section_title
;
Structure prediction by ZEFSAII (Michael W. Deem and Ramdas Pophale) SiO2 
 PCOD9574080
Probable space group: I 41/A C D
;
_chemical_formula_sum "Si O2"
_cell_formula_units_Z 160
_cell_length_a 22.734843
_cell_length_b 22.734843
_cell_length_c 15.157931
_cell_angle_alpha 90.000000
_cell_angle_beta 90.000000
_cell_angle_gamma 90.000000
_cell_volume 7834.726577
_symmetry_space_group_name_H-M "I 41/A C D"
_symmetry_group_IT_number 142
_space_group.IT_coordinate_system_code '2'
_symmetry_cell_setting 'tetragonal'
loop_
_space_group_symop_operation_xyz
x,y,z
1/4-y,3/4+x,1/4+z
-x,1/2-y,z
1/4+y,1/4-x,3/4+z
x,-y,1/2-z
1/2-x,y,-z
3/4+y,1/4+x,1/4-z
1/4-y,1/4-x,1/4-z
-x,-y,-z
3/4+y,1/4-x,3/4-z
x,1/2+y,-z
3/4-y,3/4+x,1/4-z
-x,y,1/2+z
1/2+x,-y,z
1/4-y,3/4-x,3/4+z
3/4+y,3/4+x,3/4+z
1/2+x,1/2+y,1/2+z
3/4-y,1/4+x,3/4+z
1/2-x,-y,1/2+z
3/4+y,3/4-x,1/4+z
1/2+x,1/2-y,-z
-x,1/2+y,1/2-z
1/4+y,3/4+x,3/4-z
3/4-y,3/4-x,3/4-z
1/2-x,1/2-y,1/2-z
1/4+y,3/4-x,1/4-z
1/2+x,y,1/2-z
1/4-y,1/4+x,3/4-z
1/2-x,1/2+y,z
x,1/2-y,1/2+z
3/4-y,1/4-x,1/4+z
1/4+y,1/4+x,1/4+z
loop_
_atom_site_type_symbol
_atom_site_label
_atom_site_fract_x
_atom_site_fract_y
_atom_site_fract_z
Si Si1 0.214377 0.453089 0.314950
Si Si2 0.549858 0.566004 0.718808
Si Si3 0.903378 0.728119 0.628365
Si Si4 0.826577 0.602354 0.229979
Si Si5 0.318089 0.236609 0.770796
O O1 0.183417 0.500000 0.250000
O O2 0.256415 0.493586 0.375000
O O3 0.260976 0.413499 0.262732
O O4 0.172377 0.418467 0.380698
O O5 0.537010 0.500000 0.750000
O O6 0.531599 0.611920 0.793841
O O7 0.621215 0.572674 0.713133
O O8 0.518362 0.577317 0.625778
O O9 0.932954 0.792505 0.622331
O O10 0.862810 0.723021 0.715727
O O11 0.831526 0.671438 0.235505
O O12 0.250000 0.250000 0.750000
#
# Coordination Sequence:
#
# PCOD9574080 Si02
#       5
#    32  32  32  32  32
#     4   9  18  34  57  92 133 171 213 268 339 419
#     4  12  23  42  72 102 137 182 231 295 349 410
#     4  11  26  48  71 101 142 186 234 289 348 425
#     4  11  21  37  65  98 132 177 229 280 347 421
#     4  12  25  43  68 101 135 176 237 292 353 419
#
# _framework density 20.421899
#
# number of rings (size 3 to 8) (size 9 to 14) (size 15 to 20)
#    0.000    1.000    4.000    4.800    0.000    0.800 
#    3.600    2.000    4.400    0.000    0.000    0.000 
#    0.000    0.000    0.000    0.000    0.000    0.000 
#
# Total GULP energy -447036.114248 kJ/mol
# GULP energy per Si atom -5587.951428 kJ/mol
# Density = 2.037542 g / cm^3
# Si number density = 20.421899 Si / 1000 Ang^3
#
#
#
# Elastic Constant Matrix: (Units=GPa)
#
#
# Indices 1 2 3 4 5 6 
#
# 1 82.3513 23.0654 50.1132 0.0000 0.0000 0.0000
# 2 23.0654 82.3508 50.1133 0.0000 0.0000 0.0000
# 3 50.1132 50.1133 140.3883 0.0000 0.0000 0.0000
# 4 0.0000 0.0000 0.0000 35.3155 0.0000 0.0000
# 5 0.0000 0.0000 0.0000 0.0000 35.3156 0.0000
# 6 0.0000 0.0000 0.0000 0.0000 0.0000 15.8627
#
#
#
# Elastic Compliance Matrix: (Units=1/GPa)
#
#
# Indices 1 2 3 4 5 6 
#
# 1 0.015614 -0.001254 -0.005126 0.000000 0.000000 0.000000
# 2 -0.001254 0.015614 -0.005126 0.000000 0.000000 0.000000
# 3 -0.005126 -0.005126 0.010783 0.000000 0.000000 0.000000
# 4 0.000000 0.000000 0.000000 0.028316 0.000000 0.000000
# 5 0.000000 0.000000 0.000000 0.000000 0.028316 0.000000
# 6 0.000000 0.000000 0.000000 0.000000 0.000000 0.063041
#
#
# Mechanical properties :
#
#
# Convention : Reuss Voigt Hill
#
# Bulk Modulus (GPa) = 52.63568 61.29712 56.96640
# Shear Modulus (GPa) = 26.17428 29.41865 27.79646
#
# Velocity S-wave (km/s) = 3.58394 3.79957 3.69333
# Velocity P-wave (km/s) = 6.55410 7.02350 6.79285
#
# Compressibility (1/GPa) = 0.01899852
#
# Stress axis : x y z
#
# Youngs Moduli (GPa) = 64.04707 64.04648 92.74230
#
# Poissons Ratio (x) = 0.08031 0.47538
# Poissons Ratio (y) = 0.08031 0.47539
# Poissons Ratio (z) = 0.32829 0.32830
#
# Static dielectric constant tensor:
#      x y z
#    x 1.738420 0.000000 0.000000 
#    y 0.000000 1.738420 0.000000 
#    z 0.000000 0.000000 1.766570 
# 
# From -- ./inp_files/5443.got.cif
#   From: 2010.05.17/outbox.cif.g08.bks.cpg/sg142_3_cif.got.tgz:5443.got - 2010.05.20 13:39:18.
