data_PCOD9574039
_publ_section_title
;
Structure prediction by ZEFSAII (Michael W. Deem and Ramdas Pophale) SiO2 
 PCOD9574039
Probable space group: I 41/A C D
;
_chemical_formula_sum "Si O2"
_cell_formula_units_Z 160
_cell_length_a 20.497146
_cell_length_b 20.497146
_cell_length_c 17.875835
_cell_angle_alpha 90.000000
_cell_angle_beta 90.000000
_cell_angle_gamma 90.000000
_cell_volume 7510.228081
_symmetry_space_group_name_H-M "I 41/A C D"
_symmetry_group_IT_number 142
_space_group.IT_coordinate_system_code '2'
_symmetry_cell_setting 'tetragonal'
loop_
_space_group_symop_operation_xyz
x,y,z
1/4-y,3/4+x,1/4+z
-x,1/2-y,z
1/4+y,1/4-x,3/4+z
x,-y,1/2-z
1/2-x,y,-z
3/4+y,1/4+x,1/4-z
1/4-y,1/4-x,1/4-z
-x,-y,-z
3/4+y,1/4-x,3/4-z
x,1/2+y,-z
3/4-y,3/4+x,1/4-z
-x,y,1/2+z
1/2+x,-y,z
1/4-y,3/4-x,3/4+z
3/4+y,3/4+x,3/4+z
1/2+x,1/2+y,1/2+z
3/4-y,1/4+x,3/4+z
1/2-x,-y,1/2+z
3/4+y,3/4-x,1/4+z
1/2+x,1/2-y,-z
-x,1/2+y,1/2-z
1/4+y,3/4+x,3/4-z
3/4-y,3/4-x,3/4-z
1/2-x,1/2-y,1/2-z
1/4+y,3/4-x,1/4-z
1/2+x,y,1/2-z
1/4-y,1/4+x,3/4-z
1/2-x,1/2+y,z
x,1/2-y,1/2+z
3/4-y,1/4-x,1/4+z
1/4+y,1/4+x,1/4+z
loop_
_atom_site_type_symbol
_atom_site_label
_atom_site_fract_x
_atom_site_fract_y
_atom_site_fract_z
Si Si1 0.057389 0.197716 0.466136
Si Si2 0.961658 0.012899 0.078480
Si Si3 0.290813 0.959188 0.625000
Si Si4 0.663304 0.286255 0.098437
Si Si5 0.405315 0.344686 0.875000
Si Si6 0.677194 0.908760 0.286336
O O1 0.047410 0.128219 0.425257
O O2 0.124360 0.227022 0.436785
O O3 0.067328 0.191213 0.553197
O O4 0.000000 0.250000 0.451408
O O5 0.926588 0.080161 0.104852
O O6 0.903675 0.960995 0.071392
O O7 0.015059 0.987284 0.137750
O O8 0.000000 0.000000 0.000000
O O9 0.303459 0.914550 0.698531
O O10 0.220195 0.950081 0.586841
O O11 0.656462 0.349743 0.047536
#
# Coordination Sequence:
#
# PCOD9574039 Si02
#       6
#    32  32  16  32  16  32
#     4  12  23  47  70 105 143 194 245 303 379 457
#     4  12  25  46  73 107 154 193 249 316 382 450
#     4  10  25  44  72 101 141 194 250 308 381 456
#     4  12  23  45  76  98 144 200 243 304 384 458
#     4  12  30  42  72 117 142 194 257 315 377 456
#     4  11  24  47  72 105 145 194 252 313 381 464
#
# _framework density 21.304279999999999
#
# number of rings (size 3 to 8) (size 9 to 14) (size 15 to 20)
#    0.000    0.400    6.000    2.100    0.000    5.600 
#    0.000    0.000    0.000    0.000    0.000    0.000 
#    0.000    0.000    0.000    0.000    0.000    0.000 
#
# Total GULP energy -446252.261483 kJ/mol
# GULP energy per Si atom -5578.153269 kJ/mol
# Density = 2.125579 g / cm^3
# Si number density = 21.304280 Si / 1000 Ang^3
#
#
#
# Elastic Constant Matrix: (Units=GPa)
#
#
# Indices 1 2 3 4 5 6 
#
# 1 82.7876 55.9410 32.7615 0.0000 0.0000 0.0000
# 2 55.9410 82.7886 32.7609 0.0000 0.0000 0.0000
# 3 32.7615 32.7609 155.8895 0.0000 0.0000 0.0000
# 4 0.0000 0.0000 0.0000 24.0820 0.0000 0.0000
# 5 0.0000 0.0000 0.0000 0.0000 24.0817 0.0000
# 6 0.0000 0.0000 0.0000 0.0000 0.0000 36.4326
#
#
#
# Elastic Compliance Matrix: (Units=1/GPa)
#
#
# Indices 1 2 3 4 5 6 
#
# 1 0.022625 -0.014623 -0.001682 0.000000 0.000000 0.000000
# 2 -0.014623 0.022625 -0.001682 0.000000 0.000000 0.000000
# 3 -0.001682 -0.001682 0.007122 0.000000 0.000000 0.000000
# 4 0.000000 0.000000 0.000000 0.041525 0.000000 0.000000
# 5 0.000000 0.000000 0.000000 0.000000 0.041525 0.000000
# 6 0.000000 0.000000 0.000000 0.000000 0.000000 0.027448
#
#
# Mechanical properties :
#
#
# Convention : Reuss Voigt Hill
#
# Bulk Modulus (GPa) = 60.97669 62.71026 61.84348
# Shear Modulus (GPa) = 24.47267 30.25274 27.36271
#
# Velocity S-wave (km/s) = 3.39296 3.77242 3.58771
# Velocity P-wave (km/s) = 6.63577 6.96235 6.80102
#
# Compressibility (1/GPa) = 0.01639971
#
# Stress axis : x y z
#
# Youngs Moduli (GPa) = 44.19793 44.19869 140.41625
#
# Poissons Ratio (x) = 0.64630 0.23617
# Poissons Ratio (y) = 0.64629 0.23614
# Poissons Ratio (z) = 0.07434 0.07433
#
# Static dielectric constant tensor:
#      x y z
#    x 1.791230 0.000000 0.000000 
#    y 0.000000 1.791230 0.000000 
#    z 0.000000 0.000000 1.794770 
# 
# From -- ./inp_files/7469.got.cif
#   From: 2010.05.17/outbox.cif.g08.bks.cpg/sg142_4_cif.got.tgz:7469.got - 2010.05.20 13:39:18.
