data_PCOD9574038
_publ_section_title
;
Structure prediction by ZEFSAII (Michael W. Deem and Ramdas Pophale) SiO2 
 PCOD9574038
Probable space group: I 41/A C D
;
_chemical_formula_sum "Si O2"
_cell_formula_units_Z 176
_cell_length_a 18.832714
_cell_length_b 18.832714
_cell_length_c 20.283433
_cell_angle_alpha 90.000000
_cell_angle_beta 90.000000
_cell_angle_gamma 90.000000
_cell_volume 7193.947831
_symmetry_space_group_name_H-M "I 41/A C D"
_symmetry_group_IT_number 142
_space_group.IT_coordinate_system_code '2'
_symmetry_cell_setting 'tetragonal'
loop_
_space_group_symop_operation_xyz
x,y,z
1/4-y,3/4+x,1/4+z
-x,1/2-y,z
1/4+y,1/4-x,3/4+z
x,-y,1/2-z
1/2-x,y,-z
3/4+y,1/4+x,1/4-z
1/4-y,1/4-x,1/4-z
-x,-y,-z
3/4+y,1/4-x,3/4-z
x,1/2+y,-z
3/4-y,3/4+x,1/4-z
-x,y,1/2+z
1/2+x,-y,z
1/4-y,3/4-x,3/4+z
3/4+y,3/4+x,3/4+z
1/2+x,1/2+y,1/2+z
3/4-y,1/4+x,3/4+z
1/2-x,-y,1/2+z
3/4+y,3/4-x,1/4+z
1/2+x,1/2-y,-z
-x,1/2+y,1/2-z
1/4+y,3/4+x,3/4-z
3/4-y,3/4-x,3/4-z
1/2-x,1/2-y,1/2-z
1/4+y,3/4-x,1/4-z
1/2+x,y,1/2-z
1/4-y,1/4+x,3/4-z
1/2-x,1/2+y,z
x,1/2-y,1/2+z
3/4-y,1/4-x,1/4+z
1/4+y,1/4+x,1/4+z
loop_
_atom_site_type_symbol
_atom_site_label
_atom_site_fract_x
_atom_site_fract_y
_atom_site_fract_z
Si Si1 0.401205 0.027471 0.176441
Si Si2 0.479172 0.918186 0.502298
Si Si3 0.249082 0.500918 0.875000
Si Si4 0.002674 0.102596 0.150731
Si Si5 0.177591 0.104933 0.031069
Si Si6 0.049562 0.680863 0.217573
O O1 0.439338 0.104444 0.181233
O O2 0.378626 0.000000 0.250000
O O3 0.332456 0.018065 0.129539
O O4 0.457906 0.969248 0.155064
O O5 0.495915 0.881664 0.573308
O O6 0.395239 0.906500 0.491175
O O7 0.533393 0.876174 0.457146
O O8 0.500000 0.000000 0.500000
O O9 0.204567 0.532892 0.935738
O O10 0.083249 0.088017 0.168104
O O11 0.974145 0.154540 0.208461
O O12 0.250000 0.133400 0.000000
O O13 0.000000 0.750000 0.201508
#
# Coordination Sequence:
#
# PCOD9574038 Si02
#       6
#    32  32  16  32  32  32
#     4  10  25  43  69 103 141 188 239 295 369 431
#     4  12  26  43  71 108 140 181 242 293 344 437
#     4  12  24  44  68 101 145 184 238 296 362 434
#     4  11  24  46  70 103 139 186 234 296 358 424
#     4  12  25  44  69  98 142 185 231 288 360 419
#     4  11  23  43  74 102 143 185 238 298 363 426
#
# _framework density 24.465008000000001
#
# number of rings (size 3 to 8) (size 9 to 14) (size 15 to 20)
#    0.000    0.727    3.636    3.818    7.636    0.727 
#    0.000    0.000    0.000    0.000    0.000    0.000 
#    0.000    0.000    0.000    0.000    0.000    0.000 
#
# Total GULP energy -491009.604497 kJ/mol
# GULP energy per Si atom -5579.654597 kJ/mol
# Density = 2.440932 g / cm^3
# Si number density = 24.465008 Si / 1000 Ang^3
#
#
#
# Elastic Constant Matrix: (Units=GPa)
#
#
# Indices 1 2 3 4 5 6 
#
# 1 158.0132 94.0084 19.1445 0.0000 0.0000 0.0000
# 2 94.0084 158.0124 19.1450 0.0000 0.0000 0.0000
# 3 19.1445 19.1450 50.2992 0.0000 0.0000 0.0000
# 4 0.0000 0.0000 0.0000 21.3769 0.0000 0.0000
# 5 0.0000 0.0000 0.0000 0.0000 21.3763 0.0000
# 6 0.0000 0.0000 0.0000 0.0000 0.0000 34.3396
#
#
#
# Elastic Compliance Matrix: (Units=1/GPa)
#
#
# Indices 1 2 3 4 5 6 
#
# 1 0.009918 -0.005706 -0.001603 0.000000 0.000000 0.000000
# 2 -0.005706 0.009918 -0.001603 0.000000 0.000000 0.000000
# 3 -0.001603 -0.001603 0.021101 0.000000 0.000000 0.000000
# 4 0.000000 0.000000 0.000000 0.046780 0.000000 0.000000
# 5 0.000000 0.000000 0.000000 0.000000 0.046781 0.000000
# 6 0.000000 0.000000 0.000000 0.000000 0.000000 0.029121
#
#
# Mechanical properties :
#
#
# Convention : Reuss Voigt Hill
#
# Bulk Modulus (GPa) = 43.26689 70.10227 56.68458
# Shear Modulus (GPa) = 26.43458 31.02035 28.72747
#
# Velocity S-wave (km/s) = 3.29067 3.56469 3.43042
# Velocity P-wave (km/s) = 5.67112 6.75714 6.23781
#
# Compressibility (1/GPa) = 0.02311236
#
# Stress axis : x y z
#
# Youngs Moduli (GPa) = 100.83036 100.82960 47.39055
#
# Poissons Ratio (x) = 0.57536 0.07596
# Poissons Ratio (y) = 0.57536 0.07597
# Poissons Ratio (z) = 0.16162 0.16163
#
# Static dielectric constant tensor:
#      x y z
#    x 1.974000 0.000000 0.000000 
#    y 0.000000 1.974000 0.000000 
#    z 0.000000 0.000000 2.006870 
# 
# From -- ./inp_files/11431.got.cif
#   From: 2010.05.17/outbox.cif.g08.bks.cpg/sg142_6_cif.got.tgz:11431.got - 2010.05.20 13:39:18.
