data_PCOD9574156
_publ_section_title
;
Structure prediction by ZEFSAII (Michael W. Deem and Ramdas Pophale) SiO2 
 PCOD9574156
Probable space group: I 41/A C D
;
_chemical_formula_sum "Si O2"
_cell_formula_units_Z 176
_cell_length_a 26.240424
_cell_length_b 26.240424
_cell_length_c 12.413832
_cell_angle_alpha 90.000000
_cell_angle_beta 90.000000
_cell_angle_gamma 90.000000
_cell_volume 8547.666321
_symmetry_space_group_name_H-M "I 41/A C D"
_symmetry_group_IT_number 142
_space_group.IT_coordinate_system_code '2'
_symmetry_cell_setting 'tetragonal'
loop_
_space_group_symop_operation_xyz
x,y,z
1/4-y,3/4+x,1/4+z
-x,1/2-y,z
1/4+y,1/4-x,3/4+z
x,-y,1/2-z
1/2-x,y,-z
3/4+y,1/4+x,1/4-z
1/4-y,1/4-x,1/4-z
-x,-y,-z
3/4+y,1/4-x,3/4-z
x,1/2+y,-z
3/4-y,3/4+x,1/4-z
-x,y,1/2+z
1/2+x,-y,z
1/4-y,3/4-x,3/4+z
3/4+y,3/4+x,3/4+z
1/2+x,1/2+y,1/2+z
3/4-y,1/4+x,3/4+z
1/2-x,-y,1/2+z
3/4+y,3/4-x,1/4+z
1/2+x,1/2-y,-z
-x,1/2+y,1/2-z
1/4+y,3/4+x,3/4-z
3/4-y,3/4-x,3/4-z
1/2-x,1/2-y,1/2-z
1/4+y,3/4-x,1/4-z
1/2+x,y,1/2-z
1/4-y,1/4+x,3/4-z
1/2-x,1/2+y,z
x,1/2-y,1/2+z
3/4-y,1/4-x,1/4+z
1/4+y,1/4+x,1/4+z
loop_
_atom_site_type_symbol
_atom_site_label
_atom_site_fract_x
_atom_site_fract_y
_atom_site_fract_z
Si Si1 0.250000 0.308630 0.500000
Si Si2 0.463567 0.929747 0.277225
Si Si3 0.864517 0.811073 0.309485
Si Si4 0.491086 0.329538 0.600992
Si Si5 0.212214 0.122447 0.820560
Si Si6 0.278110 0.105632 0.609865
O O1 0.293122 0.268068 0.535796
O O2 0.249219 0.346913 0.601829
O O3 0.455619 0.925844 0.149281
O O4 0.468294 0.874075 0.327424
O O5 0.414235 0.954653 0.333886
O O6 0.901368 0.848633 0.375000
O O7 0.896263 0.765567 0.255802
O O8 0.833763 0.840938 0.218403
O O9 0.448493 0.286686 0.584787
O O10 0.241569 0.105533 0.712696
O O11 0.182804 0.075293 0.875282
O O12 0.250000 0.089168 0.500000
#
# Coordination Sequence:
#
# PCOD9574156 Si02
#       6
#    16  32  32  32  32  32
#     4  12  28  46  68 106 144 176 236 294 354 410
#     4  12  24  43  71 106 133 184 234 281 346 419
#     4  12  21  43  72  96 138 185 231 285 338 419
#     4  11  24  41  64 101 144 183 228 281 341 414
#     4  12  26  47  72 105 141 180 237 301 355 421
#     4  12  24  47  76 101 134 186 240 289 352 427
#
# _framework density 20.590415
#
# number of rings (size 3 to 8) (size 9 to 14) (size 15 to 20)
#    0.000    0.182    8.182    0.545    2.545    2.909 
#    4.909    1.818    0.000    0.000    0.000    0.000 
#    0.000    0.000    0.000    0.000    0.000    0.000 
#
# Total GULP energy -491412.171278 kJ/mol
# GULP energy per Si atom -5584.229219 kJ/mol
# Density = 2.054355 g / cm^3
# Si number density = 20.590415 Si / 1000 Ang^3
#
#
#
# Elastic Constant Matrix: (Units=GPa)
#
#
# Indices 1 2 3 4 5 6 
#
# 1 83.6976 28.6494 15.5021 0.0000 0.0000 0.0000
# 2 28.6494 83.6976 15.5018 0.0000 0.0000 0.0000
# 3 15.5021 15.5018 59.9999 0.0000 0.0000 0.0000
# 4 0.0000 0.0000 0.0000 25.0577 0.0000 0.0000
# 5 0.0000 0.0000 0.0000 0.0000 25.0572 0.0000
# 6 0.0000 0.0000 0.0000 0.0000 0.0000 11.5364
#
#
#
# Elastic Compliance Matrix: (Units=1/GPa)
#
#
# Indices 1 2 3 4 5 6 
#
# 1 0.013875 -0.004291 -0.002476 0.000000 0.000000 0.000000
# 2 -0.004291 0.013875 -0.002476 0.000000 0.000000 0.000000
# 3 -0.002476 -0.002476 0.017946 0.000000 0.000000 0.000000
# 4 0.000000 0.000000 0.000000 0.039908 0.000000 0.000000
# 5 0.000000 0.000000 0.000000 0.000000 0.039909 0.000000
# 6 0.000000 0.000000 0.000000 0.000000 0.000000 0.086682
#
#
# Mechanical properties :
#
#
# Convention : Reuss Voigt Hill
#
# Bulk Modulus (GPa) = 36.75135 38.52241 37.63688
# Shear Modulus (GPa) = 20.85491 23.51305 22.18398
#
# Velocity S-wave (km/s) = 3.18598 3.38293 3.28593
# Velocity P-wave (km/s) = 5.60548 5.83168 5.71970
#
# Compressibility (1/GPa) = 0.02720989
#
# Stress axis : x y z
#
# Youngs Moduli (GPa) = 72.07132 72.07149 55.72188
#
# Poissons Ratio (x) = 0.30924 0.13799
# Poissons Ratio (y) = 0.30924 0.13798
# Poissons Ratio (z) = 0.17847 0.17847
#
# Static dielectric constant tensor:
#      x y z
#    x 1.779760 0.000000 0.000000 
#    y 0.000000 1.779770 0.000000 
#    z 0.000000 0.000000 1.714750 
# 
# From -- ./inp_files/4114.got.cif
#   From: 2010.05.17/outbox.cif.g08.bks.cpg/sg142_3_cif.got.tgz:4114.got - 2010.05.20 13:39:18.
