data_PCOD9574022
_publ_section_title
;
Structure prediction by ZEFSAII (Michael W. Deem and Ramdas Pophale) SiO2 
 PCOD9574022
Probable space group: I 41/A C D
;
_chemical_formula_sum "Si O2"
_cell_formula_units_Z 72
_cell_length_a 10.064716
_cell_length_b 10.064716
_cell_length_c 26.229851
_cell_angle_alpha 90.000000
_cell_angle_beta 90.000000
_cell_angle_gamma 90.000000
_cell_volume 2657.044776
_symmetry_space_group_name_H-M "I 41/A C D"
_symmetry_group_IT_number 142
_space_group.IT_coordinate_system_code '2'
_symmetry_cell_setting 'tetragonal'
loop_
_space_group_symop_operation_xyz
x,y,z
1/4-y,3/4+x,1/4+z
-x,1/2-y,z
1/4+y,1/4-x,3/4+z
x,-y,1/2-z
1/2-x,y,-z
3/4+y,1/4+x,1/4-z
1/4-y,1/4-x,1/4-z
-x,-y,-z
3/4+y,1/4-x,3/4-z
x,1/2+y,-z
3/4-y,3/4+x,1/4-z
-x,y,1/2+z
1/2+x,-y,z
1/4-y,3/4-x,3/4+z
3/4+y,3/4+x,3/4+z
1/2+x,1/2+y,1/2+z
3/4-y,1/4+x,3/4+z
1/2-x,-y,1/2+z
3/4+y,3/4-x,1/4+z
1/2+x,1/2-y,-z
-x,1/2+y,1/2-z
1/4+y,3/4+x,3/4-z
3/4-y,3/4-x,3/4-z
1/2-x,1/2-y,1/2-z
1/4+y,3/4-x,1/4-z
1/2+x,y,1/2-z
1/4-y,1/4+x,3/4-z
1/2-x,1/2+y,z
x,1/2-y,1/2+z
3/4-y,1/4-x,1/4+z
1/4+y,1/4+x,1/4+z
loop_
_atom_site_type_symbol
_atom_site_label
_atom_site_fract_x
_atom_site_fract_y
_atom_site_fract_z
Si Si1 0.653088 0.242218 0.797533
Si Si2 0.500000 0.750000 0.375000
Si Si3 0.840490 0.027710 0.811441
O O1 0.500000 0.250000 0.784761
O O2 0.750000 0.250000 0.750000
O O3 0.698815 0.101370 0.818920
O O4 0.678881 0.375674 0.828349
O O5 0.619555 0.693114 0.411450
O O6 0.871025 0.000000 0.750000
#
# Coordination Sequence:
#
# PCOD9574022 Si02
#       3
#    32   8  32
#     4  10  24  45  80 122 172 229 297 365 461 533
#     4  12  28  52  88 128 180 246 300 388 468 550
#     4  10  26  47  83 121 177 231 303 375 452 546
#
# _framework density 27.097774999999999
#
# number of rings (size 3 to 8) (size 9 to 14) (size 15 to 20)
#    0.000    1.778    0.000    0.000   18.667   10.667 
#    0.000    2.222    0.000    0.000    0.000    0.000 
#    0.000    0.000    0.000    0.000    0.000    0.000 
#
# Total GULP energy -200971.823904 kJ/mol
# GULP energy per Si atom -5582.550664 kJ/mol
# Density = 2.703610 g / cm^3
# Si number density = 27.097775 Si / 1000 Ang^3
#
#
#
# Elastic Constant Matrix: (Units=GPa)
#
#
# Indices 1 2 3 4 5 6 
#
# 1 238.8300 116.6177 64.9115 0.0000 0.0000 0.0000
# 2 116.6177 238.8300 64.9115 0.0000 0.0000 0.0000
# 3 64.9115 64.9115 178.0533 0.0000 0.0000 0.0000
# 4 0.0000 0.0000 0.0000 43.1758 0.0000 0.0000
# 5 0.0000 0.0000 0.0000 0.0000 43.1758 0.0000
# 6 0.0000 0.0000 0.0000 0.0000 0.0000 68.4251
#
#
#
# Elastic Compliance Matrix: (Units=1/GPa)
#
#
# Indices 1 2 3 4 5 6 
#
# 1 0.005714 -0.002468 -0.001183 0.000000 0.000000 0.000000
# 2 -0.002468 0.005714 -0.001183 0.000000 0.000000 0.000000
# 3 -0.001183 -0.001183 0.006479 0.000000 0.000000 0.000000
# 4 0.000000 0.000000 0.000000 0.023161 0.000000 0.000000
# 5 0.000000 0.000000 0.000000 0.000000 0.023161 0.000000
# 6 0.000000 0.000000 0.000000 0.000000 0.000000 0.014615
#
#
# Mechanical properties :
#
#
# Convention : Reuss Voigt Hill
#
# Bulk Modulus (GPa) = 121.39992 127.62164 124.51078
# Shear Modulus (GPa) = 54.78896 58.24015 56.51455
#
# Velocity S-wave (km/s) = 4.50143 4.64104 4.57177
# Velocity P-wave (km/s) = 8.48028 8.71309 8.59747
#
# Compressibility (1/GPa) = 0.00823724
#
# Stress axis : x y z
#
# Youngs Moduli (GPa) = 175.00902 175.00901 154.34515
#
# Poissons Ratio (x) = 0.43201 0.18262
# Poissons Ratio (y) = 0.43201 0.18262
# Poissons Ratio (z) = 0.20707 0.20707
#
# Static dielectric constant tensor:
#      x y z
#    x 2.199340 0.000000 0.000000 
#    y 0.000000 2.199340 0.000000 
#    z 0.000000 0.000000 2.395940 
# 
# From -- ./inp_files/11790.got.cif
#   From: 2010.05.17/outbox.cif.g08.bks.cpg/sg142_6_cif.got.tgz:11790.got - 2010.05.20 13:39:18.
