data_PCOD9574204
_publ_section_title
;
Structure prediction by ZEFSAII (Michael W. Deem and Ramdas Pophale) SiO2 
 PCOD9574204
Probable space group: I 41/A C D
;
_chemical_formula_sum "Si O2"
_cell_formula_units_Z 112
_cell_length_a 32.135367
_cell_length_b 32.135367
_cell_length_c 5.133774
_cell_angle_alpha 90.000000
_cell_angle_beta 90.000000
_cell_angle_gamma 90.000000
_cell_volume 5301.555038
_symmetry_space_group_name_H-M "I 41/A C D"
_symmetry_group_IT_number 142
_space_group.IT_coordinate_system_code '2'
_symmetry_cell_setting 'tetragonal'
loop_
_space_group_symop_operation_xyz
x,y,z
1/4-y,3/4+x,1/4+z
-x,1/2-y,z
1/4+y,1/4-x,3/4+z
x,-y,1/2-z
1/2-x,y,-z
3/4+y,1/4+x,1/4-z
1/4-y,1/4-x,1/4-z
-x,-y,-z
3/4+y,1/4-x,3/4-z
x,1/2+y,-z
3/4-y,3/4+x,1/4-z
-x,y,1/2+z
1/2+x,-y,z
1/4-y,3/4-x,3/4+z
3/4+y,3/4+x,3/4+z
1/2+x,1/2+y,1/2+z
3/4-y,1/4+x,3/4+z
1/2-x,-y,1/2+z
3/4+y,3/4-x,1/4+z
1/2+x,1/2-y,-z
-x,1/2+y,1/2-z
1/4+y,3/4+x,3/4-z
3/4-y,3/4-x,3/4-z
1/2-x,1/2-y,1/2-z
1/4+y,3/4-x,1/4-z
1/2+x,y,1/2-z
1/4-y,1/4+x,3/4-z
1/2-x,1/2+y,z
x,1/2-y,1/2+z
3/4-y,1/4-x,1/4+z
1/4+y,1/4+x,1/4+z
loop_
_atom_site_type_symbol
_atom_site_label
_atom_site_fract_x
_atom_site_fract_y
_atom_site_fract_z
Si Si1 0.199992 0.890048 0.479544
Si Si2 0.326965 0.840267 0.021624
Si Si3 0.028971 0.653281 0.379008
Si Si4 0.528618 0.500000 0.250000
O O1 0.250000 0.886429 0.500000
O O2 0.185176 0.935176 0.375000
O O3 0.182143 0.874160 0.754236
O O4 0.178584 0.860668 0.261620
O O5 0.368763 0.814622 0.077139
O O6 0.289972 0.807183 0.028655
O O7 0.052414 0.697587 0.375000
O O8 0.005453 0.648502 0.653129
O O9 0.500000 0.500000 0.500000
#
# Coordination Sequence:
#
# PCOD9574204 Si02
#       4
#    32  32  32  16
#     4  12  24  44  69 100 136 182 229 279 340 407
#     4  12  24  45  68 102 136 176 230 277 348 417
#     4  12  26  45  69  99 135 181 230 284 341 405
#     4  12  22  38  66 100 138 172 210 278 346 418
#
# _framework density 21.125878
#
# number of rings (size 3 to 8) (size 9 to 14) (size 15 to 20)
#    0.000    0.000    2.857    8.571    0.000    1.714 
#    0.000    2.857    0.000    0.000    0.000    0.000 
#    0.000    0.000    0.000    0.000    0.000    0.000 
#
# Total GULP energy -313320.662882 kJ/mol
# GULP energy per Si atom -5595.011837 kJ/mol
# Density = 2.107779 g / cm^3
# Si number density = 21.125878 Si / 1000 Ang^3
#
#
#
# Elastic Constant Matrix: (Units=GPa)
#
#
# Indices 1 2 3 4 5 6 
#
# 1 57.6522 71.1992 25.8244 0.0000 0.0000 0.0000
# 2 71.1992 57.6200 25.8204 0.0000 0.0000 0.0000
# 3 25.8244 25.8204 141.7701 0.0000 0.0000 0.0000
# 4 0.0000 0.0000 0.0000 37.3081 0.0000 0.0000
# 5 0.0000 0.0000 0.0000 0.0000 37.3101 0.0000
# 6 0.0000 0.0000 0.0000 0.0000 0.0000 57.0498
#
#
#
# Elastic Compliance Matrix: (Units=1/GPa)
#
#
# Indices 1 2 3 4 5 6 
#
# 1 -0.032668 0.041051 -0.001526 0.000000 0.000000 0.000000
# 2 0.041051 -0.032687 -0.001524 0.000000 0.000000 0.000000
# 3 -0.001526 -0.001524 0.007609 0.000000 0.000000 0.000000
# 4 0.000000 0.000000 0.000000 0.026804 0.000000 0.000000
# 5 0.000000 0.000000 0.000000 0.000000 0.026802 0.000000
# 6 0.000000 0.000000 0.000000 0.000000 0.000000 0.017529
#
#
# Mechanical properties :
#
#
# Convention : Reuss Voigt Hill
#
# Bulk Modulus (GPa) = 54.77898 55.85895 55.31896
# Shear Modulus (GPa) = -88.45082 35.28015 -26.58534
#
# Velocity S-wave (km/s) = -6.47760 4.09099 -3.55128
# Velocity P-wave (km/s) = 5.47355 6.98666 3.07031
#
# Compressibility (1/GPa) = 0.01825518
#
# Stress axis : x y z
#
# Youngs Moduli (GPa) = -30.61057 -30.59281 131.41897
#
# Poissons Ratio (x) = 1.25587 0.20052
# Poissons Ratio (y) = 1.25660 0.20034
# Poissons Ratio (z) = -0.04671 -0.04664
#
# Static dielectric constant tensor:
#      x y z
#    x 1.769940 0.000000 0.000000 
#    y 0.000000 1.769950 0.000000 
#    z 0.000000 0.000000 1.729320 
# 
# From -- ./inp_files/740.got.cif
#   From: 2010.05.17/outbox.cif.g08.bks.cpg/sg142_1_cif.got.tgz:740.got - 2010.05.20 13:39:18.
