data_PCOD9574669
_publ_section_title
;
Structure prediction by ZEFSAII (Michael W. Deem and Ramdas Pophale) SiO2 
 PCOD9574669
Probable space group: R 3
;
_chemical_formula_sum "Si O2"
_cell_formula_units_Z 51
_cell_length_a 21.512868
_cell_length_b 21.512868
_cell_length_c 8.339622
_cell_angle_alpha 90.000000
_cell_angle_beta 90.000000
_cell_angle_gamma 120.000000
_cell_volume 3342.516986
_symmetry_space_group_name_H-M "R 3"
_symmetry_group_IT_number 146
_symmetry_cell_setting 'hexagonal'
loop_
_space_group_symop_operation_xyz
x,y,z
-y,x-y,z
-x+y,-x,z
2/3+x,1/3+y,1/3+z
2/3-y,1/3+x-y,1/3+z
2/3-x+y,1/3-x,1/3+z
1/3+x,2/3+y,2/3+z
1/3-y,2/3+x-y,2/3+z
1/3-x+y,2/3-x,2/3+z
loop_
_atom_site_type_symbol
_atom_site_label
_atom_site_fract_x
_atom_site_fract_y
_atom_site_fract_z
Si Si1 0.000000 0.000000 0.669975
Si Si2 0.267595 0.527778 0.917204
Si Si3 0.255964 0.923227 0.188665
Si Si4 0.953268 0.419568 0.514389
Si Si5 0.419350 0.954216 0.197084
Si Si6 0.000000 0.000000 0.043521
Si Si7 0.194405 0.599528 0.129654
O O1 0.920132 0.968457 0.601405
O O2 0.000000 0.000000 0.856749
O O3 0.211212 0.449651 0.856107
O O4 0.302601 0.586925 0.778801
O O5 0.223047 0.555614 0.023564
O O6 0.334215 0.536713 0.023336
O O7 0.335412 0.933177 0.205788
O O8 0.215245 0.889649 0.355731
O O9 0.263969 0.001861 0.171968
O O10 0.223252 0.882118 0.021597
O O11 0.999477 0.455462 0.355457
O O12 0.426330 0.883626 0.190373
#
# Coordination Sequence:
#
# PCOD9574669 Si02
#       7
#     3   9   9   9   9   3   9
#     4   9  19  32  49  78 100 143 187 219 256 314
#     4   9  18  34  51  69 112 148 170 217 273 322
#     4  10  18  28  46  78 110 142 154 216 276 314
#     4  11  18  31  49  78 113 133 175 212 272 332
#     4  11  18  31  49  78 113 133 175 212 272 332
#     4   9  19  32  49  78 100 143 187 219 256 314
#     4   9  18  34  51  69 112 148 170 217 273 322
#
# _framework density 15.257963999999999
#
# number of rings (size 3 to 8) (size 9 to 14) (size 15 to 20)
#    0.000    2.118    7.059    1.412    0.000    2.824 
#    0.000    0.000    0.000    0.000    0.000    2.471 
#    0.000    0.000    0.000    0.000    0.000    0.000 
#
# Total GULP energy -94665.881350 kJ/mol
# GULP energy per Si atom -5568.581256 kJ/mol
# Density = 1.522324 g / cm^3
# Si number density = 15.257964 Si / 1000 Ang^3
#
#
#
# Elastic Constant Matrix: (Units=GPa)
#
#
# Indices 1 2 3 4 5 6 
#
# 1 46.7853 20.3615 26.6013 -3.2765 0.1144 0.0101
# 2 20.3615 46.8253 26.6214 3.2639 -0.0217 0.0107
# 3 26.6013 26.6214 140.6751 -0.0048 0.0461 0.0109
# 4 -3.2765 3.2639 -0.0048 11.4897 0.0008 -0.0693
# 5 0.1144 -0.0217 0.0461 0.0008 11.4973 -3.2668
# 6 0.0101 0.0107 0.0109 -0.0693 -3.2668 13.2204
#
#
#
# Elastic Compliance Matrix: (Units=1/GPa)
#
#
# Indices 1 2 3 4 5 6 
#
# 1 0.029111 -0.011584 -0.003312 0.011591 -0.000306 -0.000025
# 2 -0.011584 0.029083 -0.003314 -0.011567 0.000176 -0.000029
# 3 -0.003312 -0.003314 0.008362 0.000000 -0.000008 -0.000004
# 4 0.011591 -0.011567 0.000000 0.093629 -0.000004 0.000491
# 5 -0.000306 0.000176 -0.000008 -0.000004 0.093548 0.023116
# 6 -0.000025 -0.000029 -0.000004 0.000491 0.023116 0.081355
#
#
# Mechanical properties :
#
#
# Convention : Reuss Voigt Hill
#
# Bulk Modulus (GPa) = 33.18152 42.38377 37.78265
# Shear Modulus (GPa) = 13.10428 17.95490 15.52959
#
# Velocity S-wave (km/s) = 2.93379 3.43411 3.19376
# Velocity P-wave (km/s) = 5.76805 6.60020 6.19810
#
# Compressibility (1/GPa) = 0.03013726
#
# Stress axis : x y z
#
# Youngs Moduli (GPa) = 34.35078 34.38401 119.58836
#
# Poissons Ratio (x) = 0.39829 0.39611
# Poissons Ratio (y) = 0.39791 0.39628
# Poissons Ratio (z) = 0.11378 0.11394
#
# Static dielectric constant tensor:
#      x y z
#    x 1.495950 0.000000 -0.000030 
#    y 0.000000 1.495950 -0.000010 
#    z -0.000030 -0.000010 1.548550 
# 
# From -- ./inp_files/735.got.cif
#   From: 2010.05.17/outbox.cif.g08.bks.cpg/sg146_cif.got.tgz:735.got - 2010.05.20 13:48:23.
