data_PCOD9574928
_publ_section_title
;
Structure prediction by ZEFSAII (Michael W. Deem and Ramdas Pophale) SiO2 
 PCOD9574928
Probable space group: P -3
;
_chemical_formula_sum "Si O2"
_cell_formula_units_Z 42
_cell_length_a 19.114557
_cell_length_b 19.114557
_cell_length_c 6.987861
_cell_angle_alpha 90.000000
_cell_angle_beta 90.000000
_cell_angle_gamma 120.000000
_cell_volume 2211.074438
_symmetry_space_group_name_H-M "P -3"
_symmetry_group_IT_number 147
_symmetry_cell_setting 'hexagonal'
loop_
_space_group_symop_operation_xyz
x,y,z
-y,x-y,z
-x+y,-x,z
-x,-y,-z
y,-x+y,-z
x-y,x,-z
loop_
_atom_site_type_symbol
_atom_site_label
_atom_site_fract_x
_atom_site_fract_y
_atom_site_fract_z
Si Si1 0.879043 0.052667 0.556770
Si Si2 0.609874 0.532791 0.662409
Si Si3 0.804686 0.118209 0.282037
Si Si4 0.349079 0.333884 0.045202
Si Si5 0.626906 0.065148 0.642110
Si Si6 0.893960 0.165158 0.896092
Si Si7 0.800369 0.215141 0.598269
O O1 0.808289 0.058317 0.440889
O O2 0.897846 0.100005 0.757749
O O3 0.960670 0.104149 0.434328
O O4 0.623708 0.580031 0.861408
O O5 0.528259 0.448001 0.670012
O O6 0.601385 0.591677 0.507133
O O7 0.689557 0.526807 0.619409
O O8 0.718167 0.090598 0.186109
O O9 0.836155 0.199545 0.403776
O O10 0.860843 0.130248 0.103080
O O11 0.251864 0.280076 0.062788
O O12 0.385335 0.346669 0.835717
O O13 0.705629 0.150138 0.585532
O O14 0.835145 0.187818 0.776904
#
# Coordination Sequence:
#
# PCOD9574928 Si02
#       7
#     6   6   6   6   6   6   6
#     4  11  24  38  53  77 115 158 201 248 299 359
#     4  10  23  39  59  92 121 161 203 239 304 369
#     4  11  21  35  59  83 111 148 198 251 292 348
#     4  11  20  37  60  87 112 150 198 250 296 349
#     4  11  21  39  64  87 124 158 195 252 302 364
#     4  10  22  35  57  85 111 147 198 248 301 345
#     4  10  21  37  59  87 120 153 195 243 299 356
#
# _framework density 18.995290000000001
#
# number of rings (size 3 to 8) (size 9 to 14) (size 15 to 20)
#    0.000    1.429    4.286    1.429    2.000    0.000 
#    0.857    0.000    0.000    1.714    0.000    2.000 
#    0.000    0.000    0.000    0.000    0.000    0.000 
#
# Total GULP energy -234176.295054 kJ/mol
# GULP energy per Si atom -5575.626073 kJ/mol
# Density = 1.895206 g / cm^3
# Si number density = 18.995290 Si / 1000 Ang^3
#
#
#
# Elastic Constant Matrix: (Units=GPa)
#
#
# Indices 1 2 3 4 5 6 
#
# 1 73.0964 33.9626 31.9301 -0.9901 0.0113 0.0000
# 2 33.9626 73.0964 31.9301 0.9901 -0.0113 0.0000
# 3 31.9301 31.9301 111.0454 0.0000 0.0000 0.0000
# 4 -0.9901 0.9901 0.0000 22.4970 0.0000 -0.0113
# 5 0.0113 -0.0113 0.0000 0.0000 22.4970 -0.9901
# 6 0.0000 0.0000 0.0000 -0.0113 -0.9901 19.5669
#
#
#
# Elastic Compliance Matrix: (Units=1/GPa)
#
#
# Indices 1 2 3 4 5 6 
#
# 1 0.018442 -0.007168 -0.003242 0.001127 -0.000013 0.000000
# 2 -0.007168 0.018442 -0.003242 -0.001127 0.000013 0.000000
# 3 -0.003242 -0.003242 0.010870 0.000000 0.000000 0.000000
# 4 0.001127 -0.001127 0.000000 0.044550 0.000000 0.000026
# 5 -0.000013 0.000013 0.000000 0.000000 0.044550 0.002254
# 6 0.000000 0.000000 0.000000 0.000026 0.002254 0.051221
#
#
# Mechanical properties :
#
#
# Convention : Reuss Voigt Hill
#
# Bulk Modulus (GPa) = 48.89727 50.32043 49.60885
# Shear Modulus (GPa) = 22.50276 23.53986 23.02131
#
# Velocity S-wave (km/s) = 3.44561 3.52411 3.48508
# Velocity P-wave (km/s) = 6.45192 6.56564 6.50903
#
# Compressibility (1/GPa) = 0.02045104
#
# Stress axis : x y z
#
# Youngs Moduli (GPa) = 54.22283 54.22283 91.99917
#
# Poissons Ratio (x) = 0.38867 0.29825
# Poissons Ratio (y) = 0.38867 0.29825
# Poissons Ratio (z) = 0.17578 0.17578
#
# Static dielectric constant tensor:
#      x y z
#    x 1.686560 0.000000 0.000000 
#    y 0.000000 1.686560 0.000000 
#    z 0.000000 0.000000 1.674550 
# 
# From -- ./inp_files/249.got.cif
#   From: 2010.05.17/outbox.cif.g08.bks.cpg/sg147_cif.got.tgz:249.got - 2010.05.20 13:49:32.
