data_PCOD9574104
_publ_section_title
;
Structure prediction by ZEFSAII (Michael W. Deem and Ramdas Pophale) SiO2 
 PCOD9574104
Probable space group: I 41/A C D
;
_chemical_formula_sum "Si O2"
_cell_formula_units_Z 168
_cell_length_a 18.905090
_cell_length_b 18.905090
_cell_length_c 22.084055
_cell_angle_alpha 90.000000
_cell_angle_beta 90.000000
_cell_angle_gamma 90.000000
_cell_volume 7892.894875
_symmetry_space_group_name_H-M "I 41/A C D"
_symmetry_group_IT_number 142
_space_group.IT_coordinate_system_code '2'
_symmetry_cell_setting 'tetragonal'
loop_
_space_group_symop_operation_xyz
x,y,z
1/4-y,3/4+x,1/4+z
-x,1/2-y,z
1/4+y,1/4-x,3/4+z
x,-y,1/2-z
1/2-x,y,-z
3/4+y,1/4+x,1/4-z
1/4-y,1/4-x,1/4-z
-x,-y,-z
3/4+y,1/4-x,3/4-z
x,1/2+y,-z
3/4-y,3/4+x,1/4-z
-x,y,1/2+z
1/2+x,-y,z
1/4-y,3/4-x,3/4+z
3/4+y,3/4+x,3/4+z
1/2+x,1/2+y,1/2+z
3/4-y,1/4+x,3/4+z
1/2-x,-y,1/2+z
3/4+y,3/4-x,1/4+z
1/2+x,1/2-y,-z
-x,1/2+y,1/2-z
1/4+y,3/4+x,3/4-z
3/4-y,3/4-x,3/4-z
1/2-x,1/2-y,1/2-z
1/4+y,3/4-x,1/4-z
1/2+x,y,1/2-z
1/4-y,1/4+x,3/4-z
1/2-x,1/2+y,z
x,1/2-y,1/2+z
3/4-y,1/4-x,1/4+z
1/4+y,1/4+x,1/4+z
loop_
_atom_site_type_symbol
_atom_site_label
_atom_site_fract_x
_atom_site_fract_y
_atom_site_fract_z
Si Si1 0.086338 0.663663 0.375000
Si Si2 0.682684 0.311432 0.197093
Si Si3 0.412839 0.080669 0.252350
Si Si4 0.090943 0.083836 0.005131
Si Si5 0.549795 0.604109 0.816809
Si Si6 0.500000 0.750000 0.375000
Si Si7 0.417719 0.332282 0.375000
O O1 0.130423 0.643754 0.434749
O O2 0.095716 0.748207 0.372048
O O3 0.622824 0.370677 0.201222
O O4 0.751868 0.344036 0.228079
O O5 0.658870 0.240661 0.232336
O O6 0.693227 0.291645 0.126833
O O7 0.495984 0.081840 0.235856
O O8 0.388461 0.000000 0.250000
O O9 0.107648 0.129197 0.064751
O O10 0.140322 0.119307 0.954722
O O11 0.526739 0.683896 0.835593
#
# Coordination Sequence:
#
# PCOD9574104 Si02
#       7
#    16  32  32  32  32   8  16
#     4  11  24  40  67  96 142 172 229 284 344 397
#     4  11  24  42  66  98 141 180 220 291 353 411
#     4  12  26  43  66 101 140 187 225 279 353 429
#     4  11  23  41  69 100 134 174 236 286 348 405
#     4  12  22  40  69 102 132 177 236 282 340 410
#     4  12  20  36  68 102 120 164 224 288 326 392
#     4  11  22  40  67  98 130 176 227 298 334 393
#
# _framework density 21.284966000000001
#
# number of rings (size 3 to 8) (size 9 to 14) (size 15 to 20)
#    0.000    0.571    7.619    0.000    2.667    1.524 
#    0.000    3.810    0.000    0.000    0.000    0.000 
#    0.000    0.000    0.000    0.000    0.000    0.000 
#
# Total GULP energy -469104.614528 kJ/mol
# GULP energy per Si atom -5584.578744 kJ/mol
# Density = 2.123652 g / cm^3
# Si number density = 21.284966 Si / 1000 Ang^3
#
#
#
# Elastic Constant Matrix: (Units=GPa)
#
#
# Indices 1 2 3 4 5 6 
#
# 1 57.8031 25.0612 20.6933 0.0000 0.0000 0.0000
# 2 25.0612 57.8048 20.6946 0.0000 0.0000 0.0000
# 3 20.6933 20.6946 115.8953 0.0000 0.0000 0.0000
# 4 0.0000 0.0000 0.0000 19.6469 0.0000 0.0000
# 5 0.0000 0.0000 0.0000 0.0000 19.6470 0.0000
# 6 0.0000 0.0000 0.0000 0.0000 0.0000 12.4581
#
#
#
# Elastic Compliance Matrix: (Units=1/GPa)
#
#
# Indices 1 2 3 4 5 6 
#
# 1 0.021896 -0.008646 -0.002366 0.000000 0.000000 0.000000
# 2 -0.008646 0.021895 -0.002366 0.000000 0.000000 0.000000
# 3 -0.002366 -0.002366 0.009473 0.000000 0.000000 0.000000
# 4 0.000000 0.000000 0.000000 0.050899 0.000000 0.000000
# 5 0.000000 0.000000 0.000000 0.000000 0.050898 0.000000
# 6 0.000000 0.000000 0.000000 0.000000 0.000000 0.080269
#
#
# Mechanical properties :
#
#
# Convention : Reuss Voigt Hill
#
# Bulk Modulus (GPa) = 37.72297 40.48904 39.10601
# Shear Modulus (GPa) = 18.45556 21.35401 19.90478
#
# Velocity S-wave (km/s) = 2.94780 3.17084 3.06135
# Velocity P-wave (km/s) = 5.41732 5.69818 5.55952
#
# Compressibility (1/GPa) = 0.02650905
#
# Stress axis : x y z
#
# Youngs Moduli (GPa) = 45.67144 45.67245 105.55947
#
# Poissons Ratio (x) = 0.39488 0.24972
# Poissons Ratio (y) = 0.39487 0.24974
# Poissons Ratio (z) = 0.10804 0.10806
#
# Static dielectric constant tensor:
#      x y z
#    x 1.760550 0.000000 0.000000 
#    y 0.000000 1.760550 0.000000 
#    z 0.000000 0.000000 1.824970 
# 
# From -- ./inp_files/9097.got.cif
#   From: 2010.05.17/outbox.cif.g08.bks.cpg/sg142_5_cif.got.tgz:9097.got - 2010.05.20 13:39:18.
