data_PCOD9574677
_publ_section_title
;
Structure prediction by ZEFSAII (Michael W. Deem and Ramdas Pophale) SiO2 
 PCOD9574677
Probable space group: R 3
;
_chemical_formula_sum "Si O2"
_cell_formula_units_Z 60
_cell_length_a 15.519278
_cell_length_b 15.519278
_cell_length_c 13.492199
_cell_angle_alpha 90.000000
_cell_angle_beta 90.000000
_cell_angle_gamma 120.000000
_cell_volume 2814.209310
_symmetry_space_group_name_H-M "R 3"
_symmetry_group_IT_number 146
_symmetry_cell_setting 'hexagonal'
loop_
_space_group_symop_operation_xyz
x,y,z
-y,x-y,z
-x+y,-x,z
2/3+x,1/3+y,1/3+z
2/3-y,1/3+x-y,1/3+z
2/3-x+y,1/3-x,1/3+z
1/3+x,2/3+y,2/3+z
1/3-y,2/3+x-y,2/3+z
1/3-x+y,2/3-x,2/3+z
loop_
_atom_site_type_symbol
_atom_site_label
_atom_site_fract_x
_atom_site_fract_y
_atom_site_fract_z
Si Si1 0.183444 0.665966 0.789130
Si Si2 0.333333 0.666666 0.646688
Si Si3 0.287067 1.000000 0.863088
Si Si4 0.827442 0.841332 0.250879
Si Si5 0.508000 0.508000 0.363088
Si Si6 0.174665 0.494109 0.141964
Si Si7 0.666668 0.333334 0.079490
Si Si8 0.999300 0.850111 0.603713
O O1 0.225899 0.637961 0.692554
O O2 0.120743 0.572825 0.860914
O O3 0.277504 0.741473 0.854774
O O4 0.147278 0.740466 0.753543
O O5 0.333334 0.666667 0.529755
O O6 0.309074 0.917810 0.910614
O O7 0.209212 0.934535 0.774687
O O8 0.391264 0.082190 0.815561
O O9 0.274676 0.065464 0.951488
O O10 0.861548 0.861548 0.363088
O O11 0.407133 0.480612 0.305966
O O12 0.239492 0.454076 0.198597
O O13 0.202698 0.591860 0.204735
O O14 0.637963 0.225900 0.033623
#
# Coordination Sequence:
#
# PCOD9574677 Si02
#       8
#     9   3   9   9   9   9   3   9
#     4   9  20  33  55  84 118 148 209 247 312 364
#     4   9  18  33  52  77 103 156 195 249 280 371
#     4  10  20  34  60  84 122 150 200 252 314 364
#     4  10  18  35  59  87 113 156 202 262 302 369
#     4  10  20  36  56  88 116 158 194 260 306 384
#     4  10  18  35  59  87 113 156 202 262 302 369
#     4   9  18  33  52  77 103 156 195 249 280 371
#     4   9  20  33  55  84 118 148 209 247 312 364
#
# _framework density 21.320377000000001
#
# number of rings (size 3 to 8) (size 9 to 14) (size 15 to 20)
#    0.000    2.400    1.500    1.500    2.100    0.000 
#    0.000    0.000    9.900    0.000    0.000    0.000 
#    0.000    0.000    0.000    0.000    0.000    0.000 
#
# Total GULP energy -111353.454336 kJ/mol
# GULP energy per Si atom -5567.672717 kJ/mol
# Density = 2.127185 g / cm^3
# Si number density = 21.320377 Si / 1000 Ang^3
#
#
#
# Elastic Constant Matrix: (Units=GPa)
#
#
# Indices 1 2 3 4 5 6 
#
# 1 46.0458 15.6607 19.7153 0.0630 -0.0002 0.0001
# 2 15.6607 46.0453 19.7153 -0.0629 0.0003 0.0001
# 3 19.7153 19.7153 156.9265 -0.0001 -0.0001 0.0001
# 4 0.0630 -0.0629 -0.0001 11.2380 0.0001 0.0000
# 5 -0.0002 0.0003 -0.0001 0.0001 11.2383 0.0630
# 6 0.0001 0.0001 0.0001 0.0000 0.0630 15.1924
#
#
#
# Elastic Compliance Matrix: (Units=1/GPa)
#
#
# Indices 1 2 3 4 5 6 
#
# 1 0.025266 -0.007646 -0.002214 -0.000185 0.000001 0.000000
# 2 -0.007646 0.025266 -0.002214 0.000184 -0.000001 0.000000
# 3 -0.002214 -0.002214 0.006929 0.000000 0.000000 0.000000
# 4 -0.000185 0.000184 0.000000 0.088986 -0.000001 0.000000
# 5 0.000001 -0.000001 0.000000 -0.000001 0.088984 -0.000369
# 6 0.000000 0.000000 0.000000 0.000000 -0.000369 0.065824
#
#
# Mechanical properties :
#
#
# Convention : Reuss Voigt Hill
#
# Bulk Modulus (GPa) = 30.01690 39.91112 34.96401
# Shear Modulus (GPa) = 14.85858 20.46215 17.66037
#
# Velocity S-wave (km/s) = 2.64279 3.10134 2.88120
# Velocity P-wave (km/s) = 4.83962 5.62003 5.24436
#
# Compressibility (1/GPa) = 0.03331456
#
# Stress axis : x y z
#
# Youngs Moduli (GPa) = 39.57889 39.57847 144.32839
#
# Poissons Ratio (x) = 0.30261 0.31950
# Poissons Ratio (y) = 0.30261 0.31950
# Poissons Ratio (z) = 0.08762 0.08762
#
# Static dielectric constant tensor:
#      x y z
#    x 1.830000 0.000000 0.000000 
#    y 0.000000 1.830010 0.000000 
#    z 0.000000 0.000000 1.848890 
# 
# From -- ./inp_files/1270.got.cif
#   From: 2010.05.17/outbox.cif.g08.bks.cpg/sg146_cif.got.tgz:1270.got - 2010.05.20 13:48:23.
