data_PCOD9574251
_publ_section_title
;
Structure prediction by ZEFSAII (Michael W. Deem and Ramdas Pophale) SiO2 
 PCOD9574251
Probable space group: I 41/A C D
;
_chemical_formula_sum "Si O2"
_cell_formula_units_Z 80
_cell_length_a 21.000000
_cell_length_b 21.000000
_cell_length_c 18.000000
_cell_angle_alpha 90.000000
_cell_angle_beta 90.000000
_cell_angle_gamma 90.000000
_cell_volume 7938.000000
_symmetry_space_group_name_H-M "I 41/A C D"
_symmetry_group_IT_number 142
_space_group.IT_coordinate_system_code '2'
_symmetry_cell_setting 'tetragonal'
loop_
_space_group_symop_operation_xyz
x,y,z
1/4-y,3/4+x,1/4+z
-x,1/2-y,z
1/4+y,1/4-x,3/4+z
x,-y,1/2-z
1/2-x,y,-z
3/4+y,1/4+x,1/4-z
1/4-y,1/4-x,1/4-z
-x,-y,-z
3/4+y,1/4-x,3/4-z
x,1/2+y,-z
3/4-y,3/4+x,1/4-z
-x,y,1/2+z
1/2+x,-y,z
1/4-y,3/4-x,3/4+z
3/4+y,3/4+x,3/4+z
1/2+x,1/2+y,1/2+z
3/4-y,1/4+x,3/4+z
1/2-x,-y,1/2+z
3/4+y,3/4-x,1/4+z
1/2+x,1/2-y,-z
-x,1/2+y,1/2-z
1/4+y,3/4+x,3/4-z
3/4-y,3/4-x,3/4-z
1/2-x,1/2-y,1/2-z
1/4+y,3/4-x,1/4-z
1/2+x,y,1/2-z
1/4-y,1/4+x,3/4-z
1/2-x,1/2+y,z
x,1/2-y,1/2+z
3/4-y,1/4-x,1/4+z
1/4+y,1/4+x,1/4+z
loop_
_atom_site_type_symbol
_atom_site_label
_atom_site_fract_x
_atom_site_fract_y
_atom_site_fract_z
Si Si1 0.624673 0.030743 0.075655
Si Si2 0.800158 0.888312 0.684457
Si Si3 0.912600 0.561421 0.295278
Si Si4 0.935824 0.282024 0.998295
Si Si5 0.641990 0.757578 0.351258
O O1 0.685315 0.065048 0.114635
O O2 0.561227 0.075639 0.085010
O O3 0.608976 0.968461 0.126594
O O4 0.637093 0.010020 0.990516
O O5 0.855683 0.914337 0.741110
O O6 0.808833 0.816889 0.651098
O O7 0.941409 0.500000 0.250000
O O8 0.954707 0.625375 0.301386
O O9 0.967776 0.344895 0.962789
O O10 0.900637 0.248105 0.926684
O O11 0.000000 0.250000 0.029191
#
# Coordination Sequence:
#
# PCOD9574251 Si02
#       5
#    32  32  32  32  32
#     4  11  20  37  57  93 125 165 224 275 332 399
#     4  10  21  33  58  93 119 163 215 275 323 396
#     4   9  18  33  53  85 118 160 212 266 321 387
#     4  11  17  30  57  92 124 166 208 266 330 408
#     4  11  17  32  56  91 128 155 211 264 334 398
#
# _framework density 10.078105000000001
#
# number of rings (size 3 to 8) (size 9 to 14) (size 15 to 20)
#    0.000    1.600    8.000    1.200    0.000    0.000 
#    0.000    0.000    0.000   13.200  114.400    0.000 
#    0.000    0.000    0.000    0.000    0.000    0.000 
#
# Total GULP energy -445614.202514 kJ/mol
# GULP energy per Si atom -5570.177531 kJ/mol
# Density = 1.005517 g / cm^3
# Si number density = 10.078105 Si / 1000 Ang^3
#
#
#
# Elastic Constant Matrix: (Units=GPa)
#
#
# Indices 1 2 3 4 5 6 
#
# 1 92.7883 23.2846 32.7575 0.0000 0.0000 0.0000
# 2 23.2846 92.7883 32.7575 0.0000 0.0000 0.0000
# 3 32.7575 32.7575 63.7129 0.0000 0.0000 0.0000
# 4 0.0000 0.0000 0.0000 21.0450 0.0000 0.0000
# 5 0.0000 0.0000 0.0000 0.0000 21.0450 0.0000
# 6 0.0000 0.0000 0.0000 0.0000 0.0000 37.5551
#
#
#
# Elastic Compliance Matrix: (Units=1/GPa)
#
#
# Indices 1 2 3 4 5 6 
#
# 1 0.013263 -0.001125 -0.006240 0.000000 0.000000 0.000000
# 2 -0.001125 0.013263 -0.006240 0.000000 0.000000 0.000000
# 3 -0.006240 -0.006240 0.022112 0.000000 0.000000 0.000000
# 4 0.000000 0.000000 0.000000 0.047517 0.000000 0.000000
# 5 0.000000 0.000000 0.000000 0.000000 0.047517 0.000000
# 6 0.000000 0.000000 0.000000 0.000000 0.000000 0.026628
#
#
# Mechanical properties :
#
#
# Convention : Reuss Voigt Hill
#
# Bulk Modulus (GPa) = 46.67282 47.43205 47.05244
# Shear Modulus (GPa) = 24.43154 26.62834 25.52994
#
# Velocity S-wave (km/s) = 3.48531 3.63864 3.56280
# Velocity P-wave (km/s) = 6.27713 6.42154 6.34975
#
# Compressibility (1/GPa) = 0.02142575
#
# Stress axis : x y z
#
# Youngs Moduli (GPa) = 75.39974 75.39974 45.22361
#
# Poissons Ratio (x) = 0.08483 0.28221
# Poissons Ratio (y) = 0.08483 0.28221
# Poissons Ratio (z) = 0.47053 0.47053
#
# Static dielectric constant tensor:
#      x y z
#    x 1.783900 0.000000 0.000000 
#    y 0.000000 1.783900 0.000000 
#    z 0.000000 0.000000 1.733090 
# 
# From -- ./inp_files/7364.got.cif
#   From: 2010.05.17/outbox.ucp.g08.bks.cvg/sg142_4_cif.got.tgz:7364.got - 2010.06.11 11:43:53.
