data_PCOD9574002
_publ_section_title
;
Structure prediction by ZEFSAII (Michael W. Deem and Ramdas Pophale) SiO2 
 PCOD9574002
Probable space group: I 41/A C D
;
_chemical_formula_sum "Si O2"
_cell_formula_units_Z 160
_cell_length_a 21.315767
_cell_length_b 21.315767
_cell_length_c 17.490299
_cell_angle_alpha 90.000000
_cell_angle_beta 90.000000
_cell_angle_gamma 90.000000
_cell_volume 7946.925884
_symmetry_space_group_name_H-M "I 41/A C D"
_symmetry_group_IT_number 142
_space_group.IT_coordinate_system_code '2'
_symmetry_cell_setting 'tetragonal'
loop_
_space_group_symop_operation_xyz
x,y,z
1/4-y,3/4+x,1/4+z
-x,1/2-y,z
1/4+y,1/4-x,3/4+z
x,-y,1/2-z
1/2-x,y,-z
3/4+y,1/4+x,1/4-z
1/4-y,1/4-x,1/4-z
-x,-y,-z
3/4+y,1/4-x,3/4-z
x,1/2+y,-z
3/4-y,3/4+x,1/4-z
-x,y,1/2+z
1/2+x,-y,z
1/4-y,3/4-x,3/4+z
3/4+y,3/4+x,3/4+z
1/2+x,1/2+y,1/2+z
3/4-y,1/4+x,3/4+z
1/2-x,-y,1/2+z
3/4+y,3/4-x,1/4+z
1/2+x,1/2-y,-z
-x,1/2+y,1/2-z
1/4+y,3/4+x,3/4-z
3/4-y,3/4-x,3/4-z
1/2-x,1/2-y,1/2-z
1/4+y,3/4-x,1/4-z
1/2+x,y,1/2-z
1/4-y,1/4+x,3/4-z
1/2-x,1/2+y,z
x,1/2-y,1/2+z
3/4-y,1/4-x,1/4+z
1/4+y,1/4+x,1/4+z
loop_
_atom_site_type_symbol
_atom_site_label
_atom_site_fract_x
_atom_site_fract_y
_atom_site_fract_z
Si Si1 0.159056 0.951885 0.094345
Si Si2 0.960492 0.307728 0.757066
Si Si3 0.750000 0.467060 0.000000
Si Si4 0.522399 0.396141 0.623028
Si Si5 0.880223 0.130223 0.125000
Si Si6 0.578474 0.991199 0.837357
O O1 0.087614 0.931476 0.106544
O O2 0.197392 0.888605 0.081521
O O3 0.187596 0.994079 0.025557
O O4 0.178992 0.982823 0.174496
O O5 0.913776 0.274836 0.817567
O O6 0.915176 0.340794 0.697461
O O7 0.000000 0.250000 0.723601
O O8 0.004260 0.360888 0.797076
O O9 0.470760 0.450599 0.614189
O O10 0.898023 0.056834 0.127506
O O11 0.554042 0.000000 0.750000
#
# Coordination Sequence:
#
# PCOD9574002 Si02
#       6
#    32  32  16  32  16  32
#     4  11  23  42  67  99 131 182 223 283 347 410
#     4  12  23  46  68 102 137 182 231 287 341 415
#     4  10  24  42  66  94 142 170 226 286 346 410
#     4  12  23  43  72  93 136 187 226 276 358 415
#     4  12  27  42  74 106 136 178 240 289 344 410
#     4  12  24  44  71  99 137 175 230 290 342 419
#
# _framework density 20.133572000000001
#
# number of rings (size 3 to 8) (size 9 to 14) (size 15 to 20)
#    0.000    0.400    7.000    1.500    4.200    0.800 
#    3.600    0.000    0.000    0.000    0.000    0.000 
#    0.000    0.000    0.000    0.000    0.000    0.000 
#
# Total GULP energy -446298.937514 kJ/mol
# GULP energy per Si atom -5578.736719 kJ/mol
# Density = 2.008775 g / cm^3
# Si number density = 20.133572 Si / 1000 Ang^3
#
#
#
# Elastic Constant Matrix: (Units=GPa)
#
#
# Indices 1 2 3 4 5 6 
#
# 1 -58.9409 170.5809 -6.0162 0.0000 0.0000 0.0000
# 2 170.5809 -58.9409 -6.0162 0.0000 0.0000 0.0000
# 3 -6.0162 -6.0162 54.3996 0.0000 0.0000 0.0000
# 4 0.0000 0.0000 0.0000 25.7447 0.0000 0.0000
# 5 0.0000 0.0000 0.0000 0.0000 25.7447 0.0000
# 6 0.0000 0.0000 0.0000 0.0000 0.0000 39.8880
#
#
#
# Elastic Compliance Matrix: (Units=1/GPa)
#
#
# Indices 1 2 3 4 5 6 
#
# 1 0.002354 0.006711 0.001003 0.000000 0.000000 0.000000
# 2 0.006711 0.002354 0.001003 0.000000 0.000000 0.000000
# 3 0.001003 0.001003 0.018604 0.000000 0.000000 0.000000
# 4 0.000000 0.000000 0.000000 0.038843 0.000000 0.000000
# 5 0.000000 0.000000 0.000000 0.000000 0.038843 0.000000
# 6 0.000000 0.000000 0.000000 0.000000 0.000000 0.025070
#
#
# Mechanical properties :
#
#
# Convention : Reuss Voigt Hill
#
# Bulk Modulus (GPa) = 24.54269 28.17943 26.36106
# Shear Modulus (GPa) = 40.91050 3.47344 22.19197
#
# Velocity S-wave (km/s) = 4.51261 1.31489 3.32360
# Velocity P-wave (km/s) = 6.27439 4.04127 5.27730
#
# Compressibility (1/GPa) = 0.04074533
#
# Stress axis : x y z
#
# Youngs Moduli (GPa) = 424.76062 424.76062 53.75119
#
# Poissons Ratio (x) = -2.85063 -0.05389
# Poissons Ratio (y) = -2.85063 -0.05389
# Poissons Ratio (z) = -0.42585 -0.42585
#
# Static dielectric constant tensor:
#      x y z
#    x 1.724260 0.000000 0.000000 
#    y 0.000000 1.724260 0.000000 
#    z 0.000000 0.000000 1.810410 
# 
# From -- ./inp_files/7431.got.cif
#   From: 2010.05.17/outbox.cif.g08.bks.cpg/sg142_4_cif.got.tgz:7431.got - 2010.05.20 13:39:18.
