data_PCOD9574347
_publ_section_title
;
Structure prediction by ZEFSAII (Michael W. Deem and Ramdas Pophale) SiO2 
 PCOD9574347
Probable space group: P 31
;
_chemical_formula_sum "Si O2"
_cell_formula_units_Z 18
_cell_length_a 5.393519
_cell_length_b 5.393519
_cell_length_c 27.434568
_cell_angle_alpha 90.000000
_cell_angle_beta 90.000000
_cell_angle_gamma 120.000000
_cell_volume 691.151387
_symmetry_space_group_name_H-M "P 31"
_symmetry_group_IT_number 144
_symmetry_cell_setting 'hexagonal'
loop_
_space_group_symop_operation_xyz
x,y,z
-y,x-y,1/3+z
-x+y,-x,2/3+z
loop_
_atom_site_type_symbol
_atom_site_label
_atom_site_fract_x
_atom_site_fract_y
_atom_site_fract_z
Si Si1 0.868729 0.767221 0.381750
Si Si2 0.306975 0.726695 0.029885
Si Si3 0.331678 0.567516 0.174645
Si Si4 0.464591 0.565188 0.933883
Si Si5 0.026338 0.086349 0.285749
Si Si6 0.001512 0.902434 0.140987
O O1 0.540407 0.638029 0.395296
O O2 0.054813 0.040307 0.415755
O O3 0.001532 0.563550 0.389327
O O4 0.868827 0.813992 0.323317
O O5 0.464489 0.611859 0.992316
O O6 0.146976 0.813663 0.991151
O O7 0.347768 0.626313 0.233211
O O8 0.175230 0.741806 0.155542
O O9 0.666589 0.719291 0.157812
O O10 0.157942 0.233164 0.160094
O O11 0.331771 0.228714 0.926307
O O12 0.792917 0.764295 0.920338
#
# Coordination Sequence:
#
# PCOD9574347 Si02
#       6
#     3   3   3   3   3   3
#     4  10  23  39  65  97 132 173 232 282 353 416
#     4  10  21  40  66  97 128 172 221 296 352 407
#     4  12  28  49  73 106 144 197 240 293 351 429
#     4  10  23  39  65  97 132 173 232 282 353 416
#     4  10  21  40  66  97 128 172 221 296 352 407
#     4  12  28  49  73 106 144 197 240 293 351 429
#
# _framework density 26.043493999999999
#
# number of rings (size 3 to 8) (size 9 to 14) (size 15 to 20)
#    0.000    1.333    0.000    4.000    9.333    0.000 
#    0.000    0.000    0.000    0.000    0.000    0.000 
#    0.000    0.000    0.000    0.000    0.000    0.000 
#
# Total GULP energy -100617.891266 kJ/mol
# GULP energy per Si atom -5589.882848 kJ/mol
# Density = 2.598422 g / cm^3
# Si number density = 26.043494 Si / 1000 Ang^3
#
#
#
# Elastic Constant Matrix: (Units=GPa)
#
#
# Indices 1 2 3 4 5 6 
#
# 1 99.5468 120.0653 25.7342 -11.6812 -0.0159 0.0000
# 2 120.0653 99.5468 25.7342 11.6812 0.0159 0.0000
# 3 25.7342 25.7342 111.6826 0.0000 0.0000 0.0000
# 4 -11.6812 11.6812 0.0000 21.1546 0.0000 0.0159
# 5 -0.0159 0.0159 0.0000 0.0000 21.1546 -11.6812
# 6 0.0000 0.0000 0.0000 0.0159 -11.6812 -10.2593
#
#
#
# Elastic Compliance Matrix: (Units=1/GPa)
#
#
# Indices 1 2 3 4 5 6 
#
# 1 -0.012555 0.017368 -0.001109 -0.016523 -0.000022 0.000000
# 2 0.017368 -0.012555 -0.001109 0.016523 0.000022 0.000000
# 3 -0.001109 -0.001109 0.009465 0.000000 0.000000 0.000000
# 4 -0.016523 0.016523 0.000000 0.029024 0.000000 0.000045
# 5 -0.000022 0.000022 0.000000 0.000000 0.029024 -0.033046
# 6 0.000000 0.000000 0.000000 0.000045 -0.033046 -0.059847
#
#
# Mechanical properties :
#
#
# Convention : Reuss Voigt Hill
#
# Bulk Modulus (GPa) = 68.23409 72.64929 70.44169
# Shear Modulus (GPa) = -116.66120 15.69280 -50.48420
#
# Velocity S-wave (km/s) = -6.70015 2.45738 -4.40757
# Velocity P-wave (km/s) = 5.79647 6.00063 1.09737
#
# Compressibility (1/GPa) = 0.01465543
#
# Stress axis : x y z
#
# Youngs Moduli (GPa) = -79.65005 -79.65005 105.65151
#
# Poissons Ratio (x) = 1.38339 0.11718
# Poissons Ratio (y) = 1.38339 0.11718
# Poissons Ratio (z) = -0.08834 -0.08834
#
# Static dielectric constant tensor:
#      x y z
#    x 2.158170 0.000000 0.000000 
#    y 0.000000 2.158170 0.000000 
#    z 0.000000 0.000000 2.095520 
# 
# From -- ./inp_files/1033.got.cif
#   From: 2010.05.17/outbox.cif.g08.bks.cpg/sg144_cif.got.tgz:1033.got - 2010.05.20 13:46:34.
