data_PCOD9574054
_publ_section_title
;
Structure prediction by ZEFSAII (Michael W. Deem and Ramdas Pophale) SiO2 
 PCOD9574054
Probable space group: I 41/A C D
;
_chemical_formula_sum "Si O2"
_cell_formula_units_Z 112
_cell_length_a 13.789798
_cell_length_b 13.789798
_cell_length_c 25.213538
_cell_angle_alpha 90.000000
_cell_angle_beta 90.000000
_cell_angle_gamma 90.000000
_cell_volume 4794.569294
_symmetry_space_group_name_H-M "I 41/A C D"
_symmetry_group_IT_number 142
_space_group.IT_coordinate_system_code '2'
_symmetry_cell_setting 'tetragonal'
loop_
_space_group_symop_operation_xyz
x,y,z
1/4-y,3/4+x,1/4+z
-x,1/2-y,z
1/4+y,1/4-x,3/4+z
x,-y,1/2-z
1/2-x,y,-z
3/4+y,1/4+x,1/4-z
1/4-y,1/4-x,1/4-z
-x,-y,-z
3/4+y,1/4-x,3/4-z
x,1/2+y,-z
3/4-y,3/4+x,1/4-z
-x,y,1/2+z
1/2+x,-y,z
1/4-y,3/4-x,3/4+z
3/4+y,3/4+x,3/4+z
1/2+x,1/2+y,1/2+z
3/4-y,1/4+x,3/4+z
1/2-x,-y,1/2+z
3/4+y,3/4-x,1/4+z
1/2+x,1/2-y,-z
-x,1/2+y,1/2-z
1/4+y,3/4+x,3/4-z
3/4-y,3/4-x,3/4-z
1/2-x,1/2-y,1/2-z
1/4+y,3/4-x,1/4-z
1/2+x,y,1/2-z
1/4-y,1/4+x,3/4-z
1/2-x,1/2+y,z
x,1/2-y,1/2+z
3/4-y,1/4-x,1/4+z
1/4+y,1/4+x,1/4+z
loop_
_atom_site_type_symbol
_atom_site_label
_atom_site_fract_x
_atom_site_fract_y
_atom_site_fract_z
Si Si1 0.480908 0.136605 0.759096
Si Si2 0.224652 0.331131 0.704150
Si Si3 0.750000 0.897814 0.500000
Si Si4 0.846385 0.218891 0.390406
O O1 0.500000 0.250000 0.746271
O O2 0.387203 0.140917 0.794945
O O3 0.575410 0.078058 0.778102
O O4 0.452514 0.087863 0.702843
O O5 0.250000 0.250000 0.750000
O O6 0.285088 0.429143 0.715844
O O7 0.255506 0.290079 0.647554
O O8 0.893574 0.324125 0.381723
#
# Coordination Sequence:
#
# PCOD9574054 Si02
#       4
#    32  32  16  32
#     4  12  23  44  73 102 148 188 240 304 364 428
#     4  12  23  41  72 105 136 187 243 300 352 430
#     4  12  24  42  68 102 138 190 230 290 368 428
#     4  11  18  39  72 101 135 192 241 283 350 443
#
# _framework density 23.359760999999999
#
# number of rings (size 3 to 8) (size 9 to 14) (size 15 to 20)
#    0.000    0.286   11.429    0.857    0.000    0.000 
#    0.000   10.000    0.000    1.714    0.000    0.000 
#    0.000    0.000    0.000    0.000    0.000    0.000 
#
# Total GULP energy -313213.156324 kJ/mol
# GULP energy per Si atom -5593.092077 kJ/mol
# Density = 2.330659 g / cm^3
# Si number density = 23.359761 Si / 1000 Ang^3
#
#
#
# Elastic Constant Matrix: (Units=GPa)
#
#
# Indices 1 2 3 4 5 6 
#
# 1 100.9299 7.8305 25.5330 0.0000 0.0000 0.0000
# 2 7.8305 100.9299 25.5330 0.0000 0.0000 0.0000
# 3 25.5330 25.5330 91.0188 0.0000 0.0000 0.0000
# 4 0.0000 0.0000 0.0000 26.9837 0.0000 0.0000
# 5 0.0000 0.0000 0.0000 0.0000 26.9837 0.0000
# 6 0.0000 0.0000 0.0000 0.0000 0.0000 44.7236
#
#
#
# Elastic Compliance Matrix: (Units=1/GPa)
#
#
# Indices 1 2 3 4 5 6 
#
# 1 0.010665 -0.000076 -0.002971 0.000000 0.000000 0.000000
# 2 -0.000076 0.010665 -0.002971 0.000000 0.000000 0.000000
# 3 -0.002971 -0.002971 0.012653 0.000000 0.000000 0.000000
# 4 0.000000 0.000000 0.000000 0.037059 0.000000 0.000000
# 5 0.000000 0.000000 0.000000 0.000000 0.037059 0.000000
# 6 0.000000 0.000000 0.000000 0.000000 0.000000 0.022360
#
#
# Mechanical properties :
#
#
# Convention : Reuss Voigt Hill
#
# Bulk Modulus (GPa) = 45.55866 45.63016 45.59441
# Shear Modulus (GPa) = 33.37494 35.33700 34.35597
#
# Velocity S-wave (km/s) = 3.78396 3.89360 3.83917
# Velocity P-wave (km/s) = 6.21583 6.30790 6.26203
#
# Compressibility (1/GPa) = 0.02194972
#
# Stress axis : x y z
#
# Youngs Moduli (GPa) = 93.76255 93.76255 79.03037
#
# Poissons Ratio (x) = 0.00712 0.23476
# Poissons Ratio (y) = 0.00712 0.23476
# Poissons Ratio (z) = 0.27853 0.27853
#
# Static dielectric constant tensor:
#      x y z
#    x 1.935850 0.000000 0.000000 
#    y 0.000000 1.935850 0.000000 
#    z 0.000000 0.000000 1.874450 
# 
# From -- ./inp_files/9758.got.cif
#   From: 2010.05.17/outbox.cif.g08.bks.cpg/sg142_5_cif.got.tgz:9758.got - 2010.05.20 13:39:18.
