data_PCOD9574462
_publ_section_title
;
Structure prediction by ZEFSAII (Michael W. Deem and Ramdas Pophale) SiO2 
 PCOD9574462
Probable space group: P 31
;
_chemical_formula_sum "Si O2"
_cell_formula_units_Z 15
_cell_length_a 7.374301
_cell_length_b 7.374301
_cell_length_c 11.779445
_cell_angle_alpha 90.000000
_cell_angle_beta 90.000000
_cell_angle_gamma 120.000000
_cell_volume 554.749834
_symmetry_space_group_name_H-M "P 31"
_symmetry_group_IT_number 144
_symmetry_cell_setting 'hexagonal'
loop_
_space_group_symop_operation_xyz
x,y,z
-y,x-y,1/3+z
-x+y,-x,2/3+z
loop_
_atom_site_type_symbol
_atom_site_label
_atom_site_fract_x
_atom_site_fract_y
_atom_site_fract_z
Si Si1 0.945410 0.137552 0.768950
Si Si2 0.178649 0.223684 0.190757
Si Si3 0.909310 0.453799 0.118899
Si Si4 0.488382 0.341904 0.984952
Si Si5 0.316537 0.788386 0.583953
O O1 0.475716 0.185327 0.886906
O O2 0.889975 0.079942 0.638143
O O3 0.714173 0.026769 0.828010
O O4 0.085695 0.039328 0.806843
O O5 0.256085 0.465486 0.228424
O O6 0.763227 0.100176 0.425904
O O7 0.626333 0.702874 0.148730
O O8 0.715544 0.416405 0.037529
O O9 0.073934 0.446997 0.032341
O O10 0.413155 0.499867 0.933957
#
# Coordination Sequence:
#
# PCOD9574462 Si02
#       5
#     3   3   3   3   3
#     4  11  23  49  80 111 172 215 277 357 426 504
#     4  11  26  46  81 122 158 229 281 347 441 509
#     4  11  24  51  81 121 171 226 279 366 434 512
#     4  12  25  48  85 117 168 225 288 351 441 518
#     4  11  26  46  79 121 165 215 295 347 420 525
#
# _framework density 27.039211999999999
#
# number of rings (size 3 to 8) (size 9 to 14) (size 15 to 20)
#    0.000    0.800    4.000    2.400    8.400    0.000 
#    0.000   14.000    0.000    0.000    0.000    0.000 
#    0.000    0.000    0.000    0.000    0.000    0.000 
#
# Total GULP energy -83842.838780 kJ/mol
# GULP energy per Si atom -5589.522585 kJ/mol
# Density = 2.697767 g / cm^3
# Si number density = 27.039212 Si / 1000 Ang^3
#
#
#
# Elastic Constant Matrix: (Units=GPa)
#
#
# Indices 1 2 3 4 5 6 
#
# 1 134.0883 37.1433 48.6969 26.0201 -5.4314 0.0000
# 2 37.1433 134.0883 48.6969 -26.0201 5.4314 0.0000
# 3 48.6969 48.6969 152.6054 0.0000 0.0000 0.0000
# 4 26.0201 -26.0201 0.0000 -18.6504 0.0000 5.4314
# 5 -5.4314 5.4314 0.0000 0.0000 -18.6504 26.0201
# 6 0.0000 0.0000 0.0000 5.4314 26.0201 48.4725
#
#
#
# Elastic Compliance Matrix: (Units=1/GPa)
#
#
# Indices 1 2 3 4 5 6 
#
# 1 0.006463 0.000673 -0.002277 0.008078 -0.001686 0.000000
# 2 0.000673 0.006463 -0.002277 -0.008078 0.001686 0.000000
# 3 -0.002277 -0.002277 0.008006 0.000000 0.000000 0.000000
# 4 0.008078 -0.008078 0.000000 -0.030096 0.000000 0.003372
# 5 -0.001686 0.001686 0.000000 0.000000 -0.030096 0.016156
# 6 0.000000 0.000000 0.000000 0.003372 0.016156 0.011580
#
#
# Mechanical properties :
#
#
# Convention : Reuss Voigt Hill
#
# Bulk Modulus (GPa) = 75.93724 76.65068 76.29396
# Shear Modulus (GPa) = -321.95995 21.31731 -150.32132
#
# Velocity S-wave (km/s) = -10.92383 2.81087 -7.46422
# Velocity P-wave (km/s) = 11.44384 6.24052 6.78297
#
# Compressibility (1/GPa) = 0.01316877
#
# Stress axis : x y z
#
# Youngs Moduli (GPa) = 154.73832 154.73832 124.90740
#
# Poissons Ratio (x) = -0.10407 0.28439
# Poissons Ratio (y) = -0.10407 0.28439
# Poissons Ratio (z) = 0.35231 0.35231
#
# Static dielectric constant tensor:
#      x y z
#    x 2.278980 0.000000 0.000000 
#    y 0.000000 2.278980 0.000000 
#    z 0.000000 0.000000 2.081970 
# 
# From -- ./inp_files/528.got.cif
#   From: 2010.05.17/outbox.cif.g08.bks.cpg/sg144_cif.got.tgz:528.got - 2010.05.20 13:46:34.
