data_PCOD9574439
_publ_section_title
;
Structure prediction by ZEFSAII (Michael W. Deem and Ramdas Pophale) SiO2 
 PCOD9574439
Probable space group: P 31
;
_chemical_formula_sum "Si O2"
_cell_formula_units_Z 21
_cell_length_a 11.806671
_cell_length_b 11.806671
_cell_length_c 8.382577
_cell_angle_alpha 90.000000
_cell_angle_beta 90.000000
_cell_angle_gamma 120.000000
_cell_volume 1011.959440
_symmetry_space_group_name_H-M "P 31"
_symmetry_group_IT_number 144
_symmetry_cell_setting 'hexagonal'
loop_
_space_group_symop_operation_xyz
x,y,z
-y,x-y,1/3+z
-x+y,-x,2/3+z
loop_
_atom_site_type_symbol
_atom_site_label
_atom_site_fract_x
_atom_site_fract_y
_atom_site_fract_z
Si Si1 0.085259 0.607218 0.484120
Si Si2 0.637714 0.457053 0.490637
Si Si3 0.225833 0.475936 0.312502
Si Si4 0.527746 0.172144 0.180522
Si Si5 0.322574 0.322098 0.500386
Si Si6 0.162914 0.471253 0.971117
Si Si7 0.893023 0.263686 0.839169
O O1 0.164553 0.532305 0.440340
O O2 0.166395 0.714260 0.612799
O O3 0.940509 0.505221 0.537857
O O4 0.073402 0.679550 0.328396
O O5 0.691922 0.355467 0.504686
O O6 0.675478 0.526740 0.665386
O O7 0.480863 0.391774 0.468604
O O8 0.704922 0.543050 0.334830
O O9 0.243691 0.357618 0.374434
O O10 0.134621 0.446620 0.158610
O O11 0.376148 0.587629 0.275032
O O12 0.437460 0.152954 0.331160
O O13 0.276896 0.169727 0.515008
O O14 0.045603 0.370066 0.860166
#
# Coordination Sequence:
#
# PCOD9574439 Si02
#       7
#     3   3   3   3   3   3   3
#     4  11  22  40  60  99 131 170 219 286 349 411
#     4  11  21  39  58  93 133 176 213 274 332 403
#     4  12  22  39  67  99 139 174 220 293 352 412
#     4  11  25  36  66  94 136 183 223 277 351 412
#     4  11  24  41  65  94 140 173 221 290 347 412
#     4  12  23  38  67  98 136 174 229 284 357 417
#     4  12  25  41  61  97 137 178 225 274 346 417
#
# _framework density 20.751821
#
# number of rings (size 3 to 8) (size 9 to 14) (size 15 to 20)
#    0.000    0.571    7.143    2.571    4.000    0.000 
#    0.000    0.000    0.000    1.714    0.000    0.000 
#    0.000    0.000    0.000    0.000    0.000    0.000 
#
# Total GULP energy -117130.416238 kJ/mol
# GULP energy per Si atom -5577.638868 kJ/mol
# Density = 2.070459 g / cm^3
# Si number density = 20.751821 Si / 1000 Ang^3
#
#
#
# Elastic Constant Matrix: (Units=GPa)
#
#
# Indices 1 2 3 4 5 6 
#
# 1 52.4987 -0.9159 5.6432 -2.5357 -3.8210 0.0000
# 2 -0.9159 52.4987 5.6432 2.5357 3.8210 0.0000
# 3 5.6432 5.6432 101.4740 0.0000 0.0000 0.0000
# 4 -2.5357 2.5357 0.0000 31.3285 0.0000 3.8210
# 5 -3.8210 3.8210 0.0000 0.0000 31.3285 -2.5357
# 6 0.0000 0.0000 0.0000 3.8210 -2.5357 26.7073
#
#
#
# Elastic Compliance Matrix: (Units=1/GPa)
#
#
# Indices 1 2 3 4 5 6 
#
# 1 0.019415 0.000210 -0.001091 0.001554 0.002342 0.000000
# 2 0.000210 0.019415 -0.001091 -0.001554 -0.002342 0.000000
# 3 -0.001091 -0.001091 0.009976 0.000000 0.000000 0.000000
# 4 0.001554 -0.001554 0.000000 0.032743 0.000000 -0.004685
# 5 0.002342 -0.002342 0.000000 0.000000 0.032743 0.003109
# 6 0.000000 0.000000 0.000000 -0.004685 0.003109 0.038408
#
#
# Mechanical properties :
#
#
# Convention : Reuss Voigt Hill
#
# Bulk Modulus (GPa) = 22.29120 25.24583 23.76851
# Shear Modulus (GPa) = 29.13794 30.94624 30.04209
#
# Velocity S-wave (km/s) = 3.75122 3.86587 3.80897
# Velocity P-wave (km/s) = 5.43390 5.66732 5.55184
#
# Compressibility (1/GPa) = 0.04486076
#
# Stress axis : x y z
#
# Youngs Moduli (GPa) = 51.50754 51.50754 100.23924
#
# Poissons Ratio (x) = -0.01084 0.10940
# Poissons Ratio (y) = -0.01084 0.10940
# Poissons Ratio (z) = 0.05622 0.05622
#
# Static dielectric constant tensor:
#      x y z
#    x 1.759220 0.000000 0.000000 
#    y 0.000000 1.759220 0.000000 
#    z 0.000000 0.000000 1.811180 
# 
# From -- ./inp_files/332.got.cif
#   From: 2010.05.17/outbox.cif.g08.bks.cpg/sg144_cif.got.tgz:332.got - 2010.05.20 13:46:34.
