data_PCOD9574901
_publ_section_title
;
Structure prediction by ZEFSAII (Michael W. Deem and Ramdas Pophale) SiO2 
 PCOD9574901
Probable space group: P -3
;
_chemical_formula_sum "Si O2"
_cell_formula_units_Z 42
_cell_length_a 12.637652
_cell_length_b 12.637652
_cell_length_c 18.323483
_cell_angle_alpha 90.000000
_cell_angle_beta 90.000000
_cell_angle_gamma 120.000000
_cell_volume 2534.378324
_symmetry_space_group_name_H-M "P -3"
_symmetry_group_IT_number 147
_symmetry_cell_setting 'hexagonal'
loop_
_space_group_symop_operation_xyz
x,y,z
-y,x-y,z
-x+y,-x,z
-x,-y,-z
y,-x+y,-z
x-y,x,-z
loop_
_atom_site_type_symbol
_atom_site_label
_atom_site_fract_x
_atom_site_fract_y
_atom_site_fract_z
Si Si1 1.000000 0.251650 0.500000
Si Si2 0.666320 0.584717 0.928554
Si Si3 0.333680 0.918397 0.071446
Si Si4 0.584481 0.666249 0.786294
Si Si5 0.666770 0.585105 0.643358
Si Si6 0.415519 0.081769 0.213706
Si Si7 0.414895 0.333230 0.643358
O O1 0.977314 0.312294 0.571019
O O2 0.119674 0.239348 0.510182
O O3 0.022686 0.334980 0.428981
O O4 0.795174 0.590347 0.929568
O O5 0.555720 0.444280 0.928031
O O6 0.649262 0.647205 0.856554
O O7 0.646423 0.646423 1.000000
O O8 0.350739 0.997944 0.143446
O O9 0.643440 0.647685 0.713127
O O10 0.591051 0.795525 0.787565
O O11 0.444010 0.555990 0.788310
O O12 0.548189 0.451810 0.634972
O O13 0.787272 0.574545 0.654621
O O14 0.356560 0.004245 0.286873
#
# Coordination Sequence:
#
# PCOD9574901 Si02
#       7
#     6   6   6   6   6   6   6
#     4  10  20  34  52  74 102 136 172 208 248 298
#     4  10  20  34  54  78 104 134 168 208 252 298
#     4  10  20  34  54  78 104 134 168 208 252 298
#     4  10  20  34  53  76 102 132 166 206 251 299
#     4  10  20  34  53  76 102 132 167 209 255 301
#     4  10  20  34  53  76 102 132 166 206 251 299
#     4  10  20  34  53  76 102 132 167 209 255 301
#
# _framework density 16.572111
#
# number of rings (size 3 to 8) (size 9 to 14) (size 15 to 20)
#    0.000    2.000    0.000    4.000    0.000    0.000 
#    0.000    5.714    0.000   21.714    0.000    0.000 
#    0.000    0.000    0.000    0.000    0.000    0.000 
#
# Total GULP energy -234525.226696 kJ/mol
# GULP energy per Si atom -5583.933969 kJ/mol
# Density = 1.653439 g / cm^3
# Si number density = 16.572111 Si / 1000 Ang^3
#
#
#
# Elastic Constant Matrix: (Units=GPa)
#
#
# Indices 1 2 3 4 5 6 
#
# 1 149.8626 110.7928 103.6496 -2.5544 0.0000 0.0000
# 2 110.7928 149.8626 103.6496 2.5544 0.0000 0.0000
# 3 103.6496 103.6496 164.7320 0.0000 0.0000 0.0000
# 4 -2.5544 2.5544 0.0000 17.7280 0.0000 0.0000
# 5 0.0000 0.0000 0.0000 0.0000 17.7280 -2.5544
# 6 0.0000 0.0000 0.0000 0.0000 -2.5544 19.5349
#
#
#
# Elastic Compliance Matrix: (Units=1/GPa)
#
#
# Indices 1 2 3 4 5 6 
#
# 1 0.016883 -0.009204 -0.004832 0.003759 0.000000 0.000000
# 2 -0.009204 0.016883 -0.004832 -0.003759 0.000000 0.000000
# 3 -0.004832 -0.004832 0.012151 0.000000 0.000000 0.000000
# 4 0.003759 -0.003759 0.000000 0.057491 0.000000 0.000000
# 5 0.000000 0.000000 0.000000 0.000000 0.057491 0.007518
# 6 0.000000 0.000000 0.000000 0.000000 0.007518 0.052173
#
#
# Mechanical properties :
#
#
# Convention : Reuss Voigt Hill
#
# Bulk Modulus (GPa) = 122.21786 122.29343 122.25564
# Shear Modulus (GPa) = 19.72119 20.75586 20.23852
#
# Velocity S-wave (km/s) = 3.45341 3.54285 3.49842
# Velocity P-wave (km/s) = 9.47685 9.52316 9.50003
#
# Compressibility (1/GPa) = 0.00818211
#
# Stress axis : x y z
#
# Youngs Moduli (GPa) = 59.23136 59.23136 82.29948
#
# Poissons Ratio (x) = 0.54515 0.39765
# Poissons Ratio (y) = 0.54515 0.39765
# Poissons Ratio (z) = 0.28619 0.28619
#
# Static dielectric constant tensor:
#      x y z
#    x 1.523080 0.000000 0.000000 
#    y 0.000000 1.523080 0.000000 
#    z 0.000000 0.000000 1.542080 
# 
# From -- ./inp_files/1031.got.cif
#   From: 2010.05.17/outbox.cif.g08.bks.cpg/sg147_cif.got.tgz:1031.got - 2010.05.20 13:49:32.
