data_PCOD9574437
_publ_section_title
;
Structure prediction by ZEFSAII (Michael W. Deem and Ramdas Pophale) SiO2 
 PCOD9574437
Probable space group: P 31
;
_chemical_formula_sum "Si O2"
_cell_formula_units_Z 18
_cell_length_a 11.047395
_cell_length_b 11.047395
_cell_length_c 7.035261
_cell_angle_alpha 90.000000
_cell_angle_beta 90.000000
_cell_angle_gamma 120.000000
_cell_volume 743.584983
_symmetry_space_group_name_H-M "P 31"
_symmetry_group_IT_number 144
_symmetry_cell_setting 'hexagonal'
loop_
_space_group_symop_operation_xyz
x,y,z
-y,x-y,1/3+z
-x+y,-x,2/3+z
loop_
_atom_site_type_symbol
_atom_site_label
_atom_site_fract_x
_atom_site_fract_y
_atom_site_fract_z
Si Si1 0.165824 0.717149 0.436520
Si Si2 0.107717 0.406052 0.401304
Si Si3 0.039235 0.446075 0.942811
Si Si4 0.869481 0.214099 0.657918
Si Si5 0.673171 0.946103 0.466382
Si Si6 0.607220 0.218051 0.838638
O O1 0.133540 0.561447 0.405663
O O2 0.192318 0.788664 0.232120
O O3 0.053556 0.729537 0.570519
O O4 0.306308 0.796379 0.565208
O O5 0.158516 0.364290 0.212545
O O6 0.954075 0.301315 0.475777
O O7 0.976044 0.298553 0.828804
O O8 0.934332 0.410303 0.121656
O O9 0.021325 0.569127 0.842067
O O10 0.737314 0.224078 0.726834
O O11 0.806331 0.056002 0.587337
O O12 0.662009 0.255446 0.055074
#
# Coordination Sequence:
#
# PCOD9574437 Si02
#       6
#     3   3   3   3   3   3
#     4  11  21  37  64  96 129 159 212 273 322 385
#     4  11  24  39  65  96 129 168 213 268 327 390
#     4   9  19  37  58  88 127 154 200 267 309 365
#     4   9  20  42  56  85 131 161 208 269 307 373
#     4  11  22  39  65  90 126 174 207 264 332 376
#     4   9  18  34  56  81 118 162 200 249 303 365
#
# _framework density 24.207049000000001
#
# number of rings (size 3 to 8) (size 9 to 14) (size 15 to 20)
#    0.000    2.000    3.333    1.000    2.333    1.333 
#    6.000    6.667    0.000    0.000    0.000    0.000 
#    0.000    0.000    0.000    0.000    0.000    0.000 
#
# Total GULP energy -100337.790714 kJ/mol
# GULP energy per Si atom -5574.321706 kJ/mol
# Density = 2.415195 g / cm^3
# Si number density = 24.207049 Si / 1000 Ang^3
#
#
#
# Elastic Constant Matrix: (Units=GPa)
#
#
# Indices 1 2 3 4 5 6 
#
# 1 80.7908 23.4833 2.5567 2.0670 -6.7265 0.0000
# 2 23.4833 80.7908 2.5567 -2.0670 6.7265 0.0000
# 3 2.5567 2.5567 88.8413 0.0000 0.0000 0.0000
# 4 2.0670 -2.0670 0.0000 27.6907 0.0000 6.7265
# 5 -6.7265 6.7265 0.0000 0.0000 27.6907 2.0670
# 6 0.0000 0.0000 0.0000 6.7265 2.0670 28.6538
#
#
#
# Elastic Compliance Matrix: (Units=1/GPa)
#
#
# Indices 1 2 3 4 5 6 
#
# 1 0.014107 -0.004504 -0.000276 -0.001389 0.004521 0.000000
# 2 -0.004504 0.014107 -0.000276 0.001389 -0.004521 0.000000
# 3 -0.000276 -0.000276 0.011272 0.000000 0.000000 0.000000
# 4 -0.001389 0.001389 0.000000 0.038517 0.000000 -0.009042
# 5 0.004521 -0.004521 0.000000 0.000000 0.038517 -0.002778
# 6 0.000000 0.000000 0.000000 -0.009042 -0.002778 0.037222
#
#
# Mechanical properties :
#
#
# Convention : Reuss Voigt Hill
#
# Bulk Modulus (GPa) = 34.04400 34.17959 34.11179
# Shear Modulus (GPa) = 28.79395 31.59544 30.19469
#
# Velocity S-wave (km/s) = 3.45263 3.61670 3.53562
# Velocity P-wave (km/s) = 5.47617 5.62059 5.54885
#
# Compressibility (1/GPa) = 0.02937375
#
# Stress axis : x y z
#
# Youngs Moduli (GPa) = 70.88457 70.88457 88.71590
#
# Poissons Ratio (x) = 0.31925 0.02452
# Poissons Ratio (y) = 0.31925 0.02452
# Poissons Ratio (z) = 0.01959 0.01959
#
# Static dielectric constant tensor:
#      x y z
#    x 1.952280 0.000000 0.000000 
#    y 0.000000 1.952280 0.000000 
#    z 0.000000 0.000000 2.047970 
# 
# From -- ./inp_files/290.got.cif
#   From: 2010.05.17/outbox.cif.g08.bks.cpg/sg144_cif.got.tgz:290.got - 2010.05.20 13:46:34.
