data_PCOD9574496
_publ_section_title
;
Structure prediction by ZEFSAII (Michael W. Deem and Ramdas Pophale) SiO2 
 PCOD9574496
Probable space group: P 31
;
_chemical_formula_sum "Si O2"
_cell_formula_units_Z 18
_cell_length_a 11.897559
_cell_length_b 11.897559
_cell_length_c 6.882004
_cell_angle_alpha 90.000000
_cell_angle_beta 90.000000
_cell_angle_gamma 120.000000
_cell_volume 843.648010
_symmetry_space_group_name_H-M "P 31"
_symmetry_group_IT_number 144
_symmetry_cell_setting 'hexagonal'
loop_
_space_group_symop_operation_xyz
x,y,z
-y,x-y,1/3+z
-x+y,-x,2/3+z
loop_
_atom_site_type_symbol
_atom_site_label
_atom_site_fract_x
_atom_site_fract_y
_atom_site_fract_z
Si Si1 0.531256 0.010590 0.408770
Si Si2 0.749549 0.303350 0.979413
Si Si3 0.050468 0.117419 0.669107
Si Si4 0.029315 0.334805 0.461399
Si Si5 0.319848 0.199007 0.866937
Si Si6 0.451325 0.750591 0.643565
O O1 0.438671 0.997462 0.228641
O O2 0.474989 0.876919 0.525556
O O3 0.538980 0.123716 0.543494
O O4 0.674847 0.053545 0.335237
O O5 0.730303 0.355958 0.182945
O O6 0.764615 0.179449 0.016222
O O7 0.030806 0.238582 0.625248
O O8 0.178043 0.160329 0.796465
O O9 0.069013 0.064150 0.462587
O O10 0.169531 0.414696 0.360430
O O11 0.918594 0.241583 0.311050
O O12 0.373274 0.738081 0.840321
#
# Coordination Sequence:
#
# PCOD9574496 Si02
#       6
#     3   3   3   3   3   3
#     4  12  27  46  80 109 152 200 250 311 378 452
#     4  12  24  48  74 112 150 192 248 308 384 454
#     4  12  28  51  76 111 152 198 253 311 379 449
#     4  12  28  50  78 112 152 200 252 316 378 448
#     4  12  27  46  80 109 152 200 250 311 378 452
#     4  12  28  51  76 111 152 198 253 311 379 449
#
# _framework density 21.335910999999999
#
# number of rings (size 3 to 8) (size 9 to 14) (size 15 to 20)
#    0.000    0.000    5.000    4.000   11.667    0.000 
#    0.000    0.000    0.000    0.000    0.000    0.000 
#    0.000    0.000    0.000    0.000    0.000    0.000 
#
# Total GULP energy -100851.813617 kJ/mol
# GULP energy per Si atom -5602.878534 kJ/mol
# Density = 2.128735 g / cm^3
# Si number density = 21.335911 Si / 1000 Ang^3
#
#
#
# Elastic Constant Matrix: (Units=GPa)
#
#
# Indices 1 2 3 4 5 6 
#
# 1 61.8345 -8.9106 -6.3673 -1.6874 -2.0039 0.0000
# 2 -8.9106 61.8345 -6.3673 1.6874 2.0039 0.0000
# 3 -6.3673 -6.3673 46.0664 0.0000 0.0000 0.0000
# 4 -1.6874 1.6874 0.0000 45.2036 0.0000 2.0039
# 5 -2.0039 2.0039 0.0000 0.0000 45.2036 -1.6874
# 6 0.0000 0.0000 0.0000 2.0039 -1.6874 35.3725
#
#
#
# Elastic Compliance Matrix: (Units=1/GPa)
#
#
# Indices 1 2 3 4 5 6 
#
# 1 0.016871 0.002674 0.002702 0.000530 0.000629 0.000000
# 2 0.002674 0.016871 0.002702 -0.000530 -0.000629 0.000000
# 3 0.002702 0.002702 0.022455 0.000000 0.000000 0.000000
# 4 0.000530 -0.000530 0.000000 0.022217 0.000000 -0.001259
# 5 0.000629 -0.000629 0.000000 0.000000 0.022217 0.001060
# 6 0.000000 0.000000 0.000000 -0.001259 0.001060 0.028392
#
#
# Mechanical properties :
#
#
# Convention : Reuss Voigt Hill
#
# Bulk Modulus (GPa) = 13.82150 14.04942 13.93546
# Shear Modulus (GPa) = 36.50030 37.91467 37.20748
#
# Velocity S-wave (km/s) = 4.14060 4.22006 4.18052
# Velocity P-wave (km/s) = 5.41771 5.50858 5.46333
#
# Compressibility (1/GPa) = 0.07235105
#
# Stress axis : x y z
#
# Youngs Moduli (GPa) = 59.27453 59.27453 44.53424
#
# Poissons Ratio (x) = -0.15853 -0.12031
# Poissons Ratio (y) = -0.15853 -0.12031
# Poissons Ratio (z) = -0.16013 -0.16013
#
# Static dielectric constant tensor:
#      x y z
#    x 1.741220 0.000000 0.000000 
#    y 0.000000 1.741220 0.000000 
#    z 0.000000 0.000000 1.752580 
# 
# From -- ./inp_files/91.got.cif
#   From: 2010.05.17/outbox.cif.g08.bks.cpg/sg144_cif.got.tgz:91.got - 2010.05.20 13:46:34.
