data_PCOD9574938
_publ_section_title
;
Structure prediction by ZEFSAII (Michael W. Deem and Ramdas Pophale) SiO2 
 PCOD9574938
Probable space group: P -3
;
_chemical_formula_sum "Si O2"
_cell_formula_units_Z 48
_cell_length_a 15.757460
_cell_length_b 15.757460
_cell_length_c 9.423208
_cell_angle_alpha 90.000000
_cell_angle_beta 90.000000
_cell_angle_gamma 120.000000
_cell_volume 2026.291095
_symmetry_space_group_name_H-M "P -3"
_symmetry_group_IT_number 147
_symmetry_cell_setting 'hexagonal'
loop_
_space_group_symop_operation_xyz
x,y,z
-y,x-y,z
-x+y,-x,z
-x,-y,-z
y,-x+y,-z
x-y,x,-z
loop_
_atom_site_type_symbol
_atom_site_label
_atom_site_fract_x
_atom_site_fract_y
_atom_site_fract_z
Si Si1 0.337681 0.854053 0.055911
Si Si2 0.561650 0.838937 0.651666
Si Si3 0.992396 0.324249 0.581479
Si Si4 0.713428 0.679981 0.095457
Si Si5 0.083829 0.809828 0.187911
Si Si6 0.483917 0.150606 0.886918
Si Si7 0.154126 0.949309 0.430761
Si Si8 0.125458 0.509256 0.724354
O O1 0.290068 0.919839 0.104194
O O2 0.428390 0.867738 0.151252
O O3 0.259519 0.738719 0.057466
O O4 0.370758 0.880132 0.892833
O O5 0.518760 0.723571 0.666450
O O6 0.470403 0.853935 0.690299
O O7 0.605621 0.891060 0.502427
O O8 0.649350 0.900887 0.765123
O O9 0.059554 0.309131 0.465865
O O10 0.028247 0.430151 0.644000
O O11 0.005347 0.261573 0.709343
O O12 0.796924 0.741379 0.977409
O O13 0.652519 0.575457 0.014025
O O14 0.135641 0.742431 0.210217
O O15 0.128548 0.913533 0.266806
O O16 0.058746 0.877375 0.524914
#
# Coordination Sequence:
#
# PCOD9574938 Si02
#       8
#     6   6   6   6   6   6   6   6
#     4  12  20  38  65  93 132 173 216 282 328 394
#     4  12  26  39  66  98 126 181 221 276 334 396
#     4  11  24  41  64  92 133 174 224 270 333 400
#     4  10  22  38  64  93 127 166 224 267 336 391
#     4   9  20  41  60  92 128 163 210 273 327 393
#     4  10  22  37  61  95 129 170 223 269 331 392
#     4  10  21  41  68  99 127 166 219 276 334 400
#     4  12  20  42  61  90 133 170 224 275 328 398
#
# _framework density 23.688600000000001
#
# number of rings (size 3 to 8) (size 9 to 14) (size 15 to 20)
#    0.750    0.500    3.750    2.875    3.500    0.000 
#    0.000    0.000    0.000    0.000    0.000    0.875 
#    0.000    0.000    0.000    0.000    0.000    0.000 
#
# Total GULP energy -267430.113148 kJ/mol
# GULP energy per Si atom -5571.460691 kJ/mol
# Density = 2.363468 g / cm^3
# Si number density = 23.688600 Si / 1000 Ang^3
#
#
#
# Elastic Constant Matrix: (Units=GPa)
#
#
# Indices 1 2 3 4 5 6 
#
# 1 83.9712 35.2162 32.3650 -3.3393 5.2215 0.0000
# 2 35.2162 83.9712 32.3650 3.3393 -5.2215 0.0000
# 3 32.3650 32.3650 113.1354 0.0000 0.0000 0.0000
# 4 -3.3393 3.3393 0.0000 20.6912 0.0000 -5.2215
# 5 5.2215 -5.2215 0.0000 0.0000 20.6912 -3.3393
# 6 0.0000 0.0000 0.0000 -5.2215 -3.3393 24.3775
#
#
#
# Elastic Compliance Matrix: (Units=1/GPa)
#
#
# Indices 1 2 3 4 5 6 
#
# 1 0.016068 -0.006134 -0.002842 0.003583 -0.005603 0.000000
# 2 -0.006134 0.016068 -0.002842 -0.003583 0.005603 0.000000
# 3 -0.002842 -0.002842 0.010465 0.000000 0.000000 0.000000
# 4 0.003583 -0.003583 0.000000 0.052314 0.000000 0.011205
# 5 -0.005603 0.005603 0.000000 0.000000 0.052314 0.007166
# 6 0.000000 0.000000 0.000000 0.011205 0.007166 0.044403
#
#
# Mechanical properties :
#
#
# Convention : Reuss Voigt Hill
#
# Bulk Modulus (GPa) = 52.72881 53.44113 53.08497
# Shear Modulus (GPa) = 22.56444 25.22740 23.89592
#
# Velocity S-wave (km/s) = 3.08968 3.26691 3.17953
# Velocity P-wave (km/s) = 5.91909 6.06952 5.99478
#
# Compressibility (1/GPa) = 0.01896497
#
# Stress axis : x y z
#
# Youngs Moduli (GPa) = 62.23740 62.23740 95.55815
#
# Poissons Ratio (x) = 0.38177 0.27155
# Poissons Ratio (y) = 0.38177 0.27155
# Poissons Ratio (z) = 0.17686 0.17686
#
# Static dielectric constant tensor:
#      x y z
#    x 1.958820 0.000000 0.000000 
#    y 0.000000 1.958820 0.000000 
#    z 0.000000 0.000000 2.014640 
# 
# From -- ./inp_files/863.got.cif
#   From: 2010.05.17/outbox.cif.g08.bks.cpg/sg147_cif.got.tgz:863.got - 2010.05.20 13:49:32.
