data_PCOD9574574
_publ_section_title
;
Structure prediction by ZEFSAII (Michael W. Deem and Ramdas Pophale) SiO2 
 PCOD9574574
Probable space group: P 32
;
_chemical_formula_sum "Si O2"
_cell_formula_units_Z 24
_cell_length_a 11.585206
_cell_length_b 11.585206
_cell_length_c 8.696694
_cell_angle_alpha 90.000000
_cell_angle_beta 90.000000
_cell_angle_gamma 120.000000
_cell_volume 1010.863096
_symmetry_space_group_name_H-M "P 32"
_symmetry_group_IT_number 145
_symmetry_cell_setting 'hexagonal'
loop_
_space_group_symop_operation_xyz
x,y,z
-y,x-y,2/3+z
-x+y,-x,1/3+z
loop_
_atom_site_type_symbol
_atom_site_label
_atom_site_fract_x
_atom_site_fract_y
_atom_site_fract_z
Si Si1 0.218538 0.733785 0.596140
Si Si2 0.684129 0.277292 0.687765
Si Si3 0.955999 0.365115 0.284361
Si Si4 0.461946 0.805119 0.251022
Si Si5 0.233755 0.850487 0.145908
Si Si6 0.316385 0.085807 0.930989
Si Si7 0.192147 0.215410 0.133320
Si Si8 0.818197 0.764170 0.709352
O O1 0.149023 0.695339 0.762495
O O2 0.269820 0.628296 0.572212
O O3 0.116777 0.740152 0.474973
O O4 0.340387 0.884803 0.610053
O O5 0.677457 0.347104 0.526616
O O6 0.562983 0.125992 0.662842
O O7 0.823253 0.281909 0.677624
O O8 0.914875 0.253040 0.417096
O O9 0.912345 0.284342 0.124943
O O10 0.356961 0.855056 0.236107
O O11 0.548489 0.845010 0.405794
O O12 0.189627 0.931871 0.254373
O O13 0.269612 0.938627 0.991708
O O14 0.229636 0.148711 0.993690
O O15 0.243870 0.174404 0.284385
O O16 0.031992 0.146707 0.158743
#
# Coordination Sequence:
#
# PCOD9574574 Si02
#       8
#     3   3   3   3   3   3   3   3
#     4  10  22  39  66  97 137 171 221 281 350 415
#     4  10  24  41  65  95 131 181 229 283 341 412
#     4  10  22  43  62  96 130 173 227 289 337 412
#     4  10  22  39  65 102 134 174 217 274 353 418
#     4  10  22  41  64  98 135 175 217 282 338 421
#     4  10  22  44  66  94 133 177 229 278 345 415
#     4  10  24  43  65  94 127 180 220 283 342 408
#     4  10  24  44  65  92 133 173 232 284 342 409
#
# _framework density 23.742089
#
# number of rings (size 3 to 8) (size 9 to 14) (size 15 to 20)
#    0.000    2.000    1.250    0.000   12.250    3.000 
#    2.250    0.000    0.000    0.000    0.000    0.000 
#    0.000    0.000    0.000    0.000    0.000    0.000 
#
# Total GULP energy -133855.213992 kJ/mol
# GULP energy per Si atom -5577.300583 kJ/mol
# Density = 2.368805 g / cm^3
# Si number density = 23.742089 Si / 1000 Ang^3
#
#
#
# Elastic Constant Matrix: (Units=GPa)
#
#
# Indices 1 2 3 4 5 6 
#
# 1 54.7490 2.7269 -0.1827 -0.3726 -5.8348 0.0000
# 2 2.7269 54.7490 -0.1827 0.3726 5.8348 0.0000
# 3 -0.1827 -0.1827 60.1027 0.0000 0.0000 0.0000
# 4 -0.3726 0.3726 0.0000 30.3545 0.0000 5.8348
# 5 -5.8348 5.8348 0.0000 0.0000 30.3545 -0.3726
# 6 0.0000 0.0000 0.0000 5.8348 -0.3726 26.0110
#
#
#
# Elastic Compliance Matrix: (Units=1/GPa)
#
#
# Indices 1 2 3 4 5 6 
#
# 1 0.018746 -0.001347 0.000053 0.000247 0.003862 0.000000
# 2 -0.001347 0.018746 0.000053 -0.000247 -0.003862 0.000000
# 3 0.000053 0.000053 0.016638 0.000000 0.000000 0.000000
# 4 0.000247 -0.000247 0.000000 0.034435 0.000000 -0.007725
# 5 0.003862 -0.003862 0.000000 0.000000 0.034435 0.000493
# 6 0.000000 0.000000 0.000000 -0.007725 0.000493 0.040185
#
#
# Mechanical properties :
#
#
# Convention : Reuss Voigt Hill
#
# Bulk Modulus (GPa) = 19.36188 19.36932 19.36560
# Shear Modulus (GPa) = 27.33989 28.49328 27.91658
#
# Velocity S-wave (km/s) = 3.39711 3.46803 3.43275
# Velocity P-wave (km/s) = 4.85386 4.92059 4.88734
#
# Compressibility (1/GPa) = 0.05164788
#
# Stress axis : x y z
#
# Youngs Moduli (GPa) = 53.34545 53.34545 60.10159
#
# Poissons Ratio (x) = 0.07185 -0.00318
# Poissons Ratio (y) = 0.07185 -0.00318
# Poissons Ratio (z) = -0.00282 -0.00282
#
# Static dielectric constant tensor:
#      x y z
#    x 1.939890 0.000000 0.000000 
#    y 0.000000 1.939890 0.000000 
#    z 0.000000 0.000000 2.119660 
# 
# From -- ./inp_files/447.got.cif
#   From: 2010.05.17/outbox.cif.g08.bks.cpg/sg145_cif.got.tgz:447.got - 2010.05.20 13:47:28.
