data_PCOD9574295
_publ_section_title
;
Structure prediction by ZEFSAII (Michael W. Deem and Ramdas Pophale) SiO2 
 PCOD9574295
Probable space group: P 31
;
_chemical_formula_sum "Si O2"
_cell_formula_units_Z 18
_cell_length_a 12.367002
_cell_length_b 12.367002
_cell_length_c 5.537921
_cell_angle_alpha 90.000000
_cell_angle_beta 90.000000
_cell_angle_gamma 120.000000
_cell_volume 733.510356
_symmetry_space_group_name_H-M "P 31"
_symmetry_group_IT_number 144
_symmetry_cell_setting 'hexagonal'
loop_
_space_group_symop_operation_xyz
x,y,z
-y,x-y,1/3+z
-x+y,-x,2/3+z
loop_
_atom_site_type_symbol
_atom_site_label
_atom_site_fract_x
_atom_site_fract_y
_atom_site_fract_z
Si Si1 0.433798 0.469663 0.384120
Si Si2 0.573530 0.204334 0.533369
Si Si3 0.450688 0.771441 0.087651
Si Si4 0.760722 0.126227 0.025409
Si Si5 0.084923 0.777781 0.708412
Si Si6 0.989425 0.882423 0.057782
O O1 0.530063 0.472706 0.184108
O O2 0.423374 0.570486 0.547504
O O3 0.439777 0.379396 0.587497
O O4 0.299654 0.396428 0.260375
O O5 0.730838 0.531410 0.381776
O O6 0.572381 0.286200 0.307498
O O7 0.365241 0.763702 0.311188
O O8 0.595289 0.828678 0.169620
O O9 0.838295 0.094525 0.831183
O O10 0.757291 0.054750 0.266256
O O11 0.085329 0.891975 0.845622
O O12 0.903452 0.931128 0.941230
#
# Coordination Sequence:
#
# PCOD9574295 Si02
#       6
#     3   3   3   3   3   3
#     4   9  20  38  62  94 131 169 211 265 325 391
#     4  10  19  36  65  96 126 164 207 256 317 382
#     4  11  23  43  66  91 127 174 220 269 333 397
#     4   9  20  38  62  94 131 169 211 265 325 391
#     4  10  21  42  65  88 126 168 215 272 327 390
#     4  11  23  43  66  91 127 174 220 269 333 397
#
# _framework density 24.539531
#
# number of rings (size 3 to 8) (size 9 to 14) (size 15 to 20)
#    0.000    2.000    0.000    3.000    0.000    0.000 
#    0.000   31.667    0.000    8.000    0.000    0.000 
#    0.000    0.000    0.000    0.000    0.000    0.000 
#
# Total GULP energy -100398.199153 kJ/mol
# GULP energy per Si atom -5577.677731 kJ/mol
# Density = 2.448368 g / cm^3
# Si number density = 24.539531 Si / 1000 Ang^3
#
#
#
# Elastic Constant Matrix: (Units=GPa)
#
#
# Indices 1 2 3 4 5 6 
#
# 1 82.4833 25.3809 8.0326 6.2985 -0.4242 0.0000
# 2 25.3809 82.4833 8.0326 -6.2985 0.4242 0.0000
# 3 8.0326 8.0326 76.8899 0.0000 0.0000 0.0000
# 4 6.2985 -6.2985 0.0000 36.7618 0.0000 0.4242
# 5 -0.4242 0.4242 0.0000 0.0000 36.7618 6.2985
# 6 0.0000 0.0000 0.0000 0.4242 6.2985 28.5512
#
#
#
# Elastic Compliance Matrix: (Units=1/GPa)
#
#
# Indices 1 2 3 4 5 6 
#
# 1 0.013811 -0.004393 -0.000984 -0.003119 0.000210 0.000000
# 2 -0.004393 0.013811 -0.000984 0.003119 -0.000210 0.000000
# 3 -0.000984 -0.000984 0.013211 0.000000 0.000000 0.000000
# 4 -0.003119 0.003119 0.000000 0.028276 0.000000 -0.000420
# 5 0.000210 -0.000210 0.000000 0.000000 0.028276 -0.006238
# 6 0.000000 0.000000 0.000000 -0.000420 -0.006238 0.036407
#
#
# Mechanical properties :
#
#
# Convention : Reuss Voigt Hill
#
# Bulk Modulus (GPa) = 35.57357 36.08317 35.82837
# Shear Modulus (GPa) = 32.07543 33.77563 32.92553
#
# Velocity S-wave (km/s) = 3.61930 3.71398 3.66694
# Velocity P-wave (km/s) = 5.65629 5.75565 5.70619
#
# Compressibility (1/GPa) = 0.02811075
#
# Stress axis : x y z
#
# Youngs Moduli (GPa) = 72.40862 72.40862 75.69355
#
# Poissons Ratio (x) = 0.31810 0.07447
# Poissons Ratio (y) = 0.31810 0.07447
# Poissons Ratio (z) = 0.07124 0.07124
#
# Static dielectric constant tensor:
#      x y z
#    x 2.001490 0.000000 0.000000 
#    y 0.000000 2.001490 0.000000 
#    z 0.000000 0.000000 1.980580 
# 
# From -- ./inp_files/114.got.cif
#   From: 2010.05.17/outbox.cif.g08.bks.cpg/sg144_cif.got.tgz:114.got - 2010.05.20 13:46:34.
