data_PCOD9574625
_publ_section_title
;
Structure prediction by ZEFSAII (Michael W. Deem and Ramdas Pophale) SiO2 
 PCOD9574625
Probable space group: P 32
;
_chemical_formula_sum "Si O2"
_cell_formula_units_Z 18
_cell_length_a 10.148898
_cell_length_b 10.148898
_cell_length_c 7.778236
_cell_angle_alpha 90.000000
_cell_angle_beta 90.000000
_cell_angle_gamma 120.000000
_cell_volume 693.824327
_symmetry_space_group_name_H-M "P 32"
_symmetry_group_IT_number 145
_symmetry_cell_setting 'hexagonal'
loop_
_space_group_symop_operation_xyz
x,y,z
-y,x-y,2/3+z
-x+y,-x,1/3+z
loop_
_atom_site_type_symbol
_atom_site_label
_atom_site_fract_x
_atom_site_fract_y
_atom_site_fract_z
Si Si1 0.969608 0.708318 0.855870
Si Si2 0.688860 0.684202 0.728789
Si Si3 0.184189 0.532043 0.320179
Si Si4 0.258407 0.798077 0.076998
Si Si5 0.670326 0.166719 0.511711
Si Si6 0.493540 0.413678 0.196745
O O1 0.868755 0.772792 0.766863
O O2 0.954607 0.591313 0.708150
O O3 0.141220 0.792420 0.931226
O O4 0.876770 0.621910 0.025351
O O5 0.629754 0.687624 0.537196
O O6 0.613974 0.505553 0.788116
O O7 0.608336 0.746346 0.859606
O O8 0.161615 0.652279 0.203725
O O9 0.360895 0.618021 0.370441
O O10 0.058436 0.481377 0.469513
O O11 0.689599 0.106158 0.696754
O O12 0.765904 0.346995 0.534965
#
# Coordination Sequence:
#
# PCOD9574625 Si02
#       6
#     3   3   3   3   3   3
#     4  12  25  46  77 121 175 235 291 380 449 562
#     4  11  25  46  76 127 175 236 298 378 466 550
#     4  11  23  44  74 123 179 216 288 391 458 538
#     4  12  25  47  77 123 180 224 298 376 467 542
#     4  11  21  42  69 116 176 216 295 360 452 541
#     4  11  25  39  75 120 173 229 284 377 466 523
#
# _framework density 25.943166000000002
#
# number of rings (size 3 to 8) (size 9 to 14) (size 15 to 20)
#    0.000    0.667    8.333    1.000    4.667    1.333 
#    0.000    0.000    0.000    0.000   17.333    0.000 
#    0.000    0.000    0.000    0.000    0.000    0.000 
#
# Total GULP energy -100524.968252 kJ/mol
# GULP energy per Si atom -5584.720458 kJ/mol
# Density = 2.588412 g / cm^3
# Si number density = 25.943166 Si / 1000 Ang^3
#
#
#
# Elastic Constant Matrix: (Units=GPa)
#
#
# Indices 1 2 3 4 5 6 
#
# 1 125.1655 47.3918 64.8691 3.2433 6.1376 0.0000
# 2 47.3918 125.1655 64.8691 -3.2433 -6.1376 0.0000
# 3 64.8691 64.8691 180.4912 0.0000 0.0000 0.0000
# 4 3.2433 -3.2433 0.0000 54.9887 0.0000 -6.1376
# 5 6.1376 -6.1376 0.0000 0.0000 54.9887 3.2433
# 6 0.0000 0.0000 0.0000 -6.1376 3.2433 38.8869
#
#
#
# Elastic Compliance Matrix: (Units=1/GPa)
#
#
# Indices 1 2 3 4 5 6 
#
# 1 0.010548 -0.002607 -0.002854 -0.000776 -0.001468 0.000000
# 2 -0.002607 0.010548 -0.002854 0.000776 0.001468 0.000000
# 3 -0.002854 -0.002854 0.007592 0.000000 0.000000 0.000000
# 4 -0.000776 0.000776 0.000000 0.018605 0.000000 0.002936
# 5 -0.001468 0.001468 0.000000 0.000000 0.018605 -0.001552
# 6 0.000000 0.000000 0.000000 0.002936 -0.001552 0.026309
#
#
# Mechanical properties :
#
#
# Convention : Reuss Voigt Hill
#
# Bulk Modulus (GPa) = 82.93365 87.23135 85.08250
# Shear Modulus (GPa) = 44.30506 46.68566 45.49536
#
# Velocity S-wave (km/s) = 4.13701 4.24670 4.19221
# Velocity P-wave (km/s) = 7.40652 7.59888 7.50332
#
# Compressibility (1/GPa) = 0.01205783
#
# Stress axis : x y z
#
# Youngs Moduli (GPa) = 94.80815 94.80815 131.71905
#
# Poissons Ratio (x) = 0.24713 0.37593
# Poissons Ratio (y) = 0.24713 0.37593
# Poissons Ratio (z) = 0.27058 0.27058
#
# Static dielectric constant tensor:
#      x y z
#    x 2.165540 0.000000 0.000000 
#    y 0.000000 2.165540 0.000000 
#    z 0.000000 0.000000 2.308330 
# 
# From -- ./inp_files/406.got.cif
#   From: 2010.05.17/outbox.cif.g08.bks.cpg/sg145_cif.got.tgz:406.got - 2010.05.20 13:47:28.
