data_PCOD9574773
_publ_section_title
;
Structure prediction by ZEFSAII (Michael W. Deem and Ramdas Pophale) SiO2 
 PCOD9574773
Probable space group: R 3
;
_chemical_formula_sum "Si O2"
_cell_formula_units_Z 51
_cell_length_a 17.354768
_cell_length_b 17.354768
_cell_length_c 8.924966
_cell_angle_alpha 90.000000
_cell_angle_beta 90.000000
_cell_angle_gamma 120.000000
_cell_volume 2327.956317
_symmetry_space_group_name_H-M "R 3"
_symmetry_group_IT_number 146
_symmetry_cell_setting 'hexagonal'
loop_
_space_group_symop_operation_xyz
x,y,z
-y,x-y,z
-x+y,-x,z
2/3+x,1/3+y,1/3+z
2/3-y,1/3+x-y,1/3+z
2/3-x+y,1/3-x,1/3+z
1/3+x,2/3+y,2/3+z
1/3-y,2/3+x-y,2/3+z
1/3-x+y,2/3-x,2/3+z
loop_
_atom_site_type_symbol
_atom_site_label
_atom_site_fract_x
_atom_site_fract_y
_atom_site_fract_z
Si Si1 0.832730 0.132328 0.399340
Si Si2 0.000000 0.000000 0.280182
Si Si3 0.722616 0.882435 0.753983
Si Si4 0.666668 0.333334 0.966129
Si Si5 0.155040 0.646983 0.870760
Si Si6 0.172335 0.471467 0.327798
Si Si7 0.171268 0.736015 0.573448
O O1 0.839059 0.177256 0.237128
O O2 0.759181 0.148218 0.484788
O O3 0.915163 0.163445 0.512432
O O4 0.811099 0.034318 0.342863
O O5 0.000000 0.000000 0.456349
O O6 0.047905 0.943169 0.238270
O O7 0.761766 0.828141 0.672790
O O8 0.660578 0.897936 0.639566
O O9 0.793573 0.979819 0.811211
O O10 0.594299 0.234577 0.011070
O O11 0.201997 0.712026 0.727629
O O12 0.182408 0.423943 0.475016
#
# Coordination Sequence:
#
# PCOD9574773 Si02
#       7
#     9   3   9   3   9   9   9
#     4  10  24  46  71 106 143 189 237 299 362 435
#     4  12  24  43  77 106 144 196 251 298 360 442
#     4  10  24  47  68 105 139 187 239 291 361 436
#     4  12  24  43  74 109 141 184 245 298 366 421
#     4  10  24  43  73 104 144 187 247 296 364 438
#     4  12  24  45  72 104 145 183 237 302 361 432
#     4  10  24  43  71 102 138 184 236 296 356 428
#
# _framework density 21.907627999999999
#
# number of rings (size 3 to 8) (size 9 to 14) (size 15 to 20)
#    0.000    1.412    3.529    0.000    4.941   11.294 
#    3.176    0.000    0.000    0.000    0.000    0.000 
#    0.000    0.000    0.000    0.000    0.000    0.000 
#
# Total GULP energy -94763.463814 kJ/mol
# GULP energy per Si atom -5574.321401 kJ/mol
# Density = 2.185777 g / cm^3
# Si number density = 21.907628 Si / 1000 Ang^3
#
#
#
# Elastic Constant Matrix: (Units=GPa)
#
#
# Indices 1 2 3 4 5 6 
#
# 1 100.1378 32.5133 35.7980 9.2427 15.2221 0.0000
# 2 32.5133 100.1357 35.7972 -9.2426 -15.2215 -0.0007
# 3 35.7980 35.7972 56.4299 0.0003 -0.0004 -0.0014
# 4 9.2427 -9.2426 0.0003 41.6470 0.0005 -15.2212
# 5 15.2221 -15.2215 -0.0004 0.0005 41.6467 9.2421
# 6 0.0000 -0.0007 -0.0014 -15.2212 9.2421 33.8110
#
#
#
# Elastic Compliance Matrix: (Units=1/GPa)
#
#
# Indices 1 2 3 4 5 6 
#
# 1 0.015275 -0.003811 -0.007272 -0.004236 -0.006976 0.000000
# 2 -0.003811 0.015275 -0.007272 0.004236 0.006976 0.000000
# 3 -0.007272 -0.007272 0.026948 0.000000 0.000000 0.000001
# 4 -0.004236 0.004236 0.000000 0.030991 0.000000 0.013952
# 5 -0.006976 0.006976 0.000000 0.000000 0.030991 -0.008471
# 6 0.000000 0.000000 0.000001 0.013952 -0.008471 0.038173
#
#
# Mechanical properties :
#
#
# Convention : Reuss Voigt Hill
#
# Bulk Modulus (GPa) = 48.10907 51.65784 49.88345
# Shear Modulus (GPa) = 24.83961 33.59392 29.21676
#
# Velocity S-wave (km/s) = 3.37090 3.92016 3.65586
# Velocity P-wave (km/s) = 6.09576 6.64238 6.37493
#
# Compressibility (1/GPa) = 0.02078610
#
# Stress axis : x y z
#
# Youngs Moduli (GPa) = 65.46711 65.46664 37.10882
#
# Poissons Ratio (x) = 0.24951 0.26987
# Poissons Ratio (y) = 0.24951 0.26986
# Poissons Ratio (z) = 0.47610 0.47608
#
# Static dielectric constant tensor:
#      x y z
#    x 1.790410 0.000000 0.000000 
#    y 0.000000 1.790410 0.000000 
#    z 0.000000 0.000000 1.790380 
# 
# From -- ./inp_files/675.got.cif
#   From: 2010.05.17/outbox.cif.g08.bks.cpg/sg146_cif.got.tgz:675.got - 2010.05.20 13:48:23.
