data_PCOD9574415
_publ_section_title
;
Structure prediction by ZEFSAII (Michael W. Deem and Ramdas Pophale) SiO2 
 PCOD9574415
Probable space group: P 31
;
_chemical_formula_sum "Si O2"
_cell_formula_units_Z 12
_cell_length_a 5.323018
_cell_length_b 5.323018
_cell_length_c 16.801827
_cell_angle_alpha 90.000000
_cell_angle_beta 90.000000
_cell_angle_gamma 120.000000
_cell_volume 412.290198
_symmetry_space_group_name_H-M "P 31"
_symmetry_group_IT_number 144
_symmetry_cell_setting 'hexagonal'
loop_
_space_group_symop_operation_xyz
x,y,z
-y,x-y,1/3+z
-x+y,-x,2/3+z
loop_
_atom_site_type_symbol
_atom_site_label
_atom_site_fract_x
_atom_site_fract_y
_atom_site_fract_z
Si Si1 0.430933 0.679937 0.622560
Si Si2 0.382908 0.168659 0.721300
Si Si3 0.045051 0.024095 0.212148
Si Si4 0.537466 0.117350 0.499495
O O1 0.308817 0.387832 0.674129
O O2 0.782324 0.805926 0.615316
O O3 0.391858 0.784615 0.532295
O O4 0.364648 0.897853 0.674083
O O5 0.168275 0.053729 0.797207
O O6 0.718784 0.349154 0.750042
O O7 0.390258 0.154577 0.209374
O O8 0.887215 0.681610 0.203563
#
# Coordination Sequence:
#
# PCOD9574415 Si02
#       4
#     3   3   3   3
#     4  10  26  42  76 112 150 218 258 348 408 498
#     4  12  22  48  72 110 150 210 262 328 430 470
#     4  10  24  44  68 109 148 201 266 332 392 504
#     4  10  24  44  68 109 148 201 266 332 392 504
#
# _framework density 29.105710999999999
#
# number of rings (size 3 to 8) (size 9 to 14) (size 15 to 20)
#    1.500    0.000    0.000    4.500    0.000    6.000 
#    0.000    0.000    0.000    0.000    0.000    0.000 
#    0.000    0.000    0.000    0.000    0.000    0.000 
#
# Total GULP energy -66813.572183 kJ/mol
# GULP energy per Si atom -5567.797682 kJ/mol
# Density = 2.903947 g / cm^3
# Si number density = 29.105711 Si / 1000 Ang^3
#
#
#
# Elastic Constant Matrix: (Units=GPa)
#
#
# Indices 1 2 3 4 5 6 
#
# 1 105.8698 -13.9846 24.1569 -6.1244 -3.4497 0.0000
# 2 -13.9846 105.8698 24.1569 6.1244 3.4497 0.0000
# 3 24.1569 24.1569 110.8432 0.0000 0.0000 0.0000
# 4 -6.1244 6.1244 0.0000 52.6664 0.0000 3.4497
# 5 -3.4497 3.4497 0.0000 0.0000 52.6664 -6.1244
# 6 0.0000 0.0000 0.0000 3.4497 -6.1244 59.9272
#
#
#
# Elastic Compliance Matrix: (Units=1/GPa)
#
#
# Indices 1 2 3 4 5 6 
#
# 1 0.010384 0.001908 -0.002679 0.000986 0.000555 0.000000
# 2 0.001908 0.010384 -0.002679 -0.000986 -0.000555 0.000000
# 3 -0.002679 -0.002679 0.010189 0.000000 0.000000 0.000000
# 4 0.000986 -0.000986 0.000000 0.019289 0.000000 -0.001110
# 5 0.000555 -0.000555 0.000000 0.000000 0.019289 0.001971
# 6 0.000000 0.000000 0.000000 -0.001110 0.001971 0.016952
#
#
# Mechanical properties :
#
#
# Convention : Reuss Voigt Hill
#
# Bulk Modulus (GPa) = 41.56711 43.47123 42.51917
# Shear Modulus (GPa) = 49.30612 52.26888 50.78750
#
# Velocity S-wave (km/s) = 4.12033 4.24232 4.18177
# Velocity P-wave (km/s) = 6.07854 6.24215 6.16089
#
# Compressibility (1/GPa) = 0.02405748
#
# Stress axis : x y z
#
# Youngs Moduli (GPa) = 96.30272 96.30272 98.14131
#
# Poissons Ratio (x) = -0.18372 0.26290
# Poissons Ratio (y) = -0.18372 0.26290
# Poissons Ratio (z) = 0.25798 0.25798
#
# Static dielectric constant tensor:
#      x y z
#    x 2.432880 0.000000 0.000000 
#    y 0.000000 2.432880 0.000000 
#    z 0.000000 0.000000 2.374530 
# 
# From -- ./inp_files/878.got.cif
#   From: 2010.05.17/outbox.cif.g08.bks.cpg/sg144_cif.got.tgz:878.got - 2010.05.20 13:46:34.
