data_PCOD9574555
_publ_section_title
;
Structure prediction by ZEFSAII (Michael W. Deem and Ramdas Pophale) SiO2 
 PCOD9574555
Probable space group: P 32
;
_chemical_formula_sum "Si O2"
_cell_formula_units_Z 18
_cell_length_a 11.892041
_cell_length_b 11.892041
_cell_length_c 5.959125
_cell_angle_alpha 90.000000
_cell_angle_beta 90.000000
_cell_angle_gamma 120.000000
_cell_volume 729.837077
_symmetry_space_group_name_H-M "P 32"
_symmetry_group_IT_number 145
_symmetry_cell_setting 'hexagonal'
loop_
_space_group_symop_operation_xyz
x,y,z
-y,x-y,2/3+z
-x+y,-x,1/3+z
loop_
_atom_site_type_symbol
_atom_site_label
_atom_site_fract_x
_atom_site_fract_y
_atom_site_fract_z
Si Si1 0.515881 0.614875 0.958780
Si Si2 0.284730 0.468265 0.622344
Si Si3 0.145991 0.285031 0.001562
Si Si4 0.698122 0.051096 0.007522
Si Si5 0.800369 0.407116 0.398051
Si Si6 0.929388 0.051951 0.203350
O O1 0.386321 0.553295 0.810424
O O2 0.625004 0.735488 0.818201
O O3 0.564368 0.511381 0.008561
O O4 0.485497 0.680914 0.168583
O O5 0.364726 0.430646 0.450522
O O6 0.182248 0.340267 0.755545
O O7 0.263837 0.279435 0.122138
O O8 0.023047 0.144881 0.007056
O O9 0.810120 0.077907 0.185080
O O10 0.685732 0.170847 0.924549
O O11 0.700934 0.270361 0.518475
O O12 0.015323 0.101214 0.428803
#
# Coordination Sequence:
#
# PCOD9574555 Si02
#       6
#     3   3   3   3   3   3
#     4  11  28  48  73 115 149 202 260 322 404 464
#     4  11  25  47  76 106 152 193 253 329 385 476
#     4  10  23  43  72 106 144 192 242 324 378 471
#     4  10  24  46  67 107 145 193 255 305 389 448
#     4  12  31  51  76 112 155 221 265 327 387 481
#     4  10  21  39  68 102 137 187 241 305 383 446
#
# _framework density 24.663039000000001
#
# number of rings (size 3 to 8) (size 9 to 14) (size 15 to 20)
#    0.000    1.333    1.667    1.000    9.333    1.333 
#    6.000    0.000    0.000    0.000    0.000    0.000 
#    0.000    0.000    0.000    0.000    0.000    0.000 
#
# Total GULP energy -100670.998507 kJ/mol
# GULP energy per Si atom -5592.833250 kJ/mol
# Density = 2.460690 g / cm^3
# Si number density = 24.663039 Si / 1000 Ang^3
#
#
#
# Elastic Constant Matrix: (Units=GPa)
#
#
# Indices 1 2 3 4 5 6 
#
# 1 109.5348 30.3459 40.7861 7.0928 5.2024 0.0000
# 2 30.3459 109.5348 40.7861 -7.0928 -5.2024 0.0000
# 3 40.7861 40.7861 84.7640 0.0000 0.0000 0.0000
# 4 7.0928 -7.0928 0.0000 37.9468 0.0000 -5.2024
# 5 5.2024 -5.2024 0.0000 0.0000 37.9468 7.0928
# 6 0.0000 0.0000 0.0000 -5.2024 7.0928 39.5945
#
#
#
# Elastic Compliance Matrix: (Units=1/GPa)
#
#
# Indices 1 2 3 4 5 6 
#
# 1 0.011625 -0.001688 -0.004782 -0.002489 -0.001825 0.000000
# 2 -0.001688 0.011625 -0.004782 0.002489 0.001825 0.000000
# 3 -0.004782 -0.004782 0.016399 0.000000 0.000000 0.000000
# 4 -0.002489 0.002489 0.000000 0.027783 0.000000 0.003651
# 5 -0.001825 0.001825 0.000000 0.000000 0.027783 -0.004977
# 6 0.000000 0.000000 0.000000 0.003651 -0.004977 0.026627
#
#
# Mechanical properties :
#
#
# Convention : Reuss Voigt Hill
#
# Bulk Modulus (GPa) = 58.31798 58.63000 58.47399
# Shear Modulus (GPa) = 33.31945 35.89199 34.60572
#
# Velocity S-wave (km/s) = 3.67957 3.81897 3.74992
# Velocity P-wave (km/s) = 6.46139 6.57800 6.51995
#
# Compressibility (1/GPa) = 0.01714737
#
# Stress axis : x y z
#
# Youngs Moduli (GPa) = 86.01783 86.01783 60.97935
#
# Poissons Ratio (x) = 0.14521 0.29158
# Poissons Ratio (y) = 0.14521 0.29158
# Poissons Ratio (z) = 0.41130 0.41130
#
# Static dielectric constant tensor:
#      x y z
#    x 2.018150 0.000000 0.000000 
#    y 0.000000 2.018150 0.000000 
#    z 0.000000 0.000000 1.994530 
# 
# From -- ./inp_files/132.got.cif
#   From: 2010.05.17/outbox.cif.g08.bks.cpg/sg145_cif.got.tgz:132.got - 2010.05.20 13:47:28.
