data_PCOD9574341
_publ_section_title
;
Structure prediction by ZEFSAII (Michael W. Deem and Ramdas Pophale) SiO2 
 PCOD9574341
Probable space group: P 31
;
_chemical_formula_sum "Si O2"
_cell_formula_units_Z 21
_cell_length_a 11.694067
_cell_length_b 11.694067
_cell_length_c 7.710376
_cell_angle_alpha 90.000000
_cell_angle_beta 90.000000
_cell_angle_gamma 120.000000
_cell_volume 913.139951
_symmetry_space_group_name_H-M "P 31"
_symmetry_group_IT_number 144
_symmetry_cell_setting 'hexagonal'
loop_
_space_group_symop_operation_xyz
x,y,z
-y,x-y,1/3+z
-x+y,-x,2/3+z
loop_
_atom_site_type_symbol
_atom_site_label
_atom_site_fract_x
_atom_site_fract_y
_atom_site_fract_z
Si Si1 0.586185 0.315666 0.830100
Si Si2 0.463013 0.563696 0.156986
Si Si3 0.710167 0.917080 0.473670
Si Si4 0.031025 0.523729 0.423027
Si Si5 0.147172 0.797199 0.441031
Si Si6 0.105503 0.025181 0.320853
Si Si7 0.977361 0.343683 0.126332
O O1 0.679035 0.328665 0.670092
O O2 0.545159 0.421975 0.786226
O O3 0.450287 0.176225 0.836175
O O4 0.320000 0.437223 0.199588
O O5 0.519209 0.721083 0.178683
O O6 0.571599 0.563312 0.286371
O O7 0.474533 0.556965 0.949287
O O8 0.714640 0.951974 0.270523
O O9 0.735658 0.792272 0.452458
O O10 0.826884 0.030428 0.584906
O O11 0.078992 0.664785 0.331815
O O12 0.057095 0.440363 0.284300
O O13 0.167899 0.930774 0.355906
O O14 0.042911 0.041133 0.499710
#
# Coordination Sequence:
#
# PCOD9574341 Si02
#       7
#     3   3   3   3   3   3   3
#     4  10  21  40  62  92 128 171 220 266 328 395
#     4  10  23  44  62  96 132 173 220 278 336 405
#     4  10  24  45  68 101 139 179 231 290 349 417
#     4  10  23  40  66  96 131 175 224 279 334 411
#     4  10  24  45  68 101 139 179 231 290 349 417
#     4  12  26  44  70 104 140 186 234 300 354 422
#     4  10  23  40  66  96 131 175 224 279 334 411
#
# _framework density 22.99757
#
# number of rings (size 3 to 8) (size 9 to 14) (size 15 to 20)
#    0.000    1.714    1.429    0.857    6.000    3.429 
#   12.857    0.000    0.000    0.000    0.000    0.000 
#    0.000    0.000    0.000    0.000    0.000    0.000 
#
# Total GULP energy -116921.847792 kJ/mol
# GULP energy per Si atom -5567.707038 kJ/mol
# Density = 2.294523 g / cm^3
# Si number density = 22.997570 Si / 1000 Ang^3
#
#
#
# Elastic Constant Matrix: (Units=GPa)
#
#
# Indices 1 2 3 4 5 6 
#
# 1 46.0364 18.3116 3.1696 3.6021 -11.2113 0.0000
# 2 18.3116 46.0364 3.1696 -3.6021 11.2113 0.0000
# 3 3.1696 3.1696 56.4573 0.0000 0.0000 0.0000
# 4 3.6021 -3.6021 0.0000 22.1907 0.0000 11.2113
# 5 -11.2113 11.2113 0.0000 0.0000 22.1907 3.6021
# 6 0.0000 0.0000 0.0000 11.2113 3.6021 13.8624
#
#
#
# Elastic Compliance Matrix: (Units=1/GPa)
#
#
# Indices 1 2 3 4 5 6 
#
# 1 0.040650 -0.025023 -0.000877 -0.010660 0.033180 0.000000
# 2 -0.025023 0.040650 -0.000877 0.010660 -0.033180 0.000000
# 3 -0.000877 -0.000877 0.017811 0.000000 0.000000 0.000000
# 4 -0.010660 0.010660 0.000000 0.082051 0.000000 -0.066360
# 5 0.033180 -0.033180 0.000000 0.000000 0.082051 -0.021321
# 6 0.000000 0.000000 0.000000 -0.066360 -0.021321 0.131347
#
#
# Mechanical properties :
#
#
# Convention : Reuss Voigt Hill
#
# Bulk Modulus (GPa) = 21.95121 21.98131 21.96626
# Shear Modulus (GPa) = 10.79211 19.90739 15.34975
#
# Velocity S-wave (km/s) = 2.16862 2.94535 2.58631
# Velocity P-wave (km/s) = 3.97948 4.59844 4.30011
#
# Compressibility (1/GPa) = 0.04555558
#
# Stress axis : x y z
#
# Youngs Moduli (GPa) = 24.60018 24.60018 56.14505
#
# Poissons Ratio (x) = 0.61558 0.04926
# Poissons Ratio (y) = 0.61558 0.04926
# Poissons Ratio (z) = 0.02158 0.02158
#
# Static dielectric constant tensor:
#      x y z
#    x 1.920190 0.000000 0.000000 
#    y 0.000000 1.920190 0.000000 
#    z 0.000000 0.000000 1.973110 
# 
# From -- ./inp_files/331.got.cif
#   From: 2010.05.17/outbox.cif.g08.bks.cpg/sg144_cif.got.tgz:331.got - 2010.05.20 13:46:34.
