data_PCOD9574723
_publ_section_title
;
Structure prediction by ZEFSAII (Michael W. Deem and Ramdas Pophale) SiO2 
 PCOD9574723
Probable space group: R 3
;
_chemical_formula_sum "Si O2"
_cell_formula_units_Z 63
_cell_length_a 18.838921
_cell_length_b 18.838921
_cell_length_c 8.588720
_cell_angle_alpha 90.000000
_cell_angle_beta 90.000000
_cell_angle_gamma 120.000000
_cell_volume 2639.800618
_symmetry_space_group_name_H-M "R 3"
_symmetry_group_IT_number 146
_symmetry_cell_setting 'hexagonal'
loop_
_space_group_symop_operation_xyz
x,y,z
-y,x-y,z
-x+y,-x,z
2/3+x,1/3+y,1/3+z
2/3-y,1/3+x-y,1/3+z
2/3-x+y,1/3-x,1/3+z
1/3+x,2/3+y,2/3+z
1/3-y,2/3+x-y,2/3+z
1/3-x+y,2/3-x,2/3+z
loop_
_atom_site_type_symbol
_atom_site_label
_atom_site_fract_x
_atom_site_fract_y
_atom_site_fract_z
Si Si1 0.075515 0.583825 0.313040
Si Si2 0.652084 0.103474 0.290738
Si Si3 0.827268 0.626985 0.503831
Si Si4 0.039767 0.329675 0.012794
Si Si5 0.297401 0.560113 0.797164
Si Si6 0.794729 0.842026 0.459221
Si Si7 0.219688 0.732275 0.139039
O O1 0.089964 0.618535 0.483554
O O2 0.074789 0.500088 0.278377
O O3 0.158661 0.646030 0.219955
O O4 0.989422 0.573226 0.260162
O O5 0.709562 0.114229 0.437379
O O6 0.615422 0.163002 0.327349
O O7 0.754018 0.613803 0.385982
O O8 0.785204 0.579332 0.661387
O O9 0.882604 0.725074 0.522068
O O10 0.107368 0.424062 0.043629
O O11 0.980940 0.316558 0.164729
O O12 0.390996 0.638008 0.793432
O O13 0.282243 0.509785 0.955984
O O14 0.887069 0.869894 0.514858
#
# Coordination Sequence:
#
# PCOD9574723 Si02
#       7
#     9   9   9   9   9   9   9
#     4  12  26  40  66 102 140 190 237 306 381 439
#     4  12  25  43  63 103 144 186 244 309 370 450
#     4  10  21  40  67  97 136 188 242 301 373 445
#     4   9  20  38  65  98 140 187 243 312 378 461
#     4  10  24  46  73 103 141 198 254 303 368 455
#     4  10  23  44  66 102 138 189 250 300 379 456
#     4  11  21  43  72  95 141 188 244 305 367 462
#
# _framework density 23.865437
#
# number of rings (size 3 to 8) (size 9 to 14) (size 15 to 20)
#    0.286    1.143    0.000    5.143    2.000    1.143 
#    6.000    0.000    0.000    0.000    0.000    0.000 
#    0.000    0.000    0.000    0.000    0.000    0.000 
#
# Total GULP energy -116969.434031 kJ/mol
# GULP energy per Si atom -5569.973049 kJ/mol
# Density = 2.381112 g / cm^3
# Si number density = 23.865437 Si / 1000 Ang^3
#
#
#
# Elastic Constant Matrix: (Units=GPa)
#
#
# Indices 1 2 3 4 5 6 
#
# 1 110.6455 44.5971 41.4041 8.3485 4.0398 0.0002
# 2 44.5971 110.6457 41.4062 -8.3486 -4.0400 -0.0002
# 3 41.4041 41.4062 73.9804 0.0001 -0.0023 0.0007
# 4 8.3485 -8.3486 0.0001 33.0456 0.0001 -4.0404
# 5 4.0398 -4.0400 -0.0023 0.0001 33.0446 8.3490
# 6 0.0002 -0.0002 0.0007 -4.0404 8.3490 33.0243
#
#
#
# Elastic Compliance Matrix: (Units=1/GPa)
#
#
# Indices 1 2 3 4 5 6 
#
# 1 0.012809 -0.003626 -0.005139 -0.004152 -0.002010 0.000000
# 2 -0.003626 0.012810 -0.005140 0.004152 0.002009 0.000000
# 3 -0.005139 -0.005140 0.019270 0.000000 0.000001 -0.000001
# 4 -0.004152 0.004152 0.000000 0.032851 0.000000 0.004019
# 5 -0.002010 0.002009 0.000001 0.000000 0.032852 -0.008305
# 6 0.000000 0.000000 -0.000001 0.004019 -0.008305 0.032872
#
#
# Mechanical properties :
#
#
# Convention : Reuss Voigt Hill
#
# Bulk Modulus (GPa) = 58.55486 61.12073 59.83779
# Shear Modulus (GPa) = 28.25374 31.01384 29.63379
#
# Velocity S-wave (km/s) = 3.44448 3.60881 3.52760
# Velocity P-wave (km/s) = 6.35673 6.55979 6.45906
#
# Compressibility (1/GPa) = 0.01707800
#
# Stress axis : x y z
#
# Youngs Moduli (GPa) = 78.06775 78.06622 51.89382
#
# Poissons Ratio (x) = 0.28310 0.26670
# Poissons Ratio (y) = 0.28310 0.26673
# Poissons Ratio (z) = 0.40122 0.40125
#
# Static dielectric constant tensor:
#      x y z
#    x 2.127730 0.000000 0.000000 
#    y 0.000000 2.127730 0.000000 
#    z 0.000000 0.000000 1.960020 
# 
# From -- ./inp_files/813.got.cif
#   From: 2010.05.17/outbox.cif.g08.bks.cpg/sg146_cif.got.tgz:813.got - 2010.05.20 13:48:23.
