data_PCOD9574216
_publ_section_title
;
Structure prediction by ZEFSAII (Michael W. Deem and Ramdas Pophale) SiO2 
 PCOD9574216
Probable space group: I 41/A C D
;
_chemical_formula_sum "Si O2"
_cell_formula_units_Z 136
_cell_length_a 20.037608
_cell_length_b 20.037608
_cell_length_c 15.104800
_cell_angle_alpha 90.000000
_cell_angle_beta 90.000000
_cell_angle_gamma 90.000000
_cell_volume 6064.663816
_symmetry_space_group_name_H-M "I 41/A C D"
_symmetry_group_IT_number 142
_space_group.IT_coordinate_system_code '2'
_symmetry_cell_setting 'tetragonal'
loop_
_space_group_symop_operation_xyz
x,y,z
1/4-y,3/4+x,1/4+z
-x,1/2-y,z
1/4+y,1/4-x,3/4+z
x,-y,1/2-z
1/2-x,y,-z
3/4+y,1/4+x,1/4-z
1/4-y,1/4-x,1/4-z
-x,-y,-z
3/4+y,1/4-x,3/4-z
x,1/2+y,-z
3/4-y,3/4+x,1/4-z
-x,y,1/2+z
1/2+x,-y,z
1/4-y,3/4-x,3/4+z
3/4+y,3/4+x,3/4+z
1/2+x,1/2+y,1/2+z
3/4-y,1/4+x,3/4+z
1/2-x,-y,1/2+z
3/4+y,3/4-x,1/4+z
1/2+x,1/2-y,-z
-x,1/2+y,1/2-z
1/4+y,3/4+x,3/4-z
3/4-y,3/4-x,3/4-z
1/2-x,1/2-y,1/2-z
1/4+y,3/4-x,1/4-z
1/2+x,y,1/2-z
1/4-y,1/4+x,3/4-z
1/2-x,1/2+y,z
x,1/2-y,1/2+z
3/4-y,1/4-x,1/4+z
1/4+y,1/4+x,1/4+z
loop_
_atom_site_type_symbol
_atom_site_label
_atom_site_fract_x
_atom_site_fract_y
_atom_site_fract_z
Si Si1 0.000000 0.750000 0.875000
Si Si2 0.911690 0.046208 0.866546
Si Si3 0.436366 0.490738 0.847093
Si Si4 0.368239 0.275685 0.776431
Si Si5 0.685639 0.874499 0.249416
O O1 0.941057 0.740842 0.805919
O O2 0.874479 0.076525 0.780034
O O3 0.925924 0.101866 0.943792
O O4 0.988139 0.022435 0.848018
O O5 0.870611 0.985687 0.914903
O O6 0.410592 0.500000 0.750000
O O7 0.447405 0.417841 0.885762
O O8 0.381570 0.520819 0.912510
O O9 0.338492 0.202222 0.757951
#
# Coordination Sequence:
#
# PCOD9574216 Si02
#       5
#     8  32  32  32  32
#     4  12  24  32  58 104 124 140 198 244 316 348
#     4   9  19  38  60  87 118 158 206 246 295 359
#     4   9  19  36  60  85 114 165 195 229 309 366
#     4   9  22  35  52  90 128 153 194 247 298 373
#     4   9  19  38  60  87 118 158 206 246 295 359
#
# _framework density 22.424986000000001
#
# number of rings (size 3 to 8) (size 9 to 14) (size 15 to 20)
#    0.000    2.824    0.000    2.824    6.588    1.882 
#    0.000    0.000    0.000    4.235    0.000    0.000 
#    0.000    0.000    0.000    0.000    0.000    0.000 
#
# Total GULP energy -378627.166192 kJ/mol
# GULP energy per Si atom -5568.046562 kJ/mol
# Density = 2.237395 g / cm^3
# Si number density = 22.424986 Si / 1000 Ang^3
#
#
#
# Elastic Constant Matrix: (Units=GPa)
#
#
# Indices 1 2 3 4 5 6 
#
# 1 48.3200 -3.4981 0.1741 0.0000 0.0000 0.0000
# 2 -3.4981 48.3200 0.1741 0.0000 0.0000 0.0000
# 3 0.1741 0.1741 108.7371 0.0000 0.0000 0.0000
# 4 0.0000 0.0000 0.0000 111.4264 0.0000 0.0000
# 5 0.0000 0.0000 0.0000 0.0000 111.4264 0.0000
# 6 0.0000 0.0000 0.0000 0.0000 0.0000 19.7410
#
#
#
# Elastic Compliance Matrix: (Units=1/GPa)
#
#
# Indices 1 2 3 4 5 6 
#
# 1 0.020805 0.001506 -0.000036 0.000000 0.000000 0.000000
# 2 0.001506 0.020805 -0.000036 0.000000 0.000000 0.000000
# 3 -0.000036 -0.000036 0.009197 0.000000 0.000000 0.000000
# 4 0.000000 0.000000 0.000000 0.008975 0.000000 0.000000
# 5 0.000000 0.000000 0.000000 0.000000 0.008975 0.000000
# 6 0.000000 0.000000 0.000000 0.000000 0.000000 0.050656
#
#
# Mechanical properties :
#
#
# Convention : Reuss Voigt Hill
#
# Bulk Modulus (GPa) = 18.63053 22.11969 20.37511
# Shear Modulus (GPa) = 37.19330 62.42055 49.80692
#
# Velocity S-wave (km/s) = 4.07697 5.28164 4.71791
# Velocity P-wave (km/s) = 5.52161 6.86145 6.22767
#
# Compressibility (1/GPa) = 0.05367534
#
# Stress axis : x y z
#
# Youngs Moduli (GPa) = 48.06640 48.06640 108.73573
#
# Poissons Ratio (x) = -0.07240 0.00388
# Poissons Ratio (y) = -0.07240 0.00388
# Poissons Ratio (z) = 0.00172 0.00172
#
# Static dielectric constant tensor:
#      x y z
#    x 2.431680 0.000000 0.000000 
#    y 0.000000 2.431680 0.000000 
#    z 0.000000 0.000000 1.909890 
# 
# From -- ./inp_files/5310.got.cif
#   From: 2010.05.17/outbox.cif.g08.bks.cpg/sg142_3_cif.got.tgz:5310.got - 2010.05.20 13:39:18.
