data_PCOD9574918
_publ_section_title
;
Structure prediction by ZEFSAII (Michael W. Deem and Ramdas Pophale) SiO2 
 PCOD9574918
Probable space group: P -3
;
_chemical_formula_sum "Si O2"
_cell_formula_units_Z 42
_cell_length_a 8.892679
_cell_length_b 8.892679
_cell_length_c 31.367632
_cell_angle_alpha 90.000000
_cell_angle_beta 90.000000
_cell_angle_gamma 120.000000
_cell_volume 2148.214272
_symmetry_space_group_name_H-M "P -3"
_symmetry_group_IT_number 147
_symmetry_cell_setting 'hexagonal'
loop_
_space_group_symop_operation_xyz
x,y,z
-y,x-y,z
-x+y,-x,z
-x,-y,-z
y,-x+y,-z
x-y,x,-z
loop_
_atom_site_type_symbol
_atom_site_label
_atom_site_fract_x
_atom_site_fract_y
_atom_site_fract_z
Si Si1 0.343257 0.995078 0.203859
Si Si2 0.676264 0.683458 0.762531
Si Si3 0.314460 0.992804 0.663033
Si Si4 0.339998 0.868527 0.109785
Si Si5 0.468156 0.893858 0.543107
Si Si6 0.353091 0.993166 0.369403
Si Si7 0.996212 0.665143 0.982005
O O1 0.310262 0.153079 0.212699
O O2 0.518123 0.029715 0.227694
O O3 0.182260 0.819465 0.221818
O O4 0.354191 0.963334 0.153847
O O5 0.710717 0.731679 0.712723
O O6 0.171029 0.819826 0.639187
O O7 0.502125 0.008143 0.660759
O O8 0.328792 0.163588 0.641343
O O9 0.174092 0.672001 0.108338
O O10 0.331003 0.968332 0.068634
O O11 0.258352 0.776738 0.544763
O O12 0.500000 0.000000 0.500000
O O13 0.572004 0.009442 0.583582
O O14 0.835648 0.667758 0.003900
O O15 0.000000 0.500000 0.000000
#
# Coordination Sequence:
#
# PCOD9574918 Si02
#       7
#     6   6   6   6   6   6   6
#     4  12  25  43  70  96 140 176 235 278 347 407
#     4  12  24  43  65 103 130 183 227 283 337 415
#     4  12  24  42  69  95 142 176 230 283 346 392
#     4  10  20  44  71  95 137 180 225 288 347 407
#     4  10  23  43  69  99 135 174 220 273 334 401
#     4  12  25  45  67 103 136 183 227 287 334 413
#     4  12  24  43  71 105 139 180 226 286 349 421
#
# _framework density 19.551124000000002
#
# number of rings (size 3 to 8) (size 9 to 14) (size 15 to 20)
#    0.571    0.000    4.286    4.714    2.000    2.286 
#    0.000    0.000    0.000    1.143    0.000    0.000 
#    0.000    0.000    0.000    0.000    0.000    0.000 
#
# Total GULP energy -234598.465150 kJ/mol
# GULP energy per Si atom -5585.677742 kJ/mol
# Density = 1.950662 g / cm^3
# Si number density = 19.551124 Si / 1000 Ang^3
#
#
#
# Elastic Constant Matrix: (Units=GPa)
#
#
# Indices 1 2 3 4 5 6 
#
# 1 90.0095 22.1487 30.5392 3.4690 -6.7011 0.0000
# 2 22.1487 90.0095 30.5392 -3.4690 6.7011 0.0000
# 3 30.5392 30.5392 176.6223 0.0000 0.0000 0.0000
# 4 3.4690 -3.4690 0.0000 24.6626 0.0000 6.7011
# 5 -6.7011 6.7011 0.0000 0.0000 24.6626 3.4690
# 6 0.0000 0.0000 0.0000 6.7011 3.4690 33.9304
#
#
#
# Elastic Compliance Matrix: (Units=1/GPa)
#
#
# Indices 1 2 3 4 5 6 
#
# 1 0.012827 -0.002985 -0.001702 -0.002224 0.004296 0.000000
# 2 -0.002985 0.012827 -0.001702 0.002224 -0.004296 0.000000
# 3 -0.001702 -0.001702 0.006250 0.000000 0.000000 0.000000
# 4 -0.002224 0.002224 0.000000 0.043508 0.000000 -0.008593
# 5 0.004296 -0.004296 0.000000 0.000000 0.043508 -0.004448
# 6 0.000000 0.000000 0.000000 -0.008593 -0.004448 0.031624
#
#
# Mechanical properties :
#
#
# Convention : Reuss Voigt Hill
#
# Bulk Modulus (GPa) = 52.27842 58.12173 55.20007
# Shear Modulus (GPa) = 29.46429 34.87873 32.17151
#
# Velocity S-wave (km/s) = 3.88627 4.22830 4.06089
# Velocity P-wave (km/s) = 6.85090 7.32329 7.09103
#
# Compressibility (1/GPa) = 0.01912835
#
# Stress axis : x y z
#
# Youngs Moduli (GPa) = 77.95843 77.95843 159.99139
#
# Poissons Ratio (x) = 0.23267 0.27229
# Poissons Ratio (y) = 0.23267 0.27229
# Poissons Ratio (z) = 0.13268 0.13268
#
# Static dielectric constant tensor:
#      x y z
#    x 1.694190 0.000000 0.000000 
#    y 0.000000 1.694190 0.000000 
#    z 0.000000 0.000000 1.702820 
# 
# From -- ./inp_files/1137.got.cif
#   From: 2010.05.17/outbox.cif.g08.bks.cpg/sg147_cif.got.tgz:1137.got - 2010.05.20 13:49:32.
