data_PCOD9574158
_publ_section_title
;
Structure prediction by ZEFSAII (Michael W. Deem and Ramdas Pophale) SiO2 
 PCOD9574158
Probable space group: I 41/A C D
;
_chemical_formula_sum "Si O2"
_cell_formula_units_Z 104
_cell_length_a 14.155093
_cell_length_b 14.155093
_cell_length_c 20.422867
_cell_angle_alpha 90.000000
_cell_angle_beta 90.000000
_cell_angle_gamma 90.000000
_cell_volume 4092.061604
_symmetry_space_group_name_H-M "I 41/A C D"
_symmetry_group_IT_number 142
_space_group.IT_coordinate_system_code '2'
_symmetry_cell_setting 'tetragonal'
loop_
_space_group_symop_operation_xyz
x,y,z
1/4-y,3/4+x,1/4+z
-x,1/2-y,z
1/4+y,1/4-x,3/4+z
x,-y,1/2-z
1/2-x,y,-z
3/4+y,1/4+x,1/4-z
1/4-y,1/4-x,1/4-z
-x,-y,-z
3/4+y,1/4-x,3/4-z
x,1/2+y,-z
3/4-y,3/4+x,1/4-z
-x,y,1/2+z
1/2+x,-y,z
1/4-y,3/4-x,3/4+z
3/4+y,3/4+x,3/4+z
1/2+x,1/2+y,1/2+z
3/4-y,1/4+x,3/4+z
1/2-x,-y,1/2+z
3/4+y,3/4-x,1/4+z
1/2+x,1/2-y,-z
-x,1/2+y,1/2-z
1/4+y,3/4+x,3/4-z
3/4-y,3/4-x,3/4-z
1/2-x,1/2-y,1/2-z
1/4+y,3/4-x,1/4-z
1/2+x,y,1/2-z
1/4-y,1/4+x,3/4-z
1/2-x,1/2+y,z
x,1/2-y,1/2+z
3/4-y,1/4-x,1/4+z
1/4+y,1/4+x,1/4+z
loop_
_atom_site_type_symbol
_atom_site_label
_atom_site_fract_x
_atom_site_fract_y
_atom_site_fract_z
Si Si1 0.296451 0.650571 0.303789
Si Si2 0.000000 0.750000 0.375000
Si Si3 0.573370 0.145627 0.990607
Si Si4 0.015030 0.946124 0.181236
O O1 0.198108 0.615693 0.273537
O O2 0.351530 0.719097 0.252774
O O3 0.268060 0.717580 0.364902
O O4 0.373411 0.573204 0.324450
O O5 0.032290 0.674216 0.320091
O O6 0.601870 0.203893 0.054160
O O7 0.999865 0.000000 0.250000
#
# Coordination Sequence:
#
# PCOD9574158 Si02
#       4
#    32   8  32  32
#     4  11  24  44  68 104 138 185 242 298 356 444
#     4  12  20  40  70 100 140 192 236 288 376 438
#     4  11  24  41  68 103 143 180 240 301 355 438
#     4  12  24  45  74 101 144 196 236 303 377 431
#
# _framework density 25.415061000000001
#
# number of rings (size 3 to 8) (size 9 to 14) (size 15 to 20)
#    0.000    0.615    6.154    1.846    0.000    1.231 
#    0.000    0.000    0.000    0.000    0.000    0.000 
#    0.000    0.000    0.000    0.000    0.000    0.000 
#
# Total GULP energy -289914.338835 kJ/mol
# GULP energy per Si atom -5575.275747 kJ/mol
# Density = 2.535722 g / cm^3
# Si number density = 25.415061 Si / 1000 Ang^3
#
#
#
# Elastic Constant Matrix: (Units=GPa)
#
#
# Indices 1 2 3 4 5 6 
#
# 1 92.6516 12.6684 15.0129 0.0000 0.0000 0.0000
# 2 12.6684 92.6516 15.0129 0.0000 0.0000 0.0000
# 3 15.0129 15.0129 125.5344 0.0000 0.0000 0.0000
# 4 0.0000 0.0000 0.0000 36.2664 0.0000 0.0000
# 5 0.0000 0.0000 0.0000 0.0000 36.2664 0.0000
# 6 0.0000 0.0000 0.0000 0.0000 0.0000 5.2829
#
#
#
# Elastic Compliance Matrix: (Units=1/GPa)
#
#
# Indices 1 2 3 4 5 6 
#
# 1 0.011166 -0.001336 -0.001176 0.000000 0.000000 0.000000
# 2 -0.001336 0.011166 -0.001176 0.000000 0.000000 0.000000
# 3 -0.001176 -0.001176 0.008247 0.000000 0.000000 0.000000
# 4 0.000000 0.000000 0.000000 0.027574 0.000000 0.000000
# 5 0.000000 0.000000 0.000000 0.000000 0.027574 0.000000
# 6 0.000000 0.000000 0.000000 0.000000 0.000000 0.189289
#
#
# Mechanical properties :
#
#
# Convention : Reuss Voigt Hill
#
# Bulk Modulus (GPa) = 43.09449 44.02508 43.55978
# Shear Modulus (GPa) = 17.23387 33.43936 25.33662
#
# Velocity S-wave (km/s) = 2.60685 3.63123 3.16082
# Velocity P-wave (km/s) = 5.10431 5.91111 5.52246
#
# Compressibility (1/GPa) = 0.02320483
#
# Stress axis : x y z
#
# Youngs Moduli (GPa) = 89.55495 89.55495 121.25436
#
# Poissons Ratio (x) = 0.11967 0.14255
# Poissons Ratio (y) = 0.11967 0.14255
# Poissons Ratio (z) = 0.10528 0.10528
#
# Static dielectric constant tensor:
#      x y z
#    x 2.109750 0.000000 0.000000 
#    y 0.000000 2.109750 0.000000 
#    z 0.000000 0.000000 1.961600 
# 
# From -- ./inp_files/9747.got.cif
#   From: 2010.05.17/outbox.cif.g08.bks.cpg/sg142_5_cif.got.tgz:9747.got - 2010.05.20 13:39:18.
