data_PCOD9574009
_publ_section_title
;
Structure prediction by ZEFSAII (Michael W. Deem and Ramdas Pophale) SiO2 
 PCOD9574009
Probable space group: I 41/A C D
;
_chemical_formula_sum "Si O2"
_cell_formula_units_Z 136
_cell_length_a 17.734729
_cell_length_b 17.734729
_cell_length_c 19.062787
_cell_angle_alpha 90.000000
_cell_angle_beta 90.000000
_cell_angle_gamma 90.000000
_cell_volume 5995.639447
_symmetry_space_group_name_H-M "I 41/A C D"
_symmetry_group_IT_number 142
_space_group.IT_coordinate_system_code '2'
_symmetry_cell_setting 'tetragonal'
loop_
_space_group_symop_operation_xyz
x,y,z
1/4-y,3/4+x,1/4+z
-x,1/2-y,z
1/4+y,1/4-x,3/4+z
x,-y,1/2-z
1/2-x,y,-z
3/4+y,1/4+x,1/4-z
1/4-y,1/4-x,1/4-z
-x,-y,-z
3/4+y,1/4-x,3/4-z
x,1/2+y,-z
3/4-y,3/4+x,1/4-z
-x,y,1/2+z
1/2+x,-y,z
1/4-y,3/4-x,3/4+z
3/4+y,3/4+x,3/4+z
1/2+x,1/2+y,1/2+z
3/4-y,1/4+x,3/4+z
1/2-x,-y,1/2+z
3/4+y,3/4-x,1/4+z
1/2+x,1/2-y,-z
-x,1/2+y,1/2-z
1/4+y,3/4+x,3/4-z
3/4-y,3/4-x,3/4-z
1/2-x,1/2-y,1/2-z
1/4+y,3/4-x,1/4-z
1/2+x,y,1/2-z
1/4-y,1/4+x,3/4-z
1/2-x,1/2+y,z
x,1/2-y,1/2+z
3/4-y,1/4-x,1/4+z
1/4+y,1/4+x,1/4+z
loop_
_atom_site_type_symbol
_atom_site_label
_atom_site_fract_x
_atom_site_fract_y
_atom_site_fract_z
Si Si1 0.786694 0.842667 0.847361
Si Si2 0.000000 0.750000 0.375000
Si Si3 0.120934 0.134342 0.434886
Si Si4 0.349310 0.251642 0.465505
Si Si5 0.553825 0.629636 0.460026
O O1 0.838991 0.911010 0.875000
O O2 0.705030 0.869617 0.823755
O O3 0.786745 0.786403 0.914362
O O4 0.826666 0.806011 0.778837
O O5 0.998926 0.826155 0.332030
O O6 0.163221 0.170938 0.500465
O O7 0.153745 0.170196 0.363904
O O8 0.032005 0.156848 0.447433
O O9 0.380879 0.308576 0.524891
#
# Coordination Sequence:
#
# PCOD9574009 Si02
#       5
#    32   8  32  32  32
#     4  10  24  43  64  97 143 185 227 282 359 426
#     4  12  16  32  62  96 132 164 214 292 348 380
#     4  12  22  38  70  99 135 173 234 289 343 420
#     4  11  20  36  64  99 131 176 223 288 354 402
#     4  11  21  37  65 100 128 169 232 290 339 403
#
# _framework density 22.683152
#
# number of rings (size 3 to 8) (size 9 to 14) (size 15 to 20)
#    0.000    0.941    8.235    0.706    0.000    3.765 
#    0.000    0.000   10.353    0.000    0.000    0.000 
#    0.000    0.000    0.000    0.000    0.000    0.000 
#
# Total GULP energy -379982.458859 kJ/mol
# GULP energy per Si atom -5587.977336 kJ/mol
# Density = 2.263152 g / cm^3
# Si number density = 22.683152 Si / 1000 Ang^3
#
#
#
# Elastic Constant Matrix: (Units=GPa)
#
#
# Indices 1 2 3 4 5 6 
#
# 1 108.2661 24.8874 48.3076 0.0000 0.0000 0.0000
# 2 24.8874 108.2679 48.3071 0.0000 0.0000 0.0000
# 3 48.3076 48.3071 136.6558 0.0000 0.0000 0.0000
# 4 0.0000 0.0000 0.0000 9.2022 0.0000 0.0000
# 5 0.0000 0.0000 0.0000 0.0000 9.2029 0.0000
# 6 0.0000 0.0000 0.0000 0.0000 0.0000 13.4748
#
#
#
# Elastic Compliance Matrix: (Units=1/GPa)
#
#
# Indices 1 2 3 4 5 6 
#
# 1 0.011047 -0.000946 -0.003571 0.000000 0.000000 0.000000
# 2 -0.000946 0.011047 -0.003571 0.000000 0.000000 0.000000
# 3 -0.003571 -0.003571 0.009842 0.000000 0.000000 0.000000
# 4 0.000000 0.000000 0.000000 0.108670 0.000000 0.000000
# 5 0.000000 0.000000 0.000000 0.000000 0.108662 0.000000
# 6 0.000000 0.000000 0.000000 0.000000 0.000000 0.074213
#
#
# Mechanical properties :
#
#
# Convention : Reuss Voigt Hill
#
# Bulk Modulus (GPa) = 63.44652 66.24377 64.84515
# Shear Modulus (GPa) = 14.49657 21.82182 18.15920
#
# Velocity S-wave (km/s) = 2.53077 3.10502 2.83248
# Velocity P-wave (km/s) = 6.04741 6.49016 6.27270
#
# Compressibility (1/GPa) = 0.01576131
#
# Stress axis : x y z
#
# Youngs Moduli (GPa) = 90.52045 90.52256 101.60480
#
# Poissons Ratio (x) = 0.08566 0.36280
# Poissons Ratio (y) = 0.08565 0.36279
# Poissons Ratio (z) = 0.32322 0.32322
#
# Static dielectric constant tensor:
#      x y z
#    x 1.858230 0.000000 0.000000 
#    y 0.000000 1.858240 0.000000 
#    z 0.000000 0.000000 2.035570 
# 
# From -- ./inp_files/8783.got.cif
#   From: 2010.05.17/outbox.cif.g08.bks.cpg/sg142_5_cif.got.tgz:8783.got - 2010.05.20 13:39:18.
