data_PCOD9574099
_publ_section_title
;
Structure prediction by ZEFSAII (Michael W. Deem and Ramdas Pophale) SiO2 
 PCOD9574099
Probable space group: I 41/A C D
;
_chemical_formula_sum "Si O2"
_cell_formula_units_Z 120
_cell_length_a 25.539846
_cell_length_b 25.539846
_cell_length_c 9.068967
_cell_angle_alpha 90.000000
_cell_angle_beta 90.000000
_cell_angle_gamma 90.000000
_cell_volume 5915.539656
_symmetry_space_group_name_H-M "I 41/A C D"
_symmetry_group_IT_number 142
_space_group.IT_coordinate_system_code '2'
_symmetry_cell_setting 'tetragonal'
loop_
_space_group_symop_operation_xyz
x,y,z
1/4-y,3/4+x,1/4+z
-x,1/2-y,z
1/4+y,1/4-x,3/4+z
x,-y,1/2-z
1/2-x,y,-z
3/4+y,1/4+x,1/4-z
1/4-y,1/4-x,1/4-z
-x,-y,-z
3/4+y,1/4-x,3/4-z
x,1/2+y,-z
3/4-y,3/4+x,1/4-z
-x,y,1/2+z
1/2+x,-y,z
1/4-y,3/4-x,3/4+z
3/4+y,3/4+x,3/4+z
1/2+x,1/2+y,1/2+z
3/4-y,1/4+x,3/4+z
1/2-x,-y,1/2+z
3/4+y,3/4-x,1/4+z
1/2+x,1/2-y,-z
-x,1/2+y,1/2-z
1/4+y,3/4+x,3/4-z
3/4-y,3/4-x,3/4-z
1/2-x,1/2-y,1/2-z
1/4+y,3/4-x,1/4-z
1/2+x,y,1/2-z
1/4-y,1/4+x,3/4-z
1/2-x,1/2+y,z
x,1/2-y,1/2+z
3/4-y,1/4-x,1/4+z
1/4+y,1/4+x,1/4+z
loop_
_atom_site_type_symbol
_atom_site_label
_atom_site_fract_x
_atom_site_fract_y
_atom_site_fract_z
Si Si1 0.000000 0.750000 0.125000
Si Si2 0.794322 0.044322 0.625000
Si Si3 0.468942 0.352306 0.280070
Si Si4 0.063074 0.891503 0.961861
Si Si5 0.730629 0.892204 0.660282
O O1 0.001317 0.698725 0.225047
O O2 0.750000 0.042193 0.500000
O O3 0.777482 0.093939 0.725771
O O4 0.421425 0.328576 0.375000
O O5 0.507951 0.388177 0.374701
O O6 0.448042 0.376614 0.130018
O O7 0.101405 0.851405 0.875000
O O8 0.095034 0.945213 0.966254
O O9 0.750000 0.876734 0.500000
O O10 0.693048 0.943048 0.625000
#
# Coordination Sequence:
#
# PCOD9574099 Si02
#       5
#     8  16  32  32  32
#     4  12  18  28  58  88 122 176 218 252 286 360
#     4  12  18  38  66  98 116 154 204 262 342 394
#     4  12  20  36  61  90 132 176 221 258 308 369
#     4  11  22  37  59  96 128 169 216 270 315 374
#     4  11  22  40  66  94 128 155 209 274 331 399
#
# _framework density 20.285553
#
# number of rings (size 3 to 8) (size 9 to 14) (size 15 to 20)
#    0.000    0.533    9.333    0.400    0.000    0.000 
#    2.400    4.000    0.000    0.000    0.000    0.000 
#    0.000    0.000    0.000    0.000    0.000    0.000 
#
# Total GULP energy -334763.193853 kJ/mol
# GULP energy per Si atom -5579.386564 kJ/mol
# Density = 2.023938 g / cm^3
# Si number density = 20.285553 Si / 1000 Ang^3
#
#
#
# Elastic Constant Matrix: (Units=GPa)
#
#
# Indices 1 2 3 4 5 6 
#
# 1 63.8598 64.0291 56.2597 0.0000 0.0000 0.0000
# 2 64.0291 63.8590 56.2612 0.0000 0.0000 0.0000
# 3 56.2597 56.2612 183.1425 0.0000 0.0000 0.0000
# 4 0.0000 0.0000 0.0000 9.6443 0.0000 0.0000
# 5 0.0000 0.0000 0.0000 0.0000 9.6390 0.0000
# 6 0.0000 0.0000 0.0000 0.0000 0.0000 26.0481
#
#
#
# Elastic Compliance Matrix: (Units=1/GPa)
#
#
# Indices 1 2 3 4 5 6 
#
# 1 -2.941862 2.952629 -0.003332 0.000000 0.000000 0.000000
# 2 2.952629 -2.941966 -0.003252 0.000000 0.000000 0.000000
# 3 -0.003332 -0.003252 0.007483 0.000000 0.000000 0.000000
# 4 0.000000 0.000000 0.000000 0.103688 0.000000 0.000000
# 5 0.000000 0.000000 0.000000 0.000000 0.103745 0.000000
# 6 0.000000 0.000000 0.000000 0.000000 0.000000 0.038390
#
#
# Mechanical properties :
#
#
# Convention : Reuss Voigt Hill
#
# Bulk Modulus (GPa) = 63.50548 73.77348 68.63948
# Shear Modulus (GPa) = -0.43413 18.02038 8.79313
#
# Velocity S-wave (km/s) = -0.46311 2.98373 2.08425
# Velocity P-wave (km/s) = 5.57564 6.95102 6.30097
#
# Compressibility (1/GPa) = 0.01574667
#
# Stress axis : x y z
#
# Youngs Moduli (GPa) = -0.33992 -0.33991 133.64255
#
# Poissons Ratio (x) = 1.00362 0.44525
# Poissons Ratio (y) = 1.00366 0.43459
# Poissons Ratio (z) = -0.00113 -0.00111
#
# Static dielectric constant tensor:
#      x y z
#    x 1.763630 0.000000 0.000000 
#    y 0.000000 1.763630 0.000000 
#    z 0.000000 0.000000 1.703760 
# 
# From -- ./inp_files/1897.got.cif
#   From: 2010.05.17/outbox.cif.g08.bks.cpg/sg142_1_cif.got.tgz:1897.got - 2010.05.20 13:39:18.
