data_PCOD9574994
_publ_section_title
;
Structure prediction by ZEFSAII (Michael W. Deem and Ramdas Pophale) SiO2 
 PCOD9574994
Probable space group: R -3
;
_chemical_formula_sum "Si O2"
_cell_formula_units_Z 108
_cell_length_a 22.076895
_cell_length_b 22.076895
_cell_length_c 12.477240
_cell_angle_alpha 90.000000
_cell_angle_beta 90.000000
_cell_angle_gamma 120.000000
_cell_volume 5266.537061
_symmetry_space_group_name_H-M "R -3"
_symmetry_group_IT_number 148
_symmetry_cell_setting 'hexagonal'
loop_
_space_group_symop_operation_xyz
x,y,z
-y,x-y,z
-x+y,-x,z
-x,-y,-z
y,-x+y,-z
x-y,x,-z
2/3+x,1/3+y,1/3+z
2/3-y,1/3+x-y,1/3+z
2/3-x+y,1/3-x,1/3+z
2/3-x,1/3-y,1/3-z
2/3+y,1/3-x+y,1/3-z
2/3+x-y,1/3+x,1/3-z
1/3+x,2/3+y,2/3+z
1/3-y,2/3+x-y,2/3+z
1/3-x+y,2/3-x,2/3+z
1/3-x,2/3-y,2/3-z
1/3+y,2/3-x+y,2/3-z
1/3+x-y,2/3+x,2/3-z
loop_
_atom_site_type_symbol
_atom_site_label
_atom_site_fract_x
_atom_site_fract_y
_atom_site_fract_z
Si Si1 0.596680 0.880994 0.555912
Si Si2 0.080617 0.327279 0.728318
Si Si3 0.229121 0.141942 0.104080
Si Si4 0.394133 0.193363 0.890740
Si Si5 0.498643 0.302686 0.068579
Si Si6 0.139300 0.078732 0.559962
O O1 0.551146 0.832710 0.656050
O O2 0.660045 0.867122 0.536954
O O3 0.546117 0.862910 0.455433
O O4 0.623211 0.960597 0.592039
O O5 0.058987 0.268259 0.818624
O O6 0.163358 0.382578 0.750896
O O7 0.080860 0.295298 0.612826
O O8 0.167044 0.080751 0.171795
O O9 0.444194 0.212611 0.789089
O O10 0.441640 0.250493 0.981827
O O11 0.568572 0.353018 0.004344
O O12 0.109988 0.108037 0.465943
#
# Coordination Sequence:
#
# PCOD9574994 Si02
#       6
#    18  18  18  18  18  18
#     4  10  16  29  56  84 119 159 178 221 293 354
#     4   8  15  30  50  73 112 160 185 208 269 353
#     4   8  15  30  50  76 111 151 195 218 264 350
#     4   9  19  36  52  83 118 146 198 236 273 355
#     4   9  19  36  56  78 113 153 187 243 286 328
#     4  10  21  41  62  76 100 149 202 256 293 331
#
# _framework density 20.506834000000001
#
# number of rings (size 3 to 8) (size 9 to 14) (size 15 to 20)
#    0.000    3.000    0.000    3.167    0.000    0.667 
#   12.000   15.000    0.000    0.000    0.000    4.667 
#    0.000    0.000    0.000    0.000    0.000    0.000 
#
# Total GULP energy -200713.365119 kJ/mol
# GULP energy per Si atom -5575.371253 kJ/mol
# Density = 2.046016 g / cm^3
# Si number density = 20.506834 Si / 1000 Ang^3
#
#
#
# Elastic Constant Matrix: (Units=GPa)
#
#
# Indices 1 2 3 4 5 6 
#
# 1 55.1225 10.7811 18.9568 -4.5722 6.3374 0.0000
# 2 10.7811 55.1225 18.9568 4.5722 -6.3374 0.0000
# 3 18.9568 18.9568 53.2480 0.0000 0.0000 0.0000
# 4 -4.5722 4.5722 0.0000 16.7606 0.0000 -6.3374
# 5 6.3374 -6.3374 0.0000 0.0000 16.7606 -4.5722
# 6 0.0000 0.0000 0.0000 -6.3374 -4.5722 22.1707
#
#
#
# Elastic Compliance Matrix: (Units=1/GPa)
#
#
# Indices 1 2 3 4 5 6 
#
# 1 0.023035 -0.003953 -0.006793 0.007362 -0.010204 0.000000
# 2 -0.003953 0.023035 -0.006793 -0.007362 0.010204 0.000000
# 3 -0.006793 -0.006793 0.023617 0.000000 0.000000 0.000000
# 4 0.007362 -0.007362 0.000000 0.071397 0.000000 0.020409
# 5 -0.010204 0.010204 0.000000 0.000000 0.071397 0.014724
# 6 0.000000 0.000000 0.000000 0.020409 0.014724 0.053975
#
#
# Mechanical properties :
#
#
# Convention : Reuss Voigt Hill
#
# Bulk Modulus (GPa) = 28.89559 28.98696 28.94127
# Shear Modulus (GPa) = 15.97086 18.79160 17.38123
#
# Velocity S-wave (km/s) = 2.79374 3.03042 2.91448
# Velocity P-wave (km/s) = 4.95257 5.13912 5.04671
#
# Compressibility (1/GPa) = 0.03460736
#
# Stress axis : x y z
#
# Youngs Moduli (GPa) = 43.41289 43.41288 42.34236
#
# Poissons Ratio (x) = 0.17160 0.28765
# Poissons Ratio (y) = 0.17160 0.28765
# Poissons Ratio (z) = 0.29492 0.29492
#
# Static dielectric constant tensor:
#      x y z
#    x 1.750410 0.000000 0.000000 
#    y 0.000000 1.750410 0.000000 
#    z 0.000000 0.000000 1.758430 
# 
# From -- ./inp_files/1522.got.cif
#   From: 2010.05.17/outbox.cif.g08.bks.cpg/sg148_1_cif.got.tgz:1522.got - 2010.05.20 13:50:20.
