data_PCOD9574601
_publ_section_title
;
Structure prediction by ZEFSAII (Michael W. Deem and Ramdas Pophale) SiO2 
 PCOD9574601
Probable space group: P 32
;
_chemical_formula_sum "Si O2"
_cell_formula_units_Z 18
_cell_length_a 12.464475
_cell_length_b 12.464475
_cell_length_c 5.197841
_cell_angle_alpha 90.000000
_cell_angle_beta 90.000000
_cell_angle_gamma 120.000000
_cell_volume 699.361312
_symmetry_space_group_name_H-M "P 32"
_symmetry_group_IT_number 145
_symmetry_cell_setting 'hexagonal'
loop_
_space_group_symop_operation_xyz
x,y,z
-y,x-y,2/3+z
-x+y,-x,1/3+z
loop_
_atom_site_type_symbol
_atom_site_label
_atom_site_fract_x
_atom_site_fract_y
_atom_site_fract_z
Si Si1 0.880218 0.614108 0.000000
Si Si2 0.694146 0.893066 0.999837
Si Si3 0.578131 0.648223 0.342436
Si Si4 0.897449 0.023742 0.606980
Si Si5 0.444874 0.770978 0.785573
Si Si6 0.611377 0.527081 0.841342
O O1 0.748402 0.546512 0.857181
O O2 0.989466 0.687868 0.797332
O O3 0.898111 0.729766 0.183027
O O4 0.895086 0.504315 0.124506
O O5 0.646199 0.783675 0.210023
O O6 0.590425 0.845482 0.774850
O O7 0.819741 0.936400 0.845876
O O8 0.431285 0.598839 0.338077
O O9 0.617096 0.619724 0.615476
O O10 0.593161 0.565698 0.124645
O O11 0.897932 0.934590 0.383452
O O12 0.366803 0.768881 0.545128
#
# Coordination Sequence:
#
# PCOD9574601 Si02
#       6
#     3   3   3   3   3   3
#     4  12  31  54  87 119 179 227 303 355 445 530
#     4  11  27  47  82 121 171 223 283 360 435 529
#     4  11  28  48  83 122 168 216 287 352 439 514
#     4  12  30  53  87 129 172 235 298 380 452 531
#     4  10  23  44  73 112 162 215 269 342 423 517
#     4  12  31  56  84 127 168 238 286 361 436 529
#
# _framework density 25.737770000000001
#
# number of rings (size 3 to 8) (size 9 to 14) (size 15 to 20)
#    0.000    0.667    1.667    2.000   16.333    2.667 
#    0.000    0.000    0.000    0.000    0.000    0.000 
#    0.000    0.000    0.000    0.000    0.000    0.000 
#
# Total GULP energy -100898.675766 kJ/mol
# GULP energy per Si atom -5605.481987 kJ/mol
# Density = 2.567919 g / cm^3
# Si number density = 25.737770 Si / 1000 Ang^3
#
#
#
# Elastic Constant Matrix: (Units=GPa)
#
#
# Indices 1 2 3 4 5 6 
#
# 1 156.9246 61.9009 37.7954 5.4167 -0.2231 0.0000
# 2 61.9009 156.9246 37.7954 -5.4167 0.2231 0.0000
# 3 37.7954 37.7954 120.6940 0.0000 0.0000 0.0000
# 4 5.4167 -5.4167 0.0000 30.6199 0.0000 0.2231
# 5 -0.2231 0.2231 0.0000 0.0000 30.6199 5.4167
# 6 0.0000 0.0000 0.0000 0.2231 5.4167 47.5119
#
#
#
# Elastic Compliance Matrix: (Units=1/GPa)
#
#
# Indices 1 2 3 4 5 6 
#
# 1 0.007932 -0.002808 -0.001605 -0.001900 0.000078 0.000000
# 2 -0.002808 0.007932 -0.001605 0.001900 -0.000078 0.000000
# 3 -0.001605 -0.001605 0.009290 0.000000 0.000000 0.000000
# 4 -0.001900 0.001900 0.000000 0.033332 0.000000 -0.000156
# 5 0.000078 -0.000078 0.000000 0.000000 0.033332 -0.003800
# 6 0.000000 0.000000 0.000000 -0.000156 -0.003800 0.021481
#
#
# Mechanical properties :
#
#
# Convention : Reuss Voigt Hill
#
# Bulk Modulus (GPa) = 76.21849 78.83631 77.52740
# Shear Modulus (GPa) = 38.54792 41.55378 40.05085
#
# Velocity S-wave (km/s) = 3.87423 4.02245 3.94904
# Velocity P-wave (km/s) = 7.04916 7.22984 7.14007
#
# Compressibility (1/GPa) = 0.01312018
#
# Stress axis : x y z
#
# Youngs Moduli (GPa) = 126.06507 126.06507 107.63794
#
# Poissons Ratio (x) = 0.35402 0.17272
# Poissons Ratio (y) = 0.35402 0.17272
# Poissons Ratio (z) = 0.20229 0.20229
#
# Static dielectric constant tensor:
#      x y z
#    x 2.054830 0.000000 0.000000 
#    y 0.000000 2.054830 0.000000 
#    z 0.000000 0.000000 2.004760 
# 
# From -- ./inp_files/129.got.cif
#   From: 2010.05.17/outbox.cif.g08.bks.cpg/sg145_cif.got.tgz:129.got - 2010.05.20 13:47:28.
