data_PCOD9574819
_publ_section_title
;
Structure prediction by ZEFSAII (Michael W. Deem and Ramdas Pophale) SiO2 
 PCOD9574819
Probable space group: R 3
;
_chemical_formula_sum "Si O2"
_cell_formula_units_Z 51
_cell_length_a 16.615420
_cell_length_b 16.615420
_cell_length_c 9.575267
_cell_angle_alpha 90.000000
_cell_angle_beta 90.000000
_cell_angle_gamma 120.000000
_cell_volume 2289.307716
_symmetry_space_group_name_H-M "R 3"
_symmetry_group_IT_number 146
_symmetry_cell_setting 'hexagonal'
loop_
_space_group_symop_operation_xyz
x,y,z
-y,x-y,z
-x+y,-x,z
2/3+x,1/3+y,1/3+z
2/3-y,1/3+x-y,1/3+z
2/3-x+y,1/3-x,1/3+z
1/3+x,2/3+y,2/3+z
1/3-y,2/3+x-y,2/3+z
1/3-x+y,2/3-x,2/3+z
loop_
_atom_site_type_symbol
_atom_site_label
_atom_site_fract_x
_atom_site_fract_y
_atom_site_fract_z
Si Si1 0.333335 0.666667 0.224376
Si Si2 0.494792 0.581831 0.056673
Si Si3 0.831931 0.009183 0.177128
Si Si4 0.097836 0.813545 0.930721
Si Si5 0.220100 0.840816 0.168586
Si Si6 0.696397 0.161378 0.956943
Si Si7 0.666668 0.333335 0.553789
O O1 0.349757 0.584330 0.276761
O O2 0.333334 0.666667 0.055326
O O3 0.534693 0.685501 0.112530
O O4 0.445346 0.511829 0.184145
O O5 0.412623 0.547747 0.943823
O O6 0.572016 0.571242 0.971639
O O7 0.941089 0.046790 0.165088
O O8 0.793874 0.069037 0.250587
O O9 0.783401 0.987002 0.028027
O O10 0.068000 0.827296 0.777398
O O11 0.181801 0.877103 0.040276
O O12 0.148456 0.736500 0.230108
#
# Coordination Sequence:
#
# PCOD9574819 Si02
#       7
#     3   9   9   9   9   9   3
#     4  12  21  46  80 103 141 196 251 286 375 442
#     4  11  24  45  75 101 145 192 239 301 366 457
#     4  11  24  43  74 104 150 190 245 302 371 441
#     4  11  27  40  66 113 146 177 241 310 364 426
#     4  11  25  47  70 107 143 195 242 296 380 443
#     4  12  24  44  76 108 140 189 248 305 356 445
#     4  12  21  49  83 106 141 205 254 304 366 472
#
# _framework density 22.277474999999999
#
# number of rings (size 3 to 8) (size 9 to 14) (size 15 to 20)
#    0.000    0.706    5.294    1.059    7.412    2.824 
#    0.000    1.765    0.000    0.000    0.000    0.000 
#    0.000    0.000    0.000    0.000    0.000    0.000 
#
# Total GULP energy -94715.544795 kJ/mol
# GULP energy per Si atom -5571.502635 kJ/mol
# Density = 2.222677 g / cm^3
# Si number density = 22.277475 Si / 1000 Ang^3
#
#
#
# Elastic Constant Matrix: (Units=GPa)
#
#
# Indices 1 2 3 4 5 6 
#
# 1 63.5648 43.4149 39.5860 5.6554 -18.1316 -0.0026
# 2 43.4149 63.5674 39.5854 -5.6546 18.1305 0.0032
# 3 39.5860 39.5854 170.1868 -0.0001 -0.0003 0.0005
# 4 5.6554 -5.6546 -0.0001 13.6474 0.0001 18.1350
# 5 -18.1316 18.1305 -0.0003 0.0001 13.6532 5.6514
# 6 -0.0026 0.0032 0.0005 18.1350 5.6514 10.0742
#
#
#
# Elastic Compliance Matrix: (Units=1/GPa)
#
#
# Indices 1 2 3 4 5 6 
#
# 1 -0.009651 0.020941 -0.002626 0.012644 -0.040634 0.000024
# 2 0.020941 -0.009648 -0.002627 -0.012644 0.040632 -0.000024
# 3 -0.002626 -0.002627 0.007098 0.000000 0.000000 0.000000
# 4 0.012644 -0.012644 0.000000 -0.045090 -0.000024 0.081189
# 5 -0.040634 0.040632 0.000000 -0.000024 -0.045171 0.025359
# 6 0.000024 -0.000024 0.000000 0.081189 0.025359 -0.061113
#
#
# Mechanical properties :
#
#
# Convention : Reuss Voigt Hill
#
# Bulk Modulus (GPa) = 52.15255 60.27685 56.21470
# Shear Modulus (GPa) = -26.51675 19.12381 -3.69647
#
# Velocity S-wave (km/s) = -3.45381 2.93309 -1.28953
# Velocity P-wave (km/s) = 2.74886 6.21182 4.80328
#
# Compressibility (1/GPa) = 0.01917452
#
# Stress axis : x y z
#
# Youngs Moduli (GPa) = -103.62127 -103.64395 140.89137
#
# Poissons Ratio (x) = 2.17036 0.36999
# Poissons Ratio (y) = 2.16988 0.37006
# Poissons Ratio (z) = -0.27212 -0.27223
#
# Static dielectric constant tensor:
#      x y z
#    x 1.931060 0.000000 0.000000 
#    y 0.000000 1.931070 0.000000 
#    z 0.000000 0.000000 1.852710 
# 
# From -- ./inp_files/688.got.cif
#   From: 2010.05.17/outbox.cif.g08.bks.cpg/sg146_cif.got.tgz:688.got - 2010.05.20 13:48:23.
