data_PCOD9574232
_publ_section_title
;
Structure prediction by ZEFSAII (Michael W. Deem and Ramdas Pophale) SiO2 
 PCOD9574232
Probable space group: I 41/A C D
;
_chemical_formula_sum "Si O2"
_cell_formula_units_Z 88
_cell_length_a 10.845552
_cell_length_b 10.845552
_cell_length_c 29.846994
_cell_angle_alpha 90.000000
_cell_angle_beta 90.000000
_cell_angle_gamma 90.000000
_cell_volume 3510.782462
_symmetry_space_group_name_H-M "I 41/A C D"
_symmetry_group_IT_number 142
_space_group.IT_coordinate_system_code '2'
_symmetry_cell_setting 'tetragonal'
loop_
_space_group_symop_operation_xyz
x,y,z
1/4-y,3/4+x,1/4+z
-x,1/2-y,z
1/4+y,1/4-x,3/4+z
x,-y,1/2-z
1/2-x,y,-z
3/4+y,1/4+x,1/4-z
1/4-y,1/4-x,1/4-z
-x,-y,-z
3/4+y,1/4-x,3/4-z
x,1/2+y,-z
3/4-y,3/4+x,1/4-z
-x,y,1/2+z
1/2+x,-y,z
1/4-y,3/4-x,3/4+z
3/4+y,3/4+x,3/4+z
1/2+x,1/2+y,1/2+z
3/4-y,1/4+x,3/4+z
1/2-x,-y,1/2+z
3/4+y,3/4-x,1/4+z
1/2+x,1/2-y,-z
-x,1/2+y,1/2-z
1/4+y,3/4+x,3/4-z
3/4-y,3/4-x,3/4-z
1/2-x,1/2-y,1/2-z
1/4+y,3/4-x,1/4-z
1/2+x,y,1/2-z
1/4-y,1/4+x,3/4-z
1/2-x,1/2+y,z
x,1/2-y,1/2+z
3/4-y,1/4-x,1/4+z
1/4+y,1/4+x,1/4+z
loop_
_atom_site_type_symbol
_atom_site_label
_atom_site_fract_x
_atom_site_fract_y
_atom_site_fract_z
Si Si1 0.629895 0.692901 0.224539
Si Si2 0.467439 0.500000 0.250000
Si Si3 0.802584 0.565744 0.583573
Si Si4 0.500000 0.250000 0.125000
O O1 0.500000 0.750000 0.206473
O O2 0.750000 0.750000 0.250000
O O3 0.561652 0.608454 0.261478
O O4 0.690941 0.613531 0.185248
O O5 0.378767 0.518414 0.207852
O O6 0.715377 0.534623 0.625000
O O7 0.911830 0.657258 0.597790
#
# Coordination Sequence:
#
# PCOD9574232 Si02
#       4
#    32  16  32   8
#     4  12  26  48  83 119 161 217 282 348 429 506
#     4  12  26  52  84 114 166 216 282 348 430 512
#     4  12  28  50  81 122 166 222 283 355 429 519
#     4  12  28  52  80 120 174 216 288 356 436 504
#
# _framework density 25.065636999999999
#
# number of rings (size 3 to 8) (size 9 to 14) (size 15 to 20)
#    0.000    0.000    3.636    5.455    5.091    0.727 
#    0.000    0.000    0.000    0.000    0.000    0.000 
#    0.000    0.000    0.000    0.000    0.000    0.000 
#
# Total GULP energy -245499.399038 kJ/mol
# GULP energy per Si atom -5579.531796 kJ/mol
# Density = 2.500859 g / cm^3
# Si number density = 25.065637 Si / 1000 Ang^3
#
#
#
# Elastic Constant Matrix: (Units=GPa)
#
#
# Indices 1 2 3 4 5 6 
#
# 1 164.2295 88.2106 72.4927 0.0000 0.0000 0.0000
# 2 88.2106 164.2281 72.4921 0.0000 0.0000 0.0000
# 3 72.4927 72.4921 152.6226 0.0000 0.0000 0.0000
# 4 0.0000 0.0000 0.0000 21.6790 0.0000 0.0000
# 5 0.0000 0.0000 0.0000 0.0000 21.6775 0.0000
# 6 0.0000 0.0000 0.0000 0.0000 0.0000 59.1199
#
#
#
# Elastic Compliance Matrix: (Units=1/GPa)
#
#
# Indices 1 2 3 4 5 6 
#
# 1 0.009301 -0.003854 -0.002587 0.000000 0.000000 0.000000
# 2 -0.003854 0.009301 -0.002587 0.000000 0.000000 0.000000
# 3 -0.002587 -0.002587 0.009010 0.000000 0.000000 0.000000
# 4 0.000000 0.000000 0.000000 0.046128 0.000000 0.000000
# 5 0.000000 0.000000 0.000000 0.000000 0.046131 0.000000
# 6 0.000000 0.000000 0.000000 0.000000 0.000000 0.016915
#
#
# Mechanical properties :
#
#
# Convention : Reuss Voigt Hill
#
# Bulk Modulus (GPa) = 104.65479 105.27454 104.96467
# Shear Modulus (GPa) = 31.64010 37.02093 34.33052
#
# Velocity S-wave (km/s) = 3.55673 3.84729 3.70486
# Velocity P-wave (km/s) = 7.66225 7.86297 7.76326
#
# Compressibility (1/GPa) = 0.00955522
#
# Stress axis : x y z
#
# Youngs Moduli (GPa) = 107.51500 107.51434 110.98773
#
# Poissons Ratio (x) = 0.41433 0.28717
# Poissons Ratio (y) = 0.41433 0.28717
# Poissons Ratio (z) = 0.27818 0.27818
#
# Static dielectric constant tensor:
#      x y z
#    x 2.151970 0.000000 0.000000 
#    y 0.000000 2.151970 0.000000 
#    z 0.000000 0.000000 1.972970 
# 
# From -- ./inp_files/11997.got.cif
#   From: 2010.05.17/outbox.cif.g08.bks.cpg/sg142_6_cif.got.tgz:11997.got - 2010.05.20 13:39:18.
