data_PCOD9574791
_publ_section_title
;
Structure prediction by ZEFSAII (Michael W. Deem and Ramdas Pophale) SiO2 
 PCOD9574791
Probable space group: R 3
;
_chemical_formula_sum "Si O2"
_cell_formula_units_Z 33
_cell_length_a 11.340637
_cell_length_b 11.340637
_cell_length_c 13.155177
_cell_angle_alpha 90.000000
_cell_angle_beta 90.000000
_cell_angle_gamma 120.000000
_cell_volume 1465.217936
_symmetry_space_group_name_H-M "R 3"
_symmetry_group_IT_number 146
_symmetry_cell_setting 'hexagonal'
loop_
_space_group_symop_operation_xyz
x,y,z
-y,x-y,z
-x+y,-x,z
2/3+x,1/3+y,1/3+z
2/3-y,1/3+x-y,1/3+z
2/3-x+y,1/3-x,1/3+z
1/3+x,2/3+y,2/3+z
1/3-y,2/3+x-y,2/3+z
1/3-x+y,2/3-x,2/3+z
loop_
_atom_site_type_symbol
_atom_site_label
_atom_site_fract_x
_atom_site_fract_y
_atom_site_fract_z
Si Si1 0.374833 0.159013 0.312830
Si Si2 0.666668 0.333335 0.041874
Si Si3 0.344792 0.344796 0.828550
Si Si4 0.333334 0.666668 0.615223
Si Si5 0.825682 0.708166 0.677604
O O1 0.345082 0.213917 0.207488
O O2 0.364977 0.249834 0.402558
O O3 0.531678 0.197894 0.315408
O O4 0.273416 0.999999 0.328555
O O5 0.666668 0.333334 0.161882
O O6 0.531228 0.198345 0.008355
O O7 0.321576 0.202170 0.782945
O O8 0.448475 0.416838 0.921206
#
# Coordination Sequence:
#
# PCOD9574791 Si02
#       5
#     9   3   9   3   9
#     4  11  27  48  76 108 152 196 255 318 378 454
#     4  12  27  42  78 106 146 205 255 306 396 442
#     4  10  26  50  74 110 146 198 258 306 388 450
#     4  12  27  42  78 106 146 205 255 306 396 442
#     4  11  27  48  76 108 152 196 255 318 378 454
#
# _framework density 22.522245000000002
#
# number of rings (size 3 to 8) (size 9 to 14) (size 15 to 20)
#    0.000    1.091    2.727    0.000   19.091    0.000 
#   13.091    0.000    0.000    0.000    0.000    0.000 
#    0.000    0.000    0.000    0.000    0.000    0.000 
#
# Total GULP energy -61484.924815 kJ/mol
# GULP energy per Si atom -5589.538620 kJ/mol
# Density = 2.247098 g / cm^3
# Si number density = 22.522245 Si / 1000 Ang^3
#
#
#
# Elastic Constant Matrix: (Units=GPa)
#
#
# Indices 1 2 3 4 5 6 
#
# 1 139.5523 72.0396 54.4975 6.1729 0.0007 -0.0005
# 2 72.0396 139.5513 54.4976 -6.1729 -0.0006 -0.0009
# 3 54.4975 54.4976 104.1081 0.0002 -0.0004 0.0000
# 4 6.1729 -6.1729 0.0002 33.1304 -0.0006 -0.0006
# 5 0.0007 -0.0006 -0.0004 -0.0006 33.1310 6.1729
# 6 -0.0005 -0.0009 0.0000 -0.0006 6.1729 33.7560
#
#
#
# Elastic Compliance Matrix: (Units=1/GPa)
#
#
# Indices 1 2 3 4 5 6 
#
# 1 0.010903 -0.004432 -0.003387 -0.002857 0.000000 0.000000
# 2 -0.004432 0.010903 -0.003387 0.002857 0.000000 0.000000
# 3 -0.003387 -0.003387 0.013152 0.000000 0.000000 0.000000
# 4 -0.002857 0.002857 0.000000 0.031248 0.000001 0.000001
# 5 0.000000 0.000000 0.000000 0.000001 0.031248 -0.005714
# 6 0.000000 0.000000 0.000000 0.000001 -0.005714 0.030669
#
#
# Mechanical properties :
#
#
# Convention : Reuss Voigt Hill
#
# Bulk Modulus (GPa) = 79.71766 82.80901 81.26334
# Shear Modulus (GPa) = 32.31696 33.48196 32.89946
#
# Velocity S-wave (km/s) = 3.79210 3.85985 3.82613
# Velocity P-wave (km/s) = 7.39225 7.53074 7.46182
#
# Compressibility (1/GPa) = 0.01254427
#
# Stress axis : x y z
#
# Youngs Moduli (GPa) = 91.72002 91.71900 76.03527
#
# Poissons Ratio (x) = 0.40648 0.25756
# Poissons Ratio (y) = 0.40649 0.25756
# Poissons Ratio (z) = 0.31069 0.31069
#
# Static dielectric constant tensor:
#      x y z
#    x 1.833600 0.000000 0.000000 
#    y 0.000000 1.833600 0.000000 
#    z 0.000000 0.000000 1.852120 
# 
# From -- ./inp_files/1336.got.cif
#   From: 2010.05.17/outbox.cif.g08.bks.cpg/sg146_cif.got.tgz:1336.got - 2010.05.20 13:48:23.
