data_PCOD9574586
_publ_section_title
;
Structure prediction by ZEFSAII (Michael W. Deem and Ramdas Pophale) SiO2 
 PCOD9574586
Probable space group: P 32
;
_chemical_formula_sum "Si O2"
_cell_formula_units_Z 24
_cell_length_a 11.367641
_cell_length_b 11.367641
_cell_length_c 8.764734
_cell_angle_alpha 90.000000
_cell_angle_beta 90.000000
_cell_angle_gamma 120.000000
_cell_volume 980.866882
_symmetry_space_group_name_H-M "P 32"
_symmetry_group_IT_number 145
_symmetry_cell_setting 'hexagonal'
loop_
_space_group_symop_operation_xyz
x,y,z
-y,x-y,2/3+z
-x+y,-x,1/3+z
loop_
_atom_site_type_symbol
_atom_site_label
_atom_site_fract_x
_atom_site_fract_y
_atom_site_fract_z
Si Si1 0.324702 0.080065 0.042700
Si Si2 0.787197 0.945069 0.688151
Si Si3 0.191180 0.309963 0.709074
Si Si4 0.127696 0.729475 0.622961
Si Si5 0.309527 0.712361 0.989372
Si Si6 0.657789 0.254894 0.718360
Si Si7 0.855703 0.085783 0.135285
Si Si8 0.970290 0.336229 0.363809
O O1 0.210847 0.116713 0.082855
O O2 0.465971 0.200501 0.094138
O O3 0.262183 0.929677 0.106646
O O4 0.330767 0.061915 0.862758
O O5 0.742371 0.970126 0.524266
O O6 0.650156 0.875958 0.784851
O O7 0.868294 0.864871 0.716304
O O8 0.289961 0.456741 0.640063
O O9 0.151470 0.190009 0.588105
O O10 0.147505 0.601135 0.638261
O O11 0.988074 0.708069 0.698599
O O12 0.265167 0.867048 0.681296
O O13 0.323211 0.638497 0.835450
O O14 0.680016 0.312517 0.541249
O O15 0.529164 0.102143 0.700845
O O16 0.890983 0.219043 0.235417
#
# Coordination Sequence:
#
# PCOD9574586 Si02
#       8
#     3   3   3   3   3   3   3   3
#     4  11  23  41  68  99 138 181 231 304 357 436
#     4  11  26  41  71 107 140 183 240 299 376 439
#     4  12  25  44  69 107 142 189 245 307 368 440
#     4  11  24  44  67 103 142 188 235 304 362 437
#     4  12  26  48  72 102 150 201 250 299 367 447
#     4  10  25  46  69  99 140 193 242 294 359 435
#     4  11  23  43  69 102 141 186 234 306 371 429
#     4  10  22  43  69  99 141 185 237 295 366 427
#
# _framework density 24.468153999999998
#
# number of rings (size 3 to 8) (size 9 to 14) (size 15 to 20)
#    0.000    1.000    3.750    1.500    5.250    8.000 
#    0.000    1.250    0.000    0.000    0.000    0.000 
#    0.000    0.000    0.000    0.000    0.000    0.000 
#
# Total GULP energy -133709.074795 kJ/mol
# GULP energy per Si atom -5571.211450 kJ/mol
# Density = 2.441246 g / cm^3
# Si number density = 24.468154 Si / 1000 Ang^3
#
#
#
# Elastic Constant Matrix: (Units=GPa)
#
#
# Indices 1 2 3 4 5 6 
#
# 1 52.1989 -2.5987 6.7644 3.9850 -3.8793 0.0000
# 2 -2.5987 52.1989 6.7644 -3.9850 3.8793 0.0000
# 3 6.7644 6.7644 109.9972 0.0000 0.0000 0.0000
# 4 3.9850 -3.9850 0.0000 35.8101 0.0000 3.8793
# 5 -3.8793 3.8793 0.0000 0.0000 35.8101 3.9850
# 6 0.0000 0.0000 0.0000 3.8793 3.9850 27.3988
#
#
#
# Elastic Compliance Matrix: (Units=1/GPa)
#
#
# Indices 1 2 3 4 5 6 
#
# 1 0.019674 0.000831 -0.001261 -0.002097 0.002041 0.000000
# 2 0.000831 0.019674 -0.001261 0.002097 -0.002041 0.000000
# 3 -0.001261 -0.001261 0.009246 0.000000 0.000000 0.000000
# 4 -0.002097 0.002097 0.000000 0.028834 0.000000 -0.004083
# 5 0.002041 -0.002041 0.000000 0.000000 0.028834 -0.004194
# 6 0.000000 0.000000 0.000000 -0.004083 -0.004194 0.037686
#
#
# Mechanical properties :
#
#
# Convention : Reuss Voigt Hill
#
# Bulk Modulus (GPa) = 22.11773 26.25059 24.18416
# Shear Modulus (GPa) = 30.78797 33.36811 32.07804
#
# Velocity S-wave (km/s) = 3.55108 3.69689 3.62472
# Velocity P-wave (km/s) = 5.08651 5.38279 5.23674
#
# Compressibility (1/GPa) = 0.04521260
#
# Stress axis : x y z
#
# Youngs Moduli (GPa) = 50.82831 50.82831 108.15219
#
# Poissons Ratio (x) = -0.04224 0.13638
# Poissons Ratio (y) = -0.04224 0.13638
# Poissons Ratio (z) = 0.06409 0.06409
#
# Static dielectric constant tensor:
#      x y z
#    x 2.003390 0.000000 0.000000 
#    y 0.000000 2.003390 0.000000 
#    z 0.000000 0.000000 2.069100 
# 
# From -- ./inp_files/450.got.cif
#   From: 2010.05.17/outbox.cif.g08.bks.cpg/sg145_cif.got.tgz:450.got - 2010.05.20 13:47:28.
