data_PCOD9574258
_publ_section_title
;
Structure prediction by ZEFSAII (Michael W. Deem and Ramdas Pophale) SiO2 
 PCOD9574258
Probable space group: I 41/A C D
;
_chemical_formula_sum "Si O2"
_cell_formula_units_Z 72
_cell_length_a 21.000000
_cell_length_b 21.000000
_cell_length_c 18.000000
_cell_angle_alpha 90.000000
_cell_angle_beta 90.000000
_cell_angle_gamma 90.000000
_cell_volume 7938.000000
_symmetry_space_group_name_H-M "I 41/A C D"
_symmetry_group_IT_number 142
_space_group.IT_coordinate_system_code '2'
_symmetry_cell_setting 'tetragonal'
loop_
_space_group_symop_operation_xyz
x,y,z
1/4-y,3/4+x,1/4+z
-x,1/2-y,z
1/4+y,1/4-x,3/4+z
x,-y,1/2-z
1/2-x,y,-z
3/4+y,1/4+x,1/4-z
1/4-y,1/4-x,1/4-z
-x,-y,-z
3/4+y,1/4-x,3/4-z
x,1/2+y,-z
3/4-y,3/4+x,1/4-z
-x,y,1/2+z
1/2+x,-y,z
1/4-y,3/4-x,3/4+z
3/4+y,3/4+x,3/4+z
1/2+x,1/2+y,1/2+z
3/4-y,1/4+x,3/4+z
1/2-x,-y,1/2+z
3/4+y,3/4-x,1/4+z
1/2+x,1/2-y,-z
-x,1/2+y,1/2-z
1/4+y,3/4+x,3/4-z
3/4-y,3/4-x,3/4-z
1/2-x,1/2-y,1/2-z
1/4+y,3/4-x,1/4-z
1/2+x,y,1/2-z
1/4-y,1/4+x,3/4-z
1/2-x,1/2+y,z
x,1/2-y,1/2+z
3/4-y,1/4-x,1/4+z
1/4+y,1/4+x,1/4+z
loop_
_atom_site_type_symbol
_atom_site_label
_atom_site_fract_x
_atom_site_fract_y
_atom_site_fract_z
Si Si1 0.759928 0.990072 0.875000
Si Si2 0.932145 0.730224 0.456762
Si Si3 0.252815 0.606070 0.741486
Si Si4 0.936960 0.617101 0.558037
Si Si5 0.411401 0.858386 0.971950
O O1 0.697963 0.993669 0.928164
O O2 0.760493 0.929138 0.820310
O O3 0.951123 0.701123 0.375000
O O4 0.905782 0.673171 0.506772
O O5 0.899878 0.799721 0.468477
O O6 0.000000 0.750000 0.491467
O O7 0.200749 0.660379 0.721120
O O8 0.325667 0.630982 0.748164
O O9 0.916403 0.631204 0.643482
O O10 0.013551 0.624644 0.544927
#
# Coordination Sequence:
#
# PCOD9574258 Si02
#       5
#    16  32  32  32  32
#     4  10  24  42  64  80 120 182 220 266 324 396
#     4   9  20  36  61  95 125 164 205 261 328 388
#     4  11  23  42  63  90 125 172 226 267 326 388
#     4  11  21  37  65  96 130 168 208 269 334 390
#     4  11  21  39  66  96 132 168 212 269 332 398
#
# _framework density 9.0702949999999998
#
# number of rings (size 3 to 8) (size 9 to 14) (size 15 to 20)
#    0.000    1.556    4.444    0.667    1.556    3.556 
#    0.000    0.000    0.000    5.333    0.000    0.000 
#    0.000    0.000    0.000    0.000    0.000    0.000 
#
# Total GULP energy -400899.504156 kJ/mol
# GULP energy per Si atom -5568.048669 kJ/mol
# Density = 0.904965 g / cm^3
# Si number density = 9.070295 Si / 1000 Ang^3
#
#
#
# Elastic Constant Matrix: (Units=GPa)
#
#
# Indices 1 2 3 4 5 6 
#
# 1 92.5841 18.8960 43.6922 0.0000 0.0000 0.0000
# 2 18.8960 92.5842 43.6921 0.0000 0.0000 0.0000
# 3 43.6922 43.6921 119.6551 0.0000 0.0000 0.0000
# 4 0.0000 0.0000 0.0000 30.2375 0.0000 0.0000
# 5 0.0000 0.0000 0.0000 0.0000 30.2372 0.0000
# 6 0.0000 0.0000 0.0000 0.0000 0.0000 35.6626
#
#
#
# Elastic Compliance Matrix: (Units=1/GPa)
#
#
# Indices 1 2 3 4 5 6 
#
# 1 0.013069 -0.000502 -0.004589 0.000000 0.000000 0.000000
# 2 -0.000502 0.013069 -0.004589 0.000000 0.000000 0.000000
# 3 -0.004589 -0.004589 0.011709 0.000000 0.000000 0.000000
# 4 0.000000 0.000000 0.000000 0.033071 0.000000 0.000000
# 5 0.000000 0.000000 0.000000 0.000000 0.033072 0.000000
# 6 0.000000 0.000000 0.000000 0.000000 0.000000 0.028041
#
#
# Mechanical properties :
#
#
# Convention : Reuss Voigt Hill
#
# Bulk Modulus (GPa) = 54.09083 57.48711 55.78897
# Shear Modulus (GPa) = 31.73550 32.46367 32.09958
#
# Velocity S-wave (km/s) = 4.18714 4.23491 4.21109
# Velocity P-wave (km/s) = 7.29784 7.46131 7.38003
#
# Compressibility (1/GPa) = 0.01848742
#
# Stress axis : x y z
#
# Youngs Moduli (GPa) = 76.51687 76.51711 85.40675
#
# Poissons Ratio (x) = 0.03839 0.39193
# Poissons Ratio (y) = 0.03839 0.39193
# Poissons Ratio (z) = 0.35113 0.35113
#
# Static dielectric constant tensor:
#      x y z
#    x 1.653800 0.000000 0.000000 
#    y 0.000000 1.653810 0.000000 
#    z 0.000000 0.000000 1.639780 
# 
# From -- ./inp_files/7304.got.cif
#   From: 2010.05.17/outbox.ucp.g08.bks.cvg/sg142_4_cif.got.tgz:7304.got - 2010.06.11 11:43:53.
