data_PCOD9574425
_publ_section_title
;
Structure prediction by ZEFSAII (Michael W. Deem and Ramdas Pophale) SiO2 
 PCOD9574425
Probable space group: P 31
;
_chemical_formula_sum "Si O2"
_cell_formula_units_Z 15
_cell_length_a 8.157921
_cell_length_b 8.157921
_cell_length_c 9.507339
_cell_angle_alpha 90.000000
_cell_angle_beta 90.000000
_cell_angle_gamma 120.000000
_cell_volume 547.959678
_symmetry_space_group_name_H-M "P 31"
_symmetry_group_IT_number 144
_symmetry_cell_setting 'hexagonal'
loop_
_space_group_symop_operation_xyz
x,y,z
-y,x-y,1/3+z
-x+y,-x,2/3+z
loop_
_atom_site_type_symbol
_atom_site_label
_atom_site_fract_x
_atom_site_fract_y
_atom_site_fract_z
Si Si1 0.605449 0.673287 0.273930
Si Si2 0.895533 0.778335 0.053306
Si Si3 0.960599 0.486797 0.665555
Si Si4 0.250643 0.769038 0.101653
Si Si5 0.795053 0.743403 0.560407
O O1 0.741535 0.119309 0.292777
O O2 0.431216 0.637531 0.375089
O O3 0.753067 0.699399 0.396219
O O4 0.494580 0.501024 0.164617
O O5 0.741105 0.577060 0.985735
O O6 0.032437 0.930007 0.937835
O O7 0.048418 0.749747 0.141172
O O8 0.751408 0.813673 0.150518
O O9 0.129041 0.532232 0.555723
O O10 0.325692 0.923045 0.976729
#
# Coordination Sequence:
#
# PCOD9574425 Si02
#       5
#     3   3   3   3   3
#     4  10  24  53  86 125 193 260 320 419 489 583
#     4   8  24  49  82 136 181 253 326 402 487 592
#     4  10  24  51  88 134 188 248 331 412 486 596
#     4  10  24  49  80 134 178 249 337 400 484 597
#     4  10  24  52  88 133 188 256 334 399 496 598
#
# _framework density 27.374275999999998
#
# number of rings (size 3 to 8) (size 9 to 14) (size 15 to 20)
#    2.400    0.000    0.000    0.000    2.800    4.800 
#   10.800    4.000    4.400    0.000    0.000    0.000 
#    0.000    0.000    0.000    0.000    0.000    0.000 
#
# Total GULP energy -83511.685162 kJ/mol
# GULP energy per Si atom -5567.445677 kJ/mol
# Density = 2.731197 g / cm^3
# Si number density = 27.374276 Si / 1000 Ang^3
#
#
#
# Elastic Constant Matrix: (Units=GPa)
#
#
# Indices 1 2 3 4 5 6 
#
# 1 148.1756 82.6801 80.2605 -1.1775 -20.3009 0.0000
# 2 82.6801 148.1756 80.2605 1.1775 20.3009 0.0000
# 3 80.2605 80.2605 222.3168 0.0000 0.0000 0.0000
# 4 -1.1775 1.1775 0.0000 50.0770 0.0000 20.3009
# 5 -20.3009 20.3009 0.0000 0.0000 50.0770 -1.1775
# 6 0.0000 0.0000 0.0000 20.3009 -1.1775 32.7477
#
#
#
# Elastic Compliance Matrix: (Units=1/GPa)
#
#
# Indices 1 2 3 4 5 6 
#
# 1 0.013100 -0.007316 -0.002088 0.000480 0.008277 0.000000
# 2 -0.007316 0.013100 -0.002088 -0.000480 -0.008277 0.000000
# 3 -0.002088 -0.002088 0.006006 0.000000 0.000000 0.000000
# 4 0.000480 -0.000480 0.000000 0.026702 0.000000 -0.016553
# 5 0.008277 -0.008277 0.000000 0.000000 0.026702 0.000960
# 6 0.000000 0.000000 0.000000 -0.016553 0.000960 0.040833
#
#
# Mechanical properties :
#
#
# Convention : Reuss Voigt Hill
#
# Bulk Modulus (GPa) = 108.44943 111.67448 110.06196
# Shear Modulus (GPa) = 32.78653 44.94479 38.86566
#
# Velocity S-wave (km/s) = 3.46455 4.05639 3.77209
# Velocity P-wave (km/s) = 7.46374 7.92610 7.69839
#
# Compressibility (1/GPa) = 0.00922089
#
# Stress axis : x y z
#
# Youngs Moduli (GPa) = 76.33613 76.33613 166.50920
#
# Poissons Ratio (x) = 0.55851 0.34767
# Poissons Ratio (y) = 0.55851 0.34767
# Poissons Ratio (z) = 0.15939 0.15939
#
# Static dielectric constant tensor:
#      x y z
#    x 2.394950 0.000000 0.000000 
#    y 0.000000 2.394950 0.000000 
#    z 0.000000 0.000000 2.095100 
# 
# From -- ./inp_files/483.got.cif
#   From: 2010.05.17/outbox.cif.g08.bks.cpg/sg144_cif.got.tgz:483.got - 2010.05.20 13:46:34.
