data_PCOD9574679
_publ_section_title
;
Structure prediction by ZEFSAII (Michael W. Deem and Ramdas Pophale) SiO2 
 PCOD9574679
Probable space group: R 3
;
_chemical_formula_sum "Si O2"
_cell_formula_units_Z 63
_cell_length_a 18.022646
_cell_length_b 18.022646
_cell_length_c 11.651090
_cell_angle_alpha 90.000000
_cell_angle_beta 90.000000
_cell_angle_gamma 120.000000
_cell_volume 3277.436556
_symmetry_space_group_name_H-M "R 3"
_symmetry_group_IT_number 146
_symmetry_cell_setting 'hexagonal'
loop_
_space_group_symop_operation_xyz
x,y,z
-y,x-y,z
-x+y,-x,z
2/3+x,1/3+y,1/3+z
2/3-y,1/3+x-y,1/3+z
2/3-x+y,1/3-x,1/3+z
1/3+x,2/3+y,2/3+z
1/3-y,2/3+x-y,2/3+z
1/3-x+y,2/3-x,2/3+z
loop_
_atom_site_type_symbol
_atom_site_label
_atom_site_fract_x
_atom_site_fract_y
_atom_site_fract_z
Si Si1 0.148747 0.913833 0.146170
Si Si2 0.417264 0.326632 0.749950
Si Si3 0.912569 0.195853 0.034264
Si Si4 0.565046 0.762254 0.215562
Si Si5 0.589163 0.899941 0.812115
Si Si6 0.782043 0.840463 0.392887
Si Si7 0.766418 0.727332 0.770753
O O1 0.204664 0.868197 0.175903
O O2 0.133509 0.950373 0.265184
O O3 0.058232 0.835462 0.106165
O O4 0.203496 0.995747 0.069665
O O5 0.492155 0.380800 0.841061
O O6 0.338005 0.339702 0.783116
O O7 0.442657 0.360096 0.618108
O O8 0.407798 0.233461 0.753482
O O9 0.835636 0.107011 0.081046
O O10 0.900602 0.271118 0.091778
O O11 0.922432 0.207728 0.897323
O O12 0.497664 0.677007 0.148500
O O13 0.560510 0.739099 0.349036
O O14 0.702413 0.744529 0.389415
#
# Coordination Sequence:
#
# PCOD9574679 Si02
#       7
#     9   9   9   9   9   9   9
#     4   9  20  37  60  87 122 156 199 258 299 357
#     4  10  23  40  63  91 129 165 199 264 311 367
#     4  12  22  39  64  92 124 162 211 252 313 368
#     4  10  19  38  60  89 124 154 206 256 306 356
#     4  10  24  39  61  92 125 167 202 250 319 365
#     4  10  18  38  61  89 121 157 207 254 301 363
#     4  11  22  35  61  94 117 165 206 260 297 360
#
# _framework density 19.222339999999999
#
# number of rings (size 3 to 8) (size 9 to 14) (size 15 to 20)
#    0.000    1.714    2.857    2.571    6.000    0.000 
#    1.714    1.429    0.000    0.000    0.000    0.000 
#    1.429    0.000    0.000    0.000    0.000    0.000 
#
# Total GULP energy -117033.266480 kJ/mol
# GULP energy per Si atom -5573.012690 kJ/mol
# Density = 1.917859 g / cm^3
# Si number density = 19.222340 Si / 1000 Ang^3
#
#
#
# Elastic Constant Matrix: (Units=GPa)
#
#
# Indices 1 2 3 4 5 6 
#
# 1 83.4406 31.5861 27.8605 2.3490 -0.0875 0.0000
# 2 31.5861 83.4406 27.8605 -2.3490 0.0875 0.0000
# 3 27.8605 27.8605 72.4117 0.0000 0.0000 0.0000
# 4 2.3490 -2.3490 0.0000 22.6275 0.0000 0.0875
# 5 -0.0875 0.0875 0.0000 0.0000 22.6275 2.3490
# 6 0.0000 0.0000 0.0000 0.0875 2.3490 25.9272
#
#
#
# Elastic Compliance Matrix: (Units=1/GPa)
#
#
# Indices 1 2 3 4 5 6 
#
# 1 0.015077 -0.004391 -0.004111 -0.002021 0.000075 0.000000
# 2 -0.004391 0.015077 -0.004111 0.002021 -0.000075 0.000000
# 3 -0.004111 -0.004111 0.016973 0.000000 0.000000 0.000000
# 4 -0.002021 0.002021 0.000000 0.044614 0.000000 -0.000151
# 5 0.000075 -0.000075 0.000000 0.000000 0.044614 -0.004042
# 6 0.000000 0.000000 0.000000 -0.000151 -0.004042 0.038936
#
#
# Mechanical properties :
#
#
# Convention : Reuss Voigt Hill
#
# Bulk Modulus (GPa) = 45.66370 45.98968 45.82669
# Shear Modulus (GPa) = 24.05947 24.36885 24.21416
#
# Velocity S-wave (km/s) = 3.54169 3.56439 3.55306
# Velocity P-wave (km/s) = 6.36647 6.39663 6.38157
#
# Compressibility (1/GPa) = 0.02189923
#
# Stress axis : x y z
#
# Youngs Moduli (GPa) = 66.32790 66.32790 58.91558
#
# Poissons Ratio (x) = 0.29128 0.24221
# Poissons Ratio (y) = 0.29128 0.24221
# Poissons Ratio (z) = 0.27268 0.27268
#
# Static dielectric constant tensor:
#      x y z
#    x 1.687230 0.000000 0.000000 
#    y 0.000000 1.687230 0.000000 
#    z 0.000000 0.000000 1.725560 
# 
# From -- ./inp_files/1229.got.cif
#   From: 2010.05.17/outbox.cif.g08.bks.cpg/sg146_cif.got.tgz:1229.got - 2010.05.20 13:48:23.
