data_PCOD9574117
_publ_section_title
;
Structure prediction by ZEFSAII (Michael W. Deem and Ramdas Pophale) SiO2 
 PCOD9574117
Probable space group: I 41/A C D
;
_chemical_formula_sum "Si O2"
_cell_formula_units_Z 136
_cell_length_a 22.925731
_cell_length_b 22.925731
_cell_length_c 10.868754
_cell_angle_alpha 90.000000
_cell_angle_beta 90.000000
_cell_angle_gamma 90.000000
_cell_volume 5712.499088
_symmetry_space_group_name_H-M "I 41/A C D"
_symmetry_group_IT_number 142
_space_group.IT_coordinate_system_code '2'
_symmetry_cell_setting 'tetragonal'
loop_
_space_group_symop_operation_xyz
x,y,z
1/4-y,3/4+x,1/4+z
-x,1/2-y,z
1/4+y,1/4-x,3/4+z
x,-y,1/2-z
1/2-x,y,-z
3/4+y,1/4+x,1/4-z
1/4-y,1/4-x,1/4-z
-x,-y,-z
3/4+y,1/4-x,3/4-z
x,1/2+y,-z
3/4-y,3/4+x,1/4-z
-x,y,1/2+z
1/2+x,-y,z
1/4-y,3/4-x,3/4+z
3/4+y,3/4+x,3/4+z
1/2+x,1/2+y,1/2+z
3/4-y,1/4+x,3/4+z
1/2-x,-y,1/2+z
3/4+y,3/4-x,1/4+z
1/2+x,1/2-y,-z
-x,1/2+y,1/2-z
1/4+y,3/4+x,3/4-z
3/4-y,3/4-x,3/4-z
1/2-x,1/2-y,1/2-z
1/4+y,3/4-x,1/4-z
1/2+x,y,1/2-z
1/4-y,1/4+x,3/4-z
1/2-x,1/2+y,z
x,1/2-y,1/2+z
3/4-y,1/4-x,1/4+z
1/4+y,1/4+x,1/4+z
loop_
_atom_site_type_symbol
_atom_site_label
_atom_site_fract_x
_atom_site_fract_y
_atom_site_fract_z
Si Si1 0.155388 0.999335 0.115477
Si Si2 0.895962 0.273180 0.539011
Si Si3 0.466180 0.468888 0.387154
Si Si4 0.500000 0.750000 0.375000
Si Si5 0.680964 0.878113 0.497119
O O1 0.213112 0.036889 0.125000
O O2 0.099540 0.027762 0.053429
O O3 0.130360 0.000000 0.250000
O O4 0.170574 0.933661 0.087349
O O5 0.938967 0.311034 0.625000
O O6 0.848038 0.235783 0.613499
O O7 0.856613 0.321222 0.468428
O O8 0.941095 0.238893 0.453010
O O9 0.477802 0.500000 0.250000
O O10 0.500000 0.500000 0.500000
O O11 0.750000 0.866744 0.500000
O O12 0.654664 0.904664 0.625000
#
# Coordination Sequence:
#
# PCOD9574117 Si02
#       5
#    32  32  32   8  32
#     4  11  24  40  67 107 147 183 237 307 377 456
#     4  11  27  48  73 105 149 206 267 328 394 473
#     4  11  26  48  76 111 149 200 258 318 395 474
#     4  12  30  48  76 106 156 216 282 332 402 472
#     4  11  22  42  70 103 145 191 247 315 398 478
#
# _framework density 23.807444
#
# number of rings (size 3 to 8) (size 9 to 14) (size 15 to 20)
#    0.000    0.941    0.000    6.706    9.882    3.765 
#    0.000    0.000    0.000    0.000    0.000    0.000 
#    0.000    0.000    0.000    0.000    0.000    0.000 
#
# Total GULP energy -379157.598565 kJ/mol
# GULP energy per Si atom -5575.847038 kJ/mol
# Density = 2.375326 g / cm^3
# Si number density = 23.807444 Si / 1000 Ang^3
#
#
#
# Elastic Constant Matrix: (Units=GPa)
#
#
# Indices 1 2 3 4 5 6 
#
# 1 -245.1898 411.6240 17.2695 0.0000 0.0000 0.0000
# 2 411.6240 -245.1359 17.2186 0.0000 0.0000 0.0000
# 3 17.2695 17.2186 74.5139 0.0000 0.0000 0.0000
# 4 0.0000 0.0000 0.0000 29.4087 0.0000 0.0000
# 5 0.0000 0.0000 0.0000 0.0000 29.4097 0.0000
# 6 0.0000 0.0000 0.0000 0.0000 0.0000 95.2152
#
#
#
# Elastic Compliance Matrix: (Units=1/GPa)
#
#
# Indices 1 2 3 4 5 6 
#
# 1 0.002393 0.003916 -0.001460 0.000000 0.000000 0.000000
# 2 0.003916 0.002394 -0.001461 0.000000 0.000000 0.000000
# 3 -0.001460 -0.001461 0.014096 0.000000 0.000000 0.000000
# 4 0.000000 0.000000 0.000000 0.034004 0.000000 0.000000
# 5 0.000000 0.000000 0.000000 0.000000 0.034002 0.000000
# 6 0.000000 0.000000 0.000000 0.000000 0.000000 0.010503
#
#
# Mechanical properties :
#
#
# Convention : Reuss Voigt Hill
#
# Bulk Modulus (GPa) = 47.90402 52.93471 50.41937
# Shear Modulus (GPa) = 48.84771 -26.65488 11.09642
#
# Velocity S-wave (km/s) = 4.53458 -3.34968 2.16125
# Velocity P-wave (km/s) = 6.89794 2.70598 5.23946
#
# Compressibility (1/GPa) = 0.02087507
#
# Stress axis : x y z
#
# Youngs Moduli (GPa) = 417.82969 417.69977 70.94118
#
# Poissons Ratio (x) = -1.63582 0.10355
# Poissons Ratio (y) = -1.63633 0.10363
# Poissons Ratio (z) = 0.60988 0.61020
#
# Static dielectric constant tensor:
#      x y z
#    x 1.994780 0.000000 0.000000 
#    y 0.000000 1.994840 0.000000 
#    z 0.000000 0.000000 2.104650 
# 
# From -- ./inp_files/3586.got.cif
#   From: 2010.05.17/outbox.cif.g08.bks.cpg/sg142_2_cif.got.tgz:3586.got - 2010.05.20 13:39:18.
