data_PCOD9574537
_publ_section_title
;
Structure prediction by ZEFSAII (Michael W. Deem and Ramdas Pophale) SiO2 
 PCOD9574537
Probable space group: P 32
;
_chemical_formula_sum "Si O2"
_cell_formula_units_Z 21
_cell_length_a 8.198571
_cell_length_b 8.198571
_cell_length_c 14.511875
_cell_angle_alpha 90.000000
_cell_angle_beta 90.000000
_cell_angle_gamma 120.000000
_cell_volume 844.754443
_symmetry_space_group_name_H-M "P 32"
_symmetry_group_IT_number 145
_symmetry_cell_setting 'hexagonal'
loop_
_space_group_symop_operation_xyz
x,y,z
-y,x-y,2/3+z
-x+y,-x,1/3+z
loop_
_atom_site_type_symbol
_atom_site_label
_atom_site_fract_x
_atom_site_fract_y
_atom_site_fract_z
Si Si1 0.892361 0.576436 0.715100
Si Si2 0.083487 0.286452 0.302677
Si Si3 0.002235 0.752587 0.068593
Si Si4 0.498112 0.015610 0.241399
Si Si5 0.691888 0.794599 0.770966
Si Si6 0.128690 0.624662 0.222967
Si Si7 0.850235 0.215844 0.752084
O O1 0.759061 0.668715 0.715827
O O2 0.794803 0.353288 0.698924
O O3 0.069086 0.696747 0.651134
O O4 0.979104 0.596529 0.817600
O O5 0.042451 0.457180 0.295892
O O6 0.966831 0.139240 0.380318
O O7 0.039380 0.194270 0.201734
O O8 0.955275 0.591500 0.992669
O O9 0.985811 0.671807 0.170853
O O10 0.213895 0.930509 0.063178
O O11 0.311578 0.812549 0.254433
O O12 0.424587 0.150077 0.193803
O O13 0.479401 0.662063 0.807879
O O14 0.738340 0.994740 0.732115
#
# Coordination Sequence:
#
# PCOD9574537 Si02
#       7
#     3   3   3   3   3   3   3
#     4  10  19  37  62  86 126 164 217 267 323 406
#     4  10  20  36  64  90 130 167 217 280 336 402
#     4  11  18  38  65  86 125 169 212 273 331 407
#     4   9  19  36  60  86 120 163 212 262 332 397
#     4  10  20  38  57  93 121 164 216 266 333 394
#     4   9  22  34  60  93 122 163 217 269 345 388
#     4   9  20  35  62  86 116 164 215 251 332 402
#
# _framework density 24.859293000000001
#
# number of rings (size 3 to 8) (size 9 to 14) (size 15 to 20)
#    1.714    0.571    2.857    0.857    0.000    1.143 
#    0.000    1.429    0.000    0.000    0.000    0.000 
#    0.000    0.000    0.000    0.000    0.000    0.000 
#
# Total GULP energy -117105.911020 kJ/mol
# GULP energy per Si atom -5576.471953 kJ/mol
# Density = 2.480271 g / cm^3
# Si number density = 24.859293 Si / 1000 Ang^3
#
#
#
# Elastic Constant Matrix: (Units=GPa)
#
#
# Indices 1 2 3 4 5 6 
#
# 1 114.3473 36.0862 16.4346 1.8902 4.9299 0.0000
# 2 36.0862 114.3473 16.4346 -1.8902 -4.9299 0.0000
# 3 16.4346 16.4346 37.3028 0.0000 0.0000 0.0000
# 4 1.8902 -1.8902 0.0000 37.7707 0.0000 -4.9299
# 5 4.9299 -4.9299 0.0000 0.0000 37.7707 1.8902
# 6 0.0000 0.0000 0.0000 -4.9299 1.8902 39.1305
#
#
#
# Elastic Compliance Matrix: (Units=1/GPa)
#
#
# Indices 1 2 3 4 5 6 
#
# 1 0.010189 -0.002834 -0.003241 -0.000652 -0.001700 0.000000
# 2 -0.002834 0.010189 -0.003241 0.000652 0.001700 0.000000
# 3 -0.003241 -0.003241 0.029663 0.000000 0.000000 0.000000
# 4 -0.000652 0.000652 0.000000 0.026985 0.000000 0.003400
# 5 -0.001700 0.001700 0.000000 0.000000 0.026985 -0.001303
# 6 0.000000 0.000000 0.000000 0.003400 -0.001303 0.026047
#
#
# Mechanical properties :
#
#
# Convention : Reuss Voigt Hill
#
# Bulk Modulus (GPa) = 31.83536 44.87869 38.35702
# Shear Modulus (GPa) = 31.41517 36.07052 33.74284
#
# Velocity S-wave (km/s) = 3.55874 3.81332 3.68822
# Velocity P-wave (km/s) = 5.45162 6.12215 5.79659
#
# Compressibility (1/GPa) = 0.03141161
#
# Stress axis : x y z
#
# Youngs Moduli (GPa) = 98.14068 98.14068 33.71187
#
# Poissons Ratio (x) = 0.27812 0.10925
# Poissons Ratio (y) = 0.27812 0.10925
# Poissons Ratio (z) = 0.31804 0.31804
#
# Static dielectric constant tensor:
#      x y z
#    x 1.975640 0.000000 0.000000 
#    y 0.000000 1.975640 0.000000 
#    z 0.000000 0.000000 2.050950 
# 
# From -- ./inp_files/800.got.cif
#   From: 2010.05.17/outbox.cif.g08.bks.cpg/sg145_cif.got.tgz:800.got - 2010.05.20 13:47:28.
