data_PCOD9574072
_publ_section_title
;
Structure prediction by ZEFSAII (Michael W. Deem and Ramdas Pophale) SiO2 
 PCOD9574072
Probable space group: I 41/A C D
;
_chemical_formula_sum "Si O2"
_cell_formula_units_Z 120
_cell_length_a 17.750888
_cell_length_b 17.750888
_cell_length_c 16.612971
_cell_angle_alpha 90.000000
_cell_angle_beta 90.000000
_cell_angle_gamma 90.000000
_cell_volume 5234.647896
_symmetry_space_group_name_H-M "I 41/A C D"
_symmetry_group_IT_number 142
_space_group.IT_coordinate_system_code '2'
_symmetry_cell_setting 'tetragonal'
loop_
_space_group_symop_operation_xyz
x,y,z
1/4-y,3/4+x,1/4+z
-x,1/2-y,z
1/4+y,1/4-x,3/4+z
x,-y,1/2-z
1/2-x,y,-z
3/4+y,1/4+x,1/4-z
1/4-y,1/4-x,1/4-z
-x,-y,-z
3/4+y,1/4-x,3/4-z
x,1/2+y,-z
3/4-y,3/4+x,1/4-z
-x,y,1/2+z
1/2+x,-y,z
1/4-y,3/4-x,3/4+z
3/4+y,3/4+x,3/4+z
1/2+x,1/2+y,1/2+z
3/4-y,1/4+x,3/4+z
1/2-x,-y,1/2+z
3/4+y,3/4-x,1/4+z
1/2+x,1/2-y,-z
-x,1/2+y,1/2-z
1/4+y,3/4+x,3/4-z
3/4-y,3/4-x,3/4-z
1/2-x,1/2-y,1/2-z
1/4+y,3/4-x,1/4-z
1/2+x,y,1/2-z
1/4-y,1/4+x,3/4-z
1/2-x,1/2+y,z
x,1/2-y,1/2+z
3/4-y,1/4-x,1/4+z
1/4+y,1/4+x,1/4+z
loop_
_atom_site_type_symbol
_atom_site_label
_atom_site_fract_x
_atom_site_fract_y
_atom_site_fract_z
Si Si1 0.750000 0.203978 0.500000
Si Si2 0.000000 0.750000 0.125000
Si Si3 0.396661 0.391773 0.461866
Si Si4 0.290362 0.060272 0.182819
Si Si5 0.656577 0.706134 0.878832
O O1 0.679605 0.148996 0.490623
O O2 0.727677 0.255055 0.577516
O O3 0.080060 0.761562 0.081464
O O4 0.401392 0.348609 0.375000
O O5 0.375376 0.480652 0.453981
O O6 0.460112 0.393400 0.531924
O O7 0.367519 0.090091 0.146942
O O8 0.312476 0.000000 0.250000
O O9 0.241441 0.008560 0.125000
#
# Coordination Sequence:
#
# PCOD9574072 Si02
#       5
#    16   8  32  32  32
#     4  12  24  44  72 106 140 198 254 300 384 458
#     4  12  28  48  70  96 156 204 230 300 408 456
#     4  11  23  43  70 106 140 186 250 310 368 445
#     4  11  20  39  71 106 137 173 243 305 352 428
#     4  12  25  45  73 104 149 198 242 308 380 469
#
# _framework density 22.924178000000001
#
# number of rings (size 3 to 8) (size 9 to 14) (size 15 to 20)
#    0.000    0.533    8.000    1.600    0.000    1.067 
#    0.000    0.667    0.000    0.000    0.000    0.000 
#    0.000    0.000    0.000    0.000    0.000    0.000 
#
# Total GULP energy -334363.088979 kJ/mol
# GULP energy per Si atom -5572.718150 kJ/mol
# Density = 2.287200 g / cm^3
# Si number density = 22.924178 Si / 1000 Ang^3
#
#
#
# Elastic Constant Matrix: (Units=GPa)
#
#
# Indices 1 2 3 4 5 6 
#
# 1 80.1888 26.6460 20.4725 0.0000 0.0000 0.0000
# 2 26.6460 80.1912 20.4775 0.0000 0.0000 0.0000
# 3 20.4725 20.4775 128.1973 0.0000 0.0000 0.0000
# 4 0.0000 0.0000 0.0000 16.4695 0.0000 0.0000
# 5 0.0000 0.0000 0.0000 0.0000 16.4685 0.0000
# 6 0.0000 0.0000 0.0000 0.0000 0.0000 -2.8271
#
#
#
# Elastic Compliance Matrix: (Units=1/GPa)
#
#
# Indices 1 2 3 4 5 6 
#
# 1 0.014323 -0.004353 -0.001592 0.000000 0.000000 0.000000
# 2 -0.004353 0.014323 -0.001593 0.000000 0.000000 0.000000
# 3 -0.001592 -0.001593 0.008309 0.000000 0.000000 0.000000
# 4 0.000000 0.000000 0.000000 0.060718 0.000000 0.000000
# 5 0.000000 0.000000 0.000000 0.000000 0.060722 0.000000
# 6 0.000000 0.000000 0.000000 0.000000 0.000000 -0.353715
#
#
# Mechanical properties :
#
#
# Convention : Reuss Voigt Hill
#
# Bulk Modulus (GPa) = 45.70295 47.08549 46.39422
# Shear Modulus (GPa) = -28.91009 20.75427 -4.07791
#
# Velocity S-wave (km/s) = -3.55507 3.01216 -1.33519
# Velocity P-wave (km/s) = 1.76874 5.71679 4.23144
#
# Compressibility (1/GPa) = 0.02188043
#
# Stress axis : x y z
#
# Youngs Moduli (GPa) = 69.81566 69.81638 120.34924
#
# Poissons Ratio (x) = 0.30390 0.19161
# Poissons Ratio (y) = 0.30390 0.19169
# Poissons Ratio (z) = 0.11115 0.11120
#
# Static dielectric constant tensor:
#      x y z
#    x 1.819900 0.000000 0.000000 
#    y 0.000000 1.819890 0.000000 
#    z 0.000000 0.000000 1.854080 
# 
# From -- ./inp_files/6902.got.cif
#   From: 2010.05.17/outbox.cif.g08.bks.cpg/sg142_4_cif.got.tgz:6902.got - 2010.05.20 13:39:18.
