data_PCOD9574471
_publ_section_title
;
Structure prediction by ZEFSAII (Michael W. Deem and Ramdas Pophale) SiO2 
 PCOD9574471
Probable space group: P 31
;
_chemical_formula_sum "Si O2"
_cell_formula_units_Z 21
_cell_length_a 8.902202
_cell_length_b 8.902202
_cell_length_c 12.588593
_cell_angle_alpha 90.000000
_cell_angle_beta 90.000000
_cell_angle_gamma 120.000000
_cell_volume 863.978059
_symmetry_space_group_name_H-M "P 31"
_symmetry_group_IT_number 144
_symmetry_cell_setting 'hexagonal'
loop_
_space_group_symop_operation_xyz
x,y,z
-y,x-y,1/3+z
-x+y,-x,2/3+z
loop_
_atom_site_type_symbol
_atom_site_label
_atom_site_fract_x
_atom_site_fract_y
_atom_site_fract_z
Si Si1 0.137652 0.010301 0.102870
Si Si2 0.830957 0.659988 0.149855
Si Si3 0.511143 0.645223 0.673363
Si Si4 0.436352 0.103250 0.257752
Si Si5 0.727838 0.757075 0.351701
Si Si6 0.328214 0.579962 0.880257
Si Si7 0.653520 0.494248 0.532856
O O1 0.291853 0.118408 0.187323
O O2 0.098261 0.136137 0.033040
O O3 0.191017 0.879924 0.045500
O O4 0.957388 0.865461 0.151771
O O5 0.754133 0.635079 0.267338
O O6 0.902181 0.528139 0.140833
O O7 0.708502 0.600390 0.048289
O O8 0.347065 0.561879 0.753511
O O9 0.435041 0.685474 0.569122
O O10 0.588347 0.521271 0.646640
O O11 0.634507 0.229828 0.218702
O O12 0.394290 0.908883 0.240422
O O13 0.564650 0.754681 0.292249
O O14 0.734508 0.670989 0.464538
#
# Coordination Sequence:
#
# PCOD9574471 Si02
#       7
#     3   3   3   3   3   3   3
#     4  11  27  49  77 114 163 206 267 333 404 490
#     4  12  27  47  73 116 149 212 258 333 395 493
#     4  11  25  48  74 111 153 209 264 320 399 478
#     4  11  27  48  78 116 160 207 265 334 411 479
#     4  12  28  47  82 115 159 208 272 332 410 475
#     4  11  24  46  77 110 156 209 259 325 400 492
#     4  12  28  49  77 114 162 205 269 335 407 487
#
# _framework density 24.306172
#
# number of rings (size 3 to 8) (size 9 to 14) (size 15 to 20)
#    0.000    0.571    0.000    6.857   16.000    0.000 
#    2.571    0.000    0.000    0.000    0.000    0.000 
#    0.000    0.000    0.000    0.000    0.000    0.000 
#
# Total GULP energy -117061.602138 kJ/mol
# GULP energy per Si atom -5574.362007 kJ/mol
# Density = 2.425085 g / cm^3
# Si number density = 24.306172 Si / 1000 Ang^3
#
#
#
# Elastic Constant Matrix: (Units=GPa)
#
#
# Indices 1 2 3 4 5 6 
#
# 1 93.1520 32.7713 39.9855 12.7844 4.4237 0.0000
# 2 32.7713 93.1520 39.9855 -12.7844 -4.4237 0.0000
# 3 39.9855 39.9855 96.4593 0.0000 0.0000 0.0000
# 4 12.7844 -12.7844 0.0000 35.1601 0.0000 -4.4237
# 5 4.4237 -4.4237 0.0000 0.0000 35.1601 12.7844
# 6 0.0000 0.0000 0.0000 -4.4237 12.7844 30.1903
#
#
#
# Elastic Compliance Matrix: (Units=1/GPa)
#
#
# Indices 1 2 3 4 5 6 
#
# 1 0.015395 -0.004616 -0.004468 -0.007276 -0.002518 0.000000
# 2 -0.004616 0.015395 -0.004468 0.007276 0.002518 0.000000
# 3 -0.004468 -0.004468 0.014072 0.000000 0.000000 0.000000
# 4 -0.007276 0.007276 0.000000 0.034366 0.000000 0.005036
# 5 -0.002518 0.002518 0.000000 0.000000 0.034366 -0.014553
# 6 0.000000 0.000000 0.000000 0.005036 -0.014553 0.040024
#
#
# Mechanical properties :
#
#
# Convention : Reuss Voigt Hill
#
# Bulk Modulus (GPa) = 56.31718 56.47199 56.39459
# Shear Modulus (GPa) = 26.78903 31.43682 29.11293
#
# Velocity S-wave (km/s) = 3.32346 3.60024 3.46462
# Velocity P-wave (km/s) = 6.16015 6.36917 6.26553
#
# Compressibility (1/GPa) = 0.01775657
#
# Stress axis : x y z
#
# Youngs Moduli (GPa) = 64.95439 64.95439 71.06545
#
# Poissons Ratio (x) = 0.29986 0.31754
# Poissons Ratio (y) = 0.29986 0.31754
# Poissons Ratio (z) = 0.29023 0.29023
#
# Static dielectric constant tensor:
#      x y z
#    x 2.025540 0.000000 0.000000 
#    y 0.000000 2.025540 0.000000 
#    z 0.000000 0.000000 2.344730 
# 
# From -- ./inp_files/603.got.cif
#   From: 2010.05.17/outbox.cif.g08.bks.cpg/sg144_cif.got.tgz:603.got - 2010.05.20 13:46:34.
