data_PCOD9574992
_publ_section_title
;
Structure prediction by ZEFSAII (Michael W. Deem and Ramdas Pophale) SiO2 
 PCOD9574992
Probable space group: P -3
;
_chemical_formula_sum "Si O2"
_cell_formula_units_Z 36
_cell_length_a 9.000000
_cell_length_b 9.000000
_cell_length_c 27.000000
_cell_angle_alpha 90.000000
_cell_angle_beta 90.000000
_cell_angle_gamma 120.000000
_cell_volume 1893.997558
_symmetry_space_group_name_H-M "P -3"
_symmetry_group_IT_number 147
_symmetry_cell_setting 'hexagonal'
loop_
_space_group_symop_operation_xyz
x,y,z
-y,x-y,z
-x+y,-x,z
-x,-y,-z
y,-x+y,-z
x-y,x,-z
loop_
_atom_site_type_symbol
_atom_site_label
_atom_site_fract_x
_atom_site_fract_y
_atom_site_fract_z
Si Si1 0.336080 0.015158 0.636297
Si Si2 0.013180 0.339128 0.019586
Si Si3 0.013699 0.675248 0.480669
Si Si4 0.469757 0.333356 0.870665
Si Si5 0.668993 0.656393 0.325041
Si Si6 0.340033 0.473586 0.785521
O O1 0.339614 0.172241 0.665556
O O2 0.496988 0.994414 0.651109
O O3 0.348181 0.049825 0.577776
O O4 0.163014 0.840695 0.649972
O O5 0.058946 0.378022 0.077399
O O6 0.166668 0.330216 0.991821
O O7 0.000000 0.500000 0.000000
O O8 0.835255 0.668207 0.491466
O O9 0.000000 0.500000 0.500000
O O10 0.506836 0.174340 0.868082
O O11 0.365345 0.362402 0.827409
O O12 0.666429 0.608037 0.267593
O O13 0.495939 0.672790 0.789260
#
# Coordination Sequence:
#
# PCOD9574992 Si02
#       6
#     6   6   6   6   6   6
#     4  12  24  43  69  95 134 179 222 284 340 409
#     4  12  24  44  68 102 145 192 242 290 344 413
#     4  12  25  43  66  97 133 174 226 278 343 410
#     4  10  23  41  66 104 136 181 228 279 346 403
#     4  12  25  45  66 100 133 176 230 277 343 417
#     4  10  23  43  66  99 132 177 221 278 348 403
#
# _framework density 19.007415999999999
#
# number of rings (size 3 to 8) (size 9 to 14) (size 15 to 20)
#    0.667    0.000    3.333    5.000    4.667    0.000 
#    0.000    0.000    0.000    0.667    0.000    0.000 
#    0.000    0.000    0.000    0.000    0.000    0.000 
#
# Total GULP energy -201151.423979 kJ/mol
# GULP energy per Si atom -5587.539555 kJ/mol
# Density = 1.896415 g / cm^3
# Si number density = 19.007416 Si / 1000 Ang^3
#
#
#
# Elastic Constant Matrix: (Units=GPa)
#
#
# Indices 1 2 3 4 5 6 
#
# 1 105.3516 32.1080 12.6942 -5.7394 -1.9450 0.0000
# 2 32.1080 105.3516 12.6942 5.7394 1.9450 0.0000
# 3 12.6942 12.6942 119.5107 0.0000 0.0000 0.0000
# 4 -5.7394 5.7394 0.0000 33.6870 0.0000 1.9450
# 5 -1.9450 1.9450 0.0000 0.0000 33.6870 -5.7394
# 6 0.0000 0.0000 0.0000 1.9450 -5.7394 36.6218
#
#
#
# Elastic Compliance Matrix: (Units=1/GPa)
#
#
# Indices 1 2 3 4 5 6 
#
# 1 0.010746 -0.003326 -0.000788 0.002397 0.000812 0.000000
# 2 -0.003326 0.010746 -0.000788 -0.002397 -0.000812 0.000000
# 3 -0.000788 -0.000788 0.008535 0.000000 0.000000 0.000000
# 4 0.002397 -0.002397 0.000000 0.030596 0.000000 -0.001625
# 5 0.000812 -0.000812 0.000000 0.000000 0.030596 0.004795
# 6 0.000000 0.000000 0.000000 -0.001625 0.004795 0.028144
#
#
# Mechanical properties :
#
#
# Convention : Reuss Voigt Hill
#
# Bulk Modulus (GPa) = 49.44860 49.46744 49.45802
# Shear Modulus (GPa) = 36.78957 38.98031 37.88494
#
# Velocity S-wave (km/s) = 4.40425 4.53348 4.46933
# Velocity P-wave (km/s) = 7.20660 7.31335 7.26017
#
# Compressibility (1/GPa) = 0.02022302
#
# Stress axis : x y z
#
# Youngs Moduli (GPa) = 93.05619 93.05619 117.16608
#
# Poissons Ratio (x) = 0.30948 0.09235
# Poissons Ratio (y) = 0.30948 0.09235
# Poissons Ratio (z) = 0.07335 0.07335
#
# Static dielectric constant tensor:
#      x y z
#    x 1.641430 0.000000 0.000000 
#    y 0.000000 1.641430 0.000000 
#    z 0.000000 0.000000 1.638520 
# 
# From -- ./inp_files/1115.got.cif
#   From: 2010.05.17/outbox.ucp.g08.bks.cvg/sg147_cif.got.tgz:1115.got - 2010.06.11 11:44:37.
