data_PCOD9574833
_publ_section_title
;
Structure prediction by ZEFSAII (Michael W. Deem and Ramdas Pophale) SiO2 
 PCOD9574833
Probable space group: R 3
;
_chemical_formula_sum "Si O2"
_cell_formula_units_Z 48
_cell_length_a 11.507773
_cell_length_b 11.507773
_cell_length_c 19.942655
_cell_angle_alpha 90.000000
_cell_angle_beta 90.000000
_cell_angle_gamma 120.000000
_cell_volume 2287.158072
_symmetry_space_group_name_H-M "R 3"
_symmetry_group_IT_number 146
_symmetry_cell_setting 'hexagonal'
loop_
_space_group_symop_operation_xyz
x,y,z
-y,x-y,z
-x+y,-x,z
2/3+x,1/3+y,1/3+z
2/3-y,1/3+x-y,1/3+z
2/3-x+y,1/3-x,1/3+z
1/3+x,2/3+y,2/3+z
1/3-y,2/3+x-y,2/3+z
1/3-x+y,2/3-x,2/3+z
loop_
_atom_site_type_symbol
_atom_site_label
_atom_site_fract_x
_atom_site_fract_y
_atom_site_fract_z
Si Si1 0.666668 0.333334 0.370477
Si Si2 0.333334 0.666668 0.542746
Si Si3 0.666666 0.333334 0.902724
Si Si4 0.333333 0.666666 0.077452
Si Si5 0.233298 0.983780 0.801866
Si Si6 0.661215 0.073161 0.428592
Si Si7 0.298749 0.127752 0.547540
Si Si8 0.148946 0.288318 0.356743
O O1 0.666668 0.333334 0.289827
O O2 0.692094 0.215660 0.398118
O O3 0.470718 0.684060 0.512586
O O4 0.666668 0.333334 0.822841
O O5 0.823064 0.411622 0.917974
O O6 0.374812 0.813218 0.053804
O O7 0.156913 0.825681 0.786529
O O8 0.368721 0.027635 0.843824
O O9 0.270612 0.064279 0.731635
O O10 0.758712 0.095023 0.491542
O O11 0.683187 0.980757 0.375308
O O12 0.394327 0.180986 0.611367
#
# Coordination Sequence:
#
# PCOD9574833 Si02
#       8
#     3   3   3   3   9   9   9   9
#     4  12  30  46  74 103 147 193 233 289 357 423
#     4  12  30  46  74 103 147 193 233 289 357 423
#     4  12  24  49  71 106 141 183 244 293 343 414
#     4  12  24  49  71 106 141 183 244 293 343 414
#     4  12  26  49  69 106 146 183 239 292 346 426
#     4  12  26  49  69 106 146 183 239 292 346 426
#     4  12  28  46  78 103 144 190 234 295 357 418
#     4  12  28  46  78 103 144 190 234 295 357 418
#
# _framework density 20.986743000000001
#
# number of rings (size 3 to 8) (size 9 to 14) (size 15 to 20)
#    0.000    0.000    7.500    0.000   10.500    0.000 
#    0.000    0.000    0.000    0.000    0.000    0.000 
#    0.000    0.000    0.000    0.000    0.000    0.000 
#
# Total GULP energy -89503.497974 kJ/mol
# GULP energy per Si atom -5593.968623 kJ/mol
# Density = 2.093898 g / cm^3
# Si number density = 20.986743 Si / 1000 Ang^3
#
#
#
# Elastic Constant Matrix: (Units=GPa)
#
#
# Indices 1 2 3 4 5 6 
#
# 1 93.0917 14.3003 12.5319 4.7247 4.3498 -0.0005
# 2 14.3003 93.0921 12.5314 -4.7260 -4.3503 0.0006
# 3 12.5319 12.5314 92.9633 0.0002 0.0003 -0.0002
# 4 4.7247 -4.7260 0.0002 31.4058 0.0006 -4.3508
# 5 4.3498 -4.3503 0.0003 0.0006 31.4042 4.7243
# 6 -0.0005 0.0006 -0.0002 -4.3508 4.7243 39.3954
#
#
#
# Elastic Compliance Matrix: (Units=1/GPa)
#
#
# Indices 1 2 3 4 5 6 
#
# 1 0.011372 -0.001758 -0.001296 -0.001975 -0.001819 0.000000
# 2 -0.001758 0.011372 -0.001296 0.001976 0.001819 0.000000
# 3 -0.001296 -0.001296 0.011106 0.000000 0.000000 0.000000
# 4 -0.001975 0.001976 0.000000 0.032940 -0.000001 0.003638
# 5 -0.001819 0.001819 0.000000 -0.000001 0.032941 -0.003950
# 6 0.000000 0.000000 0.000000 0.003638 -0.003950 0.026259
#
#
# Mechanical properties :
#
#
# Convention : Reuss Voigt Hill
#
# Bulk Modulus (GPa) = 39.76053 39.76382 39.76217
# Shear Modulus (GPa) = 34.94729 36.42666 35.68697
#
# Velocity S-wave (km/s) = 4.08512 4.17069 4.12813
# Velocity P-wave (km/s) = 6.42165 6.49470 6.45828
#
# Compressibility (1/GPa) = 0.02515057
#
# Stress axis : x y z
#
# Youngs Moduli (GPa) = 87.93689 87.93683 90.03865
#
# Poissons Ratio (x) = 0.15456 0.11669
# Poissons Ratio (y) = 0.15456 0.11669
# Poissons Ratio (z) = 0.11397 0.11396
#
# Static dielectric constant tensor:
#      x y z
#    x 1.738810 0.000000 0.000000 
#    y 0.000000 1.738810 0.000000 
#    z 0.000000 0.000000 1.680290 
# 
# From -- ./inp_files/1961.got.cif
#   From: 2010.05.17/outbox.cif.g08.bks.cpg/sg146_cif.got.tgz:1961.got - 2010.05.20 13:48:23.
