data_PCOD9574141
_publ_section_title
;
Structure prediction by ZEFSAII (Michael W. Deem and Ramdas Pophale) SiO2 
 PCOD9574141
Probable space group: I 41/A C D
;
_chemical_formula_sum "Si O2"
_cell_formula_units_Z 176
_cell_length_a 17.419006
_cell_length_b 17.419006
_cell_length_c 26.538125
_cell_angle_alpha 90.000000
_cell_angle_beta 90.000000
_cell_angle_gamma 90.000000
_cell_volume 8052.244861
_symmetry_space_group_name_H-M "I 41/A C D"
_symmetry_group_IT_number 142
_space_group.IT_coordinate_system_code '2'
_symmetry_cell_setting 'tetragonal'
loop_
_space_group_symop_operation_xyz
x,y,z
1/4-y,3/4+x,1/4+z
-x,1/2-y,z
1/4+y,1/4-x,3/4+z
x,-y,1/2-z
1/2-x,y,-z
3/4+y,1/4+x,1/4-z
1/4-y,1/4-x,1/4-z
-x,-y,-z
3/4+y,1/4-x,3/4-z
x,1/2+y,-z
3/4-y,3/4+x,1/4-z
-x,y,1/2+z
1/2+x,-y,z
1/4-y,3/4-x,3/4+z
3/4+y,3/4+x,3/4+z
1/2+x,1/2+y,1/2+z
3/4-y,1/4+x,3/4+z
1/2-x,-y,1/2+z
3/4+y,3/4-x,1/4+z
1/2+x,1/2-y,-z
-x,1/2+y,1/2-z
1/4+y,3/4+x,3/4-z
3/4-y,3/4-x,3/4-z
1/2-x,1/2-y,1/2-z
1/4+y,3/4-x,1/4-z
1/2+x,y,1/2-z
1/4-y,1/4+x,3/4-z
1/2-x,1/2+y,z
x,1/2-y,1/2+z
3/4-y,1/4-x,1/4+z
1/4+y,1/4+x,1/4+z
loop_
_atom_site_type_symbol
_atom_site_label
_atom_site_fract_x
_atom_site_fract_y
_atom_site_fract_z
Si Si1 0.547136 0.000000 0.750000
Si Si2 0.874714 0.418809 0.846947
Si Si3 0.445155 0.112493 0.815216
Si Si4 0.004579 0.100053 0.543710
Si Si5 0.300926 0.949075 0.625000
Si Si6 0.091347 0.341347 0.125000
Si Si7 0.686416 0.760575 0.823881
O O1 0.594344 0.040650 0.704308
O O2 0.491524 0.062824 0.775224
O O3 0.786803 0.443799 0.855866
O O4 0.933929 0.435878 0.892385
O O5 0.867404 0.326681 0.845356
O O6 0.419409 0.195330 0.796278
O O7 0.369923 0.066890 0.834790
O O8 0.506686 0.134688 0.858004
O O9 0.007438 0.084755 0.484607
O O10 0.087492 0.114137 0.571099
O O11 0.966932 0.025833 0.570169
#
# Coordination Sequence:
#
# PCOD9574141 Si02
#       7
#    16  32  32  32  16  16  32
#     4  12  30  44  78 110 150 194 264 298 384 458
#     4  12  27  50  69 110 151 201 247 310 372 462
#     4  12  24  46  76 111 141 195 248 315 370 449
#     4  11  23  44  75 106 143 194 244 314 373 442
#     4  12  26  48  79 102 153 193 245 316 388 444
#     4  12  21  41  75 106 142 177 257 312 358 427
#     4  11  27  46  70 106 154 197 246 299 386 457
#
# _framework density 21.857257000000001
#
# number of rings (size 3 to 8) (size 9 to 14) (size 15 to 20)
#    0.000    0.364    3.636    4.364    5.091    6.909 
#    0.000    0.000    0.000    0.000    0.000    0.000 
#    0.000    0.000    0.000    0.000    0.000    0.000 
#
# Total GULP energy -490571.899294 kJ/mol
# GULP energy per Si atom -5574.680674 kJ/mol
# Density = 2.180751 g / cm^3
# Si number density = 21.857257 Si / 1000 Ang^3
#
#
#
# Elastic Constant Matrix: (Units=GPa)
#
#
# Indices 1 2 3 4 5 6 
#
# 1 107.5214 42.4660 68.0980 0.0000 0.0000 0.0000
# 2 42.4660 107.5223 68.0984 0.0000 0.0000 0.0000
# 3 68.0980 68.0984 130.9075 0.0000 0.0000 0.0000
# 4 0.0000 0.0000 0.0000 194.0504 0.0000 0.0000
# 5 0.0000 0.0000 0.0000 0.0000 194.0573 0.0000
# 6 0.0000 0.0000 0.0000 0.0000 0.0000 27.9144
#
#
#
# Elastic Compliance Matrix: (Units=1/GPa)
#
#
# Indices 1 2 3 4 5 6 
#
# 1 0.014004 -0.001368 -0.006573 0.000000 0.000000 0.000000
# 2 -0.001368 0.014004 -0.006573 0.000000 0.000000 0.000000
# 3 -0.006573 -0.006573 0.014478 0.000000 0.000000 0.000000
# 4 0.000000 0.000000 0.000000 0.005153 0.000000 0.000000
# 5 0.000000 0.000000 0.000000 0.000000 0.005153 0.000000
# 6 0.000000 0.000000 0.000000 0.000000 0.000000 0.035824
#
#
# Mechanical properties :
#
#
# Convention : Reuss Voigt Hill
#
# Bulk Modulus (GPa) = 74.31176 78.14180 76.22678
# Shear Modulus (GPa) = 40.94008 94.35702 67.64855
#
# Velocity S-wave (km/s) = 4.33259 6.57749 5.56932
# Velocity P-wave (km/s) = 7.68771 9.67022 8.73539
#
# Compressibility (1/GPa) = 0.01345682
#
# Stress axis : x y z
#
# Youngs Moduli (GPa) = 71.40921 71.40968 69.07094
#
# Poissons Ratio (x) = 0.09766 0.45402
# Poissons Ratio (y) = 0.09766 0.45402
# Poissons Ratio (z) = 0.46940 0.46940
#
# Static dielectric constant tensor:
#      x y z
#    x 1.821730 0.000000 0.000000 
#    y 0.000000 1.821730 0.000000 
#    z 0.000000 0.000000 2.020210 
# 
# From -- ./inp_files/11499.got.cif
#   From: 2010.05.17/outbox.cif.g08.bks.cpg/sg142_6_cif.got.tgz:11499.got - 2010.05.20 13:39:18.
