data_PCOD9574469
_publ_section_title
;
Structure prediction by ZEFSAII (Michael W. Deem and Ramdas Pophale) SiO2 
 PCOD9574469
Probable space group: P 31
;
_chemical_formula_sum "Si O2"
_cell_formula_units_Z 18
_cell_length_a 8.474543
_cell_length_b 8.474543
_cell_length_c 11.057726
_cell_angle_alpha 90.000000
_cell_angle_beta 90.000000
_cell_angle_gamma 120.000000
_cell_volume 687.747517
_symmetry_space_group_name_H-M "P 31"
_symmetry_group_IT_number 144
_symmetry_cell_setting 'hexagonal'
loop_
_space_group_symop_operation_xyz
x,y,z
-y,x-y,1/3+z
-x+y,-x,2/3+z
loop_
_atom_site_type_symbol
_atom_site_label
_atom_site_fract_x
_atom_site_fract_y
_atom_site_fract_z
Si Si1 0.341820 0.527085 0.204670
Si Si2 0.354311 0.867578 0.115820
Si Si3 0.838307 0.868281 0.953200
Si Si4 0.693319 0.206339 0.202378
Si Si5 0.673039 0.525439 0.114104
Si Si6 0.165375 0.966839 0.784053
O O1 0.420648 0.734516 0.167135
O O2 0.219101 0.472671 0.324217
O O3 0.515338 0.500300 0.206284
O O4 0.193067 0.404954 0.101479
O O5 0.209860 0.861578 0.213113
O O6 0.531008 0.068329 0.111522
O O7 0.799166 0.729299 0.064692
O O8 0.977638 0.863675 0.857986
O O9 0.933671 0.072748 0.002821
O O10 0.763184 0.415325 0.168267
O O11 0.588090 0.154135 0.328450
O O12 0.865789 0.180197 0.195957
#
# Coordination Sequence:
#
# PCOD9574469 Si02
#       6
#     3   3   3   3   3   3
#     4  12  24  43  70 104 145 195 243 304 367 438
#     4  11  24  46  73 106 147 194 248 303 367 442
#     4  11  26  47  72 104 147 196 248 307 368 440
#     4  11  24  46  70 104 143 191 248 311 370 442
#     4  11  25  46  71 102 145 194 247 305 371 441
#     4  12  25  42  68 102 143 190 244 302 367 435
#
# _framework density 26.172391999999999
#
# number of rings (size 3 to 8) (size 9 to 14) (size 15 to 20)
#    0.000    0.667    0.000    9.000    0.000    6.667 
#    0.000    0.000    0.000    0.000    0.000    0.000 
#    0.000    0.000    0.000    0.000    0.000    0.000 
#
# Total GULP energy -100979.011837 kJ/mol
# GULP energy per Si atom -5609.945102 kJ/mol
# Density = 2.611282 g / cm^3
# Si number density = 26.172392 Si / 1000 Ang^3
#
#
#
# Elastic Constant Matrix: (Units=GPa)
#
#
# Indices 1 2 3 4 5 6 
#
# 1 76.6640 9.1371 7.7474 -1.6086 2.6383 0.0000
# 2 9.1371 76.6640 7.7474 1.6086 -2.6383 0.0000
# 3 7.7474 7.7474 76.2976 0.0000 0.0000 0.0000
# 4 -1.6086 1.6086 0.0000 35.8820 0.0000 -2.6383
# 5 2.6383 -2.6383 0.0000 0.0000 35.8820 -1.6086
# 6 0.0000 0.0000 0.0000 -2.6383 -1.6086 33.7634
#
#
#
# Elastic Compliance Matrix: (Units=1/GPa)
#
#
# Indices 1 2 3 4 5 6 
#
# 1 0.013400 -0.001527 -0.001206 0.000669 -0.001097 0.000000
# 2 -0.001527 0.013400 -0.001206 -0.000669 0.001097 0.000000
# 3 -0.001206 -0.001206 0.013351 0.000000 0.000000 0.000000
# 4 0.000669 -0.000669 0.000000 0.028091 0.000000 0.002195
# 5 -0.001097 0.001097 0.000000 0.000000 0.028091 0.001338
# 6 0.000000 0.000000 0.000000 0.002195 0.001338 0.029853
#
#
# Mechanical properties :
#
#
# Convention : Reuss Voigt Hill
#
# Bulk Modulus (GPa) = 30.98440 30.98770 30.98605
# Shear Modulus (GPa) = 34.52586 34.77174 34.64880
#
# Velocity S-wave (km/s) = 3.63598 3.64890 3.64245
# Velocity P-wave (km/s) = 5.43060 5.44226 5.43643
#
# Compressibility (1/GPa) = 0.03227431
#
# Stress axis : x y z
#
# Youngs Moduli (GPa) = 74.62930 74.62930 74.89848
#
# Poissons Ratio (x) = 0.11396 0.09029
# Poissons Ratio (y) = 0.11396 0.09029
# Poissons Ratio (z) = 0.08997 0.08997
#
# Static dielectric constant tensor:
#      x y z
#    x 1.995620 0.000000 0.000000 
#    y 0.000000 1.995620 0.000000 
#    z 0.000000 0.000000 2.086020 
# 
# From -- ./inp_files/562.got.cif
#   From: 2010.05.17/outbox.cif.g08.bks.cpg/sg144_cif.got.tgz:562.got - 2010.05.20 13:46:34.
