data_PCOD9574933
_publ_section_title
;
Structure prediction by ZEFSAII (Michael W. Deem and Ramdas Pophale) SiO2 
 PCOD9574933
Probable space group: P -3
;
_chemical_formula_sum "Si O2"
_cell_formula_units_Z 30
_cell_length_a 14.303033
_cell_length_b 14.303033
_cell_length_c 8.542064
_cell_angle_alpha 90.000000
_cell_angle_beta 90.000000
_cell_angle_gamma 120.000000
_cell_volume 1513.386076
_symmetry_space_group_name_H-M "P -3"
_symmetry_group_IT_number 147
_symmetry_cell_setting 'hexagonal'
loop_
_space_group_symop_operation_xyz
x,y,z
-y,x-y,z
-x+y,-x,z
-x,-y,-z
y,-x+y,-z
x-y,x,-z
loop_
_atom_site_type_symbol
_atom_site_label
_atom_site_fract_x
_atom_site_fract_y
_atom_site_fract_z
Si Si1 0.154236 0.469098 0.596525
Si Si2 0.484476 0.139093 0.250968
Si Si3 0.181294 0.407250 0.033879
Si Si4 0.409315 0.895507 0.257833
Si Si5 0.319301 0.342331 0.194439
O O1 0.165445 0.558251 0.725237
O O2 0.259759 0.459098 0.610859
O O3 0.144536 0.518068 0.433760
O O4 0.049074 0.356531 0.646620
O O5 0.414783 0.010960 0.256041
O O6 0.455921 0.179567 0.093773
O O7 0.181195 0.500002 0.137728
O O8 0.204752 0.330527 0.148248
O O9 0.068370 0.349909 0.938767
O O10 0.527593 0.923185 0.205269
#
# Coordination Sequence:
#
# PCOD9574933 Si02
#       5
#     6   6   6   6   6
#     4  10  23  37  63  82 126 157 197 247 295 359
#     4  10  21  39  56  85 120 159 190 244 300 342
#     4  11  22  37  61  81 118 153 204 234 301 354
#     4  11  23  39  59  86 124 153 206 241 296 358
#     4  10  22  41  56  86 116 159 196 249 292 352
#
# _framework density 19.823097000000001
#
# number of rings (size 3 to 8) (size 9 to 14) (size 15 to 20)
#    0.000    1.600    2.000    3.400   11.200    0.000 
#    1.200    0.000    0.000    0.400    0.000    0.000 
#    0.000    5.200    0.000    0.000    0.000    0.000 
#
# Total GULP energy -167320.491308 kJ/mol
# GULP energy per Si atom -5577.349710 kJ/mol
# Density = 1.977798 g / cm^3
# Si number density = 19.823097 Si / 1000 Ang^3
#
#
#
# Elastic Constant Matrix: (Units=GPa)
#
#
# Indices 1 2 3 4 5 6 
#
# 1 61.8496 11.6211 20.9026 -3.8164 2.7627 0.0000
# 2 11.6211 61.8496 20.9026 3.8164 -2.7627 0.0000
# 3 20.9026 20.9026 59.2874 0.0000 0.0000 0.0000
# 4 -3.8164 3.8164 0.0000 24.8214 0.0000 -2.7627
# 5 2.7627 -2.7627 0.0000 0.0000 24.8214 -3.8164
# 6 0.0000 0.0000 0.0000 -2.7627 -3.8164 25.1142
#
#
#
# Elastic Compliance Matrix: (Units=1/GPa)
#
#
# Indices 1 2 3 4 5 6 
#
# 1 0.018835 -0.001809 -0.006003 0.003174 -0.002298 0.000000
# 2 -0.001809 0.018835 -0.006003 -0.003174 0.002298 0.000000
# 3 -0.006003 -0.006003 0.021100 0.000000 0.000000 0.000000
# 4 0.003174 -0.003174 0.000000 0.041775 0.000000 0.004595
# 5 -0.002298 0.002298 0.000000 0.000000 0.041775 0.006348
# 6 0.000000 0.000000 0.000000 0.004595 0.006348 0.041288
#
#
# Mechanical properties :
#
#
# Convention : Reuss Voigt Hill
#
# Bulk Modulus (GPa) = 32.11182 32.20434 32.15808
# Shear Modulus (GPa) = 22.56122 23.58877 23.07499
#
# Velocity S-wave (km/s) = 3.37727 3.45333 3.41551
# Velocity P-wave (km/s) = 5.60735 5.67290 5.64022
#
# Compressibility (1/GPa) = 0.03114118
#
# Stress axis : x y z
#
# Youngs Moduli (GPa) = 53.09166 53.09166 47.39373
#
# Poissons Ratio (x) = 0.09603 0.28450
# Poissons Ratio (y) = 0.09603 0.28450
# Poissons Ratio (z) = 0.31871 0.31871
#
# Static dielectric constant tensor:
#      x y z
#    x 1.715560 0.000000 0.000000 
#    y 0.000000 1.715560 0.000000 
#    z 0.000000 0.000000 1.772650 
# 
# From -- ./inp_files/504.got.cif
#   From: 2010.05.17/outbox.cif.g08.bks.cpg/sg147_cif.got.tgz:504.got - 2010.05.20 13:49:32.
