data_PCOD9574793
_publ_section_title
;
Structure prediction by ZEFSAII (Michael W. Deem and Ramdas Pophale) SiO2 
 PCOD9574793
Probable space group: R 3
;
_chemical_formula_sum "Si O2"
_cell_formula_units_Z 60
_cell_length_a 13.068762
_cell_length_b 13.068762
_cell_length_c 15.644276
_cell_angle_alpha 90.000000
_cell_angle_beta 90.000000
_cell_angle_gamma 120.000000
_cell_volume 2313.955479
_symmetry_space_group_name_H-M "R 3"
_symmetry_group_IT_number 146
_symmetry_cell_setting 'hexagonal'
loop_
_space_group_symop_operation_xyz
x,y,z
-y,x-y,z
-x+y,-x,z
2/3+x,1/3+y,1/3+z
2/3-y,1/3+x-y,1/3+z
2/3-x+y,1/3-x,1/3+z
1/3+x,2/3+y,2/3+z
1/3-y,2/3+x-y,2/3+z
1/3-x+y,2/3-x,2/3+z
loop_
_atom_site_type_symbol
_atom_site_label
_atom_site_fract_x
_atom_site_fract_y
_atom_site_fract_z
Si Si1 0.666667 0.333335 0.053527
Si Si2 0.077245 0.927155 0.364157
Si Si3 0.451649 0.162266 0.511830
Si Si4 0.987925 0.529460 0.405908
Si Si5 0.333334 0.666667 0.590713
Si Si6 0.425204 0.504735 0.669136
Si Si7 0.564010 0.083016 0.101830
Si Si8 0.058453 0.356209 0.590209
O O1 0.666668 0.333334 0.156718
O O2 0.597704 0.192672 0.036151
O O3 0.091328 0.931598 0.261478
O O4 0.135954 0.853719 0.401182
O O5 0.938228 0.872156 0.388513
O O6 0.523078 0.103172 0.466348
O O7 0.429332 0.228626 0.435930
O O8 0.323263 0.057815 0.541462
O O9 0.959821 0.610841 0.340301
O O10 0.017787 0.455885 0.336877
O O11 0.085793 0.635752 0.461897
O O12 0.365683 0.574957 0.630135
O O13 0.552760 0.571028 0.627340
O O14 0.491472 0.085489 0.184624
#
# Coordination Sequence:
#
# PCOD9574793 Si02
#       8
#     3   9   9   9   3   9   9   9
#     4  12  24  45  81 114 165 214 263 334 405 483
#     4  10  27  49  78 110 157 209 264 325 402 472
#     4  11  24  41  74 106 148 194 261 328 387 452
#     4  11  26  42  71 113 147 199 259 325 405 463
#     4  12  18  42  69 114 141 184 257 358 387 441
#     4  11  22  40  71 106 140 187 259 330 390 445
#     4  12  27  47  77 112 166 208 262 325 402 486
#     4  11  26  42  71 107 150 197 263 325 386 462
#
# _framework density 25.929625999999999
#
# number of rings (size 3 to 8) (size 9 to 14) (size 15 to 20)
#    0.300    0.600    4.500    1.800   10.500    1.200 
#    0.000    0.000    0.000    0.000    0.000    0.000 
#    1.500    0.000    0.000    0.000    0.000    0.000 
#
# Total GULP energy -111562.814005 kJ/mol
# GULP energy per Si atom -5578.140700 kJ/mol
# Density = 2.587061 g / cm^3
# Si number density = 25.929626 Si / 1000 Ang^3
#
#
#
# Elastic Constant Matrix: (Units=GPa)
#
#
# Indices 1 2 3 4 5 6 
#
# 1 97.8888 17.8658 10.0086 -5.9345 1.7488 0.0002
# 2 17.8658 97.8882 10.0084 5.9348 -1.7487 0.0003
# 3 10.0086 10.0084 69.4947 0.0001 0.0000 0.0006
# 4 -5.9345 5.9348 0.0001 38.0952 0.0001 -1.7485
# 5 1.7488 -1.7487 0.0000 0.0001 38.0951 -5.9347
# 6 0.0002 0.0003 0.0006 -1.7485 -5.9347 40.0115
#
#
#
# Elastic Compliance Matrix: (Units=1/GPa)
#
#
# Indices 1 2 3 4 5 6 
#
# 1 0.010839 -0.001979 -0.001276 0.001997 -0.000588 0.000000
# 2 -0.001979 0.010839 -0.001276 -0.001997 0.000588 0.000000
# 3 -0.001276 -0.001276 0.014757 0.000000 0.000000 0.000000
# 4 0.001997 -0.001997 0.000000 0.026926 0.000000 0.001177
# 5 -0.000588 0.000588 0.000000 0.000000 0.026926 0.003994
# 6 0.000000 0.000000 0.000000 0.001177 0.003994 0.025637
#
#
# Mechanical properties :
#
#
# Convention : Reuss Voigt Hill
#
# Bulk Modulus (GPa) = 36.53291 37.89304 37.21297
# Shear Modulus (GPa) = 37.28257 38.39962 37.84109
#
# Velocity S-wave (km/s) = 3.79600 3.85244 3.82432
# Velocity P-wave (km/s) = 5.77344 5.86804 5.82093
#
# Compressibility (1/GPa) = 0.02737258
#
# Stress axis : x y z
#
# Youngs Moduli (GPa) = 92.25977 92.25911 67.76394
#
# Poissons Ratio (x) = 0.18261 0.08646
# Poissons Ratio (y) = 0.18262 0.08646
# Poissons Ratio (z) = 0.11772 0.11772
#
# Static dielectric constant tensor:
#      x y z
#    x 2.152410 0.000000 0.000000 
#    y 0.000000 2.152410 0.000000 
#    z 0.000000 0.000000 2.069270 
# 
# From -- ./inp_files/1552.got.cif
#   From: 2010.05.17/outbox.cif.g08.bks.cpg/sg146_cif.got.tgz:1552.got - 2010.05.20 13:48:23.
