data_PCOD9574203
_publ_section_title
;
Structure prediction by ZEFSAII (Michael W. Deem and Ramdas Pophale) SiO2 
 PCOD9574203
Probable space group: I 41/A C D
;
_chemical_formula_sum "Si O2"
_cell_formula_units_Z 112
_cell_length_a 28.981759
_cell_length_b 28.981759
_cell_length_c 5.812310
_cell_angle_alpha 90.000000
_cell_angle_beta 90.000000
_cell_angle_gamma 90.000000
_cell_volume 4882.005348
_symmetry_space_group_name_H-M "I 41/A C D"
_symmetry_group_IT_number 142
_space_group.IT_coordinate_system_code '2'
_symmetry_cell_setting 'tetragonal'
loop_
_space_group_symop_operation_xyz
x,y,z
1/4-y,3/4+x,1/4+z
-x,1/2-y,z
1/4+y,1/4-x,3/4+z
x,-y,1/2-z
1/2-x,y,-z
3/4+y,1/4+x,1/4-z
1/4-y,1/4-x,1/4-z
-x,-y,-z
3/4+y,1/4-x,3/4-z
x,1/2+y,-z
3/4-y,3/4+x,1/4-z
-x,y,1/2+z
1/2+x,-y,z
1/4-y,3/4-x,3/4+z
3/4+y,3/4+x,3/4+z
1/2+x,1/2+y,1/2+z
3/4-y,1/4+x,3/4+z
1/2-x,-y,1/2+z
3/4+y,3/4-x,1/4+z
1/2+x,1/2-y,-z
-x,1/2+y,1/2-z
1/4+y,3/4+x,3/4-z
3/4-y,3/4-x,3/4-z
1/2-x,1/2-y,1/2-z
1/4+y,3/4-x,1/4-z
1/2+x,y,1/2-z
1/4-y,1/4+x,3/4-z
1/2-x,1/2+y,z
x,1/2-y,1/2+z
3/4-y,1/4-x,1/4+z
1/4+y,1/4+x,1/4+z
loop_
_atom_site_type_symbol
_atom_site_label
_atom_site_fract_x
_atom_site_fract_y
_atom_site_fract_z
Si Si1 0.607588 0.357588 0.875000
Si Si2 0.976619 0.401732 0.907757
Si Si3 0.750000 0.201890 0.000000
Si Si4 0.296973 0.640376 0.864553
Si Si5 0.202274 0.952274 0.875000
O O1 0.617159 0.317653 0.685773
O O2 0.599229 0.405890 0.741464
O O3 0.975188 0.459397 0.906595
O O4 0.997197 0.391901 0.652151
O O5 0.714338 0.168801 0.862490
O O6 0.301918 0.587009 0.810680
O O7 0.250000 0.647942 0.000000
O O8 0.197640 0.000000 0.750000
#
# Coordination Sequence:
#
# PCOD9574203 Si02
#       5
#    16  32  16  32  16
#     4  12  26  49  78 107 158 200 249 324 388 466
#     4  12  28  49  79 115 153 201 259 319 391 464
#     4  12  24  46  72 108 154 194 256 320 392 472
#     4  12  23  43  65 104 143 201 255 302 383 463
#     4  12  22  35  52  86 140 198 263 309 346 427
#
# _framework density 22.941390999999999
#
# number of rings (size 3 to 8) (size 9 to 14) (size 15 to 20)
#    0.000    0.000    4.286    6.857    0.000    3.429 
#    0.000    0.000    0.000    2.571    0.000    0.000 
#    0.000    0.000    0.000    0.000    0.000    0.000 
#
# Total GULP energy -311972.901437 kJ/mol
# GULP energy per Si atom -5570.944669 kJ/mol
# Density = 2.288918 g / cm^3
# Si number density = 22.941391 Si / 1000 Ang^3
#
#
#
# Elastic Constant Matrix: (Units=GPa)
#
#
# Indices 1 2 3 4 5 6 
#
# 1 110.3132 0.0600 42.3989 0.0000 0.0000 0.0000
# 2 0.0600 110.3132 42.3989 0.0000 0.0000 0.0000
# 3 42.3989 42.3989 128.8857 0.0000 0.0000 0.0000
# 4 0.0000 0.0000 0.0000 51.8107 0.0000 0.0000
# 5 0.0000 0.0000 0.0000 0.0000 51.8107 0.0000
# 6 0.0000 0.0000 0.0000 0.0000 0.0000 21.7566
#
#
#
# Elastic Compliance Matrix: (Units=1/GPa)
#
#
# Indices 1 2 3 4 5 6 
#
# 1 0.010597 0.001527 -0.003989 0.000000 0.000000 0.000000
# 2 0.001527 0.010597 -0.003989 0.000000 0.000000 0.000000
# 3 -0.003989 -0.003989 0.010383 0.000000 0.000000 0.000000
# 4 0.000000 0.000000 0.000000 0.019301 0.000000 0.000000
# 5 0.000000 0.000000 0.000000 0.000000 0.019301 0.000000
# 6 0.000000 0.000000 0.000000 0.000000 0.000000 0.045963
#
#
# Mechanical properties :
#
#
# Convention : Reuss Voigt Hill
#
# Bulk Modulus (GPa) = 53.53941 57.69198 55.61570
# Shear Modulus (GPa) = 36.96356 42.71921 39.84139
#
# Velocity S-wave (km/s) = 4.01835 4.31989 4.17185
# Velocity P-wave (km/s) = 6.70206 7.07701 6.89209
#
# Compressibility (1/GPa) = 0.01867783
#
# Stress axis : x y z
#
# Youngs Moduli (GPa) = 94.36401 94.36401 96.31131
#
# Poissons Ratio (x) = -0.14412 0.38414
# Poissons Ratio (y) = -0.14412 0.38414
# Poissons Ratio (z) = 0.37637 0.37637
#
# Static dielectric constant tensor:
#      x y z
#    x 1.924190 0.000000 0.000000 
#    y 0.000000 1.924190 0.000000 
#    z 0.000000 0.000000 2.060830 
# 
# From -- ./inp_files/747.got.cif
#   From: 2010.05.17/outbox.cif.g08.bks.cpg/sg142_1_cif.got.tgz:747.got - 2010.05.20 13:39:18.
