data_PCOD9574835
_publ_section_title
;
Structure prediction by ZEFSAII (Michael W. Deem and Ramdas Pophale) SiO2 
 PCOD9574835
Probable space group: R 3
;
_chemical_formula_sum "Si O2"
_cell_formula_units_Z 24
_cell_length_a 12.549122
_cell_length_b 12.549122
_cell_length_c 6.888223
_cell_angle_alpha 90.000000
_cell_angle_beta 90.000000
_cell_angle_gamma 120.000000
_cell_volume 939.430191
_symmetry_space_group_name_H-M "R 3"
_symmetry_group_IT_number 146
_symmetry_cell_setting 'hexagonal'
loop_
_space_group_symop_operation_xyz
x,y,z
-y,x-y,z
-x+y,-x,z
2/3+x,1/3+y,1/3+z
2/3-y,1/3+x-y,1/3+z
2/3-x+y,1/3-x,1/3+z
1/3+x,2/3+y,2/3+z
1/3-y,2/3+x-y,2/3+z
1/3-x+y,2/3-x,2/3+z
loop_
_atom_site_type_symbol
_atom_site_label
_atom_site_fract_x
_atom_site_fract_y
_atom_site_fract_z
Si Si1 0.666666 0.333333 0.988066
Si Si2 0.333335 0.666668 0.852476
Si Si3 0.372834 0.442451 0.799139
Si Si4 0.263712 0.039494 0.708077
O O1 0.666668 0.333334 0.753604
O O2 0.789135 0.334683 0.052969
O O3 0.334696 0.545554 0.787575
O O4 0.389743 0.393776 0.594152
O O5 0.500003 0.499999 0.920275
O O6 0.276928 0.939554 0.579734
#
# Coordination Sequence:
#
# PCOD9574835 Si02
#       4
#     3   3   9   9
#     4  12  24  51  72 109 153 183 244 309 348 436
#     4  12  24  51  72 109 153 183 244 309 348 436
#     4  12  26  49  77 106 148 194 241 300 364 428
#     4  12  26  49  77 106 148 194 241 300 364 428
#
# _framework density 25.547402999999999
#
# number of rings (size 3 to 8) (size 9 to 14) (size 15 to 20)
#    0.000    0.000    7.500    0.000    0.000   12.000 
#    0.000   11.250    0.000    0.000    0.000    0.000 
#    0.000    0.000    0.000    0.000    0.000    0.000 
#
# Total GULP energy -45052.892524 kJ/mol
# GULP energy per Si atom -5631.611565 kJ/mol
# Density = 2.548926 g / cm^3
# Si number density = 25.547403 Si / 1000 Ang^3
#
#
#
# Elastic Constant Matrix: (Units=GPa)
#
#
# Indices 1 2 3 4 5 6 
#
# 1 221.5309 104.4008 85.4188 9.1721 11.7612 0.0007
# 2 104.4008 221.5326 85.4202 -9.1724 -11.7619 0.0017
# 3 85.4188 85.4202 144.1484 0.0007 0.0005 -0.0003
# 4 9.1721 -9.1724 0.0007 46.7237 0.0001 -11.7618
# 5 11.7612 -11.7619 0.0005 0.0001 46.7241 9.1723
# 6 0.0007 0.0017 -0.0003 -11.7618 9.1723 58.5663
#
#
#
# Elastic Compliance Matrix: (Units=1/GPa)
#
#
# Indices 1 2 3 4 5 6 
#
# 1 0.006872 -0.002421 -0.002637 -0.001824 -0.002339 0.000000
# 2 -0.002421 0.006872 -0.002637 0.001824 0.002339 0.000000
# 3 -0.002637 -0.002637 0.010063 0.000000 0.000000 0.000000
# 4 -0.001824 0.001824 0.000000 0.023296 0.000000 0.004679
# 5 -0.002339 0.002339 0.000000 0.000000 0.023296 -0.003649
# 6 0.000000 0.000000 0.000000 0.004679 -0.003649 0.018586
#
#
# Mechanical properties :
#
#
# Convention : Reuss Voigt Hill
#
# Bulk Modulus (GPa) = 118.83880 126.41018 122.62449
# Shear Modulus (GPa) = 46.65009 51.20094 48.92551
#
# Velocity S-wave (km/s) = 4.27783 4.48164 4.38092
# Velocity P-wave (km/s) = 8.42720 8.73889 8.58446
#
# Compressibility (1/GPa) = 0.00841476
#
# Stress axis : x y z
#
# Youngs Moduli (GPa) = 145.52491 145.52408 99.37534
#
# Poissons Ratio (x) = 0.35235 0.26207
# Poissons Ratio (y) = 0.35235 0.26208
# Poissons Ratio (z) = 0.38377 0.38379
#
# Static dielectric constant tensor:
#      x y z
#    x 1.956190 0.000000 0.000000 
#    y 0.000000 1.956180 0.000000 
#    z 0.000000 0.000000 1.971550 
# 
# From -- ./inp_files/480.got.cif
#   From: 2010.05.17/outbox.cif.g08.bks.cpg/sg146_cif.got.tgz:480.got - 2010.05.20 13:48:23.
