data_PCOD9574986
_publ_section_title
;
Structure prediction by ZEFSAII (Michael W. Deem and Ramdas Pophale) SiO2 
 PCOD9574986
Probable space group: P -3
;
_chemical_formula_sum "Si O2"
_cell_formula_units_Z 18
_cell_length_a 8.669338
_cell_length_b 8.669338
_cell_length_c 11.689270
_cell_angle_alpha 90.000000
_cell_angle_beta 90.000000
_cell_angle_gamma 120.000000
_cell_volume 760.833967
_symmetry_space_group_name_H-M "P -3"
_symmetry_group_IT_number 147
_symmetry_cell_setting 'hexagonal'
loop_
_space_group_symop_operation_xyz
x,y,z
-y,x-y,z
-x+y,-x,z
-x,-y,-z
y,-x+y,-z
x-y,x,-z
loop_
_atom_site_type_symbol
_atom_site_label
_atom_site_fract_x
_atom_site_fract_y
_atom_site_fract_z
Si Si1 0.015485 0.335496 0.048239
Si Si2 0.312770 0.986482 0.309165
Si Si3 0.634488 0.006789 0.395471
O O1 0.061351 0.312714 0.179129
O O2 0.163392 0.334955 0.970206
O O3 0.000000 0.500000 0.000000
O O4 0.510309 0.014880 0.297559
O O5 0.175600 0.815808 0.385166
O O6 0.329455 0.164806 0.366796
O O7 0.500000 0.000000 0.500000
#
# Coordination Sequence:
#
# PCOD9574986 Si02
#       3
#     6   6   6
#     4  12  25  44  72 109 152 199 246 301 368 444
#     4  12  25  48  73 109 151 197 248 307 369 444
#     4  12  27  48  77 108 146 196 250 310 376 442
#
# _framework density 23.658246999999999
#
# number of rings (size 3 to 8) (size 9 to 14) (size 15 to 20)
#    0.000    0.000    0.000   11.000    0.000    0.000 
#    0.000    3.333    0.000    0.000    0.000    0.000 
#    0.000    0.000    0.000    0.000    0.000    0.000 
#
# Total GULP energy -100315.974624 kJ/mol
# GULP energy per Si atom -5573.109701 kJ/mol
# Density = 2.360440 g / cm^3
# Si number density = 23.658247 Si / 1000 Ang^3
#
#
#
# Elastic Constant Matrix: (Units=GPa)
#
#
# Indices 1 2 3 4 5 6 
#
# 1 156.7548 48.6414 -8.3720 6.6632 7.6034 0.0000
# 2 48.6414 156.7548 -8.3720 -6.6632 -7.6034 0.0000
# 3 -8.3720 -8.3720 103.3909 0.0000 0.0000 0.0000
# 4 6.6632 -6.6632 0.0000 31.1033 0.0000 -7.6034
# 5 7.6034 -7.6034 0.0000 0.0000 31.1033 6.6632
# 6 0.0000 0.0000 0.0000 -7.6034 6.6632 54.0567
#
#
#
# Elastic Compliance Matrix: (Units=1/GPa)
#
#
# Indices 1 2 3 4 5 6 
#
# 1 0.007375 -0.002474 0.000397 -0.002110 -0.002407 0.000000
# 2 -0.002474 0.007375 0.000397 0.002110 0.002407 0.000000
# 3 0.000397 0.000397 0.009736 0.000000 0.000000 0.000000
# 4 -0.002110 0.002110 0.000000 0.034232 0.000000 0.004815
# 5 -0.002407 0.002407 0.000000 0.000000 0.034232 -0.004220
# 6 0.000000 0.000000 0.000000 0.004815 -0.004220 0.019696
#
#
# Mechanical properties :
#
#
# Convention : Reuss Voigt Hill
#
# Bulk Modulus (GPa) = 47.33568 53.41057 50.37313
# Shear Modulus (GPa) = 40.63469 48.91953 44.77711
#
# Velocity S-wave (km/s) = 4.14885 4.55219 4.35520
# Velocity P-wave (km/s) = 6.55761 7.08907 6.82851
#
# Compressibility (1/GPa) = 0.02112571
#
# Stress axis : x y z
#
# Youngs Moduli (GPa) = 135.60027 135.60027 102.70837
#
# Poissons Ratio (x) = 0.33542 -0.04076
# Poissons Ratio (y) = 0.33542 -0.04076
# Poissons Ratio (z) = -0.05381 -0.05381
#
# Static dielectric constant tensor:
#      x y z
#    x 1.880540 0.000000 0.000000 
#    y 0.000000 1.880540 0.000000 
#    z 0.000000 0.000000 2.115860 
# 
# From -- ./inp_files/753.got.cif
#   From: 2010.05.17/outbox.cif.g08.bks.cpg/sg147_cif.got.tgz:753.got - 2010.05.20 13:49:32.
