data_PCOD9574188
_publ_section_title
;
Structure prediction by ZEFSAII (Michael W. Deem and Ramdas Pophale) SiO2 
 PCOD9574188
Probable space group: I 41/A C D
;
_chemical_formula_sum "Si O2"
_cell_formula_units_Z 136
_cell_length_a 22.519193
_cell_length_b 22.519193
_cell_length_c 10.539471
_cell_angle_alpha 90.000000
_cell_angle_beta 90.000000
_cell_angle_gamma 90.000000
_cell_volume 5344.713859
_symmetry_space_group_name_H-M "I 41/A C D"
_symmetry_group_IT_number 142
_space_group.IT_coordinate_system_code '2'
_symmetry_cell_setting 'tetragonal'
loop_
_space_group_symop_operation_xyz
x,y,z
1/4-y,3/4+x,1/4+z
-x,1/2-y,z
1/4+y,1/4-x,3/4+z
x,-y,1/2-z
1/2-x,y,-z
3/4+y,1/4+x,1/4-z
1/4-y,1/4-x,1/4-z
-x,-y,-z
3/4+y,1/4-x,3/4-z
x,1/2+y,-z
3/4-y,3/4+x,1/4-z
-x,y,1/2+z
1/2+x,-y,z
1/4-y,3/4-x,3/4+z
3/4+y,3/4+x,3/4+z
1/2+x,1/2+y,1/2+z
3/4-y,1/4+x,3/4+z
1/2-x,-y,1/2+z
3/4+y,3/4-x,1/4+z
1/2+x,1/2-y,-z
-x,1/2+y,1/2-z
1/4+y,3/4+x,3/4-z
3/4-y,3/4-x,3/4-z
1/2-x,1/2-y,1/2-z
1/4+y,3/4-x,1/4-z
1/2+x,y,1/2-z
1/4-y,1/4+x,3/4-z
1/2-x,1/2+y,z
x,1/2-y,1/2+z
3/4-y,1/4-x,1/4+z
1/4+y,1/4+x,1/4+z
loop_
_atom_site_type_symbol
_atom_site_label
_atom_site_fract_x
_atom_site_fract_y
_atom_site_fract_z
Si Si1 0.318003 0.353123 0.743646
Si Si2 0.500000 0.750000 0.125000
Si Si3 0.181878 0.664240 0.522887
Si Si4 0.297783 0.351694 0.382138
Si Si5 0.010093 0.123501 0.989318
O O1 0.344118 0.416901 0.709699
O O2 0.340021 0.328863 0.879057
O O3 0.247862 0.354829 0.735767
O O4 0.345205 0.298019 0.669238
O O5 0.559363 0.751982 0.212819
O O6 0.250000 0.681017 0.500000
O O7 0.139503 0.693960 0.624590
O O8 0.250000 0.351938 0.500000
O O9 0.343247 0.406754 0.375000
O O10 0.335734 0.292580 0.353236
#
# Coordination Sequence:
#
# PCOD9574188 Si02
#       5
#    32   8  32  32  32
#     4  11  27  46  77 117 157 215 273 343 415 507
#     4  12  28  52  86 118 176 216 290 360 422 528
#     4  11  25  48  76 113 162 208 276 338 421 501
#     4  12  27  49  82 120 164 216 275 342 425 509
#     4  12  27  51  78 119 161 224 274 349 427 497
#
# _framework density 25.445701
#
# number of rings (size 3 to 8) (size 9 to 14) (size 15 to 20)
#    0.000    0.471    3.529    3.529    3.294    2.824 
#    0.000    1.176    0.000    0.000    0.000    0.000 
#    0.000    0.000    0.000    0.000    0.000    0.000 
#
# Total GULP energy -378839.942192 kJ/mol
# GULP energy per Si atom -5571.175620 kJ/mol
# Density = 2.538779 g / cm^3
# Si number density = 25.445701 Si / 1000 Ang^3
#
#
#
# Elastic Constant Matrix: (Units=GPa)
#
#
# Indices 1 2 3 4 5 6 
#
# 1 167.6447 60.7367 17.0274 0.0000 0.0000 0.0000
# 2 60.7367 167.6478 17.0295 0.0000 0.0000 0.0000
# 3 17.0274 17.0295 108.1852 0.0000 0.0000 0.0000
# 4 0.0000 0.0000 0.0000 29.2057 0.0000 0.0000
# 5 0.0000 0.0000 0.0000 0.0000 29.2055 0.0000
# 6 0.0000 0.0000 0.0000 0.0000 0.0000 45.2392
#
#
#
# Elastic Compliance Matrix: (Units=1/GPa)
#
#
# Indices 1 2 3 4 5 6 
#
# 1 0.006919 -0.002435 -0.000706 0.000000 0.000000 0.000000
# 2 -0.002435 0.006919 -0.000706 0.000000 0.000000 0.000000
# 3 -0.000706 -0.000706 0.009466 0.000000 0.000000 0.000000
# 4 0.000000 0.000000 0.000000 0.034240 0.000000 0.000000
# 5 0.000000 0.000000 0.000000 0.000000 0.034240 0.000000
# 6 0.000000 0.000000 0.000000 0.000000 0.000000 0.022105
#
#
# Mechanical properties :
#
#
# Convention : Reuss Voigt Hill
#
# Bulk Modulus (GPa) = 64.06051 70.34055 67.20053
# Shear Modulus (GPa) = 39.43708 43.97569 41.70638
#
# Velocity S-wave (km/s) = 3.94109 4.16169 4.05289
# Velocity P-wave (km/s) = 6.77788 7.12715 6.95471
#
# Compressibility (1/GPa) = 0.01561024
#
# Stress axis : x y z
#
# Youngs Moduli (GPa) = 144.53317 144.53533 105.64592
#
# Poissons Ratio (x) = 0.35193 0.07455
# Poissons Ratio (y) = 0.35193 0.07457
# Poissons Ratio (z) = 0.10199 0.10202
#
# Static dielectric constant tensor:
#      x y z
#    x 2.162710 0.000000 0.000000 
#    y 0.000000 2.162710 0.000000 
#    z 0.000000 0.000000 2.349760 
# 
# From -- ./inp_files/3607.got.cif
#   From: 2010.05.17/outbox.cif.g08.bks.cpg/sg142_2_cif.got.tgz:3607.got - 2010.05.20 13:39:18.
