data_PCOD9574119
_publ_section_title
;
Structure prediction by ZEFSAII (Michael W. Deem and Ramdas Pophale) SiO2 
 PCOD9574119
Probable space group: I 41/A C D
;
_chemical_formula_sum "Si O2"
_cell_formula_units_Z 136
_cell_length_a 15.752305
_cell_length_b 15.752305
_cell_length_c 21.007369
_cell_angle_alpha 90.000000
_cell_angle_beta 90.000000
_cell_angle_gamma 90.000000
_cell_volume 5212.665877
_symmetry_space_group_name_H-M "I 41/A C D"
_symmetry_group_IT_number 142
_space_group.IT_coordinate_system_code '2'
_symmetry_cell_setting 'tetragonal'
loop_
_space_group_symop_operation_xyz
x,y,z
1/4-y,3/4+x,1/4+z
-x,1/2-y,z
1/4+y,1/4-x,3/4+z
x,-y,1/2-z
1/2-x,y,-z
3/4+y,1/4+x,1/4-z
1/4-y,1/4-x,1/4-z
-x,-y,-z
3/4+y,1/4-x,3/4-z
x,1/2+y,-z
3/4-y,3/4+x,1/4-z
-x,y,1/2+z
1/2+x,-y,z
1/4-y,3/4-x,3/4+z
3/4+y,3/4+x,3/4+z
1/2+x,1/2+y,1/2+z
3/4-y,1/4+x,3/4+z
1/2-x,-y,1/2+z
3/4+y,3/4-x,1/4+z
1/2+x,1/2-y,-z
-x,1/2+y,1/2-z
1/4+y,3/4+x,3/4-z
3/4-y,3/4-x,3/4-z
1/2-x,1/2-y,1/2-z
1/4+y,3/4-x,1/4-z
1/2+x,y,1/2-z
1/4-y,1/4+x,3/4-z
1/2-x,1/2+y,z
x,1/2-y,1/2+z
3/4-y,1/4-x,1/4+z
1/4+y,1/4+x,1/4+z
loop_
_atom_site_type_symbol
_atom_site_label
_atom_site_fract_x
_atom_site_fract_y
_atom_site_fract_z
Si Si1 0.500000 0.750000 0.125000
Si Si2 0.250000 0.541697 0.000000
Si Si3 0.289257 0.768482 0.066578
Si Si4 0.984952 0.615163 0.105797
Si Si5 0.074566 0.358627 0.526778
Si Si6 0.305215 0.944786 0.125000
O O1 0.509316 0.839047 0.084318
O O2 0.161788 0.587753 0.977984
O O3 0.275541 0.491306 0.937836
O O4 0.220517 0.709252 0.105757
O O5 0.376901 0.731308 0.038195
O O6 0.289933 0.847206 0.112599
O O7 0.250000 0.797007 0.000000
O O8 0.065824 0.659583 0.140614
O O9 0.018500 0.612615 0.033286
#
# Coordination Sequence:
#
# PCOD9574119 Si02
#       6
#     8  16  32  32  32  16
#     4  12  28  48  70 108 152 200 260 318 388 448
#     4  12  24  46  72 108 148 200 250 318 396 456
#     4  12  24  45  72 105 148 195 254 312 380 460
#     4  11  22  42  74 107 141 199 254 306 383 453
#     4  12  25  46  72 102 152 194 250 321 371 457
#     4  12  26  44  72 106 150 196 254 316 386 468
#
# _framework density 26.090297
#
# number of rings (size 3 to 8) (size 9 to 14) (size 15 to 20)
#    0.000    0.235    7.059    2.824    0.000    0.000 
#    0.000    1.176    0.000    0.000    0.000    0.000 
#    0.000    0.000    0.000    0.000    0.000    0.000 
#
# Total GULP energy -379020.005558 kJ/mol
# GULP energy per Si atom -5573.823611 kJ/mol
# Density = 2.603091 g / cm^3
# Si number density = 26.090297 Si / 1000 Ang^3
#
#
#
# Elastic Constant Matrix: (Units=GPa)
#
#
# Indices 1 2 3 4 5 6 
#
# 1 31.8149 -4.2203 17.6808 0.0000 0.0000 0.0000
# 2 -4.2203 31.8123 17.6813 0.0000 0.0000 0.0000
# 3 17.6808 17.6813 179.5505 0.0000 0.0000 0.0000
# 4 0.0000 0.0000 0.0000 38.1248 0.0000 0.0000
# 5 0.0000 0.0000 0.0000 0.0000 38.1247 0.0000
# 6 0.0000 0.0000 0.0000 0.0000 0.0000 19.1692
#
#
#
# Elastic Compliance Matrix: (Units=1/GPa)
#
#
# Indices 1 2 3 4 5 6 
#
# 1 0.034612 0.006862 -0.004084 0.000000 0.000000 0.000000
# 2 0.006862 0.034615 -0.004084 0.000000 0.000000 0.000000
# 3 -0.004084 -0.004084 0.006374 0.000000 0.000000 0.000000
# 4 0.000000 0.000000 0.000000 0.026230 0.000000 0.000000
# 5 0.000000 0.000000 0.000000 0.000000 0.026230 0.000000
# 6 0.000000 0.000000 0.000000 0.000000 0.000000 0.052167
#
#
# Mechanical properties :
#
#
# Convention : Reuss Voigt Hill
#
# Bulk Modulus (GPa) = 13.70116 33.94013 23.82065
# Shear Modulus (GPa) = 24.13487 33.21946 28.67717
#
# Velocity S-wave (km/s) = 3.04477 3.57213 3.31894
# Velocity P-wave (km/s) = 4.19805 5.48183 4.88232
#
# Compressibility (1/GPa) = 0.07298654
#
# Stress axis : x y z
#
# Youngs Moduli (GPa) = 28.89201 28.88945 156.89158
#
# Poissons Ratio (x) = -0.19823 0.64074
# Poissons Ratio (y) = -0.19824 0.64080
# Poissons Ratio (z) = 0.11799 0.11799
#
# Static dielectric constant tensor:
#      x y z
#    x 2.171890 0.000000 0.000000 
#    y 0.000000 2.171890 0.000000 
#    z 0.000000 0.000000 2.304020 
# 
# From -- ./inp_files/8847.got.cif
#   From: 2010.05.17/outbox.cif.g08.bks.cpg/sg142_5_cif.got.tgz:8847.got - 2010.05.20 13:39:18.
