data_PCOD9574206
_publ_section_title
;
Structure prediction by ZEFSAII (Michael W. Deem and Ramdas Pophale) SiO2 
 PCOD9574206
Probable space group: I 41/A C D
;
_chemical_formula_sum "Si O2"
_cell_formula_units_Z 64
_cell_length_a 21.876285
_cell_length_b 21.876285
_cell_length_c 5.197784
_cell_angle_alpha 90.000000
_cell_angle_beta 90.000000
_cell_angle_gamma 90.000000
_cell_volume 2487.513081
_symmetry_space_group_name_H-M "I 41/A C D"
_symmetry_group_IT_number 142
_space_group.IT_coordinate_system_code '2'
_symmetry_cell_setting 'tetragonal'
loop_
_space_group_symop_operation_xyz
x,y,z
1/4-y,3/4+x,1/4+z
-x,1/2-y,z
1/4+y,1/4-x,3/4+z
x,-y,1/2-z
1/2-x,y,-z
3/4+y,1/4+x,1/4-z
1/4-y,1/4-x,1/4-z
-x,-y,-z
3/4+y,1/4-x,3/4-z
x,1/2+y,-z
3/4-y,3/4+x,1/4-z
-x,y,1/2+z
1/2+x,-y,z
1/4-y,3/4-x,3/4+z
3/4+y,3/4+x,3/4+z
1/2+x,1/2+y,1/2+z
3/4-y,1/4+x,3/4+z
1/2-x,-y,1/2+z
3/4+y,3/4-x,1/4+z
1/2+x,1/2-y,-z
-x,1/2+y,1/2-z
1/4+y,3/4+x,3/4-z
3/4-y,3/4-x,3/4-z
1/2-x,1/2-y,1/2-z
1/4+y,3/4-x,1/4-z
1/2+x,y,1/2-z
1/4-y,1/4+x,3/4-z
1/2-x,1/2+y,z
x,1/2-y,1/2+z
3/4-y,1/4-x,1/4+z
1/4+y,1/4+x,1/4+z
loop_
_atom_site_type_symbol
_atom_site_label
_atom_site_fract_x
_atom_site_fract_y
_atom_site_fract_z
Si Si1 0.684579 0.565422 0.625000
Si Si2 0.962423 0.113533 0.033101
Si Si3 0.250000 0.847208 0.000000
O O1 0.680550 0.500000 0.750000
O O2 0.696707 0.614979 0.847819
O O3 0.911658 0.161658 0.125000
O O4 0.016897 0.122566 0.239843
O O5 0.940802 0.043086 0.059673
#
# Coordination Sequence:
#
# PCOD9574206 Si02
#       3
#    16  32  16
#     4  12  22  42  68 112 159 212 245 308 398 486
#     4  12  29  53  82 116 155 210 270 334 400 471
#     4  12  28  46  80 116 166 204 266 328 404 480
#
# _framework density 25.728508999999999
#
# number of rings (size 3 to 8) (size 9 to 14) (size 15 to 20)
#    0.000    0.000    2.500    6.000   14.000    3.000 
#    0.000    0.000    0.000    0.000    0.000    0.000 
#    0.000    0.000    0.000    0.000    0.000    0.000 
#
# Total GULP energy -178882.797128 kJ/mol
# GULP energy per Si atom -5590.087410 kJ/mol
# Density = 2.566995 g / cm^3
# Si number density = 25.728509 Si / 1000 Ang^3
#
#
#
# Elastic Constant Matrix: (Units=GPa)
#
#
# Indices 1 2 3 4 5 6 
#
# 1 89.8588 40.9064 16.6514 0.0000 0.0000 0.0000
# 2 40.9064 89.8554 16.6525 0.0000 0.0000 0.0000
# 3 16.6514 16.6525 98.4901 0.0000 0.0000 0.0000
# 4 0.0000 0.0000 0.0000 53.5994 0.0000 0.0000
# 5 0.0000 0.0000 0.0000 0.0000 53.5997 0.0000
# 6 0.0000 0.0000 0.0000 0.0000 0.0000 26.1267
#
#
#
# Elastic Compliance Matrix: (Units=1/GPa)
#
#
# Indices 1 2 3 4 5 6 
#
# 1 0.014210 -0.006219 -0.001351 0.000000 0.000000 0.000000
# 2 -0.006219 0.014210 -0.001351 0.000000 0.000000 0.000000
# 3 -0.001351 -0.001351 0.010610 0.000000 0.000000 0.000000
# 4 0.000000 0.000000 0.000000 0.018657 0.000000 0.000000
# 5 0.000000 0.000000 0.000000 0.000000 0.018657 0.000000
# 6 0.000000 0.000000 0.000000 0.000000 0.000000 0.038275
#
#
# Mechanical properties :
#
#
# Convention : Reuss Voigt Hill
#
# Bulk Modulus (GPa) = 47.19510 47.40276 47.29893
# Shear Modulus (GPa) = 35.83618 40.26476 38.05047
#
# Velocity S-wave (km/s) = 3.73615 3.96028 3.84985
# Velocity P-wave (km/s) = 6.08236 6.27503 6.17945
#
# Compressibility (1/GPa) = 0.02118864
#
# Stress axis : x y z
#
# Youngs Moduli (GPa) = 70.37393 70.37085 94.24904
#
# Poissons Ratio (x) = 0.43761 0.12733
# Poissons Ratio (y) = 0.43763 0.12736
# Poissons Ratio (z) = 0.09507 0.09509
#
# Static dielectric constant tensor:
#      x y z
#    x 1.828790 0.000000 0.000000 
#    y 0.000000 1.828600 0.000000 
#    z 0.000000 0.000000 1.719910 
# 
# From -- ./inp_files/488.got.cif
#   From: 2010.05.17/outbox.cif.g08.bks.cpg/sg142_1_cif.got.tgz:488.got - 2010.05.20 13:39:18.
