data_PCOD9574622
_publ_section_title
;
Structure prediction by ZEFSAII (Michael W. Deem and Ramdas Pophale) SiO2 
 PCOD9574622
Probable space group: P 32
;
_chemical_formula_sum "Si O2"
_cell_formula_units_Z 24
_cell_length_a 14.759836
_cell_length_b 14.759836
_cell_length_c 6.335919
_cell_angle_alpha 90.000000
_cell_angle_beta 90.000000
_cell_angle_gamma 120.000000
_cell_volume 1195.372642
_symmetry_space_group_name_H-M "P 32"
_symmetry_group_IT_number 145
_symmetry_cell_setting 'hexagonal'
loop_
_space_group_symop_operation_xyz
x,y,z
-y,x-y,2/3+z
-x+y,-x,1/3+z
loop_
_atom_site_type_symbol
_atom_site_label
_atom_site_fract_x
_atom_site_fract_y
_atom_site_fract_z
Si Si1 0.387857 0.852506 0.207400
Si Si2 0.833941 0.792451 0.794384
Si Si3 0.322351 0.192944 0.851560
Si Si4 0.013752 0.830068 0.553822
Si Si5 0.496605 0.790712 0.868526
Si Si6 0.359432 0.411490 0.838595
Si Si7 0.318681 0.016514 0.071145
Si Si8 0.151269 0.821781 0.861034
O O1 0.298474 0.766895 0.360720
O O2 0.489936 0.916975 0.354678
O O3 0.364265 0.939293 0.106999
O O4 0.409678 0.793319 0.016910
O O5 0.793092 0.870562 0.848495
O O6 0.751751 0.709059 0.632695
O O7 0.940320 0.865913 0.665672
O O8 0.860089 0.736433 0.980790
O O9 0.387196 0.318576 0.822614
O O10 0.236537 0.186481 0.021646
O O11 0.374441 0.128257 0.951877
O O12 0.040740 0.772744 0.738189
O O13 0.550599 0.900596 0.738618
O O14 0.574750 0.782538 0.036393
O O15 0.243102 0.365340 0.742918
O O16 0.212989 0.941766 0.935759
#
# Coordination Sequence:
#
# PCOD9574622 Si02
#       8
#     3   3   3   3   3   3   3   3
#     4  11  27  43  66  98 135 182 231 291 353 430
#     4  11  24  33  58  84 127 168 217 262 308 398
#     4  11  23  40  63  90 127 180 222 278 335 407
#     4  11  22  33  53  86 123 168 212 253 321 378
#     4  11  25  44  66  94 138 177 231 286 355 424
#     4  11  23  41  65  92 130 172 231 279 348 408
#     4  11  24  41  61  94 128 177 225 269 350 408
#     4  11  20  39  62  86 132 170 209 278 330 413
#
# _framework density 20.077421000000001
#
# number of rings (size 3 to 8) (size 9 to 14) (size 15 to 20)
#    0.000    1.000    5.000    1.500    3.500    1.000 
#    0.000    0.000    0.000    0.000    0.000    8.750 
#    0.000    0.000    0.000    0.000    0.000    0.000 
#
# Total GULP energy -133750.537732 kJ/mol
# GULP energy per Si atom -5572.939072 kJ/mol
# Density = 2.003172 g / cm^3
# Si number density = 20.077421 Si / 1000 Ang^3
#
#
#
# Elastic Constant Matrix: (Units=GPa)
#
#
# Indices 1 2 3 4 5 6 
#
# 1 84.3642 30.5074 34.7677 -0.6944 0.7936 0.0000
# 2 30.5074 84.3642 34.7677 0.6944 -0.7936 0.0000
# 3 34.7677 34.7677 104.2858 0.0000 0.0000 0.0000
# 4 -0.6944 0.6944 0.0000 38.2259 0.0000 -0.7936
# 5 0.7936 -0.7936 0.0000 0.0000 38.2259 -0.6944
# 6 0.0000 0.0000 0.0000 -0.7936 -0.6944 26.9284
#
#
#
# Elastic Compliance Matrix: (Units=1/GPa)
#
#
# Indices 1 2 3 4 5 6 
#
# 1 0.014747 -0.003841 -0.003636 0.000338 -0.000386 0.000000
# 2 -0.003841 0.014747 -0.003636 -0.000338 0.000386 0.000000
# 3 -0.003636 -0.003636 0.012013 0.000000 0.000000 0.000000
# 4 0.000338 -0.000338 0.000000 0.026189 0.000000 0.000772
# 5 -0.000386 0.000386 0.000000 0.000000 0.026189 0.000675
# 6 0.000000 0.000000 0.000000 0.000772 0.000675 0.037176
#
#
# Mechanical properties :
#
#
# Convention : Reuss Voigt Hill
#
# Bulk Modulus (GPa) = 51.86183 52.56664 52.21423
# Shear Modulus (GPa) = 31.30605 32.20747 31.75676
#
# Velocity S-wave (km/s) = 3.95304 4.00955 3.98139
# Velocity P-wave (km/s) = 6.83537 6.90464 6.87010
#
# Compressibility (1/GPa) = 0.01928200
#
# Stress axis : x y z
#
# Youngs Moduli (GPa) = 67.80988 67.80988 83.23984
#
# Poissons Ratio (x) = 0.26044 0.30267
# Poissons Ratio (y) = 0.26044 0.30267
# Poissons Ratio (z) = 0.24656 0.24656
#
# Static dielectric constant tensor:
#      x y z
#    x 1.781700 0.000000 0.000000 
#    y 0.000000 1.781700 0.000000 
#    z 0.000000 0.000000 1.797810 
# 
# From -- ./inp_files/159.got.cif
#   From: 2010.05.17/outbox.cif.g08.bks.cpg/sg145_cif.got.tgz:159.got - 2010.05.20 13:47:28.
