data_PCOD9574782
_publ_section_title
;
Structure prediction by ZEFSAII (Michael W. Deem and Ramdas Pophale) SiO2 
 PCOD9574782
Probable space group: R 3
;
_chemical_formula_sum "Si O2"
_cell_formula_units_Z 27
_cell_length_a 14.070211
_cell_length_b 14.070211
_cell_length_c 5.240315
_cell_angle_alpha 90.000000
_cell_angle_beta 90.000000
_cell_angle_gamma 120.000000
_cell_volume 898.440345
_symmetry_space_group_name_H-M "R 3"
_symmetry_group_IT_number 146
_symmetry_cell_setting 'hexagonal'
loop_
_space_group_symop_operation_xyz
x,y,z
-y,x-y,z
-x+y,-x,z
2/3+x,1/3+y,1/3+z
2/3-y,1/3+x-y,1/3+z
2/3-x+y,1/3-x,1/3+z
1/3+x,2/3+y,2/3+z
1/3-y,2/3+x-y,2/3+z
1/3-x+y,2/3-x,2/3+z
loop_
_atom_site_type_symbol
_atom_site_label
_atom_site_fract_x
_atom_site_fract_y
_atom_site_fract_z
Si Si1 0.319534 0.788472 0.035420
Si Si2 0.861101 0.750759 0.874010
Si Si3 0.042613 0.789836 0.236835
O O1 0.223999 0.651921 0.988576
O O2 0.301833 0.805084 0.325188
O O3 0.293278 0.847656 0.803815
O O4 0.806821 0.629091 0.752988
O O5 0.983823 0.789369 0.964079
O O6 0.948345 0.708937 0.434969
#
# Coordination Sequence:
#
# PCOD9574782 Si02
#       3
#     9   9   9
#     4  10  25  42  77 103 152 197 254 313 380 456
#     4  10  26  42  78 105 153 202 254 316 376 465
#     4  10  25  50  71 116 151 201 258 313 392 459
#
# _framework density 30.052078000000002
#
# number of rings (size 3 to 8) (size 9 to 14) (size 15 to 20)
#    2.000    0.000    0.000    0.667    9.333    2.667 
#    6.000    0.000    0.000    0.000    0.000    0.000 
#    0.000    0.000    0.000    0.000    0.000    0.000 
#
# Total GULP energy -50183.679060 kJ/mol
# GULP energy per Si atom -5575.964340 kJ/mol
# Density = 2.998368 g / cm^3
# Si number density = 30.052078 Si / 1000 Ang^3
#
#
#
# Elastic Constant Matrix: (Units=GPa)
#
#
# Indices 1 2 3 4 5 6 
#
# 1 84.5833 -14.0202 39.1760 -5.1836 26.1375 -0.0037
# 2 -14.0202 84.5925 39.1859 5.1858 -26.1535 -0.0021
# 3 39.1760 39.1859 256.3591 0.0063 -0.0086 -0.0040
# 4 -5.1836 5.1858 0.0063 78.8840 0.0021 -26.1449
# 5 26.1375 -26.1535 -0.0086 0.0021 78.8711 -5.1857
# 6 -0.0037 -0.0021 -0.0040 -26.1449 -5.1857 49.3049
#
#
#
# Elastic Compliance Matrix: (Units=1/GPa)
#
#
# Indices 1 2 3 4 5 6 
#
# 1 0.014738 0.002330 -0.002608 0.000816 -0.004112 0.000001
# 2 0.002330 0.014738 -0.002609 -0.000815 0.004115 0.000001
# 3 -0.002608 -0.002609 0.004698 0.000000 0.000000 0.000000
# 4 0.000816 -0.000815 0.000000 0.015510 0.000000 0.008224
# 5 -0.004112 0.004115 0.000000 0.000000 0.015513 0.001631
# 6 0.000001 0.000001 0.000000 0.008224 0.001631 0.024815
#
#
# Mechanical properties :
#
#
# Convention : Reuss Voigt Hill
#
# Bulk Modulus (GPa) = 35.21262 61.57980 48.39621
# Shear Modulus (GPa) = 47.50470 65.49155 56.49813
#
# Velocity S-wave (km/s) = 3.98017 4.67333 4.34061
# Velocity P-wave (km/s) = 5.73280 7.04667 6.42341
#
# Compressibility (1/GPa) = 0.02839891
#
# Stress axis : x y z
#
# Youngs Moduli (GPa) = 67.85404 67.85147 212.85059
#
# Poissons Ratio (x) = -0.15807 0.55520
# Poissons Ratio (y) = -0.15808 0.55525
# Poissons Ratio (z) = 0.17699 0.17700
#
# Static dielectric constant tensor:
#      x y z
#    x 2.989150 0.000010 0.000000 
#    y 0.000010 2.989140 0.000000 
#    z 0.000000 0.000000 2.145430 
# 
# From -- ./inp_files/109.got.cif
#   From: 2010.05.17/outbox.cif.g08.bks.cpg/sg146_cif.got.tgz:109.got - 2010.05.20 13:48:23.
