data_PCOD9574120
_publ_section_title
;
Structure prediction by ZEFSAII (Michael W. Deem and Ramdas Pophale) SiO2 
 PCOD9574120
Probable space group: I 41/A C D
;
_chemical_formula_sum "Si O2"
_cell_formula_units_Z 176
_cell_length_a 18.433900
_cell_length_b 18.433900
_cell_length_c 25.600575
_cell_angle_alpha 90.000000
_cell_angle_beta 90.000000
_cell_angle_gamma 90.000000
_cell_volume 8699.297322
_symmetry_space_group_name_H-M "I 41/A C D"
_symmetry_group_IT_number 142
_space_group.IT_coordinate_system_code '2'
_symmetry_cell_setting 'tetragonal'
loop_
_space_group_symop_operation_xyz
x,y,z
1/4-y,3/4+x,1/4+z
-x,1/2-y,z
1/4+y,1/4-x,3/4+z
x,-y,1/2-z
1/2-x,y,-z
3/4+y,1/4+x,1/4-z
1/4-y,1/4-x,1/4-z
-x,-y,-z
3/4+y,1/4-x,3/4-z
x,1/2+y,-z
3/4-y,3/4+x,1/4-z
-x,y,1/2+z
1/2+x,-y,z
1/4-y,3/4-x,3/4+z
3/4+y,3/4+x,3/4+z
1/2+x,1/2+y,1/2+z
3/4-y,1/4+x,3/4+z
1/2-x,-y,1/2+z
3/4+y,3/4-x,1/4+z
1/2+x,1/2-y,-z
-x,1/2+y,1/2-z
1/4+y,3/4+x,3/4-z
3/4-y,3/4-x,3/4-z
1/2-x,1/2-y,1/2-z
1/4+y,3/4-x,1/4-z
1/2+x,y,1/2-z
1/4-y,1/4+x,3/4-z
1/2-x,1/2+y,z
x,1/2-y,1/2+z
3/4-y,1/4-x,1/4+z
1/4+y,1/4+x,1/4+z
loop_
_atom_site_type_symbol
_atom_site_label
_atom_site_fract_x
_atom_site_fract_y
_atom_site_fract_z
Si Si1 0.541901 0.824085 0.740224
Si Si2 0.836681 0.465962 0.386134
Si Si3 0.051925 0.950296 0.205469
Si Si4 0.401723 0.348278 0.875000
Si Si5 0.964923 0.946220 0.541691
Si Si6 0.261031 0.681647 0.379455
O O1 0.500000 0.750000 0.747340
O O2 0.491418 0.883612 0.768836
O O3 0.552519 0.835645 0.677822
O O4 0.620590 0.812952 0.767526
O O5 0.782562 0.532562 0.375000
O O6 0.884969 0.439929 0.336682
O O7 0.895440 0.483182 0.430624
O O8 0.791720 0.394101 0.399906
O O9 0.988617 0.994638 0.176234
O O10 0.085036 0.000000 0.250000
O O11 0.415408 0.431273 0.892011
O O12 0.026841 0.939381 0.586694
O O13 0.000000 0.000000 0.500000
#
# Coordination Sequence:
#
# PCOD9574120 Si02
#       6
#    32  32  32  16  32  32
#     4  12  25  44  70 101 137 187 228 281 351 416
#     4  11  25  43  70 100 132 179 235 289 346 412
#     4  11  24  45  64  96 139 178 225 285 345 414
#     4  12  23  42  72 100 138 180 224 289 340 420
#     4  11  24  44  66  99 142 178 230 285 341 413
#     4  11  22  43  68  96 135 176 227 281 346 410
#
# _framework density 20.231518999999999
#
# number of rings (size 3 to 8) (size 9 to 14) (size 15 to 20)
#    0.000    0.727    6.364    1.364    0.000    2.909 
#    0.000    2.727    0.000    0.000    0.000    0.000 
#    0.000    0.000    0.000    0.000    0.000    0.000 
#
# Total GULP energy -490969.631373 kJ/mol
# GULP energy per Si atom -5579.200357 kJ/mol
# Density = 2.018547 g / cm^3
# Si number density = 20.231519 Si / 1000 Ang^3
#
#
#
# Elastic Constant Matrix: (Units=GPa)
#
#
# Indices 1 2 3 4 5 6 
#
# 1 67.8743 21.7772 5.4937 0.0000 0.0000 0.0000
# 2 21.7772 67.8748 5.4940 0.0000 0.0000 0.0000
# 3 5.4937 5.4940 64.3845 0.0000 0.0000 0.0000
# 4 0.0000 0.0000 0.0000 23.2646 0.0000 0.0000
# 5 0.0000 0.0000 0.0000 0.0000 23.2647 0.0000
# 6 0.0000 0.0000 0.0000 0.0000 0.0000 36.1612
#
#
#
# Elastic Compliance Matrix: (Units=1/GPa)
#
#
# Indices 1 2 3 4 5 6 
#
# 1 0.016483 -0.005211 -0.000962 0.000000 0.000000 0.000000
# 2 -0.005211 0.016483 -0.000962 0.000000 0.000000 0.000000
# 3 -0.000962 -0.000962 0.015696 0.000000 0.000000 0.000000
# 4 0.000000 0.000000 0.000000 0.042984 0.000000 0.000000
# 5 0.000000 0.000000 0.000000 0.000000 0.042983 0.000000
# 6 0.000000 0.000000 0.000000 0.000000 0.000000 0.027654
#
#
# Mechanical properties :
#
#
# Convention : Reuss Voigt Hill
#
# Bulk Modulus (GPa) = 29.07586 29.51816 29.29701
# Shear Modulus (GPa) = 26.59361 27.69602 27.14482
#
# Velocity S-wave (km/s) = 3.62949 3.70395 3.66691
# Velocity P-wave (km/s) = 5.65394 5.73709 5.69567
#
# Compressibility (1/GPa) = 0.03439279
#
# Stress axis : x y z
#
# Youngs Moduli (GPa) = 60.66954 60.66994 63.71114
#
# Poissons Ratio (x) = 0.31612 0.06128
# Poissons Ratio (y) = 0.31612 0.06128
# Poissons Ratio (z) = 0.05835 0.05836
#
# Static dielectric constant tensor:
#      x y z
#    x 1.727230 0.000000 0.000000 
#    y 0.000000 1.727240 0.000000 
#    z 0.000000 0.000000 1.802630 
# 
# From -- ./inp_files/11472.got.cif
#   From: 2010.05.17/outbox.cif.g08.bks.cpg/sg142_6_cif.got.tgz:11472.got - 2010.05.20 13:39:18.
