data_PCOD9574521
_publ_section_title
;
Structure prediction by ZEFSAII (Michael W. Deem and Ramdas Pophale) SiO2 
 PCOD9574521
Probable space group: P 31
;
_chemical_formula_sum "Si O2"
_cell_formula_units_Z 12
_cell_length_a 8.210500
_cell_length_b 8.210500
_cell_length_c 7.792429
_cell_angle_alpha 90.000000
_cell_angle_beta 90.000000
_cell_angle_gamma 120.000000
_cell_volume 454.928030
_symmetry_space_group_name_H-M "P 31"
_symmetry_group_IT_number 144
_symmetry_cell_setting 'hexagonal'
loop_
_space_group_symop_operation_xyz
x,y,z
-y,x-y,1/3+z
-x+y,-x,2/3+z
loop_
_atom_site_type_symbol
_atom_site_label
_atom_site_fract_x
_atom_site_fract_y
_atom_site_fract_z
Si Si1 0.760801 0.629002 0.711970
Si Si2 0.894613 0.370777 0.758539
Si Si3 0.474657 0.747173 0.584463
Si Si4 0.873692 0.895423 0.251363
O O1 0.735177 0.421332 0.706434
O O2 0.642756 0.699633 0.598811
O O3 0.978034 0.760974 0.645885
O O4 0.693443 0.630619 0.907705
O O5 0.050353 0.559943 0.856762
O O6 0.892004 0.219405 0.891880
O O7 0.387370 0.718419 0.773496
O O8 0.030009 0.967474 0.394923
#
# Coordination Sequence:
#
# PCOD9574521 Si02
#       4
#     3   3   3   3
#     4  12  28  52  86 132 173 231 295 359 436 527
#     4  12  28  52  86 132 173 231 295 359 436 527
#     4  12  26  53  91 125 178 234 287 358 440 518
#     4  12  26  53  91 125 178 234 287 358 440 518
#
# _framework density 26.377800000000001
#
# number of rings (size 3 to 8) (size 9 to 14) (size 15 to 20)
#    0.000    0.000    5.000    4.500    0.000    4.000 
#    0.000    0.000    0.000    0.000    0.000    0.000 
#    0.000    0.000    0.000    0.000    0.000    0.000 
#
# Total GULP energy -66810.015620 kJ/mol
# GULP energy per Si atom -5567.501302 kJ/mol
# Density = 2.631776 g / cm^3
# Si number density = 26.377800 Si / 1000 Ang^3
#
#
#
# Elastic Constant Matrix: (Units=GPa)
#
#
# Indices 1 2 3 4 5 6 
#
# 1 66.3029 16.6275 42.7296 -5.3820 -5.8691 0.0000
# 2 16.6275 66.3029 42.7296 5.3820 5.8691 0.0000
# 3 42.7296 42.7296 136.1868 0.0000 0.0000 0.0000
# 4 -5.3820 5.3820 0.0000 44.2455 0.0000 5.8691
# 5 -5.8691 5.8691 0.0000 0.0000 44.2455 -5.3820
# 6 0.0000 0.0000 0.0000 5.8691 -5.3820 24.8377
#
#
#
# Elastic Compliance Matrix: (Units=1/GPa)
#
#
# Indices 1 2 3 4 5 6 
#
# 1 0.019592 -0.001772 -0.005591 0.002599 0.002834 0.000000
# 2 -0.001772 0.019592 -0.005591 -0.002599 -0.002834 0.000000
# 3 -0.005591 -0.005591 0.010851 0.000000 0.000000 0.000000
# 4 0.002599 -0.002599 0.000000 0.023985 0.000000 -0.005668
# 5 0.002834 -0.002834 0.000000 0.000000 0.023985 0.005197
# 6 0.000000 0.000000 0.000000 -0.005668 0.005197 0.042727
#
#
# Mechanical properties :
#
#
# Convention : Reuss Voigt Hill
#
# Bulk Modulus (GPa) = 41.44786 52.55179 46.99982
# Shear Modulus (GPa) = 28.62343 33.77946 31.20145
#
# Velocity S-wave (km/s) = 3.29771 3.58243 3.44302
# Velocity P-wave (km/s) = 5.49974 6.08915 5.80193
#
# Compressibility (1/GPa) = 0.02412670
#
# Stress axis : x y z
#
# Youngs Moduli (GPa) = 51.04208 51.04208 92.15415
#
# Poissons Ratio (x) = 0.09043 0.51525
# Poissons Ratio (y) = 0.09043 0.51525
# Poissons Ratio (z) = 0.28538 0.28538
#
# Static dielectric constant tensor:
#      x y z
#    x 2.344680 0.000000 0.000000 
#    y 0.000000 2.344680 0.000000 
#    z 0.000000 0.000000 2.030670 
# 
# From -- ./inp_files/218.got.cif
#   From: 2010.05.17/outbox.cif.g08.bks.cpg/sg144_cif.got.tgz:218.got - 2010.05.20 13:46:34.
