data_PCOD9574882
_publ_section_title
;
Structure prediction by ZEFSAII (Michael W. Deem and Ramdas Pophale) SiO2 
 PCOD9574882
Probable space group: P -3
;
_chemical_formula_sum "Si O2"
_cell_formula_units_Z 48
_cell_length_a 12.975166
_cell_length_b 12.975166
_cell_length_c 20.746996
_cell_angle_alpha 90.000000
_cell_angle_beta 90.000000
_cell_angle_gamma 120.000000
_cell_volume 3024.904726
_symmetry_space_group_name_H-M "P -3"
_symmetry_group_IT_number 147
_symmetry_cell_setting 'hexagonal'
loop_
_space_group_symop_operation_xyz
x,y,z
-y,x-y,z
-x+y,-x,z
-x,-y,-z
y,-x+y,-z
x-y,x,-z
loop_
_atom_site_type_symbol
_atom_site_label
_atom_site_fract_x
_atom_site_fract_y
_atom_site_fract_z
Si Si1 0.332965 0.910999 0.120223
Si Si2 0.909559 0.333171 0.236593
Si Si3 0.423253 0.333615 0.384232
Si Si4 0.333171 0.909559 0.763407
Si Si5 0.000000 0.245067 1.000000
Si Si6 0.089638 0.666385 0.615768
Si Si7 1.000000 0.755071 0.500000
Si Si8 0.910999 0.332965 0.879777
O O1 0.221122 0.778878 0.127224
O O2 0.453733 0.907466 0.108011
O O3 0.353333 0.987945 0.184693
O O4 0.303761 0.973048 0.061367
O O5 0.792933 0.207067 0.222899
O O6 0.877304 0.438652 0.233460
O O7 0.948527 0.332303 0.310343
O O8 0.383776 0.332303 0.310343
O O9 0.541509 0.458491 0.396270
O O10 0.451893 0.225946 0.388759
O O11 0.323862 0.307858 0.437005
O O12 0.365388 0.012055 0.815307
O O13 0.973048 0.303761 0.938633
O O14 0.116455 0.232910 0.989153
O O15 0.016004 0.692142 0.562995
O O16 0.883209 0.766417 0.505683
#
# Coordination Sequence:
#
# PCOD9574882 Si02
#       8
#     6   6   6   6   6   6   6   6
#     4  10  20  33  49  69  95 126 157 188 223 267
#     4   9  17  30  49  72  95 119 149 187 231 275
#     4   9  17  30  49  71  93 117 148 189 234 276
#     4   9  17  30  49  72  95 119 149 187 231 275
#     4  10  20  34  52  72  94 120 152 192 234 274
#     4   9  17  30  49  71  93 117 148 189 234 276
#     4  10  20  32  46  64  90 124 158 190 224 268
#     4  10  20  33  49  69  95 126 157 188 223 267
#
# _framework density 15.868269
#
# number of rings (size 3 to 8) (size 9 to 14) (size 15 to 20)
#    0.000    2.500    0.000    2.500    0.000    3.000 
#    0.000    0.000    0.000    9.000    0.000    0.000 
#    0.000    0.000    0.000    0.000    0.000    0.000 
#
# Total GULP energy -267639.889919 kJ/mol
# GULP energy per Si atom -5575.831040 kJ/mol
# Density = 1.583215 g / cm^3
# Si number density = 15.868269 Si / 1000 Ang^3
#
#
#
# Elastic Constant Matrix: (Units=GPa)
#
#
# Indices 1 2 3 4 5 6 
#
# 1 111.9803 75.2055 87.1713 2.8797 0.0000 0.0000
# 2 75.2055 111.9803 87.1713 -2.8797 0.0000 0.0000
# 3 87.1713 87.1713 127.9137 0.0000 0.0000 0.0000
# 4 2.8797 -2.8797 0.0000 25.5066 0.0000 0.0000
# 5 0.0000 0.0000 0.0000 0.0000 25.5066 2.8797
# 6 0.0000 0.0000 0.0000 0.0000 2.8797 18.3874
#
#
#
# Elastic Compliance Matrix: (Units=1/GPa)
#
#
# Indices 1 2 3 4 5 6 
#
# 1 0.021154 -0.006528 -0.009967 -0.003125 0.000000 0.000000
# 2 -0.006528 0.021154 -0.009967 0.003125 0.000000 0.000000
# 3 -0.009967 -0.009967 0.021402 0.000000 0.000000 0.000000
# 4 -0.003125 0.003125 0.000000 0.039911 0.000000 0.000000
# 5 0.000000 0.000000 0.000000 0.000000 0.039911 -0.006251
# 6 0.000000 0.000000 0.000000 0.000000 -0.006251 0.055364
#
#
# Mechanical properties :
#
#
# Convention : Reuss Voigt Hill
#
# Bulk Modulus (GPa) = 92.71855 94.55226 93.63540
# Shear Modulus (GPa) = 19.57590 20.70188 20.13889
#
# Velocity S-wave (km/s) = 3.51615 3.61585 3.56635
# Velocity P-wave (km/s) = 8.66264 8.78337 8.72322
#
# Compressibility (1/GPa) = 0.01078533
#
# Stress axis : x y z
#
# Youngs Moduli (GPa) = 47.27299 47.27299 46.72352
#
# Poissons Ratio (x) = 0.30861 0.46569
# Poissons Ratio (y) = 0.30861 0.46569
# Poissons Ratio (z) = 0.47117 0.47117
#
# Static dielectric constant tensor:
#      x y z
#    x 1.501670 0.000000 0.000000 
#    y 0.000000 1.501670 0.000000 
#    z 0.000000 0.000000 1.522700 
# 
# From -- ./inp_files/1076.got.cif
#   From: 2010.05.17/outbox.cif.g08.bks.cpg/sg147_cif.got.tgz:1076.got - 2010.05.20 13:49:32.
