data_PCOD9574030
_publ_section_title
;
Structure prediction by ZEFSAII (Michael W. Deem and Ramdas Pophale) SiO2 
 PCOD9574030
Probable space group: I 41/A C D
;
_chemical_formula_sum "Si O2"
_cell_formula_units_Z 56
_cell_length_a 9.058514
_cell_length_b 9.058514
_cell_length_c 26.004515
_cell_angle_alpha 90.000000
_cell_angle_beta 90.000000
_cell_angle_gamma 90.000000
_cell_volume 2133.844059
_symmetry_space_group_name_H-M "I 41/A C D"
_symmetry_group_IT_number 142
_space_group.IT_coordinate_system_code '2'
_symmetry_cell_setting 'tetragonal'
loop_
_space_group_symop_operation_xyz
x,y,z
1/4-y,3/4+x,1/4+z
-x,1/2-y,z
1/4+y,1/4-x,3/4+z
x,-y,1/2-z
1/2-x,y,-z
3/4+y,1/4+x,1/4-z
1/4-y,1/4-x,1/4-z
-x,-y,-z
3/4+y,1/4-x,3/4-z
x,1/2+y,-z
3/4-y,3/4+x,1/4-z
-x,y,1/2+z
1/2+x,-y,z
1/4-y,3/4-x,3/4+z
3/4+y,3/4+x,3/4+z
1/2+x,1/2+y,1/2+z
3/4-y,1/4+x,3/4+z
1/2-x,-y,1/2+z
3/4+y,3/4-x,1/4+z
1/2+x,1/2-y,-z
-x,1/2+y,1/2-z
1/4+y,3/4+x,3/4-z
3/4-y,3/4-x,3/4-z
1/2-x,1/2-y,1/2-z
1/4+y,3/4-x,1/4-z
1/2+x,y,1/2-z
1/4-y,1/4+x,3/4-z
1/2-x,1/2+y,z
x,1/2-y,1/2+z
3/4-y,1/4-x,1/4+z
1/4+y,1/4+x,1/4+z
loop_
_atom_site_type_symbol
_atom_site_label
_atom_site_fract_x
_atom_site_fract_y
_atom_site_fract_z
Si Si1 0.810482 0.173440 0.072915
Si Si2 0.250000 0.080277 0.000000
Si Si3 0.500000 0.750000 0.875000
O O1 0.638050 0.194675 0.090270
O O2 0.896046 0.146046 0.125000
O O3 0.832421 0.029049 0.038366
O O4 0.842874 0.313560 0.037243
#
# Coordination Sequence:
#
# PCOD9574030 Si02
#       3
#    32  16   8
#     4  11  23  47  74 115 156 199 261 320 380 466
#     4  10  24  46  76 110 154 208 256 314 400 450
#     4  12  24  44  76 108 162 200 256 324 380 456
#
# _framework density 26.243718999999999
#
# number of rings (size 3 to 8) (size 9 to 14) (size 15 to 20)
#    0.000    1.143    5.714    0.000    0.000    2.286 
#    0.000    2.857    0.000    0.000    0.000    0.000 
#    0.000    0.000    0.000    0.000    0.000    0.000 
#
# Total GULP energy -157004.161907 kJ/mol
# GULP energy per Si atom -5607.291497 kJ/mol
# Density = 2.618399 g / cm^3
# Si number density = 26.243719 Si / 1000 Ang^3
#
#
#
# Elastic Constant Matrix: (Units=GPa)
#
#
# Indices 1 2 3 4 5 6 
#
# 1 169.9897 73.5781 99.6838 0.0000 0.0000 0.0000
# 2 73.5781 169.9897 99.6838 0.0000 0.0000 0.0000
# 3 99.6838 99.6838 266.6713 0.0000 0.0000 0.0000
# 4 0.0000 0.0000 0.0000 -0.2616 0.0000 0.0000
# 5 0.0000 0.0000 0.0000 0.0000 -0.2616 0.0000
# 6 0.0000 0.0000 0.0000 0.0000 0.0000 10.3335
#
#
#
# Elastic Compliance Matrix: (Units=1/GPa)
#
#
# Indices 1 2 3 4 5 6 
#
# 1 0.008144 -0.002228 -0.002211 0.000000 0.000000 0.000000
# 2 -0.002228 0.008144 -0.002211 0.000000 0.000000 0.000000
# 3 -0.002211 -0.002211 0.005403 0.000000 0.000000 0.000000
# 4 0.000000 0.000000 0.000000 -3.821951 -0.000006 0.000000
# 5 0.000000 0.000000 0.000000 -0.000006 -3.822004 0.000000
# 6 0.000000 0.000000 0.000000 0.000000 0.000000 0.096773
#
#
# Mechanical properties :
#
#
# Convention : Reuss Voigt Hill
#
# Bulk Modulus (GPa) = 119.20088 128.06022 123.63055
# Shear Modulus (GPa) = -0.66583 24.20904 11.77160
#
# Velocity S-wave (km/s) = -0.50424 3.04051 2.12020
# Velocity P-wave (km/s) = 6.72163 7.82488 7.29414
#
# Compressibility (1/GPa) = 0.00838920
#
# Stress axis : x y z
#
# Youngs Moduli (GPa) = 122.79087 122.79086 185.07709
#
# Poissons Ratio (x) = 0.27361 0.40927
# Poissons Ratio (y) = 0.27361 0.40927
# Poissons Ratio (z) = 0.27153 0.27153
#
# Static dielectric constant tensor:
#      x y z
#    x 2.022620 0.000000 0.000000 
#    y 0.000000 2.022620 0.000000 
#    z 0.000000 0.000000 2.005820 
# 
# From -- ./inp_files/8078.got.cif
#   From: 2010.05.17/outbox.cif.g08.bks.cpg/sg142_5_cif.got.tgz:8078.got - 2010.05.20 13:39:18.
