data_PCOD9574956
_publ_section_title
;
Structure prediction by ZEFSAII (Michael W. Deem and Ramdas Pophale) SiO2 
 PCOD9574956
Probable space group: P -3
;
_chemical_formula_sum "Si O2"
_cell_formula_units_Z 16
_cell_length_a 8.124282
_cell_length_b 8.124282
_cell_length_c 11.350909
_cell_angle_alpha 90.000000
_cell_angle_beta 90.000000
_cell_angle_gamma 120.000000
_cell_volume 648.830494
_symmetry_space_group_name_H-M "P -3"
_symmetry_group_IT_number 147
_symmetry_cell_setting 'hexagonal'
loop_
_space_group_symop_operation_xyz
x,y,z
-y,x-y,z
-x+y,-x,z
-x,-y,-z
y,-x+y,-z
x-y,x,-z
loop_
_atom_site_type_symbol
_atom_site_label
_atom_site_fract_x
_atom_site_fract_y
_atom_site_fract_z
Si Si1 0.333332 0.666665 0.898478
Si Si2 0.666667 0.333335 0.822509
Si Si3 0.037377 0.708634 0.577404
Si Si4 0.025052 0.373797 0.728810
O O1 0.504397 0.647099 0.842202
O O2 0.333334 0.666667 0.038000
O O3 0.808294 0.266983 0.770440
O O4 0.828391 0.652252 0.532315
O O5 0.134936 0.865825 0.680342
O O6 0.479372 0.946446 0.629133
#
# Coordination Sequence:
#
# PCOD9574956 Si02
#       4
#     2   2   6   6
#     4   9  21  42  61  83 115 144 186 246 289 323
#     4  12  21  39  64  83 109 153 192 240 283 320
#     4  11  22  37  55  81 121 154 180 228 280 334
#     4  10  23  38  58  89 113 145 197 230 275 347
#
# _framework density 24.659751
#
# number of rings (size 3 to 8) (size 9 to 14) (size 15 to 20)
#    0.000    1.500    0.000    5.625    0.000    3.000 
#    0.000    0.000    0.000    0.000    0.000   21.000 
#    0.000    0.000    0.000    0.000    0.000    0.000 
#
# Total GULP energy -89448.561899 kJ/mol
# GULP energy per Si atom -5590.535119 kJ/mol
# Density = 2.460362 g / cm^3
# Si number density = 24.659751 Si / 1000 Ang^3
#
#
#
# Elastic Constant Matrix: (Units=GPa)
#
#
# Indices 1 2 3 4 5 6 
#
# 1 118.9650 36.8374 49.7856 2.6412 -0.2157 0.0004
# 2 36.8374 118.9670 49.7858 -2.6412 0.2156 0.0001
# 3 49.7856 49.7858 190.1342 0.0003 -0.0003 0.0004
# 4 2.6412 -2.6412 0.0003 26.8093 0.0002 0.2156
# 5 -0.2157 0.2156 -0.0003 0.0002 26.8089 2.6411
# 6 0.0004 0.0001 0.0004 0.2156 2.6411 41.0643
#
#
#
# Elastic Compliance Matrix: (Units=1/GPa)
#
#
# Indices 1 2 3 4 5 6 
#
# 1 0.009981 -0.002273 -0.002018 -0.001207 0.000099 0.000000
# 2 -0.002273 0.009981 -0.002018 0.001207 -0.000099 0.000000
# 3 -0.002018 -0.002018 0.006316 0.000000 0.000000 0.000000
# 4 -0.001207 0.001207 0.000000 0.037540 0.000000 -0.000197
# 5 0.000099 -0.000099 0.000000 0.000000 0.037541 -0.002414
# 6 0.000000 0.000000 0.000000 -0.000197 -0.002414 0.024508
#
#
# Mechanical properties :
#
#
# Convention : Reuss Voigt Hill
#
# Bulk Modulus (GPa) = 73.20927 77.87599 75.54263
# Shear Modulus (GPa) = 34.95518 38.38032 36.66775
#
# Velocity S-wave (km/s) = 3.76905 3.94940 3.86028
# Velocity P-wave (km/s) = 6.97805 7.24194 7.11122
#
# Compressibility (1/GPa) = 0.01365947
#
# Stress axis : x y z
#
# Youngs Moduli (GPa) = 100.18726 100.18900 158.31699
#
# Poissons Ratio (x) = 0.22773 0.31954
# Poissons Ratio (y) = 0.22772 0.31954
# Poissons Ratio (z) = 0.20222 0.20222
#
# Static dielectric constant tensor:
#      x y z
#    x 1.988100 0.000000 0.000000 
#    y 0.000000 1.988090 0.000000 
#    z 0.000000 0.000000 1.995170 
# 
# From -- ./inp_files/755.got.cif
#   From: 2010.05.17/outbox.cif.g08.bks.cpg/sg147_cif.got.tgz:755.got - 2010.05.20 13:49:32.
