data_PCOD9574710
_publ_section_title
;
Structure prediction by ZEFSAII (Michael W. Deem and Ramdas Pophale) SiO2 
 PCOD9574710
Probable space group: R 3
;
_chemical_formula_sum "Si O2"
_cell_formula_units_Z 60
_cell_length_a 18.483899
_cell_length_b 18.483899
_cell_length_c 10.086632
_cell_angle_alpha 90.000000
_cell_angle_beta 90.000000
_cell_angle_gamma 120.000000
_cell_volume 2984.447762
_symmetry_space_group_name_H-M "R 3"
_symmetry_group_IT_number 146
_symmetry_cell_setting 'hexagonal'
loop_
_space_group_symop_operation_xyz
x,y,z
-y,x-y,z
-x+y,-x,z
2/3+x,1/3+y,1/3+z
2/3-y,1/3+x-y,1/3+z
2/3-x+y,1/3-x,1/3+z
1/3+x,2/3+y,2/3+z
1/3-y,2/3+x-y,2/3+z
1/3-x+y,2/3-x,2/3+z
loop_
_atom_site_type_symbol
_atom_site_label
_atom_site_fract_x
_atom_site_fract_y
_atom_site_fract_z
Si Si1 0.666668 0.333334 0.521776
Si Si2 0.333334 0.666668 0.530526
Si Si3 0.579230 0.056035 0.082052
Si Si4 0.507927 0.167775 0.182348
Si Si5 0.708011 0.899904 0.139359
Si Si6 0.330226 0.251211 0.038105
Si Si7 0.508033 0.183465 0.490539
Si Si8 0.652488 0.782542 0.896408
O O1 0.666668 0.333334 0.359083
O O2 0.595806 0.240984 0.561744
O O3 0.240061 0.598334 0.484595
O O4 0.537218 0.112832 0.100559
O O5 0.679678 0.104395 0.072268
O O6 0.564017 0.006910 0.220254
O O7 0.549665 0.000339 0.949910
O O8 0.522179 0.164415 0.339963
O O9 0.408523 0.131577 0.177640
O O10 0.798088 0.906945 0.150661
O O11 0.712180 0.980477 0.069177
O O12 0.661725 0.820760 0.041916
O O13 0.299897 0.173688 0.135081
O O14 0.450163 0.093286 0.555509
#
# Coordination Sequence:
#
# PCOD9574710 Si02
#       8
#     3   3   9   9   9   9   9   9
#     4   9  18  33  63  91 116 157 219 259 305 370
#     4   9  18  36  60  94 119 157 219 268 296 382
#     4  12  23  40  64  98 125 165 219 270 328 380
#     4  10  22  37  64  93 126 168 213 263 324 381
#     4  11  24  39  63  97 127 165 221 268 322 383
#     4  12  22  40  68  93 123 168 220 277 322 382
#     4  10  21  38  63  94 126 167 209 264 318 386
#     4  11  22  41  63  92 130 171 216 263 327 394
#
# _framework density 20.104222
#
# number of rings (size 3 to 8) (size 9 to 14) (size 15 to 20)
#    0.000    1.200    4.500    1.800    4.200    2.400 
#    2.700    0.000    0.000    0.000    0.000    0.000 
#    0.000    0.000    0.000    0.000    0.000    0.000 
#
# Total GULP energy -111526.677725 kJ/mol
# GULP energy per Si atom -5576.333886 kJ/mol
# Density = 2.005846 g / cm^3
# Si number density = 20.104222 Si / 1000 Ang^3
#
#
#
# Elastic Constant Matrix: (Units=GPa)
#
#
# Indices 1 2 3 4 5 6 
#
# 1 90.9127 36.4945 10.9796 12.3397 -4.5057 0.0001
# 2 36.4945 90.9126 10.9800 -12.3399 4.5058 -0.0002
# 3 10.9796 10.9800 80.8198 -0.0001 0.0001 -0.0003
# 4 12.3397 -12.3399 -0.0001 16.4554 0.0000 4.5059
# 5 -4.5057 4.5058 0.0001 0.0000 16.4551 12.3396
# 6 0.0001 -0.0002 -0.0003 4.5059 12.3396 27.2089
#
#
#
# Elastic Compliance Matrix: (Units=1/GPa)
#
#
# Indices 1 2 3 4 5 6 
#
# 1 0.018969 -0.010932 -0.001092 -0.022423 0.008187 0.000000
# 2 -0.010932 0.018969 -0.001092 0.022423 -0.008187 0.000000
# 3 -0.001092 -0.001092 0.012670 0.000000 0.000000 0.000000
# 4 -0.022423 0.022423 0.000000 0.098883 0.000001 -0.016375
# 5 0.008187 -0.008187 0.000000 0.000001 0.098884 -0.044846
# 6 0.000000 0.000000 0.000000 -0.016375 -0.044846 0.059802
#
#
# Mechanical properties :
#
#
# Convention : Reuss Voigt Hill
#
# Bulk Modulus (GPa) = 41.02317 42.17259 41.59788
# Shear Modulus (GPa) = 14.59704 25.63662 20.11683
#
# Velocity S-wave (km/s) = 2.69749 3.57485 3.16670
# Velocity P-wave (km/s) = 5.49104 6.16943 5.84009
#
# Compressibility (1/GPa) = 0.02437647
#
# Stress axis : x y z
#
# Youngs Moduli (GPa) = 52.71754 52.71727 78.92733
#
# Poissons Ratio (x) = 0.57631 0.08617
# Poissons Ratio (y) = 0.57631 0.08618
# Poissons Ratio (z) = 0.05756 0.05756
#
# Static dielectric constant tensor:
#      x y z
#    x 1.766480 0.000000 0.000000 
#    y 0.000000 1.766480 0.000000 
#    z 0.000000 0.000000 1.682980 
# 
# From -- ./inp_files/1241.got.cif
#   From: 2010.05.17/outbox.cif.g08.bks.cpg/sg146_cif.got.tgz:1241.got - 2010.05.20 13:48:23.
