data_PCOD9574431
_publ_section_title
;
Structure prediction by ZEFSAII (Michael W. Deem and Ramdas Pophale) SiO2 
 PCOD9574431
Probable space group: P 31
;
_chemical_formula_sum "Si O2"
_cell_formula_units_Z 24
_cell_length_a 10.984339
_cell_length_b 10.984339
_cell_length_c 11.616886
_cell_angle_alpha 90.000000
_cell_angle_beta 90.000000
_cell_angle_gamma 120.000000
_cell_volume 1213.858921
_symmetry_space_group_name_H-M "P 31"
_symmetry_group_IT_number 144
_symmetry_cell_setting 'hexagonal'
loop_
_space_group_symop_operation_xyz
x,y,z
-y,x-y,1/3+z
-x+y,-x,2/3+z
loop_
_atom_site_type_symbol
_atom_site_label
_atom_site_fract_x
_atom_site_fract_y
_atom_site_fract_z
Si Si1 0.489419 0.191182 0.561150
Si Si2 0.011197 0.332832 0.082432
Si Si3 0.425733 0.982645 0.360904
Si Si4 0.277105 0.318979 0.132396
Si Si5 0.489706 0.797599 0.945991
Si Si6 0.487337 0.828457 0.681089
Si Si7 0.797258 0.264658 0.504603
Si Si8 0.523008 0.085802 0.951215
O O1 0.648172 0.216873 0.566326
O O2 0.513010 0.344143 0.534380
O O3 0.389854 0.129186 0.672515
O O4 0.417702 0.076409 0.462573
O O5 0.123873 0.280108 0.085374
O O6 0.091587 0.491423 0.031339
O O7 0.968593 0.349897 0.211610
O O8 0.555074 0.956483 0.390227
O O9 0.284618 0.835611 0.347499
O O10 0.451391 0.075519 0.247954
O O11 0.293188 0.385417 0.259627
O O12 0.323123 0.201728 0.142939
O O13 0.527870 0.809859 0.810624
O O14 0.527951 0.949567 0.993627
O O15 0.321370 0.706845 0.956909
O O16 0.810237 0.343547 0.384740
#
# Coordination Sequence:
#
# PCOD9574431 Si02
#       8
#     3   3   3   3   3   3   3   3
#     4  11  23  38  60  88 128 165 211 263 325 380
#     4  11  21  38  65  90 124 162 210 267 319 382
#     4  11  22  36  60  96 124 160 210 269 322 380
#     4  11  22  38  65  94 123 169 207 272 324 382
#     4  11  22  34  63  89 125 158 208 270 308 379
#     4  11  18  35  58  97 119 149 205 264 329 360
#     4  11  23  38  62  96 125 163 208 266 327 390
#     4  11  23  39  61  90 126 172 207 263 322 383
#
# _framework density 19.771654000000002
#
# number of rings (size 3 to 8) (size 9 to 14) (size 15 to 20)
#    0.000    1.000    6.250    3.750    1.750    1.000 
#    0.000    0.000    5.500    0.000    0.000    0.000 
#    0.000    0.000    0.000    0.000    0.000    0.000 
#
# Total GULP energy -133974.913440 kJ/mol
# GULP energy per Si atom -5582.288060 kJ/mol
# Density = 1.972665 g / cm^3
# Si number density = 19.771654 Si / 1000 Ang^3
#
#
#
# Elastic Constant Matrix: (Units=GPa)
#
#
# Indices 1 2 3 4 5 6 
#
# 1 67.4074 19.7540 28.5552 4.9610 1.5599 0.0000
# 2 19.7540 67.4074 28.5552 -4.9610 -1.5599 0.0000
# 3 28.5552 28.5552 64.3990 0.0000 0.0000 0.0000
# 4 4.9610 -4.9610 0.0000 20.7630 0.0000 -1.5599
# 5 1.5599 -1.5599 0.0000 0.0000 20.7630 4.9610
# 6 0.0000 0.0000 0.0000 -1.5599 4.9610 23.8267
#
#
#
# Elastic Compliance Matrix: (Units=1/GPa)
#
#
# Indices 1 2 3 4 5 6 
#
# 1 0.019185 -0.003014 -0.007171 -0.005304 -0.001668 0.000000
# 2 -0.003014 0.019185 -0.007171 0.005304 0.001668 0.000000
# 3 -0.007171 -0.007171 0.021887 0.000000 0.000000 0.000000
# 4 -0.005304 0.005304 0.000000 0.050948 0.000000 0.003336
# 5 -0.001668 0.001668 0.000000 0.000000 0.050948 -0.010608
# 6 0.000000 0.000000 0.000000 0.003336 -0.010608 0.044397
#
#
# Mechanical properties :
#
#
# Convention : Reuss Voigt Hill
#
# Bulk Modulus (GPa) = 39.14255 39.21585 39.17920
# Shear Modulus (GPa) = 20.01804 21.22714 20.62259
#
# Velocity S-wave (km/s) = 3.18537 3.28016 3.23311
# Velocity P-wave (km/s) = 5.77660 5.85007 5.81345
#
# Compressibility (1/GPa) = 0.02554765
#
# Stress axis : x y z
#
# Youngs Moduli (GPa) = 52.12443 52.12443 45.68888
#
# Poissons Ratio (x) = 0.15708 0.32761
# Poissons Ratio (y) = 0.15708 0.32761
# Poissons Ratio (z) = 0.37376 0.37376
#
# Static dielectric constant tensor:
#      x y z
#    x 1.697120 0.000000 0.000000 
#    y 0.000000 1.697120 0.000000 
#    z 0.000000 0.000000 1.749290 
# 
# From -- ./inp_files/666.got.cif
#   From: 2010.05.17/outbox.cif.g08.bks.cpg/sg144_cif.got.tgz:666.got - 2010.05.20 13:46:34.
