data_PCOD9574499
_publ_section_title
;
Structure prediction by ZEFSAII (Michael W. Deem and Ramdas Pophale) SiO2 
 PCOD9574499
Probable space group: P 31
;
_chemical_formula_sum "Si O2"
_cell_formula_units_Z 12
_cell_length_a 9.615409
_cell_length_b 9.615409
_cell_length_c 6.762513
_cell_angle_alpha 90.000000
_cell_angle_beta 90.000000
_cell_angle_gamma 120.000000
_cell_volume 541.469837
_symmetry_space_group_name_H-M "P 31"
_symmetry_group_IT_number 144
_symmetry_cell_setting 'hexagonal'
loop_
_space_group_symop_operation_xyz
x,y,z
-y,x-y,1/3+z
-x+y,-x,2/3+z
loop_
_atom_site_type_symbol
_atom_site_label
_atom_site_fract_x
_atom_site_fract_y
_atom_site_fract_z
Si Si1 0.647430 0.951512 0.579120
Si Si2 0.618179 0.637415 0.412453
Si Si3 0.893583 0.046567 0.907605
Si Si4 0.513683 0.226917 0.074272
O O1 0.619159 0.801417 0.451376
O O2 0.484408 0.952492 0.618042
O O3 0.732426 0.946341 0.781835
O O4 0.764049 0.122727 0.478289
O O5 0.789394 0.692012 0.311622
O O6 0.613008 0.547248 0.615167
O O7 0.041816 0.089645 0.759478
O O8 0.618838 0.375150 0.926146
#
# Coordination Sequence:
#
# PCOD9574499 Si02
#       4
#     3   3   3   3
#     4  12  26  44  72 110 148 182 238 306 366 416
#     4  12  26  44  72 110 148 182 238 306 366 416
#     4  12  24  50  76 104 144 202 252 284 352 458
#     4  12  24  50  76 104 144 202 252 284 352 458
#
# _framework density 22.161895999999999
#
# number of rings (size 3 to 8) (size 9 to 14) (size 15 to 20)
#    0.000    0.000    5.000    6.000    0.000    4.000 
#    0.000    0.000    0.000    0.000    0.000    0.000 
#    0.000    0.000    0.000    0.000    0.000    0.000 
#
# Total GULP energy -67270.154293 kJ/mol
# GULP energy per Si atom -5605.846191 kJ/mol
# Density = 2.211145 g / cm^3
# Si number density = 22.161896 Si / 1000 Ang^3
#
#
#
# Elastic Constant Matrix: (Units=GPa)
#
#
# Indices 1 2 3 4 5 6 
#
# 1 71.7708 -16.8836 0.8476 -0.0001 -0.0002 0.0000
# 2 -16.8836 71.7708 0.8476 0.0001 0.0002 0.0000
# 3 0.8476 0.8476 70.4254 0.0000 0.0000 0.0000
# 4 -0.0001 0.0001 0.0000 27.0413 0.0000 0.0002
# 5 -0.0002 0.0002 0.0000 0.0000 27.0413 -0.0001
# 6 0.0000 0.0000 0.0000 0.0002 -0.0001 44.3272
#
#
#
# Elastic Compliance Matrix: (Units=1/GPa)
#
#
# Indices 1 2 3 4 5 6 
#
# 1 0.014753 0.003473 -0.000219 0.000000 0.000000 0.000000
# 2 0.003473 0.014753 -0.000219 0.000000 0.000000 0.000000
# 3 -0.000219 -0.000219 0.014205 0.000000 0.000000 0.000000
# 4 0.000000 0.000000 0.000000 0.036980 0.000000 0.000000
# 5 0.000000 0.000000 0.000000 0.000000 0.036980 0.000000
# 6 0.000000 0.000000 0.000000 0.000000 0.000000 0.022560
#
#
# Mechanical properties :
#
#
# Convention : Reuss Voigt Hill
#
# Bulk Modulus (GPa) = 20.08871 20.39890 20.24380
# Shear Modulus (GPa) = 33.16638 34.95900 34.06269
#
# Velocity S-wave (km/s) = 3.87272 3.97601 3.92470
# Velocity P-wave (km/s) = 5.39273 5.50478 5.44904
#
# Compressibility (1/GPa) = 0.04977921
#
# Stress axis : x y z
#
# Youngs Moduli (GPa) = 67.78349 67.78349 70.39927
#
# Poissons Ratio (x) = -0.23542 0.01544
# Poissons Ratio (y) = -0.23542 0.01544
# Poissons Ratio (z) = 0.01487 0.01487
#
# Static dielectric constant tensor:
#      x y z
#    x 1.786390 0.000000 0.000000 
#    y 0.000000 1.786390 0.000000 
#    z 0.000000 0.000000 1.785800 
# 
# From -- ./inp_files/47.got.cif
#   From: 2010.05.17/outbox.cif.g08.bks.cpg/sg144_cif.got.tgz:47.got - 2010.05.20 13:46:34.
