data_PCOD9574488
_publ_section_title
;
Structure prediction by ZEFSAII (Michael W. Deem and Ramdas Pophale) SiO2 
 PCOD9574488
Probable space group: P 31
;
_chemical_formula_sum "Si O2"
_cell_formula_units_Z 21
_cell_length_a 8.684006
_cell_length_b 8.684006
_cell_length_c 12.419814
_cell_angle_alpha 90.000000
_cell_angle_beta 90.000000
_cell_angle_gamma 120.000000
_cell_volume 811.121575
_symmetry_space_group_name_H-M "P 31"
_symmetry_group_IT_number 144
_symmetry_cell_setting 'hexagonal'
loop_
_space_group_symop_operation_xyz
x,y,z
-y,x-y,1/3+z
-x+y,-x,2/3+z
loop_
_atom_site_type_symbol
_atom_site_label
_atom_site_fract_x
_atom_site_fract_y
_atom_site_fract_z
Si Si1 0.224309 0.605437 0.077990
Si Si2 0.074691 0.362687 0.707397
Si Si3 0.747466 0.718441 0.498960
Si Si4 0.007732 0.972286 0.681567
Si Si5 0.614968 0.365148 0.755026
Si Si6 0.504044 0.080741 0.567946
Si Si7 0.299246 0.973401 0.143983
O O1 0.430789 0.663171 0.053559
O O2 0.218018 0.766238 0.134060
O O3 0.132820 0.451491 0.168824
O O4 0.091671 0.551669 0.973695
O O5 0.972809 0.354632 0.597020
O O6 0.976924 0.314547 0.822469
O O7 0.083303 0.184270 0.682459
O O8 0.893305 0.857934 0.580225
O O9 0.762074 0.541476 0.498250
O O10 0.789644 0.813213 0.380854
O O11 0.865070 0.854879 0.774121
O O12 0.575305 0.238939 0.653557
O O13 0.815069 0.466432 0.805609
O O14 0.593350 0.533144 0.730502
#
# Coordination Sequence:
#
# PCOD9574488 Si02
#       7
#     3   3   3   3   3   3   3
#     4  11  29  50  80 116 165 212 279 348 423 502
#     4  12  28  49  81 117 164 216 282 344 417 507
#     4  11  28  50  79 114 164 216 279 349 427 505
#     4  12  28  49  77 116 165 216 281 346 425 498
#     4  11  26  50  83 119 165 220 280 348 427 508
#     4  11  27  51  87 122 167 218 283 346 424 501
#     4  12  28  47  81 118 162 216 276 347 425 503
#
# _framework density 25.890075
#
# number of rings (size 3 to 8) (size 9 to 14) (size 15 to 20)
#    0.000    0.571    1.429    3.429   18.000    1.143 
#    0.000    0.000    0.000    0.000    0.000    0.000 
#    0.000    0.000    0.000    0.000    0.000    0.000 
#
# Total GULP energy -117018.261210 kJ/mol
# GULP energy per Si atom -5572.298153 kJ/mol
# Density = 2.583115 g / cm^3
# Si number density = 25.890075 Si / 1000 Ang^3
#
#
#
# Elastic Constant Matrix: (Units=GPa)
#
#
# Indices 1 2 3 4 5 6 
#
# 1 125.2184 56.7044 22.5995 7.8057 5.9190 0.0000
# 2 56.7044 125.2184 22.5995 -7.8057 -5.9190 0.0000
# 3 22.5995 22.5995 132.2546 0.0000 0.0000 0.0000
# 4 7.8057 -7.8057 0.0000 35.1019 0.0000 -5.9190
# 5 5.9190 -5.9190 0.0000 0.0000 35.1019 7.8057
# 6 0.0000 0.0000 0.0000 -5.9190 7.8057 34.2570
#
#
#
# Elastic Compliance Matrix: (Units=1/GPa)
#
#
# Indices 1 2 3 4 5 6 
#
# 1 0.010801 -0.005060 -0.000981 -0.003527 -0.002675 0.000000
# 2 -0.005060 0.010801 -0.000981 0.003527 0.002675 0.000000
# 3 -0.000981 -0.000981 0.007896 0.000000 0.000000 0.000000
# 4 -0.003527 0.003527 0.000000 0.030959 0.000000 0.005349
# 5 -0.002675 0.002675 0.000000 0.000000 0.030959 -0.007054
# 6 0.000000 0.000000 0.000000 0.005349 -0.007054 0.031723
#
#
# Mechanical properties :
#
#
# Convention : Reuss Voigt Hill
#
# Bulk Modulus (GPa) = 64.70914 65.16648 64.93781
# Shear Modulus (GPa) = 35.12835 39.61136 37.36986
#
# Velocity S-wave (km/s) = 3.68751 3.91574 3.80334
# Velocity P-wave (km/s) = 6.57102 6.75789 6.66511
#
# Compressibility (1/GPa) = 0.01545377
#
# Stress axis : x y z
#
# Youngs Moduli (GPa) = 92.58435 92.58435 126.63969
#
# Poissons Ratio (x) = 0.46851 0.12423
# Poissons Ratio (y) = 0.46851 0.12423
# Poissons Ratio (z) = 0.09082 0.09082
#
# Static dielectric constant tensor:
#      x y z
#    x 2.068340 0.000000 0.000000 
#    y 0.000000 2.068340 0.000000 
#    z 0.000000 0.000000 2.317720 
# 
# From -- ./inp_files/617.got.cif
#   From: 2010.05.17/outbox.cif.g08.bks.cpg/sg144_cif.got.tgz:617.got - 2010.05.20 13:46:34.
