data_PCOD9574044
_publ_section_title
;
Structure prediction by ZEFSAII (Michael W. Deem and Ramdas Pophale) SiO2 
 PCOD9574044
Probable space group: I 41/A C D
;
_chemical_formula_sum "Si O2"
_cell_formula_units_Z 176
_cell_length_a 23.856150
_cell_length_b 23.856150
_cell_length_c 13.266585
_cell_angle_alpha 90.000000
_cell_angle_beta 90.000000
_cell_angle_gamma 90.000000
_cell_volume 7550.224367
_symmetry_space_group_name_H-M "I 41/A C D"
_symmetry_group_IT_number 142
_space_group.IT_coordinate_system_code '2'
_symmetry_cell_setting 'tetragonal'
loop_
_space_group_symop_operation_xyz
x,y,z
1/4-y,3/4+x,1/4+z
-x,1/2-y,z
1/4+y,1/4-x,3/4+z
x,-y,1/2-z
1/2-x,y,-z
3/4+y,1/4+x,1/4-z
1/4-y,1/4-x,1/4-z
-x,-y,-z
3/4+y,1/4-x,3/4-z
x,1/2+y,-z
3/4-y,3/4+x,1/4-z
-x,y,1/2+z
1/2+x,-y,z
1/4-y,3/4-x,3/4+z
3/4+y,3/4+x,3/4+z
1/2+x,1/2+y,1/2+z
3/4-y,1/4+x,3/4+z
1/2-x,-y,1/2+z
3/4+y,3/4-x,1/4+z
1/2+x,1/2-y,-z
-x,1/2+y,1/2-z
1/4+y,3/4+x,3/4-z
3/4-y,3/4-x,3/4-z
1/2-x,1/2-y,1/2-z
1/4+y,3/4-x,1/4-z
1/2+x,y,1/2-z
1/4-y,1/4+x,3/4-z
1/2-x,1/2+y,z
x,1/2-y,1/2+z
3/4-y,1/4-x,1/4+z
1/4+y,1/4+x,1/4+z
loop_
_atom_site_type_symbol
_atom_site_label
_atom_site_fract_x
_atom_site_fract_y
_atom_site_fract_z
Si Si1 0.314611 0.935390 0.125000
Si Si2 0.691265 0.614059 0.902233
Si Si3 0.411326 0.758381 0.411013
Si Si4 0.192874 0.235364 0.307970
Si Si5 0.870245 0.786224 0.892090
Si Si6 0.311679 0.116950 0.970607
O O1 0.345778 0.922095 0.233859
O O2 0.248293 0.920075 0.127945
O O3 0.702790 0.679798 0.877503
O O4 0.646481 0.599095 0.817041
O O5 0.454330 0.809009 0.389108
O O6 0.348229 0.772430 0.376360
O O7 0.401254 0.746306 0.529479
O O8 0.250000 0.250000 0.250000
O O9 0.149955 0.233187 0.214223
O O10 0.914382 0.835619 0.875000
O O11 0.816681 0.818858 0.937078
O O12 0.330750 0.080750 0.875000
O O13 0.250000 0.101395 0.000000
#
# Coordination Sequence:
#
# PCOD9574044 Si02
#       6
#    16  32  32  32  32  32
#     4  10  26  40  70  98 162 197 248 308 361 474
#     4  11  23  45  64 107 150 203 255 298 385 452
#     4  11  25  47  78 111 147 196 255 322 389 471
#     4  12  28  48  75 109 150 198 256 321 397 477
#     4  11  23  48  70 106 144 188 248 308 379 456
#     4  11  22  36  68 102 139 189 243 303 361 450
#
# _framework density 23.310566999999999
#
# number of rings (size 3 to 8) (size 9 to 14) (size 15 to 20)
#    0.000    0.909    5.455    1.091    6.364    5.091 
#    0.000    0.000    0.000    0.000    0.000    0.000 
#    0.000    0.000    0.000    0.000    0.000    0.000 
#
# Total GULP energy -490044.539245 kJ/mol
# GULP energy per Si atom -5568.687946 kJ/mol
# Density = 2.325751 g / cm^3
# Si number density = 23.310567 Si / 1000 Ang^3
#
#
#
# Elastic Constant Matrix: (Units=GPa)
#
#
# Indices 1 2 3 4 5 6 
#
# 1 67.8271 32.4659 30.2095 0.0000 0.0000 0.0000
# 2 32.4659 67.8282 30.2088 0.0000 0.0000 0.0000
# 3 30.2095 30.2088 164.4045 0.0000 0.0000 0.0000
# 4 0.0000 0.0000 0.0000 17.9794 0.0000 0.0000
# 5 0.0000 0.0000 0.0000 0.0000 17.9797 0.0000
# 6 0.0000 0.0000 0.0000 0.0000 0.0000 23.6274
#
#
#
# Elastic Compliance Matrix: (Units=1/GPa)
#
#
# Indices 1 2 3 4 5 6 
#
# 1 0.019746 -0.008534 -0.002060 0.000000 0.000000 0.000000
# 2 -0.008534 0.019745 -0.002060 0.000000 0.000000 0.000000
# 3 -0.002060 -0.002060 0.006840 0.000000 0.000000 0.000000
# 4 0.000000 0.000000 0.000000 0.055619 0.000000 0.000000
# 5 0.000000 0.000000 0.000000 0.000000 0.055618 0.000000
# 6 0.000000 0.000000 0.000000 0.000000 0.000000 0.042324
#
#
# Mechanical properties :
#
#
# Convention : Reuss Voigt Hill
#
# Bulk Modulus (GPa) = 47.56776 53.98090 50.77433
# Shear Modulus (GPa) = 21.53250 25.72902 23.63076
#
# Velocity S-wave (km/s) = 3.04258 3.32588 3.18738
# Velocity P-wave (km/s) = 5.72656 6.16086 5.94767
#
# Compressibility (1/GPa) = 0.02102264
#
# Stress axis : x y z
#
# Youngs Moduli (GPa) = 50.64402 50.64514 146.20609
#
# Poissons Ratio (x) = 0.43219 0.30122
# Poissons Ratio (y) = 0.43218 0.30119
# Poissons Ratio (z) = 0.10434 0.10433
#
# Static dielectric constant tensor:
#      x y z
#    x 1.937930 0.000000 0.000000 
#    y 0.000000 1.937920 0.000000 
#    z 0.000000 0.000000 1.938410 
# 
# From -- ./inp_files/3953.got.cif
#   From: 2010.05.17/outbox.cif.g08.bks.cpg/sg142_2_cif.got.tgz:3953.got - 2010.05.20 13:39:18.
