data_PCOD9574087
_publ_section_title
;
Structure prediction by ZEFSAII (Michael W. Deem and Ramdas Pophale) SiO2 
 PCOD9574087
Probable space group: I 41/A C D
;
_chemical_formula_sum "Si O2"
_cell_formula_units_Z 72
_cell_length_a 8.969636
_cell_length_b 8.969636
_cell_length_c 33.725769
_cell_angle_alpha 90.000000
_cell_angle_beta 90.000000
_cell_angle_gamma 90.000000
_cell_volume 2713.385497
_symmetry_space_group_name_H-M "I 41/A C D"
_symmetry_group_IT_number 142
_space_group.IT_coordinate_system_code '2'
_symmetry_cell_setting 'tetragonal'
loop_
_space_group_symop_operation_xyz
x,y,z
1/4-y,3/4+x,1/4+z
-x,1/2-y,z
1/4+y,1/4-x,3/4+z
x,-y,1/2-z
1/2-x,y,-z
3/4+y,1/4+x,1/4-z
1/4-y,1/4-x,1/4-z
-x,-y,-z
3/4+y,1/4-x,3/4-z
x,1/2+y,-z
3/4-y,3/4+x,1/4-z
-x,y,1/2+z
1/2+x,-y,z
1/4-y,3/4-x,3/4+z
3/4+y,3/4+x,3/4+z
1/2+x,1/2+y,1/2+z
3/4-y,1/4+x,3/4+z
1/2-x,-y,1/2+z
3/4+y,3/4-x,1/4+z
1/2+x,1/2-y,-z
-x,1/2+y,1/2-z
1/4+y,3/4+x,3/4-z
3/4-y,3/4-x,3/4-z
1/2-x,1/2-y,1/2-z
1/4+y,3/4-x,1/4-z
1/2+x,y,1/2-z
1/4-y,1/4+x,3/4-z
1/2-x,1/2+y,z
x,1/2-y,1/2+z
3/4-y,1/4-x,1/4+z
1/4+y,1/4+x,1/4+z
loop_
_atom_site_type_symbol
_atom_site_label
_atom_site_fract_x
_atom_site_fract_y
_atom_site_fract_z
Si Si1 0.794460 0.855459 0.833094
Si Si2 0.000000 0.750000 0.625000
Si Si3 0.361158 0.549068 0.528442
O O1 0.620894 0.825343 0.845465
O O2 0.807051 0.991343 0.801439
O O3 0.856789 0.703088 0.815171
O O4 0.862022 0.887979 0.875000
O O5 0.250000 0.640076 0.500000
O O6 0.500000 0.500000 0.500000
#
# Coordination Sequence:
#
# PCOD9574087 Si02
#       3
#    32   8  32
#     4  11  21  41  73 105 151 203 254 321 371 461
#     4  12  24  40  68 108 148 188 274 308 376 456
#     4   9  20  41  72 103 150 200 252 315 386 454
#
# _framework density 26.535114
#
# number of rings (size 3 to 8) (size 9 to 14) (size 15 to 20)
#    0.000    1.778    4.444    0.000    0.000    0.000 
#    0.000   11.111    0.000    0.000    0.000    0.000 
#    0.000    0.000    0.000    0.000    0.000    0.000 
#
# Total GULP energy -200577.089257 kJ/mol
# GULP energy per Si atom -5571.585813 kJ/mol
# Density = 2.647472 g / cm^3
# Si number density = 26.535114 Si / 1000 Ang^3
#
#
#
# Elastic Constant Matrix: (Units=GPa)
#
#
# Indices 1 2 3 4 5 6 
#
# 1 153.3458 38.3122 76.0450 0.0000 0.0000 0.0000
# 2 38.3122 153.3466 76.0443 0.0000 0.0000 0.0000
# 3 76.0450 76.0443 185.5407 0.0000 0.0000 0.0000
# 4 0.0000 0.0000 0.0000 36.0721 0.0000 0.0000
# 5 0.0000 0.0000 0.0000 0.0000 36.0721 0.0000
# 6 0.0000 0.0000 0.0000 0.0000 0.0000 13.3178
#
#
#
# Elastic Compliance Matrix: (Units=1/GPa)
#
#
# Indices 1 2 3 4 5 6 
#
# 1 0.008213 -0.000480 -0.003169 0.000000 0.000000 0.000000
# 2 -0.000480 0.008213 -0.003169 0.000000 0.000000 0.000000
# 3 -0.003169 -0.003169 0.007987 0.000000 0.000000 0.000000
# 4 0.000000 0.000000 0.000000 0.027722 0.000000 0.000000
# 5 0.000000 0.000000 0.000000 0.000000 0.027722 0.000000
# 6 0.000000 0.000000 0.000000 0.000000 0.000000 0.075087
#
#
# Mechanical properties :
#
#
# Convention : Reuss Voigt Hill
#
# Bulk Modulus (GPa) = 92.80145 97.00400 94.90272
# Shear Modulus (GPa) = 29.04038 37.21452 33.12745
#
# Velocity S-wave (km/s) = 3.31178 3.74901 3.53716
# Velocity P-wave (km/s) = 7.04790 7.44153 7.24738
#
# Compressibility (1/GPa) = 0.01077569
#
# Stress axis : x y z
#
# Youngs Moduli (GPa) = 121.76049 121.76187 125.19601
#
# Poissons Ratio (x) = 0.05848 0.39678
# Poissons Ratio (y) = 0.05848 0.39677
# Poissons Ratio (z) = 0.38589 0.38588
#
# Static dielectric constant tensor:
#      x y z
#    x 2.192930 0.000000 0.000000 
#    y 0.000000 2.192940 0.000000 
#    z 0.000000 0.000000 2.079960 
# 
# From -- ./inp_files/10779.got.cif
#   From: 2010.05.17/outbox.cif.g08.bks.cpg/sg142_6_cif.got.tgz:10779.got - 2010.05.20 13:39:18.
