data_PCOD9574502
_publ_section_title
;
Structure prediction by ZEFSAII (Michael W. Deem and Ramdas Pophale) SiO2 
 PCOD9574502
Probable space group: P 31
;
_chemical_formula_sum "Si O2"
_cell_formula_units_Z 12
_cell_length_a 8.530997
_cell_length_b 8.530997
_cell_length_c 7.804675
_cell_angle_alpha 90.000000
_cell_angle_beta 90.000000
_cell_angle_gamma 120.000000
_cell_volume 491.909300
_symmetry_space_group_name_H-M "P 31"
_symmetry_group_IT_number 144
_symmetry_cell_setting 'hexagonal'
loop_
_space_group_symop_operation_xyz
x,y,z
-y,x-y,1/3+z
-x+y,-x,2/3+z
loop_
_atom_site_type_symbol
_atom_site_label
_atom_site_fract_x
_atom_site_fract_y
_atom_site_fract_z
Si Si1 0.556548 0.801293 0.796410
Si Si2 0.630547 0.801332 0.425193
Si Si3 0.534629 0.446180 0.953386
Si Si4 0.779263 0.195212 0.946822
O O1 0.666227 0.822679 0.625324
O O2 0.362124 0.781085 0.744550
O O3 0.549418 0.633153 0.890758
O O4 0.657931 0.986917 0.897482
O O5 0.749888 0.730164 0.337130
O O6 0.659116 0.991044 0.361235
O O7 0.528418 0.329411 0.786022
O O8 0.679637 0.501433 0.108404
#
# Coordination Sequence:
#
# PCOD9574502 Si02
#       4
#     3   3   3   3
#     4  12  24  52  86 116 163 227 284 352 427 501
#     4  12  24  52  86 116 163 227 284 352 427 501
#     4  12  26  55  84 123 172 220 294 349 432 499
#     4  12  28  49  90 125 166 228 288 353 426 517
#
# _framework density 24.394739999999999
#
# number of rings (size 3 to 8) (size 9 to 14) (size 15 to 20)
#    0.000    0.000    7.500    1.500    0.000    4.000 
#   18.000    0.000    0.000    0.000    0.000    0.000 
#    0.000    0.000    0.000    0.000    0.000    0.000 
#
# Total GULP energy -67096.872552 kJ/mol
# GULP energy per Si atom -5591.406046 kJ/mol
# Density = 2.433922 g / cm^3
# Si number density = 24.394740 Si / 1000 Ang^3
#
#
#
# Elastic Constant Matrix: (Units=GPa)
#
#
# Indices 1 2 3 4 5 6 
#
# 1 56.9661 29.8916 23.1905 -41.0348 -22.8089 0.0000
# 2 29.8916 56.9661 23.1905 41.0348 22.8089 0.0000
# 3 23.1905 23.1905 146.5682 0.0000 0.0000 0.0000
# 4 -41.0348 41.0348 0.0000 -90.2479 0.0000 22.8089
# 5 -22.8089 22.8089 0.0000 0.0000 -90.2479 -41.0348
# 6 0.0000 0.0000 0.0000 22.8089 -41.0348 13.5373
#
#
#
# Elastic Compliance Matrix: (Units=1/GPa)
#
#
# Indices 1 2 3 4 5 6 
#
# 1 0.012874 -0.000298 -0.001990 -0.005989 -0.003329 0.000000
# 2 -0.000298 0.012874 -0.001990 0.005989 0.003329 0.000000
# 3 -0.001990 -0.001990 0.007452 0.000000 0.000000 0.000000
# 4 -0.005989 0.005989 0.000000 -0.003952 0.000000 0.006658
# 5 -0.003329 0.003329 0.000000 0.000000 -0.003952 -0.011978
# 6 0.000000 0.000000 0.000000 0.006658 -0.011978 0.026344
#
#
# Mechanical properties :
#
#
# Convention : Reuss Voigt Hill
#
# Bulk Modulus (GPa) = 40.57689 45.89397 43.23543
# Shear Modulus (GPa) = 73.08850 -21.10985 25.98932
#
# Velocity S-wave (km/s) = 5.47958 -2.94487 3.26754
# Velocity P-wave (km/s) = 7.53020 2.70017 5.65663
#
# Compressibility (1/GPa) = 0.02464457
#
# Stress axis : x y z
#
# Youngs Moduli (GPa) = 77.67792 77.67792 134.18479
#
# Poissons Ratio (x) = 0.02316 0.26699
# Poissons Ratio (y) = 0.02316 0.26699
# Poissons Ratio (z) = 0.15456 0.15456
#
# Static dielectric constant tensor:
#      x y z
#    x 2.699740 0.000000 0.000000 
#    y 0.000000 2.699740 0.000000 
#    z 0.000000 0.000000 2.003940 
# 
# From -- ./inp_files/221.got.cif
#   From: 2010.05.17/outbox.cif.g08.bks.cpg/sg144_cif.got.tgz:221.got - 2010.05.20 13:46:34.
