data_PCOD9574591
_publ_section_title
;
Structure prediction by ZEFSAII (Michael W. Deem and Ramdas Pophale) SiO2 
 PCOD9574591
Probable space group: P 32
;
_chemical_formula_sum "Si O2"
_cell_formula_units_Z 18
_cell_length_a 10.689535
_cell_length_b 10.689535
_cell_length_c 7.127699
_cell_angle_alpha 90.000000
_cell_angle_beta 90.000000
_cell_angle_gamma 120.000000
_cell_volume 705.338533
_symmetry_space_group_name_H-M "P 32"
_symmetry_group_IT_number 145
_symmetry_cell_setting 'hexagonal'
loop_
_space_group_symop_operation_xyz
x,y,z
-y,x-y,2/3+z
-x+y,-x,1/3+z
loop_
_atom_site_type_symbol
_atom_site_label
_atom_site_fract_x
_atom_site_fract_y
_atom_site_fract_z
Si Si1 0.868944 0.353986 0.540490
Si Si2 0.944408 0.589549 0.072893
Si Si3 0.871684 0.981634 0.272559
Si Si4 0.937052 0.207316 0.857219
Si Si5 0.646175 0.964848 0.828182
Si Si6 0.598058 0.668646 0.852314
O O1 0.716990 0.228959 0.449336
O O2 0.869109 0.288879 0.743026
O O3 0.928963 0.522600 0.577811
O O4 0.986673 0.372758 0.381146
O O5 0.960277 0.716402 0.935979
O O6 0.015820 0.663909 0.271498
O O7 0.031069 0.502321 0.054176
O O8 0.997698 0.068042 0.430382
O O9 0.772743 0.831449 0.381184
O O10 0.813975 0.042615 0.871317
O O11 0.001405 0.258828 0.060563
O O12 0.560156 0.795816 0.880083
#
# Coordination Sequence:
#
# PCOD9574591 Si02
#       6
#     3   3   3   3   3   3
#     4  10  24  46  65 100 139 184 233 287 359 435
#     4  10  23  44  68 101 140 178 240 287 352 442
#     4  12  24  43  72 102 140 183 244 300 349 422
#     4  11  23  43  68  99 133 179 232 286 349 425
#     4  10  22  46  68 100 140 177 233 299 347 429
#     4  11  24  46  69 106 138 187 226 301 364 417
#
# _framework density 25.519659999999998
#
# number of rings (size 3 to 8) (size 9 to 14) (size 15 to 20)
#    0.000    1.333    5.000    0.000    4.667    5.333 
#    9.000    0.000    0.000    0.000    0.000    0.000 
#    0.000    0.000    0.000    0.000    0.000    0.000 
#
# Total GULP energy -100322.168074 kJ/mol
# GULP energy per Si atom -5573.453782 kJ/mol
# Density = 2.546158 g / cm^3
# Si number density = 25.519660 Si / 1000 Ang^3
#
#
#
# Elastic Constant Matrix: (Units=GPa)
#
#
# Indices 1 2 3 4 5 6 
#
# 1 123.7164 55.4873 5.1413 3.1843 -2.9003 0.0000
# 2 55.4873 123.7164 5.1413 -3.1843 2.9003 0.0000
# 3 5.1413 5.1413 85.3688 0.0000 0.0000 0.0000
# 4 3.1843 -3.1843 0.0000 38.0981 0.0000 2.9003
# 5 -2.9003 2.9003 0.0000 0.0000 38.0981 3.1843
# 6 0.0000 0.0000 0.0000 2.9003 3.1843 34.1146
#
#
#
# Elastic Compliance Matrix: (Units=1/GPa)
#
#
# Indices 1 2 3 4 5 6 
#
# 1 0.010234 -0.004635 -0.000337 -0.001243 0.001132 0.000000
# 2 -0.004635 0.010234 -0.000337 0.001243 -0.001132 0.000000
# 3 -0.000337 -0.000337 0.011755 0.000000 0.000000 0.000000
# 4 -0.001243 0.001243 0.000000 0.026628 0.000000 -0.002264
# 5 0.001132 -0.001132 0.000000 0.000000 0.026628 -0.002485
# 6 0.000000 0.000000 0.000000 -0.002264 -0.002485 0.029737
#
#
# Mechanical properties :
#
#
# Convention : Reuss Voigt Hill
#
# Bulk Modulus (GPa) = 46.28608 51.59346 48.93977
# Shear Modulus (GPa) = 37.58378 39.86427 38.72402
#
# Velocity S-wave (km/s) = 3.84179 3.95663 3.89963
# Velocity P-wave (km/s) = 6.15272 6.41360 6.28451
#
# Compressibility (1/GPa) = 0.02160477
#
# Stress axis : x y z
#
# Youngs Moduli (GPa) = 97.71202 97.71202 85.07376
#
# Poissons Ratio (x) = 0.45285 0.02869
# Poissons Ratio (y) = 0.45285 0.02869
# Poissons Ratio (z) = 0.03295 0.03295
#
# Static dielectric constant tensor:
#      x y z
#    x 2.163480 0.000000 0.000000 
#    y 0.000000 2.163480 0.000000 
#    z 0.000000 0.000000 2.015510 
# 
# From -- ./inp_files/343.got.cif
#   From: 2010.05.17/outbox.cif.g08.bks.cpg/sg145_cif.got.tgz:343.got - 2010.05.20 13:47:28.
