data_PCOD9574647
_publ_section_title
;
Structure prediction by ZEFSAII (Michael W. Deem and Ramdas Pophale) SiO2 
 PCOD9574647
Probable space group: P 32
;
_chemical_formula_sum "Si O2"
_cell_formula_units_Z 15
_cell_length_a 7.144561
_cell_length_b 7.144561
_cell_length_c 12.337955
_cell_angle_alpha 90.000000
_cell_angle_beta 90.000000
_cell_angle_gamma 120.000000
_cell_volume 545.412279
_symmetry_space_group_name_H-M "P 32"
_symmetry_group_IT_number 145
_symmetry_cell_setting 'hexagonal'
loop_
_space_group_symop_operation_xyz
x,y,z
-y,x-y,2/3+z
-x+y,-x,1/3+z
loop_
_atom_site_type_symbol
_atom_site_label
_atom_site_fract_x
_atom_site_fract_y
_atom_site_fract_z
Si Si1 0.066776 0.779579 0.626310
Si Si2 0.463393 0.789695 0.349098
Si Si3 0.834840 0.576293 0.168358
Si Si4 0.878157 0.654088 0.845220
Si Si5 0.626928 0.021916 0.743753
O O1 0.234087 0.757783 0.388221
O O2 0.155229 0.613950 0.652447
O O3 0.959151 0.788990 0.736085
O O4 0.919199 0.686683 0.519441
O O5 0.637797 0.932239 0.442498
O O6 0.572447 0.937823 0.243492
O O7 0.982931 0.221051 0.254951
O O8 0.864259 0.606889 0.297987
O O9 0.629228 0.574048 0.114726
O O10 0.675597 0.428894 0.812264
#
# Coordination Sequence:
#
# PCOD9574647 Si02
#       5
#     3   3   3   3   3
#     4  12  27  52  79 122 167 218 289 352 426 511
#     4  12  24  49  85 111 165 222 279 349 432 501
#     4  12  24  48  79 121 165 219 278 351 425 503
#     4  12  27  52  82 120 164 225 285 352 428 513
#     4  12  24  47  79 118 165 218 277 346 425 500
#
# _framework density 27.502129
#
# number of rings (size 3 to 8) (size 9 to 14) (size 15 to 20)
#    0.000    0.000    6.000    3.600    0.000    0.000 
#   14.400    0.000    0.000    0.000    0.000    0.000 
#    0.000    0.000    0.000    0.000    0.000    0.000 
#
# Total GULP energy -84011.132003 kJ/mol
# GULP energy per Si atom -5600.742134 kJ/mol
# Density = 2.743953 g / cm^3
# Si number density = 27.502129 Si / 1000 Ang^3
#
#
#
# Elastic Constant Matrix: (Units=GPa)
#
#
# Indices 1 2 3 4 5 6 
#
# 1 108.7719 44.4059 35.7684 -12.4649 -5.3245 0.0000
# 2 44.4059 108.7719 35.7684 12.4649 5.3245 0.0000
# 3 35.7684 35.7684 232.5689 0.0000 0.0000 0.0000
# 4 -12.4649 12.4649 0.0000 14.5850 0.0000 5.3245
# 5 -5.3245 5.3245 0.0000 0.0000 14.5850 -12.4649
# 6 0.0000 0.0000 0.0000 5.3245 -12.4649 32.1830
#
#
#
# Elastic Compliance Matrix: (Units=1/GPa)
#
#
# Indices 1 2 3 4 5 6 
#
# 1 0.016281 -0.009247 -0.001082 0.021817 0.009319 0.000000
# 2 -0.009247 0.016281 -0.001082 -0.021817 -0.009319 0.000000
# 3 -0.001082 -0.001082 0.004633 0.000000 0.000000 0.000000
# 4 0.021817 -0.021817 0.000000 0.112660 0.000000 -0.018639
# 5 0.009319 -0.009319 0.000000 0.000000 0.112660 0.043634
# 6 0.000000 0.000000 0.000000 -0.018639 0.043634 0.051056
#
#
# Mechanical properties :
#
#
# Convention : Reuss Voigt Hill
#
# Bulk Modulus (GPa) = 69.57643 75.77758 72.67700
# Shear Modulus (GPa) = 14.65493 34.54860 24.60177
#
# Velocity S-wave (km/s) = 2.31089 3.54816 2.99413
# Velocity P-wave (km/s) = 5.69858 6.66326 6.19971
#
# Compressibility (1/GPa) = 0.01437268
#
# Stress axis : x y z
#
# Youngs Moduli (GPa) = 61.42207 61.42207 215.86441
#
# Poissons Ratio (x) = 0.56798 0.23351
# Poissons Ratio (y) = 0.56798 0.23351
# Poissons Ratio (z) = 0.06644 0.06644
#
# Static dielectric constant tensor:
#      x y z
#    x 2.153260 0.000000 0.000000 
#    y 0.000000 2.153260 0.000000 
#    z 0.000000 0.000000 2.130750 
# 
# From -- ./inp_files/483.got.cif
#   From: 2010.05.17/outbox.cif.g08.bks.cpg/sg145_cif.got.tgz:483.got - 2010.05.20 13:47:28.
