data_PCOD9574799
_publ_section_title
;
Structure prediction by ZEFSAII (Michael W. Deem and Ramdas Pophale) SiO2 
 PCOD9574799
Probable space group: R 3
;
_chemical_formula_sum "Si O2"
_cell_formula_units_Z 51
_cell_length_a 17.204714
_cell_length_b 17.204714
_cell_length_c 8.983493
_cell_angle_alpha 90.000000
_cell_angle_beta 90.000000
_cell_angle_gamma 120.000000
_cell_volume 2302.877203
_symmetry_space_group_name_H-M "R 3"
_symmetry_group_IT_number 146
_symmetry_cell_setting 'hexagonal'
loop_
_space_group_symop_operation_xyz
x,y,z
-y,x-y,z
-x+y,-x,z
2/3+x,1/3+y,1/3+z
2/3-y,1/3+x-y,1/3+z
2/3-x+y,1/3-x,1/3+z
1/3+x,2/3+y,2/3+z
1/3-y,2/3+x-y,2/3+z
1/3-x+y,2/3-x,2/3+z
loop_
_atom_site_type_symbol
_atom_site_label
_atom_site_fract_x
_atom_site_fract_y
_atom_site_fract_z
Si Si1 0.000000 0.000000 0.264075
Si Si2 0.333333 0.666667 0.289454
Si Si3 0.489701 0.377974 0.369256
Si Si4 0.778365 0.160018 0.604522
Si Si5 0.839982 0.330849 0.457541
Si Si6 0.507280 0.253383 0.159478
Si Si7 0.557844 0.925282 0.255189
O O1 0.086119 0.995951 0.200982
O O2 0.000000 0.000000 0.445086
O O3 0.243313 0.590866 0.369193
O O4 0.439633 0.303494 0.493217
O O5 0.563225 0.471459 0.442067
O O6 0.541976 0.342728 0.263328
O O7 0.410767 0.379036 0.276625
O O8 0.854025 0.259118 0.552174
O O9 0.740698 0.159245 0.767730
O O10 0.792781 0.074155 0.591798
O O11 0.821197 0.296500 0.286380
O O12 0.434460 0.258019 0.057544
#
# Coordination Sequence:
#
# PCOD9574799 Si02
#       7
#     3   3   9   9   9   9   9
#     4  12  19  35  55  87 133 158 208 264 340 383
#     4  12  22  35  61 102 112 158 217 279 319 392
#     4  11  21  39  63  88 136 175 214 273 353 407
#     4  11  22  36  64 100 134 168 231 288 345 401
#     4  11  22  39  61  91 129 182 212 279 347 412
#     4  11  21  38  63  88 129 164 220 271 336 395
#     4  12  23  40  63 102 131 171 224 292 338 414
#
# _framework density 22.146208999999999
#
# number of rings (size 3 to 8) (size 9 to 14) (size 15 to 20)
#    0.000    0.706    8.824    1.059    2.471    0.000 
#    0.000    0.000    0.000    4.235    0.000    0.000 
#    0.000    0.000    0.000    0.000    0.000    0.000 
#
# Total GULP energy -94761.111288 kJ/mol
# GULP energy per Si atom -5574.183017 kJ/mol
# Density = 2.209580 g / cm^3
# Si number density = 22.146209 Si / 1000 Ang^3
#
#
#
# Elastic Constant Matrix: (Units=GPa)
#
#
# Indices 1 2 3 4 5 6 
#
# 1 29.2039 -4.0068 2.9008 3.4973 4.3063 -0.0001
# 2 -4.0068 29.2040 2.9008 -3.4973 -4.3064 0.0000
# 3 2.9008 2.9008 154.5410 0.0000 -0.0001 0.0000
# 4 3.4973 -3.4973 0.0000 19.3416 0.0000 -4.3064
# 5 4.3063 -4.3064 -0.0001 0.0000 19.3415 3.4974
# 6 -0.0001 0.0000 0.0000 -4.3064 3.4974 16.6053
#
#
#
# Elastic Compliance Matrix: (Units=1/GPa)
#
#
# Indices 1 2 3 4 5 6 
#
# 1 0.036581 0.003279 -0.000748 -0.006022 -0.007415 0.000000
# 2 0.003279 0.036581 -0.000748 0.006022 0.007415 0.000000
# 3 -0.000748 -0.000748 0.006499 0.000000 0.000000 0.000000
# 4 -0.006022 0.006022 0.000000 0.057181 0.000000 0.014829
# 5 -0.007415 0.007415 0.000000 0.000000 0.057182 -0.012043
# 6 0.000000 0.000000 0.000000 0.014829 -0.012043 0.066604
#
#
# Mechanical properties :
#
#
# Convention : Reuss Voigt Hill
#
# Bulk Modulus (GPa) = 12.01564 24.05984 18.03774
# Shear Modulus (GPa) = 17.55595 25.13463 21.34529
#
# Velocity S-wave (km/s) = 2.81860 3.37254 3.10794
# Velocity P-wave (km/s) = 4.00375 5.10422 4.58711
#
# Compressibility (1/GPa) = 0.08322486
#
# Stress axis : x y z
#
# Youngs Moduli (GPa) = 27.33686 27.33693 153.87313
#
# Poissons Ratio (x) = -0.08963 0.11512
# Poissons Ratio (y) = -0.08963 0.11513
# Poissons Ratio (z) = 0.02045 0.02045
#
# Static dielectric constant tensor:
#      x y z
#    x 1.889800 0.000000 0.000000 
#    y 0.000000 1.889800 0.000000 
#    z 0.000000 0.000000 1.821460 
# 
# From -- ./inp_files/658.got.cif
#   From: 2010.05.17/outbox.cif.g08.bks.cpg/sg146_cif.got.tgz:658.got - 2010.05.20 13:48:23.
