data_PCOD9574810
_publ_section_title
;
Structure prediction by ZEFSAII (Michael W. Deem and Ramdas Pophale) SiO2 
 PCOD9574810
Probable space group: R 3
;
_chemical_formula_sum "Si O2"
_cell_formula_units_Z 51
_cell_length_a 16.688080
_cell_length_b 16.688080
_cell_length_c 8.324164
_cell_angle_alpha 90.000000
_cell_angle_beta 90.000000
_cell_angle_gamma 120.000000
_cell_volume 2007.631521
_symmetry_space_group_name_H-M "R 3"
_symmetry_group_IT_number 146
_symmetry_cell_setting 'hexagonal'
loop_
_space_group_symop_operation_xyz
x,y,z
-y,x-y,z
-x+y,-x,z
2/3+x,1/3+y,1/3+z
2/3-y,1/3+x-y,1/3+z
2/3-x+y,1/3-x,1/3+z
1/3+x,2/3+y,2/3+z
1/3-y,2/3+x-y,2/3+z
1/3-x+y,2/3-x,2/3+z
loop_
_atom_site_type_symbol
_atom_site_label
_atom_site_fract_x
_atom_site_fract_y
_atom_site_fract_z
Si Si1 0.500641 0.534527 0.380850
Si Si2 0.911810 0.210111 0.707903
Si Si3 0.333334 0.666668 0.790943
Si Si4 0.666668 0.333334 0.082879
Si Si5 0.318232 0.379533 0.838151
Si Si6 0.148569 0.568077 0.936522
Si Si7 0.977715 0.836939 0.590778
O O1 0.531047 0.507711 0.214341
O O2 0.573332 0.644066 0.395927
O O3 0.481710 0.453051 0.502352
O O4 0.395314 0.515099 0.367295
O O5 0.868914 0.273578 0.650309
O O6 0.864422 0.120480 0.590891
O O7 0.333334 0.666667 0.602598
O O8 0.239804 0.580383 0.855576
O O9 0.609341 0.233703 0.006560
O O10 0.342087 0.339355 0.675681
O O11 0.386087 0.489223 0.828062
O O12 0.180074 0.635753 0.091899
#
# Coordination Sequence:
#
# PCOD9574810 Si02
#       7
#     9   9   3   3   9   9   9
#     4  11  25  43  75 109 156 201 254 324 393 476
#     4  11  25  46  74 114 151 207 258 330 401 465
#     4  12  31  44  73 114 148 206 262 330 391 479
#     4  12  25  44  79 105 145 200 259 324 379 476
#     4  12  26  50  82 119 158 215 265 324 401 488
#     4  11  26  48  75 110 153 200 270 324 390 482
#     4  11  22  47  76 103 143 203 256 312 391 474
#
# _framework density 25.403067
#
# number of rings (size 3 to 8) (size 9 to 14) (size 15 to 20)
#    0.000    0.706    1.765    6.353    7.412    1.412 
#    3.176    0.000    0.000    0.000    0.000    0.000 
#    0.000    0.000    0.000    0.000    0.000    0.000 
#
# Total GULP energy -94973.360205 kJ/mol
# GULP energy per Si atom -5586.668247 kJ/mol
# Density = 2.534525 g / cm^3
# Si number density = 25.403067 Si / 1000 Ang^3
#
#
#
# Elastic Constant Matrix: (Units=GPa)
#
#
# Indices 1 2 3 4 5 6 
#
# 1 140.7612 20.1289 32.1472 18.6146 -1.0384 -0.0074
# 2 20.1289 140.7500 32.1499 -18.6101 1.0358 0.0050
# 3 32.1472 32.1499 59.3337 -0.0016 0.0000 0.0002
# 4 18.6146 -18.6101 -0.0016 49.2032 -0.0082 1.0224
# 5 -1.0384 1.0358 0.0000 -0.0082 49.2201 18.6243
# 6 -0.0074 0.0050 0.0002 1.0224 18.6243 60.3208
#
#
#
# Elastic Compliance Matrix: (Units=1/GPa)
#
#
# Indices 1 2 3 4 5 6 
#
# 1 0.008661 -0.000728 -0.004298 -0.003552 0.000197 0.000000
# 2 -0.000728 0.008662 -0.004299 0.003551 -0.000197 0.000000
# 3 -0.004298 -0.004299 0.021512 0.000001 0.000000 0.000000
# 4 -0.003552 0.003551 0.000001 0.023019 0.000002 -0.000392
# 5 0.000197 -0.000197 0.000000 0.000002 0.023014 -0.007106
# 6 0.000000 0.000000 0.000000 -0.000392 -0.007106 0.018779
#
#
# Mechanical properties :
#
#
# Convention : Reuss Voigt Hill
#
# Bulk Modulus (GPa) = 49.54243 56.63298 53.08770
# Shear Modulus (GPa) = 38.75210 48.84342 43.79776
#
# Velocity S-wave (km/s) = 3.90999 4.38966 4.15675
# Velocity P-wave (km/s) = 6.31893 6.93068 6.63186
#
# Compressibility (1/GPa) = 0.02018472
#
# Stress axis : x y z
#
# Youngs Moduli (GPa) = 115.45770 115.44846 46.48563
#
# Poissons Ratio (x) = 0.08404 0.19981
# Poissons Ratio (y) = 0.08405 0.19984
# Poissons Ratio (z) = 0.49627 0.49630
#
# Static dielectric constant tensor:
#      x y z
#    x 1.775360 0.000060 0.000000 
#    y 0.000060 1.775100 0.000000 
#    z 0.000000 0.000000 2.001360 
# 
# From -- ./inp_files/697.got.cif
#   From: 2010.05.17/outbox.cif.g08.bks.cpg/sg146_cif.got.tgz:697.got - 2010.05.20 13:48:23.
