data_PCOD9574195
_publ_section_title
;
Structure prediction by ZEFSAII (Michael W. Deem and Ramdas Pophale) SiO2 
 PCOD9574195
Probable space group: I 41/A C D
;
_chemical_formula_sum "Si O2"
_cell_formula_units_Z 88
_cell_length_a 12.546938
_cell_length_b 12.546938
_cell_length_c 23.748029
_cell_angle_alpha 90.000000
_cell_angle_beta 90.000000
_cell_angle_gamma 90.000000
_cell_volume 3738.548977
_symmetry_space_group_name_H-M "I 41/A C D"
_symmetry_group_IT_number 142
_space_group.IT_coordinate_system_code '2'
_symmetry_cell_setting 'tetragonal'
loop_
_space_group_symop_operation_xyz
x,y,z
1/4-y,3/4+x,1/4+z
-x,1/2-y,z
1/4+y,1/4-x,3/4+z
x,-y,1/2-z
1/2-x,y,-z
3/4+y,1/4+x,1/4-z
1/4-y,1/4-x,1/4-z
-x,-y,-z
3/4+y,1/4-x,3/4-z
x,1/2+y,-z
3/4-y,3/4+x,1/4-z
-x,y,1/2+z
1/2+x,-y,z
1/4-y,3/4-x,3/4+z
3/4+y,3/4+x,3/4+z
1/2+x,1/2+y,1/2+z
3/4-y,1/4+x,3/4+z
1/2-x,-y,1/2+z
3/4+y,3/4-x,1/4+z
1/2+x,1/2-y,-z
-x,1/2+y,1/2-z
1/4+y,3/4+x,3/4-z
3/4-y,3/4-x,3/4-z
1/2-x,1/2-y,1/2-z
1/4+y,3/4-x,1/4-z
1/2+x,y,1/2-z
1/4-y,1/4+x,3/4-z
1/2-x,1/2+y,z
x,1/2-y,1/2+z
3/4-y,1/4-x,1/4+z
1/4+y,1/4+x,1/4+z
loop_
_atom_site_type_symbol
_atom_site_label
_atom_site_fract_x
_atom_site_fract_y
_atom_site_fract_z
Si Si1 0.414211 0.572279 0.203616
Si Si2 0.000000 0.750000 0.125000
Si Si3 0.406553 0.343448 0.875000
Si Si4 0.890846 0.436630 0.939079
O O1 0.478778 0.500000 0.250000
O O2 0.492903 0.638613 0.166021
O O3 0.332445 0.637018 0.243346
O O4 0.351590 0.478974 0.171744
O O5 0.898020 0.722109 0.162850
O O6 0.302993 0.343048 0.834829
#
# Coordination Sequence:
#
# PCOD9574195 Si02
#       4
#    32   8  16  32
#     4   8  21  36  55  95 118 166 221 243 315 399
#     4  12  16  44  60  98 124 176 208 284 316 382
#     4  12  18  40  68  84 138 174 198 284 322 364
#     4   9  21  35  63  90 126 167 220 256 322 386
#
# _framework density 23.538542
#
# number of rings (size 3 to 8) (size 9 to 14) (size 15 to 20)
#    2.182    0.000    3.636    0.000    5.091    0.000 
#    0.000    9.091    0.000    0.000    0.000    0.000 
#    0.000    0.000    0.000    0.000    0.000    0.000 
#
# Total GULP energy -245449.734505 kJ/mol
# GULP energy per Si atom -5578.403057 kJ/mol
# Density = 2.348497 g / cm^3
# Si number density = 23.538542 Si / 1000 Ang^3
#
#
#
# Elastic Constant Matrix: (Units=GPa)
#
#
# Indices 1 2 3 4 5 6 
#
# 1 91.1006 36.8583 60.3930 0.0000 0.0000 0.0000
# 2 36.8583 91.1004 60.3938 0.0000 0.0000 0.0000
# 3 60.3930 60.3938 109.3819 0.0000 0.0000 0.0000
# 4 0.0000 0.0000 0.0000 54.8459 0.0000 0.0000
# 5 0.0000 0.0000 0.0000 0.0000 54.8363 0.0000
# 6 0.0000 0.0000 0.0000 0.0000 0.0000 30.7140
#
#
#
# Elastic Compliance Matrix: (Units=1/GPa)
#
#
# Indices 1 2 3 4 5 6 
#
# 1 0.017379 -0.001057 -0.009012 0.000000 0.000000 0.000000
# 2 -0.001057 0.017379 -0.009012 0.000000 0.000000 0.000000
# 3 -0.009012 -0.009012 0.019094 0.000000 0.000000 0.000000
# 4 0.000000 0.000000 0.000000 0.018233 0.000000 0.000000
# 5 0.000000 0.000000 0.000000 0.000000 0.018236 0.000000
# 6 0.000000 0.000000 0.000000 0.000000 0.000000 0.032558
#
#
# Mechanical properties :
#
#
# Convention : Reuss Voigt Hill
#
# Bulk Modulus (GPa) = 63.73481 67.43036 65.58259
# Shear Modulus (GPa) = 30.07162 37.00842 33.54002
#
# Velocity S-wave (km/s) = 3.57816 3.96946 3.77888
# Velocity P-wave (km/s) = 6.64880 7.05108 6.85289
#
# Compressibility (1/GPa) = 0.01569001
#
# Stress axis : x y z
#
# Youngs Moduli (GPa) = 57.54214 57.54097 52.37341
#
# Poissons Ratio (x) = 0.06083 0.47197
# Poissons Ratio (y) = 0.06083 0.47198
# Poissons Ratio (z) = 0.51855 0.51855
#
# Static dielectric constant tensor:
#      x y z
#    x 1.860630 0.000000 0.000000 
#    y 0.000000 1.860100 0.000000 
#    z 0.000000 0.000000 1.916280 
# 
# From -- ./inp_files/10896.got.cif
#   From: 2010.05.17/outbox.cif.g08.bks.cpg/sg142_6_cif.got.tgz:10896.got - 2010.05.20 13:39:18.
