data_PCOD9574047
_publ_section_title
;
Structure prediction by ZEFSAII (Michael W. Deem and Ramdas Pophale) SiO2 
 PCOD9574047
Probable space group: I 41/A C D
;
_chemical_formula_sum "Si O2"
_cell_formula_units_Z 160
_cell_length_a 19.455872
_cell_length_b 19.455872
_cell_length_c 17.106087
_cell_angle_alpha 90.000000
_cell_angle_beta 90.000000
_cell_angle_gamma 90.000000
_cell_volume 6475.183453
_symmetry_space_group_name_H-M "I 41/A C D"
_symmetry_group_IT_number 142
_space_group.IT_coordinate_system_code '2'
_symmetry_cell_setting 'tetragonal'
loop_
_space_group_symop_operation_xyz
x,y,z
1/4-y,3/4+x,1/4+z
-x,1/2-y,z
1/4+y,1/4-x,3/4+z
x,-y,1/2-z
1/2-x,y,-z
3/4+y,1/4+x,1/4-z
1/4-y,1/4-x,1/4-z
-x,-y,-z
3/4+y,1/4-x,3/4-z
x,1/2+y,-z
3/4-y,3/4+x,1/4-z
-x,y,1/2+z
1/2+x,-y,z
1/4-y,3/4-x,3/4+z
3/4+y,3/4+x,3/4+z
1/2+x,1/2+y,1/2+z
3/4-y,1/4+x,3/4+z
1/2-x,-y,1/2+z
3/4+y,3/4-x,1/4+z
1/2+x,1/2-y,-z
-x,1/2+y,1/2-z
1/4+y,3/4+x,3/4-z
3/4-y,3/4-x,3/4-z
1/2-x,1/2-y,1/2-z
1/4+y,3/4-x,1/4-z
1/2+x,y,1/2-z
1/4-y,1/4+x,3/4-z
1/2-x,1/2+y,z
x,1/2-y,1/2+z
3/4-y,1/4-x,1/4+z
1/4+y,1/4+x,1/4+z
loop_
_atom_site_type_symbol
_atom_site_label
_atom_site_fract_x
_atom_site_fract_y
_atom_site_fract_z
Si Si1 0.386244 0.020085 0.895115
Si Si2 0.803072 0.430594 0.717580
Si Si3 0.130934 0.168844 0.936357
Si Si4 0.928326 0.857827 0.229973
Si Si5 0.472632 0.865612 0.567853
O O1 0.326214 0.076214 0.875000
O O2 0.458808 0.060730 0.892114
O O3 0.387519 0.955502 0.835129
O O4 0.376437 0.988232 0.982455
O O5 0.771223 0.500000 0.750000
O O6 0.811076 0.438925 0.625000
O O7 0.879517 0.420705 0.750032
O O8 0.132209 0.244186 0.973666
O O9 0.092756 0.172409 0.853638
O O10 0.079617 0.129655 0.994314
O O11 0.907521 0.797349 0.290261
O O12 0.441233 0.808768 0.625000
#
# Coordination Sequence:
#
# PCOD9574047 Si02
#       5
#    32  32  32  32  32
#     4  10  26  49  75 108 149 200 260 311 384 469
#     4  11  27  44  73 107 150 198 249 322 381 458
#     4  11  24  46  76 103 149 200 247 304 380 464
#     4  11  25  46  73 106 147 195 248 304 386 459
#     4  11  26  44  76 112 147 198 250 323 378 454
#
# _framework density 24.709724999999999
#
# number of rings (size 3 to 8) (size 9 to 14) (size 15 to 20)
#    0.000    1.200    2.000    1.200   11.200    8.000 
#    3.600    0.000    0.000    0.000    0.000    0.000 
#    0.000    0.000    0.000    0.000    0.000    0.000 
#
# Total GULP energy -447190.668854 kJ/mol
# GULP energy per Si atom -5589.883361 kJ/mol
# Density = 2.465348 g / cm^3
# Si number density = 24.709725 Si / 1000 Ang^3
#
#
#
# Elastic Constant Matrix: (Units=GPa)
#
#
# Indices 1 2 3 4 5 6 
#
# 1 105.4799 21.4268 19.3637 0.0000 0.0000 0.0000
# 2 21.4268 105.4794 19.3614 0.0000 0.0000 0.0000
# 3 19.3637 19.3614 122.0445 0.0000 0.0000 0.0000
# 4 0.0000 0.0000 0.0000 30.6727 0.0000 0.0000
# 5 0.0000 0.0000 0.0000 0.0000 30.6724 0.0000
# 6 0.0000 0.0000 0.0000 0.0000 0.0000 32.4804
#
#
#
# Elastic Compliance Matrix: (Units=1/GPa)
#
#
# Indices 1 2 3 4 5 6 
#
# 1 0.010089 -0.001808 -0.001314 0.000000 0.000000 0.000000
# 2 -0.001808 0.010089 -0.001314 0.000000 0.000000 0.000000
# 3 -0.001314 -0.001314 0.008611 0.000000 0.000000 0.000000
# 4 0.000000 0.000000 0.000000 0.032602 0.000000 0.000000
# 5 0.000000 0.000000 0.000000 0.000000 0.032603 0.000000
# 6 0.000000 0.000000 0.000000 0.000000 0.000000 0.030788
#
#
# Mechanical properties :
#
#
# Convention : Reuss Voigt Hill
#
# Bulk Modulus (GPa) = 50.20833 50.36751 50.28792
# Shear Modulus (GPa) = 35.64000 36.95522 36.29761
#
# Velocity S-wave (km/s) = 3.80194 3.87146 3.83686
# Velocity P-wave (km/s) = 6.29575 6.35706 6.32648
#
# Compressibility (1/GPa) = 0.01991701
#
# Stress axis : x y z
#
# Youngs Moduli (GPa) = 99.11777 99.11803 116.13605
#
# Poissons Ratio (x) = 0.17923 0.15259
# Poissons Ratio (y) = 0.17923 0.15256
# Poissons Ratio (z) = 0.13023 0.13020
#
# Static dielectric constant tensor:
#      x y z
#    x 2.035240 0.000000 0.000000 
#    y 0.000000 2.035230 0.000000 
#    z 0.000000 0.000000 2.144080 
# 
# From -- ./inp_files/7407.got.cif
#   From: 2010.05.17/outbox.cif.g08.bks.cpg/sg142_4_cif.got.tgz:7407.got - 2010.05.20 13:39:18.
