data_PCOD9574650
_publ_section_title
;
Structure prediction by ZEFSAII (Michael W. Deem and Ramdas Pophale) SiO2 
 PCOD9574650
Probable space group: P 32
;
_chemical_formula_sum "Si O2"
_cell_formula_units_Z 21
_cell_length_a 8.869873
_cell_length_b 8.869873
_cell_length_c 11.555025
_cell_angle_alpha 90.000000
_cell_angle_beta 90.000000
_cell_angle_gamma 120.000000
_cell_volume 787.292881
_symmetry_space_group_name_H-M "P 32"
_symmetry_group_IT_number 145
_symmetry_cell_setting 'hexagonal'
loop_
_space_group_symop_operation_xyz
x,y,z
-y,x-y,2/3+z
-x+y,-x,1/3+z
loop_
_atom_site_type_symbol
_atom_site_label
_atom_site_fract_x
_atom_site_fract_y
_atom_site_fract_z
Si Si1 0.335638 0.503091 0.075810
Si Si2 0.267648 0.023962 0.963101
Si Si3 0.099595 0.576920 0.790252
Si Si4 0.880170 0.446013 0.257937
Si Si5 0.736532 0.037939 0.936302
Si Si6 0.209321 0.067682 0.691308
Si Si7 0.598609 0.565525 0.680527
O O1 0.407296 0.697984 0.112040
O O2 0.422742 0.505450 0.954494
O O3 0.388298 0.409023 0.172374
O O4 0.130156 0.393098 0.064356
O O5 0.069963 0.917209 0.019593
O O6 0.224803 0.015507 0.824833
O O7 0.353412 0.935593 0.039981
O O8 0.430049 0.232144 0.966689
O O9 0.982941 0.644019 0.730758
O O10 0.055194 0.558239 0.924727
O O11 0.850926 0.262461 0.311628
O O12 0.553922 0.137940 0.454084
O O13 0.866903 0.240082 0.927776
O O14 0.807282 0.905127 0.941735
#
# Coordination Sequence:
#
# PCOD9574650 Si02
#       7
#     3   3   3   3   3   3   3
#     4  12  25  51  83 117 163 231 291 362 454 554
#     4  12  32  52  85 130 175 237 300 383 470 558
#     4  12  28  52  83 119 168 223 294 362 458 553
#     4  12  27  54  83 119 178 228 294 373 456 554
#     4  12  27  50  78 123 168 218 295 366 451 553
#     4  12  28  52  83 124 176 229 301 373 466 562
#     4  12  27  45  83 122 166 226 291 369 459 554
#
# _framework density 26.673680999999998
#
# number of rings (size 3 to 8) (size 9 to 14) (size 15 to 20)
#    0.000    0.000    2.857    5.143   10.000    3.429 
#    0.000    0.000    0.000    0.000    0.000    0.000 
#    0.000    0.000    0.000    0.000    0.000    0.000 
#
# Total GULP energy -117259.867373 kJ/mol
# GULP energy per Si atom -5583.803208 kJ/mol
# Density = 2.661297 g / cm^3
# Si number density = 26.673681 Si / 1000 Ang^3
#
#
#
# Elastic Constant Matrix: (Units=GPa)
#
#
# Indices 1 2 3 4 5 6 
#
# 1 118.4301 45.1524 25.8011 -12.9493 -1.2850 0.0000
# 2 45.1524 118.4301 25.8011 12.9493 1.2850 0.0000
# 3 25.8011 25.8011 105.0373 0.0000 0.0000 0.0000
# 4 -12.9493 12.9493 0.0000 43.0592 0.0000 1.2850
# 5 -1.2850 1.2850 0.0000 0.0000 43.0592 -12.9493
# 6 0.0000 0.0000 0.0000 1.2850 -12.9493 36.6389
#
#
#
# Elastic Compliance Matrix: (Units=1/GPa)
#
#
# Indices 1 2 3 4 5 6 
#
# 1 0.010957 -0.004330 -0.001628 0.004597 0.000456 0.000000
# 2 -0.004330 0.010957 -0.001628 -0.004597 -0.000456 0.000000
# 3 -0.001628 -0.001628 0.010320 0.000000 0.000000 0.000000
# 4 0.004597 -0.004597 0.000000 0.026016 0.000000 -0.000912
# 5 0.000456 -0.000456 0.000000 0.000000 0.026016 0.009195
# 6 0.000000 0.000000 0.000000 -0.000912 0.009195 0.030575
#
#
# Mechanical properties :
#
#
# Convention : Reuss Voigt Hill
#
# Bulk Modulus (GPa) = 58.60869 59.48966 59.04917
# Shear Modulus (GPa) = 36.84559 40.89430 38.86995
#
# Velocity S-wave (km/s) = 3.72068 3.91977 3.82152
# Velocity P-wave (km/s) = 6.36224 6.54502 6.45428
#
# Compressibility (1/GPa) = 0.01706232
#
# Stress axis : x y z
#
# Youngs Moduli (GPa) = 91.26508 91.26508 96.89827
#
# Poissons Ratio (x) = 0.39522 0.15773
# Poissons Ratio (y) = 0.39522 0.15773
# Poissons Ratio (z) = 0.14856 0.14856
#
# Static dielectric constant tensor:
#      x y z
#    x 2.189660 0.000000 0.000000 
#    y 0.000000 2.189660 0.000000 
#    z 0.000000 0.000000 2.031720 
# 
# From -- ./inp_files/610.got.cif
#   From: 2010.05.17/outbox.cif.g08.bks.cpg/sg145_cif.got.tgz:610.got - 2010.05.20 13:47:28.
