data_PCOD9574869
_publ_section_title
;
Structure prediction by ZEFSAII (Michael W. Deem and Ramdas Pophale) SiO2 
 PCOD9574869
Probable space group: P -3
;
_chemical_formula_sum "Si O2"
_cell_formula_units_Z 34
_cell_length_a 12.575253
_cell_length_b 12.575253
_cell_length_c 13.383952
_cell_angle_alpha 90.000000
_cell_angle_beta 90.000000
_cell_angle_gamma 120.000000
_cell_volume 1832.940911
_symmetry_space_group_name_H-M "P -3"
_symmetry_group_IT_number 147
_symmetry_cell_setting 'hexagonal'
loop_
_space_group_symop_operation_xyz
x,y,z
-y,x-y,z
-x+y,-x,z
-x,-y,-z
y,-x+y,-z
x-y,x,-z
loop_
_atom_site_type_symbol
_atom_site_label
_atom_site_fract_x
_atom_site_fract_y
_atom_site_fract_z
Si Si1 0.086825 0.643266 0.371352
Si Si2 0.666668 0.333334 0.653025
Si Si3 0.641699 0.570204 0.407042
Si Si4 0.580202 0.653986 0.814024
Si Si5 0.317786 0.407431 0.803100
Si Si6 0.999139 0.746721 0.995721
Si Si7 0.333335 0.666668 0.586354
O O1 0.219883 0.687484 0.322561
O O2 0.085158 0.696220 0.481574
O O3 0.035618 0.500007 0.401165
O O4 0.996747 0.646150 0.288679
O O5 0.666668 0.333334 0.532973
O O6 0.700616 0.649546 0.308270
O O7 0.646490 0.445310 0.384749
O O8 0.451047 0.528082 0.812764
O O9 0.559837 0.770093 0.816093
O O10 0.661386 0.669546 0.911433
O O11 0.308018 0.317622 0.890633
O O12 0.878567 0.758374 0.996393
#
# Coordination Sequence:
#
# PCOD9574869 Si02
#       7
#     6   2   6   6   6   6   2
#     4   9  18  29  45  71 102 138 174 205 247 299
#     4   9  18  30  42  64 104 145 177 213 250 293
#     4   9  16  28  47  72 101 133 169 204 249 304
#     4  10  20  34  54  79 104 132 166 206 255 307
#     4  10  19  33  53  77 105 133 165 208 255 302
#     4  10  22  39  57  75  97 130 171 212 253 300
#     4   9  15  27  48  70  98 136 171 213 259 305
#
# _framework density 18.549423999999998
#
# number of rings (size 3 to 8) (size 9 to 14) (size 15 to 20)
#    0.000    2.471    0.000    3.176    0.000    4.235 
#    0.000    0.000    0.000    0.706    0.000    0.000 
#    0.000    7.059    0.000    0.000    0.000    0.000 
#
# Total GULP energy -189415.685643 kJ/mol
# GULP energy per Si atom -5571.049578 kJ/mol
# Density = 1.850720 g / cm^3
# Si number density = 18.549424 Si / 1000 Ang^3
#
#
#
# Elastic Constant Matrix: (Units=GPa)
#
#
# Indices 1 2 3 4 5 6 
#
# 1 39.8864 22.9303 42.3448 -1.6372 0.2909 -0.0001
# 2 22.9303 39.8869 42.3447 1.6373 -0.2907 0.0000
# 3 42.3448 42.3447 145.7687 0.0000 0.0001 -0.0001
# 4 -1.6372 1.6373 0.0000 22.5339 -0.0001 -0.2909
# 5 0.2909 -0.2907 0.0001 -0.0001 22.5339 -1.6372
# 6 -0.0001 0.0000 -0.0001 -0.2909 -1.6372 8.4781
#
#
#
# Elastic Compliance Matrix: (Units=1/GPa)
#
#
# Indices 1 2 3 4 5 6 
#
# 1 0.043005 -0.016837 -0.007602 0.004348 -0.000772 0.000000
# 2 -0.016837 0.043004 -0.007601 -0.004348 0.000772 0.000000
# 3 -0.007602 -0.007601 0.011277 0.000000 0.000000 0.000000
# 4 0.004348 -0.004348 0.000000 0.045029 0.000000 0.001545
# 5 -0.000772 0.000772 0.000000 0.000000 0.045029 0.008696
# 6 0.000000 0.000000 0.000000 0.001545 0.008696 0.119683
#
#
# Mechanical properties :
#
#
# Convention : Reuss Voigt Hill
#
# Bulk Modulus (GPa) = 30.11531 48.97573 39.54552
# Shear Modulus (GPa) = 13.08299 18.57065 15.82682
#
# Velocity S-wave (km/s) = 2.65864 3.16752 2.92417
# Velocity P-wave (km/s) = 5.06901 6.31171 5.72419
#
# Compressibility (1/GPa) = 0.03320570
#
# Stress axis : x y z
#
# Youngs Moduli (GPa) = 23.25317 23.25365 88.67970
#
# Poissons Ratio (x) = 0.39152 0.67411
# Poissons Ratio (y) = 0.39151 0.67408
# Poissons Ratio (z) = 0.17676 0.17676
#
# Static dielectric constant tensor:
#      x y z
#    x 1.650500 0.000000 0.000000 
#    y 0.000000 1.650490 0.000000 
#    z 0.000000 0.000000 1.700710 
# 
# From -- ./inp_files/955.got.cif
#   From: 2010.05.17/outbox.cif.g08.bks.cpg/sg147_cif.got.tgz:955.got - 2010.05.20 13:49:32.
