data_PCOD9574795
_publ_section_title
;
Structure prediction by ZEFSAII (Michael W. Deem and Ramdas Pophale) SiO2 
 PCOD9574795
Probable space group: R 3
;
_chemical_formula_sum "Si O2"
_cell_formula_units_Z 60
_cell_length_a 16.984395
_cell_length_b 16.984395
_cell_length_c 12.875687
_cell_angle_alpha 90.000000
_cell_angle_beta 90.000000
_cell_angle_gamma 120.000000
_cell_volume 3216.630721
_symmetry_space_group_name_H-M "R 3"
_symmetry_group_IT_number 146
_symmetry_cell_setting 'hexagonal'
loop_
_space_group_symop_operation_xyz
x,y,z
-y,x-y,z
-x+y,-x,z
2/3+x,1/3+y,1/3+z
2/3-y,1/3+x-y,1/3+z
2/3-x+y,1/3-x,1/3+z
1/3+x,2/3+y,2/3+z
1/3-y,2/3+x-y,2/3+z
1/3-x+y,2/3-x,2/3+z
loop_
_atom_site_type_symbol
_atom_site_label
_atom_site_fract_x
_atom_site_fract_y
_atom_site_fract_z
Si Si1 0.535410 0.766263 0.800850
Si Si2 0.709099 0.948191 0.073420
Si Si3 0.333335 0.666667 0.748019
Si Si4 0.333334 0.666668 0.495163
Si Si5 0.899559 0.165630 0.903925
Si Si6 0.700513 0.090354 0.912600
Si Si7 0.519933 0.554893 0.576689
Si Si8 0.352538 0.513387 0.441589
O O1 0.542350 0.864646 0.802729
O O2 0.431297 0.691434 0.789252
O O3 0.581443 0.765090 0.692680
O O4 0.594289 0.755661 0.890036
O O5 0.624669 0.925305 0.149282
O O6 0.715559 0.865241 0.019992
O O7 0.704333 0.011100 0.980705
O O8 0.333334 0.666667 0.621011
O O9 0.385092 0.618598 0.448476
O O10 0.805090 0.165318 0.882892
O O11 0.003592 0.246031 0.886506
O O12 0.873034 0.071253 0.845320
O O13 0.666316 0.136899 0.995536
O O14 0.435383 0.508524 0.495067
#
# Coordination Sequence:
#
# PCOD9574795 Si02
#       8
#     9   9   3   3   9   9   9   9
#     4  11  20  34  60  88 120 148 194 259 310 361
#     4  11  18  34  58  90 118 157 201 246 306 372
#     4  12  21  36  63  94 110 157 207 255 318 373
#     4  12  21  33  63  91 113 142 198 264 306 355
#     4  11  20  33  58  90 120 151 194 249 314 353
#     4  11  20  34  59  87 122 163 201 244 307 389
#     4  12  21  34  60  92 126 154 201 269 308 359
#     4  12  19  32  59  94 119 152 198 258 311 364
#
# _framework density 18.653057
#
# number of rings (size 3 to 8) (size 9 to 14) (size 15 to 20)
#    0.000    0.600   12.000    0.900    0.000    0.000 
#    0.000    0.000   16.500    0.000    0.000    0.000 
#    0.000    0.000    0.000    0.000    0.000    0.000 
#
# Total GULP energy -111346.843077 kJ/mol
# GULP energy per Si atom -5567.342154 kJ/mol
# Density = 1.861060 g / cm^3
# Si number density = 18.653057 Si / 1000 Ang^3
#
#
#
# Elastic Constant Matrix: (Units=GPa)
#
#
# Indices 1 2 3 4 5 6 
#
# 1 69.1435 23.0956 32.1359 5.3256 1.6356 -0.0006
# 2 23.0956 69.1429 32.1357 -5.3262 -1.6357 -0.0004
# 3 32.1359 32.1357 54.9222 0.0000 0.0003 -0.0002
# 4 5.3256 -5.3262 0.0000 19.8656 0.0000 -1.6354
# 5 1.6356 -1.6357 0.0003 0.0000 19.8659 5.3255
# 6 -0.0006 -0.0004 -0.0002 -1.6354 5.3255 23.0242
#
#
#
# Elastic Compliance Matrix: (Units=1/GPa)
#
#
# Indices 1 2 3 4 5 6 
#
# 1 0.020801 -0.002497 -0.010710 -0.006246 -0.001918 0.000000
# 2 -0.002497 0.020801 -0.010710 0.006246 0.001918 0.000000
# 3 -0.010710 -0.010710 0.030741 0.000000 -0.000001 0.000000
# 4 -0.006246 0.006246 0.000000 0.054003 0.000000 0.003836
# 5 -0.001918 0.001918 -0.000001 0.000000 0.054002 -0.012491
# 6 0.000000 0.000000 0.000000 0.003836 -0.012491 0.046594
#
#
# Mechanical properties :
#
#
# Convention : Reuss Voigt Hill
#
# Bulk Modulus (GPa) = 40.80147 40.88257 40.84202
# Shear Modulus (GPa) = 17.67128 19.60723 18.63925
#
# Velocity S-wave (km/s) = 3.08127 3.24567 3.16454
# Velocity P-wave (km/s) = 5.88050 6.00090 5.94100
#
# Compressibility (1/GPa) = 0.02450892
#
# Stress axis : x y z
#
# Youngs Moduli (GPa) = 48.07506 48.07435 32.53012
#
# Poissons Ratio (x) = 0.12003 0.34840
# Poissons Ratio (y) = 0.12004 0.34840
# Poissons Ratio (z) = 0.51488 0.51488
#
# Static dielectric constant tensor:
#      x y z
#    x 1.752750 0.000000 0.000000 
#    y 0.000000 1.752750 0.000000 
#    z 0.000000 0.000000 1.634610 
# 
# From -- ./inp_files/1248.got.cif
#   From: 2010.05.17/outbox.cif.g08.bks.cpg/sg146_cif.got.tgz:1248.got - 2010.05.20 13:48:23.
