data_PCOD9574025
_publ_section_title
;
Structure prediction by ZEFSAII (Michael W. Deem and Ramdas Pophale) SiO2 
 PCOD9574025
Probable space group: I 41/A C D
;
_chemical_formula_sum "Si O2"
_cell_formula_units_Z 96
_cell_length_a 24.063317
_cell_length_b 24.063317
_cell_length_c 7.829321
_cell_angle_alpha 90.000000
_cell_angle_beta 90.000000
_cell_angle_gamma 90.000000
_cell_volume 4533.515282
_symmetry_space_group_name_H-M "I 41/A C D"
_symmetry_group_IT_number 142
_space_group.IT_coordinate_system_code '2'
_symmetry_cell_setting 'tetragonal'
loop_
_space_group_symop_operation_xyz
x,y,z
1/4-y,3/4+x,1/4+z
-x,1/2-y,z
1/4+y,1/4-x,3/4+z
x,-y,1/2-z
1/2-x,y,-z
3/4+y,1/4+x,1/4-z
1/4-y,1/4-x,1/4-z
-x,-y,-z
3/4+y,1/4-x,3/4-z
x,1/2+y,-z
3/4-y,3/4+x,1/4-z
-x,y,1/2+z
1/2+x,-y,z
1/4-y,3/4-x,3/4+z
3/4+y,3/4+x,3/4+z
1/2+x,1/2+y,1/2+z
3/4-y,1/4+x,3/4+z
1/2-x,-y,1/2+z
3/4+y,3/4-x,1/4+z
1/2+x,1/2-y,-z
-x,1/2+y,1/2-z
1/4+y,3/4+x,3/4-z
3/4-y,3/4-x,3/4-z
1/2-x,1/2-y,1/2-z
1/4+y,3/4-x,1/4-z
1/2+x,y,1/2-z
1/4-y,1/4+x,3/4-z
1/2-x,1/2+y,z
x,1/2-y,1/2+z
3/4-y,1/4-x,1/4+z
1/4+y,1/4+x,1/4+z
loop_
_atom_site_type_symbol
_atom_site_label
_atom_site_fract_x
_atom_site_fract_y
_atom_site_fract_z
Si Si1 0.301700 0.948301 0.125000
Si Si2 0.927711 0.801265 0.073793
Si Si3 0.813920 0.175677 0.236065
Si Si4 0.750000 0.248650 0.000000
O O1 0.299491 0.888554 0.216676
O O2 0.298917 0.000000 0.250000
O O3 0.929280 0.734314 0.084520
O O4 0.874691 0.820437 0.181470
O O5 0.929445 0.820556 0.875000
O O6 0.800550 0.208569 0.060051
O O7 0.772956 0.209466 0.358959
#
# Coordination Sequence:
#
# PCOD9574025 Si02
#       4
#    16  32  32  16
#     4  12  30  50  74 101 140 186 242 293 354 424
#     4  11  24  39  66 105 147 189 233 289 360 430
#     4  11  25  46  72 102 140 186 235 298 350 427
#     4  10  24  46  72 104 136 188 240 290 358 426
#
# _framework density 21.175619999999999
#
# number of rings (size 3 to 8) (size 9 to 14) (size 15 to 20)
#    0.000    1.000    1.667    4.000   11.667    2.667 
#    0.000    0.000    0.000    0.000    0.000    0.000 
#    0.000    0.000    0.000    0.000    0.000    0.000 
#
# Total GULP energy -268388.236709 kJ/mol
# GULP energy per Si atom -5591.421598 kJ/mol
# Density = 2.112742 g / cm^3
# Si number density = 21.175620 Si / 1000 Ang^3
#
#
#
# Elastic Constant Matrix: (Units=GPa)
#
#
# Indices 1 2 3 4 5 6 
#
# 1 197.0179 80.3862 76.0382 0.0000 0.0000 0.0000
# 2 80.3862 197.0164 76.0379 0.0000 0.0000 0.0000
# 3 76.0382 76.0379 100.7887 0.0000 0.0000 0.0000
# 4 0.0000 0.0000 0.0000 37.3660 0.0000 0.0000
# 5 0.0000 0.0000 0.0000 0.0000 37.3642 0.0000
# 6 0.0000 0.0000 0.0000 0.0000 0.0000 30.7992
#
#
#
# Elastic Compliance Matrix: (Units=1/GPa)
#
#
# Indices 1 2 3 4 5 6 
#
# 1 0.007361 -0.001213 -0.004638 0.000000 0.000000 0.000000
# 2 -0.001213 0.007361 -0.004638 0.000000 0.000000 0.000000
# 3 -0.004638 -0.004638 0.016919 0.000000 0.000000 0.000000
# 4 0.000000 0.000000 0.000000 0.026762 0.000000 0.000000
# 5 0.000000 0.000000 0.000000 0.000000 0.026764 0.000000
# 6 0.000000 0.000000 0.000000 0.000000 0.000000 0.032468
#
#
# Mechanical properties :
#
#
# Convention : Reuss Voigt Hill
#
# Bulk Modulus (GPa) = 93.78076 106.63864 100.20970
# Shear Modulus (GPa) = 35.16988 38.59659 36.88323
#
# Velocity S-wave (km/s) = 4.07979 4.27393 4.17799
# Velocity P-wave (km/s) = 8.15943 8.65007 8.40833
#
# Compressibility (1/GPa) = 0.01066317
#
# Stress axis : x y z
#
# Youngs Moduli (GPa) = 135.85729 135.85632 59.10362
#
# Poissons Ratio (x) = 0.16484 0.27411
# Poissons Ratio (y) = 0.16484 0.27411
# Poissons Ratio (z) = 0.63007 0.63007
#
# Static dielectric constant tensor:
#      x y z
#    x 1.747200 0.000000 0.000000 
#    y 0.000000 1.747210 0.000000 
#    z 0.000000 0.000000 2.125880 
# 
# From -- ./inp_files/1688.got.cif
#   From: 2010.05.17/outbox.cif.g08.bks.cpg/sg142_1_cif.got.tgz:1688.got - 2010.05.20 13:39:18.
