data_PCOD9574020
_publ_section_title
;
Structure prediction by ZEFSAII (Michael W. Deem and Ramdas Pophale) SiO2 
 PCOD9574020
Probable space group: I 41/A C D
;
_chemical_formula_sum "Si O2"
_cell_formula_units_Z 176
_cell_length_a 18.160234
_cell_length_b 18.160234
_cell_length_c 26.187984
_cell_angle_alpha 90.000000
_cell_angle_beta 90.000000
_cell_angle_gamma 90.000000
_cell_volume 8636.642586
_symmetry_space_group_name_H-M "I 41/A C D"
_symmetry_group_IT_number 142
_space_group.IT_coordinate_system_code '2'
_symmetry_cell_setting 'tetragonal'
loop_
_space_group_symop_operation_xyz
x,y,z
1/4-y,3/4+x,1/4+z
-x,1/2-y,z
1/4+y,1/4-x,3/4+z
x,-y,1/2-z
1/2-x,y,-z
3/4+y,1/4+x,1/4-z
1/4-y,1/4-x,1/4-z
-x,-y,-z
3/4+y,1/4-x,3/4-z
x,1/2+y,-z
3/4-y,3/4+x,1/4-z
-x,y,1/2+z
1/2+x,-y,z
1/4-y,3/4-x,3/4+z
3/4+y,3/4+x,3/4+z
1/2+x,1/2+y,1/2+z
3/4-y,1/4+x,3/4+z
1/2-x,-y,1/2+z
3/4+y,3/4-x,1/4+z
1/2+x,1/2-y,-z
-x,1/2+y,1/2-z
1/4+y,3/4+x,3/4-z
3/4-y,3/4-x,3/4-z
1/2-x,1/2-y,1/2-z
1/4+y,3/4-x,1/4-z
1/2+x,y,1/2-z
1/4-y,1/4+x,3/4-z
1/2-x,1/2+y,z
x,1/2-y,1/2+z
3/4-y,1/4-x,1/4+z
1/4+y,1/4+x,1/4+z
loop_
_atom_site_type_symbol
_atom_site_label
_atom_site_fract_x
_atom_site_fract_y
_atom_site_fract_z
Si Si1 0.148329 0.601672 0.875000
Si Si2 0.962438 0.824198 0.799723
Si Si3 0.483392 0.370627 0.626265
Si Si4 0.075982 0.583197 0.231243
Si Si5 0.247220 0.580082 0.224358
Si Si6 0.678192 0.208365 0.230643
O O1 0.076265 0.616779 0.838319
O O2 0.213924 0.591843 0.832026
O O3 0.896739 0.791477 0.763666
O O4 0.000000 0.750000 0.821482
O O5 0.025222 0.865972 0.767174
O O6 0.422030 0.308843 0.615305
O O7 0.460068 0.413857 0.675770
O O8 0.486498 0.417191 0.575805
O O9 0.074709 0.500000 0.250000
O O10 0.161830 0.606152 0.225764
O O11 0.246284 0.500000 0.250000
O O12 0.296822 0.624543 0.264371
O O13 0.750000 0.250000 0.250000
#
# Coordination Sequence:
#
# PCOD9574020 Si02
#       6
#    16  32  32  32  32  32
#     4  10  25  42  72  98 140 194 227 284 358 416
#     4  11  22  43  68 103 141 180 231 295 348 422
#     4  11  22  40  68  98 127 172 220 282 340 400
#     4  11  25  43  67  99 139 178 232 288 346 412
#     4  10  24  45  66  98 141 188 229 282 339 417
#     4  11  23  40  65  98 137 181 226 280 343 415
#
# _framework density 20.378288000000001
#
# number of rings (size 3 to 8) (size 9 to 14) (size 15 to 20)
#    0.000    1.273    1.818    3.545    2.545    7.273 
#    0.000    1.818    0.000    0.000    0.000    0.000 
#    0.000    0.000    0.000    0.000    0.000    0.000 
#
# Total GULP energy -490409.129909 kJ/mol
# GULP energy per Si atom -5572.831022 kJ/mol
# Density = 2.033191 g / cm^3
# Si number density = 20.378288 Si / 1000 Ang^3
#
#
#
# Elastic Constant Matrix: (Units=GPa)
#
#
# Indices 1 2 3 4 5 6 
#
# 1 141.0710 40.9145 60.9045 0.0000 0.0000 0.0000
# 2 40.9145 141.0703 60.9053 0.0000 0.0000 0.0000
# 3 60.9045 60.9053 75.2526 0.0000 0.0000 0.0000
# 4 0.0000 0.0000 0.0000 46.8123 0.0000 0.0000
# 5 0.0000 0.0000 0.0000 0.0000 46.8123 0.0000
# 6 0.0000 0.0000 0.0000 0.0000 0.0000 52.2072
#
#
#
# Elastic Compliance Matrix: (Units=1/GPa)
#
#
# Indices 1 2 3 4 5 6 
#
# 1 0.010987 0.001003 -0.009704 0.000000 0.000000 0.000000
# 2 0.001003 0.010988 -0.009704 0.000000 0.000000 0.000000
# 3 -0.009704 -0.009704 0.028997 0.000000 0.000000 0.000000
# 4 0.000000 0.000000 0.000000 0.021362 0.000000 0.000000
# 5 0.000000 0.000000 0.000000 0.000000 0.021362 0.000000
# 6 0.000000 0.000000 0.000000 0.000000 0.000000 0.019154
#
#
# Mechanical properties :
#
#
# Convention : Reuss Voigt Hill
#
# Bulk Modulus (GPa) = 70.61989 75.87139 73.24564
# Shear Modulus (GPa) = 32.38735 42.14434 37.26585
#
# Velocity S-wave (km/s) = 3.99094 4.55257 4.28097
# Velocity P-wave (km/s) = 7.48107 8.05896 7.77539
#
# Compressibility (1/GPa) = 0.01416032
#
# Stress axis : x y z
#
# Youngs Moduli (GPa) = 91.01413 91.01217 34.48662
#
# Poissons Ratio (x) = -0.09129 0.33466
# Poissons Ratio (y) = -0.09129 0.33467
# Poissons Ratio (z) = 0.88322 0.88323
#
# Static dielectric constant tensor:
#      x y z
#    x 1.769550 0.000000 0.000000 
#    y 0.000000 1.769550 0.000000 
#    z 0.000000 0.000000 1.709440 
# 
# From -- ./inp_files/11438.got.cif
#   From: 2010.05.17/outbox.cif.g08.bks.cpg/sg142_6_cif.got.tgz:11438.got - 2010.05.20 13:39:18.
