data_PCOD9574735
_publ_section_title
;
Structure prediction by ZEFSAII (Michael W. Deem and Ramdas Pophale) SiO2 
 PCOD9574735
Probable space group: R 3
;
_chemical_formula_sum "Si O2"
_cell_formula_units_Z 63
_cell_length_a 16.882258
_cell_length_b 16.882258
_cell_length_c 11.968844
_cell_angle_alpha 90.000000
_cell_angle_beta 90.000000
_cell_angle_gamma 120.000000
_cell_volume 2954.227280
_symmetry_space_group_name_H-M "R 3"
_symmetry_group_IT_number 146
_symmetry_cell_setting 'hexagonal'
loop_
_space_group_symop_operation_xyz
x,y,z
-y,x-y,z
-x+y,-x,z
2/3+x,1/3+y,1/3+z
2/3-y,1/3+x-y,1/3+z
2/3-x+y,1/3-x,1/3+z
1/3+x,2/3+y,2/3+z
1/3-y,2/3+x-y,2/3+z
1/3-x+y,2/3-x,2/3+z
loop_
_atom_site_type_symbol
_atom_site_label
_atom_site_fract_x
_atom_site_fract_y
_atom_site_fract_z
Si Si1 0.101019 0.894713 0.560470
Si Si2 0.165862 0.384260 0.857601
Si Si3 0.193190 0.770591 0.615001
Si Si4 0.886676 0.277068 0.684863
Si Si5 0.670652 0.945772 0.001833
Si Si6 0.674674 0.542047 0.108088
Si Si7 0.133642 0.746593 0.244750
O O1 0.144820 0.829527 0.582659
O O2 0.143069 0.934892 0.439060
O O3 0.142847 0.967120 0.660985
O O4 0.991704 0.828585 0.566128
O O5 0.193179 0.431167 0.736445
O O6 0.114080 0.419790 0.936682
O O7 0.252957 0.390645 0.919688
O O8 0.100813 0.275523 0.838714
O O9 0.109219 0.668924 0.630527
O O10 0.267242 0.794390 0.518287
O O11 0.858099 0.183201 0.618854
O O12 0.971455 0.280765 0.751980
O O13 0.633271 0.016537 0.998915
O O14 0.656041 0.905924 0.124712
#
# Coordination Sequence:
#
# PCOD9574735 Si02
#       7
#     9   9   9   9   9   9   9
#     4   9  20  37  57  89 129 169 221 272 323 392
#     4  11  22  37  62  95 130 165 218 277 329 391
#     4   9  20  37  57  89 129 169 221 272 323 392
#     4  11  22  37  62  95 130 165 218 277 329 391
#     4  11  22  39  62  96 130 172 220 273 330 397
#     4  10  22  36  58  90 128 170 212 272 328 386
#     4  11  22  39  62  96 130 172 220 273 330 397
#
# _framework density 21.325374
#
# number of rings (size 3 to 8) (size 9 to 14) (size 15 to 20)
#    0.000    1.714    2.857    2.571    6.000    0.000 
#    0.000    0.000    0.000    5.143    7.429    0.000 
#    0.000    0.000    0.000    0.000    0.000    0.000 
#
# Total GULP energy -117226.373367 kJ/mol
# GULP energy per Si atom -5582.208256 kJ/mol
# Density = 2.127684 g / cm^3
# Si number density = 21.325374 Si / 1000 Ang^3
#
#
#
# Elastic Constant Matrix: (Units=GPa)
#
#
# Indices 1 2 3 4 5 6 
#
# 1 68.0900 20.1040 40.1952 -10.0476 -1.0357 0.0000
# 2 20.1040 68.0900 40.1952 10.0476 1.0357 0.0000
# 3 40.1952 40.1952 130.2273 0.0000 0.0000 0.0000
# 4 -10.0476 10.0476 0.0000 31.1749 0.0000 1.0357
# 5 -1.0357 1.0357 0.0000 0.0000 31.1749 -10.0476
# 6 0.0000 0.0000 0.0000 1.0357 -10.0476 23.9930
#
#
#
# Elastic Compliance Matrix: (Units=1/GPa)
#
#
# Indices 1 2 3 4 5 6 
#
# 1 0.019954 -0.004177 -0.004870 0.007777 0.000802 0.000000
# 2 -0.004177 0.019954 -0.004870 -0.007777 -0.000802 0.000000
# 3 -0.004870 -0.004870 0.010685 0.000000 0.000000 0.000000
# 4 0.007777 -0.007777 0.000000 0.037144 0.000000 -0.001603
# 5 0.000802 -0.000802 0.000000 0.000000 0.037144 0.015555
# 6 0.000000 0.000000 0.000000 -0.001603 0.015555 0.048262
#
#
# Mechanical properties :
#
#
# Convention : Reuss Voigt Hill
#
# Bulk Modulus (GPa) = 43.93492 51.93289 47.93391
# Shear Modulus (GPa) = 23.97363 28.32942 26.15152
#
# Velocity S-wave (km/s) = 3.35652 3.64873 3.50567
# Velocity P-wave (km/s) = 5.97232 6.49280 6.23799
#
# Compressibility (1/GPa) = 0.02276094
#
# Stress axis : x y z
#
# Youngs Moduli (GPa) = 50.11460 50.11460 93.58875
#
# Poissons Ratio (x) = 0.20931 0.45576
# Poissons Ratio (y) = 0.20931 0.45576
# Poissons Ratio (z) = 0.24405 0.24405
#
# Static dielectric constant tensor:
#      x y z
#    x 1.796030 0.000000 0.000000 
#    y 0.000000 1.796030 0.000000 
#    z 0.000000 0.000000 1.810390 
# 
# From -- ./inp_files/1221.got.cif
#   From: 2010.05.17/outbox.cif.g08.bks.cpg/sg146_cif.got.tgz:1221.got - 2010.05.20 13:48:23.
