data_PCOD9574871
_publ_section_title
;
Structure prediction by ZEFSAII (Michael W. Deem and Ramdas Pophale) SiO2 
 PCOD9574871
Probable space group: P -3
;
_chemical_formula_sum "Si O2"
_cell_formula_units_Z 24
_cell_length_a 11.164848
_cell_length_b 11.164848
_cell_length_c 10.481179
_cell_angle_alpha 90.000000
_cell_angle_beta 90.000000
_cell_angle_gamma 120.000000
_cell_volume 1131.478744
_symmetry_space_group_name_H-M "P -3"
_symmetry_group_IT_number 147
_symmetry_cell_setting 'hexagonal'
loop_
_space_group_symop_operation_xyz
x,y,z
-y,x-y,z
-x+y,-x,z
-x,-y,-z
y,-x+y,-z
x-y,x,-z
loop_
_atom_site_type_symbol
_atom_site_label
_atom_site_fract_x
_atom_site_fract_y
_atom_site_fract_z
Si Si1 0.946222 0.698514 0.542248
Si Si2 0.054636 0.319309 0.883692
Si Si3 0.166289 0.522461 0.661779
Si Si4 0.051103 0.294441 0.160659
O O1 0.827871 0.735713 0.502086
O O2 0.912803 0.564369 0.460454
O O3 0.937419 0.663006 0.692029
O O4 0.083143 0.439391 0.784908
O O5 0.165206 0.268770 0.856157
O O6 0.911330 0.179795 0.857489
O O7 0.064823 0.374708 0.028079
O O8 0.316639 0.531093 0.663052
#
# Coordination Sequence:
#
# PCOD9574871 Si02
#       4
#     6   6   6   6
#     4  12  21  37  64  96 120 143 188 247 304 356
#     4  10  19  38  58  91 125 145 187 243 305 348
#     4  10  24  42  56  78 122 168 193 237 288 326
#     4  10  19  33  62  93 115 147 188 242 303 351
#
# _framework density 21.211179000000001
#
# number of rings (size 3 to 8) (size 9 to 14) (size 15 to 20)
#    0.500    1.000    5.000    0.750    0.000    3.000 
#    0.000    7.500    0.000    0.000    0.000    0.000 
#    0.000    0.000    0.000    0.000    0.000    0.000 
#
# Total GULP energy -133776.059911 kJ/mol
# GULP energy per Si atom -5574.002496 kJ/mol
# Density = 2.116290 g / cm^3
# Si number density = 21.211179 Si / 1000 Ang^3
#
#
#
# Elastic Constant Matrix: (Units=GPa)
#
#
# Indices 1 2 3 4 5 6 
#
# 1 54.6764 12.5310 30.8525 10.0398 -15.8340 0.0000
# 2 12.5310 54.6764 30.8525 -10.0398 15.8340 0.0000
# 3 30.8525 30.8525 253.6923 0.0000 0.0000 0.0000
# 4 10.0398 -10.0398 0.0000 -24.5671 0.0000 15.8340
# 5 -15.8340 15.8340 0.0000 0.0000 -24.5671 10.0398
# 6 0.0000 0.0000 0.0000 15.8340 10.0398 21.0727
#
#
#
# Elastic Compliance Matrix: (Units=1/GPa)
#
#
# Indices 1 2 3 4 5 6 
#
# 1 0.015441 0.001309 -0.002037 0.005775 -0.009108 0.000000
# 2 0.001309 0.015441 -0.002037 -0.005775 0.009108 0.000000
# 3 -0.002037 -0.002037 0.004437 0.000000 0.000000 0.000000
# 4 0.005775 -0.005775 0.000000 -0.024244 0.000000 0.018217
# 5 -0.009108 0.009108 0.000000 0.000000 -0.024244 0.011551
# 6 0.000000 0.000000 0.000000 0.018217 0.011551 0.028264
#
#
# Mechanical properties :
#
#
# Convention : Reuss Voigt Hill
#
# Bulk Modulus (GPa) = 33.57014 56.83523 45.20268
# Shear Modulus (GPa) = 163.63936 13.64164 88.64050
#
# Velocity S-wave (km/s) = 8.79290 2.53876 6.47149
# Velocity P-wave (km/s) = 10.90632 5.95373 8.78620
#
# Compressibility (1/GPa) = 0.02978838
#
# Stress axis : x y z
#
# Youngs Moduli (GPa) = 64.76389 64.76389 225.36571
#
# Poissons Ratio (x) = -0.08476 0.45906
# Poissons Ratio (y) = -0.08476 0.45906
# Poissons Ratio (z) = 0.13192 0.13192
#
# Static dielectric constant tensor:
#      x y z
#    x 1.751540 0.000000 0.000000 
#    y 0.000000 1.751540 0.000000 
#    z 0.000000 0.000000 1.790180 
# 
# From -- ./inp_files/784.got.cif
#   From: 2010.05.17/outbox.cif.g08.bks.cpg/sg147_cif.got.tgz:784.got - 2010.05.20 13:49:32.
