data_PCOD9574494
_publ_section_title
;
Structure prediction by ZEFSAII (Michael W. Deem and Ramdas Pophale) SiO2 
 PCOD9574494
Probable space group: P 31
;
_chemical_formula_sum "Si O2"
_cell_formula_units_Z 18
_cell_length_a 9.322649
_cell_length_b 9.322649
_cell_length_c 9.410924
_cell_angle_alpha 90.000000
_cell_angle_beta 90.000000
_cell_angle_gamma 120.000000
_cell_volume 708.339669
_symmetry_space_group_name_H-M "P 31"
_symmetry_group_IT_number 144
_symmetry_cell_setting 'hexagonal'
loop_
_space_group_symop_operation_xyz
x,y,z
-y,x-y,1/3+z
-x+y,-x,2/3+z
loop_
_atom_site_type_symbol
_atom_site_label
_atom_site_fract_x
_atom_site_fract_y
_atom_site_fract_z
Si Si1 0.013773 0.821001 0.753320
Si Si2 0.612615 0.630762 0.081484
Si Si3 0.986227 0.807228 0.067858
Si Si4 0.122325 0.644147 0.283272
Si Si5 0.981853 0.369239 0.073026
Si Si6 0.478178 0.355853 0.871239
O O1 0.884936 0.884936 0.743922
O O2 0.970680 0.688250 0.631542
O O3 0.197455 0.973859 0.737298
O O4 0.000000 0.750345 0.910589
O O5 0.572083 0.572083 0.243922
O O6 0.802545 0.776404 0.083880
O O7 0.507871 0.709860 0.012684
O O8 0.609071 0.488650 0.980699
O O9 0.029320 0.717570 0.189636
O O10 0.120420 0.511350 0.173812
O O11 0.000000 0.541704 0.410589
O O12 0.798011 0.290140 0.141827
#
# Coordination Sequence:
#
# PCOD9574494 Si02
#       6
#     3   3   3   3   3   3
#     4  12  24  47  84 113 145 201 272 314 375 465
#     4  12  27  52  77 113 159 206 254 323 394 462
#     4  12  24  47  84 113 145 201 272 314 375 465
#     4  12  28  49  78 116 154 207 260 322 391 466
#     4  12  27  52  77 113 159 206 254 323 394 462
#     4  12  28  49  78 116 154 207 260 322 391 466
#
# _framework density 25.411535000000001
#
# number of rings (size 3 to 8) (size 9 to 14) (size 15 to 20)
#    0.000    0.000    6.667    3.000    4.667    2.667 
#    0.000    0.000    0.000    0.000    0.000    0.000 
#    0.000    0.000    0.000    0.000    0.000    0.000 
#
# Total GULP energy -100886.235254 kJ/mol
# GULP energy per Si atom -5604.790847 kJ/mol
# Density = 2.535370 g / cm^3
# Si number density = 25.411535 Si / 1000 Ang^3
#
#
#
# Elastic Constant Matrix: (Units=GPa)
#
#
# Indices 1 2 3 4 5 6 
#
# 1 58.8165 -9.3817 37.0807 -16.7056 0.0000 0.0000
# 2 -9.3817 58.8165 37.0807 16.7056 0.0000 0.0000
# 3 37.0807 37.0807 223.4998 0.0000 0.0000 0.0000
# 4 -16.7056 16.7056 0.0000 37.4611 0.0000 0.0000
# 5 0.0000 0.0000 0.0000 0.0000 37.4611 -16.7056
# 6 0.0000 0.0000 0.0000 0.0000 -16.7056 34.0991
#
#
#
# Elastic Compliance Matrix: (Units=1/GPa)
#
#
# Indices 1 2 3 4 5 6 
#
# 1 0.022847 0.004085 -0.004468 0.008367 0.000000 0.000000
# 2 0.004085 0.022847 -0.004468 -0.008367 0.000000 0.000000
# 3 -0.004468 -0.004468 0.005957 0.000000 0.000000 0.000000
# 4 0.008367 -0.008367 0.000000 0.034157 0.000000 0.000000
# 5 0.000000 0.000000 0.000000 0.000000 0.034157 0.016734
# 6 0.000000 0.000000 0.000000 0.000000 0.016734 0.037524
#
#
# Mechanical properties :
#
#
# Convention : Reuss Voigt Hill
#
# Bulk Modulus (GPa) = 23.83926 52.29913 38.06919
# Shear Modulus (GPa) = 27.59767 40.22779 33.91273
#
# Velocity S-wave (km/s) = 3.29907 3.98308 3.65710
# Velocity P-wave (km/s) = 4.89014 6.46365 5.73115
#
# Compressibility (1/GPa) = 0.04194761
#
# Stress axis : x y z
#
# Youngs Moduli (GPa) = 43.76940 43.76940 167.87195
#
# Poissons Ratio (x) = -0.17879 0.75009
# Poissons Ratio (y) = -0.17879 0.75009
# Poissons Ratio (z) = 0.19557 0.19557
#
# Static dielectric constant tensor:
#      x y z
#    x 1.951220 0.000000 0.000000 
#    y 0.000000 1.951220 0.000000 
#    z 0.000000 0.000000 2.020680 
# 
# From -- ./inp_files/261.got.cif
#   From: 2010.05.17/outbox.cif.g08.bks.cpg/sg144_cif.got.tgz:261.got - 2010.05.20 13:46:34.
