data_PCOD9574931
_publ_section_title
;
Structure prediction by ZEFSAII (Michael W. Deem and Ramdas Pophale) SiO2 
 PCOD9574931
Probable space group: P -3
;
_chemical_formula_sum "Si O2"
_cell_formula_units_Z 24
_cell_length_a 16.202345
_cell_length_b 16.202345
_cell_length_c 4.837951
_cell_angle_alpha 90.000000
_cell_angle_beta 90.000000
_cell_angle_gamma 120.000000
_cell_volume 1099.886440
_symmetry_space_group_name_H-M "P -3"
_symmetry_group_IT_number 147
_symmetry_cell_setting 'hexagonal'
loop_
_space_group_symop_operation_xyz
x,y,z
-y,x-y,z
-x+y,-x,z
-x,-y,-z
y,-x+y,-z
x-y,x,-z
loop_
_atom_site_type_symbol
_atom_site_label
_atom_site_fract_x
_atom_site_fract_y
_atom_site_fract_z
Si Si1 0.083590 0.864458 0.512707
Si Si2 0.811840 0.649821 0.951168
Si Si3 0.081625 0.617688 0.292014
Si Si4 0.374742 0.950947 0.207502
O O1 0.141658 0.975088 0.423711
O O2 0.078795 0.805803 0.241711
O O3 0.988238 0.575920 0.098572
O O4 0.138432 0.839454 0.750974
O O5 0.711755 0.555817 0.873420
O O6 0.891607 0.629573 0.823913
O O7 0.106826 0.533465 0.307862
O O8 0.042080 0.627734 0.588310
#
# Coordination Sequence:
#
# PCOD9574931 Si02
#       4
#     6   6   6   6
#     4  12  25  40  60  88 126 164 206 254 299 352
#     4  12  22  38  63  90 116 162 205 248 294 374
#     4  10  21  38  59  85 118 153 193 244 301 352
#     4  10  21  38  59  85 118 153 193 244 301 352
#
# _framework density 21.820433999999999
#
# number of rings (size 3 to 8) (size 9 to 14) (size 15 to 20)
#    0.000    1.000    0.000    9.250    0.000    0.000 
#    1.500    2.500    0.000    0.000    0.000    0.000 
#    0.000    0.000    0.000    0.000    0.000    0.000 
#
# Total GULP energy -133814.674296 kJ/mol
# GULP energy per Si atom -5575.611429 kJ/mol
# Density = 2.177077 g / cm^3
# Si number density = 21.820434 Si / 1000 Ang^3
#
#
#
# Elastic Constant Matrix: (Units=GPa)
#
#
# Indices 1 2 3 4 5 6 
#
# 1 90.8493 28.7438 14.0200 6.3614 -1.4135 0.0000
# 2 28.7438 90.8493 14.0200 -6.3614 1.4135 0.0000
# 3 14.0200 14.0200 109.1981 0.0000 0.0000 0.0000
# 4 6.3614 -6.3614 0.0000 25.4749 0.0000 1.4135
# 5 -1.4135 1.4135 0.0000 0.0000 25.4749 6.3614
# 6 0.0000 0.0000 0.0000 1.4135 6.3614 31.0527
#
#
#
# Elastic Compliance Matrix: (Units=1/GPa)
#
#
# Indices 1 2 3 4 5 6 
#
# 1 0.012818 -0.004197 -0.001107 -0.004249 0.000944 0.000000
# 2 -0.004197 0.012818 -0.001107 0.004249 -0.000944 0.000000
# 3 -0.001107 -0.001107 0.009442 0.000000 0.000000 0.000000
# 4 -0.004249 0.004249 0.000000 0.041481 0.000000 -0.001888
# 5 0.000944 -0.000944 0.000000 0.000000 0.041481 -0.008498
# 6 0.000000 0.000000 0.000000 -0.001888 -0.008498 0.034030
#
#
# Mechanical properties :
#
#
# Convention : Reuss Voigt Hill
#
# Bulk Modulus (GPa) = 44.93010 44.94046 44.93528
# Shear Modulus (GPa) = 29.01734 32.00802 30.51268
#
# Velocity S-wave (km/s) = 3.65063 3.83415 3.74351
# Velocity P-wave (km/s) = 6.19718 6.34359 6.27081
#
# Compressibility (1/GPa) = 0.02225679
#
# Stress axis : x y z
#
# Youngs Moduli (GPa) = 78.01455 78.01455 105.91094
#
# Poissons Ratio (x) = 0.32742 0.11723
# Poissons Ratio (y) = 0.32742 0.11723
# Poissons Ratio (z) = 0.08635 0.08635
#
# Static dielectric constant tensor:
#      x y z
#    x 1.844370 0.000000 0.000000 
#    y 0.000000 1.844370 0.000000 
#    z 0.000000 0.000000 1.794960 
# 
# From -- ./inp_files/147.got.cif
#   From: 2010.05.17/outbox.cif.g08.bks.cpg/sg147_cif.got.tgz:147.got - 2010.05.20 13:49:32.
