data_PCOD9574266
_publ_section_title
;
Structure prediction by ZEFSAII (Michael W. Deem and Ramdas Pophale) SiO2 
 PCOD9574266
Probable space group: P 3
;
_chemical_formula_sum "Si O2"
_cell_formula_units_Z 12
_cell_length_a 6.804379
_cell_length_b 6.804379
_cell_length_c 11.208374
_cell_angle_alpha 90.000000
_cell_angle_beta 90.000000
_cell_angle_gamma 120.000000
_cell_volume 449.417766
_symmetry_space_group_name_H-M "P 3"
_symmetry_group_IT_number 143
_symmetry_cell_setting 'hexagonal'
loop_
_space_group_symop_operation_xyz
x,y,z
-y,x-y,z
-x+y,-x,z
loop_
_atom_site_type_symbol
_atom_site_label
_atom_site_fract_x
_atom_site_fract_y
_atom_site_fract_z
Si Si1 0.896668 0.617279 0.808680
Si Si2 0.381870 0.272141 0.066274
Si Si3 0.618627 0.878997 0.308680
Si Si4 0.890271 0.618130 0.551086
O O1 0.623252 0.518120 0.808680
O O2 0.986540 0.727705 0.680179
O O3 0.986540 0.727704 0.937182
O O4 0.484763 0.103456 0.067835
O O5 0.251165 0.258738 0.185927
O O6 0.390688 0.901224 0.308680
O O7 0.741262 0.992427 0.431433
O O8 0.618693 0.515237 0.549525
#
# Coordination Sequence:
#
# PCOD9574266 Si02
#       4
#     3   3   3   3
#     4   6  10  22  44  74  78  84 144 204 206 224
#     4   8  14  28  52  64  75 110 153 178 205 252
#     4  10  20  26  34  62 102 118 132 170 214 252
#     4   8  14  28  52  64  75 110 153 178 205 252
#
# _framework density 26.701211000000001
#
# number of rings (size 3 to 8) (size 9 to 14) (size 15 to 20)
#    2.000    2.000    0.000    1.500    0.000    0.000 
#    0.000    2.500    0.000    8.000    0.000    0.000 
#    0.000    0.000    0.000    0.000    0.000    0.000 
#
# Total GULP energy -66872.210493 kJ/mol
# GULP energy per Si atom -5572.684208 kJ/mol
# Density = 2.664044 g / cm^3
# Si number density = 26.701211 Si / 1000 Ang^3
#
#
#
# Elastic Constant Matrix: (Units=GPa)
#
#
# Indices 1 2 3 4 5 6 
#
# 1 94.1963 23.0884 57.3655 0.0000 0.0000 0.0000
# 2 23.0884 94.1963 57.3655 0.0000 0.0000 0.0000
# 3 57.3655 57.3655 371.6553 0.0000 0.0000 0.0000
# 4 0.0000 0.0000 0.0000 -19.0888 0.0000 0.0000
# 5 0.0000 0.0000 0.0000 0.0000 -19.0888 0.0000
# 6 0.0000 0.0000 0.0000 0.0000 0.0000 35.5539
#
#
#
# Elastic Compliance Matrix: (Units=1/GPa)
#
#
# Indices 1 2 3 4 5 6 
#
# 1 0.012053 -0.002010 -0.001550 0.000000 0.000000 0.000000
# 2 -0.002010 0.012053 -0.001550 0.000000 0.000000 0.000000
# 3 -0.001550 -0.001550 0.003169 0.000000 0.000000 0.000000
# 4 0.000000 0.000000 0.000000 -0.052387 0.000000 0.000000
# 5 0.000000 0.000000 0.000000 0.000000 -0.052387 0.000000
# 6 0.000000 0.000000 0.000000 0.000000 0.000000 0.028126
#
#
# Mechanical properties :
#
#
# Convention : Reuss Voigt Hill
#
# Bulk Modulus (GPa) = 58.63721 92.85408 75.74565
# Shear Modulus (GPa) = -149.40304 27.62382 -60.88961
#
# Velocity S-wave (km/s) = -7.48833 3.21994 -4.78054
# Velocity P-wave (km/s) = 7.26352 6.97673 1.42897
#
# Compressibility (1/GPa) = 0.01705402
#
# Stress axis : x y z
#
# Youngs Moduli (GPa) = 82.96783 82.96783 315.53886
#
# Poissons Ratio (x) = 0.16679 0.48911
# Poissons Ratio (y) = 0.16679 0.48911
# Poissons Ratio (z) = 0.12861 0.12861
#
# Static dielectric constant tensor:
#      x y z
#    x 2.068230 0.000000 0.000000 
#    y 0.000000 2.068230 0.000000 
#    z 0.000000 0.000000 2.045990 
# 
# From -- ./inp_files/211.got.cif
#   From: 2010.05.17/outbox.cif.g08.bks.cpg/sg143_cif.got.tgz:211.got - 2010.05.20 13:46:24.
