data_PCOD9574179
_publ_section_title
;
Structure prediction by ZEFSAII (Michael W. Deem and Ramdas Pophale) SiO2 
 PCOD9574179
Probable space group: I 41/A C D
;
_chemical_formula_sum "Si O2"
_cell_formula_units_Z 72
_cell_length_a 13.370780
_cell_length_b 13.370780
_cell_length_c 16.146254
_cell_angle_alpha 90.000000
_cell_angle_beta 90.000000
_cell_angle_gamma 90.000000
_cell_volume 2886.591087
_symmetry_space_group_name_H-M "I 41/A C D"
_symmetry_group_IT_number 142
_space_group.IT_coordinate_system_code '2'
_symmetry_cell_setting 'tetragonal'
loop_
_space_group_symop_operation_xyz
x,y,z
1/4-y,3/4+x,1/4+z
-x,1/2-y,z
1/4+y,1/4-x,3/4+z
x,-y,1/2-z
1/2-x,y,-z
3/4+y,1/4+x,1/4-z
1/4-y,1/4-x,1/4-z
-x,-y,-z
3/4+y,1/4-x,3/4-z
x,1/2+y,-z
3/4-y,3/4+x,1/4-z
-x,y,1/2+z
1/2+x,-y,z
1/4-y,3/4-x,3/4+z
3/4+y,3/4+x,3/4+z
1/2+x,1/2+y,1/2+z
3/4-y,1/4+x,3/4+z
1/2-x,-y,1/2+z
3/4+y,3/4-x,1/4+z
1/2+x,1/2-y,-z
-x,1/2+y,1/2-z
1/4+y,3/4+x,3/4-z
3/4-y,3/4-x,3/4-z
1/2-x,1/2-y,1/2-z
1/4+y,3/4-x,1/4-z
1/2+x,y,1/2-z
1/4-y,1/4+x,3/4-z
1/2-x,1/2+y,z
x,1/2-y,1/2+z
3/4-y,1/4-x,1/4+z
1/4+y,1/4+x,1/4+z
loop_
_atom_site_type_symbol
_atom_site_label
_atom_site_fract_x
_atom_site_fract_y
_atom_site_fract_z
Si Si1 0.500000 0.250000 0.875000
Si Si2 0.810922 0.597476 0.715965
Si Si3 0.518818 0.466196 0.369507
O O1 0.392457 0.246626 0.921064
O O2 0.752992 0.500000 0.750000
O O3 0.910441 0.545153 0.677435
O O4 0.811782 0.670623 0.795895
O O5 0.764166 0.664909 0.645208
#
# Coordination Sequence:
#
# PCOD9574179 Si02
#       3
#     8  32  32
#     4  12  24  44  64 118 144 204 252 326 372 472
#     4  11  24  52  74 112 151 204 256 319 388 467
#     4  11  27  46  78 109 157 200 262 317 393 465
#
# _framework density 24.942917000000001
#
# number of rings (size 3 to 8) (size 9 to 14) (size 15 to 20)
#    0.000    0.889    4.444    0.000    6.222    8.000 
#    0.000    0.000    0.000    0.000    0.000    0.000 
#    0.000    0.000    0.000    0.000    0.000    0.000 
#
# Total GULP energy -200505.360127 kJ/mol
# GULP energy per Si atom -5569.593337 kJ/mol
# Density = 2.488615 g / cm^3
# Si number density = 24.942917 Si / 1000 Ang^3
#
#
#
# Elastic Constant Matrix: (Units=GPa)
#
#
# Indices 1 2 3 4 5 6 
#
# 1 184.9282 110.0474 62.4231 0.0000 0.0000 0.0000
# 2 110.0474 184.9282 62.4231 0.0000 0.0000 0.0000
# 3 62.4231 62.4231 95.4689 0.0000 0.0000 0.0000
# 4 0.0000 0.0000 0.0000 40.1195 0.0000 0.0000
# 5 0.0000 0.0000 0.0000 0.0000 40.1195 0.0000
# 6 0.0000 0.0000 0.0000 0.0000 0.0000 22.0909
#
#
#
# Elastic Compliance Matrix: (Units=1/GPa)
#
#
# Indices 1 2 3 4 5 6 
#
# 1 0.009021 -0.004334 -0.003065 0.000000 0.000000 0.000000
# 2 -0.004334 0.009021 -0.003065 0.000000 0.000000 0.000000
# 3 -0.003065 -0.003065 0.014483 0.000000 0.000000 0.000000
# 4 0.000000 0.000000 0.000000 0.024926 0.000000 0.000000
# 5 0.000000 0.000000 0.000000 0.000000 0.024926 0.000000
# 6 0.000000 0.000000 0.000000 0.000000 0.000000 0.045267
#
#
# Mechanical properties :
#
#
# Convention : Reuss Voigt Hill
#
# Bulk Modulus (GPa) = 86.22310 103.90140 95.06225
# Shear Modulus (GPa) = 32.80081 35.82811 34.31446
#
# Velocity S-wave (km/s) = 3.63028 3.79410 3.71309
# Velocity P-wave (km/s) = 7.22600 7.80639 7.52180
#
# Compressibility (1/GPa) = 0.01159782
#
# Stress axis : x y z
#
# Youngs Moduli (GPa) = 110.85359 110.85359 69.04874
#
# Poissons Ratio (x) = 0.48040 0.21162
# Poissons Ratio (y) = 0.48040 0.21162
# Poissons Ratio (z) = 0.33975 0.33975
#
# Static dielectric constant tensor:
#      x y z
#    x 2.036690 0.000000 0.000000 
#    y 0.000000 2.036690 0.000000 
#    z 0.000000 0.000000 2.120780 
# 
# From -- ./inp_files/6368.got.cif
#   From: 2010.05.17/outbox.cif.g08.bks.cpg/sg142_4_cif.got.tgz:6368.got - 2010.05.20 13:39:18.
