data_PCOD9574286
_publ_section_title
;
Structure prediction by ZEFSAII (Michael W. Deem and Ramdas Pophale) SiO2 
 PCOD9574286
Probable space group: P 31
;
_chemical_formula_sum "Si O2"
_cell_formula_units_Z 21
_cell_length_a 8.590621
_cell_length_b 8.590621
_cell_length_c 14.354230
_cell_angle_alpha 90.000000
_cell_angle_beta 90.000000
_cell_angle_gamma 120.000000
_cell_volume 917.401933
_symmetry_space_group_name_H-M "P 31"
_symmetry_group_IT_number 144
_symmetry_cell_setting 'hexagonal'
loop_
_space_group_symop_operation_xyz
x,y,z
-y,x-y,1/3+z
-x+y,-x,2/3+z
loop_
_atom_site_type_symbol
_atom_site_label
_atom_site_fract_x
_atom_site_fract_y
_atom_site_fract_z
Si Si1 0.319355 0.673731 0.410850
Si Si2 0.302261 0.340691 0.631738
Si Si3 0.655937 0.029538 0.695387
Si Si4 0.862643 0.355581 0.180239
Si Si5 0.100788 0.781793 0.828122
Si Si6 0.987275 0.919805 0.153844
Si Si7 0.676638 0.973672 0.174441
O O1 0.215520 0.688552 0.322241
O O2 0.324245 0.491506 0.401899
O O3 0.517415 0.841265 0.424020
O O4 0.193271 0.672406 0.495177
O O5 0.485427 0.381046 0.582825
O O6 0.283043 0.255887 0.732983
O O7 0.141877 0.220100 0.564543
O O8 0.659455 0.999346 0.585154
O O9 0.847250 0.075990 0.739509
O O10 0.582867 0.149880 0.745248
O O11 0.703247 0.160473 0.210818
O O12 0.042785 0.337506 0.187209
O O13 0.986710 0.867841 0.788590
O O14 0.819079 0.917052 0.206776
#
# Coordination Sequence:
#
# PCOD9574286 Si02
#       7
#     3   3   3   3   3   3   3
#     4   9  20  36  58  79 120 152 198 245 300 356
#     4   9  18  36  57  82 125 153 190 258 306 356
#     4  10  19  35  59  81 113 155 195 242 298 362
#     4   9  18  34  58  82 111 160 191 234 307 347
#     4  10  18  35  59  85 109 152 204 239 289 369
#     4  10  20  33  60  85 115 149 195 248 304 357
#     4   9  19  35  55  86 113 147 203 236 296 361
#
# _framework density 22.890729
#
# number of rings (size 3 to 8) (size 9 to 14) (size 15 to 20)
#    0.857    1.714    1.429    0.857    0.000    1.143 
#    0.000    8.571    0.000    1.714    0.000    0.000 
#    0.000    0.000    0.000    0.000    0.000    0.000 
#
# Total GULP energy -117061.156978 kJ/mol
# GULP energy per Si atom -5574.340808 kJ/mol
# Density = 2.283863 g / cm^3
# Si number density = 22.890729 Si / 1000 Ang^3
#
#
#
# Elastic Constant Matrix: (Units=GPa)
#
#
# Indices 1 2 3 4 5 6 
#
# 1 69.9230 24.6468 -8.6192 -0.5357 -1.3328 0.0000
# 2 24.6468 69.9230 -8.6192 0.5357 1.3328 0.0000
# 3 -8.6192 -8.6192 29.1356 0.0000 0.0000 0.0000
# 4 -0.5357 0.5357 0.0000 26.0508 0.0000 1.3328
# 5 -1.3328 1.3328 0.0000 0.0000 26.0508 -0.5357
# 6 0.0000 0.0000 0.0000 1.3328 -0.5357 22.6381
#
#
#
# Elastic Compliance Matrix: (Units=1/GPa)
#
#
# Indices 1 2 3 4 5 6 
#
# 1 0.016671 -0.005494 0.003306 0.000456 0.001134 0.000000
# 2 -0.005494 0.016671 0.003306 -0.000456 -0.001134 0.000000
# 3 0.003306 0.003306 0.036279 0.000000 0.000000 0.000000
# 4 0.000456 -0.000456 0.000000 0.038521 0.000000 -0.002268
# 5 0.001134 -0.001134 0.000000 0.000000 0.038521 0.000912
# 6 0.000000 0.000000 0.000000 -0.002268 0.000912 0.044328
#
#
# Mechanical properties :
#
#
# Convention : Reuss Voigt Hill
#
# Bulk Modulus (GPa) = 13.91627 20.42202 17.16915
# Shear Modulus (GPa) = 23.50675 25.71950 24.61312
#
# Velocity S-wave (km/s) = 3.20802 3.35562 3.28265
# Velocity P-wave (km/s) = 4.45135 4.89433 4.67808
#
# Compressibility (1/GPa) = 0.07185835
#
# Stress axis : x y z
#
# Youngs Moduli (GPa) = 59.98595 59.98595 27.56448
#
# Poissons Ratio (x) = 0.32954 -0.09114
# Poissons Ratio (y) = 0.32954 -0.09114
# Poissons Ratio (z) = -0.19834 -0.19834
#
# Static dielectric constant tensor:
#      x y z
#    x 1.869790 0.000000 0.000000 
#    y 0.000000 1.869790 0.000000 
#    z 0.000000 0.000000 1.912880 
# 
# From -- ./inp_files/796.got.cif
#   From: 2010.05.17/outbox.cif.g08.bks.cpg/sg144_cif.got.tgz:796.got - 2010.05.20 13:46:34.
