data_PCOD9574122
_publ_section_title
;
Structure prediction by ZEFSAII (Michael W. Deem and Ramdas Pophale) SiO2 
 PCOD9574122
Probable space group: I 41/A C D
;
_chemical_formula_sum "Si O2"
_cell_formula_units_Z 144
_cell_length_a 20.907286
_cell_length_b 20.907286
_cell_length_c 16.108993
_cell_angle_alpha 90.000000
_cell_angle_beta 90.000000
_cell_angle_gamma 90.000000
_cell_volume 7041.476159
_symmetry_space_group_name_H-M "I 41/A C D"
_symmetry_group_IT_number 142
_space_group.IT_coordinate_system_code '2'
_symmetry_cell_setting 'tetragonal'
loop_
_space_group_symop_operation_xyz
x,y,z
1/4-y,3/4+x,1/4+z
-x,1/2-y,z
1/4+y,1/4-x,3/4+z
x,-y,1/2-z
1/2-x,y,-z
3/4+y,1/4+x,1/4-z
1/4-y,1/4-x,1/4-z
-x,-y,-z
3/4+y,1/4-x,3/4-z
x,1/2+y,-z
3/4-y,3/4+x,1/4-z
-x,y,1/2+z
1/2+x,-y,z
1/4-y,3/4-x,3/4+z
3/4+y,3/4+x,3/4+z
1/2+x,1/2+y,1/2+z
3/4-y,1/4+x,3/4+z
1/2-x,-y,1/2+z
3/4+y,3/4-x,1/4+z
1/2+x,1/2-y,-z
-x,1/2+y,1/2-z
1/4+y,3/4+x,3/4-z
3/4-y,3/4-x,3/4-z
1/2-x,1/2-y,1/2-z
1/4+y,3/4-x,1/4-z
1/2+x,y,1/2-z
1/4-y,1/4+x,3/4-z
1/2-x,1/2+y,z
x,1/2-y,1/2+z
3/4-y,1/4-x,1/4+z
1/4+y,1/4+x,1/4+z
loop_
_atom_site_type_symbol
_atom_site_label
_atom_site_fract_x
_atom_site_fract_y
_atom_site_fract_z
Si Si1 0.370572 0.620572 0.125000
Si Si2 0.520040 0.430339 0.767721
Si Si3 0.116772 0.967719 0.837991
Si Si4 0.935672 0.455729 0.990917
Si Si5 0.398709 0.740888 0.360464
O O1 0.431670 0.615003 0.184551
O O2 0.308049 0.635891 0.183504
O O3 0.549400 0.500000 0.750000
O O4 0.453202 0.438528 0.816102
O O5 0.505665 0.404583 0.677254
O O6 0.165470 0.915470 0.875000
O O7 0.137936 0.000000 0.750000
O O8 0.103303 0.018380 0.911525
O O9 0.964553 0.386251 0.969605
O O10 0.000000 0.500000 0.000000
O O11 0.439594 0.804231 0.348120
#
# Coordination Sequence:
#
# PCOD9574122 Si02
#       5
#    16  32  32  32  32
#     4  12  24  44  71 108 136 182 236 288 360 437
#     4  11  22  44  69  98 138 184 231 286 360 417
#     4  11  25  48  72  99 138 188 236 291 355 419
#     4  12  24  43  70 102 144 185 227 290 361 423
#     4  11  23  40  67 100 135 179 223 289 353 418
#
# _framework density 20.450256
#
# number of rings (size 3 to 8) (size 9 to 14) (size 15 to 20)
#    0.000    0.667    8.889    0.000    3.111    0.000 
#    6.000    1.111    0.000    0.000    0.000    0.000 
#    0.000    0.000    0.000    0.000    0.000    0.000 
#
# Total GULP energy -401246.708724 kJ/mol
# GULP energy per Si atom -5572.870955 kJ/mol
# Density = 2.040371 g / cm^3
# Si number density = 20.450256 Si / 1000 Ang^3
#
#
#
# Elastic Constant Matrix: (Units=GPa)
#
#
# Indices 1 2 3 4 5 6 
#
# 1 66.3327 60.3015 32.3026 0.0000 0.0000 0.0000
# 2 60.3015 66.3327 32.3026 0.0000 0.0000 0.0000
# 3 32.3026 32.3026 108.8425 0.0000 0.0000 0.0000
# 4 0.0000 0.0000 0.0000 25.8111 0.0000 0.0000
# 5 0.0000 0.0000 0.0000 0.0000 25.8111 0.0000
# 6 0.0000 0.0000 0.0000 0.0000 0.0000 50.3543
#
#
#
# Elastic Compliance Matrix: (Units=1/GPa)
#
#
# Indices 1 2 3 4 5 6 
#
# 1 0.087555 -0.078250 -0.002762 0.000000 0.000000 0.000000
# 2 -0.078250 0.087555 -0.002762 0.000000 0.000000 0.000000
# 3 -0.002762 -0.002762 0.010827 0.000000 0.000000 0.000000
# 4 0.000000 0.000000 0.000000 0.038743 0.000000 0.000000
# 5 0.000000 0.000000 0.000000 0.000000 0.038743 0.000000
# 6 0.000000 0.000000 0.000000 0.000000 0.000000 0.019859
#
#
# Mechanical properties :
#
#
# Convention : Reuss Voigt Hill
#
# Bulk Modulus (GPa) = 54.37373 54.59125 54.48249
# Shear Modulus (GPa) = 10.94189 28.16870 19.55530
#
# Velocity S-wave (km/s) = 2.31562 3.71539 3.09566
# Velocity P-wave (km/s) = 5.81339 6.71998 6.28306
#
# Compressibility (1/GPa) = 0.01839124
#
# Stress axis : x y z
#
# Youngs Moduli (GPa) = 11.42136 11.42136 92.36269
#
# Poissons Ratio (x) = 0.89372 0.25509
# Poissons Ratio (y) = 0.89372 0.25509
# Poissons Ratio (z) = 0.03154 0.03154
#
# Static dielectric constant tensor:
#      x y z
#    x 1.754260 0.000000 0.000000 
#    y 0.000000 1.754260 0.000000 
#    z 0.000000 0.000000 1.809490 
# 
# From -- ./inp_files/7243.got.cif
#   From: 2010.05.17/outbox.cif.g08.bks.cpg/sg142_4_cif.got.tgz:7243.got - 2010.05.20 13:39:18.
