data_PCOD9574532
_publ_section_title
;
Structure prediction by ZEFSAII (Michael W. Deem and Ramdas Pophale) SiO2 
 PCOD9574532
Probable space group: P 32
;
_chemical_formula_sum "Si O2"
_cell_formula_units_Z 18
_cell_length_a 11.726025
_cell_length_b 11.726025
_cell_length_c 7.802635
_cell_angle_alpha 90.000000
_cell_angle_beta 90.000000
_cell_angle_gamma 120.000000
_cell_volume 929.123735
_symmetry_space_group_name_H-M "P 32"
_symmetry_group_IT_number 145
_symmetry_cell_setting 'hexagonal'
loop_
_space_group_symop_operation_xyz
x,y,z
-y,x-y,2/3+z
-x+y,-x,1/3+z
loop_
_atom_site_type_symbol
_atom_site_label
_atom_site_fract_x
_atom_site_fract_y
_atom_site_fract_z
Si Si1 0.317548 0.918646 0.612780
Si Si2 0.390001 0.615973 0.680465
Si Si3 0.530965 0.043532 0.845627
Si Si4 0.422843 0.204135 0.490363
Si Si5 0.517938 0.212403 0.125650
Si Si6 0.640462 0.929925 0.135535
O O1 0.534573 0.682695 0.766965
O O2 0.182814 0.844379 0.718009
O O3 0.431464 0.921784 0.731314
O O4 0.382821 0.075154 0.597683
O O5 0.384088 0.683453 0.503031
O O6 0.338350 0.466309 0.620183
O O7 0.651618 0.170603 0.753191
O O8 0.470228 0.111623 0.968698
O O9 0.585576 0.979828 0.980489
O O10 0.429312 0.163107 0.294452
O O11 0.568364 0.336900 0.508189
O O12 0.309099 0.239499 0.524664
#
# Coordination Sequence:
#
# PCOD9574532 Si02
#       6
#     3   3   3   3   3   3
#     4  12  21  35  61  84 122 166 199 249 314 367
#     4  12  23  41  65  95 123 158 206 273 323 367
#     4  10  19  34  59  91 122 150 198 259 312 362
#     4  10  20  35  58  86 119 162 197 253 302 366
#     4   8  17  35  57  87 120 145 202 261 306 359
#     4  10  22  38  56  87 126 157 208 245 303 383
#
# _framework density 19.373093000000001
#
# number of rings (size 3 to 8) (size 9 to 14) (size 15 to 20)
#    0.000    2.000    1.667    6.000    0.000    1.333 
#    0.000    0.000   11.000    0.000    0.000    0.000 
#    0.000    0.000    0.000    0.000    0.000    0.000 
#
# Total GULP energy -100222.836840 kJ/mol
# GULP energy per Si atom -5567.935380 kJ/mol
# Density = 1.932900 g / cm^3
# Si number density = 19.373093 Si / 1000 Ang^3
#
#
#
# Elastic Constant Matrix: (Units=GPa)
#
#
# Indices 1 2 3 4 5 6 
#
# 1 66.6389 16.3119 17.2443 1.5173 2.1807 0.0000
# 2 16.3119 66.6389 17.2443 -1.5173 -2.1807 0.0000
# 3 17.2443 17.2443 48.0353 0.0000 0.0000 0.0000
# 4 1.5173 -1.5173 0.0000 25.7442 0.0000 -2.1807
# 5 2.1807 -2.1807 0.0000 0.0000 25.7442 1.5173
# 6 0.0000 0.0000 0.0000 -2.1807 1.5173 25.1635
#
#
#
# Elastic Compliance Matrix: (Units=1/GPa)
#
#
# Indices 1 2 3 4 5 6 
#
# 1 0.017130 -0.002959 -0.005087 -0.001184 -0.001702 0.000000
# 2 -0.002959 0.017130 -0.005087 0.001184 0.001702 0.000000
# 3 -0.005087 -0.005087 0.024470 0.000000 0.000000 0.000000
# 4 -0.001184 0.001184 0.000000 0.039272 0.000000 0.003403
# 5 -0.001702 0.001702 0.000000 0.000000 0.039272 -0.002368
# 6 0.000000 0.000000 0.000000 0.003403 -0.002368 0.040178
#
#
# Mechanical properties :
#
#
# Convention : Reuss Voigt Hill
#
# Bulk Modulus (GPa) = 30.80430 31.43489 31.11960
# Shear Modulus (GPa) = 23.30584 24.03121 23.66853
#
# Velocity S-wave (km/s) = 3.47219 3.52581 3.49911
# Velocity P-wave (km/s) = 5.65773 5.73031 5.69413
#
# Compressibility (1/GPa) = 0.03246300
#
# Stress axis : x y z
#
# Youngs Moduli (GPa) = 58.37828 58.37828 40.86562
#
# Poissons Ratio (x) = 0.17276 0.20789
# Poissons Ratio (y) = 0.17276 0.20789
# Poissons Ratio (z) = 0.29697 0.29697
#
# Static dielectric constant tensor:
#      x y z
#    x 1.757500 0.000000 0.000000 
#    y 0.000000 1.757500 0.000000 
#    z 0.000000 0.000000 1.727130 
# 
# From -- ./inp_files/340.got.cif
#   From: 2010.05.17/outbox.cif.g08.bks.cpg/sg145_cif.got.tgz:340.got - 2010.05.20 13:47:28.
