data_PCOD9574508
_publ_section_title
;
Structure prediction by ZEFSAII (Michael W. Deem and Ramdas Pophale) SiO2 
 PCOD9574508
Probable space group: P 31
;
_chemical_formula_sum "Si O2"
_cell_formula_units_Z 18
_cell_length_a 9.604321
_cell_length_b 9.604321
_cell_length_c 9.850506
_cell_angle_alpha 90.000000
_cell_angle_beta 90.000000
_cell_angle_gamma 120.000000
_cell_volume 786.905363
_symmetry_space_group_name_H-M "P 31"
_symmetry_group_IT_number 144
_symmetry_cell_setting 'hexagonal'
loop_
_space_group_symop_operation_xyz
x,y,z
-y,x-y,1/3+z
-x+y,-x,2/3+z
loop_
_atom_site_type_symbol
_atom_site_label
_atom_site_fract_x
_atom_site_fract_y
_atom_site_fract_z
Si Si1 0.453711 0.222606 0.425400
Si Si2 0.987260 0.727553 0.597027
Si Si3 0.503597 0.885569 0.771551
Si Si4 0.493539 0.203064 0.127353
Si Si5 0.411333 0.531115 0.726863
Si Si6 0.279382 0.029111 0.697130
O O1 0.387680 0.341743 0.387601
O O2 0.440551 0.140612 0.280567
O O3 0.644020 0.317489 0.462077
O O4 0.367975 0.116392 0.556741
O O5 0.877256 0.613275 0.717621
O O6 0.868455 0.715604 0.475986
O O7 0.107535 0.674954 0.528189
O O8 0.096927 0.903609 0.656787
O O9 0.450965 0.712957 0.711534
O O10 0.362940 0.930215 0.754948
O O11 0.552204 0.868247 0.924874
O O12 0.480518 0.052643 0.049101
#
# Coordination Sequence:
#
# PCOD9574508 Si02
#       6
#     3   3   3   3   3   3
#     4  12  25  46  79 108 144 199 252 302 377 456
#     4  12  28  49  75 107 154 200 253 315 377 450
#     4  12  26  46  75 111 151 192 251 316 375 446
#     4  12  25  46  79 108 144 199 252 302 377 456
#     4  12  26  46  75 111 151 192 251 316 375 446
#     4  12  28  49  75 107 154 200 253 315 377 450
#
# _framework density 22.874413000000001
#
# number of rings (size 3 to 8) (size 9 to 14) (size 15 to 20)
#    0.000    0.000    6.667    3.000    4.667    4.000 
#    0.000    0.000    0.000    0.000    0.000    0.000 
#    0.000    0.000    0.000    0.000    0.000    0.000 
#
# Total GULP energy -100655.055006 kJ/mol
# GULP energy per Si atom -5591.947500 kJ/mol
# Density = 2.282235 g / cm^3
# Si number density = 22.874413 Si / 1000 Ang^3
#
#
#
# Elastic Constant Matrix: (Units=GPa)
#
#
# Indices 1 2 3 4 5 6 
#
# 1 86.2388 36.9903 16.7655 2.5638 0.9635 0.0000
# 2 36.9903 86.2388 16.7655 -2.5638 -0.9635 0.0000
# 3 16.7655 16.7655 119.8850 0.0000 0.0000 0.0000
# 4 2.5638 -2.5638 0.0000 26.5398 0.0000 -0.9635
# 5 0.9635 -0.9635 0.0000 0.0000 26.5398 2.5638
# 6 0.0000 0.0000 0.0000 -0.9635 2.5638 24.6242
#
#
#
# Elastic Compliance Matrix: (Units=1/GPa)
#
#
# Indices 1 2 3 4 5 6 
#
# 1 0.014488 -0.006052 -0.001180 -0.001984 -0.000746 0.000000
# 2 -0.006052 0.014488 -0.001180 0.001984 0.000746 0.000000
# 3 -0.001180 -0.001180 0.008671 0.000000 0.000000 0.000000
# 4 -0.001984 0.001984 0.000000 0.038117 0.000000 0.001491
# 5 -0.000746 0.000746 0.000000 0.000000 0.038117 -0.003969
# 6 0.000000 0.000000 0.000000 0.001491 -0.003969 0.041082
#
#
# Mechanical properties :
#
#
# Convention : Reuss Voigt Hill
#
# Bulk Modulus (GPa) = 48.02087 48.15613 48.08850
# Shear Modulus (GPa) = 27.97527 30.33017 29.15272
#
# Velocity S-wave (km/s) = 3.50093 3.64530 3.57384
# Velocity P-wave (km/s) = 6.11399 6.23023 6.17238
#
# Compressibility (1/GPa) = 0.02082428
#
# Stress axis : x y z
#
# Youngs Moduli (GPa) = 69.02037 69.02037 115.32306
#
# Poissons Ratio (x) = 0.41775 0.13605
# Poissons Ratio (y) = 0.41775 0.13605
# Poissons Ratio (z) = 0.08143 0.08143
#
# Static dielectric constant tensor:
#      x y z
#    x 1.852720 0.000000 0.000000 
#    y 0.000000 1.852720 0.000000 
#    z 0.000000 0.000000 1.848050 
# 
# From -- ./inp_files/267.got.cif
#   From: 2010.05.17/outbox.cif.g08.bks.cpg/sg144_cif.got.tgz:267.got - 2010.05.20 13:46:34.
