data_PCOD9574666
_publ_section_title
;
Structure prediction by ZEFSAII (Michael W. Deem and Ramdas Pophale) SiO2 
 PCOD9574666
Probable space group: R 3
;
_chemical_formula_sum "Si O2"
_cell_formula_units_Z 36
_cell_length_a 13.947092
_cell_length_b 13.947092
_cell_length_c 8.134514
_cell_angle_alpha 90.000000
_cell_angle_beta 90.000000
_cell_angle_gamma 120.000000
_cell_volume 1370.343910
_symmetry_space_group_name_H-M "R 3"
_symmetry_group_IT_number 146
_symmetry_cell_setting 'hexagonal'
loop_
_space_group_symop_operation_xyz
x,y,z
-y,x-y,z
-x+y,-x,z
2/3+x,1/3+y,1/3+z
2/3-y,1/3+x-y,1/3+z
2/3-x+y,1/3-x,1/3+z
1/3+x,2/3+y,2/3+z
1/3-y,2/3+x-y,2/3+z
1/3-x+y,2/3-x,2/3+z
loop_
_atom_site_type_symbol
_atom_site_label
_atom_site_fract_x
_atom_site_fract_y
_atom_site_fract_z
Si Si1 0.538040 0.679275 0.810630
Si Si2 0.260754 0.319350 0.855025
Si Si3 0.887843 0.805349 0.812320
Si Si4 0.022924 0.229093 0.483934
O O1 0.477695 0.676412 0.642663
O O2 0.607868 0.614984 0.791603
O O3 0.615230 0.809769 0.844892
O O4 0.475317 0.633910 0.982294
O O5 0.354281 0.368708 0.710810
O O6 0.186462 0.191539 0.804837
O O7 0.850475 0.828968 0.638987
O O8 0.805449 0.673095 0.843372
#
# Coordination Sequence:
#
# PCOD9574666 Si02
#       4
#     9   9   9   9
#     4  10  17  30  49  75  98 126 167 214 249 292
#     4  10  21  32  46  75 108 132 156 206 271 308
#     4  10  17  30  49  75  98 126 167 214 249 292
#     4  10  17  30  54  77  90 128 180 210 239 292
#
# _framework density 26.270776000000001
#
# number of rings (size 3 to 8) (size 9 to 14) (size 15 to 20)
#    0.000    2.000    5.000    1.500    0.000    0.000 
#    0.000    0.000    0.000    1.000    0.000    0.000 
#   35.000    0.000    0.000    0.000    0.000    0.000 
#
# Total GULP energy -67133.073140 kJ/mol
# GULP energy per Si atom -5594.422762 kJ/mol
# Density = 2.621098 g / cm^3
# Si number density = 26.270776 Si / 1000 Ang^3
#
#
#
# Elastic Constant Matrix: (Units=GPa)
#
#
# Indices 1 2 3 4 5 6 
#
# 1 57.4809 26.1997 15.6874 -14.3955 -2.7531 0.0000
# 2 26.1997 57.4809 15.6874 14.3955 2.7531 0.0000
# 3 15.6874 15.6874 177.1595 0.0000 0.0000 0.0000
# 4 -14.3955 14.3955 0.0000 31.9853 0.0000 2.7531
# 5 -2.7531 2.7531 0.0000 0.0000 31.9853 -14.3955
# 6 0.0000 0.0000 0.0000 2.7531 -14.3955 15.6406
#
#
#
# Elastic Compliance Matrix: (Units=1/GPa)
#
#
# Indices 1 2 3 4 5 6 
#
# 1 0.034192 -0.021832 -0.001095 0.025214 0.004822 0.000000
# 2 -0.021832 0.034192 -0.001095 -0.025214 -0.004822 0.000000
# 3 -0.001095 -0.001095 0.005838 0.000000 0.000000 0.000000
# 4 0.025214 -0.025214 0.000000 0.054791 0.000000 -0.009644
# 5 0.004822 -0.004822 0.000000 0.000000 0.054791 0.050429
# 6 0.000000 0.000000 0.000000 -0.009644 0.050429 0.112048
#
#
# Mechanical properties :
#
#
# Convention : Reuss Voigt Hill
#
# Bulk Modulus (GPa) = 38.19485 45.25224 41.72355
# Shear Modulus (GPa) = 14.17953 31.55870 22.86911
#
# Velocity S-wave (km/s) = 2.32576 3.46972 2.95365
# Velocity P-wave (km/s) = 4.66719 5.77188 5.24868
#
# Compressibility (1/GPa) = 0.02618154
#
# Stress axis : x y z
#
# Youngs Moduli (GPa) = 29.24637 29.24637 171.27771
#
# Poissons Ratio (x) = 0.63850 0.18747
# Poissons Ratio (y) = 0.63850 0.18747
# Poissons Ratio (z) = 0.03201 0.03201
#
# Static dielectric constant tensor:
#      x y z
#    x 2.030960 0.000000 0.000000 
#    y 0.000000 2.030960 0.000000 
#    z 0.000000 0.000000 2.146470 
# 
# From -- ./inp_files/538.got.cif
#   From: 2010.05.17/outbox.cif.g08.bks.cpg/sg146_cif.got.tgz:538.got - 2010.05.20 13:48:23.
