data_PCOD9574788
_publ_section_title
;
Structure prediction by ZEFSAII (Michael W. Deem and Ramdas Pophale) SiO2 
 PCOD9574788
Probable space group: R 3
;
_chemical_formula_sum "Si O2"
_cell_formula_units_Z 45
_cell_length_a 13.837638
_cell_length_b 13.837638
_cell_length_c 11.162013
_cell_angle_alpha 90.000000
_cell_angle_beta 90.000000
_cell_angle_gamma 120.000000
_cell_volume 1850.960222
_symmetry_space_group_name_H-M "R 3"
_symmetry_group_IT_number 146
_symmetry_cell_setting 'hexagonal'
loop_
_space_group_symop_operation_xyz
x,y,z
-y,x-y,z
-x+y,-x,z
2/3+x,1/3+y,1/3+z
2/3-y,1/3+x-y,1/3+z
2/3-x+y,1/3-x,1/3+z
1/3+x,2/3+y,2/3+z
1/3-y,2/3+x-y,2/3+z
1/3-x+y,2/3-x,2/3+z
loop_
_atom_site_type_symbol
_atom_site_label
_atom_site_fract_x
_atom_site_fract_y
_atom_site_fract_z
Si Si1 0.750112 0.061783 0.592940
Si Si2 0.488395 0.556925 0.338277
Si Si3 0.366457 0.092101 0.739712
Si Si4 0.840530 0.120749 0.331159
Si Si5 0.401120 0.594660 0.570556
O O1 0.841333 0.152218 0.682075
O O2 0.805737 0.072060 0.465142
O O3 0.651341 0.090543 0.579588
O O4 0.697736 0.936765 0.645808
O O5 0.527713 0.603971 0.204950
O O6 0.608124 0.626255 0.406833
O O7 0.416242 0.587499 0.428063
O O8 0.471596 0.110992 0.661571
O O9 0.791441 0.201654 0.302426
O O10 0.454843 0.725681 0.599856
#
# Coordination Sequence:
#
# PCOD9574788 Si02
#       5
#     9   9   9   9   9
#     4  12  27  49  78 113 158 208 256 333 394 469
#     4  12  25  49  79 110 156 202 266 320 395 469
#     4  12  27  48  79 115 153 208 258 331 388 475
#     4  12  27  48  78 113 161 200 263 327 392 473
#     4  10  26  44  78 113 154 206 257 323 391 476
#
# _framework density 24.311705
#
# number of rings (size 3 to 8) (size 9 to 14) (size 15 to 20)
#    0.400    0.000    4.000    3.600    5.600    1.600 
#    2.400    2.000    0.000    0.000    0.000    0.000 
#    0.000    0.000    0.000    0.000    0.000    0.000 
#
# Total GULP energy -83728.563437 kJ/mol
# GULP energy per Si atom -5581.904229 kJ/mol
# Density = 2.425637 g / cm^3
# Si number density = 24.311705 Si / 1000 Ang^3
#
#
#
# Elastic Constant Matrix: (Units=GPa)
#
#
# Indices 1 2 3 4 5 6 
#
# 1 98.1143 23.9222 13.0940 -9.4159 -6.7612 0.0000
# 2 23.9222 98.1143 13.0940 9.4159 6.7612 0.0000
# 3 13.0940 13.0940 73.6246 0.0000 0.0000 0.0000
# 4 -9.4159 9.4159 0.0000 33.9950 0.0000 6.7612
# 5 -6.7612 6.7612 0.0000 0.0000 33.9950 -9.4159
# 6 0.0000 0.0000 0.0000 6.7612 -9.4159 37.0961
#
#
#
# Elastic Compliance Matrix: (Units=1/GPa)
#
#
# Indices 1 2 3 4 5 6 
#
# 1 0.011803 -0.003283 -0.001515 0.004178 0.003000 0.000000
# 2 -0.003283 0.011803 -0.001515 -0.004178 -0.003000 0.000000
# 3 -0.001515 -0.001515 0.014121 0.000000 0.000000 0.000000
# 4 0.004178 -0.004178 0.000000 0.032924 0.000000 -0.006001
# 5 0.003000 -0.003000 0.000000 0.000000 0.032924 0.008357
# 6 0.000000 0.000000 0.000000 -0.006001 0.008357 0.030172
#
#
# Mechanical properties :
#
#
# Convention : Reuss Voigt Hill
#
# Bulk Modulus (GPa) = 39.84139 41.11931 40.48035
# Shear Modulus (GPa) = 32.31203 35.66673 33.98938
#
# Velocity S-wave (km/s) = 3.64960 3.83438 3.74313
# Velocity P-wave (km/s) = 5.84660 6.04594 5.94711
#
# Compressibility (1/GPa) = 0.02509952
#
# Stress axis : x y z
#
# Youngs Moduli (GPa) = 84.72639 84.72639 70.81469
#
# Poissons Ratio (x) = 0.27818 0.10730
# Poissons Ratio (y) = 0.27818 0.10730
# Poissons Ratio (z) = 0.12837 0.12837
#
# Static dielectric constant tensor:
#      x y z
#    x 1.965530 0.000000 0.000000 
#    y 0.000000 1.965530 0.000000 
#    z 0.000000 0.000000 1.914250 
# 
# From -- ./inp_files/1096.got.cif
#   From: 2010.05.17/outbox.cif.g08.bks.cpg/sg146_cif.got.tgz:1096.got - 2010.05.20 13:48:23.
