data_PCOD9574185
_publ_section_title
;
Structure prediction by ZEFSAII (Michael W. Deem and Ramdas Pophale) SiO2 
 PCOD9574185
Probable space group: I 41/A C D
;
_chemical_formula_sum "Si O2"
_cell_formula_units_Z 176
_cell_length_a 17.131133
_cell_length_b 17.131133
_cell_length_c 24.984586
_cell_angle_alpha 90.000000
_cell_angle_beta 90.000000
_cell_angle_gamma 90.000000
_cell_volume 7332.369312
_symmetry_space_group_name_H-M "I 41/A C D"
_symmetry_group_IT_number 142
_space_group.IT_coordinate_system_code '2'
_symmetry_cell_setting 'tetragonal'
loop_
_space_group_symop_operation_xyz
x,y,z
1/4-y,3/4+x,1/4+z
-x,1/2-y,z
1/4+y,1/4-x,3/4+z
x,-y,1/2-z
1/2-x,y,-z
3/4+y,1/4+x,1/4-z
1/4-y,1/4-x,1/4-z
-x,-y,-z
3/4+y,1/4-x,3/4-z
x,1/2+y,-z
3/4-y,3/4+x,1/4-z
-x,y,1/2+z
1/2+x,-y,z
1/4-y,3/4-x,3/4+z
3/4+y,3/4+x,3/4+z
1/2+x,1/2+y,1/2+z
3/4-y,1/4+x,3/4+z
1/2-x,-y,1/2+z
3/4+y,3/4-x,1/4+z
1/2+x,1/2-y,-z
-x,1/2+y,1/2-z
1/4+y,3/4+x,3/4-z
3/4-y,3/4-x,3/4-z
1/2-x,1/2-y,1/2-z
1/4+y,3/4-x,1/4-z
1/2+x,y,1/2-z
1/4-y,1/4+x,3/4-z
1/2-x,1/2+y,z
x,1/2-y,1/2+z
3/4-y,1/4-x,1/4+z
1/4+y,1/4+x,1/4+z
loop_
_atom_site_type_symbol
_atom_site_label
_atom_site_fract_x
_atom_site_fract_y
_atom_site_fract_z
Si Si1 0.342088 0.808744 0.482595
Si Si2 0.194623 0.843438 0.834255
Si Si3 0.696360 0.053641 0.375000
Si Si4 0.190910 0.192894 0.212278
Si Si5 0.360206 0.103775 0.115367
Si Si6 0.158664 0.136376 0.488959
O O1 0.250000 0.818461 0.500000
O O2 0.398849 0.877252 0.502106
O O3 0.355365 0.817405 0.418602
O O4 0.369785 0.723797 0.502205
O O5 0.147456 0.897456 0.875000
O O6 0.155973 0.759761 0.826164
O O7 0.283547 0.830355 0.852149
O O8 0.183538 0.883572 0.776861
O O9 0.704469 0.123425 0.331937
O O10 0.779926 0.060566 0.402911
O O11 0.250000 0.250000 0.250000
O O12 0.368241 0.114807 0.178469
O O13 0.250000 0.142240 0.500000
#
# Coordination Sequence:
#
# PCOD9574185 Si02
#       6
#    32  32  16  32  32  32
#     4  11  26  48  73 106 148 198 251 314 389 458
#     4  12  26  45  70 109 149 192 241 313 389 458
#     4  12  26  44  75 108 144 203 256 310 380 468
#     4  12  27  45  74 109 153 195 261 321 381 472
#     4  12  24  44  79 107 142 197 257 311 379 469
#     4  11  25  46  72 107 151 192 251 322 386 466
#
# _framework density 24.003157000000002
#
# number of rings (size 3 to 8) (size 9 to 14) (size 15 to 20)
#    0.000    0.364    6.364    1.091    5.091    2.909 
#    0.000    0.000    0.000    0.000    0.000    0.000 
#    0.000    0.000    0.000    0.000    0.000    0.000 
#
# Total GULP energy -489928.277688 kJ/mol
# GULP energy per Si atom -5567.366792 kJ/mol
# Density = 2.394852 g / cm^3
# Si number density = 24.003157 Si / 1000 Ang^3
#
#
#
# Elastic Constant Matrix: (Units=GPa)
#
#
# Indices 1 2 3 4 5 6 
#
# 1 91.7850 26.1874 27.2627 0.0000 0.0000 0.0000
# 2 26.1874 91.7842 27.2629 0.0000 0.0000 0.0000
# 3 27.2627 27.2629 136.8507 0.0000 0.0000 0.0000
# 4 0.0000 0.0000 0.0000 19.9356 0.0000 0.0000
# 5 0.0000 0.0000 0.0000 0.0000 19.9359 0.0000
# 6 0.0000 0.0000 0.0000 0.0000 0.0000 26.8789
#
#
#
# Elastic Compliance Matrix: (Units=1/GPa)
#
#
# Indices 1 2 3 4 5 6 
#
# 1 0.012290 -0.002954 -0.001860 0.000000 0.000000 0.000000
# 2 -0.002954 0.012290 -0.001860 0.000000 0.000000 0.000000
# 3 -0.001860 -0.001860 0.008048 0.000000 0.000000 0.000000
# 4 0.000000 0.000000 0.000000 0.050162 0.000000 0.000000
# 5 0.000000 0.000000 0.000000 0.000000 0.050161 0.000000
# 6 0.000000 0.000000 0.000000 0.000000 0.000000 0.037204
#
#
# Mechanical properties :
#
#
# Convention : Reuss Voigt Hill
#
# Bulk Modulus (GPa) = 51.86439 53.53842 52.70140
# Shear Modulus (GPa) = 26.32542 29.33053 27.82798
#
# Velocity S-wave (km/s) = 3.31531 3.49942 3.40861
# Velocity P-wave (km/s) = 6.02572 6.21942 6.12333
#
# Compressibility (1/GPa) = 0.01928105
#
# Stress axis : x y z
#
# Youngs Moduli (GPa) = 81.36482 81.36403 124.25012
#
# Poissons Ratio (x) = 0.24036 0.23109
# Poissons Ratio (y) = 0.24036 0.23110
# Poissons Ratio (z) = 0.15133 0.15133
#
# Static dielectric constant tensor:
#      x y z
#    x 2.116160 0.000000 0.000000 
#    y 0.000000 2.116170 0.000000 
#    z 0.000000 0.000000 2.208990 
# 
# From -- ./inp_files/11437.got.cif
#   From: 2010.05.17/outbox.cif.g08.bks.cpg/sg142_6_cif.got.tgz:11437.got - 2010.05.20 13:39:18.
