data_PCOD9574234
_publ_section_title
;
Structure prediction by ZEFSAII (Michael W. Deem and Ramdas Pophale) SiO2 
 PCOD9574234
Probable space group: I 41/A C D
;
_chemical_formula_sum "Si O2"
_cell_formula_units_Z 136
_cell_length_a 23.600820
_cell_length_b 23.600820
_cell_length_c 11.312927
_cell_angle_alpha 90.000000
_cell_angle_beta 90.000000
_cell_angle_gamma 90.000000
_cell_volume 6301.285685
_symmetry_space_group_name_H-M "I 41/A C D"
_symmetry_group_IT_number 142
_space_group.IT_coordinate_system_code '2'
_symmetry_cell_setting 'tetragonal'
loop_
_space_group_symop_operation_xyz
x,y,z
1/4-y,3/4+x,1/4+z
-x,1/2-y,z
1/4+y,1/4-x,3/4+z
x,-y,1/2-z
1/2-x,y,-z
3/4+y,1/4+x,1/4-z
1/4-y,1/4-x,1/4-z
-x,-y,-z
3/4+y,1/4-x,3/4-z
x,1/2+y,-z
3/4-y,3/4+x,1/4-z
-x,y,1/2+z
1/2+x,-y,z
1/4-y,3/4-x,3/4+z
3/4+y,3/4+x,3/4+z
1/2+x,1/2+y,1/2+z
3/4-y,1/4+x,3/4+z
1/2-x,-y,1/2+z
3/4+y,3/4-x,1/4+z
1/2+x,1/2-y,-z
-x,1/2+y,1/2-z
1/4+y,3/4+x,3/4-z
3/4-y,3/4-x,3/4-z
1/2-x,1/2-y,1/2-z
1/4+y,3/4-x,1/4-z
1/2+x,y,1/2-z
1/4-y,1/4+x,3/4-z
1/2-x,1/2+y,z
x,1/2-y,1/2+z
3/4-y,1/4-x,1/4+z
1/4+y,1/4+x,1/4+z
loop_
_atom_site_type_symbol
_atom_site_label
_atom_site_fract_x
_atom_site_fract_y
_atom_site_fract_z
Si Si1 0.750000 0.543855 0.500000
Si Si2 0.845599 0.892470 0.120792
Si Si3 0.000000 0.250000 0.375000
Si Si4 0.750000 0.133359 0.000000
Si Si5 0.954977 0.855492 0.982014
Si Si6 0.201139 0.793338 0.785579
O O1 0.739232 0.510769 0.625000
O O2 0.695815 0.584338 0.480388
O O3 0.848737 0.944890 0.211130
O O4 0.819569 0.837250 0.184374
O O5 0.908890 0.882000 0.072042
O O6 0.013319 0.304306 0.453877
O O7 0.773262 0.171059 0.107242
O O8 0.919028 0.830973 0.875000
O O9 0.002493 0.898504 0.935832
O O10 0.250000 0.750000 0.750000
#
# Coordination Sequence:
#
# PCOD9574234 Si02
#       6
#    16  32   8  16  32  32
#     4  12  27  49  80 112 162 212 264 328 398 490
#     4  12  27  50  75 114 153 204 260 322 400 472
#     4  12  26  52  72 110 144 200 254 312 392 454
#     4  12  27  49  78 112 156 200 256 332 398 478
#     4  12  28  47  76 109 150 199 256 325 390 470
#     4  12  28  48  78 112 154 206 262 326 395 480
#
# _framework density 21.582896000000002
#
# number of rings (size 3 to 8) (size 9 to 14) (size 15 to 20)
#    0.000    0.000    4.706    3.882    9.882    1.882 
#    0.000    0.000    0.000    0.000    0.000    0.000 
#    0.000    0.000    0.000    0.000    0.000    0.000 
#
# Total GULP energy -380466.915078 kJ/mol
# GULP energy per Si atom -5595.101692 kJ/mol
# Density = 2.153377 g / cm^3
# Si number density = 21.582896 Si / 1000 Ang^3
#
#
#
# Elastic Constant Matrix: (Units=GPa)
#
#
# Indices 1 2 3 4 5 6 
#
# 1 105.2767 32.8125 16.0177 0.0000 0.0000 0.0000
# 2 32.8125 105.2766 16.0183 0.0000 0.0000 0.0000
# 3 16.0177 16.0183 69.2671 0.0000 0.0000 0.0000
# 4 0.0000 0.0000 0.0000 111.6439 0.0000 0.0000
# 5 0.0000 0.0000 0.0000 0.0000 111.8729 0.0000
# 6 0.0000 0.0000 0.0000 0.0000 0.0000 58.0226
#
#
#
# Elastic Compliance Matrix: (Units=1/GPa)
#
#
# Indices 1 2 3 4 5 6 
#
# 1 0.010726 -0.003074 -0.001770 0.000000 0.000000 0.000000
# 2 -0.003074 0.010726 -0.001770 0.000000 0.000000 0.000000
# 3 -0.001770 -0.001770 0.015255 0.000000 0.000000 0.000000
# 4 0.000000 0.000000 0.000000 0.008957 0.000000 0.000000
# 5 0.000000 0.000000 0.000000 0.000000 0.008939 0.000000
# 6 0.000000 0.000000 0.000000 0.000000 0.000000 0.017235
#
#
# Mechanical properties :
#
#
# Convention : Reuss Voigt Hill
#
# Bulk Modulus (GPa) = 42.58681 45.50193 44.04437
# Shear Modulus (GPa) = 53.82651 70.63934 62.23293
#
# Velocity S-wave (km/s) = 4.99936 5.72716 5.37559
# Velocity P-wave (km/s) = 7.28693 8.05369 7.67989
#
# Compressibility (1/GPa) = 0.02348145
#
# Stress axis : x y z
#
# Youngs Moduli (GPa) = 93.23089 93.23054 65.55104
#
# Poissons Ratio (x) = 0.28658 0.11599
# Poissons Ratio (y) = 0.28658 0.11600
# Poissons Ratio (z) = 0.16497 0.16499
#
# Static dielectric constant tensor:
#      x y z
#    x 2.003960 0.000000 0.000000 
#    y 0.000000 2.003930 0.000000 
#    z 0.000000 0.000000 1.712080 
# 
# From -- ./inp_files/3647.got.cif
#   From: 2010.05.17/outbox.cif.g08.bks.cpg/sg142_2_cif.got.tgz:3647.got - 2010.05.20 13:39:18.
