data_PCOD9574565
_publ_section_title
;
Structure prediction by ZEFSAII (Michael W. Deem and Ramdas Pophale) SiO2 
 PCOD9574565
Probable space group: P 32
;
_chemical_formula_sum "Si O2"
_cell_formula_units_Z 21
_cell_length_a 7.357176
_cell_length_b 7.357176
_cell_length_c 19.648258
_cell_angle_alpha 90.000000
_cell_angle_beta 90.000000
_cell_angle_gamma 120.000000
_cell_volume 921.036783
_symmetry_space_group_name_H-M "P 32"
_symmetry_group_IT_number 145
_symmetry_cell_setting 'hexagonal'
loop_
_space_group_symop_operation_xyz
x,y,z
-y,x-y,2/3+z
-x+y,-x,1/3+z
loop_
_atom_site_type_symbol
_atom_site_label
_atom_site_fract_x
_atom_site_fract_y
_atom_site_fract_z
Si Si1 0.393657 0.053760 0.112100
Si Si2 0.416098 0.366909 0.207549
Si Si3 0.902076 0.665383 0.690939
Si Si4 0.683684 0.984566 0.511774
Si Si5 0.155230 0.144317 0.704469
Si Si6 0.305084 0.034896 0.490868
Si Si7 0.122809 0.276422 0.564774
O O1 0.506377 0.270223 0.152772
O O2 0.543638 0.022139 0.061936
O O3 0.261910 0.862258 0.164873
O O4 0.205582 0.040623 0.065930
O O5 0.415053 0.267636 0.280672
O O6 0.533608 0.617982 0.213614
O O7 0.181232 0.287717 0.181688
O O8 0.728425 0.661785 0.742618
O O9 0.083636 0.907495 0.686750
O O10 0.779003 0.081766 0.436998
O O11 0.500449 0.033438 0.526529
O O12 0.880168 0.081899 0.562590
O O13 0.224455 0.286169 0.637729
O O14 0.252292 0.214611 0.513325
#
# Coordination Sequence:
#
# PCOD9574565 Si02
#       7
#     3   3   3   3   3   3   3
#     4  10  22  46  71 107 147 191 244 306 365 450
#     4  12  24  45  77 107 151 199 248 311 379 444
#     4  12  22  45  74 107 150 196 246 309 377 440
#     4  10  23  46  68 107 146 186 249 304 362 447
#     4  10  21  45  71 101 148 185 242 309 360 445
#     4  12  25  44  74 105 149 192 244 310 367 447
#     4  12  23  47  73 100 151 195 239 311 374 441
#
# _framework density 22.800395000000002
#
# number of rings (size 3 to 8) (size 9 to 14) (size 15 to 20)
#    0.857    0.000    7.143    0.857    2.000    0.000 
#    5.143    5.714    0.000    0.000    0.000    0.000 
#    0.000    0.000    0.000    0.000    0.000    0.000 
#
# Total GULP energy -117185.202458 kJ/mol
# GULP energy per Si atom -5580.247736 kJ/mol
# Density = 2.274850 g / cm^3
# Si number density = 22.800395 Si / 1000 Ang^3
#
#
#
# Elastic Constant Matrix: (Units=GPa)
#
#
# Indices 1 2 3 4 5 6 
#
# 1 80.7634 13.0207 21.9352 -0.6234 -0.7052 0.0000
# 2 13.0207 80.7634 21.9352 0.6234 0.7052 0.0000
# 3 21.9352 21.9352 86.1647 0.0000 0.0000 0.0000
# 4 -0.6234 0.6234 0.0000 22.8337 0.0000 0.7052
# 5 -0.7052 0.7052 0.0000 0.0000 22.8337 -0.6234
# 6 0.0000 0.0000 0.0000 0.7052 -0.6234 33.8713
#
#
#
# Elastic Compliance Matrix: (Units=1/GPa)
#
#
# Indices 1 2 3 4 5 6 
#
# 1 0.013441 -0.001337 -0.003081 0.000403 0.000456 0.000000
# 2 -0.001337 0.013441 -0.003081 -0.000403 -0.000456 0.000000
# 3 -0.003081 -0.003081 0.013175 0.000000 0.000000 0.000000
# 4 0.000403 -0.000403 0.000000 0.043845 0.000000 -0.000913
# 5 0.000456 -0.000456 0.000000 0.000000 0.043845 0.000807
# 6 0.000000 0.000000 0.000000 -0.000913 0.000807 0.029557
#
#
# Mechanical properties :
#
#
# Convention : Reuss Voigt Hill
#
# Bulk Modulus (GPa) = 39.90842 40.16374 40.03608
# Shear Modulus (GPa) = 27.67669 28.62779 28.15224
#
# Velocity S-wave (km/s) = 3.48784 3.54727 3.51768
# Velocity P-wave (km/s) = 5.81046 5.86780 5.83920
#
# Compressibility (1/GPa) = 0.02505737
#
# Stress axis : x y z
#
# Youngs Moduli (GPa) = 74.39680 74.39680 75.90391
#
# Poissons Ratio (x) = 0.09949 0.23389
# Poissons Ratio (y) = 0.09949 0.23389
# Poissons Ratio (z) = 0.22925 0.22925
#
# Static dielectric constant tensor:
#      x y z
#    x 1.870730 0.000000 0.000000 
#    y 0.000000 1.870730 0.000000 
#    z 0.000000 0.000000 1.855880 
# 
# From -- ./inp_files/795.got.cif
#   From: 2010.05.17/outbox.cif.g08.bks.cpg/sg145_cif.got.tgz:795.got - 2010.05.20 13:47:28.
