data_PCOD9574245
_publ_section_title
;
Structure prediction by ZEFSAII (Michael W. Deem and Ramdas Pophale) SiO2 
 PCOD9574245
Probable space group: I 41/A C D
;
_chemical_formula_sum "Si O2"
_cell_formula_units_Z 80
_cell_length_a 18.000000
_cell_length_b 18.000000
_cell_length_c 27.000000
_cell_angle_alpha 90.000000
_cell_angle_beta 90.000000
_cell_angle_gamma 90.000000
_cell_volume 8748.000000
_symmetry_space_group_name_H-M "I 41/A C D"
_symmetry_group_IT_number 142
_space_group.IT_coordinate_system_code '2'
_symmetry_cell_setting 'tetragonal'
loop_
_space_group_symop_operation_xyz
x,y,z
1/4-y,3/4+x,1/4+z
-x,1/2-y,z
1/4+y,1/4-x,3/4+z
x,-y,1/2-z
1/2-x,y,-z
3/4+y,1/4+x,1/4-z
1/4-y,1/4-x,1/4-z
-x,-y,-z
3/4+y,1/4-x,3/4-z
x,1/2+y,-z
3/4-y,3/4+x,1/4-z
-x,y,1/2+z
1/2+x,-y,z
1/4-y,3/4-x,3/4+z
3/4+y,3/4+x,3/4+z
1/2+x,1/2+y,1/2+z
3/4-y,1/4+x,3/4+z
1/2-x,-y,1/2+z
3/4+y,3/4-x,1/4+z
1/2+x,1/2-y,-z
-x,1/2+y,1/2-z
1/4+y,3/4+x,3/4-z
3/4-y,3/4-x,3/4-z
1/2-x,1/2-y,1/2-z
1/4+y,3/4-x,1/4-z
1/2+x,y,1/2-z
1/4-y,1/4+x,3/4-z
1/2-x,1/2+y,z
x,1/2-y,1/2+z
3/4-y,1/4-x,1/4+z
1/4+y,1/4+x,1/4+z
loop_
_atom_site_type_symbol
_atom_site_label
_atom_site_fract_x
_atom_site_fract_y
_atom_site_fract_z
Si Si1 0.399315 0.819695 0.361595
Si Si2 0.961608 0.567951 0.470987
Si Si3 0.168547 0.177761 0.023362
Si Si4 0.064372 0.190217 0.498097
Si Si5 0.262646 0.629066 0.123291
O O1 0.480072 0.849542 0.379672
O O2 0.398606 0.833570 0.302713
O O3 0.325603 0.857262 0.384772
O O4 0.892243 0.615835 0.494135
O O5 0.924857 0.533155 0.422392
O O6 0.000000 0.500000 0.500000
O O7 0.026002 0.630841 0.465260
O O8 0.186254 0.164188 0.080657
O O9 0.250000 0.170404 0.000000
O O10 0.132255 0.258641 0.015484
O O11 0.000000 0.250000 0.485373
O O12 0.293931 0.543931 0.125000
#
# Coordination Sequence:
#
# PCOD9574245 Si02
#       5
#    32  32  32  32  32
#     4  11  20  33  64  92 114 149 208 258 292 340
#     4  10  20  37  60  84 114 158 199 236 293 365
#     4  10  22  37  58  86 120 152 195 247 303 347
#     4  10  19  35  58  87 112 149 199 247 285 346
#     4  10  22  38  58  86 123 160 187 241 309 367
#
# _framework density 9.1449470000000002
#
# number of rings (size 3 to 8) (size 9 to 14) (size 15 to 20)
#    0.000    1.800    4.000    1.200    2.800    0.800 
#    0.000    5.000   13.200    0.000    0.000    0.000 
#    0.000    0.000    0.000    0.000    0.000    0.000 
#
# Total GULP energy -445530.652339 kJ/mol
# GULP energy per Si atom -5569.133154 kJ/mol
# Density = 0.912413 g / cm^3
# Si number density = 9.144947 Si / 1000 Ang^3
#
#
#
# Elastic Constant Matrix: (Units=GPa)
#
#
# Indices 1 2 3 4 5 6 
#
# 1 132.4353 68.1568 26.3992 0.0000 0.0000 0.0000
# 2 68.1568 132.4353 26.3992 0.0000 0.0000 0.0000
# 3 26.3992 26.3992 36.5915 0.0000 0.0000 0.0000
# 4 0.0000 0.0000 0.0000 23.1490 0.0000 0.0000
# 5 0.0000 0.0000 0.0000 0.0000 23.1490 0.0000
# 6 0.0000 0.0000 0.0000 0.0000 0.0000 33.3035
#
#
#
# Elastic Compliance Matrix: (Units=1/GPa)
#
#
# Indices 1 2 3 4 5 6 
#
# 1 0.010856 -0.004702 -0.004440 0.000000 0.000000 0.000000
# 2 -0.004702 0.010856 -0.004440 0.000000 0.000000 0.000000
# 3 -0.004440 -0.004440 0.033735 0.000000 0.000000 0.000000
# 4 0.000000 0.000000 0.000000 0.043198 0.000000 0.000000
# 5 0.000000 0.000000 0.000000 0.000000 0.043198 0.000000
# 6 0.000000 0.000000 0.000000 0.000000 0.000000 0.030027
#
#
# Mechanical properties :
#
#
# Convention : Reuss Voigt Hill
#
# Bulk Modulus (GPa) = 35.35614 60.37474 47.86544
# Shear Modulus (GPa) = 23.98541 27.95408 25.96975
#
# Velocity S-wave (km/s) = 3.62526 3.91370 3.77224
# Velocity P-wave (km/s) = 6.07423 7.31466 6.72312
#
# Compressibility (1/GPa) = 0.02828363
#
# Stress axis : x y z
#
# Youngs Moduli (GPa) = 92.11866 92.11866 29.64289
#
# Poissons Ratio (x) = 0.43312 0.13161
# Poissons Ratio (y) = 0.43312 0.13161
# Poissons Ratio (z) = 0.40898 0.40898
#
# Static dielectric constant tensor:
#      x y z
#    x 1.637840 0.000000 0.000000 
#    y 0.000000 1.637840 0.000000 
#    z 0.000000 0.000000 1.704370 
# 
# From -- ./inp_files/11293.got.cif
#   From: 2010.05.17/outbox.ucp.g08.bks.cvg/sg142_6_cif.got.tgz:11293.got - 2010.06.11 11:43:53.
