data_PCOD9574302
_publ_section_title
;
Structure prediction by ZEFSAII (Michael W. Deem and Ramdas Pophale) SiO2 
 PCOD9574302
Probable space group: P 31
;
_chemical_formula_sum "Si O2"
_cell_formula_units_Z 24
_cell_length_a 11.586840
_cell_length_b 11.586840
_cell_length_c 10.589025
_cell_angle_alpha 90.000000
_cell_angle_beta 90.000000
_cell_angle_gamma 120.000000
_cell_volume 1231.166033
_symmetry_space_group_name_H-M "P 31"
_symmetry_group_IT_number 144
_symmetry_cell_setting 'hexagonal'
loop_
_space_group_symop_operation_xyz
x,y,z
-y,x-y,1/3+z
-x+y,-x,2/3+z
loop_
_atom_site_type_symbol
_atom_site_label
_atom_site_fract_x
_atom_site_fract_y
_atom_site_fract_z
Si Si1 0.426953 0.786370 0.043850
Si Si2 0.155016 0.396109 0.513391
Si Si3 0.412748 0.837637 0.568078
Si Si4 0.047514 0.731781 0.753251
Si Si5 0.695148 0.689934 0.332579
Si Si6 0.263900 0.172568 0.855525
Si Si7 0.038394 0.210699 0.742491
Si Si8 0.110800 0.173689 0.313982
O O1 0.384987 0.879302 0.122012
O O2 0.477814 0.716541 0.144054
O O3 0.522287 0.818681 0.922824
O O4 0.280842 0.678546 0.990381
O O5 0.054822 0.297973 0.619526
O O6 0.153573 0.302079 0.401580
O O7 0.538204 0.896062 0.475910
O O8 0.414548 0.954326 0.649919
O O9 0.175515 0.871777 0.710666
O O10 0.994524 0.780474 0.869931
O O11 0.945933 0.670111 0.637240
O O12 0.784787 0.659762 0.427054
O O13 0.753458 0.727157 0.192124
O O14 0.181653 0.226541 0.776784
O O15 0.158647 0.035018 0.924496
O O16 0.945903 0.054081 0.721508
#
# Coordination Sequence:
#
# PCOD9574302 Si02
#       8
#     3   3   3   3   3   3   3   3
#     4  10  22  34  54  86 126 160 204 252 306 390
#     4  11  21  34  56  86 126 171 197 254 320 375
#     4  11  18  36  53  80 121 160 191 246 308 371
#     4  10  20  33  53  80 116 159 196 242 304 360
#     4  10  20  33  53  80 116 159 196 242 304 360
#     4  10  21  34  53  82 119 159 198 248 300 372
#     4  11  20  35  55  84 122 159 200 246 308 376
#     4  11  20  35  55  84 122 159 200 246 308 376
#
# _framework density 19.493715999999999
#
# number of rings (size 3 to 8) (size 9 to 14) (size 15 to 20)
#    0.000    1.500    3.750    4.500    0.000    0.000 
#    0.000    0.000    0.000    0.000    0.000    1.750 
#    0.000    0.000    0.000    0.000    0.000    0.000 
#
# Total GULP energy -133844.802422 kJ/mol
# GULP energy per Si atom -5576.866768 kJ/mol
# Density = 1.944935 g / cm^3
# Si number density = 19.493716 Si / 1000 Ang^3
#
#
#
# Elastic Constant Matrix: (Units=GPa)
#
#
# Indices 1 2 3 4 5 6 
#
# 1 45.8980 13.4868 20.5418 -2.3883 -0.0009 0.0000
# 2 13.4868 45.8980 20.5418 2.3883 0.0009 0.0000
# 3 20.5418 20.5418 77.4201 0.0000 0.0000 0.0000
# 4 -2.3883 2.3883 0.0000 36.5625 0.0000 0.0009
# 5 -0.0009 0.0009 0.0000 0.0000 36.5625 -2.3883
# 6 0.0000 0.0000 0.0000 0.0009 -2.3883 16.2056
#
#
#
# Elastic Compliance Matrix: (Units=1/GPa)
#
#
# Indices 1 2 3 4 5 6 
#
# 1 0.025889 -0.005264 -0.005472 0.002035 0.000001 0.000000
# 2 -0.005264 0.025889 -0.005472 -0.002035 -0.000001 0.000000
# 3 -0.005472 -0.005472 0.015821 0.000000 0.000000 0.000000
# 4 0.002035 -0.002035 0.000000 0.027616 0.000000 -0.000001
# 5 0.000001 -0.000001 0.000000 0.000000 0.027616 0.004070
# 6 0.000000 0.000000 0.000000 -0.000001 0.004070 0.062307
#
#
# Mechanical properties :
#
#
# Convention : Reuss Voigt Hill
#
# Bulk Modulus (GPa) = 28.42426 30.92853 29.67639
# Shear Modulus (GPa) = 21.80701 25.50917 23.65809
#
# Velocity S-wave (km/s) = 3.34828 3.62136 3.48749
# Velocity P-wave (km/s) = 5.43699 5.77806 5.61012
#
# Compressibility (1/GPa) = 0.03518122
#
# Stress axis : x y z
#
# Youngs Moduli (GPa) = 38.62585 38.62585 63.20894
#
# Poissons Ratio (x) = 0.20333 0.34591
# Poissons Ratio (y) = 0.20333 0.34591
# Poissons Ratio (z) = 0.21138 0.21138
#
# Static dielectric constant tensor:
#      x y z
#    x 1.699030 0.000000 0.000000 
#    y 0.000000 1.699030 0.000000 
#    z 0.000000 0.000000 1.773120 
# 
# From -- ./inp_files/668.got.cif
#   From: 2010.05.17/outbox.cif.g08.bks.cpg/sg144_cif.got.tgz:668.got - 2010.05.20 13:46:34.
