data_PCOD9574123
_publ_section_title
;
Structure prediction by ZEFSAII (Michael W. Deem and Ramdas Pophale) SiO2 
 PCOD9574123
Probable space group: I 41/A C D
;
_chemical_formula_sum "Si O2"
_cell_formula_units_Z 144
_cell_length_a 19.641762
_cell_length_b 19.641762
_cell_length_c 18.167218
_cell_angle_alpha 90.000000
_cell_angle_beta 90.000000
_cell_angle_gamma 90.000000
_cell_volume 7008.891167
_symmetry_space_group_name_H-M "I 41/A C D"
_symmetry_group_IT_number 142
_space_group.IT_coordinate_system_code '2'
_symmetry_cell_setting 'tetragonal'
loop_
_space_group_symop_operation_xyz
x,y,z
1/4-y,3/4+x,1/4+z
-x,1/2-y,z
1/4+y,1/4-x,3/4+z
x,-y,1/2-z
1/2-x,y,-z
3/4+y,1/4+x,1/4-z
1/4-y,1/4-x,1/4-z
-x,-y,-z
3/4+y,1/4-x,3/4-z
x,1/2+y,-z
3/4-y,3/4+x,1/4-z
-x,y,1/2+z
1/2+x,-y,z
1/4-y,3/4-x,3/4+z
3/4+y,3/4+x,3/4+z
1/2+x,1/2+y,1/2+z
3/4-y,1/4+x,3/4+z
1/2-x,-y,1/2+z
3/4+y,3/4-x,1/4+z
1/2+x,1/2-y,-z
-x,1/2+y,1/2-z
1/4+y,3/4+x,3/4-z
3/4-y,3/4-x,3/4-z
1/2-x,1/2-y,1/2-z
1/4+y,3/4-x,1/4-z
1/2+x,y,1/2-z
1/4-y,1/4+x,3/4-z
1/2-x,1/2+y,z
x,1/2-y,1/2+z
3/4-y,1/4-x,1/4+z
1/4+y,1/4+x,1/4+z
loop_
_atom_site_type_symbol
_atom_site_label
_atom_site_fract_x
_atom_site_fract_y
_atom_site_fract_z
Si Si1 0.668476 0.722193 0.402946
Si Si2 0.638518 0.500000 0.750000
Si Si3 0.591762 0.841762 0.625000
Si Si4 0.444874 0.305907 0.030426
Si Si5 0.260722 0.010722 0.875000
Si Si6 0.398402 0.502079 0.661427
O O1 0.707521 0.662157 0.446092
O O2 0.623037 0.761886 0.462413
O O3 0.619226 0.696022 0.337225
O O4 0.712600 0.787193 0.376569
O O5 0.692690 0.465820 0.806419
O O6 0.577336 0.797211 0.696474
O O7 0.670692 0.836176 0.607300
O O8 0.500000 0.250000 0.049843
O O9 0.178397 0.019075 0.863698
O O10 0.398322 0.500000 0.750000
#
# Coordination Sequence:
#
# PCOD9574123 Si02
#       6
#    32  16  16  32  16  32
#     4  12  23  46  70 100 143 189 234 295 366 432
#     4  12  26  42  72 104 144 174 246 296 360 438
#     4  11  25  42  71 104 134 182 247 300 346 442
#     4  12  24  45  69  99 139 190 231 293 361 423
#     4  11  26  44  69 106 136 196 235 304 363 434
#     4  11  22  45  70  96 143 187 237 291 366 438
#
# _framework density 20.545331999999998
#
# number of rings (size 3 to 8) (size 9 to 14) (size 15 to 20)
#    0.000    0.444    6.667    1.667    0.000    0.889 
#    8.000    0.000    0.000    0.000    0.000    0.000 
#    0.000    0.000    0.000    0.000    0.000    0.000 
#
# Total GULP energy -401161.293436 kJ/mol
# GULP energy per Si atom -5571.684631 kJ/mol
# Density = 2.049857 g / cm^3
# Si number density = 20.545332 Si / 1000 Ang^3
#
#
#
# Elastic Constant Matrix: (Units=GPa)
#
#
# Indices 1 2 3 4 5 6 
#
# 1 78.8766 55.8666 35.2724 0.0000 0.0000 0.0000
# 2 55.8666 78.8766 35.2724 0.0000 0.0000 0.0000
# 3 35.2724 35.2724 138.0062 0.0000 0.0000 0.0000
# 4 0.0000 0.0000 0.0000 646.7180 -0.0001 0.0000
# 5 0.0000 0.0000 0.0000 -0.0001 646.7183 0.0000
# 6 0.0000 0.0000 0.0000 0.0000 0.0000 12.9917
#
#
#
# Elastic Compliance Matrix: (Units=1/GPa)
#
#
# Indices 1 2 3 4 5 6 
#
# 1 0.026014 -0.017446 -0.002190 0.000000 0.000000 0.000000
# 2 -0.017446 0.026014 -0.002190 0.000000 0.000000 0.000000
# 3 -0.002190 -0.002190 0.008365 0.000000 0.000000 0.000000
# 4 0.000000 0.000000 0.000000 0.001546 0.000000 0.000000
# 5 0.000000 0.000000 0.000000 0.000000 0.001546 0.000000
# 6 0.000000 0.000000 0.000000 0.000000 0.000000 0.076972
#
#
# Mechanical properties :
#
#
# Convention : Reuss Voigt Hill
#
# Bulk Modulus (GPa) = 59.72985 60.95358 60.34171
# Shear Modulus (GPa) = 26.35891 272.57545 149.46718
#
# Velocity S-wave (km/s) = 3.58573 11.53075 8.53861
# Velocity P-wave (km/s) = 6.80284 14.38784 11.25364
#
# Compressibility (1/GPa) = 0.01674205
#
# Stress axis : x y z
#
# Youngs Moduli (GPa) = 38.44128 38.44128 119.53935
#
# Poissons Ratio (x) = 0.67063 0.26178
# Poissons Ratio (y) = 0.67063 0.26178
# Poissons Ratio (z) = 0.08418 0.08418
#
# Static dielectric constant tensor:
#      x y z
#    x 1.716670 0.000000 0.000000 
#    y 0.000000 1.716670 0.000000 
#    z 0.000000 0.000000 1.789080 
# 
# From -- ./inp_files/7310.got.cif
#   From: 2010.05.17/outbox.cif.g08.bks.cpg/sg142_4_cif.got.tgz:7310.got - 2010.05.20 13:39:18.
