data_PCOD9574838
_publ_section_title
;
Structure prediction by ZEFSAII (Michael W. Deem and Ramdas Pophale) SiO2 
 PCOD9574838
Probable space group: R 3
;
_chemical_formula_sum "Si O2"
_cell_formula_units_Z 60
_cell_length_a 16.070615
_cell_length_b 16.070615
_cell_length_c 10.948771
_cell_angle_alpha 90.000000
_cell_angle_beta 90.000000
_cell_angle_gamma 120.000000
_cell_volume 2448.843312
_symmetry_space_group_name_H-M "R 3"
_symmetry_group_IT_number 146
_symmetry_cell_setting 'hexagonal'
loop_
_space_group_symop_operation_xyz
x,y,z
-y,x-y,z
-x+y,-x,z
2/3+x,1/3+y,1/3+z
2/3-y,1/3+x-y,1/3+z
2/3-x+y,1/3-x,1/3+z
1/3+x,2/3+y,2/3+z
1/3-y,2/3+x-y,2/3+z
1/3-x+y,2/3-x,2/3+z
loop_
_atom_site_type_symbol
_atom_site_label
_atom_site_fract_x
_atom_site_fract_y
_atom_site_fract_z
Si Si1 0.000000 0.000000 0.072307
Si Si2 0.092440 0.745277 0.811430
Si Si3 0.666668 0.333335 0.699189
Si Si4 0.792164 0.928864 0.018257
Si Si5 0.584741 0.121427 0.752874
Si Si6 0.279084 0.892835 0.668623
Si Si7 0.730093 0.624693 0.750530
Si Si8 0.020842 0.597932 0.951587
O O1 0.000000 0.000000 0.218763
O O2 0.003077 0.908348 0.025456
O O3 0.196153 0.818860 0.757138
O O4 0.962490 0.631900 0.045287
O O5 0.060412 0.809727 0.893077
O O6 0.127990 0.717538 0.969770
O O7 0.652669 0.234019 0.745482
O O8 0.751065 0.963513 0.134231
O O9 0.776126 0.820901 0.024034
O O10 0.477637 0.107314 0.754015
O O11 0.598332 0.074698 0.872335
O O12 0.232788 0.879418 0.535564
O O13 0.307528 0.002482 0.690886
O O14 0.806774 0.610852 0.675166
#
# Coordination Sequence:
#
# PCOD9574838 Si02
#       8
#     3   9   3   9   9   9   9   9
#     4  12  27  51  87 118 170 232 288 348 430 509
#     4  12  27  48  79 121 166 218 274 350 427 499
#     4  12  27  51  87 118 170 232 288 348 430 509
#     4  12  27  50  80 121 166 217 282 351 420 509
#     4  12  27  50  80 121 166 217 282 351 420 509
#     4  12  26  48  84 119 166 220 287 353 431 505
#     4  12  26  48  84 119 166 220 287 353 431 505
#     4  12  27  48  79 121 166 218 274 350 427 499
#
# _framework density 24.501363000000001
#
# number of rings (size 3 to 8) (size 9 to 14) (size 15 to 20)
#    0.000    0.000    6.000    3.600    0.000    3.600 
#    0.000    0.000    6.600    0.000    0.000    0.000 
#    0.000    0.000    0.000    0.000    0.000    0.000 
#
# Total GULP energy -111350.819757 kJ/mol
# GULP energy per Si atom -5567.540988 kJ/mol
# Density = 2.444560 g / cm^3
# Si number density = 24.501363 Si / 1000 Ang^3
#
#
#
# Elastic Constant Matrix: (Units=GPa)
#
#
# Indices 1 2 3 4 5 6 
#
# 1 189.8062 45.9233 63.3426 -31.0690 23.2645 0.0001
# 2 45.9233 189.8044 63.3408 31.0697 -23.2642 0.0001
# 3 63.3426 63.3408 92.1928 0.0002 -0.0005 -0.0004
# 4 -31.0690 31.0697 0.0002 160.5876 -0.0002 -23.2646
# 5 23.2645 -23.2642 -0.0005 -0.0002 160.5860 -31.0692
# 6 0.0001 0.0001 -0.0004 -23.2646 -31.0692 71.9417
#
#
#
# Elastic Compliance Matrix: (Units=1/GPa)
#
#
# Indices 1 2 3 4 5 6 
#
# 1 0.007359 -0.000633 -0.004621 0.001546 -0.001158 0.000000
# 2 -0.000633 0.007359 -0.004621 -0.001546 0.001158 0.000000
# 3 -0.004621 -0.004621 0.017196 0.000000 0.000000 0.000000
# 4 0.001546 -0.001546 0.000000 0.007161 0.000000 0.002316
# 5 -0.001158 0.001158 0.000000 0.000000 0.007161 0.003093
# 6 0.000000 0.000000 0.000000 0.002316 0.003093 0.015985
#
#
# Mechanical properties :
#
#
# Convention : Reuss Voigt Hill
#
# Bulk Modulus (GPa) = 82.20901 90.77965 86.49433
# Shear Modulus (GPa) = 58.12250 98.56949 78.34599
#
# Velocity S-wave (km/s) = 4.87582 6.34961 5.66088
# Velocity P-wave (km/s) = 8.08232 9.53352 8.83776
#
# Compressibility (1/GPa) = 0.01216412
#
# Stress axis : x y z
#
# Youngs Moduli (GPa) = 135.88959 135.89044 58.15223
#
# Poissons Ratio (x) = 0.08608 0.26871
# Poissons Ratio (y) = 0.08608 0.26870
# Poissons Ratio (z) = 0.62792 0.62790
#
# Static dielectric constant tensor:
#      x y z
#    x 1.925780 0.000000 0.000000 
#    y 0.000000 1.925780 0.000000 
#    z 0.000000 0.000000 2.184450 
# 
# From -- ./inp_files/1273.got.cif
#   From: 2010.05.17/outbox.cif.g08.bks.cpg/sg146_cif.got.tgz:1273.got - 2010.05.20 13:48:23.
