data_PCOD9574399
_publ_section_title
;
Structure prediction by ZEFSAII (Michael W. Deem and Ramdas Pophale) SiO2 
 PCOD9574399
Probable space group: P 31
;
_chemical_formula_sum "Si O2"
_cell_formula_units_Z 24
_cell_length_a 8.800648
_cell_length_b 8.800648
_cell_length_c 16.823393
_cell_angle_alpha 90.000000
_cell_angle_beta 90.000000
_cell_angle_gamma 120.000000
_cell_volume 1128.427142
_symmetry_space_group_name_H-M "P 31"
_symmetry_group_IT_number 144
_symmetry_cell_setting 'hexagonal'
loop_
_space_group_symop_operation_xyz
x,y,z
-y,x-y,1/3+z
-x+y,-x,2/3+z
loop_
_atom_site_type_symbol
_atom_site_label
_atom_site_fract_x
_atom_site_fract_y
_atom_site_fract_z
Si Si1 0.451099 0.428735 0.748960
Si Si2 0.918566 0.694043 0.915021
Si Si3 0.442208 0.411476 0.937528
Si Si4 0.947818 0.038677 0.289366
Si Si5 0.576529 0.254383 0.633872
Si Si6 0.656103 0.721583 0.038661
Si Si7 0.283166 0.172505 0.515241
Si Si8 0.221335 0.985745 0.103154
O O1 0.454470 0.455371 0.844171
O O2 0.502487 0.286241 0.716386
O O3 0.257251 0.370596 0.717975
O O4 0.604158 0.622744 0.722349
O O5 0.910528 0.518284 0.948056
O O6 0.834009 0.681537 0.829049
O O7 0.795904 0.737085 0.972347
O O8 0.093150 0.883467 0.918026
O O9 0.262557 0.236235 0.946373
O O10 0.590898 0.364534 0.958735
O O11 0.477895 0.562824 0.001004
O O12 0.919238 0.866831 0.244845
O O13 0.980719 0.069677 0.383196
O O14 0.459846 0.271303 0.565200
O O15 0.739461 0.689865 0.118252
O O16 0.200132 0.283690 0.476830
#
# Coordination Sequence:
#
# PCOD9574399 Si02
#       8
#     3   3   3   3   3   3   3   3
#     4  12  23  43  70  99 140 182 231 289 348 418
#     4  10  23  42  67  98 134 180 232 278 355 409
#     4  11  25  42  68 100 135 180 230 279 360 406
#     4  11  22  44  65  99 131 180 226 283 347 419
#     4  11  25  40  71 100 132 177 233 284 349 421
#     4  11  23  44  67  95 142 179 230 285 346 427
#     4  11  25  43  72  98 135 183 232 283 353 423
#     4  11  22  40  70  93 139 179 224 287 346 407
#
# _framework density 21.268540999999999
#
# number of rings (size 3 to 8) (size 9 to 14) (size 15 to 20)
#    0.000    1.000    6.250    1.500    5.250    0.000 
#    2.250    1.250    2.750    0.000    0.000    0.000 
#    0.000    0.000    0.000    0.000    0.000    0.000 
#
# Total GULP energy -133648.287194 kJ/mol
# GULP energy per Si atom -5568.678633 kJ/mol
# Density = 2.122013 g / cm^3
# Si number density = 21.268541 Si / 1000 Ang^3
#
#
#
# Elastic Constant Matrix: (Units=GPa)
#
#
# Indices 1 2 3 4 5 6 
#
# 1 68.8014 8.3307 13.0438 3.5230 -0.4383 0.0000
# 2 8.3307 68.8014 13.0438 -3.5230 0.4383 0.0000
# 3 13.0438 13.0438 60.6953 0.0000 0.0000 0.0000
# 4 3.5230 -3.5230 0.0000 30.7963 0.0000 0.4383
# 5 -0.4383 0.4383 0.0000 0.0000 30.7963 3.5230
# 6 0.0000 0.0000 0.0000 0.4383 3.5230 30.2353
#
#
#
# Elastic Compliance Matrix: (Units=1/GPa)
#
#
# Indices 1 2 3 4 5 6 
#
# 1 0.015372 -0.001391 -0.003005 -0.001918 0.000239 0.000000
# 2 -0.001391 0.015372 -0.003005 0.001918 -0.000239 0.000000
# 3 -0.003005 -0.003005 0.017767 0.000000 0.000000 0.000000
# 4 -0.001918 0.001918 0.000000 0.032917 0.000000 -0.000477
# 5 0.000239 -0.000239 0.000000 0.000000 0.032917 -0.003835
# 6 0.000000 0.000000 0.000000 -0.000477 -0.003835 0.033528
#
#
# Mechanical properties :
#
#
# Convention : Reuss Voigt Hill
#
# Bulk Modulus (GPa) = 29.66413 29.68161 29.67287
# Shear Modulus (GPa) = 28.75019 29.29090 29.02054
#
# Velocity S-wave (km/s) = 3.68063 3.71508 3.69790
# Velocity P-wave (km/s) = 5.66043 5.69108 5.67577
#
# Compressibility (1/GPa) = 0.03371074
#
# Stress axis : x y z
#
# Youngs Moduli (GPa) = 65.05156 65.05156 56.28370
#
# Poissons Ratio (x) = 0.09052 0.16911
# Poissons Ratio (y) = 0.09052 0.16911
# Poissons Ratio (z) = 0.19545 0.19545
#
# Static dielectric constant tensor:
#      x y z
#    x 1.862780 0.000000 0.000000 
#    y 0.000000 1.862780 0.000000 
#    z 0.000000 0.000000 1.868020 
# 
# From -- ./inp_files/834.got.cif
#   From: 2010.05.17/outbox.cif.g08.bks.cpg/sg144_cif.got.tgz:834.got - 2010.05.20 13:46:34.
