data_PCOD9574579
_publ_section_title
;
Structure prediction by ZEFSAII (Michael W. Deem and Ramdas Pophale) SiO2 
 PCOD9574579
Probable space group: P 32
;
_chemical_formula_sum "Si O2"
_cell_formula_units_Z 24
_cell_length_a 14.244402
_cell_length_b 14.244402
_cell_length_c 5.433121
_cell_angle_alpha 90.000000
_cell_angle_beta 90.000000
_cell_angle_gamma 120.000000
_cell_volume 954.703363
_symmetry_space_group_name_H-M "P 32"
_symmetry_group_IT_number 145
_symmetry_cell_setting 'hexagonal'
loop_
_space_group_symop_operation_xyz
x,y,z
-y,x-y,2/3+z
-x+y,-x,1/3+z
loop_
_atom_site_type_symbol
_atom_site_label
_atom_site_fract_x
_atom_site_fract_y
_atom_site_fract_z
Si Si1 0.909639 0.115231 0.119150
Si Si2 0.584086 0.836378 0.755924
Si Si3 0.407625 0.636027 0.276447
Si Si4 0.415914 0.163622 0.755923
Si Si5 0.285208 0.925732 0.832988
Si Si6 0.090360 0.884769 0.119150
Si Si7 0.592375 0.363973 0.276445
Si Si8 0.359477 0.285209 0.166320
O O1 0.884768 0.209659 0.207734
O O2 0.872551 0.025614 0.333044
O O3 0.821019 0.067593 0.902299
O O4 0.025613 0.153063 0.999709
O O5 0.456428 0.795412 0.736119
O O6 0.675110 0.884768 0.541069
O O7 0.622217 0.951834 0.883316
O O8 0.604851 0.750981 0.912564
O O9 0.412182 0.743845 0.176228
O O10 0.530720 0.671206 0.323071
O O11 0.543572 0.204588 0.736118
O O12 0.377781 0.048167 0.883318
O O13 0.395149 0.249019 0.912562
O O14 0.178979 0.932406 0.902297
O O15 0.668337 0.412182 0.509560
O O16 0.469280 0.328794 0.323069
#
# Coordination Sequence:
#
# PCOD9574579 Si02
#       8
#     3   3   3   3   3   3   3   3
#     4  12  25  44  71  98 134 180 228 276 340 404
#     4  11  22  41  66  96 132 174 223 276 335 399
#     4  10  22  40  66  96 136 174 222 278 334 398
#     4  11  22  41  66  96 132 174 223 276 335 399
#     4  11  22  41  66  96 132 174 223 276 335 399
#     4  12  25  44  71  98 134 180 228 276 340 404
#     4  10  22  40  66  96 136 174 222 278 334 398
#     4  11  22  41  66  96 132 174 223 276 335 399
#
# _framework density 25.138697000000001
#
# number of rings (size 3 to 8) (size 9 to 14) (size 15 to 20)
#    0.000    1.000    5.000    2.250    0.000    0.000 
#    0.000    6.250    0.000    0.000    0.000    0.000 
#    0.000    0.000    0.000    0.000    0.000    0.000 
#
# Total GULP energy -133705.680695 kJ/mol
# GULP energy per Si atom -5571.070029 kJ/mol
# Density = 2.508148 g / cm^3
# Si number density = 25.138697 Si / 1000 Ang^3
#
#
#
# Elastic Constant Matrix: (Units=GPa)
#
#
# Indices 1 2 3 4 5 6 
#
# 1 123.9956 27.6709 19.1428 -0.0001 -0.0002 0.0000
# 2 27.6709 123.9956 19.1428 0.0001 0.0002 0.0000
# 3 19.1428 19.1428 61.7253 0.0000 0.0000 0.0000
# 4 -0.0001 0.0001 0.0000 29.6436 0.0000 0.0002
# 5 -0.0002 0.0002 0.0000 0.0000 29.6436 -0.0001
# 6 0.0000 0.0000 0.0000 0.0002 -0.0001 48.1623
#
#
#
# Elastic Compliance Matrix: (Units=1/GPa)
#
#
# Indices 1 2 3 4 5 6 
#
# 1 0.008767 -0.001614 -0.002218 0.000000 0.000000 0.000000
# 2 -0.001614 0.008767 -0.002218 0.000000 0.000000 0.000000
# 3 -0.002218 -0.002218 0.017577 0.000000 0.000000 0.000000
# 4 0.000000 0.000000 0.000000 0.033734 0.000000 0.000000
# 5 0.000000 0.000000 0.000000 0.000000 0.033734 0.000000
# 6 0.000000 0.000000 0.000000 0.000000 0.000000 0.020763
#
#
# Mechanical properties :
#
#
# Convention : Reuss Voigt Hill
#
# Bulk Modulus (GPa) = 43.45980 49.06994 46.26487
# Shear Modulus (GPa) = 34.93691 37.74057 36.33874
#
# Velocity S-wave (km/s) = 3.73200 3.87886 3.80614
# Velocity P-wave (km/s) = 5.99133 6.29466 6.14487
#
# Compressibility (1/GPa) = 0.02300977
#
# Stress axis : x y z
#
# Youngs Moduli (GPa) = 114.05764 114.05764 56.89302
#
# Poissons Ratio (x) = 0.18410 0.12622
# Poissons Ratio (y) = 0.18410 0.12622
# Poissons Ratio (z) = 0.25304 0.25304
#
# Static dielectric constant tensor:
#      x y z
#    x 2.092070 0.000000 0.000000 
#    y 0.000000 2.092070 0.000000 
#    z 0.000000 0.000000 2.326030 
# 
# From -- ./inp_files/144.got.cif
#   From: 2010.05.17/outbox.cif.g08.bks.cpg/sg145_cif.got.tgz:144.got - 2010.05.20 13:47:28.
