data_PCOD9574045
_publ_section_title
;
Structure prediction by ZEFSAII (Michael W. Deem and Ramdas Pophale) SiO2 
 PCOD9574045
Probable space group: I 41/A C D
;
_chemical_formula_sum "Si O2"
_cell_formula_units_Z 176
_cell_length_a 27.081341
_cell_length_b 27.081341
_cell_length_c 11.627028
_cell_angle_alpha 90.000000
_cell_angle_beta 90.000000
_cell_angle_gamma 90.000000
_cell_volume 8527.251061
_symmetry_space_group_name_H-M "I 41/A C D"
_symmetry_group_IT_number 142
_space_group.IT_coordinate_system_code '2'
_symmetry_cell_setting 'tetragonal'
loop_
_space_group_symop_operation_xyz
x,y,z
1/4-y,3/4+x,1/4+z
-x,1/2-y,z
1/4+y,1/4-x,3/4+z
x,-y,1/2-z
1/2-x,y,-z
3/4+y,1/4+x,1/4-z
1/4-y,1/4-x,1/4-z
-x,-y,-z
3/4+y,1/4-x,3/4-z
x,1/2+y,-z
3/4-y,3/4+x,1/4-z
-x,y,1/2+z
1/2+x,-y,z
1/4-y,3/4-x,3/4+z
3/4+y,3/4+x,3/4+z
1/2+x,1/2+y,1/2+z
3/4-y,1/4+x,3/4+z
1/2-x,-y,1/2+z
3/4+y,3/4-x,1/4+z
1/2+x,1/2-y,-z
-x,1/2+y,1/2-z
1/4+y,3/4+x,3/4-z
3/4-y,3/4-x,3/4-z
1/2-x,1/2-y,1/2-z
1/4+y,3/4-x,1/4-z
1/2+x,y,1/2-z
1/4-y,1/4+x,3/4-z
1/2-x,1/2+y,z
x,1/2-y,1/2+z
3/4-y,1/4-x,1/4+z
1/4+y,1/4+x,1/4+z
loop_
_atom_site_type_symbol
_atom_site_label
_atom_site_fract_x
_atom_site_fract_y
_atom_site_fract_z
Si Si1 0.724883 0.974883 0.625000
Si Si2 0.441942 0.623518 0.689906
Si Si3 0.109257 0.971934 0.920093
Si Si4 0.125566 0.550462 0.685531
Si Si5 0.056614 0.611945 0.851275
Si Si6 0.171994 0.655382 0.662000
O O1 0.750000 0.989855 0.500000
O O2 0.729091 0.915947 0.634710
O O3 0.420925 0.670925 0.625000
O O4 0.415829 0.576547 0.629951
O O5 0.500401 0.621072 0.679738
O O6 0.423211 0.618214 0.820432
O O7 0.084134 0.022018 0.876923
O O8 0.110181 0.965521 0.057970
O O9 0.141483 0.500000 0.750000
O O10 0.081829 0.577260 0.755393
O O11 0.164505 0.596106 0.679763
O O12 0.088364 0.661637 0.875000
O O13 0.064843 0.584472 0.971162
#
# Coordination Sequence:
#
# PCOD9574045 Si02
#       6
#    16  32  32  32  32  32
#     4  12  26  44  66 102 147 192 236 282 339 424
#     4  12  25  44  70  95 133 182 223 289 358 412
#     4  12  23  42  66 100 140 182 227 274 344 412
#     4  11  22  43  69 100 138 182 231 283 346 412
#     4  10  26  45  67  99 131 170 235 297 347 419
#     4  11  24  43  67  97 142 175 228 282 333 425
#
# _framework density 20.639711999999999
#
# number of rings (size 3 to 8) (size 9 to 14) (size 15 to 20)
#    0.000    0.727    4.545    2.727    2.545    5.455 
#    0.000    0.000    0.000    2.182    0.000    0.000 
#    0.000    0.000    0.000    0.000    0.000    0.000 
#
# Total GULP energy -491498.761562 kJ/mol
# GULP energy per Si atom -5585.213200 kJ/mol
# Density = 2.059274 g / cm^3
# Si number density = 20.639712 Si / 1000 Ang^3
#
#
#
# Elastic Constant Matrix: (Units=GPa)
#
#
# Indices 1 2 3 4 5 6 
#
# 1 110.9866 31.8730 20.0720 0.0000 0.0000 0.0000
# 2 31.8730 110.9829 20.0728 0.0000 0.0000 0.0000
# 3 20.0720 20.0728 113.4249 0.0000 0.0000 0.0000
# 4 0.0000 0.0000 0.0000 9.9824 0.0000 0.0000
# 5 0.0000 0.0000 0.0000 0.0000 9.9847 0.0000
# 6 0.0000 0.0000 0.0000 0.0000 0.0000 5.3188
#
#
#
# Elastic Compliance Matrix: (Units=1/GPa)
#
#
# Indices 1 2 3 4 5 6 
#
# 1 0.010003 -0.002637 -0.001304 0.000000 0.000000 0.000000
# 2 -0.002637 0.010004 -0.001304 0.000000 0.000000 0.000000
# 3 -0.001304 -0.001304 0.009278 0.000000 0.000000 0.000000
# 4 0.000000 0.000000 0.000000 0.100176 0.000000 0.000000
# 5 0.000000 0.000000 0.000000 0.000000 0.100153 0.000000
# 6 0.000000 0.000000 0.000000 0.000000 0.000000 0.188012
#
#
# Mechanical properties :
#
#
# Convention : Reuss Voigt Hill
#
# Bulk Modulus (GPa) = 53.20274 53.27001 53.23637
# Shear Modulus (GPa) = 11.51069 22.61563 17.06316
#
# Velocity S-wave (km/s) = 2.36412 3.31378 2.87838
# Velocity P-wave (km/s) = 5.76931 6.36451 6.07421
#
# Compressibility (1/GPa) = 0.01879603
#
# Stress axis : x y z
#
# Youngs Moduli (GPa) = 99.96864 99.96489 107.78430
#
# Poissons Ratio (x) = 0.26361 0.14050
# Poissons Ratio (y) = 0.26362 0.14052
# Poissons Ratio (z) = 0.13031 0.13032
#
# Static dielectric constant tensor:
#      x y z
#    x 1.686630 0.000000 0.000000 
#    y 0.000000 1.686640 0.000000 
#    z 0.000000 0.000000 1.786520 
# 
# From -- ./inp_files/3990.got.cif
#   From: 2010.05.17/outbox.cif.g08.bks.cpg/sg142_2_cif.got.tgz:3990.got - 2010.05.20 13:39:18.
