data_PCOD9574572
_publ_section_title
;
Structure prediction by ZEFSAII (Michael W. Deem and Ramdas Pophale) SiO2 
 PCOD9574572
Probable space group: P 32
;
_chemical_formula_sum "Si O2"
_cell_formula_units_Z 21
_cell_length_a 8.556618
_cell_length_b 8.556618
_cell_length_c 15.148515
_cell_angle_alpha 90.000000
_cell_angle_beta 90.000000
_cell_angle_gamma 120.000000
_cell_volume 960.516834
_symmetry_space_group_name_H-M "P 32"
_symmetry_group_IT_number 145
_symmetry_cell_setting 'hexagonal'
loop_
_space_group_symop_operation_xyz
x,y,z
-y,x-y,2/3+z
-x+y,-x,1/3+z
loop_
_atom_site_type_symbol
_atom_site_label
_atom_site_fract_x
_atom_site_fract_y
_atom_site_fract_z
Si Si1 0.333333 0.000000 0.259270
Si Si2 1.000000 0.333334 0.259767
Si Si3 0.666667 0.951147 0.259518
Si Si4 0.951147 0.666667 0.259519
Si Si5 0.999999 0.333333 0.470537
Si Si6 0.000000 0.617813 0.592852
Si Si7 0.000001 0.333333 0.715166
O O1 0.499505 0.974871 0.287148
O O2 0.333331 0.999999 0.152554
O O3 0.142033 0.833829 0.287150
O O4 0.358463 0.191301 0.287149
O O5 0.974870 0.499505 0.231888
O O6 0.999998 0.333332 0.366482
O O7 0.191301 0.358464 0.231888
O O8 0.833829 0.142033 0.231887
O O9 0.617129 0.809417 0.179660
O O10 0.716205 0.858955 0.339376
O O11 0.858955 0.716206 0.179660
O O12 0.809416 0.617129 0.339377
O O13 0.950462 0.476083 0.512994
O O14 0.049538 0.525621 0.672710
#
# Coordination Sequence:
#
# PCOD9574572 Si02
#       7
#     3   3   3   3   3   3   3
#     4  12  22  40  61  85 120 154 188 241 288 337
#     4  12  22  40  61  85 120 154 188 241 288 337
#     4  10  22  38  62  88 114 152 198 232 286 350
#     4  10  22  38  62  88 114 152 198 232 286 350
#     4  10  22  42  60  85 118 151 191 244 286 334
#     4  10  22  38  62  88 114 152 198 232 286 350
#     4  10  22  42  60  85 118 151 191 244 286 334
#
# _framework density 21.863227999999999
#
# number of rings (size 3 to 8) (size 9 to 14) (size 15 to 20)
#    0.000    1.714    0.000    7.714    0.000    0.000 
#    0.000   12.857    0.000    0.000    0.000    0.000 
#    0.000    0.000    0.000    0.000    0.000    0.000 
#
# Total GULP energy -117493.311525 kJ/mol
# GULP energy per Si atom -5594.919596 kJ/mol
# Density = 2.181347 g / cm^3
# Si number density = 21.863228 Si / 1000 Ang^3
#
#
#
# Elastic Constant Matrix: (Units=GPa)
#
#
# Indices 1 2 3 4 5 6 
#
# 1 129.7181 37.3670 -35.0783 -9.8579 0.0000 0.0000
# 2 37.3670 129.7181 -35.0783 9.8579 0.0000 0.0000
# 3 -35.0783 -35.0783 38.1455 0.0000 0.0000 0.0000
# 4 -9.8579 9.8579 0.0000 8.9166 0.0000 0.0000
# 5 0.0000 0.0000 0.0000 0.0000 8.9166 -9.8579
# 6 0.0000 0.0000 0.0000 0.0000 -9.8579 46.1756
#
#
#
# Elastic Compliance Matrix: (Units=1/GPa)
#
#
# Indices 1 2 3 4 5 6 
#
# 1 0.011962 -0.002212 0.008966 0.015670 0.000000 0.000000
# 2 -0.002212 0.011962 0.008966 -0.015670 0.000000 0.000000
# 3 0.008966 0.008966 0.042705 0.000000 0.000000 0.000000
# 4 0.015670 -0.015670 0.000000 0.146799 0.000000 0.000000
# 5 0.000000 0.000000 0.000000 0.000000 0.146799 0.031340
# 6 0.000000 0.000000 0.000000 0.000000 0.031340 0.028347
#
#
# Mechanical properties :
#
#
# Convention : Reuss Voigt Hill
#
# Bulk Modulus (GPa) = 10.19720 25.77803 17.98762
# Shear Modulus (GPa) = 12.82629 34.82650 23.82640
#
# Velocity S-wave (km/s) = 2.42474 3.99548 3.30478
# Velocity P-wave (km/s) = 3.53742 5.75337 4.77570
#
# Compressibility (1/GPa) = 0.09806615
#
# Stress axis : x y z
#
# Youngs Moduli (GPa) = 83.60129 83.60129 23.41655
#
# Poissons Ratio (x) = 0.18493 -0.20994
# Poissons Ratio (y) = 0.18493 -0.20994
# Poissons Ratio (z) = -0.74953 -0.74953
#
# Static dielectric constant tensor:
#      x y z
#    x 1.787970 0.000000 0.000000 
#    y 0.000000 1.787970 0.000000 
#    z 0.000000 0.000000 1.809060 
# 
# From -- ./inp_files/797.got.cif
#   From: 2010.05.17/outbox.cif.g08.bks.cpg/sg145_cif.got.tgz:797.got - 2010.05.20 13:47:28.
