data_PCOD9574606
_publ_section_title
;
Structure prediction by ZEFSAII (Michael W. Deem and Ramdas Pophale) SiO2 
 PCOD9574606
Probable space group: P 32
;
_chemical_formula_sum "Si O2"
_cell_formula_units_Z 15
_cell_length_a 5.271881
_cell_length_b 5.271881
_cell_length_c 27.218081
_cell_angle_alpha 90.000000
_cell_angle_beta 90.000000
_cell_angle_gamma 120.000000
_cell_volume 655.117696
_symmetry_space_group_name_H-M "P 32"
_symmetry_group_IT_number 145
_symmetry_cell_setting 'hexagonal'
loop_
_space_group_symop_operation_xyz
x,y,z
-y,x-y,2/3+z
-x+y,-x,1/3+z
loop_
_atom_site_type_symbol
_atom_site_label
_atom_site_fract_x
_atom_site_fract_y
_atom_site_fract_z
Si Si1 0.629182 0.928354 0.776670
Si Si2 0.649819 0.233667 0.680099
Si Si3 0.669045 0.918840 0.595331
Si Si4 0.738517 0.034505 0.479918
Si Si5 0.638594 0.855385 0.316052
O O1 0.617126 0.993858 0.719055
O O2 0.995804 0.455157 0.674700
O O3 0.969291 0.075299 0.791542
O O4 0.460178 0.591995 0.792672
O O5 0.557816 0.109860 0.624860
O O6 0.482012 0.100739 0.802479
O O7 0.422969 0.340547 0.690381
O O8 0.980002 0.054215 0.623987
O O9 0.715106 0.980233 0.538473
O O10 0.430797 0.591089 0.609402
#
# Coordination Sequence:
#
# PCOD9574606 Si02
#       5
#     3   3   3   3   3
#     4  12  28  46  72 102 146 184 229 287 353 417
#     4  10  26  42  71  98 135 177 233 278 344 405
#     4  10  26  42  72  97 135 177 233 280 342 405
#     4  12  28  47  71 103 145 184 231 285 355 415
#     4  10  24  39  72  96 131 170 232 282 334 398
#
# _framework density 22.896652
#
# number of rings (size 3 to 8) (size 9 to 14) (size 15 to 20)
#    1.200    0.000    0.000    3.600   14.000    0.000 
#    0.000    0.000    0.000    0.000    0.000    0.000 
#    0.000    0.000    0.000    0.000    0.000    0.000 
#
# Total GULP energy -83705.643374 kJ/mol
# GULP energy per Si atom -5580.376225 kJ/mol
# Density = 2.284454 g / cm^3
# Si number density = 22.896652 Si / 1000 Ang^3
#
#
#
# Elastic Constant Matrix: (Units=GPa)
#
#
# Indices 1 2 3 4 5 6 
#
# 1 133.3834 48.4318 36.7446 3.3570 10.7750 0.0000
# 2 48.4318 133.3834 36.7446 -3.3570 -10.7750 0.0000
# 3 36.7446 36.7446 75.3695 0.0000 0.0000 0.0000
# 4 3.3570 -3.3570 0.0000 23.3422 0.0000 -10.7750
# 5 10.7750 -10.7750 0.0000 0.0000 23.3422 3.3570
# 6 0.0000 0.0000 0.0000 -10.7750 3.3570 42.4758
#
#
#
# Elastic Compliance Matrix: (Units=1/GPa)
#
#
# Indices 1 2 3 4 5 6 
#
# 1 0.010178 -0.003328 -0.003340 -0.001942 -0.006235 0.000000
# 2 -0.003328 0.010178 -0.003340 0.001942 0.006235 0.000000
# 3 -0.003340 -0.003340 0.016524 0.000000 0.000000 0.000000
# 4 -0.001942 0.001942 0.000000 0.049156 0.000000 0.012470
# 5 -0.006235 0.006235 0.000000 0.000000 0.049156 -0.003885
# 6 0.000000 0.000000 0.000000 0.012470 -0.003885 0.027013
#
#
# Mechanical properties :
#
#
# Convention : Reuss Voigt Hill
#
# Bulk Modulus (GPa) = 59.29108 65.10870 62.19989
# Shear Modulus (GPa) = 26.61816 32.51305 29.56560
#
# Velocity S-wave (km/s) = 3.41330 3.77237 3.59731
# Velocity P-wave (km/s) = 6.44092 6.88999 6.66923
#
# Compressibility (1/GPa) = 0.01686594
#
# Stress axis : x y z
#
# Youngs Moduli (GPa) = 98.24904 98.24904 60.51743
#
# Poissons Ratio (x) = 0.32700 0.20210
# Poissons Ratio (y) = 0.32700 0.20210
# Poissons Ratio (z) = 0.32810 0.32810
#
# Static dielectric constant tensor:
#      x y z
#    x 1.898110 0.000000 0.000000 
#    y 0.000000 1.898110 0.000000 
#    z 0.000000 0.000000 1.856730 
# 
# From -- ./inp_files/963.got.cif
#   From: 2010.05.17/outbox.cif.g08.bks.cpg/sg145_cif.got.tgz:963.got - 2010.05.20 13:47:28.
