data_PCOD9574856
_publ_section_title
;
Structure prediction by ZEFSAII (Michael W. Deem and Ramdas Pophale) SiO2 
 PCOD9574856
Probable space group: P -3
;
_chemical_formula_sum "Si O2"
_cell_formula_units_Z 28
_cell_length_a 14.615440
_cell_length_b 14.615440
_cell_length_c 7.933378
_cell_angle_alpha 90.000000
_cell_angle_beta 90.000000
_cell_angle_gamma 120.000000
_cell_volume 1467.616440
_symmetry_space_group_name_H-M "P -3"
_symmetry_group_IT_number 147
_symmetry_cell_setting 'hexagonal'
loop_
_space_group_symop_operation_xyz
x,y,z
-y,x-y,z
-x+y,-x,z
-x,-y,-z
y,-x+y,-z
x-y,x,-z
loop_
_atom_site_type_symbol
_atom_site_label
_atom_site_fract_x
_atom_site_fract_y
_atom_site_fract_z
Si Si1 0.999883 0.529812 0.280574
Si Si2 0.577643 0.823951 0.869536
Si Si3 0.333333 0.666667 0.951994
Si Si4 0.679843 0.532321 0.483525
Si Si5 0.412008 0.347763 0.943188
Si Si6 0.333333 0.666667 0.354677
O O1 0.060948 0.644858 0.366808
O O2 0.080811 0.490903 0.212681
O O3 0.911631 0.436065 0.392879
O O4 0.941603 0.532688 0.113804
O O5 0.450299 0.753336 0.891708
O O6 0.592652 0.828676 0.665056
O O7 0.629495 0.946446 0.915445
O O8 0.618354 0.769453 0.004061
O O9 0.333334 0.666667 0.154025
O O10 0.702615 0.448146 0.570106
#
# Coordination Sequence:
#
# PCOD9574856 Si02
#       6
#     6   6   2   6   6   2
#     4   9  18  32  48  70 100 133 167 215 262 310
#     4  11  21  34  52  75 105 139 176 215 259 312
#     4  12  22  32  52  78 106 146 175 204 265 320
#     4  10  19  29  45  69  99 133 169 209 254 300
#     4  10  19  34  52  72 104 137 174 215 258 312
#     4  12  19  26  43  69 100 134 175 201 238 314
#
# _framework density 19.078554
#
# number of rings (size 3 to 8) (size 9 to 14) (size 15 to 20)
#    0.000    1.714    0.000    9.000    0.000    0.000 
#    0.000    2.143    0.000    0.429    0.000    0.000 
#    0.000    1.714    0.000    0.000    0.000    0.000 
#
# Total GULP energy -155941.840975 kJ/mol
# GULP energy per Si atom -5569.351463 kJ/mol
# Density = 1.903513 g / cm^3
# Si number density = 19.078554 Si / 1000 Ang^3
#
#
#
# Elastic Constant Matrix: (Units=GPa)
#
#
# Indices 1 2 3 4 5 6 
#
# 1 58.0506 19.2315 12.0505 -3.1888 -9.1867 -0.0002
# 2 19.2315 58.0498 12.0505 3.1888 9.1865 -0.0001
# 3 12.0505 12.0505 83.7154 0.0000 0.0001 -0.0001
# 4 -3.1888 3.1888 0.0000 25.9732 0.0000 9.1866
# 5 -9.1867 9.1865 0.0001 0.0000 25.9731 -3.1888
# 6 -0.0002 -0.0001 -0.0001 9.1866 -3.1888 19.4093
#
#
#
# Elastic Compliance Matrix: (Units=1/GPa)
#
#
# Indices 1 2 3 4 5 6 
#
# 1 0.022628 -0.009080 -0.001950 0.003893 0.011215 0.000000
# 2 -0.009080 0.022628 -0.001950 -0.003893 -0.011215 0.000000
# 3 -0.001950 -0.001950 0.012507 0.000000 0.000000 0.000000
# 4 0.003893 -0.003893 0.000000 0.047391 0.000000 -0.022431
# 5 0.011215 -0.011215 0.000000 0.000000 0.047391 0.007786
# 6 0.000000 0.000000 0.000000 -0.022431 0.007786 0.063417
#
#
# Mechanical properties :
#
#
# Convention : Reuss Voigt Hill
#
# Bulk Modulus (GPa) = 31.44484 31.83121 31.63802
# Shear Modulus (GPa) = 19.80006 24.70334 22.25170
#
# Velocity S-wave (km/s) = 3.22501 3.60227 3.41885
# Velocity P-wave (km/s) = 5.51227 5.83286 5.67483
#
# Compressibility (1/GPa) = 0.03180172
#
# Stress axis : x y z
#
# Youngs Moduli (GPa) = 44.19275 44.19225 79.95739
#
# Poissons Ratio (x) = 0.40128 0.15593
# Poissons Ratio (y) = 0.40129 0.15593
# Poissons Ratio (z) = 0.08618 0.08618
#
# Static dielectric constant tensor:
#      x y z
#    x 1.735000 0.000000 0.000000 
#    y 0.000000 1.735000 0.000000 
#    z 0.000000 0.000000 1.809470 
# 
# From -- ./inp_files/531.got.cif
#   From: 2010.05.17/outbox.cif.g08.bks.cpg/sg147_cif.got.tgz:531.got - 2010.05.20 13:49:32.
