data_PCOD9574091
_publ_section_title
;
Structure prediction by ZEFSAII (Michael W. Deem and Ramdas Pophale) SiO2 
 PCOD9574091
Probable space group: I 41/A C D
;
_chemical_formula_sum "Si O2"
_cell_formula_units_Z 144
_cell_length_a 16.078417
_cell_length_b 16.078417
_cell_length_c 24.655430
_cell_angle_alpha 90.000000
_cell_angle_beta 90.000000
_cell_angle_gamma 90.000000
_cell_volume 6373.810647
_symmetry_space_group_name_H-M "I 41/A C D"
_symmetry_group_IT_number 142
_space_group.IT_coordinate_system_code '2'
_symmetry_cell_setting 'tetragonal'
loop_
_space_group_symop_operation_xyz
x,y,z
1/4-y,3/4+x,1/4+z
-x,1/2-y,z
1/4+y,1/4-x,3/4+z
x,-y,1/2-z
1/2-x,y,-z
3/4+y,1/4+x,1/4-z
1/4-y,1/4-x,1/4-z
-x,-y,-z
3/4+y,1/4-x,3/4-z
x,1/2+y,-z
3/4-y,3/4+x,1/4-z
-x,y,1/2+z
1/2+x,-y,z
1/4-y,3/4-x,3/4+z
3/4+y,3/4+x,3/4+z
1/2+x,1/2+y,1/2+z
3/4-y,1/4+x,3/4+z
1/2-x,-y,1/2+z
3/4+y,3/4-x,1/4+z
1/2+x,1/2-y,-z
-x,1/2+y,1/2-z
1/4+y,3/4+x,3/4-z
3/4-y,3/4-x,3/4-z
1/2-x,1/2-y,1/2-z
1/4+y,3/4-x,1/4-z
1/2+x,y,1/2-z
1/4-y,1/4+x,3/4-z
1/2-x,1/2+y,z
x,1/2-y,1/2+z
3/4-y,1/4-x,1/4+z
1/4+y,1/4+x,1/4+z
loop_
_atom_site_type_symbol
_atom_site_label
_atom_site_fract_x
_atom_site_fract_y
_atom_site_fract_z
Si Si1 0.158417 0.337018 0.478251
Si Si2 0.374012 0.284598 0.328262
Si Si3 0.223274 0.886077 0.630615
Si Si4 0.205614 0.149309 0.447511
Si Si5 0.633532 0.116469 0.875000
O O1 0.250000 0.361593 0.500000
O O2 0.088197 0.358014 0.523271
O O3 0.160581 0.380853 0.420108
O O4 0.169549 0.239533 0.462729
O O5 0.437360 0.312641 0.375000
O O6 0.287878 0.312613 0.357208
O O7 0.378387 0.185225 0.327219
O O8 0.163549 0.884721 0.681590
O O9 0.283582 0.966419 0.625000
O O10 0.250000 0.115524 0.500000
O O11 0.277002 0.137612 0.401369
#
# Coordination Sequence:
#
# PCOD9574091 Si02
#       5
#    32  32  32  32  16
#     4  11  21  43  66  98 139 181 225 296 354 409
#     4  11  22  39  74 102 135 178 239 284 351 422
#     4  11  22  39  68 101 135 183 232 290 350 426
#     4  11  25  43  66  96 143 181 230 295 354 410
#     4  12  23  46  70 108 134 185 244 288 344 440
#
# _framework density 22.592451000000001
#
# number of rings (size 3 to 8) (size 9 to 14) (size 15 to 20)
#    0.000    0.889    7.778    1.667    3.111    0.000 
#    4.000    2.222    0.000    0.000    0.000    0.000 
#    0.000    0.000    0.000    0.000    0.000    0.000 
#
# Total GULP energy -401104.664497 kJ/mol
# GULP energy per Si atom -5570.898118 kJ/mol
# Density = 2.254103 g / cm^3
# Si number density = 22.592451 Si / 1000 Ang^3
#
#
#
# Elastic Constant Matrix: (Units=GPa)
#
#
# Indices 1 2 3 4 5 6 
#
# 1 -193.0084 269.2455 28.7451 0.0000 0.0000 0.0000
# 2 269.2455 -193.0358 28.7520 0.0000 0.0000 0.0000
# 3 28.7451 28.7520 75.2945 0.0000 0.0000 0.0000
# 4 0.0000 0.0000 0.0000 26.1983 0.0000 0.0000
# 5 0.0000 0.0000 0.0000 0.0000 26.1981 0.0000
# 6 0.0000 0.0000 0.0000 0.0000 0.0000 15.8782
#
#
#
# Elastic Compliance Matrix: (Units=1/GPa)
#
#
# Indices 1 2 3 4 5 6 
#
# 1 0.008132 0.010295 -0.007036 0.000000 0.000000 0.000000
# 2 0.010295 0.008131 -0.007035 0.000000 0.000000 0.000000
# 3 -0.007036 -0.007035 0.018654 0.000000 0.000000 0.000000
# 4 0.000000 0.000000 0.000000 0.038170 0.000000 0.000000
# 5 0.000000 0.000000 0.000000 0.000000 0.038171 0.000000
# 6 0.000000 0.000000 0.000000 0.000000 0.000000 0.062980
#
#
# Mechanical properties :
#
#
# Convention : Reuss Voigt Hill
#
# Bulk Modulus (GPa) = 36.54366 38.08174 37.31270
# Shear Modulus (GPa) = 26.19019 -28.84458 -1.32719
#
# Velocity S-wave (km/s) = 3.40846 -3.57702 -0.76728
# Velocity P-wave (km/s) = 5.63031 0.40932 3.97070
#
# Compressibility (1/GPa) = 0.02736453
#
# Stress axis : x y z
#
# Youngs Moduli (GPa) = 122.96811 122.98779 53.60883
#
# Poissons Ratio (x) = -1.26613 0.37718
# Poissons Ratio (y) = -1.26593 0.37714
# Poissons Ratio (z) = 0.86518 0.86523
#
# Static dielectric constant tensor:
#      x y z
#    x 1.898830 0.000000 0.000000 
#    y 0.000000 1.898830 0.000000 
#    z 0.000000 0.000000 1.945110 
# 
# From -- ./inp_files/10136.got.cif
#   From: 2010.05.17/outbox.cif.g08.bks.cpg/sg142_6_cif.got.tgz:10136.got - 2010.05.20 13:39:18.
