data_PCOD9574342
_publ_section_title
;
Structure prediction by ZEFSAII (Michael W. Deem and Ramdas Pophale) SiO2 
 PCOD9574342
Probable space group: P 31
;
_chemical_formula_sum "Si O2"
_cell_formula_units_Z 24
_cell_length_a 15.160248
_cell_length_b 15.160248
_cell_length_c 5.691014
_cell_angle_alpha 90.000000
_cell_angle_beta 90.000000
_cell_angle_gamma 120.000000
_cell_volume 1132.746939
_symmetry_space_group_name_H-M "P 31"
_symmetry_group_IT_number 144
_symmetry_cell_setting 'hexagonal'
loop_
_space_group_symop_operation_xyz
x,y,z
-y,x-y,1/3+z
-x+y,-x,2/3+z
loop_
_atom_site_type_symbol
_atom_site_label
_atom_site_fract_x
_atom_site_fract_y
_atom_site_fract_z
Si Si1 0.751762 0.609848 0.987310
Si Si2 0.338527 0.418698 0.204577
Si Si3 0.682480 0.094469 0.914006
Si Si4 0.902122 0.971596 0.117039
Si Si5 0.935855 0.732503 0.639897
Si Si6 0.278565 0.860580 0.967598
Si Si7 0.067131 0.298604 0.802148
Si Si8 0.517490 0.514496 0.844238
O O1 0.830635 0.659045 0.772078
O O2 0.633301 0.553953 0.923627
O O3 0.797692 0.548919 0.122974
O O4 0.757933 0.702885 0.135025
O O5 0.387038 0.387563 0.415362
O O6 0.260640 0.457573 0.276577
O O7 0.276334 0.305889 0.083688
O O8 0.431788 0.495651 0.038789
O O9 0.762690 0.072164 0.044966
O O10 0.599439 0.084300 0.096816
O O11 0.787200 0.884004 0.098594
O O12 0.967331 0.924870 0.221325
O O13 0.892407 0.047036 0.302111
O O14 0.255321 0.899762 0.720630
O O15 0.254954 0.890696 0.227263
O O16 0.402163 0.920929 0.994128
#
# Coordination Sequence:
#
# PCOD9574342 Si02
#       8
#     3   3   3   3   3   3   3   3
#     4  10  23  40  70  97 137 184 239 296 365 440
#     4  10  22  44  70 100 137 192 241 300 371 444
#     4  10  22  41  74  93 141 185 239 300 370 445
#     4  12  25  34  57  96 143 177 228 279 336 419
#     4  10  21  40  62  95 134 187 232 278 364 423
#     4  11  25  45  75 102 141 189 246 301 367 441
#     4  11  25  42  68 101 141 190 239 287 359 433
#     4  10  25  42  74 106 140 188 252 305 378 447
#
# _framework density 21.187432999999999
#
# number of rings (size 3 to 8) (size 9 to 14) (size 15 to 20)
#    0.000    1.500    1.250    2.250   14.000    2.000 
#    0.000    0.000   30.250    0.000    0.000    0.000 
#    0.000    0.000    0.000    0.000    0.000    0.000 
#
# Total GULP energy -133601.702120 kJ/mol
# GULP energy per Si atom -5566.737588 kJ/mol
# Density = 2.113921 g / cm^3
# Si number density = 21.187433 Si / 1000 Ang^3
#
#
#
# Elastic Constant Matrix: (Units=GPa)
#
#
# Indices 1 2 3 4 5 6 
#
# 1 98.9866 35.6448 10.6271 -4.4834 -0.4978 0.0000
# 2 35.6448 98.9866 10.6271 4.4834 0.4978 0.0000
# 3 10.6271 10.6271 48.4092 0.0000 0.0000 0.0000
# 4 -4.4834 4.4834 0.0000 21.5680 0.0000 0.4978
# 5 -0.4978 0.4978 0.0000 0.0000 21.5680 -4.4834
# 6 0.0000 0.0000 0.0000 0.4978 -4.4834 31.6709
#
#
#
# Elastic Compliance Matrix: (Units=1/GPa)
#
#
# Indices 1 2 3 4 5 6 
#
# 1 0.011983 -0.004289 -0.001689 0.003382 0.000376 0.000000
# 2 -0.004289 0.011983 -0.001689 -0.003382 -0.000376 0.000000
# 3 -0.001689 -0.001689 0.021399 0.000000 0.000000 0.000000
# 4 0.003382 -0.003382 0.000000 0.047789 0.000000 -0.000751
# 5 0.000376 -0.000376 0.000000 0.000000 0.047789 0.006765
# 6 0.000000 0.000000 0.000000 -0.000751 0.006765 0.032544
#
#
# Mechanical properties :
#
#
# Convention : Reuss Voigt Hill
#
# Bulk Modulus (GPa) = 33.29887 40.02008 36.65948
# Shear Modulus (GPa) = 25.14695 27.59360 26.37028
#
# Velocity S-wave (km/s) = 3.44885 3.61273 3.53174
# Velocity P-wave (km/s) = 5.62227 6.02761 5.82846
#
# Compressibility (1/GPa) = 0.03003105
#
# Stress axis : x y z
#
# Youngs Moduli (GPa) = 83.45002 83.45002 46.73152
#
# Poissons Ratio (x) = 0.35791 0.07894
# Poissons Ratio (y) = 0.35791 0.07894
# Poissons Ratio (z) = 0.14096 0.14096
#
# Static dielectric constant tensor:
#      x y z
#    x 1.809580 0.000000 0.000000 
#    y 0.000000 1.809580 0.000000 
#    z 0.000000 0.000000 1.874180 
# 
# From -- ./inp_files/155.got.cif
#   From: 2010.05.17/outbox.cif.g08.bks.cpg/sg144_cif.got.tgz:155.got - 2010.05.20 13:46:34.
