data_PCOD9574860
_publ_section_title
;
Structure prediction by ZEFSAII (Michael W. Deem and Ramdas Pophale) SiO2 
 PCOD9574860
Probable space group: P -3
;
_chemical_formula_sum "Si O2"
_cell_formula_units_Z 24
_cell_length_a 14.812258
_cell_length_b 14.812258
_cell_length_c 5.532944
_cell_angle_alpha 90.000000
_cell_angle_beta 90.000000
_cell_angle_gamma 120.000000
_cell_volume 1051.306725
_symmetry_space_group_name_H-M "P -3"
_symmetry_group_IT_number 147
_symmetry_cell_setting 'hexagonal'
loop_
_space_group_symop_operation_xyz
x,y,z
-y,x-y,z
-x+y,-x,z
-x,-y,-z
y,-x+y,-z
x-y,x,-z
loop_
_atom_site_type_symbol
_atom_site_label
_atom_site_fract_x
_atom_site_fract_y
_atom_site_fract_z
Si Si1 0.159901 0.345995 0.750000
Si Si2 0.859797 0.456812 0.250000
Si Si3 0.734862 0.053926 0.750000
Si Si4 0.556527 0.451528 0.750000
O O1 0.185061 0.465376 0.750000
O O2 0.256247 0.326650 0.750000
O O3 0.096764 0.298634 0.499671
O O4 0.096764 0.298634 0.000329
O O5 0.838791 0.394748 0.499605
O O6 0.987217 0.535910 0.250000
O O7 0.838791 0.394748 0.000396
O O8 0.649539 0.091055 0.750000
#
# Coordination Sequence:
#
# PCOD9574860 Si02
#       4
#     6   6   6   6
#     4  10  19  31  48  68  91 121 158 199 238 277
#     4   8  14  25  42  64  86 107 134 171 217 269
#     4  10  19  31  48  68  91 121 158 199 238 277
#     4   8  14  25  42  64  86 107 134 171 217 269
#
# _framework density 22.828731999999999
#
# number of rings (size 3 to 8) (size 9 to 14) (size 15 to 20)
#    0.000    3.000    0.000    1.500    0.000    0.000 
#    0.000    0.000    0.000   11.000    0.000    0.000 
#    0.000   24.000    0.000    0.000    0.000    6.000 
#
# Total GULP energy -134065.205658 kJ/mol
# GULP energy per Si atom -5586.050236 kJ/mol
# Density = 2.277677 g / cm^3
# Si number density = 22.828732 Si / 1000 Ang^3
#
#
#
# Elastic Constant Matrix: (Units=GPa)
#
#
# Indices 1 2 3 4 5 6 
#
# 1 62.6983 13.2167 46.3408 0.0000 0.0000 0.0000
# 2 13.2167 62.6983 46.3408 0.0000 0.0000 0.0000
# 3 46.3408 46.3408 278.0107 0.0000 0.0000 0.0000
# 4 0.0000 0.0000 0.0000 20.9236 0.0000 0.0000
# 5 0.0000 0.0000 0.0000 0.0000 20.9236 0.0000
# 6 0.0000 0.0000 0.0000 0.0000 0.0000 24.7408
#
#
#
# Elastic Compliance Matrix: (Units=1/GPa)
#
#
# Indices 1 2 3 4 5 6 
#
# 1 0.018374 -0.001836 -0.002757 0.000000 0.000000 0.000000
# 2 -0.001836 0.018374 -0.002757 0.000000 0.000000 0.000000
# 3 -0.002757 -0.002757 0.004516 0.000000 0.000000 0.000000
# 4 0.000000 0.000000 0.000000 0.047793 0.000000 0.000000
# 5 0.000000 0.000000 0.000000 0.000000 0.047793 0.000000
# 6 0.000000 0.000000 0.000000 0.000000 0.000000 0.040419
#
#
# Mechanical properties :
#
#
# Convention : Reuss Voigt Hill
#
# Bulk Modulus (GPa) = 37.64274 68.35599 52.99937
# Shear Modulus (GPa) = 24.89767 33.15153 29.02460
#
# Velocity S-wave (km/s) = 3.30605 3.81489 3.56955
# Velocity P-wave (km/s) = 5.57658 7.02940 6.34471
#
# Compressibility (1/GPa) = 0.02656554
#
# Stress axis : x y z
#
# Youngs Moduli (GPa) = 54.42520 54.42520 221.43509
#
# Poissons Ratio (x) = 0.09991 0.61043
# Poissons Ratio (y) = 0.09991 0.61043
# Poissons Ratio (z) = 0.15003 0.15003
#
# Static dielectric constant tensor:
#      x y z
#    x 1.795970 0.000000 0.000000 
#    y 0.000000 1.795970 0.000000 
#    z 0.000000 0.000000 2.029730 
# 
# From -- ./inp_files/113.got.cif
#   From: 2010.05.17/outbox.cif.g08.bks.cpg/sg147_cif.got.tgz:113.got - 2010.05.20 13:49:32.
