data_PCOD9574418
_publ_section_title
;
Structure prediction by ZEFSAII (Michael W. Deem and Ramdas Pophale) SiO2 
 PCOD9574418
Probable space group: P 31
;
_chemical_formula_sum "Si O2"
_cell_formula_units_Z 18
_cell_length_a 9.884643
_cell_length_b 9.884643
_cell_length_c 9.814135
_cell_angle_alpha 90.000000
_cell_angle_beta 90.000000
_cell_angle_gamma 120.000000
_cell_volume 830.433072
_symmetry_space_group_name_H-M "P 31"
_symmetry_group_IT_number 144
_symmetry_cell_setting 'hexagonal'
loop_
_space_group_symop_operation_xyz
x,y,z
-y,x-y,1/3+z
-x+y,-x,2/3+z
loop_
_atom_site_type_symbol
_atom_site_label
_atom_site_fract_x
_atom_site_fract_y
_atom_site_fract_z
Si Si1 0.782477 0.527412 0.101230
Si Si2 0.029374 0.457477 0.625443
Si Si3 0.224601 0.800973 0.537827
Si Si4 0.390757 0.076541 0.717472
Si Si5 0.152556 0.107735 0.913585
Si Si6 0.881483 0.772379 0.881936
O O1 0.767139 0.591434 0.246784
O O2 0.613134 0.470115 0.028016
O O3 0.840302 0.404371 0.112434
O O4 0.895223 0.660823 0.994051
O O5 0.103249 0.617842 0.545921
O O6 0.150126 0.492645 0.747456
O O7 0.008537 0.305558 0.544764
O O8 0.114280 0.875592 0.514697
O O9 0.326022 0.897542 0.668954
O O10 0.267818 0.079104 0.820306
O O11 0.228940 0.166969 0.062421
O O12 0.989908 0.948839 0.930376
#
# Coordination Sequence:
#
# PCOD9574418 Si02
#       6
#     3   3   3   3   3   3
#     4   9  25  45  70 101 146 186 241 299 359 432
#     4   9  24  46  70  96 144 184 233 302 358 427
#     4  11  24  46  67 103 141 187 238 301 358 433
#     4  11  25  43  72 105 143 192 241 300 360 436
#     4  12  24  42  76 102 136 194 245 290 364 434
#     4  10  24  44  71  99 138 187 238 298 355 430
#
# _framework density 21.675438
#
# number of rings (size 3 to 8) (size 9 to 14) (size 15 to 20)
#    1.000    0.667    1.667    1.000    7.000    1.333 
#    9.000    0.000    0.000    0.000    0.000    0.000 
#    0.000    0.000    0.000    0.000    0.000    0.000 
#
# Total GULP energy -100426.364664 kJ/mol
# GULP energy per Si atom -5579.242481 kJ/mol
# Density = 2.162610 g / cm^3
# Si number density = 21.675438 Si / 1000 Ang^3
#
#
#
# Elastic Constant Matrix: (Units=GPa)
#
#
# Indices 1 2 3 4 5 6 
#
# 1 93.7693 41.8225 2.0950 2.2169 -3.4308 0.0000
# 2 41.8225 93.7693 2.0950 -2.2169 3.4308 0.0000
# 3 2.0950 2.0950 59.6637 0.0000 0.0000 0.0000
# 4 2.2169 -2.2169 0.0000 20.2078 0.0000 3.4308
# 5 -3.4308 3.4308 0.0000 0.0000 20.2078 2.2169
# 6 0.0000 0.0000 0.0000 3.4308 2.2169 25.9734
#
#
#
# Elastic Compliance Matrix: (Units=1/GPa)
#
#
# Indices 1 2 3 4 5 6 
#
# 1 0.013633 -0.006250 -0.000259 -0.002181 0.003376 0.000000
# 2 -0.006250 0.013633 -0.000259 0.002181 -0.003376 0.000000
# 3 -0.000259 -0.000259 0.016779 0.000000 0.000000 0.000000
# 4 -0.002181 0.002181 0.000000 0.051110 0.000000 -0.006751
# 5 0.003376 -0.003376 0.000000 0.000000 0.051110 -0.004362
# 6 0.000000 0.000000 0.000000 -0.006751 -0.004362 0.039765
#
#
# Mechanical properties :
#
#
# Convention : Reuss Voigt Hill
#
# Bulk Modulus (GPa) = 32.77828 37.69192 35.23510
# Shear Modulus (GPa) = 23.83949 26.69048 25.26498
#
# Velocity S-wave (km/s) = 3.31998 3.51289 3.41780
# Velocity P-wave (km/s) = 5.46365 5.82073 5.64501
#
# Compressibility (1/GPa) = 0.03050801
#
# Stress axis : x y z
#
# Youngs Moduli (GPa) = 73.35254 73.35254 59.59898
#
# Poissons Ratio (x) = 0.45843 0.01545
# Poissons Ratio (y) = 0.45843 0.01545
# Poissons Ratio (z) = 0.01902 0.01902
#
# Static dielectric constant tensor:
#      x y z
#    x 1.787190 0.000000 0.000000 
#    y 0.000000 1.787190 0.000000 
#    z 0.000000 0.000000 1.812950 
# 
# From -- ./inp_files/570.got.cif
#   From: 2010.05.17/outbox.cif.g08.bks.cpg/sg144_cif.got.tgz:570.got - 2010.05.20 13:46:34.
