data_PCOD9574663
_publ_section_title
;
Structure prediction by ZEFSAII (Michael W. Deem and Ramdas Pophale) SiO2 
 PCOD9574663
Probable space group: R 3
;
_chemical_formula_sum "Si O2"
_cell_formula_units_Z 39
_cell_length_a 8.522395
_cell_length_b 8.522395
_cell_length_c 31.794397
_cell_angle_alpha 90.000000
_cell_angle_beta 90.000000
_cell_angle_gamma 120.000000
_cell_volume 1999.882789
_symmetry_space_group_name_H-M "R 3"
_symmetry_group_IT_number 146
_symmetry_cell_setting 'hexagonal'
loop_
_space_group_symop_operation_xyz
x,y,z
-y,x-y,z
-x+y,-x,z
2/3+x,1/3+y,1/3+z
2/3-y,1/3+x-y,1/3+z
2/3-x+y,1/3-x,1/3+z
1/3+x,2/3+y,2/3+z
1/3-y,2/3+x-y,2/3+z
1/3-x+y,2/3-x,2/3+z
loop_
_atom_site_type_symbol
_atom_site_label
_atom_site_fract_x
_atom_site_fract_y
_atom_site_fract_z
Si Si1 0.266702 0.300562 0.863160
Si Si2 0.666668 0.333334 0.135975
Si Si3 0.333334 0.666667 0.869017
Si Si4 0.333332 0.063497 0.919578
Si Si5 0.333334 0.666667 0.970140
Si Si6 0.000000 0.000000 0.703182
Si Si7 0.633895 0.933365 0.309330
O O1 0.377813 0.513440 0.854502
O O2 0.374566 0.207039 0.881872
O O3 0.117106 0.284612 0.898683
O O4 0.154202 0.186720 0.823289
O O5 0.666668 0.333334 0.086245
O O6 0.333334 0.666667 0.919578
O O7 0.292102 0.165807 0.957285
O O8 0.499158 0.048719 0.940473
O O9 0.288857 0.468961 0.984655
O O10 0.967475 0.813278 0.682534
#
# Coordination Sequence:
#
# PCOD9574663 Si02
#       7
#     9   3   3   9   3   3   9
#     4  10  19  29  52  71 105 125 164 204 248 303
#     4   9  21  39  51  66  97 146 178 195 225 297
#     4  12  18  30  48  81 106 122 145 219 273 294
#     4  10  16  28  42  76  94 132 152 196 254 290
#     4  12  18  30  48  81 106 122 145 219 273 294
#     4   9  21  39  51  66  97 146 178 195 225 297
#     4  10  19  29  52  71 105 125 164 204 248 303
#
# _framework density 19.501142000000002
#
# number of rings (size 3 to 8) (size 9 to 14) (size 15 to 20)
#    0.000    1.846    4.615    0.923    0.000    0.000 
#    0.000    2.308    0.000    0.000    0.000    0.000 
#    0.000    0.000    0.000    0.000    0.000    0.000 
#
# Total GULP energy -72373.060334 kJ/mol
# GULP energy per Si atom -5567.158487 kJ/mol
# Density = 1.945676 g / cm^3
# Si number density = 19.501142 Si / 1000 Ang^3
#
#
#
# Elastic Constant Matrix: (Units=GPa)
#
#
# Indices 1 2 3 4 5 6 
#
# 1 56.8411 -0.4681 17.9203 -4.1335 0.0001 0.0001
# 2 -0.4681 56.8419 17.9207 4.1335 0.0001 0.0001
# 3 17.9203 17.9207 122.9727 0.0002 0.0001 0.0000
# 4 -4.1335 4.1335 0.0002 15.7470 0.0001 0.0000
# 5 0.0001 0.0001 0.0001 0.0001 15.7468 -4.1336
# 6 0.0001 0.0001 0.0000 0.0000 -4.1336 28.6549
#
#
#
# Elastic Compliance Matrix: (Units=1/GPa)
#
#
# Indices 1 2 3 4 5 6 
#
# 1 0.018843 0.000707 -0.002849 0.004761 0.000000 0.000000
# 2 0.000707 0.018843 -0.002849 -0.004760 0.000000 0.000000
# 3 -0.002849 -0.002849 0.008962 0.000000 0.000000 0.000000
# 4 0.004761 -0.004760 0.000000 0.066003 0.000000 0.000000
# 5 0.000000 0.000000 0.000000 0.000000 0.066004 0.009521
# 6 0.000000 0.000000 0.000000 0.000000 0.009521 0.036272
#
#
# Mechanical properties :
#
#
# Convention : Reuss Voigt Hill
#
# Bulk Modulus (GPa) = 27.27276 34.15572 30.71424
# Shear Modulus (GPa) = 21.08536 25.44859 23.26697
#
# Velocity S-wave (km/s) = 3.29178 3.61637 3.45789
# Velocity P-wave (km/s) = 5.33511 5.91526 5.63266
#
# Compressibility (1/GPa) = 0.03666662
#
# Stress axis : x y z
#
# Youngs Moduli (GPa) = 53.06970 53.07050 111.57928
#
# Poissons Ratio (x) = -0.03753 0.31789
# Poissons Ratio (y) = -0.03753 0.31789
# Poissons Ratio (z) = 0.15120 0.15120
#
# Static dielectric constant tensor:
#      x y z
#    x 1.804500 0.000000 0.000000 
#    y 0.000000 1.804500 0.000000 
#    z 0.000000 0.000000 1.632680 
# 
# From -- ./inp_files/2295.got.cif
#   From: 2010.05.17/outbox.cif.g08.bks.cpg/sg146_cif.got.tgz:2295.got - 2010.05.20 13:48:23.
