data_PCOD9574485
_publ_section_title
;
Structure prediction by ZEFSAII (Michael W. Deem and Ramdas Pophale) SiO2 
 PCOD9574485
Probable space group: P 31
;
_chemical_formula_sum "Si O2"
_cell_formula_units_Z 15
_cell_length_a 11.506306
_cell_length_b 11.506306
_cell_length_c 4.980657
_cell_angle_alpha 90.000000
_cell_angle_beta 90.000000
_cell_angle_gamma 120.000000
_cell_volume 571.069683
_symmetry_space_group_name_H-M "P 31"
_symmetry_group_IT_number 144
_symmetry_cell_setting 'hexagonal'
loop_
_space_group_symop_operation_xyz
x,y,z
-y,x-y,1/3+z
-x+y,-x,2/3+z
loop_
_atom_site_type_symbol
_atom_site_label
_atom_site_fract_x
_atom_site_fract_y
_atom_site_fract_z
Si Si1 0.384784 0.192189 0.506210
Si Si2 0.813376 0.384188 0.444802
Si Si3 0.076504 0.354411 0.101915
Si Si4 0.315492 0.791221 0.284779
Si Si5 0.860964 0.987578 0.528438
O O1 0.492395 0.349311 0.571568
O O2 0.440602 0.124670 0.293982
O O3 0.252599 0.183052 0.385907
O O4 0.349729 0.085532 0.750270
O O5 0.747161 0.435527 0.660679
O O6 0.146165 0.408854 0.391042
O O7 0.135314 0.258210 0.011000
O O8 0.120323 0.474820 0.889126
O O9 0.223311 0.647637 0.434038
O O10 0.991286 0.090158 0.364694
#
# Coordination Sequence:
#
# PCOD9574485 Si02
#       5
#     3   3   3   3   3
#     4  11  25  49  80 117 170 215 283 352 430 512
#     4   9  22  47  73 113 160 207 273 349 425 501
#     4  12  27  46  84 121 160 231 276 346 430 506
#     4  12  25  55  77 116 167 212 291 352 411 505
#     4  12  27  51  76 117 169 219 283 343 422 530
#
# _framework density 26.266493000000001
#
# number of rings (size 3 to 8) (size 9 to 14) (size 15 to 20)
#    0.000    0.800    4.000    1.200    5.600    1.600 
#   18.000    0.000    0.000    0.000    0.000    0.000 
#    0.000    0.000    0.000    0.000    0.000    0.000 
#
# Total GULP energy -83602.707381 kJ/mol
# GULP energy per Si atom -5573.513825 kJ/mol
# Density = 2.620671 g / cm^3
# Si number density = 26.266493 Si / 1000 Ang^3
#
#
#
# Elastic Constant Matrix: (Units=GPa)
#
#
# Indices 1 2 3 4 5 6 
#
# 1 257.4188 210.6351 63.7404 -0.8987 -10.5905 0.0000
# 2 210.6351 257.4188 63.7404 0.8987 10.5905 0.0000
# 3 63.7404 63.7404 152.1831 0.0000 0.0000 0.0000
# 4 -0.8987 0.8987 0.0000 47.9267 0.0000 10.5905
# 5 -10.5905 10.5905 0.0000 0.0000 47.9267 -0.8987
# 6 0.0000 0.0000 0.0000 10.5905 -0.8987 23.3918
#
#
#
# Elastic Compliance Matrix: (Units=1/GPa)
#
#
# Indices 1 2 3 4 5 6 
#
# 1 0.013091 -0.010679 -0.001010 0.000446 0.005253 0.000000
# 2 -0.010679 0.013091 -0.001010 -0.000446 -0.005253 0.000000
# 3 -0.001010 -0.001010 0.007417 0.000000 0.000000 0.000000
# 4 0.000446 -0.000446 0.000000 0.023203 0.000000 -0.010505
# 5 0.005253 -0.005253 0.000000 0.000000 0.023203 0.000891
# 6 0.000000 0.000000 0.000000 -0.010505 0.000891 0.047540
#
#
# Mechanical properties :
#
#
# Convention : Reuss Voigt Hill
#
# Bulk Modulus (GPa) = 121.95028 149.25025 135.60026
# Shear Modulus (GPa) = 32.11758 45.77604 38.94681
#
# Velocity S-wave (km/s) = 3.50059 4.17916 3.85484
# Velocity P-wave (km/s) = 7.92892 8.95723 8.45872
#
# Compressibility (1/GPa) = 0.00820006
#
# Stress axis : x y z
#
# Youngs Moduli (GPa) = 76.38903 76.38903 134.82256
#
# Poissons Ratio (x) = 0.81578 0.13618
# Poissons Ratio (y) = 0.81578 0.13618
# Poissons Ratio (z) = 0.07716 0.07716
#
# Static dielectric constant tensor:
#      x y z
#    x 2.279510 0.000000 0.000000 
#    y 0.000000 2.279510 0.000000 
#    z 0.000000 0.000000 1.953980 
# 
# From -- ./inp_files/84.got.cif
#   From: 2010.05.17/outbox.cif.g08.bks.cpg/sg144_cif.got.tgz:84.got - 2010.05.20 13:46:34.
