data_PCOD9574155
_publ_section_title
;
Structure prediction by ZEFSAII (Michael W. Deem and Ramdas Pophale) SiO2 
 PCOD9574155
Probable space group: I 41/A C D
;
_chemical_formula_sum "Si O2"
_cell_formula_units_Z 136
_cell_length_a 22.506104
_cell_length_b 22.506104
_cell_length_c 13.199160
_cell_angle_alpha 90.000000
_cell_angle_beta 90.000000
_cell_angle_gamma 90.000000
_cell_volume 6685.700787
_symmetry_space_group_name_H-M "I 41/A C D"
_symmetry_group_IT_number 142
_space_group.IT_coordinate_system_code '2'
_symmetry_cell_setting 'tetragonal'
loop_
_space_group_symop_operation_xyz
x,y,z
1/4-y,3/4+x,1/4+z
-x,1/2-y,z
1/4+y,1/4-x,3/4+z
x,-y,1/2-z
1/2-x,y,-z
3/4+y,1/4+x,1/4-z
1/4-y,1/4-x,1/4-z
-x,-y,-z
3/4+y,1/4-x,3/4-z
x,1/2+y,-z
3/4-y,3/4+x,1/4-z
-x,y,1/2+z
1/2+x,-y,z
1/4-y,3/4-x,3/4+z
3/4+y,3/4+x,3/4+z
1/2+x,1/2+y,1/2+z
3/4-y,1/4+x,3/4+z
1/2-x,-y,1/2+z
3/4+y,3/4-x,1/4+z
1/2+x,1/2-y,-z
-x,1/2+y,1/2-z
1/4+y,3/4+x,3/4-z
3/4-y,3/4-x,3/4-z
1/2-x,1/2-y,1/2-z
1/4+y,3/4-x,1/4-z
1/2+x,y,1/2-z
1/4-y,1/4+x,3/4-z
1/2-x,1/2+y,z
x,1/2-y,1/2+z
3/4-y,1/4-x,1/4+z
1/4+y,1/4+x,1/4+z
loop_
_atom_site_type_symbol
_atom_site_label
_atom_site_fract_x
_atom_site_fract_y
_atom_site_fract_z
Si Si1 0.622515 0.740893 0.248080
Si Si2 0.320943 0.615744 0.015716
Si Si3 0.403327 0.382495 0.656293
Si Si4 0.000318 0.564805 0.297201
Si Si5 0.500000 0.750000 0.625000
O O1 0.622899 0.791435 0.331470
O O2 0.624862 0.677327 0.300432
O O3 0.675507 0.747320 0.167408
O O4 0.559921 0.747696 0.190133
O O5 0.338762 0.588762 0.125000
O O6 0.341657 0.685459 0.018636
O O7 0.250000 0.612847 0.000000
O O8 0.354682 0.587691 0.918259
O O9 0.438039 0.410602 0.751690
O O10 0.996865 0.500000 0.250000
#
# Coordination Sequence:
#
# PCOD9574155 Si02
#       5
#    32  32  32  32   8
#     4  12  22  36  60  95 131 168 214 265 336 404
#     4  11  24  44  67  95 130 177 230 275 334 407
#     4  12  22  39  63  95 130 170 213 273 339 399
#     4  11  24  41  63  94 132 174 220 277 334 406
#     4  12  20  34  56  88 134 152 188 262 320 396
#
# _framework density 20.341920999999999
#
# number of rings (size 3 to 8) (size 9 to 14) (size 15 to 20)
#    0.000    0.471    7.059    2.824    0.000    2.824 
#    0.000    1.176    0.000    0.000    0.000    0.000 
#    0.000    0.000    0.000    0.000    0.000    0.000 
#
# Total GULP energy -379283.026930 kJ/mol
# GULP energy per Si atom -5577.691572 kJ/mol
# Density = 2.029562 g / cm^3
# Si number density = 20.341921 Si / 1000 Ang^3
#
#
#
# Elastic Constant Matrix: (Units=GPa)
#
#
# Indices 1 2 3 4 5 6 
#
# 1 30.8349 13.6135 3.9839 0.0000 0.0000 0.0000
# 2 13.6135 30.8349 3.9839 0.0000 0.0000 0.0000
# 3 3.9839 3.9839 73.8807 0.0000 0.0000 0.0000
# 4 0.0000 0.0000 0.0000 19.5025 0.0000 0.0000
# 5 0.0000 0.0000 0.0000 0.0000 19.5025 0.0000
# 6 0.0000 0.0000 0.0000 0.0000 0.0000 9.6542
#
#
#
# Elastic Compliance Matrix: (Units=1/GPa)
#
#
# Indices 1 2 3 4 5 6 
#
# 1 0.040392 -0.017675 -0.001225 0.000000 0.000000 0.000000
# 2 -0.017675 0.040392 -0.001225 0.000000 0.000000 0.000000
# 3 -0.001225 -0.001225 0.013667 0.000000 0.000000 0.000000
# 4 0.000000 0.000000 0.000000 0.051276 0.000000 0.000000
# 5 0.000000 0.000000 0.000000 0.000000 0.051276 0.000000
# 6 0.000000 0.000000 0.000000 0.000000 0.000000 0.103582
#
#
# Mechanical properties :
#
#
# Convention : Reuss Voigt Hill
#
# Bulk Modulus (GPa) = 18.44928 19.85698 19.15313
# Shear Modulus (GPa) = 13.93134 17.32977 15.63056
#
# Velocity S-wave (km/s) = 2.61982 2.92194 2.77499
# Velocity P-wave (km/s) = 4.27090 4.60070 4.43886
#
# Compressibility (1/GPa) = 0.05420266
#
# Stress axis : x y z
#
# Youngs Moduli (GPa) = 24.75712 24.75712 73.16656
#
# Poissons Ratio (x) = 0.43758 0.08963
# Poissons Ratio (y) = 0.43758 0.08963
# Poissons Ratio (z) = 0.03033 0.03033
#
# Static dielectric constant tensor:
#      x y z
#    x 1.853150 0.000000 0.000000 
#    y 0.000000 1.853150 0.000000 
#    z 0.000000 0.000000 1.807150 
# 
# From -- ./inp_files/3563.got.cif
#   From: 2010.05.17/outbox.cif.g08.bks.cpg/sg142_2_cif.got.tgz:3563.got - 2010.05.20 13:39:18.
