data_PCOD9574719
_publ_section_title
;
Structure prediction by ZEFSAII (Michael W. Deem and Ramdas Pophale) SiO2 
 PCOD9574719
Probable space group: R 3
;
_chemical_formula_sum "Si O2"
_cell_formula_units_Z 51
_cell_length_a 16.408173
_cell_length_b 16.408173
_cell_length_c 8.082808
_cell_angle_alpha 90.000000
_cell_angle_beta 90.000000
_cell_angle_gamma 120.000000
_cell_volume 1884.574659
_symmetry_space_group_name_H-M "R 3"
_symmetry_group_IT_number 146
_symmetry_cell_setting 'hexagonal'
loop_
_space_group_symop_operation_xyz
x,y,z
-y,x-y,z
-x+y,-x,z
2/3+x,1/3+y,1/3+z
2/3-y,1/3+x-y,1/3+z
2/3-x+y,1/3-x,1/3+z
1/3+x,2/3+y,2/3+z
1/3-y,2/3+x-y,2/3+z
1/3-x+y,2/3-x,2/3+z
loop_
_atom_site_type_symbol
_atom_site_label
_atom_site_fract_x
_atom_site_fract_y
_atom_site_fract_z
Si Si1 0.712771 0.739448 0.829330
Si Si2 0.897743 0.445830 0.487841
Si Si3 0.000000 0.000000 0.873658
Si Si4 0.614959 0.012771 0.957815
Si Si5 0.666668 0.333334 0.818139
Si Si6 0.587887 0.138590 0.154140
Si Si7 0.424535 0.848820 0.944719
O O1 0.663748 0.693050 0.651881
O O2 0.661569 0.795725 0.896448
O O3 0.822967 0.800684 0.786328
O O4 0.931711 0.492782 0.307238
O O5 0.837001 0.487278 0.563965
O O6 0.829141 0.330745 0.497124
O O7 0.000000 0.000000 0.678015
O O8 0.098613 0.085667 0.918683
O O9 0.637849 0.117380 0.008418
O O10 0.651393 0.973983 0.109548
O O11 0.499477 0.957878 0.973100
O O12 0.701251 0.438288 0.752475
#
# Coordination Sequence:
#
# PCOD9574719 Si02
#       7
#     9   9   3   9   3   9   9
#     4  10  23  41  65  95 130 172 221 273 331 401
#     4  10  21  40  67  97 132 177 224 276 337 403
#     4  12  24  40  62  88 129 171 217 287 340 388
#     4  12  27  46  70 102 140 180 226 283 347 414
#     4   9  21  37  62  94 126 174 226 269 328 403
#     4  11  25  42  65  96 128 173 229 276 335 415
#     4  10  21  40  65  96 135 177 225 278 336 402
#
# _framework density 27.061809
#
# number of rings (size 3 to 8) (size 9 to 14) (size 15 to 20)
#    0.000    1.412    0.000    4.588    0.000   14.118 
#    0.000    0.000    0.000    0.000    0.000    0.000 
#    0.000    0.000    0.000    0.000    0.000    0.000 
#
# Total GULP energy -94814.746891 kJ/mol
# GULP energy per Si atom -5577.338052 kJ/mol
# Density = 2.700022 g / cm^3
# Si number density = 27.061809 Si / 1000 Ang^3
#
#
#
# Elastic Constant Matrix: (Units=GPa)
#
#
# Indices 1 2 3 4 5 6 
#
# 1 92.2991 20.0705 14.8861 3.5055 0.6798 -0.0001
# 2 20.0705 92.2986 14.8860 -3.5056 -0.6794 -0.0002
# 3 14.8861 14.8860 123.1519 0.0005 0.0014 0.0002
# 4 3.5055 -3.5056 0.0005 42.7658 0.0002 -0.6796
# 5 0.6798 -0.6794 0.0014 0.0002 42.7662 3.5055
# 6 -0.0001 -0.0002 0.0002 -0.6796 3.5055 36.1141
#
#
#
# Elastic Compliance Matrix: (Units=1/GPa)
#
#
# Indices 1 2 3 4 5 6 
#
# 1 0.011577 -0.002383 -0.001111 -0.001144 -0.000222 0.000000
# 2 -0.002383 0.011577 -0.001111 0.001144 0.000222 0.000000
# 3 -0.001111 -0.001111 0.008389 0.000000 0.000000 0.000000
# 4 -0.001144 0.001144 0.000000 0.023578 0.000000 0.000444
# 5 -0.000222 0.000222 0.000000 0.000000 0.023578 -0.002289
# 6 0.000000 0.000000 0.000000 0.000444 -0.002289 0.027921
#
#
# Mechanical properties :
#
#
# Convention : Reuss Voigt Hill
#
# Bulk Modulus (GPa) = 44.78107 45.27054 45.02581
# Shear Modulus (GPa) = 40.56008 41.52301 41.04155
#
# Velocity S-wave (km/s) = 3.87563 3.92136 3.89856
# Velocity P-wave (km/s) = 6.05070 6.10472 6.07777
#
# Compressibility (1/GPa) = 0.02233087
#
# Stress axis : x y z
#
# Youngs Moduli (GPa) = 86.37886 86.37837 119.20790
#
# Poissons Ratio (x) = 0.20586 0.13247
# Poissons Ratio (y) = 0.20587 0.13247
# Poissons Ratio (z) = 0.09599 0.09599
#
# Static dielectric constant tensor:
#      x y z
#    x 2.399210 0.000000 0.000000 
#    y 0.000000 2.399210 0.000000 
#    z 0.000000 0.000000 2.067400 
# 
# From -- ./inp_files/656.got.cif
#   From: 2010.05.17/outbox.cif.g08.bks.cpg/sg146_cif.got.tgz:656.got - 2010.05.20 13:48:23.
