data_PCOD9574691
_publ_section_title
;
Structure prediction by ZEFSAII (Michael W. Deem and Ramdas Pophale) SiO2 
 PCOD9574691
Probable space group: R 3
;
_chemical_formula_sum "Si O2"
_cell_formula_units_Z 63
_cell_length_a 19.330534
_cell_length_b 19.330534
_cell_length_c 6.911044
_cell_angle_alpha 90.000000
_cell_angle_beta 90.000000
_cell_angle_gamma 120.000000
_cell_volume 2236.464416
_symmetry_space_group_name_H-M "R 3"
_symmetry_group_IT_number 146
_symmetry_cell_setting 'hexagonal'
loop_
_space_group_symop_operation_xyz
x,y,z
-y,x-y,z
-x+y,-x,z
2/3+x,1/3+y,1/3+z
2/3-y,1/3+x-y,1/3+z
2/3-x+y,1/3-x,1/3+z
1/3+x,2/3+y,2/3+z
1/3-y,2/3+x-y,2/3+z
1/3-x+y,2/3-x,2/3+z
loop_
_atom_site_type_symbol
_atom_site_label
_atom_site_fract_x
_atom_site_fract_y
_atom_site_fract_z
Si Si1 0.465186 0.814077 0.707870
Si Si2 0.604812 0.497921 0.439949
Si Si3 0.123022 0.850810 0.727675
Si Si4 0.393921 0.991748 0.923125
Si Si5 0.847191 0.937991 0.448086
Si Si6 0.324093 0.376676 0.897154
Si Si7 0.253190 0.778937 0.211065
O O1 0.502067 0.755058 0.654251
O O2 0.446326 0.860921 0.539582
O O3 0.537203 0.885967 0.824223
O O4 0.406159 0.783751 0.895806
O O5 0.547345 0.536051 0.413249
O O6 0.694835 0.573964 0.470531
O O7 0.579374 0.461552 0.652802
O O8 0.115175 0.869062 0.503086
O O9 0.076424 0.758853 0.792088
O O10 0.368178 0.040314 0.777640
O O11 0.485631 0.059623 0.973359
O O12 0.877277 0.884664 0.556175
O O13 0.866618 0.018312 0.560555
O O14 0.384309 0.355482 0.789115
#
# Coordination Sequence:
#
# PCOD9574691 Si02
#       7
#     9   9   9   9   9   9   9
#     4   9  20  36  57  85 121 166 210 260 321 380
#     4   9  20  40  61  93 133 166 215 270 326 401
#     4  10  20  35  60  90 123 163 211 265 319 389
#     4  10  21  38  61  92 128 168 215 268 330 394
#     4  11  22  41  61  85 121 163 213 267 323 385
#     4   9  16  29  49  79 116 156 200 249 308 376
#     4  10  23  41  65  92 124 172 220 271 333 397
#
# _framework density 28.169464999999999
#
# number of rings (size 3 to 8) (size 9 to 14) (size 15 to 20)
#    0.000    2.286    0.000    2.000    0.000    6.857 
#    0.000    7.143    0.000    0.000    0.000    0.000 
#    0.000    0.000    0.000    0.000    0.000    0.000 
#
# Total GULP energy -117041.700767 kJ/mol
# GULP energy per Si atom -5573.414322 kJ/mol
# Density = 2.810535 g / cm^3
# Si number density = 28.169465 Si / 1000 Ang^3
#
#
#
# Elastic Constant Matrix: (Units=GPa)
#
#
# Indices 1 2 3 4 5 6 
#
# 1 131.4273 50.9507 41.7842 16.7608 -4.5397 -0.0004
# 2 50.9507 131.4324 41.7899 -16.7634 4.5317 -0.0025
# 3 41.7842 41.7899 92.4217 0.0061 -0.0401 0.0141
# 4 16.7608 -16.7634 0.0061 37.4416 0.0027 4.5429
# 5 -4.5397 4.5317 -0.0401 0.0027 37.4205 16.7654
# 6 -0.0004 -0.0025 0.0141 4.5429 16.7654 40.2459
#
#
#
# Elastic Compliance Matrix: (Units=1/GPa)
#
#
# Indices 1 2 3 4 5 6 
#
# 1 0.011225 -0.004310 -0.003125 -0.006954 0.001879 0.000003
# 2 -0.004310 0.011226 -0.003129 0.006956 -0.001887 0.000003
# 3 -0.003125 -0.003129 0.013648 -0.000003 0.000020 -0.000013
# 4 -0.006954 0.006956 -0.000003 0.033393 0.000000 -0.003769
# 5 0.001879 -0.001887 0.000020 0.000000 0.033417 -0.013921
# 6 0.000003 0.000003 -0.000013 -0.003769 -0.013921 0.031072
#
#
# Mechanical properties :
#
#
# Convention : Reuss Voigt Hill
#
# Bulk Modulus (GPa) = 66.79270 69.37010 68.08140
# Shear Modulus (GPa) = 31.23102 37.73871 34.48486
#
# Velocity S-wave (km/s) = 3.33330 3.66417 3.50264
# Velocity P-wave (km/s) = 6.21104 6.52541 6.37016
#
# Compressibility (1/GPa) = 0.01497170
#
# Stress axis : x y z
#
# Youngs Moduli (GPa) = 89.08913 89.07703 73.27318
#
# Poissons Ratio (x) = 0.38388 0.22897
# Poissons Ratio (y) = 0.38393 0.22927
# Poissons Ratio (z) = 0.27839 0.27872
#
# Static dielectric constant tensor:
#      x y z
#    x 2.329090 -0.000010 -0.000020 
#    y -0.000010 2.329110 -0.000020 
#    z -0.000020 -0.000020 2.270870 
# 
# From -- ./inp_files/838.got.cif
#   From: 2010.05.17/outbox.cif.g08.bks.cpg/sg146_cif.got.tgz:838.got - 2010.05.20 13:48:23.
