data_PCOD9574131
_publ_section_title
;
Structure prediction by ZEFSAII (Michael W. Deem and Ramdas Pophale) SiO2 
 PCOD9574131
Probable space group: I 41/A C D
;
_chemical_formula_sum "Si O2"
_cell_formula_units_Z 160
_cell_length_a 19.409568
_cell_length_b 19.409568
_cell_length_c 19.259160
_cell_angle_alpha 90.000000
_cell_angle_beta 90.000000
_cell_angle_gamma 90.000000
_cell_volume 7255.528960
_symmetry_space_group_name_H-M "I 41/A C D"
_symmetry_group_IT_number 142
_space_group.IT_coordinate_system_code '2'
_symmetry_cell_setting 'tetragonal'
loop_
_space_group_symop_operation_xyz
x,y,z
1/4-y,3/4+x,1/4+z
-x,1/2-y,z
1/4+y,1/4-x,3/4+z
x,-y,1/2-z
1/2-x,y,-z
3/4+y,1/4+x,1/4-z
1/4-y,1/4-x,1/4-z
-x,-y,-z
3/4+y,1/4-x,3/4-z
x,1/2+y,-z
3/4-y,3/4+x,1/4-z
-x,y,1/2+z
1/2+x,-y,z
1/4-y,3/4-x,3/4+z
3/4+y,3/4+x,3/4+z
1/2+x,1/2+y,1/2+z
3/4-y,1/4+x,3/4+z
1/2-x,-y,1/2+z
3/4+y,3/4-x,1/4+z
1/2+x,1/2-y,-z
-x,1/2+y,1/2-z
1/4+y,3/4+x,3/4-z
3/4-y,3/4-x,3/4-z
1/2-x,1/2-y,1/2-z
1/4+y,3/4-x,1/4-z
1/2+x,y,1/2-z
1/4-y,1/4+x,3/4-z
1/2-x,1/2+y,z
x,1/2-y,1/2+z
3/4-y,1/4-x,1/4+z
1/4+y,1/4+x,1/4+z
loop_
_atom_site_type_symbol
_atom_site_label
_atom_site_fract_x
_atom_site_fract_y
_atom_site_fract_z
Si Si1 0.614685 0.212145 0.477972
Si Si2 0.767703 0.080307 0.920177
Si Si3 0.472544 0.651568 0.517196
Si Si4 0.714585 0.273097 0.370809
Si Si5 0.570406 0.411385 0.615618
O O1 0.571840 0.282183 0.463324
O O2 0.553847 0.157138 0.467532
O O3 0.676548 0.222129 0.424882
O O4 0.643703 0.198286 0.554983
O O5 0.745180 0.159523 0.907596
O O6 0.848673 0.076700 0.899312
O O7 0.722031 0.027969 0.875000
O O8 0.750000 0.064443 0.000000
O O9 0.449061 0.586830 0.561990
O O10 0.457168 0.647381 0.435642
O O11 0.774738 0.225991 0.341240
#
# Coordination Sequence:
#
# PCOD9574131 Si02
#       5
#    32  32  32  32  32
#     4  11  23  41  67  98 131 170 225 289 351 419
#     4  12  27  47  71 101 142 191 239 293 363 444
#     4  11  23  41  67  97 130 172 223 285 353 423
#     4  12  24  43  68  97 136 181 231 289 357 429
#     4  12  25  42  67  97 134 179 230 289 351 423
#
# _framework density 22.052149
#
# number of rings (size 3 to 8) (size 9 to 14) (size 15 to 20)
#    0.000    0.400    0.000   10.800    0.000    8.000 
#    0.000    0.000    0.000    0.000    0.000    0.000 
#    0.000    0.000    0.000    0.000    0.000    0.000 
#
# Total GULP energy -447247.730261 kJ/mol
# GULP energy per Si atom -5590.596628 kJ/mol
# Density = 2.200196 g / cm^3
# Si number density = 22.052149 Si / 1000 Ang^3
#
#
#
# Elastic Constant Matrix: (Units=GPa)
#
#
# Indices 1 2 3 4 5 6 
#
# 1 67.7718 32.5071 17.3464 0.0000 0.0000 0.0000
# 2 32.5071 67.7706 17.3468 0.0000 0.0000 0.0000
# 3 17.3464 17.3468 104.7708 0.0000 0.0000 0.0000
# 4 0.0000 0.0000 0.0000 25.8753 0.0000 0.0000
# 5 0.0000 0.0000 0.0000 0.0000 25.8743 0.0000
# 6 0.0000 0.0000 0.0000 0.0000 0.0000 30.2989
#
#
#
# Elastic Compliance Matrix: (Units=1/GPa)
#
#
# Indices 1 2 3 4 5 6 
#
# 1 0.019468 -0.008890 -0.001751 0.000000 0.000000 0.000000
# 2 -0.008890 0.019468 -0.001751 0.000000 0.000000 0.000000
# 3 -0.001751 -0.001751 0.010125 0.000000 0.000000 0.000000
# 4 0.000000 0.000000 0.000000 0.038647 0.000000 0.000000
# 5 0.000000 0.000000 0.000000 0.000000 0.038648 0.000000
# 6 0.000000 0.000000 0.000000 0.000000 0.000000 0.033004
#
#
# Mechanical properties :
#
#
# Convention : Reuss Voigt Hill
#
# Bulk Modulus (GPa) = 41.19403 41.63485 41.41444
# Shear Modulus (GPa) = 26.00962 27.95057 26.98009
#
# Velocity S-wave (km/s) = 3.43805 3.56403 3.50160
# Velocity P-wave (km/s) = 5.87206 5.98812 5.93037
#
# Compressibility (1/GPa) = 0.02427536
#
# Stress axis : x y z
#
# Youngs Moduli (GPa) = 51.36738 51.36635 98.76943
#
# Poissons Ratio (x) = 0.45663 0.17298
# Poissons Ratio (y) = 0.45664 0.17299
# Poissons Ratio (z) = 0.08996 0.08997
#
# Static dielectric constant tensor:
#      x y z
#    x 1.875290 0.000000 0.000000 
#    y 0.000000 1.875290 0.000000 
#    z 0.000000 0.000000 1.805560 
# 
# From -- ./inp_files/7379.got.cif
#   From: 2010.05.17/outbox.cif.g08.bks.cpg/sg142_4_cif.got.tgz:7379.got - 2010.05.20 13:39:18.
