data_PCOD9574452
_publ_section_title
;
Structure prediction by ZEFSAII (Michael W. Deem and Ramdas Pophale) SiO2 
 PCOD9574452
Probable space group: P 31
;
_chemical_formula_sum "Si O2"
_cell_formula_units_Z 21
_cell_length_a 9.408308
_cell_length_b 9.408308
_cell_length_c 10.917980
_cell_angle_alpha 90.000000
_cell_angle_beta 90.000000
_cell_angle_gamma 120.000000
_cell_volume 836.943188
_symmetry_space_group_name_H-M "P 31"
_symmetry_group_IT_number 144
_symmetry_cell_setting 'hexagonal'
loop_
_space_group_symop_operation_xyz
x,y,z
-y,x-y,1/3+z
-x+y,-x,2/3+z
loop_
_atom_site_type_symbol
_atom_site_label
_atom_site_fract_x
_atom_site_fract_y
_atom_site_fract_z
Si Si1 0.764626 0.757594 0.637920
Si Si2 0.724834 0.006331 0.751298
Si Si3 0.095153 0.265477 0.669766
Si Si4 0.748959 0.887731 0.271554
Si Si5 0.656808 0.556355 0.388187
Si Si6 0.774625 0.328741 0.463290
Si Si7 0.491598 0.473250 0.031422
O O1 0.718488 0.665266 0.511032
O O2 0.717216 0.620470 0.740602
O O3 0.961251 0.884565 0.648586
O O4 0.669659 0.854164 0.659960
O O5 0.584214 0.053615 0.749167
O O6 0.898198 0.146370 0.694249
O O7 0.751353 0.935535 0.881783
O O8 0.177257 0.253204 0.794716
O O9 0.105612 0.441304 0.681572
O O10 0.702006 0.700219 0.289484
O O11 0.621317 0.919275 0.346196
O O12 0.751351 0.454462 0.377559
O O13 0.607391 0.151181 0.475184
O O14 0.853137 0.427948 0.586160
#
# Coordination Sequence:
#
# PCOD9574452 Si02
#       7
#     3   3   3   3   3   3   3
#     4  11  27  49  75 107 159 190 249 315 380 441
#     4  12  29  48  76 114 152 202 254 315 377 455
#     4  12  28  45  79 109 154 200 256 308 383 452
#     4  11  29  47  76 111 155 197 252 314 383 445
#     4  12  28  47  81 112 149 199 258 308 375 463
#     4  11  22  47  74 106 139 197 248 302 369 444
#     4  11  25  45  75 107 148 195 245 314 369 442
#
# _framework density 25.091308999999999
#
# number of rings (size 3 to 8) (size 9 to 14) (size 15 to 20)
#    0.000    0.571    5.714    0.857   12.000    3.429 
#    0.000    0.000    0.000    0.000    0.000    0.000 
#    0.000    0.000    0.000    0.000    0.000    0.000 
#
# Total GULP energy -117493.938686 kJ/mol
# GULP energy per Si atom -5594.949461 kJ/mol
# Density = 2.503420 g / cm^3
# Si number density = 25.091309 Si / 1000 Ang^3
#
#
#
# Elastic Constant Matrix: (Units=GPa)
#
#
# Indices 1 2 3 4 5 6 
#
# 1 120.8599 48.3224 15.3385 0.6814 2.0617 0.0000
# 2 48.3224 120.8599 15.3385 -0.6814 -2.0617 0.0000
# 3 15.3385 15.3385 83.4142 0.0000 0.0000 0.0000
# 4 0.6814 -0.6814 0.0000 38.0845 0.0000 -2.0617
# 5 2.0617 -2.0617 0.0000 0.0000 38.0845 0.6814
# 6 0.0000 0.0000 0.0000 -2.0617 0.6814 36.2687
#
#
#
# Elastic Compliance Matrix: (Units=1/GPa)
#
#
# Indices 1 2 3 4 5 6 
#
# 1 0.009974 -0.003859 -0.001124 -0.000247 -0.000749 0.000000
# 2 -0.003859 0.009974 -0.001124 0.000247 0.000749 0.000000
# 3 -0.001124 -0.001124 0.012402 0.000000 0.000000 0.000000
# 4 -0.000247 0.000247 0.000000 0.026347 0.000000 0.001498
# 5 -0.000749 0.000749 0.000000 0.000000 0.026347 -0.000495
# 6 0.000000 0.000000 0.000000 0.001498 -0.000495 0.027666
#
#
# Mechanical properties :
#
#
# Convention : Reuss Voigt Hill
#
# Bulk Modulus (GPa) = 49.66807 53.68142 51.67475
# Shear Modulus (GPa) = 37.98291 38.89651 38.43971
#
# Velocity S-wave (km/s) = 3.89496 3.94153 3.91831
# Velocity P-wave (km/s) = 6.32974 6.49269 6.41173
#
# Compressibility (1/GPa) = 0.02013366
#
# Stress axis : x y z
#
# Youngs Moduli (GPa) = 100.26137 100.26137 80.63299
#
# Poissons Ratio (x) = 0.38694 0.09066
# Poissons Ratio (y) = 0.38694 0.09066
# Poissons Ratio (z) = 0.11273 0.11273
#
# Static dielectric constant tensor:
#      x y z
#    x 1.981040 0.000000 0.000000 
#    y 0.000000 1.981040 0.000000 
#    z 0.000000 0.000000 2.069350 
# 
# From -- ./inp_files/611.got.cif
#   From: 2010.05.17/outbox.cif.g08.bks.cpg/sg144_cif.got.tgz:611.got - 2010.05.20 13:46:34.
