data_PCOD9574620
_publ_section_title
;
Structure prediction by ZEFSAII (Michael W. Deem and Ramdas Pophale) SiO2 
 PCOD9574620
Probable space group: P 32
;
_chemical_formula_sum "Si O2"
_cell_formula_units_Z 9
_cell_length_a 4.628221
_cell_length_b 4.628221
_cell_length_c 15.860473
_cell_angle_alpha 90.000000
_cell_angle_beta 90.000000
_cell_angle_gamma 120.000000
_cell_volume 294.221865
_symmetry_space_group_name_H-M "P 32"
_symmetry_group_IT_number 145
_symmetry_cell_setting 'hexagonal'
loop_
_space_group_symop_operation_xyz
x,y,z
-y,x-y,2/3+z
-x+y,-x,1/3+z
loop_
_atom_site_type_symbol
_atom_site_label
_atom_site_fract_x
_atom_site_fract_y
_atom_site_fract_z
Si Si1 0.443705 0.196051 0.751910
Si Si2 1.000000 0.184382 0.193518
Si Si3 0.556295 0.752346 0.635127
O O1 0.708177 0.445893 0.821168
O O2 0.520258 0.408017 0.666086
O O3 0.479742 0.887759 0.720950
O O4 0.073057 0.047199 0.786583
O O5 0.262284 0.554107 0.232535
O O6 0.025858 0.952801 0.267120
#
# Coordination Sequence:
#
# PCOD9574620 Si02
#       3
#     3   3   3
#     4  11  26  50  80 114 155 204 258 318 383 456
#     4  10  26  50  80 114 156 202 258 316 384 456
#     4  11  26  50  80 114 155 204 258 318 383 456
#
# _framework density 30.589165000000001
#
# number of rings (size 3 to 8) (size 9 to 14) (size 15 to 20)
#    0.000    1.333    0.000    2.000    0.000   21.333 
#    0.000    0.000    0.000    0.000    0.000    0.000 
#    0.000    0.000    0.000    0.000    0.000    0.000 
#
# Total GULP energy -50260.541736 kJ/mol
# GULP energy per Si atom -5584.504637 kJ/mol
# Density = 3.051954 g / cm^3
# Si number density = 30.589165 Si / 1000 Ang^3
#
#
#
# Elastic Constant Matrix: (Units=GPa)
#
#
# Indices 1 2 3 4 5 6 
#
# 1 118.4223 22.8304 48.0931 2.5312 -0.0001 0.0000
# 2 22.8304 118.4223 48.0931 -2.5312 0.0001 0.0000
# 3 48.0931 48.0931 175.6327 0.0000 0.0000 0.0000
# 4 2.5312 -2.5312 0.0000 59.9647 0.0000 0.0001
# 5 -0.0001 0.0001 0.0000 0.0000 59.9647 2.5312
# 6 0.0000 0.0000 0.0000 0.0001 2.5312 47.7959
#
#
#
# Elastic Compliance Matrix: (Units=1/GPa)
#
#
# Indices 1 2 3 4 5 6 
#
# 1 0.009593 -0.000891 -0.002383 -0.000443 0.000000 0.000000
# 2 -0.000891 0.009593 -0.002383 0.000443 0.000000 0.000000
# 3 -0.002383 -0.002383 0.006999 0.000000 0.000000 0.000000
# 4 -0.000443 0.000443 0.000000 0.016714 0.000000 0.000000
# 5 0.000000 0.000000 0.000000 0.000000 0.016714 -0.000885
# 6 0.000000 0.000000 0.000000 0.000000 -0.000885 0.020969
#
#
# Mechanical properties :
#
#
# Convention : Reuss Voigt Hill
#
# Bulk Modulus (GPa) = 67.24302 72.27897 69.76100
# Shear Modulus (GPa) = 51.62440 53.10910 52.36675
#
# Velocity S-wave (km/s) = 4.11258 4.17130 4.14205
# Velocity P-wave (km/s) = 6.67694 6.84689 6.76245
#
# Compressibility (1/GPa) = 0.01487143
#
# Stress axis : x y z
#
# Youngs Moduli (GPa) = 104.23873 104.23873 142.88360
#
# Poissons Ratio (x) = 0.09290 0.34048
# Poissons Ratio (y) = 0.09290 0.34048
# Poissons Ratio (z) = 0.24839 0.24839
#
# Static dielectric constant tensor:
#      x y z
#    x 2.366920 0.000000 0.000000 
#    y 0.000000 2.366920 0.000000 
#    z 0.000000 0.000000 2.679880 
# 
# From -- ./inp_files/717.got.cif
#   From: 2010.05.17/outbox.cif.g08.bks.cpg/sg145_cif.got.tgz:717.got - 2010.05.20 13:47:28.
