data_PCOD9574480
_publ_section_title
;
Structure prediction by ZEFSAII (Michael W. Deem and Ramdas Pophale) SiO2 
 PCOD9574480
Probable space group: P 31
;
_chemical_formula_sum "Si O2"
_cell_formula_units_Z 18
_cell_length_a 9.711899
_cell_length_b 9.711899
_cell_length_c 11.472070
_cell_angle_alpha 90.000000
_cell_angle_beta 90.000000
_cell_angle_gamma 120.000000
_cell_volume 937.088772
_symmetry_space_group_name_H-M "P 31"
_symmetry_group_IT_number 144
_symmetry_cell_setting 'hexagonal'
loop_
_space_group_symop_operation_xyz
x,y,z
-y,x-y,1/3+z
-x+y,-x,2/3+z
loop_
_atom_site_type_symbol
_atom_site_label
_atom_site_fract_x
_atom_site_fract_y
_atom_site_fract_z
Si Si1 0.104474 0.244791 0.613380
Si Si2 0.412162 0.324836 0.744817
Si Si3 0.261043 0.487566 0.177338
Si Si4 0.254504 0.246008 0.368599
Si Si5 0.526350 0.088541 0.833369
Si Si6 0.405625 0.559855 0.936079
O O1 0.231916 0.230866 0.695531
O O2 0.146621 0.227491 0.480685
O O3 0.136230 0.423256 0.626288
O O4 0.925242 0.122799 0.647775
O O5 0.469107 0.210531 0.798973
O O6 0.520046 0.414203 0.632731
O O7 0.421157 0.450500 0.839277
O O8 0.245510 0.362679 0.274140
O O9 0.374180 0.666668 0.223375
O O10 0.089924 0.469566 0.153795
O O11 0.333334 0.468965 0.056709
O O12 0.434750 0.332282 0.417884
#
# Coordination Sequence:
#
# PCOD9574480 Si02
#       6
#     3   3   3   3   3   3
#     4  11  25  46  66 102 144 176 235 294 346 417
#     4  11  26  44  71 100 143 184 231 294 351 418
#     4  12  22  45  74  97 131 186 234 280 349 424
#     4  11  26  44  71 100 143 184 231 294 351 418
#     4  11  25  46  66 102 144 176 235 294 346 417
#     4  12  22  45  74  97 131 186 234 280 349 424
#
# _framework density 19.208427
#
# number of rings (size 3 to 8) (size 9 to 14) (size 15 to 20)
#    0.000    0.667    6.667    1.000    4.667    8.000 
#    0.000    0.000    0.000    0.000    0.000    0.000 
#    0.000    0.000    0.000    0.000    0.000    0.000 
#
# Total GULP energy -100695.331142 kJ/mol
# GULP energy per Si atom -5594.185063 kJ/mol
# Density = 1.916471 g / cm^3
# Si number density = 19.208427 Si / 1000 Ang^3
#
#
#
# Elastic Constant Matrix: (Units=GPa)
#
#
# Indices 1 2 3 4 5 6 
#
# 1 126.9340 73.9976 81.6226 -12.1404 -0.0005 0.0000
# 2 73.9976 126.9340 81.6226 12.1404 0.0005 0.0000
# 3 81.6226 81.6226 110.3119 0.0000 0.0000 0.0000
# 4 -12.1404 12.1404 0.0000 26.8869 0.0000 0.0005
# 5 -0.0005 0.0005 0.0000 0.0000 26.8869 -12.1404
# 6 0.0000 0.0000 0.0000 0.0005 -12.1404 26.4682
#
#
#
# Elastic Compliance Matrix: (Units=1/GPa)
#
#
# Indices 1 2 3 4 5 6 
#
# 1 0.018151 -0.005674 -0.009233 0.010758 0.000000 0.000000
# 2 -0.005674 0.018151 -0.009233 -0.010758 0.000000 0.000000
# 3 -0.009233 -0.009233 0.022728 0.000000 0.000000 0.000000
# 4 0.010758 -0.010758 0.000000 0.046908 0.000000 -0.000001
# 5 0.000000 0.000000 0.000000 0.000000 0.046908 0.021516
# 6 0.000000 0.000000 0.000000 -0.000001 0.021516 0.047650
#
#
# Mechanical properties :
#
#
# Convention : Reuss Voigt Hill
#
# Bulk Modulus (GPa) = 92.99585 93.18507 93.09046
# Shear Modulus (GPa) = 19.81309 24.51089 22.16199
#
# Velocity S-wave (km/s) = 3.21515 3.57606 3.40039
# Velocity P-wave (km/s) = 7.89317 8.10363 7.99909
#
# Compressibility (1/GPa) = 0.01075317
#
# Stress axis : x y z
#
# Youngs Moduli (GPa) = 55.09227 55.09227 43.99827
#
# Poissons Ratio (x) = 0.31257 0.40622
# Poissons Ratio (y) = 0.31257 0.40622
# Poissons Ratio (z) = 0.50865 0.50865
#
# Static dielectric constant tensor:
#      x y z
#    x 1.644380 0.000000 0.000000 
#    y 0.000000 1.644380 0.000000 
#    z 0.000000 0.000000 1.663740 
# 
# From -- ./inp_files/510.got.cif
#   From: 2010.05.17/outbox.cif.g08.bks.cpg/sg144_cif.got.tgz:510.got - 2010.05.20 13:46:34.
