data_PCOD9574888
_publ_section_title
;
Structure prediction by ZEFSAII (Michael W. Deem and Ramdas Pophale) SiO2 
 PCOD9574888
Probable space group: P -3
;
_chemical_formula_sum "Si O2"
_cell_formula_units_Z 36
_cell_length_a 12.745990
_cell_length_b 12.745990
_cell_length_c 16.088494
_cell_angle_alpha 90.000000
_cell_angle_beta 90.000000
_cell_angle_gamma 120.000000
_cell_volume 2263.566049
_symmetry_space_group_name_H-M "P -3"
_symmetry_group_IT_number 147
_symmetry_cell_setting 'hexagonal'
loop_
_space_group_symop_operation_xyz
x,y,z
-y,x-y,z
-x+y,-x,z
-x,-y,-z
y,-x+y,-z
x-y,x,-z
loop_
_atom_site_type_symbol
_atom_site_label
_atom_site_fract_x
_atom_site_fract_y
_atom_site_fract_z
Si Si1 0.666669 0.084164 0.160281
Si Si2 0.251495 0.251529 0.317767
Si Si3 1.000000 0.249296 0.000000
Si Si4 0.748471 0.748504 0.317767
Si Si5 0.750166 0.750165 0.500000
Si Si6 0.582504 0.915836 0.839719
O O1 0.677680 0.020357 0.243562
O O2 0.690579 0.022646 0.080702
O O3 0.539602 0.079205 0.154635
O O4 0.777389 0.222610 0.162663
O O5 0.125451 0.250901 0.308071
O O6 0.305427 0.302891 0.409812
O O7 0.227221 0.113610 0.314387
O O8 0.118230 0.236460 0.011755
O O9 0.977354 0.309421 0.080703
O O10 0.697109 0.694573 0.409812
O O11 0.677680 0.657323 0.243562
O O12 0.881961 0.763922 0.502676
#
# Coordination Sequence:
#
# PCOD9574888 Si02
#       6
#     6   6   6   6   6   6
#     4  10  20  33  48  66  91 125 162 194 222 260
#     4   9  16  27  46  71  97 122 150 190 239 287
#     4  10  20  34  54  78 100 118 140 180 234 286
#     4   9  16  27  46  71  97 122 150 190 239 287
#     4   8  13  22  39  66  96 122 148 182 232 288
#     4  10  20  33  48  66  91 125 162 194 222 260
#
# _framework density 15.904109
#
# number of rings (size 3 to 8) (size 9 to 14) (size 15 to 20)
#    0.000    2.667    0.000    2.500    0.000    2.667 
#    0.000    4.167    0.000    7.333    0.000    0.000 
#    0.000    0.000    0.000    0.000    0.000    0.000 
#
# Total GULP energy -200476.546928 kJ/mol
# GULP energy per Si atom -5568.792970 kJ/mol
# Density = 1.586791 g / cm^3
# Si number density = 15.904109 Si / 1000 Ang^3
#
#
#
# Elastic Constant Matrix: (Units=GPa)
#
#
# Indices 1 2 3 4 5 6 
#
# 1 84.2618 57.1243 74.6569 -0.3608 0.0000 0.0000
# 2 57.1243 84.2618 74.6569 0.3608 0.0000 0.0000
# 3 74.6569 74.6569 177.8349 0.0000 0.0000 0.0000
# 4 -0.3608 0.3608 0.0000 11.6564 0.0000 0.0000
# 5 0.0000 0.0000 0.0000 0.0000 11.6564 -0.3608
# 6 0.0000 0.0000 0.0000 0.0000 -0.3608 13.5688
#
#
#
# Elastic Compliance Matrix: (Units=1/GPa)
#
#
# Indices 1 2 3 4 5 6 
#
# 1 0.024793 -0.012087 -0.005334 0.001142 0.000000 0.000000
# 2 -0.012087 0.024793 -0.005334 -0.001142 0.000000 0.000000
# 3 -0.005334 -0.005334 0.010102 0.000000 0.000000 0.000000
# 4 0.001142 -0.001142 0.000000 0.085861 0.000000 0.000000
# 5 0.000000 0.000000 0.000000 0.000000 0.085861 0.002283
# 6 0.000000 0.000000 0.000000 0.000000 0.002283 0.073759
#
#
# Mechanical properties :
#
#
# Convention : Reuss Voigt Hill
#
# Bulk Modulus (GPa) = 70.53470 84.35940 77.44705
# Shear Modulus (GPa) = 14.06851 16.70436 15.38643
#
# Velocity S-wave (km/s) = 2.97742 3.24438 3.11376
# Velocity P-wave (km/s) = 7.50109 8.19709 7.85680
#
# Compressibility (1/GPa) = 0.01417742
#
# Stress axis : x y z
#
# Youngs Moduli (GPa) = 40.33424 40.33424 98.99202
#
# Poissons Ratio (x) = 0.48751 0.52804
# Poissons Ratio (y) = 0.48751 0.52804
# Poissons Ratio (z) = 0.21515 0.21515
#
# Static dielectric constant tensor:
#      x y z
#    x 1.494810 0.000000 0.000000 
#    y 0.000000 1.494810 0.000000 
#    z 0.000000 0.000000 1.576040 
# 
# From -- ./inp_files/918.got.cif
#   From: 2010.05.17/outbox.cif.g08.bks.cpg/sg147_cif.got.tgz:918.got - 2010.05.20 13:49:32.
