data_PCOD9574849
_publ_section_title
;
Structure prediction by ZEFSAII (Michael W. Deem and Ramdas Pophale) SiO2 
 PCOD9574849
Probable space group: P -3
;
_chemical_formula_sum "Si O2"
_cell_formula_units_Z 36
_cell_length_a 23.715127
_cell_length_b 23.715127
_cell_length_c 5.022594
_cell_angle_alpha 90.000000
_cell_angle_beta 90.000000
_cell_angle_gamma 120.000000
_cell_volume 2446.299433
_symmetry_space_group_name_H-M "P -3"
_symmetry_group_IT_number 147
_symmetry_cell_setting 'hexagonal'
loop_
_space_group_symop_operation_xyz
x,y,z
-y,x-y,z
-x+y,-x,z
-x,-y,-z
y,-x+y,-z
x-y,x,-z
loop_
_atom_site_type_symbol
_atom_site_label
_atom_site_fract_x
_atom_site_fract_y
_atom_site_fract_z
Si Si1 0.332643 0.545901 0.324654
Si Si2 0.538757 0.829778 0.824089
Si Si3 0.585512 0.043784 0.197257
Si Si4 0.170222 0.461243 0.675913
Si Si5 0.667357 0.213258 0.824651
Si Si6 0.414489 0.458273 0.697256
O O1 0.321622 0.524321 0.628822
O O2 0.288717 0.577435 0.250001
O O3 0.406441 0.593559 0.250001
O O4 0.303203 0.483303 0.130276
O O5 0.571784 0.785892 0.750001
O O6 0.565873 0.905107 0.756693
O O7 0.660766 0.094893 0.256692
O O8 0.535650 0.071301 0.250001
O O9 0.558607 0.982975 0.398945
O O10 0.575632 0.017025 0.898944
O O11 0.180099 0.483303 0.369727
O O12 0.202699 0.524321 0.871181
#
# Coordination Sequence:
#
# PCOD9574849 Si02
#       6
#     6   6   6   6   6   6
#     4  10  18  27  39  54  74  98 124 153 188 235
#     4  10  20  31  43  58  77 101 126 159 202 242
#     4  10  19  30  45  62  79 101 131 166 202 241
#     4  10  20  31  43  58  77 101 126 159 202 242
#     4  10  18  27  39  54  74  98 124 153 188 235
#     4  10  19  30  45  62  79 101 131 166 202 241
#
# _framework density 14.716105000000001
#
# number of rings (size 3 to 8) (size 9 to 14) (size 15 to 20)
#    0.000    2.000    0.000    5.333    0.000    2.667 
#    0.000    3.333    0.000    0.667    0.000    0.000 
#    0.000    0.000    0.000    0.000    0.000    0.000 
#
# Total GULP energy -200481.800133 kJ/mol
# GULP energy per Si atom -5568.938893 kJ/mol
# Density = 1.468261 g / cm^3
# Si number density = 14.716105 Si / 1000 Ang^3
#
#
#
# Elastic Constant Matrix: (Units=GPa)
#
#
# Indices 1 2 3 4 5 6 
#
# 1 39.8266 9.7838 -1.4988 0.0000 -2.4016 0.0000
# 2 9.7838 39.8266 -1.4988 0.0000 2.4016 0.0000
# 3 -1.4988 -1.4988 44.7451 0.0000 0.0000 0.0000
# 4 0.0000 0.0000 0.0000 14.6732 0.0000 2.4016
# 5 -2.4016 2.4016 0.0000 0.0000 14.6732 0.0000
# 6 0.0000 0.0000 0.0000 2.4016 0.0000 15.0214
#
#
#
# Elastic Compliance Matrix: (Units=1/GPa)
#
#
# Indices 1 2 3 4 5 6 
#
# 1 0.027189 -0.006991 0.000677 0.000000 0.005594 0.000000
# 2 -0.006991 0.027189 0.000677 0.000000 -0.005594 0.000000
# 3 0.000677 0.000677 0.022394 0.000000 0.000000 0.000000
# 4 0.000000 0.000000 0.000000 0.069983 0.000000 -0.011189
# 5 0.005594 -0.005594 0.000000 0.000000 0.069983 0.000000
# 6 0.000000 0.000000 0.000000 -0.011189 0.000000 0.068361
#
#
# Mechanical properties :
#
#
# Convention : Reuss Voigt Hill
#
# Bulk Modulus (GPa) = 15.26807 15.33010 15.29908
# Shear Modulus (GPa) = 15.71303 16.71435 16.21369
#
# Velocity S-wave (km/s) = 3.27118 3.37380 3.32289
# Velocity P-wave (km/s) = 4.96640 5.06128 5.01406
#
# Compressibility (1/GPa) = 0.06549618
#
# Stress axis : x y z
#
# Youngs Moduli (GPa) = 36.77942 36.77942 44.65453
#
# Poissons Ratio (x) = 0.25713 -0.03021
# Poissons Ratio (y) = 0.25713 -0.03021
# Poissons Ratio (z) = -0.02488 -0.02488
#
# Static dielectric constant tensor:
#      x y z
#    x 1.530540 0.000000 0.000000 
#    y 0.000000 1.530540 0.000000 
#    z 0.000000 0.000000 1.499520 
# 
# From -- ./inp_files/221.got.cif
#   From: 2010.05.17/outbox.cif.g08.bks.cpg/sg147_cif.got.tgz:221.got - 2010.05.20 13:49:32.
