data_PCOD9574048
_publ_section_title
;
Structure prediction by ZEFSAII (Michael W. Deem and Ramdas Pophale) SiO2 
 PCOD9574048
Probable space group: I 41/A C D
;
_chemical_formula_sum "Si O2"
_cell_formula_units_Z 96
_cell_length_a 21.540124
_cell_length_b 21.540124
_cell_length_c 7.682624
_cell_angle_alpha 90.000000
_cell_angle_beta 90.000000
_cell_angle_gamma 90.000000
_cell_volume 3564.560390
_symmetry_space_group_name_H-M "I 41/A C D"
_symmetry_group_IT_number 142
_space_group.IT_coordinate_system_code '2'
_symmetry_cell_setting 'tetragonal'
loop_
_space_group_symop_operation_xyz
x,y,z
1/4-y,3/4+x,1/4+z
-x,1/2-y,z
1/4+y,1/4-x,3/4+z
x,-y,1/2-z
1/2-x,y,-z
3/4+y,1/4+x,1/4-z
1/4-y,1/4-x,1/4-z
-x,-y,-z
3/4+y,1/4-x,3/4-z
x,1/2+y,-z
3/4-y,3/4+x,1/4-z
-x,y,1/2+z
1/2+x,-y,z
1/4-y,3/4-x,3/4+z
3/4+y,3/4+x,3/4+z
1/2+x,1/2+y,1/2+z
3/4-y,1/4+x,3/4+z
1/2-x,-y,1/2+z
3/4+y,3/4-x,1/4+z
1/2+x,1/2-y,-z
-x,1/2+y,1/2-z
1/4+y,3/4+x,3/4-z
3/4-y,3/4-x,3/4-z
1/2-x,1/2-y,1/2-z
1/4+y,3/4-x,1/4-z
1/2+x,y,1/2-z
1/4-y,1/4+x,3/4-z
1/2-x,1/2+y,z
x,1/2-y,1/2+z
3/4-y,1/4-x,1/4+z
1/4+y,1/4+x,1/4+z
loop_
_atom_site_type_symbol
_atom_site_label
_atom_site_fract_x
_atom_site_fract_y
_atom_site_fract_z
Si Si1 0.525132 0.844663 0.416496
Si Si2 0.685971 0.696373 0.593395
Si Si3 0.270713 0.085434 0.672624
O O1 0.565468 0.782439 0.446889
O O2 0.495108 0.895242 0.545501
O O3 0.570432 0.887900 0.307293
O O4 0.750000 0.717840 0.500000
O O5 0.699758 0.637168 0.708324
O O6 0.219017 0.057641 0.811434
O O7 0.250000 0.122683 0.500000
#
# Coordination Sequence:
#
# PCOD9574048 Si02
#       3
#    32  32  32
#     4  11  27  54  83 117 166 223 285 351 418 486
#     4  12  28  49  84 124 164 217 282 352 419 498
#     4  10  26  52  81 120 170 217 267 330 426 513
#
# _framework density 26.931794
#
# number of rings (size 3 to 8) (size 9 to 14) (size 15 to 20)
#    0.000    1.000    0.000    3.000    9.333   13.333 
#    6.000    0.000    0.000    0.000    0.000    0.000 
#    0.000    0.000    0.000    0.000    0.000    0.000 
#
# Total GULP energy -267335.557759 kJ/mol
# GULP energy per Si atom -5569.490787 kJ/mol
# Density = 2.687050 g / cm^3
# Si number density = 26.931794 Si / 1000 Ang^3
#
#
#
# Elastic Constant Matrix: (Units=GPa)
#
#
# Indices 1 2 3 4 5 6 
#
# 1 174.2594 95.2267 104.8967 0.0000 0.0000 0.0000
# 2 95.2267 174.2594 104.8967 0.0000 0.0000 0.0000
# 3 104.8967 104.8967 145.6441 0.0000 0.0000 0.0000
# 4 0.0000 0.0000 0.0000 -50.2074 0.0000 0.0000
# 5 0.0000 0.0000 0.0000 0.0000 -50.2074 0.0000
# 6 0.0000 0.0000 0.0000 0.0000 0.0000 23.0319
#
#
#
# Elastic Compliance Matrix: (Units=1/GPa)
#
#
# Indices 1 2 3 4 5 6 
#
# 1 0.010550 -0.002103 -0.006084 0.000000 0.000000 0.000000
# 2 -0.002103 0.010550 -0.006084 0.000000 0.000000 0.000000
# 3 -0.006084 -0.006084 0.015629 0.000000 0.000000 0.000000
# 4 0.000000 0.000000 0.000000 -0.019917 0.000000 0.000000
# 5 0.000000 0.000000 0.000000 0.000000 -0.019917 0.000000
# 6 0.000000 0.000000 0.000000 0.000000 0.000000 0.043418
#
#
# Mechanical properties :
#
#
# Convention : Reuss Voigt Hill
#
# Bulk Modulus (GPa) = 122.12432 122.68924 122.40678
# Shear Modulus (GPa) = 69.84939 -2.86707 33.49116
#
# Velocity S-wave (km/s) = 5.09823 -1.03290 3.53023
# Velocity P-wave (km/s) = 8.94987 6.65071 7.88455
#
# Compressibility (1/GPa) = 0.00818838
#
# Stress axis : x y z
#
# Youngs Moduli (GPa) = 94.78744 94.78744 63.98258
#
# Poissons Ratio (x) = 0.19934 0.38925
# Poissons Ratio (y) = 0.19934 0.38925
# Poissons Ratio (z) = 0.57665 0.57665
#
# Static dielectric constant tensor:
#      x y z
#    x 2.180410 0.000000 0.000000 
#    y 0.000000 2.180410 0.000000 
#    z 0.000000 0.000000 2.289500 
# 
# From -- ./inp_files/1620.got.cif
#   From: 2010.05.17/outbox.cif.g08.bks.cpg/sg142_1_cif.got.tgz:1620.got - 2010.05.20 13:39:18.
