data_PCOD9574423
_publ_section_title
;
Structure prediction by ZEFSAII (Michael W. Deem and Ramdas Pophale) SiO2 
 PCOD9574423
Probable space group: P 31
;
_chemical_formula_sum "Si O2"
_cell_formula_units_Z 21
_cell_length_a 11.712735
_cell_length_b 11.712735
_cell_length_c 7.911225
_cell_angle_alpha 90.000000
_cell_angle_beta 90.000000
_cell_angle_gamma 120.000000
_cell_volume 939.920243
_symmetry_space_group_name_H-M "P 31"
_symmetry_group_IT_number 144
_symmetry_cell_setting 'hexagonal'
loop_
_space_group_symop_operation_xyz
x,y,z
-y,x-y,1/3+z
-x+y,-x,2/3+z
loop_
_atom_site_type_symbol
_atom_site_label
_atom_site_fract_x
_atom_site_fract_y
_atom_site_fract_z
Si Si1 0.942376 0.321784 0.364050
Si Si2 0.204393 0.407608 0.796525
Si Si3 0.055529 0.531487 0.660298
Si Si4 0.754201 0.407661 0.769933
Si Si5 0.793864 0.000064 0.905414
Si Si6 0.227476 0.993389 0.723400
Si Si7 0.938255 0.836302 0.881774
O O1 0.797495 0.299888 0.355360
O O2 0.917074 0.180590 0.430987
O O3 0.023884 0.435011 0.498736
O O4 0.013405 0.342163 0.185510
O O5 0.167859 0.519652 0.762466
O O6 0.320529 0.439723 0.926970
O O7 0.234900 0.348135 0.630280
O O8 0.069440 0.292237 0.876709
O O9 0.912900 0.475339 0.749247
O O10 0.683808 0.284811 0.636118
O O11 0.811879 0.047325 0.713285
O O12 0.893497 0.942454 0.925191
O O13 0.854220 0.124811 0.029125
O O14 0.080887 0.910678 0.797545
#
# Coordination Sequence:
#
# PCOD9574423 Si02
#       7
#     3   3   3   3   3   3   3
#     4  11  23  43  64 100 138 178 236 292 347 437
#     4  12  26  44  68  98 140 189 230 295 345 434
#     4  11  25  49  66  97 141 183 247 284 352 431
#     4  10  24  46  75 104 141 189 241 300 355 436
#     4  12  20  36  61 100 134 175 213 284 366 413
#     4  12  21  35  67 100 135 170 226 288 368 415
#     4  12  19  35  61  97 143 168 215 287 353 426
#
# _framework density 22.342320999999998
#
# number of rings (size 3 to 8) (size 9 to 14) (size 15 to 20)
#    0.000    0.571    5.714    2.571    2.000    1.143 
#   10.286    2.857    0.000    0.000    0.000    0.000 
#    0.000    0.000    0.000    0.000    0.000    0.000 
#
# Total GULP energy -117316.491255 kJ/mol
# GULP energy per Si atom -5586.499584 kJ/mol
# Density = 2.229147 g / cm^3
# Si number density = 22.342321 Si / 1000 Ang^3
#
#
#
# Elastic Constant Matrix: (Units=GPa)
#
#
# Indices 1 2 3 4 5 6 
#
# 1 47.0748 -0.5052 -8.3935 0.7583 -0.6613 0.0000
# 2 -0.5052 47.0748 -8.3935 -0.7583 0.6613 0.0000
# 3 -8.3935 -8.3935 47.6333 0.0000 0.0000 0.0000
# 4 0.7583 -0.7583 0.0000 23.6996 0.0000 0.6613
# 5 -0.6613 0.6613 0.0000 0.0000 23.6996 0.7583
# 6 0.0000 0.0000 0.0000 0.6613 0.7583 23.7900
#
#
#
# Elastic Compliance Matrix: (Units=1/GPa)
#
#
# Indices 1 2 3 4 5 6 
#
# 1 0.021992 0.000937 0.004040 -0.000674 0.000588 0.000000
# 2 0.000937 0.021992 0.004040 0.000674 -0.000588 0.000000
# 3 0.004040 0.004040 0.022418 0.000000 0.000000 0.000000
# 4 -0.000674 0.000674 0.000000 0.042271 0.000000 -0.001175
# 5 0.000588 -0.000588 0.000000 0.000000 0.042271 -0.001347
# 6 0.000000 0.000000 0.000000 -0.001175 -0.001347 0.042110
#
#
# Mechanical properties :
#
#
# Convention : Reuss Voigt Hill
#
# Bulk Modulus (GPa) = 11.84289 11.91096 11.87692
# Shear Modulus (GPa) = 24.61068 24.84283 24.72675
#
# Velocity S-wave (km/s) = 3.32253 3.33816 3.33035
# Velocity P-wave (km/s) = 4.47561 4.49449 4.48506
#
# Compressibility (1/GPa) = 0.08443883
#
# Stress axis : x y z
#
# Youngs Moduli (GPa) = 45.47030 45.47030 44.60773
#
# Poissons Ratio (x) = -0.04262 -0.18023
# Poissons Ratio (y) = -0.04262 -0.18023
# Poissons Ratio (z) = -0.18372 -0.18372
#
# Static dielectric constant tensor:
#      x y z
#    x 1.823620 0.000000 0.000000 
#    y 0.000000 1.823620 0.000000 
#    z 0.000000 0.000000 1.839190 
# 
# From -- ./inp_files/340.got.cif
#   From: 2010.05.17/outbox.cif.g08.bks.cpg/sg144_cif.got.tgz:340.got - 2010.05.20 13:46:34.
