data_PCOD9574907
_publ_section_title
;
Structure prediction by ZEFSAII (Michael W. Deem and Ramdas Pophale) SiO2 
 PCOD9574907
Probable space group: P -3
;
_chemical_formula_sum "Si O2"
_cell_formula_units_Z 40
_cell_length_a 11.119381
_cell_length_b 11.119381
_cell_length_c 19.568374
_cell_angle_alpha 90.000000
_cell_angle_beta 90.000000
_cell_angle_gamma 120.000000
_cell_volume 2095.301841
_symmetry_space_group_name_H-M "P -3"
_symmetry_group_IT_number 147
_symmetry_cell_setting 'hexagonal'
loop_
_space_group_symop_operation_xyz
x,y,z
-y,x-y,z
-x+y,-x,z
-x,-y,-z
y,-x+y,-z
x-y,x,-z
loop_
_atom_site_type_symbol
_atom_site_label
_atom_site_fract_x
_atom_site_fract_y
_atom_site_fract_z
Si Si1 0.999988 0.716075 1.000000
Si Si2 0.505494 0.011000 0.904523
Si Si3 0.999998 0.285787 0.500000
Si Si4 0.666666 0.333333 0.904087
Si Si5 0.002542 0.283861 0.649508
Si Si6 0.494538 0.989076 0.258710
Si Si7 0.997455 0.281317 0.350491
Si Si8 0.666668 0.333335 0.740186
O O1 0.040358 0.643866 0.938736
O O2 0.959610 0.603492 0.061262
O O3 0.865537 0.731091 0.983564
O O4 0.587151 0.174347 0.924730
O O5 0.498207 0.996420 0.822955
O O6 0.135504 0.271010 0.496219
O O7 0.003550 0.348046 0.574497
O O8 0.996447 0.344495 0.425503
O O9 0.666668 0.333334 0.822187
O O10 0.119712 0.239425 0.647454
O O11 0.042958 0.400220 0.706798
O O12 0.851951 0.148048 0.661704
O O13 0.400221 0.042961 0.293201
O O14 0.413048 0.826100 0.280037
#
# Coordination Sequence:
#
# PCOD9574907 Si02
#       8
#     6   6   6   2   6   6   6   2
#     4  11  23  40  64  92 121 147 182 230 286 337
#     4  10  22  39  61  86 115 150 191 231 274 335
#     4   8  15  29  50  78 108 146 191 241 288 338
#     4   9  15  36  63  78 108 150 187 230 262 318
#     4  10  20  35  57  82 113 150 196 243 291 341
#     4  11  21  37  59  83 113 149 191 237 281 336
#     4  10  20  35  57  82 113 150 196 243 291 341
#     4   9  18  33  57  81 102 141 193 239 271 318
#
# _framework density 19.090328
#
# number of rings (size 3 to 8) (size 9 to 14) (size 15 to 20)
#    0.000    2.100    3.000    0.600    0.000    4.200 
#    1.800    0.000    0.000    3.600    0.000    0.000 
#    0.000    0.000    0.000    0.000    0.000    0.000 
#
# Total GULP energy -222738.120700 kJ/mol
# GULP energy per Si atom -5568.453018 kJ/mol
# Density = 1.904688 g / cm^3
# Si number density = 19.090328 Si / 1000 Ang^3
#
#
#
# Elastic Constant Matrix: (Units=GPa)
#
#
# Indices 1 2 3 4 5 6 
#
# 1 97.4670 -10.2541 29.8874 7.7121 0.0041 0.0005
# 2 -10.2541 97.4664 29.8878 -7.7121 -0.0041 -0.0004
# 3 29.8874 29.8878 140.8588 -0.0001 -0.0001 -0.0003
# 4 7.7121 -7.7121 -0.0001 19.6106 0.0001 -0.0038
# 5 0.0041 -0.0041 -0.0001 0.0001 19.6107 7.7123
# 6 0.0005 -0.0004 -0.0003 -0.0038 7.7123 53.8607
#
#
#
# Elastic Compliance Matrix: (Units=1/GPa)
#
#
# Indices 1 2 3 4 5 6 
#
# 1 0.011627 0.001790 -0.002847 -0.003869 -0.000002 0.000000
# 2 0.001790 0.011627 -0.002847 0.003869 0.000002 0.000000
# 3 -0.002847 -0.002847 0.008307 0.000000 0.000000 0.000000
# 4 -0.003869 0.003869 0.000000 0.054035 0.000000 0.000004
# 5 -0.000002 0.000002 0.000000 0.000000 0.054036 -0.007737
# 6 0.000000 0.000000 0.000000 0.000004 -0.007737 0.019674
#
#
# Mechanical properties :
#
#
# Convention : Reuss Voigt Hill
#
# Bulk Modulus (GPa) = 42.09693 48.31493 45.20593
# Shear Modulus (GPa) = 28.56601 37.70114 33.13358
#
# Velocity S-wave (km/s) = 3.87248 4.44879 4.17060
# Velocity P-wave (km/s) = 6.48800 7.19392 6.85006
#
# Compressibility (1/GPa) = 0.02375470
#
# Stress axis : x y z
#
# Youngs Moduli (GPa) = 86.00440 86.00371 120.37390
#
# Poissons Ratio (x) = -0.15396 0.34270
# Poissons Ratio (y) = -0.15396 0.34270
# Poissons Ratio (z) = 0.24485 0.24485
#
# Static dielectric constant tensor:
#      x y z
#    x 1.658760 0.000000 0.000000 
#    y 0.000000 1.658760 0.000000 
#    z 0.000000 0.000000 1.696440 
# 
# From -- ./inp_files/1055.got.cif
#   From: 2010.05.17/outbox.cif.g08.bks.cpg/sg147_cif.got.tgz:1055.got - 2010.05.20 13:49:32.
