data_PCOD9574774
_publ_section_title
;
Structure prediction by ZEFSAII (Michael W. Deem and Ramdas Pophale) SiO2 
 PCOD9574774
Probable space group: R 3
;
_chemical_formula_sum "Si O2"
_cell_formula_units_Z 51
_cell_length_a 18.786078
_cell_length_b 18.786078
_cell_length_c 7.523527
_cell_angle_alpha 90.000000
_cell_angle_beta 90.000000
_cell_angle_gamma 120.000000
_cell_volume 2299.452051
_symmetry_space_group_name_H-M "R 3"
_symmetry_group_IT_number 146
_symmetry_cell_setting 'hexagonal'
loop_
_space_group_symop_operation_xyz
x,y,z
-y,x-y,z
-x+y,-x,z
2/3+x,1/3+y,1/3+z
2/3-y,1/3+x-y,1/3+z
2/3-x+y,1/3-x,1/3+z
1/3+x,2/3+y,2/3+z
1/3-y,2/3+x-y,2/3+z
1/3-x+y,2/3-x,2/3+z
loop_
_atom_site_type_symbol
_atom_site_label
_atom_site_fract_x
_atom_site_fract_y
_atom_site_fract_z
Si Si1 0.666668 0.333334 0.387897
Si Si2 0.843198 0.668221 0.296693
Si Si3 0.838195 0.469095 0.845669
Si Si4 0.383220 0.048515 0.651742
Si Si5 0.601911 0.959363 0.367905
Si Si6 0.000000 0.000000 0.630397
Si Si7 0.482366 0.238163 0.538571
O O1 0.666668 0.333334 0.175596
O O2 0.573496 0.273482 0.457412
O O3 0.889838 0.747630 0.423696
O O4 0.760286 0.666110 0.246143
O O5 0.894033 0.673648 0.123935
O O6 0.820632 0.584522 0.400333
O O7 0.803489 0.506969 0.701795
O O8 0.870582 0.529764 0.014052
O O9 0.760784 0.381006 0.894263
O O10 0.302211 0.010544 0.528616
O O11 0.439537 0.144136 0.604947
O O12 0.673404 0.974758 0.505448
#
# Coordination Sequence:
#
# PCOD9574774 Si02
#       7
#     3   9   9   9   9   3   9
#     4  12  25  50  73 108 148 188 253 307 380 442
#     4  11  23  43  70 103 142 192 238 309 372 434
#     4  12  24  45  71 103 146 184 251 304 372 446
#     4  10  24  44  67 101 139 190 242 295 367 438
#     4  12  24  44  68 107 142 185 244 306 374 437
#     4  12  28  44  70 114 139 206 244 310 377 445
#     4  11  24  46  73 102 140 195 240 307 372 436
#
# _framework density 22.179196999999998
#
# number of rings (size 3 to 8) (size 9 to 14) (size 15 to 20)
#    0.000    0.706    1.765    6.353    2.471    1.412 
#   12.706    0.000    0.000    0.000    0.000    0.000 
#    0.000    0.000    0.000    0.000    0.000    0.000 
#
# Total GULP energy -95054.450276 kJ/mol
# GULP energy per Si atom -5591.438252 kJ/mol
# Density = 2.212872 g / cm^3
# Si number density = 22.179197 Si / 1000 Ang^3
#
#
#
# Elastic Constant Matrix: (Units=GPa)
#
#
# Indices 1 2 3 4 5 6 
#
# 1 103.3680 23.4120 36.5030 0.0403 -2.8317 -0.0008
# 2 23.4120 103.3644 36.4936 -0.0407 2.8350 -0.0009
# 3 36.5030 36.4936 94.7281 0.0036 0.0148 -0.0021
# 4 0.0403 -0.0407 0.0036 27.0518 0.0066 2.8418
# 5 -2.8317 2.8350 0.0148 0.0066 27.0767 0.0386
# 6 -0.0008 -0.0009 -0.0021 2.8418 0.0386 39.9731
#
#
#
# Elastic Compliance Matrix: (Units=1/GPa)
#
#
# Indices 1 2 3 4 5 6 
#
# 1 0.011369 -0.001232 -0.003907 -0.000019 0.001320 0.000000
# 2 -0.001232 0.011368 -0.003905 0.000020 -0.001317 0.000000
# 3 -0.003907 -0.003905 0.013566 -0.000002 -0.000007 0.000001
# 4 -0.000019 0.000020 -0.000002 0.037244 -0.000009 -0.002648
# 5 0.001320 -0.001317 -0.000007 -0.000009 0.037208 -0.000035
# 6 0.000000 0.000000 0.000001 -0.002648 -0.000035 0.025205
#
#
# Mechanical properties :
#
#
# Convention : Reuss Voigt Hill
#
# Bulk Modulus (GPa) = 54.89391 54.91974 54.90682
# Shear Modulus (GPa) = 31.22668 32.49045 31.85856
#
# Velocity S-wave (km/s) = 3.75631 3.83156 3.79412
# Velocity P-wave (km/s) = 6.60432 6.66259 6.63352
#
# Compressibility (1/GPa) = 0.01821696
#
# Stress axis : x y z
#
# Youngs Moduli (GPa) = 87.95901 87.96432 73.71302
#
# Poissons Ratio (x) = 0.10838 0.28796
# Poissons Ratio (y) = 0.10837 0.28782
# Poissons Ratio (z) = 0.34361 0.34347
#
# Static dielectric constant tensor:
#      x y z
#    x 1.844550 0.000000 0.000000 
#    y 0.000000 1.844550 0.000000 
#    z 0.000000 0.000000 1.825320 
# 
# From -- ./inp_files/680.got.cif
#   From: 2010.05.17/outbox.cif.g08.bks.cpg/sg146_cif.got.tgz:680.got - 2010.05.20 13:48:23.
