data_PCOD9574533
_publ_section_title
;
Structure prediction by ZEFSAII (Michael W. Deem and Ramdas Pophale) SiO2 
 PCOD9574533
Probable space group: P 32
;
_chemical_formula_sum "Si O2"
_cell_formula_units_Z 24
_cell_length_a 14.081533
_cell_length_b 14.081533
_cell_length_c 6.874062
_cell_angle_alpha 90.000000
_cell_angle_beta 90.000000
_cell_angle_gamma 120.000000
_cell_volume 1180.440092
_symmetry_space_group_name_H-M "P 32"
_symmetry_group_IT_number 145
_symmetry_cell_setting 'hexagonal'
loop_
_space_group_symop_operation_xyz
x,y,z
-y,x-y,2/3+z
-x+y,-x,1/3+z
loop_
_atom_site_type_symbol
_atom_site_label
_atom_site_fract_x
_atom_site_fract_y
_atom_site_fract_z
Si Si1 0.922493 0.411655 0.370110
Si Si2 0.571226 0.952285 0.974396
Si Si3 0.936357 0.921034 0.886758
Si Si4 0.536475 0.577285 0.639903
Si Si5 0.226378 0.173425 0.250241
Si Si6 0.437674 0.708131 0.860472
Si Si7 0.706303 0.288516 0.849080
Si Si8 0.914001 0.272151 0.708156
O O1 0.809097 0.408341 0.413256
O O2 0.923831 0.312216 0.486093
O O3 0.009194 0.524509 0.477437
O O4 0.952517 0.418618 0.146196
O O5 0.530338 0.825250 0.939480
O O6 0.702170 0.021019 0.954462
O O7 0.522281 0.967212 0.177147
O O8 0.912242 0.809189 0.785495
O O9 0.048087 0.011483 0.777283
O O10 0.109810 0.159229 0.183148
O O11 0.486857 0.644317 0.743416
O O12 0.635156 0.652579 0.493314
O O13 0.265494 0.114582 0.095712
O O14 0.361786 0.727241 0.708898
O O15 0.721399 0.396810 0.740942
O O16 0.811347 0.280024 0.795877
#
# Coordination Sequence:
#
# PCOD9574533 Si02
#       8
#     3   3   3   3   3   3   3   3
#     4  10  21  41  58  93 129 165 217 264 322 395
#     4  11  23  42  65  94 132 167 217 272 325 397
#     4   8  20  42  63  86 130 166 217 273 318 388
#     4  11  24  41  64  97 127 166 219 271 328 392
#     4  10  21  45  64  95 132 172 218 274 325 395
#     4  12  24  43  67  94 129 171 216 274 333 389
#     4  10  19  35  60  83 126 170 205 259 321 375
#     4  10  22  39  61  92 129 167 217 269 318 395
#
# _framework density 20.331402000000001
#
# number of rings (size 3 to 8) (size 9 to 14) (size 15 to 20)
#    0.750    1.000    3.750    0.750    1.750    0.000 
#   11.250    0.000    0.000    0.000    0.000    0.000 
#    0.000    0.000    0.000    0.000    0.000    0.000 
#
# Total GULP energy -133804.874253 kJ/mol
# GULP energy per Si atom -5575.203094 kJ/mol
# Density = 2.028513 g / cm^3
# Si number density = 20.331402 Si / 1000 Ang^3
#
#
#
# Elastic Constant Matrix: (Units=GPa)
#
#
# Indices 1 2 3 4 5 6 
#
# 1 64.9018 23.7275 20.1724 2.2603 2.0519 0.0000
# 2 23.7275 64.9018 20.1724 -2.2603 -2.0519 0.0000
# 3 20.1724 20.1724 82.7992 0.0000 0.0000 0.0000
# 4 2.2603 -2.2603 0.0000 19.6926 0.0000 -2.0519
# 5 2.0519 -2.0519 0.0000 0.0000 19.6926 2.2603
# 6 0.0000 0.0000 0.0000 -2.0519 2.2603 20.5872
#
#
#
# Elastic Compliance Matrix: (Units=1/GPa)
#
#
# Indices 1 2 3 4 5 6 
#
# 1 0.018774 -0.006084 -0.003092 -0.002853 -0.002590 0.000000
# 2 -0.006084 0.018774 -0.003092 0.002853 0.002590 0.000000
# 3 -0.003092 -0.003092 0.013584 0.000000 0.000000 0.000000
# 4 -0.002853 0.002853 0.000000 0.051975 0.000000 0.005180
# 5 -0.002590 0.002590 0.000000 0.000000 0.051975 -0.005706
# 6 0.000000 0.000000 0.000000 0.005180 -0.005706 0.049717
#
#
# Mechanical properties :
#
#
# Convention : Reuss Voigt Hill
#
# Bulk Modulus (GPa) = 37.59743 37.86084 37.72914
# Shear Modulus (GPa) = 20.99071 21.89652 21.44361
#
# Velocity S-wave (km/s) = 3.21663 3.28530 3.25114
# Velocity P-wave (km/s) = 5.68577 5.74919 5.71757
#
# Compressibility (1/GPa) = 0.02659756
#
# Stress axis : x y z
#
# Youngs Moduli (GPa) = 53.26411 53.26411 73.61648
#
# Poissons Ratio (x) = 0.32406 0.22760
# Poissons Ratio (y) = 0.32406 0.22760
# Poissons Ratio (z) = 0.16468 0.16468
#
# Static dielectric constant tensor:
#      x y z
#    x 1.733850 0.000000 0.000000 
#    y 0.000000 1.733850 0.000000 
#    z 0.000000 0.000000 1.714510 
# 
# From -- ./inp_files/162.got.cif
#   From: 2010.05.17/outbox.cif.g08.bks.cpg/sg145_cif.got.tgz:162.got - 2010.05.20 13:47:28.
