data_PCOD9574036
_publ_section_title
;
Structure prediction by ZEFSAII (Michael W. Deem and Ramdas Pophale) SiO2 
 PCOD9574036
Probable space group: I 41/A C D
;
_chemical_formula_sum "Si O2"
_cell_formula_units_Z 144
_cell_length_a 20.545073
_cell_length_b 20.545073
_cell_length_c 17.409458
_cell_angle_alpha 90.000000
_cell_angle_beta 90.000000
_cell_angle_gamma 90.000000
_cell_volume 7348.532650
_symmetry_space_group_name_H-M "I 41/A C D"
_symmetry_group_IT_number 142
_space_group.IT_coordinate_system_code '2'
_symmetry_cell_setting 'tetragonal'
loop_
_space_group_symop_operation_xyz
x,y,z
1/4-y,3/4+x,1/4+z
-x,1/2-y,z
1/4+y,1/4-x,3/4+z
x,-y,1/2-z
1/2-x,y,-z
3/4+y,1/4+x,1/4-z
1/4-y,1/4-x,1/4-z
-x,-y,-z
3/4+y,1/4-x,3/4-z
x,1/2+y,-z
3/4-y,3/4+x,1/4-z
-x,y,1/2+z
1/2+x,-y,z
1/4-y,3/4-x,3/4+z
3/4+y,3/4+x,3/4+z
1/2+x,1/2+y,1/2+z
3/4-y,1/4+x,3/4+z
1/2-x,-y,1/2+z
3/4+y,3/4-x,1/4+z
1/2+x,1/2-y,-z
-x,1/2+y,1/2-z
1/4+y,3/4+x,3/4-z
3/4-y,3/4-x,3/4-z
1/2-x,1/2-y,1/2-z
1/4+y,3/4-x,1/4-z
1/2+x,y,1/2-z
1/4-y,1/4+x,3/4-z
1/2-x,1/2+y,z
x,1/2-y,1/2+z
3/4-y,1/4-x,1/4+z
1/4+y,1/4+x,1/4+z
loop_
_atom_site_type_symbol
_atom_site_label
_atom_site_fract_x
_atom_site_fract_y
_atom_site_fract_z
Si Si1 0.416724 0.833277 0.625000
Si Si2 0.498192 0.326656 0.225487
Si Si3 0.691750 0.018419 0.059862
Si Si4 0.879841 0.356625 0.378390
Si Si5 0.202463 0.687880 0.756724
O O1 0.473159 0.831732 0.688313
O O2 0.430125 0.899907 0.576636
O O3 0.500000 0.250000 0.206909
O O4 0.568799 0.354227 0.206462
O O5 0.446509 0.363387 0.170225
O O6 0.661247 0.079794 0.103893
O O7 0.719265 0.969265 0.125000
O O8 0.630211 0.990459 0.013502
O O9 0.750000 0.033067 0.000000
O O10 0.838158 0.312086 0.321398
O O11 0.250000 0.750000 0.750000
#
# Coordination Sequence:
#
# PCOD9574036 Si02
#       5
#    16  32  32  32  32
#     4  10  25  40  66 106 138 174 232 300 353 426
#     4  11  21  43  67 103 136 175 225 289 364 415
#     4  12  25  46  66  96 141 186 234 287 353 419
#     4  11  22  41  70  96 132 182 228 288 348 427
#     4  11  24  43  69 100 135 183 240 288 358 432
#
# _framework density 19.595749000000001
#
# number of rings (size 3 to 8) (size 9 to 14) (size 15 to 20)
#    0.000    0.889    5.556    1.667    3.111    1.778 
#    0.000    2.222    0.000    0.000    0.000    0.000 
#    0.000    0.000    0.000    0.000    0.000    0.000 
#
# Total GULP energy -401545.605276 kJ/mol
# GULP energy per Si atom -5577.022296 kJ/mol
# Density = 1.955115 g / cm^3
# Si number density = 19.595749 Si / 1000 Ang^3
#
#
#
# Elastic Constant Matrix: (Units=GPa)
#
#
# Indices 1 2 3 4 5 6 
#
# 1 98.5755 57.6560 41.3460 0.0000 0.0000 0.0000
# 2 57.6560 98.5747 41.3461 0.0000 0.0000 0.0000
# 3 41.3460 41.3461 108.9775 0.0000 0.0000 0.0000
# 4 0.0000 0.0000 0.0000 24.1368 0.0000 0.0000
# 5 0.0000 0.0000 0.0000 0.0000 24.1367 0.0000
# 6 0.0000 0.0000 0.0000 0.0000 0.0000 44.6608
#
#
#
# Elastic Compliance Matrix: (Units=1/GPa)
#
#
# Indices 1 2 3 4 5 6 
#
# 1 0.016224 -0.008215 -0.003039 0.000000 0.000000 0.000000
# 2 -0.008215 0.016224 -0.003039 0.000000 0.000000 0.000000
# 3 -0.003039 -0.003039 0.011482 0.000000 0.000000 0.000000
# 4 0.000000 0.000000 0.000000 0.041430 0.000000 0.000000
# 5 0.000000 0.000000 0.000000 0.000000 0.041431 0.000000
# 6 0.000000 0.000000 0.000000 0.000000 0.000000 0.022391
#
#
# Mechanical properties :
#
#
# Convention : Reuss Voigt Hill
#
# Bulk Modulus (GPa) = 65.16550 65.20264 65.18407
# Shear Modulus (GPa) = 27.34021 29.63885 28.48953
#
# Velocity S-wave (km/s) = 3.73931 3.89332 3.81709
# Velocity P-wave (km/s) = 7.20904 7.31825 7.26385
#
# Compressibility (1/GPa) = 0.01534554
#
# Stress axis : x y z
#
# Youngs Moduli (GPa) = 61.63824 61.63760 87.09337
#
# Poissons Ratio (x) = 0.50633 0.26464
# Poissons Ratio (y) = 0.50634 0.26465
# Poissons Ratio (z) = 0.18729 0.18730
#
# Static dielectric constant tensor:
#      x y z
#    x 1.719930 0.000000 0.000000 
#    y 0.000000 1.719890 0.000000 
#    z 0.000000 0.000000 1.714780 
# 
# From -- ./inp_files/7271.got.cif
#   From: 2010.05.17/outbox.cif.g08.bks.cpg/sg142_4_cif.got.tgz:7271.got - 2010.05.20 13:39:18.
