data_PCOD9574134
_publ_section_title
;
Structure prediction by ZEFSAII (Michael W. Deem and Ramdas Pophale) SiO2 
 PCOD9574134
Probable space group: I 41/A C D
;
_chemical_formula_sum "Si O2"
_cell_formula_units_Z 176
_cell_length_a 17.133035
_cell_length_b 17.133035
_cell_length_c 29.271109
_cell_angle_alpha 90.000000
_cell_angle_beta 90.000000
_cell_angle_gamma 90.000000
_cell_volume 8592.267338
_symmetry_space_group_name_H-M "I 41/A C D"
_symmetry_group_IT_number 142
_space_group.IT_coordinate_system_code '2'
_symmetry_cell_setting 'tetragonal'
loop_
_space_group_symop_operation_xyz
x,y,z
1/4-y,3/4+x,1/4+z
-x,1/2-y,z
1/4+y,1/4-x,3/4+z
x,-y,1/2-z
1/2-x,y,-z
3/4+y,1/4+x,1/4-z
1/4-y,1/4-x,1/4-z
-x,-y,-z
3/4+y,1/4-x,3/4-z
x,1/2+y,-z
3/4-y,3/4+x,1/4-z
-x,y,1/2+z
1/2+x,-y,z
1/4-y,3/4-x,3/4+z
3/4+y,3/4+x,3/4+z
1/2+x,1/2+y,1/2+z
3/4-y,1/4+x,3/4+z
1/2-x,-y,1/2+z
3/4+y,3/4-x,1/4+z
1/2+x,1/2-y,-z
-x,1/2+y,1/2-z
1/4+y,3/4+x,3/4-z
3/4-y,3/4-x,3/4-z
1/2-x,1/2-y,1/2-z
1/4+y,3/4-x,1/4-z
1/2+x,y,1/2-z
1/4-y,1/4+x,3/4-z
1/2-x,1/2+y,z
x,1/2-y,1/2+z
3/4-y,1/4-x,1/4+z
1/4+y,1/4+x,1/4+z
loop_
_atom_site_type_symbol
_atom_site_label
_atom_site_fract_x
_atom_site_fract_y
_atom_site_fract_z
Si Si1 0.454014 0.327156 0.194392
Si Si2 0.773367 0.284531 0.299078
Si Si3 0.557830 0.009521 0.141721
Si Si4 0.173188 0.257121 0.026879
Si Si5 0.261934 0.988067 0.625000
Si Si6 0.801998 0.938489 0.458799
O O1 0.500000 0.250000 0.179144
O O2 0.364432 0.303168 0.197195
O O3 0.464353 0.404919 0.162927
O O4 0.481052 0.351734 0.245590
O O5 0.750000 0.250000 0.250000
O O6 0.753458 0.226387 0.340700
O O7 0.731429 0.367900 0.302076
O O8 0.523299 0.939224 0.172409
O O9 0.651001 0.000079 0.143434
O O10 0.177347 0.350365 0.028387
O O11 0.250000 0.227492 0.000000
O O12 0.249830 0.052810 0.586182
O O13 0.750000 0.972863 0.500000
#
# Coordination Sequence:
#
# PCOD9574134 Si02
#       6
#    32  32  32  32  16  32
#     4  11  25  44  71 102 142 181 234 300 363 425
#     4  12  26  42  68 104 142 181 242 291 355 426
#     4  11  26  42  69 101 141 191 235 292 358 424
#     4   9  22  44  67  95 138 182 226 290 361 416
#     4  12  24  42  70  99 137 184 240 282 340 428
#     4  11  23  42  69  97 134 181 234 287 348 421
#
# _framework density 20.483533999999999
#
# number of rings (size 3 to 8) (size 9 to 14) (size 15 to 20)
#    0.000    1.091    1.818    3.273    7.636    1.455 
#    0.000    0.000    0.000    0.000    0.000    0.000 
#    0.000    0.000    0.000    0.000    0.000    0.000 
#
# Total GULP energy -491678.879925 kJ/mol
# GULP energy per Si atom -5587.259999 kJ/mol
# Density = 2.043691 g / cm^3
# Si number density = 20.483534 Si / 1000 Ang^3
#
#
#
# Elastic Constant Matrix: (Units=GPa)
#
#
# Indices 1 2 3 4 5 6 
#
# 1 47.6849 20.9712 13.1283 0.0000 0.0000 0.0000
# 2 20.9712 47.6846 13.1281 0.0000 0.0000 0.0000
# 3 13.1283 13.1281 126.4886 0.0000 0.0000 0.0000
# 4 0.0000 0.0000 0.0000 26.1726 0.0000 0.0000
# 5 0.0000 0.0000 0.0000 0.0000 26.1726 0.0000
# 6 0.0000 0.0000 0.0000 0.0000 0.0000 13.3795
#
#
#
# Elastic Compliance Matrix: (Units=1/GPa)
#
#
# Indices 1 2 3 4 5 6 
#
# 1 0.026301 -0.011133 -0.001574 0.000000 0.000000 0.000000
# 2 -0.011133 0.026301 -0.001574 0.000000 0.000000 0.000000
# 3 -0.001574 -0.001574 0.008233 0.000000 0.000000 0.000000
# 4 0.000000 0.000000 0.000000 0.038208 0.000000 0.000000
# 5 0.000000 0.000000 0.000000 0.000000 0.038208 0.000000
# 6 0.000000 0.000000 0.000000 0.000000 0.000000 0.074741
#
#
# Mechanical properties :
#
#
# Convention : Reuss Voigt Hill
#
# Bulk Modulus (GPa) = 30.98797 35.14591 33.06694
# Shear Modulus (GPa) = 19.89562 24.78699 22.34130
#
# Velocity S-wave (km/s) = 3.11995 3.48241 3.30615
# Velocity P-wave (km/s) = 5.30470 5.77624 5.54549
#
# Compressibility (1/GPa) = 0.03227059
#
# Stress axis : x y z
#
# Youngs Moduli (GPa) = 38.02184 38.02161 121.46797
#
# Poissons Ratio (x) = 0.42331 0.19122
# Poissons Ratio (y) = 0.42331 0.19121
# Poissons Ratio (z) = 0.05986 0.05985
#
# Static dielectric constant tensor:
#      x y z
#    x 1.780280 0.000000 0.000000 
#    y 0.000000 1.780280 0.000000 
#    z 0.000000 0.000000 1.775630 
# 
# From -- ./inp_files/11481.got.cif
#   From: 2010.05.17/outbox.cif.g08.bks.cpg/sg142_6_cif.got.tgz:11481.got - 2010.05.20 13:39:18.
