data_PCOD9574936
_publ_section_title
;
Structure prediction by ZEFSAII (Michael W. Deem and Ramdas Pophale) SiO2 
 PCOD9574936
Probable space group: P -3
;
_chemical_formula_sum "Si O2"
_cell_formula_units_Z 34
_cell_length_a 12.810657
_cell_length_b 12.810657
_cell_length_c 12.840209
_cell_angle_alpha 90.000000
_cell_angle_beta 90.000000
_cell_angle_gamma 120.000000
_cell_volume 1824.927145
_symmetry_space_group_name_H-M "P -3"
_symmetry_group_IT_number 147
_symmetry_cell_setting 'hexagonal'
loop_
_space_group_symop_operation_xyz
x,y,z
-y,x-y,z
-x+y,-x,z
-x,-y,-z
y,-x+y,-z
x-y,x,-z
loop_
_atom_site_type_symbol
_atom_site_label
_atom_site_fract_x
_atom_site_fract_y
_atom_site_fract_z
Si Si1 0.941326 0.213119 0.378511
Si Si2 0.643526 0.559522 0.808268
Si Si3 0.235631 0.261236 0.000000
Si Si4 0.666668 0.333334 0.875020
Si Si5 0.333335 0.666668 0.875028
Si Si6 0.643523 0.559521 0.191730
Si Si7 0.058673 0.786882 0.378512
O O1 0.296531 0.376977 0.299968
O O2 0.933718 0.240641 0.499999
O O3 0.919547 0.296527 0.299965
O O4 0.841460 0.074167 0.360313
O O5 0.674831 0.456016 0.835987
O O6 0.500001 0.499996 0.804836
O O7 0.696557 0.659975 0.898716
O O8 0.303442 0.340024 0.898716
O O9 0.237820 0.137566 0.000000
O O10 0.666668 0.333334 0.999996
O O11 0.325182 0.543990 0.835994
O O12 0.925831 0.767287 0.639689
#
# Coordination Sequence:
#
# PCOD9574936 Si02
#       7
#     6   6   6   2   2   6   6
#     4  10  21  40  66  95 127 163 205 255 312 373
#     4  12  25  41  63  91 124 165 211 259 310 365
#     4  12  24  40  62  90 123 158 202 258 316 374
#     4  12  24  42  64  89 124 168 216 256 305 373
#     4  12  24  42  64  89 124 168 216 256 305 373
#     4  12  25  41  63  91 124 165 211 259 310 365
#     4  10  21  40  66  95 127 163 205 255 312 373
#
# _framework density 18.630880000000001
#
# number of rings (size 3 to 8) (size 9 to 14) (size 15 to 20)
#    0.000    0.706    1.765    7.412    0.000    2.118 
#    0.000    5.294    0.000    0.000    0.000    0.000 
#    0.000    0.000    0.000    0.000    0.000    0.000 
#
# Total GULP energy -190317.985563 kJ/mol
# GULP energy per Si atom -5597.587811 kJ/mol
# Density = 1.858847 g / cm^3
# Si number density = 18.630880 Si / 1000 Ang^3
#
#
#
# Elastic Constant Matrix: (Units=GPa)
#
#
# Indices 1 2 3 4 5 6 
#
# 1 90.4880 149.6917 104.8649 0.0437 0.0726 -0.0492
# 2 149.6917 90.5086 104.8743 -0.0432 -0.0730 0.0399
# 3 104.8649 104.8743 132.7352 0.0004 -0.0002 -0.0029
# 4 0.0437 -0.0432 0.0004 21.7492 0.0000 -0.0600
# 5 0.0726 -0.0730 -0.0002 0.0000 21.7498 0.0054
# 6 -0.0492 0.0399 -0.0029 -0.0600 0.0054 -29.6831
#
#
#
# Elastic Compliance Matrix: (Units=1/GPa)
#
#
# Indices 1 2 3 4 5 6 
#
# 1 -0.001734 0.015160 -0.010608 0.000034 0.000057 0.000024
# 2 0.015160 -0.001733 -0.010607 -0.000034 -0.000057 -0.000026
# 3 -0.010608 -0.010607 0.024295 0.000000 0.000000 0.000001
# 4 0.000034 -0.000034 0.000000 0.045978 0.000000 -0.000093
# 5 0.000057 -0.000057 0.000000 0.000000 0.045977 0.000008
# 6 0.000024 -0.000026 0.000001 -0.000093 0.000008 -0.033689
#
#
# Mechanical properties :
#
#
# Convention : Reuss Voigt Hill
#
# Bulk Modulus (GPa) = 114.71538 114.73261 114.72400
# Shear Modulus (GPa) = 53.12964 -0.28342 26.42311
#
# Velocity S-wave (km/s) = 5.34592 -0.39045 3.77004
# Velocity P-wave (km/s) = 9.99057 7.84298 8.98120
#
# Compressibility (1/GPa) = 0.00871723
#
# Stress axis : x y z
#
# Youngs Moduli (GPa) = -576.54507 -576.97914 41.16084
#
# Poissons Ratio (x) = 8.74691 0.43661
# Poissons Ratio (y) = 8.74032 0.43661
# Poissons Ratio (z) = -6.11571 -6.12022
#
# Static dielectric constant tensor:
#      x y z
#    x 1.614520 0.000000 0.000000 
#    y 0.000000 1.614520 0.000000 
#    z 0.000000 0.000000 1.623400 
# 
# From -- ./inp_files/947.got.cif
#   From: 2010.05.17/outbox.cif.g08.bks.cpg/sg147_cif.got.tgz:947.got - 2010.05.20 13:49:32.
