data_PCOD9574513
_publ_section_title
;
Structure prediction by ZEFSAII (Michael W. Deem and Ramdas Pophale) SiO2 
 PCOD9574513
Probable space group: P 31
;
_chemical_formula_sum "Si O2"
_cell_formula_units_Z 21
_cell_length_a 9.021489
_cell_length_b 9.021489
_cell_length_c 12.113674
_cell_angle_alpha 90.000000
_cell_angle_beta 90.000000
_cell_angle_gamma 120.000000
_cell_volume 853.813390
_symmetry_space_group_name_H-M "P 31"
_symmetry_group_IT_number 144
_symmetry_cell_setting 'hexagonal'
loop_
_space_group_symop_operation_xyz
x,y,z
-y,x-y,1/3+z
-x+y,-x,2/3+z
loop_
_atom_site_type_symbol
_atom_site_label
_atom_site_fract_x
_atom_site_fract_y
_atom_site_fract_z
Si Si1 0.304339 0.486232 0.217710
Si Si2 0.687508 0.270149 0.220580
Si Si3 0.121975 0.638703 0.494585
Si Si4 0.351961 0.012430 0.014380
Si Si5 0.057211 0.860602 0.714869
Si Si6 0.055928 0.181652 0.798474
Si Si7 0.862237 0.566073 0.036546
O O1 0.415704 0.689743 0.214105
O O2 0.107193 0.420459 0.242784
O O3 0.279045 0.372433 0.107575
O O4 0.372698 0.420806 0.319123
O O5 0.787717 0.414329 0.127266
O O6 0.512276 0.255773 0.261314
O O7 0.816490 0.344305 0.324566
O O8 0.642482 0.072191 0.207462
O O9 0.094522 0.464063 0.444560
O O10 0.142860 0.789331 0.411614
O O11 0.218024 0.072981 0.033987
O O12 0.148662 0.924477 0.596278
O O13 0.097933 0.029574 0.783561
O O14 0.875182 0.146316 0.751524
#
# Coordination Sequence:
#
# PCOD9574513 Si02
#       7
#     3   3   3   3   3   3   3
#     4  12  29  50  80 117 163 213 285 347 434 514
#     4  12  27  53  76 116 167 214 286 346 431 514
#     4  12  29  46  77 116 155 215 272 352 422 512
#     4  12  27  48  74 116 157 201 268 353 412 514
#     4  12  25  55  76 118 167 218 278 351 428 520
#     4  12  27  47  83 113 162 222 276 346 433 519
#     4  12  28  53  82 116 163 231 279 355 434 523
#
# _framework density 24.595537
#
# number of rings (size 3 to 8) (size 9 to 14) (size 15 to 20)
#    0.000    0.000    5.714    1.714   10.000    2.286 
#    0.000    0.000    0.000    0.000    0.000    0.000 
#    0.000    0.000    0.000    0.000    0.000    0.000 
#
# Total GULP energy -117222.147514 kJ/mol
# GULP energy per Si atom -5582.007024 kJ/mol
# Density = 2.453956 g / cm^3
# Si number density = 24.595537 Si / 1000 Ang^3
#
#
#
# Elastic Constant Matrix: (Units=GPa)
#
#
# Indices 1 2 3 4 5 6 
#
# 1 137.0084 59.1100 31.7349 8.0246 -0.9894 0.0000
# 2 59.1100 137.0084 31.7349 -8.0246 0.9894 0.0000
# 3 31.7349 31.7349 71.2022 0.0000 0.0000 0.0000
# 4 8.0246 -8.0246 0.0000 47.6373 0.0000 0.9894
# 5 -0.9894 0.9894 0.0000 0.0000 47.6373 8.0246
# 6 0.0000 0.0000 0.0000 0.9894 8.0246 38.9492
#
#
#
# Elastic Compliance Matrix: (Units=1/GPa)
#
#
# Indices 1 2 3 4 5 6 
#
# 1 0.009632 -0.003674 -0.002656 -0.002241 0.000276 0.000000
# 2 -0.003674 0.009632 -0.002656 0.002241 -0.000276 0.000000
# 3 -0.002656 -0.002656 0.016412 0.000000 0.000000 0.000000
# 4 -0.002241 0.002241 0.000000 0.021759 0.000000 -0.000553
# 5 0.000276 -0.000276 0.000000 0.000000 0.021759 -0.004483
# 6 0.000000 0.000000 0.000000 -0.000553 -0.004483 0.026612
#
#
# Mechanical properties :
#
#
# Convention : Reuss Voigt Hill
#
# Bulk Modulus (GPa) = 56.47829 65.59762 61.03795
# Shear Modulus (GPa) = 38.55710 41.68739 40.12225
#
# Velocity S-wave (km/s) = 3.96365 4.12140 4.04329
# Velocity P-wave (km/s) = 6.63023 7.02683 6.83141
#
# Compressibility (1/GPa) = 0.01770592
#
# Stress axis : x y z
#
# Youngs Moduli (GPa) = 103.81807 103.81807 60.93187
#
# Poissons Ratio (x) = 0.38141 0.16182
# Poissons Ratio (y) = 0.38141 0.16182
# Poissons Ratio (z) = 0.27571 0.27571
#
# Static dielectric constant tensor:
#      x y z
#    x 1.949900 0.000000 0.000000 
#    y 0.000000 1.949900 0.000000 
#    z 0.000000 0.000000 2.094850 
# 
# From -- ./inp_files/597.got.cif
#   From: 2010.05.17/outbox.cif.g08.bks.cpg/sg144_cif.got.tgz:597.got - 2010.05.20 13:46:34.
