data_PCOD9574763
_publ_section_title
;
Structure prediction by ZEFSAII (Michael W. Deem and Ramdas Pophale) SiO2 
 PCOD9574763
Probable space group: R 3
;
_chemical_formula_sum "Si O2"
_cell_formula_units_Z 51
_cell_length_a 16.781043
_cell_length_b 16.781043
_cell_length_c 9.368194
_cell_angle_alpha 90.000000
_cell_angle_beta 90.000000
_cell_angle_gamma 120.000000
_cell_volume 2284.674886
_symmetry_space_group_name_H-M "R 3"
_symmetry_group_IT_number 146
_symmetry_cell_setting 'hexagonal'
loop_
_space_group_symop_operation_xyz
x,y,z
-y,x-y,z
-x+y,-x,z
2/3+x,1/3+y,1/3+z
2/3-y,1/3+x-y,1/3+z
2/3-x+y,1/3-x,1/3+z
1/3+x,2/3+y,2/3+z
1/3-y,2/3+x-y,2/3+z
1/3-x+y,2/3-x,2/3+z
loop_
_atom_site_type_symbol
_atom_site_label
_atom_site_fract_x
_atom_site_fract_y
_atom_site_fract_z
Si Si1 0.757034 0.999838 0.494940
Si Si2 0.000000 0.000000 0.132348
Si Si3 0.707004 0.816032 0.664321
Si Si4 0.666668 0.333335 0.805020
Si Si5 0.110525 0.731727 0.852223
Si Si6 0.222868 0.484520 0.319125
Si Si7 0.256610 0.764443 0.637694
O O1 0.797284 0.034662 0.336921
O O2 0.660299 0.996154 0.496725
O O3 0.826438 0.080437 0.601571
O O4 0.741055 0.903064 0.555398
O O5 0.000000 0.000000 0.301613
O O6 0.090317 0.003916 0.064629
O O7 0.692838 0.853974 0.817198
O O8 0.782558 0.785897 0.659086
O O9 0.602286 0.739234 0.628512
O O10 0.603829 0.232755 0.871362
O O11 0.161738 0.708630 0.726579
O O12 0.264748 0.520942 0.475774
#
# Coordination Sequence:
#
# PCOD9574763 Si02
#       7
#     9   3   9   3   9   9   9
#     4  12  21  39  73 104 141 189 249 313 357 454
#     4  12  25  47  73 108 142 194 253 312 370 446
#     4  10  25  43  69 105 148 185 252 296 380 445
#     4  12  25  41  73 105 145 188 250 303 373 452
#     4  10  23  42  68 107 138 188 249 303 366 445
#     4  12  24  43  71 107 147 191 242 307 380 441
#     4  10  25  43  71 102 141 193 241 304 370 447
#
# _framework density 22.322648999999998
#
# number of rings (size 3 to 8) (size 9 to 14) (size 15 to 20)
#    1.059    0.000    3.529    3.176    2.471    0.000 
#    0.000    3.529    3.882    0.000    0.000    0.000 
#    0.000    0.000    0.000    0.000    0.000    0.000 
#
# Total GULP energy -94830.936930 kJ/mol
# GULP energy per Si atom -5578.290408 kJ/mol
# Density = 2.227184 g / cm^3
# Si number density = 22.322649 Si / 1000 Ang^3
#
#
#
# Elastic Constant Matrix: (Units=GPa)
#
#
# Indices 1 2 3 4 5 6 
#
# 1 77.9829 21.1695 23.2086 0.1707 5.2679 0.0003
# 2 21.1695 77.9819 23.2091 -0.1705 -5.2680 0.0001
# 3 23.2086 23.2091 187.3378 -0.0001 0.0003 -0.0003
# 4 0.1707 -0.1705 -0.0001 28.1369 -0.0001 -5.2680
# 5 5.2679 -5.2680 0.0003 -0.0001 28.1371 0.1707
# 6 0.0003 0.0001 -0.0003 -5.2680 0.1707 28.4065
#
#
#
# Elastic Compliance Matrix: (Units=1/GPa)
#
#
# Indices 1 2 3 4 5 6 
#
# 1 0.014471 -0.003764 -0.001326 -0.000111 -0.003414 0.000000
# 2 -0.003764 0.014471 -0.001326 0.000111 0.003414 0.000000
# 3 -0.001326 -0.001326 0.005667 0.000000 0.000000 0.000000
# 4 -0.000111 0.000111 0.000000 0.036820 0.000000 0.006828
# 5 -0.003414 0.003414 0.000000 0.000000 0.036820 -0.000221
# 6 0.000000 0.000000 0.000000 0.006828 -0.000221 0.036471
#
#
# Mechanical properties :
#
#
# Convention : Reuss Voigt Hill
#
# Bulk Modulus (GPa) = 45.92641 53.16411 49.54526
# Shear Modulus (GPa) = 30.33753 35.31712 32.82733
#
# Velocity S-wave (km/s) = 3.69053 3.98190 3.83898
# Velocity P-wave (km/s) = 6.22724 6.70885 6.47253
#
# Compressibility (1/GPa) = 0.02177397
#
# Stress axis : x y z
#
# Youngs Moduli (GPa) = 69.10443 69.10336 176.47266
#
# Poissons Ratio (x) = 0.26014 0.23407
# Poissons Ratio (y) = 0.26014 0.23408
# Poissons Ratio (z) = 0.09166 0.09166
#
# Static dielectric constant tensor:
#      x y z
#    x 1.864750 0.000000 0.000000 
#    y 0.000000 1.864750 0.000000 
#    z 0.000000 0.000000 1.872160 
# 
# From -- ./inp_files/698.got.cif
#   From: 2010.05.17/outbox.cif.g08.bks.cpg/sg146_cif.got.tgz:698.got - 2010.05.20 13:48:23.
