data_PCOD9574346
_publ_section_title
;
Structure prediction by ZEFSAII (Michael W. Deem and Ramdas Pophale) SiO2 
 PCOD9574346
Probable space group: P 31
;
_chemical_formula_sum "Si O2"
_cell_formula_units_Z 21
_cell_length_a 12.132587
_cell_length_b 12.132587
_cell_length_c 7.933376
_cell_angle_alpha 90.000000
_cell_angle_beta 90.000000
_cell_angle_gamma 120.000000
_cell_volume 1011.336073
_symmetry_space_group_name_H-M "P 31"
_symmetry_group_IT_number 144
_symmetry_cell_setting 'hexagonal'
loop_
_space_group_symop_operation_xyz
x,y,z
-y,x-y,1/3+z
-x+y,-x,2/3+z
loop_
_atom_site_type_symbol
_atom_site_label
_atom_site_fract_x
_atom_site_fract_y
_atom_site_fract_z
Si Si1 0.879295 0.232788 0.125000
Si Si2 0.068646 0.396349 0.385956
Si Si3 0.940226 0.020613 0.047017
Si Si4 0.974102 0.569869 0.549893
Si Si5 0.164759 0.351637 0.727578
Si Si6 0.273528 0.682558 0.917058
Si Si7 0.461776 0.993839 0.562514
O O1 0.925498 0.145343 0.028461
O O2 0.729906 0.143799 0.160484
O O3 0.961393 0.270396 0.297280
O O4 0.910727 0.363460 0.028490
O O5 0.156710 0.391560 0.534978
O O6 0.171695 0.482598 0.247641
O O7 0.995810 0.467707 0.450555
O O8 0.992184 0.012917 0.230096
O O9 0.798675 0.902373 0.045686
O O10 0.100882 0.704641 0.499792
O O11 0.955700 0.518777 0.742439
O O12 0.077411 0.396066 0.821662
O O13 0.309859 0.652362 0.734377
O O14 0.125172 0.599008 0.959500
#
# Coordination Sequence:
#
# PCOD9574346 Si02
#       7
#     3   3   3   3   3   3   3
#     4  11  24  43  64 100 140 183 237 289 348 444
#     4  11  22  41  66  96 131 180 230 292 353 419
#     4  11  22  40  66  97 134 183 228 284 349 422
#     4  10  24  43  66  98 139 181 235 293 358 430
#     4  10  21  40  65  97 132 171 224 292 351 418
#     4  12  22  36  68 106 138 169 224 297 370 421
#     4  11  21  41  67 100 138 179 228 297 359 422
#
# _framework density 20.764609
#
# number of rings (size 3 to 8) (size 9 to 14) (size 15 to 20)
#    0.000    1.143    2.857    5.143    0.000    0.000 
#    2.571    2.857    0.000    0.000    0.000    0.000 
#    0.000    0.000    0.000    0.000    0.000    0.000 
#
# Total GULP energy -117107.575504 kJ/mol
# GULP energy per Si atom -5576.551214 kJ/mol
# Density = 2.071735 g / cm^3
# Si number density = 20.764609 Si / 1000 Ang^3
#
#
#
# Elastic Constant Matrix: (Units=GPa)
#
#
# Indices 1 2 3 4 5 6 
#
# 1 84.2523 30.0378 37.4796 0.3951 -5.9857 0.0000
# 2 30.0378 84.2523 37.4796 -0.3951 5.9857 0.0000
# 3 37.4796 37.4796 102.1919 0.0000 0.0000 0.0000
# 4 0.3951 -0.3951 0.0000 26.5117 0.0000 5.9857
# 5 -5.9857 5.9857 0.0000 0.0000 26.5117 0.3951
# 6 0.0000 0.0000 0.0000 5.9857 0.3951 27.1072
#
#
#
# Elastic Compliance Matrix: (Units=1/GPa)
#
#
# Indices 1 2 3 4 5 6 
#
# 1 0.015469 -0.003948 -0.004225 -0.000289 0.004384 0.000000
# 2 -0.003948 0.015469 -0.004225 0.000289 -0.004384 0.000000
# 3 -0.004225 -0.004225 0.012885 0.000000 0.000000 0.000000
# 4 -0.000289 0.000289 0.000000 0.039707 0.000000 -0.008768
# 5 0.004384 -0.004384 0.000000 0.000000 0.039707 -0.000579
# 6 0.000000 0.000000 0.000000 -0.008768 -0.000579 0.038835
#
#
# Mechanical properties :
#
#
# Convention : Reuss Voigt Hill
#
# Bulk Modulus (GPa) = 52.56173 53.41005 52.98589
# Shear Modulus (GPa) = 25.87816 27.07278 26.47547
#
# Velocity S-wave (km/s) = 3.53407 3.61473 3.57463
# Velocity P-wave (km/s) = 6.48236 6.57261 6.52764
#
# Compressibility (1/GPa) = 0.01902525
#
# Stress axis : x y z
#
# Youngs Moduli (GPa) = 64.64437 64.64437 77.61027
#
# Poissons Ratio (x) = 0.25523 0.32793
# Poissons Ratio (y) = 0.25523 0.32793
# Poissons Ratio (z) = 0.27315 0.27315
#
# Static dielectric constant tensor:
#      x y z
#    x 1.739040 0.000000 0.000000 
#    y 0.000000 1.739040 0.000000 
#    z 0.000000 0.000000 1.859110 
# 
# From -- ./inp_files/338.got.cif
#   From: 2010.05.17/outbox.cif.g08.bks.cpg/sg144_cif.got.tgz:338.got - 2010.05.20 13:46:34.
