data_PCOD9574071
_publ_section_title
;
Structure prediction by ZEFSAII (Michael W. Deem and Ramdas Pophale) SiO2 
 PCOD9574071
Probable space group: I 41/A C D
;
_chemical_formula_sum "Si O2"
_cell_formula_units_Z 112
_cell_length_a 13.932140
_cell_length_b 13.932140
_cell_length_c 27.266101
_cell_angle_alpha 90.000000
_cell_angle_beta 90.000000
_cell_angle_gamma 90.000000
_cell_volume 5292.473583
_symmetry_space_group_name_H-M "I 41/A C D"
_symmetry_group_IT_number 142
_space_group.IT_coordinate_system_code '2'
_symmetry_cell_setting 'tetragonal'
loop_
_space_group_symop_operation_xyz
x,y,z
1/4-y,3/4+x,1/4+z
-x,1/2-y,z
1/4+y,1/4-x,3/4+z
x,-y,1/2-z
1/2-x,y,-z
3/4+y,1/4+x,1/4-z
1/4-y,1/4-x,1/4-z
-x,-y,-z
3/4+y,1/4-x,3/4-z
x,1/2+y,-z
3/4-y,3/4+x,1/4-z
-x,y,1/2+z
1/2+x,-y,z
1/4-y,3/4-x,3/4+z
3/4+y,3/4+x,3/4+z
1/2+x,1/2+y,1/2+z
3/4-y,1/4+x,3/4+z
1/2-x,-y,1/2+z
3/4+y,3/4-x,1/4+z
1/2+x,1/2-y,-z
-x,1/2+y,1/2-z
1/4+y,3/4+x,3/4-z
3/4-y,3/4-x,3/4-z
1/2-x,1/2-y,1/2-z
1/4+y,3/4-x,1/4-z
1/2+x,y,1/2-z
1/4-y,1/4+x,3/4-z
1/2-x,1/2+y,z
x,1/2-y,1/2+z
3/4-y,1/4-x,1/4+z
1/4+y,1/4+x,1/4+z
loop_
_atom_site_type_symbol
_atom_site_label
_atom_site_fract_x
_atom_site_fract_y
_atom_site_fract_z
Si Si1 0.000000 0.750000 0.252446
Si Si2 0.083383 0.615239 0.113282
Si Si3 0.866325 0.084649 0.287555
Si Si4 0.655849 0.112182 0.249847
O O1 0.059311 0.671299 0.221442
O O2 0.080788 0.816953 0.276613
O O3 0.127700 0.720199 0.125399
O O4 0.126993 0.550248 0.156433
O O5 0.106364 0.588986 0.057438
O O6 0.759703 0.118739 0.274275
O O7 0.889546 0.000000 0.250000
O O8 0.626951 0.000000 0.250000
#
# Coordination Sequence:
#
# PCOD9574071 Si02
#       4
#    16  32  32  32
#     4  12  20  41  64  97 124 178 204 273 304 397
#     4  11  20  39  68  92 122 176 222 248 304 396
#     4  11  24  40  68  97 130 166 216 265 318 376
#     4  11  24  40  68  97 130 166 216 265 318 376
#
# _framework density 21.162127999999999
#
# number of rings (size 3 to 8) (size 9 to 14) (size 15 to 20)
#    0.000    0.857    5.714    1.714    0.000    4.571 
#    0.000    0.000    0.000    6.857    0.000    0.000 
#    0.000    0.000    0.000    0.000    0.000    0.000 
#
# Total GULP energy -312546.168196 kJ/mol
# GULP energy per Si atom -5581.181575 kJ/mol
# Density = 2.111396 g / cm^3
# Si number density = 21.162128 Si / 1000 Ang^3
#
#
#
# Elastic Constant Matrix: (Units=GPa)
#
#
# Indices 1 2 3 4 5 6 
#
# 1 93.9859 21.2676 7.3385 0.0000 0.0000 0.0000
# 2 21.2676 93.9859 7.3385 0.0000 0.0000 0.0000
# 3 7.3385 7.3385 87.6905 0.0000 0.0000 0.0000
# 4 0.0000 0.0000 0.0000 28.6750 0.0000 0.0000
# 5 0.0000 0.0000 0.0000 0.0000 28.6750 0.0000
# 6 0.0000 0.0000 0.0000 0.0000 0.0000 41.5716
#
#
#
# Elastic Compliance Matrix: (Units=1/GPa)
#
#
# Indices 1 2 3 4 5 6 
#
# 1 0.011261 -0.002491 -0.000734 0.000000 0.000000 0.000000
# 2 -0.002491 0.011261 -0.000734 0.000000 0.000000 0.000000
# 3 -0.000734 -0.000734 0.011527 0.000000 0.000000 0.000000
# 4 0.000000 0.000000 0.000000 0.034874 0.000000 0.000000
# 5 0.000000 0.000000 0.000000 0.000000 0.034874 0.000000
# 6 0.000000 0.000000 0.000000 0.000000 0.000000 0.024055
#
#
# Mechanical properties :
#
#
# Convention : Reuss Voigt Hill
#
# Bulk Modulus (GPa) = 38.26891 38.61680 38.44285
# Shear Modulus (GPa) = 34.60736 35.76552 35.18644
#
# Velocity S-wave (km/s) = 4.04833 4.11551 4.08206
# Velocity P-wave (km/s) = 6.32257 6.39303 6.35790
#
# Compressibility (1/GPa) = 0.02613087
#
# Stress axis : x y z
#
# Youngs Moduli (GPa) = 88.80330 88.80330 86.75595
#
# Poissons Ratio (x) = 0.22120 0.06367
# Poissons Ratio (y) = 0.22120 0.06367
# Poissons Ratio (z) = 0.06517 0.06517
#
# Static dielectric constant tensor:
#      x y z
#    x 1.776580 0.000000 0.000000 
#    y 0.000000 1.776580 0.000000 
#    z 0.000000 0.000000 1.782930 
# 
# From -- ./inp_files/9727.got.cif
#   From: 2010.05.17/outbox.cif.g08.bks.cpg/sg142_5_cif.got.tgz:9727.got - 2010.05.20 13:39:18.
