data_PCOD9574429
_publ_section_title
;
Structure prediction by ZEFSAII (Michael W. Deem and Ramdas Pophale) SiO2 
 PCOD9574429
Probable space group: P 31
;
_chemical_formula_sum "Si O2"
_cell_formula_units_Z 15
_cell_length_a 7.033647
_cell_length_b 7.033647
_cell_length_c 11.663887
_cell_angle_alpha 90.000000
_cell_angle_beta 90.000000
_cell_angle_gamma 120.000000
_cell_volume 499.729597
_symmetry_space_group_name_H-M "P 31"
_symmetry_group_IT_number 144
_symmetry_cell_setting 'hexagonal'
loop_
_space_group_symop_operation_xyz
x,y,z
-y,x-y,1/3+z
-x+y,-x,2/3+z
loop_
_atom_site_type_symbol
_atom_site_label
_atom_site_fract_x
_atom_site_fract_y
_atom_site_fract_z
Si Si1 0.881412 0.887796 0.230540
Si Si2 0.159782 0.781128 0.950857
Si Si3 0.658228 0.191464 0.791858
Si Si4 0.550150 0.970313 0.135803
Si Si5 0.544919 0.923755 0.382844
O O1 0.893233 0.667630 0.215485
O O2 0.712717 0.866786 0.126531
O O3 0.744974 0.895181 0.337905
O O4 0.095865 0.124023 0.244367
O O5 0.216059 0.700968 0.832857
O O6 0.370553 0.911669 0.035347
O O7 0.979226 0.571725 0.021600
O O8 0.776750 0.524276 0.491600
O O9 0.840837 0.436864 0.757066
O O10 0.430930 0.903740 0.260086
#
# Coordination Sequence:
#
# PCOD9574429 Si02
#       5
#     3   3   3   3   3
#     4  10  26  49  85 124 178 228 310 374 450 554
#     4  12  25  55  88 125 185 238 305 388 462 552
#     4  12  25  50  90 118 178 243 289 382 467 545
#     4  10  25  57  80 121 183 232 307 377 459 560
#     4  10  25  51  81 128 172 235 303 371 456 541
#
# _framework density 30.016237
#
# number of rings (size 3 to 8) (size 9 to 14) (size 15 to 20)
#    1.200    0.000    2.000    2.400    2.800    1.600 
#   28.800    0.000    4.400    0.000    0.000    0.000 
#    0.000    0.000    0.000    0.000    0.000    0.000 
#
# Total GULP energy -83880.948568 kJ/mol
# GULP energy per Si atom -5592.063238 kJ/mol
# Density = 2.994792 g / cm^3
# Si number density = 30.016237 Si / 1000 Ang^3
#
#
#
# Elastic Constant Matrix: (Units=GPa)
#
#
# Indices 1 2 3 4 5 6 
#
# 1 161.5220 48.2436 72.0881 -11.3020 1.0491 0.0000
# 2 48.2436 161.5220 72.0881 11.3020 -1.0491 0.0000
# 3 72.0881 72.0881 209.1017 0.0000 0.0000 0.0000
# 4 -11.3020 11.3020 0.0000 47.6943 0.0000 -1.0491
# 5 1.0491 -1.0491 0.0000 0.0000 47.6943 -11.3020
# 6 0.0000 0.0000 0.0000 -1.0491 -11.3020 56.6392
#
#
#
# Elastic Compliance Matrix: (Units=1/GPa)
#
#
# Indices 1 2 3 4 5 6 
#
# 1 0.007759 -0.001511 -0.002154 0.002197 -0.000204 0.000000
# 2 -0.001511 0.007759 -0.002154 -0.002197 0.000204 0.000000
# 3 -0.002154 -0.002154 0.006267 0.000000 0.000000 0.000000
# 4 0.002197 -0.002197 0.000000 0.022017 0.000000 0.000408
# 5 -0.000204 0.000204 0.000000 0.000000 0.022017 0.004393
# 6 0.000000 0.000000 0.000000 0.000408 0.004393 0.018540
#
#
# Mechanical properties :
#
#
# Convention : Reuss Voigt Hill
#
# Bulk Modulus (GPa) = 98.54924 101.88728 100.21826
# Shear Modulus (GPa) = 50.31248 53.05393 51.68321
#
# Velocity S-wave (km/s) = 4.09855 4.20873 4.15401
# Velocity P-wave (km/s) = 7.43645 7.59182 7.51453
#
# Compressibility (1/GPa) = 0.01014721
#
# Stress axis : x y z
#
# Youngs Moduli (GPa) = 128.88629 128.88629 159.55406
#
# Poissons Ratio (x) = 0.19477 0.34366
# Poissons Ratio (y) = 0.19477 0.34366
# Poissons Ratio (z) = 0.27761 0.27761
#
# Static dielectric constant tensor:
#      x y z
#    x 2.367540 0.000000 0.000000 
#    y 0.000000 2.367540 0.000000 
#    z 0.000000 0.000000 2.339220 
# 
# From -- ./inp_files/484.got.cif
#   From: 2010.05.17/outbox.cif.g08.bks.cpg/sg144_cif.got.tgz:484.got - 2010.05.20 13:46:34.
