data_PCOD9574637
_publ_section_title
;
Structure prediction by ZEFSAII (Michael W. Deem and Ramdas Pophale) SiO2 
 PCOD9574637
Probable space group: P 32
;
_chemical_formula_sum "Si O2"
_cell_formula_units_Z 21
_cell_length_a 9.301199
_cell_length_b 9.301199
_cell_length_c 10.993617
_cell_angle_alpha 90.000000
_cell_angle_beta 90.000000
_cell_angle_gamma 120.000000
_cell_volume 823.662146
_symmetry_space_group_name_H-M "P 32"
_symmetry_group_IT_number 145
_symmetry_cell_setting 'hexagonal'
loop_
_space_group_symop_operation_xyz
x,y,z
-y,x-y,2/3+z
-x+y,-x,1/3+z
loop_
_atom_site_type_symbol
_atom_site_label
_atom_site_fract_x
_atom_site_fract_y
_atom_site_fract_z
Si Si1 0.516446 0.119430 0.452500
Si Si2 0.058197 0.631588 0.693109
Si Si3 0.466285 0.124060 0.852533
Si Si4 0.450889 0.589562 0.975113
Si Si5 0.138018 0.126548 0.947938
Si Si6 0.322258 0.903164 0.237243
Si Si7 0.896661 0.813985 0.823446
O O1 0.696832 0.276209 0.458896
O O2 0.368300 0.122694 0.526614
O O3 0.516150 0.971619 0.527805
O O4 0.443553 0.061772 0.318556
O O5 0.219032 0.740830 0.612699
O O6 0.108122 0.541792 0.797511
O O7 0.913504 0.480090 0.620586
O O8 0.007721 0.761300 0.743673
O O9 0.309602 0.131365 0.913592
O O10 0.420568 0.978248 0.753669
O O11 0.255605 0.514411 0.991881
O O12 0.096654 0.249830 0.867589
O O13 0.003149 0.934151 0.929337
O O14 0.086683 0.166185 0.079451
#
# Coordination Sequence:
#
# PCOD9574637 Si02
#       7
#     3   3   3   3   3   3   3
#     4  11  27  46  73 109 152 201 248 319 378 452
#     4  12  26  45  75 115 149 204 256 318 381 460
#     4  12  27  47  78 112 155 198 261 316 385 457
#     4  12  25  47  74 112 152 203 254 318 379 459
#     4  11  24  48  69 109 140 207 239 317 377 460
#     4  11  25  47  79 108 156 199 261 312 389 458
#     4  11  26  44  74 103 152 192 255 308 375 460
#
# _framework density 25.495894
#
# number of rings (size 3 to 8) (size 9 to 14) (size 15 to 20)
#    0.000    0.571    2.857    4.286    4.000    2.286 
#    0.000    0.000    0.000    0.000    0.000    0.000 
#    0.000    0.000    0.000    0.000    0.000    0.000 
#
# Total GULP energy -117410.193883 kJ/mol
# GULP energy per Si atom -5590.961613 kJ/mol
# Density = 2.543786 g / cm^3
# Si number density = 25.495894 Si / 1000 Ang^3
#
#
#
# Elastic Constant Matrix: (Units=GPa)
#
#
# Indices 1 2 3 4 5 6 
#
# 1 144.0769 54.2924 35.5799 -2.5957 -7.9233 0.0000
# 2 54.2924 144.0769 35.5799 2.5957 7.9233 0.0000
# 3 35.5799 35.5799 68.7861 0.0000 0.0000 0.0000
# 4 -2.5957 2.5957 0.0000 34.6785 0.0000 7.9233
# 5 -7.9233 7.9233 0.0000 0.0000 34.6785 -2.5957
# 6 0.0000 0.0000 0.0000 7.9233 -2.5957 44.8922
#
#
#
# Elastic Compliance Matrix: (Units=1/GPa)
#
#
# Indices 1 2 3 4 5 6 
#
# 1 0.008924 -0.002734 -0.003202 0.000873 0.002664 0.000000
# 2 -0.002734 0.008924 -0.003202 -0.000873 -0.002664 0.000000
# 3 -0.003202 -0.003202 0.017850 0.000000 0.000000 0.000000
# 4 0.000873 -0.000873 0.000000 0.030184 0.000000 -0.005327
# 5 0.002664 -0.002664 0.000000 0.000000 0.030184 0.001745
# 6 0.000000 0.000000 0.000000 -0.005327 0.001745 0.023317
#
#
# Mechanical properties :
#
#
# Convention : Reuss Voigt Hill
#
# Bulk Modulus (GPa) = 57.39635 67.53826 62.46731
# Shear Modulus (GPa) = 34.85159 38.28238 36.56698
#
# Velocity S-wave (km/s) = 3.70124 3.87914 3.79123
# Velocity P-wave (km/s) = 6.38956 6.82722 6.61201
#
# Compressibility (1/GPa) = 0.01742271
#
# Stress axis : x y z
#
# Youngs Moduli (GPa) = 112.05767 112.05767 56.02277
#
# Poissons Ratio (x) = 0.30641 0.17936
# Poissons Ratio (y) = 0.30641 0.17936
# Poissons Ratio (z) = 0.35876 0.35876
#
# Static dielectric constant tensor:
#      x y z
#    x 2.057260 0.000000 0.000000 
#    y 0.000000 2.057260 0.000000 
#    z 0.000000 0.000000 2.066610 
# 
# From -- ./inp_files/615.got.cif
#   From: 2010.05.17/outbox.cif.g08.bks.cpg/sg145_cif.got.tgz:615.got - 2010.05.20 13:47:28.
