data_PCOD9574189
_publ_section_title
;
Structure prediction by ZEFSAII (Michael W. Deem and Ramdas Pophale) SiO2 
 PCOD9574189
Probable space group: I 41/A C D
;
_chemical_formula_sum "Si O2"
_cell_formula_units_Z 64
_cell_length_a 9.861817
_cell_length_b 9.861817
_cell_length_c 24.375559
_cell_angle_alpha 90.000000
_cell_angle_beta 90.000000
_cell_angle_gamma 90.000000
_cell_volume 2370.655583
_symmetry_space_group_name_H-M "I 41/A C D"
_symmetry_group_IT_number 142
_space_group.IT_coordinate_system_code '2'
_symmetry_cell_setting 'tetragonal'
loop_
_space_group_symop_operation_xyz
x,y,z
1/4-y,3/4+x,1/4+z
-x,1/2-y,z
1/4+y,1/4-x,3/4+z
x,-y,1/2-z
1/2-x,y,-z
3/4+y,1/4+x,1/4-z
1/4-y,1/4-x,1/4-z
-x,-y,-z
3/4+y,1/4-x,3/4-z
x,1/2+y,-z
3/4-y,3/4+x,1/4-z
-x,y,1/2+z
1/2+x,-y,z
1/4-y,3/4-x,3/4+z
3/4+y,3/4+x,3/4+z
1/2+x,1/2+y,1/2+z
3/4-y,1/4+x,3/4+z
1/2-x,-y,1/2+z
3/4+y,3/4-x,1/4+z
1/2+x,1/2-y,-z
-x,1/2+y,1/2-z
1/4+y,3/4+x,3/4-z
3/4-y,3/4-x,3/4-z
1/2-x,1/2-y,1/2-z
1/4+y,3/4-x,1/4-z
1/2+x,y,1/2-z
1/4-y,1/4+x,3/4-z
1/2-x,1/2+y,z
x,1/2-y,1/2+z
3/4-y,1/4-x,1/4+z
1/4+y,1/4+x,1/4+z
loop_
_atom_site_type_symbol
_atom_site_label
_atom_site_fract_x
_atom_site_fract_y
_atom_site_fract_z
Si Si1 0.589951 0.362588 0.218400
Si Si2 0.504390 0.471800 0.381956
O O1 0.500000 0.250000 0.249821
O O2 0.627775 0.500000 0.250000
O O3 0.499867 0.419647 0.167290
O O4 0.711329 0.282099 0.189741
O O5 0.650115 0.400115 0.375000
O O6 0.391960 0.358041 0.375000
#
# Coordination Sequence:
#
# PCOD9574189 Si02
#       2
#    32  32
#     4  12  27  49  80 119 167 224 289 358 442 523
#     4  11  25  50  79 113 167 223 276 365 436 514
#
# _framework density 26.996752999999998
#
# number of rings (size 3 to 8) (size 9 to 14) (size 15 to 20)
#    0.000    0.500    5.000    1.500    7.000    4.000 
#    0.000    0.000    0.000    0.000    0.000    0.000 
#    0.000    0.000    0.000    0.000    0.000    0.000 
#
# Total GULP energy -179476.147067 kJ/mol
# GULP energy per Si atom -5608.629596 kJ/mol
# Density = 2.693531 g / cm^3
# Si number density = 26.996753 Si / 1000 Ang^3
#
#
#
# Elastic Constant Matrix: (Units=GPa)
#
#
# Indices 1 2 3 4 5 6 
#
# 1 142.8140 84.5741 44.1724 0.0000 0.0000 0.0000
# 2 84.5741 142.8153 44.1724 0.0000 0.0000 0.0000
# 3 44.1724 44.1724 125.2937 0.0000 0.0000 0.0000
# 4 0.0000 0.0000 0.0000 51.0829 0.0000 0.0000
# 5 0.0000 0.0000 0.0000 0.0000 51.0817 0.0000
# 6 0.0000 0.0000 0.0000 0.0000 0.0000 67.6036
#
#
#
# Elastic Compliance Matrix: (Units=1/GPa)
#
#
# Indices 1 2 3 4 5 6 
#
# 1 0.011133 -0.006037 -0.001797 0.000000 0.000000 0.000000
# 2 -0.006037 0.011133 -0.001796 0.000000 0.000000 0.000000
# 3 -0.001797 -0.001796 0.009248 0.000000 0.000000 0.000000
# 4 0.000000 0.000000 0.000000 0.019576 0.000000 0.000000
# 5 0.000000 0.000000 0.000000 0.000000 0.019576 0.000000
# 6 0.000000 0.000000 0.000000 0.000000 0.000000 0.014792
#
#
# Mechanical properties :
#
#
# Convention : Reuss Voigt Hill
#
# Bulk Modulus (GPa) = 81.60993 84.08453 82.84723
# Shear Modulus (GPa) = 45.95444 49.82058 47.88751
#
# Velocity S-wave (km/s) = 4.13027 4.30051 4.21625
# Velocity P-wave (km/s) = 7.28291 7.47482 7.37949
#
# Compressibility (1/GPa) = 0.01225341
#
# Stress axis : x y z
#
# Youngs Moduli (GPa) = 89.82302 89.82389 108.13193
#
# Poissons Ratio (x) = 0.54229 0.19426
# Poissons Ratio (y) = 0.54228 0.19426
# Poissons Ratio (z) = 0.16137 0.16137
#
# Static dielectric constant tensor:
#      x y z
#    x 2.121080 0.000000 0.000000 
#    y 0.000000 2.121080 0.000000 
#    z 0.000000 0.000000 2.149470 
# 
# From -- ./inp_files/9476.got.cif
#   From: 2010.05.17/outbox.cif.g08.bks.cpg/sg142_5_cif.got.tgz:9476.got - 2010.05.20 13:39:18.
