data_PCOD9574166
_publ_section_title
;
Structure prediction by ZEFSAII (Michael W. Deem and Ramdas Pophale) SiO2 
 PCOD9574166
Probable space group: I 41/A C D
;
_chemical_formula_sum "Si O2"
_cell_formula_units_Z 160
_cell_length_a 18.618354
_cell_length_b 18.618354
_cell_length_c 18.410169
_cell_angle_alpha 90.000000
_cell_angle_beta 90.000000
_cell_angle_gamma 90.000000
_cell_volume 6381.758158
_symmetry_space_group_name_H-M "I 41/A C D"
_symmetry_group_IT_number 142
_space_group.IT_coordinate_system_code '2'
_symmetry_cell_setting 'tetragonal'
loop_
_space_group_symop_operation_xyz
x,y,z
1/4-y,3/4+x,1/4+z
-x,1/2-y,z
1/4+y,1/4-x,3/4+z
x,-y,1/2-z
1/2-x,y,-z
3/4+y,1/4+x,1/4-z
1/4-y,1/4-x,1/4-z
-x,-y,-z
3/4+y,1/4-x,3/4-z
x,1/2+y,-z
3/4-y,3/4+x,1/4-z
-x,y,1/2+z
1/2+x,-y,z
1/4-y,3/4-x,3/4+z
3/4+y,3/4+x,3/4+z
1/2+x,1/2+y,1/2+z
3/4-y,1/4+x,3/4+z
1/2-x,-y,1/2+z
3/4+y,3/4-x,1/4+z
1/2+x,1/2-y,-z
-x,1/2+y,1/2-z
1/4+y,3/4+x,3/4-z
3/4-y,3/4-x,3/4-z
1/2-x,1/2-y,1/2-z
1/4+y,3/4-x,1/4-z
1/2+x,y,1/2-z
1/4-y,1/4+x,3/4-z
1/2-x,1/2+y,z
x,1/2-y,1/2+z
3/4-y,1/4-x,1/4+z
1/4+y,1/4+x,1/4+z
loop_
_atom_site_type_symbol
_atom_site_label
_atom_site_fract_x
_atom_site_fract_y
_atom_site_fract_z
Si Si1 0.880907 0.129222 0.784386
Si Si2 0.816950 0.242111 0.375131
Si Si3 0.410104 0.160104 0.375000
Si Si4 0.920628 0.670628 0.375000
Si Si5 0.828009 0.385526 0.762605
Si Si6 0.451438 0.500000 0.750000
Si Si7 0.293669 0.500000 0.250000
O O1 0.961257 0.125737 0.817176
O O2 0.837659 0.187451 0.830346
O O3 0.880879 0.147676 0.699209
O O4 0.845970 0.050551 0.796788
O O5 0.816112 0.180277 0.315403
O O6 0.747836 0.252260 0.426844
O O7 0.407283 0.245143 0.392758
O O8 0.396226 0.096552 0.433339
O O9 0.899237 0.434359 0.769526
O O10 0.762252 0.439443 0.776000
#
# Coordination Sequence:
#
# PCOD9574166 Si02
#       7
#    32  32  16  16  32  16  16
#     4  12  28  51  81 122 164 221 287 351 436 519
#     4  12  26  51  85 121 165 229 288 364 431 528
#     4  11  24  43  78 122 162 219 272 371 426 508
#     4  11  26  49  80 118 168 209 284 361 426 514
#     4  11  26  49  80 118 166 228 288 345 444 522
#     4  11  25  50  78 118 172 220 286 362 430 528
#     4  11  31  52  76 112 170 222 280 348 420 532
#
# _framework density 25.071460999999999
#
# number of rings (size 3 to 8) (size 9 to 14) (size 15 to 20)
#    0.000    0.600    4.000    1.800    2.800    7.600 
#    0.000    0.000    0.000    0.000    0.000    0.000 
#    0.000    0.000    0.000    0.000    0.000    0.000 
#
# Total GULP energy -446780.000715 kJ/mol
# GULP energy per Si atom -5584.750009 kJ/mol
# Density = 2.501440 g / cm^3
# Si number density = 25.071461 Si / 1000 Ang^3
#
#
#
# Elastic Constant Matrix: (Units=GPa)
#
#
# Indices 1 2 3 4 5 6 
#
# 1 156.5883 66.0922 69.6472 0.0000 0.0000 0.0000
# 2 66.0922 156.5883 69.6472 0.0000 0.0000 0.0000
# 3 69.6472 69.6472 209.4908 0.0000 0.0000 0.0000
# 4 0.0000 0.0000 0.0000 28.0502 0.0000 0.0000
# 5 0.0000 0.0000 0.0000 0.0000 28.0502 0.0000
# 6 0.0000 0.0000 0.0000 0.0000 0.0000 22.9333
#
#
#
# Elastic Compliance Matrix: (Units=1/GPa)
#
#
# Indices 1 2 3 4 5 6 
#
# 1 0.008360 -0.002690 -0.001885 0.000000 0.000000 0.000000
# 2 -0.002690 0.008360 -0.001885 0.000000 0.000000 0.000000
# 3 -0.001885 -0.001885 0.006027 0.000000 0.000000 0.000000
# 4 0.000000 0.000000 0.000000 0.035650 0.000000 0.000000
# 5 0.000000 0.000000 0.000000 0.000000 0.035650 0.000000
# 6 0.000000 0.000000 0.000000 0.000000 0.000000 0.043605
#
#
# Mechanical properties :
#
#
# Convention : Reuss Voigt Hill
#
# Bulk Modulus (GPa) = 101.76473 103.71564 102.74018
# Shear Modulus (GPa) = 32.49954 36.95878 34.72916
#
# Velocity S-wave (km/s) = 3.60429 3.84362 3.72587
# Velocity P-wave (km/s) = 7.61572 7.82021 7.71864
#
# Compressibility (1/GPa) = 0.00982659
#
# Stress axis : x y z
#
# Youngs Moduli (GPa) = 119.61674 119.61674 165.92401
#
# Poissons Ratio (x) = 0.32179 0.31277
# Poissons Ratio (y) = 0.32179 0.31277
# Poissons Ratio (z) = 0.22548 0.22548
#
# Static dielectric constant tensor:
#      x y z
#    x 2.052940 0.000000 0.000000 
#    y 0.000000 2.052940 0.000000 
#    z 0.000000 0.000000 2.039440 
# 
# From -- ./inp_files/7476.got.cif
#   From: 2010.05.17/outbox.cif.g08.bks.cpg/sg142_4_cif.got.tgz:7476.got - 2010.05.20 13:39:18.
