data_PCOD9574832
_publ_section_title
;
Structure prediction by ZEFSAII (Michael W. Deem and Ramdas Pophale) SiO2 
 PCOD9574832
Probable space group: R 3
;
_chemical_formula_sum "Si O2"
_cell_formula_units_Z 42
_cell_length_a 15.413813
_cell_length_b 15.413813
_cell_length_c 9.438967
_cell_angle_alpha 90.000000
_cell_angle_beta 90.000000
_cell_angle_gamma 120.000000
_cell_volume 1942.116469
_symmetry_space_group_name_H-M "R 3"
_symmetry_group_IT_number 146
_symmetry_cell_setting 'hexagonal'
loop_
_space_group_symop_operation_xyz
x,y,z
-y,x-y,z
-x+y,-x,z
2/3+x,1/3+y,1/3+z
2/3-y,1/3+x-y,1/3+z
2/3-x+y,1/3-x,1/3+z
1/3+x,2/3+y,2/3+z
1/3-y,2/3+x-y,2/3+z
1/3-x+y,2/3-x,2/3+z
loop_
_atom_site_type_symbol
_atom_site_label
_atom_site_fract_x
_atom_site_fract_y
_atom_site_fract_z
Si Si1 0.000000 0.000000 0.739655
Si Si2 0.795247 0.147624 0.330149
Si Si3 0.070738 0.429263 0.111788
Si Si4 0.172407 0.961204 0.760119
Si Si5 0.494260 0.872129 0.938266
Si Si6 0.000000 0.000000 0.394737
O O1 0.905838 0.896957 0.792547
O O2 0.000000 0.000000 0.565822
O O3 0.794334 0.189808 0.175128
O O4 0.728598 0.170261 0.438069
O O5 0.911135 0.205568 0.388094
O O6 0.757026 0.029910 0.324359
O O7 0.116273 0.487924 0.257301
O O8 0.075760 0.511093 0.002571
O O9 0.954175 0.354778 0.141499
O O10 0.431749 0.759299 0.995398
#
# Coordination Sequence:
#
# PCOD9574832 Si02
#       6
#     3   9   9   9   9   3
#     4  12  27  46  71 115 138 196 236 292 369 409
#     4  12  27  46  71 115 138 196 236 292 369 409
#     4  12  24  46  77 103 147 196 233 289 363 433
#     4  12  26  46  74 104 148 184 242 290 356 430
#     4  12  26  46  74 104 148 184 242 290 356 430
#     4  12  24  46  77 103 147 196 233 289 363 433
#
# _framework density 21.625893000000001
#
# number of rings (size 3 to 8) (size 9 to 14) (size 15 to 20)
#    0.000    0.000    8.571    0.000    0.000    6.857 
#    0.000    0.000    0.000    0.000    0.000    0.000 
#    0.000    0.000    0.000    0.000    0.000    0.000 
#
# Total GULP energy -78208.252165 kJ/mol
# GULP energy per Si atom -5586.303726 kJ/mol
# Density = 2.157667 g / cm^3
# Si number density = 21.625893 Si / 1000 Ang^3
#
#
#
# Elastic Constant Matrix: (Units=GPa)
#
#
# Indices 1 2 3 4 5 6 
#
# 1 61.0541 1.7612 -0.0744 2.5957 0.0000 0.0000
# 2 1.7612 61.0541 -0.0744 -2.5957 0.0000 0.0000
# 3 -0.0744 -0.0744 62.8885 0.0000 0.0000 0.0000
# 4 2.5957 -2.5957 0.0000 27.8110 0.0000 0.0000
# 5 0.0000 0.0000 0.0000 0.0000 27.8110 2.5957
# 6 0.0000 0.0000 0.0000 0.0000 2.5957 29.6465
#
#
#
# Elastic Compliance Matrix: (Units=1/GPa)
#
#
# Indices 1 2 3 4 5 6 
#
# 1 0.016462 -0.000542 0.000019 -0.001587 0.000000 0.000000
# 2 -0.000542 0.016462 0.000019 0.001587 0.000000 0.000000
# 3 0.000019 0.000019 0.015901 0.000000 0.000000 0.000000
# 4 -0.001587 0.001587 0.000000 0.036253 0.000000 0.000000
# 5 0.000000 0.000000 0.000000 0.000000 0.036253 -0.003174
# 6 0.000000 0.000000 0.000000 0.000000 -0.003174 0.034009
#
#
# Mechanical properties :
#
#
# Convention : Reuss Voigt Hill
#
# Bulk Modulus (GPa) = 20.91352 20.91352 20.91352
# Shear Modulus (GPa) = 29.02109 29.27933 29.15021
#
# Velocity S-wave (km/s) = 3.66725 3.68353 3.67540
# Velocity P-wave (km/s) = 5.25578 5.27094 5.26337
#
# Compressibility (1/GPa) = 0.04781596
#
# Stress axis : x y z
#
# Youngs Moduli (GPa) = 60.74577 60.74577 62.88831
#
# Poissons Ratio (x) = 0.03294 -0.00118
# Poissons Ratio (y) = 0.03294 -0.00118
# Poissons Ratio (z) = -0.00114 -0.00114
#
# Static dielectric constant tensor:
#      x y z
#    x 1.783010 0.000000 0.000000 
#    y 0.000000 1.783010 0.000000 
#    z 0.000000 0.000000 1.783010 
# 
# From -- ./inp_files/1103.got.cif
#   From: 2010.05.17/outbox.cif.g08.bks.cpg/sg146_cif.got.tgz:1103.got - 2010.05.20 13:48:23.
