data_PCOD9574779
_publ_section_title
;
Structure prediction by ZEFSAII (Michael W. Deem and Ramdas Pophale) SiO2 
 PCOD9574779
Probable space group: R 3
;
_chemical_formula_sum "Si O2"
_cell_formula_units_Z 36
_cell_length_a 10.760632
_cell_length_b 10.760632
_cell_length_c 14.601394
_cell_angle_alpha 90.000000
_cell_angle_beta 90.000000
_cell_angle_gamma 120.000000
_cell_volume 1464.200364
_symmetry_space_group_name_H-M "R 3"
_symmetry_group_IT_number 146
_symmetry_cell_setting 'hexagonal'
loop_
_space_group_symop_operation_xyz
x,y,z
-y,x-y,z
-x+y,-x,z
2/3+x,1/3+y,1/3+z
2/3-y,1/3+x-y,1/3+z
2/3-x+y,1/3-x,1/3+z
1/3+x,2/3+y,2/3+z
1/3-y,2/3+x-y,2/3+z
1/3-x+y,2/3-x,2/3+z
loop_
_atom_site_type_symbol
_atom_site_label
_atom_site_fract_x
_atom_site_fract_y
_atom_site_fract_z
Si Si1 0.314796 0.911867 0.638610
Si Si2 0.495193 0.835958 0.177990
Si Si3 0.957497 0.632603 0.344188
Si Si4 0.299051 0.812086 0.432221
O O1 0.275863 0.023288 0.686028
O O2 0.285929 0.865139 0.532087
O O3 0.481271 0.966504 0.646588
O O4 0.204413 0.768264 0.695629
O O5 0.327324 0.794187 0.178656
O O6 0.592642 0.927436 0.263318
O O7 0.582157 0.927788 0.090660
O O8 0.191029 0.640640 0.425912
#
# Coordination Sequence:
#
# PCOD9574779 Si02
#       4
#     9   9   9   9
#     4  12  25  47  85 120 175 219 285 365 421 527
#     4  10  29  58  85 126 174 232 293 363 434 512
#     4  12  26  53  83 129 167 228 290 353 443 514
#     4  10  24  50  77 119 164 229 288 341 436 509
#
# _framework density 24.586801000000001
#
# number of rings (size 3 to 8) (size 9 to 14) (size 15 to 20)
#    1.000    0.000    2.500    2.000    3.500    4.000 
#    9.000    0.000    0.000    0.000    0.000    0.000 
#    0.000    0.000    0.000    0.000    0.000    0.000 
#
# Total GULP energy -66977.358307 kJ/mol
# GULP energy per Si atom -5581.446526 kJ/mol
# Density = 2.453084 g / cm^3
# Si number density = 24.586801 Si / 1000 Ang^3
#
#
#
# Elastic Constant Matrix: (Units=GPa)
#
#
# Indices 1 2 3 4 5 6 
#
# 1 179.9303 80.0396 95.1186 5.3742 -11.0381 0.0000
# 2 80.0396 179.9303 95.1186 -5.3742 11.0381 0.0000
# 3 95.1186 95.1186 194.9172 0.0000 0.0000 0.0000
# 4 5.3742 -5.3742 0.0000 56.7722 0.0000 11.0381
# 5 -11.0381 11.0381 0.0000 0.0000 56.7722 5.3742
# 6 0.0000 0.0000 0.0000 11.0381 5.3742 49.9453
#
#
#
# Elastic Compliance Matrix: (Units=1/GPa)
#
#
# Indices 1 2 3 4 5 6 
#
# 1 0.008278 -0.002295 -0.002920 -0.001001 0.002056 0.000000
# 2 -0.002295 0.008278 -0.002920 0.001001 -0.002056 0.000000
# 3 -0.002920 -0.002920 0.007980 0.000000 0.000000 0.000000
# 4 -0.001001 0.001001 0.000000 0.018603 0.000000 -0.004111
# 5 0.002056 -0.002056 0.000000 0.000000 0.018603 -0.002002
# 6 0.000000 0.000000 0.000000 -0.004111 -0.002002 0.021146
#
#
# Mechanical properties :
#
#
# Convention : Reuss Voigt Hill
#
# Bulk Modulus (GPa) = 120.95763 121.70348 121.33055
# Shear Modulus (GPa) = 49.06151 51.66468 50.36310
#
# Velocity S-wave (km/s) = 4.47188 4.58899 4.53081
# Velocity P-wave (km/s) = 8.71588 8.81393 8.76504
#
# Compressibility (1/GPa) = 0.00826736
#
# Stress axis : x y z
#
# Youngs Moduli (GPa) = 120.80114 120.80114 125.31266
#
# Poissons Ratio (x) = 0.27722 0.36588
# Poissons Ratio (y) = 0.27722 0.36588
# Poissons Ratio (z) = 0.35271 0.35271
#
# Static dielectric constant tensor:
#      x y z
#    x 2.141280 0.000000 0.000000 
#    y 0.000000 2.141280 0.000000 
#    z 0.000000 0.000000 1.939980 
# 
# From -- ./inp_files/1375.got.cif
#   From: 2010.05.17/outbox.cif.g08.bks.cpg/sg146_cif.got.tgz:1375.got - 2010.05.20 13:48:23.
