data_PCOD9574192
_publ_section_title
;
Structure prediction by ZEFSAII (Michael W. Deem and Ramdas Pophale) SiO2 
 PCOD9574192
Probable space group: I 41/A C D
;
_chemical_formula_sum "Si O2"
_cell_formula_units_Z 88
_cell_length_a 13.535173
_cell_length_b 13.535173
_cell_length_c 23.064394
_cell_angle_alpha 90.000000
_cell_angle_beta 90.000000
_cell_angle_gamma 90.000000
_cell_volume 4225.417926
_symmetry_space_group_name_H-M "I 41/A C D"
_symmetry_group_IT_number 142
_space_group.IT_coordinate_system_code '2'
_symmetry_cell_setting 'tetragonal'
loop_
_space_group_symop_operation_xyz
x,y,z
1/4-y,3/4+x,1/4+z
-x,1/2-y,z
1/4+y,1/4-x,3/4+z
x,-y,1/2-z
1/2-x,y,-z
3/4+y,1/4+x,1/4-z
1/4-y,1/4-x,1/4-z
-x,-y,-z
3/4+y,1/4-x,3/4-z
x,1/2+y,-z
3/4-y,3/4+x,1/4-z
-x,y,1/2+z
1/2+x,-y,z
1/4-y,3/4-x,3/4+z
3/4+y,3/4+x,3/4+z
1/2+x,1/2+y,1/2+z
3/4-y,1/4+x,3/4+z
1/2-x,-y,1/2+z
3/4+y,3/4-x,1/4+z
1/2+x,1/2-y,-z
-x,1/2+y,1/2-z
1/4+y,3/4+x,3/4-z
3/4-y,3/4-x,3/4-z
1/2-x,1/2-y,1/2-z
1/4+y,3/4-x,1/4-z
1/2+x,y,1/2-z
1/4-y,1/4+x,3/4-z
1/2-x,1/2+y,z
x,1/2-y,1/2+z
3/4-y,1/4-x,1/4+z
1/4+y,1/4+x,1/4+z
loop_
_atom_site_type_symbol
_atom_site_label
_atom_site_fract_x
_atom_site_fract_y
_atom_site_fract_z
Si Si1 0.054467 0.937863 0.551602
Si Si2 0.494483 0.595678 0.142110
Si Si3 0.500000 0.750000 0.375000
Si Si4 0.591948 0.500000 0.750000
O O1 0.165462 0.907224 0.532126
O O2 0.003613 0.840609 0.579205
O O3 0.042706 0.008696 0.606118
O O4 0.000000 0.000000 0.500000
O O5 0.384939 0.634939 0.125000
O O6 0.566641 0.683360 0.125000
O O7 0.478836 0.560972 0.207144
#
# Coordination Sequence:
#
# PCOD9574192 Si02
#       4
#    32  32   8  16
#     4  12  27  46  79 110 154 197 261 314 387 464
#     4  11  26  47  75 111 150 197 252 313 384 458
#     4  12  28  48  76 118 156 212 248 332 394 456
#     4  12  26  48  76 112 154 198 256 314 388 460
#
# _framework density 20.826342
#
# number of rings (size 3 to 8) (size 9 to 14) (size 15 to 20)
#    0.000    0.364    7.273    0.000    5.091    5.818 
#    0.000    0.000    0.000    0.000    0.000    0.000 
#    0.000    0.000    0.000    0.000    0.000    0.000 
#
# Total GULP energy -244958.667048 kJ/mol
# GULP energy per Si atom -5567.242433 kJ/mol
# Density = 2.077894 g / cm^3
# Si number density = 20.826342 Si / 1000 Ang^3
#
#
#
# Elastic Constant Matrix: (Units=GPa)
#
#
# Indices 1 2 3 4 5 6 
#
# 1 110.2758 52.0302 52.0766 0.0000 0.0000 0.0000
# 2 52.0302 110.2720 52.0751 0.0000 0.0000 0.0000
# 3 52.0766 52.0751 103.2465 0.0000 0.0000 0.0000
# 4 0.0000 0.0000 0.0000 58.2909 0.0000 0.0000
# 5 0.0000 0.0000 0.0000 0.0000 58.2896 0.0000
# 6 0.0000 0.0000 0.0000 0.0000 0.0000 32.6112
#
#
#
# Elastic Compliance Matrix: (Units=1/GPa)
#
#
# Indices 1 2 3 4 5 6 
#
# 1 0.013139 -0.004030 -0.004595 0.000000 0.000000 0.000000
# 2 -0.004030 0.013140 -0.004595 0.000000 0.000000 0.000000
# 3 -0.004595 -0.004595 0.014321 0.000000 0.000000 0.000000
# 4 0.000000 0.000000 0.000000 0.017155 0.000000 0.000000
# 5 0.000000 0.000000 0.000000 0.000000 0.017156 0.000000
# 6 0.000000 0.000000 0.000000 0.000000 0.000000 0.030664
#
#
# Mechanical properties :
#
#
# Convention : Reuss Voigt Hill
#
# Bulk Modulus (GPa) = 70.61674 70.68423 70.65049
# Shear Modulus (GPa) = 36.56729 41.01250 38.78990
#
# Velocity S-wave (km/s) = 4.19480 4.44245 4.32040
# Velocity P-wave (km/s) = 7.57910 7.76707 7.67366
#
# Compressibility (1/GPa) = 0.01416095
#
# Stress axis : x y z
#
# Youngs Moduli (GPa) = 76.10722 76.10514 69.82910
#
# Poissons Ratio (x) = 0.30668 0.32086
# Poissons Ratio (y) = 0.30669 0.32085
# Poissons Ratio (z) = 0.34970 0.34969
#
# Static dielectric constant tensor:
#      x y z
#    x 1.848970 0.000000 0.000000 
#    y 0.000000 1.848960 0.000000 
#    z 0.000000 0.000000 1.872180 
# 
# From -- ./inp_files/8280.got.cif
#   From: 2010.05.17/outbox.cif.g08.bks.cpg/sg142_5_cif.got.tgz:8280.got - 2010.05.20 13:39:18.
