data_PCOD9574673
_publ_section_title
;
Structure prediction by ZEFSAII (Michael W. Deem and Ramdas Pophale) SiO2 
 PCOD9574673
Probable space group: R 3
;
_chemical_formula_sum "Si O2"
_cell_formula_units_Z 33
_cell_length_a 13.955399
_cell_length_b 13.955399
_cell_length_c 7.605038
_cell_angle_alpha 90.000000
_cell_angle_beta 90.000000
_cell_angle_gamma 120.000000
_cell_volume 1282.674722
_symmetry_space_group_name_H-M "R 3"
_symmetry_group_IT_number 146
_symmetry_cell_setting 'hexagonal'
loop_
_space_group_symop_operation_xyz
x,y,z
-y,x-y,z
-x+y,-x,z
2/3+x,1/3+y,1/3+z
2/3-y,1/3+x-y,1/3+z
2/3-x+y,1/3-x,1/3+z
1/3+x,2/3+y,2/3+z
1/3-y,2/3+x-y,2/3+z
1/3-x+y,2/3-x,2/3+z
loop_
_atom_site_type_symbol
_atom_site_label
_atom_site_fract_x
_atom_site_fract_y
_atom_site_fract_z
Si Si1 0.000000 0.000000 0.381147
Si Si2 0.666661 0.787731 0.003654
Si Si3 0.121677 0.243461 0.371277
Si Si4 0.000000 0.000000 0.959424
Si Si5 0.544878 0.089874 0.302691
O O1 0.877995 0.974097 0.426465
O O2 0.000000 0.000000 0.170289
O O3 0.713917 0.868581 0.171295
O O4 0.565069 0.667211 0.056523
O O5 0.768261 0.768813 0.950786
O O6 0.619402 0.821320 0.836012
O O7 0.204551 0.333328 0.503663
O O8 0.122010 0.096099 0.914125
#
# Coordination Sequence:
#
# PCOD9574673 Si02
#       5
#     3   9   9   3   9
#     4  12  24  42  78 112 153 192 259 318 369 448
#     4  10  18  34  74  90 138 192 234 290 376 442
#     4  11  21  42  68 106 141 202 241 302 379 446
#     4  12  24  42  78 112 153 192 259 318 369 448
#     4  11  21  42  68 106 141 202 241 302 379 446
#
# _framework density 25.72749
#
# number of rings (size 3 to 8) (size 9 to 14) (size 15 to 20)
#    0.000    1.091   10.909    0.000    0.000    0.000 
#    0.000   16.364   12.000    0.000   14.182    0.000 
#    0.000    0.000    0.000    0.000    0.000    0.000 
#
# Total GULP energy -61576.212449 kJ/mol
# GULP energy per Si atom -5597.837495 kJ/mol
# Density = 2.566893 g / cm^3
# Si number density = 25.727490 Si / 1000 Ang^3
#
#
#
# Elastic Constant Matrix: (Units=GPa)
#
#
# Indices 1 2 3 4 5 6 
#
# 1 117.8067 29.4549 48.5653 -9.9283 -0.0033 0.0000
# 2 29.4549 117.8067 48.5652 9.9284 0.0034 0.0000
# 3 48.5653 48.5652 130.6342 0.0001 0.0004 0.0000
# 4 -9.9283 9.9284 0.0001 12.2557 0.0001 0.0034
# 5 -0.0033 0.0034 0.0004 0.0001 12.2559 -9.9284
# 6 0.0000 0.0000 0.0000 0.0034 -9.9284 44.1759
#
#
#
# Elastic Compliance Matrix: (Units=1/GPa)
#
#
# Indices 1 2 3 4 5 6 
#
# 1 0.011417 -0.002421 -0.003345 0.011210 0.000004 0.000000
# 2 -0.002421 0.011417 -0.003345 -0.011210 -0.000004 0.000000
# 3 -0.003345 -0.003345 0.010142 0.000000 0.000000 0.000000
# 4 0.011210 -0.011210 0.000000 0.099757 -0.000001 -0.000008
# 5 0.000004 -0.000004 0.000000 -0.000001 0.099755 0.022420
# 6 0.000000 0.000000 0.000000 -0.000008 0.022420 0.027676
#
#
# Mechanical properties :
#
#
# Convention : Reuss Voigt Hill
#
# Bulk Modulus (GPa) = 67.76638 68.82427 68.29533
# Shear Modulus (GPa) = 17.64896 29.71497 23.68197
#
# Velocity S-wave (km/s) = 2.62199 3.40220 3.03725
# Velocity P-wave (km/s) = 5.96353 6.49943 6.23724
#
# Compressibility (1/GPa) = 0.01475658
#
# Stress axis : x y z
#
# Youngs Moduli (GPa) = 87.58664 87.58681 98.60169
#
# Poissons Ratio (x) = 0.21201 0.32979
# Poissons Ratio (y) = 0.21201 0.32979
# Poissons Ratio (z) = 0.29295 0.29295
#
# Static dielectric constant tensor:
#      x y z
#    x 2.049410 0.000000 0.000000 
#    y 0.000000 2.049410 0.000000 
#    z 0.000000 0.000000 1.997800 
# 
# From -- ./inp_files/546.got.cif
#   From: 2010.05.17/outbox.cif.g08.bks.cpg/sg146_cif.got.tgz:546.got - 2010.05.20 13:48:23.
