data_PCOD9574096
_publ_section_title
;
Structure prediction by ZEFSAII (Michael W. Deem and Ramdas Pophale) SiO2 
 PCOD9574096
Probable space group: I 41/A C D
;
_chemical_formula_sum "Si O2"
_cell_formula_units_Z 112
_cell_length_a 13.937987
_cell_length_b 13.937987
_cell_length_c 25.553948
_cell_angle_alpha 90.000000
_cell_angle_beta 90.000000
_cell_angle_gamma 90.000000
_cell_volume 4964.301123
_symmetry_space_group_name_H-M "I 41/A C D"
_symmetry_group_IT_number 142
_space_group.IT_coordinate_system_code '2'
_symmetry_cell_setting 'tetragonal'
loop_
_space_group_symop_operation_xyz
x,y,z
1/4-y,3/4+x,1/4+z
-x,1/2-y,z
1/4+y,1/4-x,3/4+z
x,-y,1/2-z
1/2-x,y,-z
3/4+y,1/4+x,1/4-z
1/4-y,1/4-x,1/4-z
-x,-y,-z
3/4+y,1/4-x,3/4-z
x,1/2+y,-z
3/4-y,3/4+x,1/4-z
-x,y,1/2+z
1/2+x,-y,z
1/4-y,3/4-x,3/4+z
3/4+y,3/4+x,3/4+z
1/2+x,1/2+y,1/2+z
3/4-y,1/4+x,3/4+z
1/2-x,-y,1/2+z
3/4+y,3/4-x,1/4+z
1/2+x,1/2-y,-z
-x,1/2+y,1/2-z
1/4+y,3/4+x,3/4-z
3/4-y,3/4-x,3/4-z
1/2-x,1/2-y,1/2-z
1/4+y,3/4-x,1/4-z
1/2+x,y,1/2-z
1/4-y,1/4+x,3/4-z
1/2-x,1/2+y,z
x,1/2-y,1/2+z
3/4-y,1/4-x,1/4+z
1/4+y,1/4+x,1/4+z
loop_
_atom_site_type_symbol
_atom_site_label
_atom_site_fract_x
_atom_site_fract_y
_atom_site_fract_z
Si Si1 0.136083 0.966341 0.425660
Si Si2 0.750000 0.889981 0.500000
Si Si3 0.972354 0.097843 0.860903
Si Si4 0.024286 0.362340 0.741880
O O1 0.201956 0.951956 0.375000
O O2 0.120407 0.866147 0.454877
O O3 0.187131 0.041450 0.463514
O O4 0.039671 0.007903 0.399063
O O5 0.827641 0.818537 0.472931
O O6 0.895637 0.174576 0.882381
O O7 0.952842 0.091885 0.799023
O O8 0.000000 0.250000 0.749663
#
# Coordination Sequence:
#
# PCOD9574096 Si02
#       4
#    32  16  32  32
#     4  12  27  43  73 109 151 198 249 311 381 453
#     4  12  24  48  72 104 154 198 248 310 372 460
#     4  11  21  45  74 102 140 197 248 302 380 451
#     4  12  26  49  77 113 149 194 262 316 371 455
#
# _framework density 22.561081000000001
#
# number of rings (size 3 to 8) (size 9 to 14) (size 15 to 20)
#    0.000    0.286    5.714    4.286    0.000    7.429 
#    0.000    0.000    0.000    0.000    0.000    0.000 
#    0.000    0.000    0.000    0.000    0.000    0.000 
#
# Total GULP energy -313175.361341 kJ/mol
# GULP energy per Si atom -5592.417167 kJ/mol
# Density = 2.250973 g / cm^3
# Si number density = 22.561081 Si / 1000 Ang^3
#
#
#
# Elastic Constant Matrix: (Units=GPa)
#
#
# Indices 1 2 3 4 5 6 
#
# 1 112.2069 47.6912 53.0587 0.0000 0.0000 0.0000
# 2 47.6912 112.2069 53.0587 0.0000 0.0000 0.0000
# 3 53.0587 53.0587 122.5538 0.0000 0.0000 0.0000
# 4 0.0000 0.0000 0.0000 22.6188 0.0000 0.0000
# 5 0.0000 0.0000 0.0000 0.0000 22.6188 0.0000
# 6 0.0000 0.0000 0.0000 0.0000 0.0000 22.3555
#
#
#
# Elastic Compliance Matrix: (Units=1/GPa)
#
#
# Indices 1 2 3 4 5 6 
#
# 1 0.012138 -0.003362 -0.003799 0.000000 0.000000 0.000000
# 2 -0.003362 0.012138 -0.003799 0.000000 0.000000 0.000000
# 3 -0.003799 -0.003799 0.011449 0.000000 0.000000 0.000000
# 4 0.000000 0.000000 0.000000 0.044211 0.000000 0.000000
# 5 0.000000 0.000000 0.000000 0.000000 0.044211 0.000000
# 6 0.000000 0.000000 0.000000 0.000000 0.000000 0.044732
#
#
# Mechanical properties :
#
#
# Convention : Reuss Voigt Hill
#
# Bulk Modulus (GPa) = 72.44698 72.73165 72.58932
# Shear Modulus (GPa) = 25.58836 26.39588 25.99212
#
# Velocity S-wave (km/s) = 3.37141 3.42420 3.39791
# Velocity P-wave (km/s) = 6.88015 6.92396 6.90209
#
# Compressibility (1/GPa) = 0.01380320
#
# Stress axis : x y z
#
# Youngs Moduli (GPa) = 82.38772 82.38772 87.34113
#
# Poissons Ratio (x) = 0.27702 0.33183
# Poissons Ratio (y) = 0.27702 0.33183
# Poissons Ratio (z) = 0.31301 0.31301
#
# Static dielectric constant tensor:
#      x y z
#    x 1.918810 0.000000 0.000000 
#    y 0.000000 1.918810 0.000000 
#    z 0.000000 0.000000 1.844970 
# 
# From -- ./inp_files/9742.got.cif
#   From: 2010.05.17/outbox.cif.g08.bks.cpg/sg142_5_cif.got.tgz:9742.got - 2010.05.20 13:39:18.
