data_PCOD9574447
_publ_section_title
;
Structure prediction by ZEFSAII (Michael W. Deem and Ramdas Pophale) SiO2 
 PCOD9574447
Probable space group: P 31
;
_chemical_formula_sum "Si O2"
_cell_formula_units_Z 24
_cell_length_a 14.523230
_cell_length_b 14.523230
_cell_length_c 6.533949
_cell_angle_alpha 90.000000
_cell_angle_beta 90.000000
_cell_angle_gamma 120.000000
_cell_volume 1193.528523
_symmetry_space_group_name_H-M "P 31"
_symmetry_group_IT_number 144
_symmetry_cell_setting 'hexagonal'
loop_
_space_group_symop_operation_xyz
x,y,z
-y,x-y,1/3+z
-x+y,-x,2/3+z
loop_
_atom_site_type_symbol
_atom_site_label
_atom_site_fract_x
_atom_site_fract_y
_atom_site_fract_z
Si Si1 0.520335 0.829637 0.973440
Si Si2 0.657015 0.015773 0.661991
Si Si3 0.122161 0.476972 0.400291
Si Si4 0.588792 0.349631 0.821985
Si Si5 0.876622 0.657184 0.368855
Si Si6 0.691406 0.909767 0.286176
Si Si7 0.493391 0.051479 0.392846
Si Si8 0.298471 0.987562 0.699930
O O1 0.542385 0.742242 0.875629
O O2 0.580485 0.934287 0.833529
O O3 0.400678 0.805521 0.976913
O O4 0.571119 0.852327 0.198796
O O5 0.586047 0.049142 0.525970
O O6 0.695124 0.954611 0.510917
O O7 0.753891 0.105207 0.793278
O O8 0.068184 0.389080 0.225220
O O9 0.030904 0.479370 0.537274
O O10 0.654904 0.384420 0.612917
O O11 0.462563 0.294536 0.785255
O O12 0.621094 0.452584 0.962377
O O13 0.791316 0.692204 0.419353
O O14 0.988068 0.741375 0.473270
O O15 0.722689 0.818749 0.284063
O O16 0.392387 0.017665 0.536690
#
# Coordination Sequence:
#
# PCOD9574447 Si02
#       8
#     3   3   3   3   3   3   3   3
#     4  11  23  39  63 100 135 176 228 271 346 414
#     4  11  22  43  68  93 133 183 217 290 353 403
#     4  12  24  39  66 101 138 179 231 285 336 427
#     4  12  27  43  67 103 150 188 235 285 350 435
#     4  11  27  44  70 103 134 181 240 285 359 423
#     4  11  23  47  67  92 137 179 226 293 348 410
#     4  12  24  40  68  98 138 180 228 284 349 417
#     4  12  26  43  71 100 135 184 239 287 349 423
#
# _framework density 20.108443999999999
#
# number of rings (size 3 to 8) (size 9 to 14) (size 15 to 20)
#    0.000    0.500    6.250    2.250    5.250    3.000 
#    0.000    1.250    0.000    0.000    0.000    0.000 
#    0.000    0.000    0.000    0.000    0.000    0.000 
#
# Total GULP energy -134120.809024 kJ/mol
# GULP energy per Si atom -5588.367043 kJ/mol
# Density = 2.006268 g / cm^3
# Si number density = 20.108444 Si / 1000 Ang^3
#
#
#
# Elastic Constant Matrix: (Units=GPa)
#
#
# Indices 1 2 3 4 5 6 
#
# 1 92.1974 45.7510 32.3929 1.1232 -0.1793 0.0000
# 2 45.7510 92.1974 32.3929 -1.1232 0.1793 0.0000
# 3 32.3929 32.3929 84.4216 0.0000 0.0000 0.0000
# 4 1.1232 -1.1232 0.0000 30.3451 0.0000 0.1793
# 5 -0.1793 0.1793 0.0000 0.0000 30.3451 1.1232
# 6 0.0000 0.0000 0.0000 0.1793 1.1232 23.2232
#
#
#
# Elastic Compliance Matrix: (Units=1/GPa)
#
#
# Indices 1 2 3 4 5 6 
#
# 1 0.015206 -0.006364 -0.003393 -0.000798 0.000127 0.000000
# 2 -0.006364 0.015206 -0.003393 0.000798 -0.000127 0.000000
# 3 -0.003393 -0.003393 0.014449 0.000000 0.000000 0.000000
# 4 -0.000798 0.000798 0.000000 0.033015 0.000000 -0.000255
# 5 0.000127 -0.000127 0.000000 0.000000 0.033015 -0.001597
# 6 0.000000 0.000000 0.000000 -0.000255 -0.001597 0.043140
#
#
# Mechanical properties :
#
#
# Convention : Reuss Voigt Hill
#
# Bulk Modulus (GPa) = 53.87215 54.43221 54.15218
# Shear Modulus (GPa) = 26.80720 27.33465 27.07092
#
# Velocity S-wave (km/s) = 3.65517 3.69095 3.67310
# Velocity P-wave (km/s) = 6.68301 6.72995 6.70652
#
# Compressibility (1/GPa) = 0.01856247
#
# Stress axis : x y z
#
# Youngs Moduli (GPa) = 65.76286 65.76286 69.20869
#
# Poissons Ratio (x) = 0.41849 0.23482
# Poissons Ratio (y) = 0.41849 0.23482
# Poissons Ratio (z) = 0.22313 0.22313
#
# Static dielectric constant tensor:
#      x y z
#    x 1.724420 0.000000 0.000000 
#    y 0.000000 1.724420 0.000000 
#    z 0.000000 0.000000 1.725960 
# 
# From -- ./inp_files/164.got.cif
#   From: 2010.05.17/outbox.cif.g08.bks.cpg/sg144_cif.got.tgz:164.got - 2010.05.20 13:46:34.
