data_PCOD9574222
_publ_section_title
;
Structure prediction by ZEFSAII (Michael W. Deem and Ramdas Pophale) SiO2 
 PCOD9574222
Probable space group: I 41/A C D
;
_chemical_formula_sum "Si O2"
_cell_formula_units_Z 112
_cell_length_a 18.810040
_cell_length_b 18.810040
_cell_length_c 13.401074
_cell_angle_alpha 90.000000
_cell_angle_beta 90.000000
_cell_angle_gamma 90.000000
_cell_volume 4741.535904
_symmetry_space_group_name_H-M "I 41/A C D"
_symmetry_group_IT_number 142
_space_group.IT_coordinate_system_code '2'
_symmetry_cell_setting 'tetragonal'
loop_
_space_group_symop_operation_xyz
x,y,z
1/4-y,3/4+x,1/4+z
-x,1/2-y,z
1/4+y,1/4-x,3/4+z
x,-y,1/2-z
1/2-x,y,-z
3/4+y,1/4+x,1/4-z
1/4-y,1/4-x,1/4-z
-x,-y,-z
3/4+y,1/4-x,3/4-z
x,1/2+y,-z
3/4-y,3/4+x,1/4-z
-x,y,1/2+z
1/2+x,-y,z
1/4-y,3/4-x,3/4+z
3/4+y,3/4+x,3/4+z
1/2+x,1/2+y,1/2+z
3/4-y,1/4+x,3/4+z
1/2-x,-y,1/2+z
3/4+y,3/4-x,1/4+z
1/2+x,1/2-y,-z
-x,1/2+y,1/2-z
1/4+y,3/4+x,3/4-z
3/4-y,3/4-x,3/4-z
1/2-x,1/2-y,1/2-z
1/4+y,3/4-x,1/4-z
1/2+x,y,1/2-z
1/4-y,1/4+x,3/4-z
1/2-x,1/2+y,z
x,1/2-y,1/2+z
3/4-y,1/4-x,1/4+z
1/4+y,1/4+x,1/4+z
loop_
_atom_site_type_symbol
_atom_site_label
_atom_site_fract_x
_atom_site_fract_y
_atom_site_fract_z
Si Si1 0.751805 0.392817 0.616253
Si Si2 0.533169 0.080544 0.995056
Si Si3 0.329015 0.147719 0.043647
Si Si4 0.567112 0.682889 0.625000
O O1 0.750000 0.371402 0.500000
O O2 0.774832 0.475169 0.625000
O O3 0.810828 0.351025 0.678342
O O4 0.553686 0.409999 0.609968
O O5 0.362869 0.072942 0.077657
O O6 0.497215 0.152486 0.947785
O O7 0.500000 0.000000 0.000000
O O8 0.369397 0.181845 0.952389
O O9 0.250000 0.137603 0.000000
#
# Coordination Sequence:
#
# PCOD9574222 Si02
#       4
#    32  32  32  16
#     4  12  25  43  73 112 154 194 262 335 401 461
#     4  12  26  46  73 111 154 206 253 326 392 473
#     4  12  24  44  76 114 154 201 264 331 400 461
#     4  12  28  48  77 110 154 208 264 317 396 488
#
# _framework density 23.621037999999999
#
# number of rings (size 3 to 8) (size 9 to 14) (size 15 to 20)
#    0.000    0.000    8.571    0.857    6.000    0.000 
#    0.000    0.714    0.000    0.000    0.000    0.000 
#    0.000    0.000    0.000    0.000    0.000    0.000 
#
# Total GULP energy -312000.082452 kJ/mol
# GULP energy per Si atom -5571.430044 kJ/mol
# Density = 2.356728 g / cm^3
# Si number density = 23.621038 Si / 1000 Ang^3
#
#
#
# Elastic Constant Matrix: (Units=GPa)
#
#
# Indices 1 2 3 4 5 6 
#
# 1 58.3471 17.4306 20.0117 0.0000 0.0000 0.0000
# 2 17.4306 58.3416 20.0097 0.0000 0.0000 0.0000
# 3 20.0117 20.0097 185.7895 0.0000 0.0000 0.0000
# 4 0.0000 0.0000 0.0000 33.3411 0.0000 0.0000
# 5 0.0000 0.0000 0.0000 0.0000 33.3427 0.0000
# 6 0.0000 0.0000 0.0000 0.0000 0.0000 39.9972
#
#
#
# Elastic Compliance Matrix: (Units=1/GPa)
#
#
# Indices 1 2 3 4 5 6 
#
# 1 0.019216 -0.005224 -0.001507 0.000000 0.000000 0.000000
# 2 -0.005224 0.019218 -0.001507 0.000000 0.000000 0.000000
# 3 -0.001507 -0.001507 0.005707 0.000000 0.000000 0.000000
# 4 0.000000 0.000000 0.000000 0.029993 0.000000 0.000000
# 5 0.000000 0.000000 0.000000 0.000000 0.029992 0.000000
# 6 0.000000 0.000000 0.000000 0.000000 0.000000 0.025002
#
#
# Mechanical properties :
#
#
# Convention : Reuss Voigt Hill
#
# Bulk Modulus (GPa) = 36.14737 46.37580 41.26158
# Shear Modulus (GPa) = 32.29416 37.67128 34.98272
#
# Velocity S-wave (km/s) = 3.70155 3.99785 3.85255
# Velocity P-wave (km/s) = 5.79697 6.40205 6.10701
#
# Compressibility (1/GPa) = 0.02766453
#
# Stress axis : x y z
#
# Youngs Moduli (GPa) = 52.03880 52.03404 175.22064
#
# Poissons Ratio (x) = 0.27184 0.26409
# Poissons Ratio (y) = 0.27187 0.26407
# Poissons Ratio (z) = 0.07843 0.07842
#
# Static dielectric constant tensor:
#      x y z
#    x 1.951600 0.000000 0.000000 
#    y 0.000000 1.951610 0.000000 
#    z 0.000000 0.000000 1.818570 
# 
# From -- ./inp_files/7007.got.cif
#   From: 2010.05.17/outbox.cif.g08.bks.cpg/sg142_4_cif.got.tgz:7007.got - 2010.05.20 13:39:18.
