data_PCOD9574032
_publ_section_title
;
Structure prediction by ZEFSAII (Michael W. Deem and Ramdas Pophale) SiO2 
 PCOD9574032
Probable space group: I 41/A C D
;
_chemical_formula_sum "Si O2"
_cell_formula_units_Z 160
_cell_length_a 18.022912
_cell_length_b 18.022912
_cell_length_c 21.721430
_cell_angle_alpha 90.000000
_cell_angle_beta 90.000000
_cell_angle_gamma 90.000000
_cell_volume 7055.671253
_symmetry_space_group_name_H-M "I 41/A C D"
_symmetry_group_IT_number 142
_space_group.IT_coordinate_system_code '2'
_symmetry_cell_setting 'tetragonal'
loop_
_space_group_symop_operation_xyz
x,y,z
1/4-y,3/4+x,1/4+z
-x,1/2-y,z
1/4+y,1/4-x,3/4+z
x,-y,1/2-z
1/2-x,y,-z
3/4+y,1/4+x,1/4-z
1/4-y,1/4-x,1/4-z
-x,-y,-z
3/4+y,1/4-x,3/4-z
x,1/2+y,-z
3/4-y,3/4+x,1/4-z
-x,y,1/2+z
1/2+x,-y,z
1/4-y,3/4-x,3/4+z
3/4+y,3/4+x,3/4+z
1/2+x,1/2+y,1/2+z
3/4-y,1/4+x,3/4+z
1/2-x,-y,1/2+z
3/4+y,3/4-x,1/4+z
1/2+x,1/2-y,-z
-x,1/2+y,1/2-z
1/4+y,3/4+x,3/4-z
3/4-y,3/4-x,3/4-z
1/2-x,1/2-y,1/2-z
1/4+y,3/4-x,1/4-z
1/2+x,y,1/2-z
1/4-y,1/4+x,3/4-z
1/2-x,1/2+y,z
x,1/2-y,1/2+z
3/4-y,1/4-x,1/4+z
1/4+y,1/4+x,1/4+z
loop_
_atom_site_type_symbol
_atom_site_label
_atom_site_fract_x
_atom_site_fract_y
_atom_site_fract_z
Si Si1 0.078264 0.217235 0.017773
Si Si2 0.573321 0.950926 0.004911
Si Si3 0.066362 0.058700 0.805292
Si Si4 0.784744 0.816639 0.896391
Si Si5 0.699675 0.937456 0.345574
O O1 0.063425 0.136136 0.988572
O O2 0.138309 0.203469 0.071296
O O3 0.000000 0.250000 0.038812
O O4 0.120001 0.274945 0.972911
O O5 0.592420 0.953876 0.076863
O O6 0.637366 0.979266 0.960096
O O7 0.500000 0.000000 0.000000
O O8 0.134543 0.078384 0.849034
O O9 0.084689 0.000000 0.750000
O O10 0.006338 0.015553 0.847326
O O11 0.738987 0.882782 0.927819
O O12 0.763296 0.986705 0.375000
#
# Coordination Sequence:
#
# PCOD9574032 Si02
#       5
#    32  32  32  32  32
#     4  11  26  49  79 109 151 211 259 327 395 473
#     4  12  26  45  72 112 149 200 261 318 392 476
#     4  10  24  47  72 104 154 205 255 323 393 472
#     4  11  25  49  74 104 157 200 255 326 397 473
#     4  12  27  45  76 112 153 205 258 323 401 475
#
# _framework density 22.676793
#
# number of rings (size 3 to 8) (size 9 to 14) (size 15 to 20)
#    0.000    0.800    4.000    1.800    5.600    4.800 
#    0.000    0.000    0.000    0.000    0.000    0.000 
#    0.000    0.000    0.000    0.000    0.000    0.000 
#
# Total GULP energy -447925.864681 kJ/mol
# GULP energy per Si atom -5599.073309 kJ/mol
# Density = 2.262518 g / cm^3
# Si number density = 22.676793 Si / 1000 Ang^3
#
#
#
# Elastic Constant Matrix: (Units=GPa)
#
#
# Indices 1 2 3 4 5 6 
#
# 1 136.0577 66.8429 41.9164 0.0000 0.0000 0.0000
# 2 66.8429 136.0559 41.9141 0.0000 0.0000 0.0000
# 3 41.9164 41.9141 109.4865 0.0000 0.0000 0.0000
# 4 0.0000 0.0000 0.0000 24.8478 0.0000 0.0000
# 5 0.0000 0.0000 0.0000 0.0000 24.8490 0.0000
# 6 0.0000 0.0000 0.0000 0.0000 0.0000 51.3608
#
#
#
# Elastic Compliance Matrix: (Units=1/GPa)
#
#
# Indices 1 2 3 4 5 6 
#
# 1 0.010151 -0.004297 -0.002241 0.000000 0.000000 0.000000
# 2 -0.004297 0.010151 -0.002241 0.000000 0.000000 0.000000
# 3 -0.002241 -0.002241 0.010850 0.000000 0.000000 0.000000
# 4 0.000000 0.000000 0.000000 0.040245 0.000000 0.000000
# 5 0.000000 0.000000 0.000000 0.000000 0.040243 0.000000
# 6 0.000000 0.000000 0.000000 0.000000 0.000000 0.019470
#
#
# Mechanical properties :
#
#
# Convention : Reuss Voigt Hill
#
# Bulk Modulus (GPa) = 73.56469 75.88300 74.72384
# Shear Modulus (GPa) = 32.63701 35.60662 34.12182
#
# Velocity S-wave (km/s) = 3.79783 3.96685 3.88326
# Velocity P-wave (km/s) = 7.19321 7.38354 7.28900
#
# Compressibility (1/GPa) = 0.01359348
#
# Stress axis : x y z
#
# Youngs Moduli (GPa) = 98.50986 98.50978 92.16870
#
# Poissons Ratio (x) = 0.42327 0.20660
# Poissons Ratio (y) = 0.42327 0.20657
# Poissons Ratio (z) = 0.22081 0.22078
#
# Static dielectric constant tensor:
#      x y z
#    x 1.839090 0.000000 0.000000 
#    y 0.000000 1.839090 0.000000 
#    z 0.000000 0.000000 1.860730 
# 
# From -- ./inp_files/11315.got.cif
#   From: 2010.05.17/outbox.cif.g08.bks.cpg/sg142_6_cif.got.tgz:11315.got - 2010.05.20 13:39:18.
