data_PCOD9574662
_publ_section_title
;
Structure prediction by ZEFSAII (Michael W. Deem and Ramdas Pophale) SiO2 
 PCOD9574662
Probable space group: P 32
;
_chemical_formula_sum "Si O2"
_cell_formula_units_Z 12
_cell_length_a 9.193506
_cell_length_b 9.193506
_cell_length_c 5.468612
_cell_angle_alpha 90.000000
_cell_angle_beta 90.000000
_cell_angle_gamma 120.000000
_cell_volume 400.285695
_symmetry_space_group_name_H-M "P 32"
_symmetry_group_IT_number 145
_symmetry_cell_setting 'hexagonal'
loop_
_space_group_symop_operation_xyz
x,y,z
-y,x-y,2/3+z
-x+y,-x,1/3+z
loop_
_atom_site_type_symbol
_atom_site_label
_atom_site_fract_x
_atom_site_fract_y
_atom_site_fract_z
Si Si1 0.212289 0.514132 0.116640
Si Si2 0.955582 0.622249 0.691043
Si Si3 0.031490 0.152534 0.598779
Si Si4 0.874900 0.333333 0.357710
O O1 0.225494 0.688121 0.203003
O O2 0.016820 0.385459 0.145766
O O3 0.150268 0.674980 0.640352
O O4 0.870706 0.978546 0.512416
O O5 0.866526 0.491057 0.467279
O O6 0.008313 0.816935 0.741733
O O7 0.824390 0.533193 0.914806
O O8 0.964695 0.281208 0.569654
#
# Coordination Sequence:
#
# PCOD9574662 Si02
#       4
#     3   3   3   3
#     4   9  18  36  66  95 120 164 220 259 296 366
#     4   9  18  36  64  97 130 164 204 258 320 372
#     4   9  18  36  66  95 120 164 220 259 296 366
#     4   9  18  36  64  97 130 164 204 258 320 372
#
# _framework density 29.978591999999999
#
# number of rings (size 3 to 8) (size 9 to 14) (size 15 to 20)
#    0.000    3.000    0.000    0.000    0.000    0.000 
#    0.000   40.000    0.000   45.000    0.000    0.000 
#    0.000    0.000    0.000    0.000    0.000    0.000 
#
# Total GULP energy -66899.929645 kJ/mol
# GULP energy per Si atom -5574.994137 kJ/mol
# Density = 2.991036 g / cm^3
# Si number density = 29.978592 Si / 1000 Ang^3
#
#
#
# Elastic Constant Matrix: (Units=GPa)
#
#
# Indices 1 2 3 4 5 6 
#
# 1 153.4832 34.5851 31.2889 -25.5380 0.0000 0.0000
# 2 34.5851 153.4832 31.2889 25.5380 0.0000 0.0000
# 3 31.2889 31.2889 97.2046 0.0000 0.0000 0.0000
# 4 -25.5380 25.5380 0.0000 30.4937 0.0000 0.0000
# 5 0.0000 0.0000 0.0000 0.0000 30.4937 -25.5380
# 6 0.0000 0.0000 0.0000 0.0000 -25.5380 59.4490
#
#
#
# Elastic Compliance Matrix: (Units=1/GPa)
#
#
# Indices 1 2 3 4 5 6 
#
# 1 0.009546 -0.003591 -0.001917 0.011002 0.000000 0.000000
# 2 -0.003591 0.009546 -0.001917 -0.011002 0.000000 0.000000
# 3 -0.001917 -0.001917 0.011522 0.000000 0.000000 0.000000
# 4 0.011002 -0.011002 0.000000 0.051221 0.000000 0.000000
# 5 0.000000 0.000000 0.000000 0.000000 0.051221 0.022004
# 6 0.000000 0.000000 0.000000 0.000000 0.022004 0.026273
#
#
# Mechanical properties :
#
#
# Convention : Reuss Voigt Hill
#
# Bulk Modulus (GPa) = 63.43459 66.49963 64.96711
# Shear Modulus (GPa) = 27.86549 44.55449 36.20999
#
# Velocity S-wave (km/s) = 3.05210 3.85932 3.47920
# Velocity P-wave (km/s) = 5.79882 6.48766 6.15289
#
# Compressibility (1/GPa) = 0.01576427
#
# Stress axis : x y z
#
# Youngs Moduli (GPa) = 104.75731 104.75731 86.79360
#
# Poissons Ratio (x) = 0.37617 0.16637
# Poissons Ratio (y) = 0.37617 0.16637
# Poissons Ratio (z) = 0.20080 0.20080
#
# Static dielectric constant tensor:
#      x y z
#    x 2.258100 0.000000 0.000000 
#    y 0.000000 2.258100 0.000000 
#    z 0.000000 0.000000 2.383620 
# 
# From -- ./inp_files/44.got.cif
#   From: 2010.05.17/outbox.cif.g08.bks.cpg/sg145_cif.got.tgz:44.got - 2010.05.20 13:47:28.
