data_PCOD9574852
_publ_section_title
;
Structure prediction by ZEFSAII (Michael W. Deem and Ramdas Pophale) SiO2 
 PCOD9574852
Probable space group: P -3
;
_chemical_formula_sum "Si O2"
_cell_formula_units_Z 42
_cell_length_a 18.920488
_cell_length_b 18.920488
_cell_length_c 9.011178
_cell_angle_alpha 90.000000
_cell_angle_beta 90.000000
_cell_angle_gamma 120.000000
_cell_volume 2793.681343
_symmetry_space_group_name_H-M "P -3"
_symmetry_group_IT_number 147
_symmetry_cell_setting 'hexagonal'
loop_
_space_group_symop_operation_xyz
x,y,z
-y,x-y,z
-x+y,-x,z
-x,-y,-z
y,-x+y,-z
x-y,x,-z
loop_
_atom_site_type_symbol
_atom_site_label
_atom_site_fract_x
_atom_site_fract_y
_atom_site_fract_z
Si Si1 0.330088 0.811169 0.461885
Si Si2 0.577973 0.640534 0.233106
Si Si3 0.670386 0.477118 0.685605
Si Si4 0.454792 0.610305 0.790497
Si Si5 0.527192 0.743034 0.033403
Si Si6 0.568876 0.896782 0.882162
Si Si7 0.572321 0.540151 0.816484
O O1 0.345750 0.897291 0.396173
O O2 0.388101 0.790381 0.359546
O O3 0.238107 0.742270 0.431321
O O4 0.354210 0.810493 0.629905
O O5 0.575965 0.708395 0.127721
O O6 0.656976 0.630156 0.219167
O O7 0.502706 0.553050 0.178429
O O8 0.711571 0.481944 0.845631
O O9 0.631010 0.535250 0.693141
O O10 0.375931 0.521808 0.812652
O O11 0.531983 0.595305 0.792517
O O12 0.466608 0.671116 0.924017
O O13 0.582375 0.823249 0.933881
O O14 0.563945 0.940700 0.032823
#
# Coordination Sequence:
#
# PCOD9574852 Si02
#       7
#     6   6   6   6   6   6   6
#     4  10  21  32  43  65  91 112 142 186 229 268
#     4   9  16  33  47  58  84 113 145 175 217 272
#     4   9  20  33  45  59  87 121 138 174 232 269
#     4  11  20  32  46  66  86 107 151 194 215 254
#     4  10  19  31  48  64  78 114 148 180 217 258
#     4  10  18  30  48  64  84 111 148 186 217 260
#     4   9  16  32  51  60  78 116 153 176 212 266
#
# _framework density 15.033925999999999
#
# number of rings (size 3 to 8) (size 9 to 14) (size 15 to 20)
#    0.000    2.286    2.857    1.143    4.000    5.143 
#    0.857    0.000    0.000    0.000    0.000    0.000 
#    0.000    0.000    0.000    0.429    0.286    0.000 
#
# Total GULP energy -233947.257530 kJ/mol
# GULP energy per Si atom -5570.172798 kJ/mol
# Density = 1.499971 g / cm^3
# Si number density = 15.033926 Si / 1000 Ang^3
#
#
#
# Elastic Constant Matrix: (Units=GPa)
#
#
# Indices 1 2 3 4 5 6 
#
# 1 43.5525 12.4435 14.5886 2.3618 -1.2639 0.0000
# 2 12.4435 43.5525 14.5886 -2.3618 1.2639 0.0000
# 3 14.5886 14.5886 51.4727 0.0000 0.0000 0.0000
# 4 2.3618 -2.3618 0.0000 10.6285 0.0000 1.2639
# 5 -1.2639 1.2639 0.0000 0.0000 10.6285 2.3618
# 6 0.0000 0.0000 0.0000 1.2639 2.3618 15.5545
#
#
#
# Elastic Compliance Matrix: (Units=1/GPa)
#
#
# Indices 1 2 3 4 5 6 
#
# 1 0.027278 -0.006325 -0.005939 -0.007467 0.003996 0.000000
# 2 -0.006325 0.027278 -0.005939 0.007467 -0.003996 0.000000
# 3 -0.005939 -0.005939 0.022794 0.000000 0.000000 0.000000
# 4 -0.007467 0.007467 0.000000 0.098356 0.000000 -0.007992
# 5 0.003996 -0.003996 0.000000 0.000000 0.098356 -0.014934
# 6 0.000000 0.000000 0.000000 -0.007992 -0.014934 0.067207
#
#
# Mechanical properties :
#
#
# Convention : Reuss Voigt Hill
#
# Bulk Modulus (GPa) = 24.42278 24.64659 24.53468
# Shear Modulus (GPa) = 12.77718 13.82609 13.30163
#
# Velocity S-wave (km/s) = 2.91845 3.03588 2.97774
# Velocity P-wave (km/s) = 5.25707 5.35895 5.30826
#
# Compressibility (1/GPa) = 0.04094539
#
# Stress axis : x y z
#
# Youngs Moduli (GPa) = 36.65937 36.65937 43.87113
#
# Poissons Ratio (x) = 0.23189 0.26053
# Poissons Ratio (y) = 0.23189 0.26053
# Poissons Ratio (z) = 0.21770 0.21770
#
# Static dielectric constant tensor:
#      x y z
#    x 1.522470 0.000000 0.000000 
#    y 0.000000 1.522470 0.000000 
#    z 0.000000 0.000000 1.549140 
# 
# From -- ./inp_files/697.got.cif
#   From: 2010.05.17/outbox.cif.g08.bks.cpg/sg147_cif.got.tgz:697.got - 2010.05.20 13:49:32.
