data_PCOD9574769
_publ_section_title
;
Structure prediction by ZEFSAII (Michael W. Deem and Ramdas Pophale) SiO2 
 PCOD9574769
Probable space group: R 3
;
_chemical_formula_sum "Si O2"
_cell_formula_units_Z 51
_cell_length_a 17.330041
_cell_length_b 17.330041
_cell_length_c 8.277356
_cell_angle_alpha 90.000000
_cell_angle_beta 90.000000
_cell_angle_gamma 120.000000
_cell_volume 2152.888045
_symmetry_space_group_name_H-M "R 3"
_symmetry_group_IT_number 146
_symmetry_cell_setting 'hexagonal'
loop_
_space_group_symop_operation_xyz
x,y,z
-y,x-y,z
-x+y,-x,z
2/3+x,1/3+y,1/3+z
2/3-y,1/3+x-y,1/3+z
2/3-x+y,1/3-x,1/3+z
1/3+x,2/3+y,2/3+z
1/3-y,2/3+x-y,2/3+z
1/3-x+y,2/3-x,2/3+z
loop_
_atom_site_type_symbol
_atom_site_label
_atom_site_fract_x
_atom_site_fract_y
_atom_site_fract_z
Si Si1 0.136693 0.538263 0.846610
Si Si2 0.965860 0.270429 0.008144
Si Si3 0.000000 0.000000 0.198354
Si Si4 0.278549 0.494617 0.283897
Si Si5 0.714439 0.065028 0.524838
Si Si6 0.782613 0.853590 0.518854
Si Si7 0.666668 0.333334 0.153732
O O1 0.122619 0.467471 0.709974
O O2 0.237608 0.587622 0.909287
O O3 0.101584 0.606584 0.812597
O O4 0.082822 0.488582 0.005958
O O5 0.979300 0.323655 0.175178
O O6 0.860165 0.225226 0.971612
O O7 0.000000 0.000000 0.007936
O O8 0.255909 0.393517 0.276557
O O9 0.188822 0.491901 0.226459
O O10 0.372784 0.539997 0.188370
O O11 0.308328 0.568033 0.426981
O O12 0.646909 0.017132 0.678361
#
# Coordination Sequence:
#
# PCOD9574769 Si02
#       7
#     9   9   3   9   9   9   3
#     4  12  28  49  75 112 153 196 257 313 381 449
#     4  12  27  47  75 113 151 196 256 314 377 450
#     4  12  30  46  74 115 153 199 260 316 367 470
#     4  10  23  46  73 106 150 195 253 307 381 447
#     4  12  29  50  78 109 154 204 251 314 384 456
#     4  11  23  47  77 106 147 201 245 316 377 448
#     4   9  24  43  74 109 150 199 248 316 379 446
#
# _framework density 23.689109999999999
#
# number of rings (size 3 to 8) (size 9 to 14) (size 15 to 20)
#    0.000    0.706    3.529    2.471    7.412    1.412 
#    0.000    0.000    0.000    0.000    0.000    0.000 
#    0.000    0.000    0.000    0.000    0.000    0.000 
#
# Total GULP energy -94697.150675 kJ/mol
# GULP energy per Si atom -5570.420628 kJ/mol
# Density = 2.363519 g / cm^3
# Si number density = 23.689110 Si / 1000 Ang^3
#
#
#
# Elastic Constant Matrix: (Units=GPa)
#
#
# Indices 1 2 3 4 5 6 
#
# 1 77.7404 29.3073 15.9564 -2.0400 -2.6183 0.0001
# 2 29.3073 77.7401 15.9564 2.0405 2.6198 -0.0002
# 3 15.9564 15.9564 101.6736 -0.0023 -0.0012 0.0003
# 4 -2.0400 2.0405 -0.0023 -14.9552 -0.0044 2.6203
# 5 -2.6183 2.6198 -0.0012 -0.0044 -14.9549 -2.0382
# 6 0.0001 -0.0002 0.0003 2.6203 -2.0382 24.2159
#
#
#
# Elastic Compliance Matrix: (Units=1/GPa)
#
#
# Indices 1 2 3 4 5 6 
#
# 1 0.014919 -0.005119 -0.001538 -0.002732 -0.003508 0.000000
# 2 -0.005119 0.014919 -0.001538 0.002733 0.003509 0.000000
# 3 -0.001538 -0.001538 0.010318 -0.000002 -0.000001 0.000000
# 4 -0.002732 0.002733 -0.000002 -0.064890 0.000019 0.007023
# 5 -0.003508 0.003509 -0.000001 0.000019 -0.064894 -0.005464
# 6 0.000000 0.000000 0.000000 0.007023 -0.005464 0.040075
#
#
# Mechanical properties :
#
#
# Convention : Reuss Voigt Hill
#
# Bulk Modulus (GPa) = 42.07622 42.17715 42.12668
# Shear Modulus (GPa) = -198.08215 11.92344 -93.07935
#
# Velocity S-wave (km/s) = -9.15417 2.24594 -6.27514
# Velocity P-wave (km/s) = 9.69183 4.95669 5.88909
#
# Compressibility (1/GPa) = 0.02376639
#
# Stress axis : x y z
#
# Youngs Moduli (GPa) = 67.02927 67.02985 96.91674
#
# Poissons Ratio (x) = 0.34310 0.14907
# Poissons Ratio (y) = 0.34310 0.14905
# Poissons Ratio (z) = 0.10310 0.10309
#
# Static dielectric constant tensor:
#      x y z
#    x 2.049560 0.000010 0.000000 
#    y 0.000010 2.049540 0.000000 
#    z 0.000000 0.000000 1.898350 
# 
# From -- ./inp_files/687.got.cif
#   From: 2010.05.17/outbox.cif.g08.bks.cpg/sg146_cif.got.tgz:687.got - 2010.05.20 13:48:23.
