data_PCOD9574246
_publ_section_title
;
Structure prediction by ZEFSAII (Michael W. Deem and Ramdas Pophale) SiO2 
 PCOD9574246
Probable space group: I 41/A C D
;
_chemical_formula_sum "Si O2"
_cell_formula_units_Z 80
_cell_length_a 24.000000
_cell_length_b 24.000000
_cell_length_c 15.000000
_cell_angle_alpha 90.000000
_cell_angle_beta 90.000000
_cell_angle_gamma 90.000000
_cell_volume 8640.000000
_symmetry_space_group_name_H-M "I 41/A C D"
_symmetry_group_IT_number 142
_space_group.IT_coordinate_system_code '2'
_symmetry_cell_setting 'tetragonal'
loop_
_space_group_symop_operation_xyz
x,y,z
1/4-y,3/4+x,1/4+z
-x,1/2-y,z
1/4+y,1/4-x,3/4+z
x,-y,1/2-z
1/2-x,y,-z
3/4+y,1/4+x,1/4-z
1/4-y,1/4-x,1/4-z
-x,-y,-z
3/4+y,1/4-x,3/4-z
x,1/2+y,-z
3/4-y,3/4+x,1/4-z
-x,y,1/2+z
1/2+x,-y,z
1/4-y,3/4-x,3/4+z
3/4+y,3/4+x,3/4+z
1/2+x,1/2+y,1/2+z
3/4-y,1/4+x,3/4+z
1/2-x,-y,1/2+z
3/4+y,3/4-x,1/4+z
1/2+x,1/2-y,-z
-x,1/2+y,1/2-z
1/4+y,3/4+x,3/4-z
3/4-y,3/4-x,3/4-z
1/2-x,1/2-y,1/2-z
1/4+y,3/4-x,1/4-z
1/2+x,y,1/2-z
1/4-y,1/4+x,3/4-z
1/2-x,1/2+y,z
x,1/2-y,1/2+z
3/4-y,1/4-x,1/4+z
1/4+y,1/4+x,1/4+z
loop_
_atom_site_type_symbol
_atom_site_label
_atom_site_fract_x
_atom_site_fract_y
_atom_site_fract_z
Si Si1 0.839126 0.389986 0.927920
Si Si2 0.564707 0.092650 0.350700
Si Si3 0.642276 0.308316 0.327306
Si Si4 0.112409 0.000984 0.477756
Si Si5 0.430675 0.806498 0.349713
O O1 0.791939 0.390384 0.848846
O O2 0.895376 0.358701 0.890452
O O3 0.824025 0.346347 0.008657
O O4 0.851383 0.453379 0.966145
O O5 0.601588 0.148413 0.375000
O O6 0.497828 0.103613 0.360799
O O7 0.574831 0.042327 0.420967
O O8 0.609774 0.359774 0.375000
O O9 0.703292 0.329722 0.290269
O O10 0.601684 0.294246 0.243093
O O11 0.497029 0.821205 0.346333
#
# Coordination Sequence:
#
# PCOD9574246 Si02
#       5
#    32  32  32  32  32
#     4  10  21  40  63  89 118 160 208 252 303 361
#     4  10  20  37  62  90 118 152 194 243 297 362
#     4  11  23  39  60  90 123 157 197 245 303 363
#     4  10  22  41  61  85 120 160 203 252 304 358
#     4  10  20  36  59  90 126 159 192 242 305 369
#
# _framework density 9.2592590000000001
#
# number of rings (size 3 to 8) (size 9 to 14) (size 15 to 20)
#    0.000    1.800    0.000    4.800    0.000    3.600 
#    0.000   17.000    0.000    0.000    0.000    0.000 
#    0.000    0.000    0.000    0.000    0.000    0.000 
#
# Total GULP energy -445356.483744 kJ/mol
# GULP energy per Si atom -5566.956047 kJ/mol
# Density = 0.923818 g / cm^3
# Si number density = 9.259259 Si / 1000 Ang^3
#
#
#
# Elastic Constant Matrix: (Units=GPa)
#
#
# Indices 1 2 3 4 5 6 
#
# 1 146.9931 51.1106 37.8897 0.0000 0.0000 0.0000
# 2 51.1106 146.9926 37.8896 0.0000 0.0000 0.0000
# 3 37.8897 37.8896 74.6731 0.0000 0.0000 0.0000
# 4 0.0000 0.0000 0.0000 41.2765 0.0000 0.0000
# 5 0.0000 0.0000 0.0000 0.0000 41.2770 0.0000
# 6 0.0000 0.0000 0.0000 0.0000 0.0000 25.4725
#
#
#
# Elastic Compliance Matrix: (Units=1/GPa)
#
#
# Indices 1 2 3 4 5 6 
#
# 1 0.008347 -0.002083 -0.003178 0.000000 0.000000 0.000000
# 2 -0.002083 0.008347 -0.003178 0.000000 0.000000 0.000000
# 3 -0.003178 -0.003178 0.016617 0.000000 0.000000 0.000000
# 4 0.000000 0.000000 0.000000 0.024227 0.000000 0.000000
# 5 0.000000 0.000000 0.000000 0.000000 0.024227 0.000000
# 6 0.000000 0.000000 0.000000 0.000000 0.000000 0.039258
#
#
# Mechanical properties :
#
#
# Convention : Reuss Voigt Hill
#
# Bulk Modulus (GPa) = 60.85905 69.15983 65.00944
# Shear Modulus (GPa) = 34.87301 37.72311 36.29806
#
# Velocity S-wave (km/s) = 4.34423 4.51826 4.43210
# Velocity P-wave (km/s) = 7.62222 8.04033 7.83407
#
# Compressibility (1/GPa) = 0.01643141
#
# Stress axis : x y z
#
# Youngs Moduli (GPa) = 119.81043 119.81003 60.17938
#
# Poissons Ratio (x) = 0.24956 0.19126
# Poissons Ratio (y) = 0.24956 0.19126
# Poissons Ratio (z) = 0.38078 0.38078
#
# Static dielectric constant tensor:
#      x y z
#    x 1.640280 0.000000 0.000000 
#    y 0.000000 1.640290 0.000000 
#    z 0.000000 0.000000 1.717480 
# 
# From -- ./inp_files/5457.got.cif
#   From: 2010.05.17/outbox.ucp.g08.bks.cvg/sg142_3_cif.got.tgz:5457.got - 2010.06.11 11:43:53.
