data_PCOD9574780
_publ_section_title
;
Structure prediction by ZEFSAII (Michael W. Deem and Ramdas Pophale) SiO2 
 PCOD9574780
Probable space group: R 3
;
_chemical_formula_sum "Si O2"
_cell_formula_units_Z 33
_cell_length_a 11.155013
_cell_length_b 11.155013
_cell_length_c 11.055183
_cell_angle_alpha 90.000000
_cell_angle_beta 90.000000
_cell_angle_gamma 120.000000
_cell_volume 1191.342758
_symmetry_space_group_name_H-M "R 3"
_symmetry_group_IT_number 146
_symmetry_cell_setting 'hexagonal'
loop_
_space_group_symop_operation_xyz
x,y,z
-y,x-y,z
-x+y,-x,z
2/3+x,1/3+y,1/3+z
2/3-y,1/3+x-y,1/3+z
2/3-x+y,1/3-x,1/3+z
1/3+x,2/3+y,2/3+z
1/3-y,2/3+x-y,2/3+z
1/3-x+y,2/3-x,2/3+z
loop_
_atom_site_type_symbol
_atom_site_label
_atom_site_fract_x
_atom_site_fract_y
_atom_site_fract_z
Si Si1 0.000000 0.000000 0.590946
Si Si2 0.675617 0.085736 0.326998
Si Si3 0.990837 0.228552 0.134135
Si Si4 0.603581 0.804293 0.412929
Si Si5 0.000000 0.000000 0.299802
O O1 0.948738 0.098608 0.649758
O O2 0.000000 0.000000 0.445875
O O3 0.692690 0.951789 0.344054
O O4 0.631528 0.112586 0.197102
O O5 0.545895 0.059583 0.407566
O O6 0.113540 0.253080 0.044503
O O7 0.993867 0.374803 0.134279
O O8 0.863984 0.862823 0.244417
#
# Coordination Sequence:
#
# PCOD9574780 Si02
#       5
#     3   9   9   9   3
#     4  12  24  55  95 136 177 240 313 383 457 564
#     4  11  26  53  85 132 174 250 305 378 476 541
#     4  10  24  55  93 123 191 238 306 388 461 559
#     4  12  26  54  86 135 182 234 309 386 463 545
#     4   9  24  55  95 148 174 246 313 371 469 555
#
# _framework density 27.699835
#
# number of rings (size 3 to 8) (size 9 to 14) (size 15 to 20)
#    0.000    1.091    2.727    2.182    0.000    2.182 
#   21.273    0.000    0.000    0.000    0.000    0.000 
#    0.000    0.000    0.000    0.000    0.000    0.000 
#
# Total GULP energy -61675.591326 kJ/mol
# GULP energy per Si atom -5606.871939 kJ/mol
# Density = 2.763679 g / cm^3
# Si number density = 27.699835 Si / 1000 Ang^3
#
#
#
# Elastic Constant Matrix: (Units=GPa)
#
#
# Indices 1 2 3 4 5 6 
#
# 1 116.0895 210.5670 103.2079 0.4235 -55.7987 0.0000
# 2 210.5670 116.0895 103.2079 -0.4235 55.7987 0.0000
# 3 103.2079 103.2079 250.8991 0.0000 0.0000 0.0000
# 4 0.4235 -0.4235 0.0000 35.0026 0.0000 55.7987
# 5 -55.7987 55.7987 0.0000 0.0000 35.0026 0.4235
# 6 0.0000 0.0000 0.0000 55.7987 0.4235 -47.2387
#
#
#
# Elastic Compliance Matrix: (Units=1/GPa)
#
#
# Indices 1 2 3 4 5 6 
#
# 1 0.000233 0.003904 -0.001702 0.000044 -0.005852 0.000000
# 2 0.003904 0.000233 -0.001702 -0.000044 0.005852 0.000000
# 3 -0.001702 -0.001702 0.005386 0.000000 0.000000 0.000000
# 4 0.000044 -0.000044 0.000000 0.009909 0.000000 0.011705
# 5 -0.005852 0.005852 0.000000 0.000000 0.009909 0.000089
# 6 0.000000 0.000000 0.000000 0.011705 0.000089 -0.007342
#
#
# Mechanical properties :
#
#
# Convention : Reuss Voigt Hill
#
# Bulk Modulus (GPa) = 145.93531 146.33821 146.13676
# Shear Modulus (GPa) = 254.97819 8.95965 131.96892
#
# Velocity S-wave (km/s) = 9.60470 1.80044 6.90984
# Velocity P-wave (km/s) = 13.25893 7.56748 10.79505
#
# Compressibility (1/GPa) = 0.00685235
#
# Stress axis : x y z
#
# Youngs Moduli (GPa) = 4298.00339 4298.00345 185.68151
#
# Poissons Ratio (x) = -16.77895 0.31595
# Poissons Ratio (y) = -16.77895 0.31595
# Poissons Ratio (z) = 7.31341 7.31341
#
# Static dielectric constant tensor:
#      x y z
#    x 2.309920 0.000000 0.000000 
#    y 0.000000 2.309920 0.000000 
#    z 0.000000 0.000000 2.231210 
# 
# From -- ./inp_files/1351.got.cif
#   From: 2010.05.17/outbox.cif.g08.bks.cpg/sg146_cif.got.tgz:1351.got - 2010.05.20 13:48:23.
