data_PCOD9574709
_publ_section_title
;
Structure prediction by ZEFSAII (Michael W. Deem and Ramdas Pophale) SiO2 
 PCOD9574709
Probable space group: R 3
;
_chemical_formula_sum "Si O2"
_cell_formula_units_Z 63
_cell_length_a 17.444716
_cell_length_b 17.444716
_cell_length_c 11.371324
_cell_angle_alpha 90.000000
_cell_angle_beta 90.000000
_cell_angle_gamma 120.000000
_cell_volume 2996.880823
_symmetry_space_group_name_H-M "R 3"
_symmetry_group_IT_number 146
_symmetry_cell_setting 'hexagonal'
loop_
_space_group_symop_operation_xyz
x,y,z
-y,x-y,z
-x+y,-x,z
2/3+x,1/3+y,1/3+z
2/3-y,1/3+x-y,1/3+z
2/3-x+y,1/3-x,1/3+z
1/3+x,2/3+y,2/3+z
1/3-y,2/3+x-y,2/3+z
1/3-x+y,2/3-x,2/3+z
loop_
_atom_site_type_symbol
_atom_site_label
_atom_site_fract_x
_atom_site_fract_y
_atom_site_fract_z
Si Si1 0.757955 0.247222 0.946540
Si Si2 0.472584 0.404790 0.899163
Si Si3 0.245461 0.946236 0.936416
Si Si4 0.199432 0.342910 0.775152
Si Si5 0.432541 0.066981 0.847313
Si Si6 0.019062 0.106399 0.865669
Si Si7 0.278982 0.310287 0.003573
O O1 0.661768 0.173149 0.903507
O O2 0.826616 0.306320 0.846229
O O3 0.793498 0.187451 0.008380
O O4 0.760164 0.305731 0.057626
O O5 0.550131 0.503179 0.928325
O O6 0.384811 0.365861 0.978982
O O7 0.437055 0.406415 0.768806
O O8 0.231203 0.870487 0.841127
O O9 0.163172 0.965053 0.923193
O O10 0.336454 0.031398 0.901401
O O11 0.261896 0.913965 0.060283
O O12 0.229934 0.302720 0.882481
O O13 0.292957 0.411790 0.720086
O O14 0.089844 0.073388 0.893526
#
# Coordination Sequence:
#
# PCOD9574709 Si02
#       7
#     9   9   9   9   9   9   9
#     4  10  21  38  62  96 125 169 220 273 336 389
#     4  10  21  38  64  92 128 169 218 267 329 392
#     4  11  23  42  59  98 133 175 219 269 349 397
#     4   9  18  38  58  92 127 166 222 272 322 387
#     4  12  25  41  62  92 139 173 211 274 339 412
#     4   9  20  42  67  95 123 168 229 285 326 384
#     4   9  18  37  64  93 123 168 223 270 319 391
#
# _framework density 21.021857000000001
#
# number of rings (size 3 to 8) (size 9 to 14) (size 15 to 20)
#    0.286    1.714    1.429    2.571    2.000    0.000 
#   21.429    0.000    0.000    0.000    0.000    0.000 
#    0.000    0.000    0.000    0.000    0.000    0.000 
#
# Total GULP energy -116949.839333 kJ/mol
# GULP energy per Si atom -5569.039968 kJ/mol
# Density = 2.097401 g / cm^3
# Si number density = 21.021857 Si / 1000 Ang^3
#
#
#
# Elastic Constant Matrix: (Units=GPa)
#
#
# Indices 1 2 3 4 5 6 
#
# 1 97.6320 39.8951 31.5625 0.3782 4.3423 0.0000
# 2 39.8951 97.6320 31.5625 -0.3782 -4.3423 0.0000
# 3 31.5625 31.5625 70.1668 0.0000 0.0000 0.0000
# 4 0.3782 -0.3782 0.0000 23.9799 0.0000 -4.3423
# 5 4.3423 -4.3423 0.0000 0.0000 23.9799 0.3782
# 6 0.0000 0.0000 0.0000 -4.3423 0.3782 28.8685
#
#
#
# Elastic Compliance Matrix: (Units=1/GPa)
#
#
# Indices 1 2 3 4 5 6 
#
# 1 0.013486 -0.004323 -0.004122 -0.000281 -0.003225 0.000000
# 2 -0.004323 0.013486 -0.004122 0.000281 0.003225 0.000000
# 3 -0.004122 -0.004122 0.017960 0.000000 0.000000 0.000000
# 4 -0.000281 0.000281 0.000000 0.042878 0.000000 0.006450
# 5 -0.003225 0.003225 0.000000 0.000000 0.042878 -0.000562
# 6 0.000000 0.000000 0.000000 0.006450 -0.000562 0.035617
#
#
# Mechanical properties :
#
#
# Convention : Reuss Voigt Hill
#
# Bulk Modulus (GPa) = 50.50735 52.38567 51.44651
# Shear Modulus (GPa) = 25.24762 26.19302 25.72032
#
# Velocity S-wave (km/s) = 3.46933 3.53369 3.50166
# Velocity P-wave (km/s) = 6.33456 6.45159 6.39334
#
# Compressibility (1/GPa) = 0.01979910
#
# Stress axis : x y z
#
# Youngs Moduli (GPa) = 74.15124 74.15124 55.67958
#
# Poissons Ratio (x) = 0.32054 0.22950
# Poissons Ratio (y) = 0.32054 0.22950
# Poissons Ratio (z) = 0.30564 0.30564
#
# Static dielectric constant tensor:
#      x y z
#    x 1.812630 0.000000 0.000000 
#    y 0.000000 1.812630 0.000000 
#    z 0.000000 0.000000 1.757820 
# 
# From -- ./inp_files/1232.got.cif
#   From: 2010.05.17/outbox.cif.g08.bks.cpg/sg146_cif.got.tgz:1232.got - 2010.05.20 13:48:23.
