data_PCOD9574582
_publ_section_title
;
Structure prediction by ZEFSAII (Michael W. Deem and Ramdas Pophale) SiO2 
 PCOD9574582
Probable space group: P 32
;
_chemical_formula_sum "Si O2"
_cell_formula_units_Z 21
_cell_length_a 9.111593
_cell_length_b 9.111593
_cell_length_c 12.277456
_cell_angle_alpha 90.000000
_cell_angle_beta 90.000000
_cell_angle_gamma 120.000000
_cell_volume 882.729504
_symmetry_space_group_name_H-M "P 32"
_symmetry_group_IT_number 145
_symmetry_cell_setting 'hexagonal'
loop_
_space_group_symop_operation_xyz
x,y,z
-y,x-y,2/3+z
-x+y,-x,1/3+z
loop_
_atom_site_type_symbol
_atom_site_label
_atom_site_fract_x
_atom_site_fract_y
_atom_site_fract_z
Si Si1 0.990697 0.201329 0.895980
Si Si2 0.471435 0.852879 0.022040
Si Si3 0.507443 0.416647 0.547910
Si Si4 0.767744 0.022797 0.714472
Si Si5 0.609957 0.906353 0.406892
Si Si6 0.772992 0.491467 0.204518
Si Si7 0.422405 0.931928 0.776427
O O1 0.125429 0.246857 0.797199
O O2 0.973315 0.364473 0.920904
O O3 0.817825 0.067197 0.839617
O O4 0.071405 0.155134 0.995233
O O5 0.282718 0.734708 0.072629
O O6 0.569433 0.752521 0.048605
O O7 0.564659 0.027333 0.090124
O O8 0.432078 0.874133 0.898752
O O9 0.339552 0.350726 0.620745
O O10 0.607029 0.314549 0.560306
O O11 0.803480 0.185409 0.641225
O O12 0.565452 0.916942 0.709604
O O13 0.600547 0.047227 0.479751
O O14 0.653420 0.526151 0.124381
#
# Coordination Sequence:
#
# PCOD9574582 Si02
#       7
#     3   3   3   3   3   3   3
#     4  10  23  44  67  93 141 183 223 290 350 417
#     4  11  25  44  71 100 142 183 239 287 350 425
#     4  11  21  41  68 102 132 179 234 289 342 418
#     4  11  24  46  71 100 146 185 235 291 364 414
#     4  10  22  42  66  98 134 183 226 282 354 411
#     4  11  24  41  75 101 139 179 235 295 350 410
#     4  12  25  46  70 106 136 188 234 292 350 425
#
# _framework density 23.789847000000002
#
# number of rings (size 3 to 8) (size 9 to 14) (size 15 to 20)
#    0.000    1.143    2.857    3.429    6.000    0.000 
#    5.143    1.429    0.000    0.000    0.000    0.000 
#    0.000    0.000    0.000    0.000    0.000    0.000 
#
# Total GULP energy -117397.727112 kJ/mol
# GULP energy per Si atom -5590.367958 kJ/mol
# Density = 2.373570 g / cm^3
# Si number density = 23.789847 Si / 1000 Ang^3
#
#
#
# Elastic Constant Matrix: (Units=GPa)
#
#
# Indices 1 2 3 4 5 6 
#
# 1 75.4002 15.8061 5.4029 -7.2990 0.5669 0.0000
# 2 15.8061 75.4002 5.4029 7.2990 -0.5669 0.0000
# 3 5.4029 5.4029 69.5861 0.0000 0.0000 0.0000
# 4 -7.2990 7.2990 0.0000 37.1968 0.0000 -0.5669
# 5 0.5669 -0.5669 0.0000 0.0000 37.1968 -7.2990
# 6 0.0000 0.0000 0.0000 -0.5669 -7.2990 29.7971
#
#
#
# Elastic Compliance Matrix: (Units=1/GPa)
#
#
# Indices 1 2 3 4 5 6 
#
# 1 0.014349 -0.003283 -0.000859 0.003460 -0.000269 0.000000
# 2 -0.003283 0.014349 -0.000859 -0.003460 0.000269 0.000000
# 3 -0.000859 -0.000859 0.014504 0.000000 0.000000 0.000000
# 4 0.003460 -0.003460 0.000000 0.028250 0.000000 0.000538
# 5 -0.000269 0.000269 0.000000 0.000000 0.028250 0.006920
# 6 0.000000 0.000000 0.000000 0.000538 0.006920 0.035266
#
#
# Mechanical properties :
#
#
# Convention : Reuss Voigt Hill
#
# Bulk Modulus (GPa) = 30.12122 30.40117 30.26119
# Shear Modulus (GPa) = 32.04327 33.75643 32.89985
#
# Velocity S-wave (km/s) = 3.67404 3.77097 3.72282
# Velocity P-wave (km/s) = 5.53958 5.63623 5.58811
#
# Compressibility (1/GPa) = 0.03319919
#
# Stress axis : x y z
#
# Youngs Moduli (GPa) = 69.68932 69.68932 68.94599
#
# Poissons Ratio (x) = 0.22882 0.05924
# Poissons Ratio (y) = 0.22882 0.05924
# Poissons Ratio (z) = 0.05988 0.05988
#
# Static dielectric constant tensor:
#      x y z
#    x 1.921730 0.000000 0.000000 
#    y 0.000000 1.921730 0.000000 
#    z 0.000000 0.000000 1.968770 
# 
# From -- ./inp_files/635.got.cif
#   From: 2010.05.17/outbox.cif.g08.bks.cpg/sg145_cif.got.tgz:635.got - 2010.05.20 13:47:28.
