data_PCOD9574867
_publ_section_title
;
Structure prediction by ZEFSAII (Michael W. Deem and Ramdas Pophale) SiO2 
 PCOD9574867
Probable space group: P -3
;
_chemical_formula_sum "Si O2"
_cell_formula_units_Z 42
_cell_length_a 17.572415
_cell_length_b 17.572415
_cell_length_c 9.861002
_cell_angle_alpha 90.000000
_cell_angle_beta 90.000000
_cell_angle_gamma 120.000000
_cell_volume 2637.027028
_symmetry_space_group_name_H-M "P -3"
_symmetry_group_IT_number 147
_symmetry_cell_setting 'hexagonal'
loop_
_space_group_symop_operation_xyz
x,y,z
-y,x-y,z
-x+y,-x,z
-x,-y,-z
y,-x+y,-z
x-y,x,-z
loop_
_atom_site_type_symbol
_atom_site_label
_atom_site_fract_x
_atom_site_fract_y
_atom_site_fract_z
Si Si1 0.821140 0.821140 1.000000
Si Si2 0.153288 0.486452 0.871551
Si Si3 0.666836 0.513548 0.128449
Si Si4 0.093789 0.362393 0.129809
Si Si5 0.595488 0.585268 0.345213
Si Si6 0.731396 0.637607 0.870191
Si Si7 0.414732 0.404512 0.345213
O O1 0.743255 0.778340 0.111552
O O2 0.915349 0.830698 0.036932
O O3 0.778340 0.743255 0.888448
O O4 0.251789 0.503578 0.867554
O O5 0.150956 0.575478 0.901675
O O6 0.104098 0.449331 0.728320
O O7 0.102085 0.413587 0.988468
O O8 0.654766 0.550669 0.271680
O O9 0.688499 0.586413 0.011533
O O10 0.191409 0.382818 0.160130
O O11 0.057183 0.396225 0.247291
O O12 0.496856 0.503144 0.342475
O O13 0.616282 0.616282 0.500000
O O14 0.660958 0.603775 0.752709
#
# Coordination Sequence:
#
# PCOD9574867 Si02
#       7
#     6   6   6   6   6   6   6
#     4  10  19  32  51  76 102 126 158 202 257 308
#     4  10  19  32  51  73  99 129 164 206 250 298
#     4  10  19  32  51  73  99 129 164 206 250 298
#     4  10  19  32  52  75  98 126 166 212 251 297
#     4  10  20  33  49  71 102 137 168 204 249 295
#     4  10  19  32  52  75  98 126 166 212 251 297
#     4  10  20  33  49  71 102 137 168 204 249 295
#
# _framework density 15.927027000000001
#
# number of rings (size 3 to 8) (size 9 to 14) (size 15 to 20)
#    0.000    2.000    2.857    1.286    0.000    3.429 
#    0.000    0.000    0.000    0.571    0.000    0.000 
#    0.000    5.714    0.000    0.000    0.000    0.000 
#
# Total GULP energy -233925.422463 kJ/mol
# GULP energy per Si atom -5569.652916 kJ/mol
# Density = 1.589078 g / cm^3
# Si number density = 15.927027 Si / 1000 Ang^3
#
#
#
# Elastic Constant Matrix: (Units=GPa)
#
#
# Indices 1 2 3 4 5 6 
#
# 1 89.5160 43.9274 43.9993 -1.7013 0.0000 0.0000
# 2 43.9274 89.5160 43.9993 1.7013 0.0000 0.0000
# 3 43.9993 43.9993 105.0940 0.0000 0.0000 0.0000
# 4 -1.7013 1.7013 0.0000 16.5432 0.0000 0.0000
# 5 0.0000 0.0000 0.0000 0.0000 16.5432 -1.7013
# 6 0.0000 0.0000 0.0000 0.0000 -1.7013 22.7943
#
#
#
# Elastic Compliance Matrix: (Units=1/GPa)
#
#
# Indices 1 2 3 4 5 6 
#
# 1 0.016228 -0.005877 -0.004334 0.002273 0.000000 0.000000
# 2 -0.005877 0.016228 -0.004334 -0.002273 0.000000 0.000000
# 3 -0.004334 -0.004334 0.013144 0.000000 0.000000 0.000000
# 4 0.002273 -0.002273 0.000000 0.060915 0.000000 0.000000
# 5 0.000000 0.000000 0.000000 0.000000 0.060915 0.004546
# 6 0.000000 0.000000 0.000000 0.000000 0.004546 0.044210
#
#
# Mechanical properties :
#
#
# Convention : Reuss Voigt Hill
#
# Bulk Modulus (GPa) = 60.56177 60.88645 60.72411
# Shear Modulus (GPa) = 20.30581 21.32279 20.81430
#
# Velocity S-wave (km/s) = 3.57449 3.66290 3.61897
# Velocity P-wave (km/s) = 7.42583 7.49670 7.46135
#
# Compressibility (1/GPa) = 0.01651207
#
# Stress axis : x y z
#
# Youngs Moduli (GPa) = 61.62031 61.62031 76.07887
#
# Poissons Ratio (x) = 0.36212 0.32972
# Poissons Ratio (y) = 0.36212 0.32972
# Poissons Ratio (z) = 0.26706 0.26706
#
# Static dielectric constant tensor:
#      x y z
#    x 1.543600 0.000000 0.000000 
#    y 0.000000 1.543600 0.000000 
#    z 0.000000 0.000000 1.507540 
# 
# From -- ./inp_files/615.got.cif
#   From: 2010.05.17/outbox.cif.g08.bks.cpg/sg147_cif.got.tgz:615.got - 2010.05.20 13:49:32.
