data_PCOD9574642
_publ_section_title
;
Structure prediction by ZEFSAII (Michael W. Deem and Ramdas Pophale) SiO2 
 PCOD9574642
Probable space group: P 32
;
_chemical_formula_sum "Si O2"
_cell_formula_units_Z 21
_cell_length_a 8.602176
_cell_length_b 8.602176
_cell_length_c 13.048293
_cell_angle_alpha 90.000000
_cell_angle_beta 90.000000
_cell_angle_gamma 120.000000
_cell_volume 836.182318
_symmetry_space_group_name_H-M "P 32"
_symmetry_group_IT_number 145
_symmetry_cell_setting 'hexagonal'
loop_
_space_group_symop_operation_xyz
x,y,z
-y,x-y,2/3+z
-x+y,-x,1/3+z
loop_
_atom_site_type_symbol
_atom_site_label
_atom_site_fract_x
_atom_site_fract_y
_atom_site_fract_z
Si Si1 0.301848 0.856808 0.528910
Si Si2 0.069384 0.045936 0.240932
Si Si3 0.888983 0.281322 0.026677
Si Si4 0.561215 0.699300 0.218969
Si Si5 0.644797 0.108902 0.214696
Si Si6 0.512190 0.094899 0.702027
Si Si7 0.274879 0.072115 0.040605
O O1 0.219965 0.648070 0.529281
O O2 0.158911 0.925861 0.551326
O O3 0.380000 0.941696 0.418872
O O4 0.444326 0.935872 0.619245
O O5 0.202035 0.091136 0.336733
O O6 0.149408 0.008999 0.139219
O O7 0.897598 0.864401 0.278833
O O8 0.731616 0.214998 0.110119
O O9 0.885523 0.354662 0.914770
O O10 0.636121 0.611693 0.135804
O O11 0.596587 0.652733 0.334015
O O12 0.613955 0.908391 0.209059
O O13 0.765495 0.233784 0.310001
O O14 0.721337 0.153824 0.716204
#
# Coordination Sequence:
#
# PCOD9574642 Si02
#       7
#     3   3   3   3   3   3   3
#     4  11  26  49  77 109 161 198 265 321 379 472
#     4  12  25  49  76 114 152 210 250 319 394 470
#     4  11  26  51  78 112 157 204 260 318 396 461
#     4  12  28  48  78 116 151 212 257 322 398 463
#     4  11  29  48  81 111 158 203 259 328 392 469
#     4  11  27  51  72 112 158 197 262 326 383 472
#     4  12  29  46  80 114 159 202 261 322 390 475
#
# _framework density 25.114139000000002
#
# number of rings (size 3 to 8) (size 9 to 14) (size 15 to 20)
#    0.000    0.571    2.857    2.571   16.000    1.143 
#    0.000    0.000    0.000    0.000    0.000    0.000 
#    0.000    0.000    0.000    0.000    0.000    0.000 
#
# Total GULP energy -117412.087483 kJ/mol
# GULP energy per Si atom -5591.051785 kJ/mol
# Density = 2.505698 g / cm^3
# Si number density = 25.114139 Si / 1000 Ang^3
#
#
#
# Elastic Constant Matrix: (Units=GPa)
#
#
# Indices 1 2 3 4 5 6 
#
# 1 88.8784 32.3613 27.4955 0.2009 1.5928 0.0000
# 2 32.3613 88.8784 27.4955 -0.2009 -1.5928 0.0000
# 3 27.4955 27.4955 101.3636 0.0000 0.0000 0.0000
# 4 0.2009 -0.2009 0.0000 41.2324 0.0000 -1.5928
# 5 1.5928 -1.5928 0.0000 0.0000 41.2324 0.2009
# 6 0.0000 0.0000 0.0000 -1.5928 0.2009 28.2585
#
#
#
# Elastic Compliance Matrix: (Units=1/GPa)
#
#
# Indices 1 2 3 4 5 6 
#
# 1 0.013569 -0.004164 -0.002551 -0.000086 -0.000685 0.000000
# 2 -0.004164 0.013569 -0.002551 0.000086 0.000685 0.000000
# 3 -0.002551 -0.002551 0.011250 0.000000 0.000000 0.000000
# 4 -0.000086 0.000086 0.000000 0.024307 0.000000 0.001370
# 5 -0.000685 0.000685 0.000000 0.000000 0.024307 -0.000173
# 6 0.000000 0.000000 0.000000 0.001370 -0.000173 0.035466
#
#
# Mechanical properties :
#
#
# Convention : Reuss Voigt Hill
#
# Bulk Modulus (GPa) = 50.36471 50.42500 50.39485
# Shear Modulus (GPa) = 33.87120 34.92919 34.40020
#
# Velocity S-wave (km/s) = 3.67644 3.73341 3.70503
# Velocity P-wave (km/s) = 6.17409 6.22145 6.19782
#
# Compressibility (1/GPa) = 0.01985517
#
# Stress axis : x y z
#
# Youngs Moduli (GPa) = 73.69658 73.69658 88.89234
#
# Poissons Ratio (x) = 0.30686 0.22679
# Poissons Ratio (y) = 0.30686 0.22679
# Poissons Ratio (z) = 0.18802 0.18802
#
# Static dielectric constant tensor:
#      x y z
#    x 2.111080 0.000000 0.000000 
#    y 0.000000 2.111080 0.000000 
#    z 0.000000 0.000000 1.978520 
# 
# From -- ./inp_files/618.got.cif
#   From: 2010.05.17/outbox.cif.g08.bks.cpg/sg145_cif.got.tgz:618.got - 2010.05.20 13:47:28.
