data_PCOD9574976
_publ_section_title
;
Structure prediction by ZEFSAII (Michael W. Deem and Ramdas Pophale) SiO2 
 PCOD9574976
Probable space group: P -3
;
_chemical_formula_sum "Si O2"
_cell_formula_units_Z 48
_cell_length_a 17.722749
_cell_length_b 17.722749
_cell_length_c 7.412545
_cell_angle_alpha 90.000000
_cell_angle_beta 90.000000
_cell_angle_gamma 120.000000
_cell_volume 2016.323205
_symmetry_space_group_name_H-M "P -3"
_symmetry_group_IT_number 147
_symmetry_cell_setting 'hexagonal'
loop_
_space_group_symop_operation_xyz
x,y,z
-y,x-y,z
-x+y,-x,z
-x,-y,-z
y,-x+y,-z
x-y,x,-z
loop_
_atom_site_type_symbol
_atom_site_label
_atom_site_fract_x
_atom_site_fract_y
_atom_site_fract_z
Si Si1 0.131335 0.509117 0.545414
Si Si2 0.810946 0.854561 0.954796
Si Si3 0.631144 0.566448 0.030331
Si Si4 0.624976 0.803791 0.528698
Si Si5 0.803791 0.178815 0.028698
Si Si6 0.509117 0.377781 0.045414
Si Si7 0.433552 0.064697 0.469669
Si Si8 0.956386 0.810947 0.454796
O O1 0.180801 0.462408 0.464598
O O2 0.163730 0.533944 0.750000
O O3 0.123806 0.589424 0.469675
O O4 0.031071 0.430032 0.545440
O O5 0.713305 0.807380 0.032774
O O6 0.806772 0.824578 0.750000
O O7 0.883357 0.839974 0.047837
O O8 0.731717 0.621343 0.979550
O O9 0.589424 0.465618 0.969675
O O10 0.624338 0.566106 0.250000
O O11 0.569968 0.601039 0.954560
O O12 0.625923 0.801200 0.750000
O O13 0.621343 0.889626 0.479550
O O14 0.713306 0.807380 0.467225
O O15 0.718393 0.180801 0.964599
O O16 0.883357 0.839974 0.452162
#
# Coordination Sequence:
#
# PCOD9574976 Si02
#       8
#     6   6   6   6   6   6   6   6
#     4   9  17  31  50  71  97 127 160 197 240 286
#     4  11  22  36  53  73 102 134 170 209 251 297
#     4   9  17  31  50  71  97 127 160 197 240 286
#     4   9  18  32  50  75 101 128 163 205 243 289
#     4   9  18  32  50  75 101 128 163 205 243 289
#     4   9  17  31  50  71  97 127 160 197 240 286
#     4   9  17  31  50  71  97 127 160 197 240 286
#     4  11  22  36  53  73 102 134 170 209 251 297
#
# _framework density 23.805709
#
# number of rings (size 3 to 8) (size 9 to 14) (size 15 to 20)
#    0.000    2.500    0.000    2.500    0.000    0.000 
#    1.500    3.750    0.000    0.000    0.000    0.000 
#    0.000    0.000    0.000    0.000    0.000    0.000 
#
# Total GULP energy -268088.479955 kJ/mol
# GULP energy per Si atom -5585.176666 kJ/mol
# Density = 2.375153 g / cm^3
# Si number density = 23.805709 Si / 1000 Ang^3
#
#
#
# Elastic Constant Matrix: (Units=GPa)
#
#
# Indices 1 2 3 4 5 6 
#
# 1 64.2141 -9.4615 -5.2547 -0.0001 0.0001 0.0000
# 2 -9.4615 64.2141 -5.2547 0.0001 -0.0001 0.0000
# 3 -5.2547 -5.2547 89.4642 0.0000 0.0000 0.0000
# 4 -0.0001 0.0001 0.0000 -14.7543 0.0000 -0.0001
# 5 0.0001 -0.0001 0.0000 0.0000 -14.7543 -0.0001
# 6 0.0000 0.0000 0.0000 -0.0001 -0.0001 36.8378
#
#
#
# Elastic Compliance Matrix: (Units=1/GPa)
#
#
# Indices 1 2 3 4 5 6 
#
# 1 0.016023 0.002450 0.001085 0.000000 0.000000 0.000000
# 2 0.002450 0.016023 0.001085 0.000000 0.000000 0.000000
# 3 0.001085 0.001085 0.011305 0.000000 0.000000 0.000000
# 4 0.000000 0.000000 0.000000 -0.067777 0.000000 0.000000
# 5 0.000000 0.000000 0.000000 0.000000 -0.067777 0.000000
# 6 0.000000 0.000000 0.000000 0.000000 0.000000 0.027146
#
#
# Mechanical properties :
#
#
# Convention : Reuss Voigt Hill
#
# Bulk Modulus (GPa) = 19.01523 19.77230 19.39377
# Shear Modulus (GPa) = -88.07989 17.32340 -35.37825
#
# Velocity S-wave (km/s) = -6.08932 2.70052 -3.85921
# Velocity P-wave (km/s) = 6.43698 4.24823 3.41960
#
# Compressibility (1/GPa) = 0.05258942
#
# Stress axis : x y z
#
# Youngs Moduli (GPa) = 62.41178 62.41178 88.45557
#
# Poissons Ratio (x) = -0.15288 -0.09597
# Poissons Ratio (y) = -0.15288 -0.09597
# Poissons Ratio (z) = -0.06771 -0.06771
#
# Static dielectric constant tensor:
#      x y z
#    x 1.894170 0.000000 0.000000 
#    y 0.000000 1.894170 0.000000 
#    z 0.000000 0.000000 1.949790 
# 
# From -- ./inp_files/675.got.cif
#   From: 2010.05.17/outbox.cif.g08.bks.cpg/sg147_cif.got.tgz:675.got - 2010.05.20 13:49:32.
