data_PCOD9574510
_publ_section_title
;
Structure prediction by ZEFSAII (Michael W. Deem and Ramdas Pophale) SiO2 
 PCOD9574510
Probable space group: P 31
;
_chemical_formula_sum "Si O2"
_cell_formula_units_Z 18
_cell_length_a 9.716534
_cell_length_b 9.716534
_cell_length_c 9.107201
_cell_angle_alpha 90.000000
_cell_angle_beta 90.000000
_cell_angle_gamma 120.000000
_cell_volume 744.626183
_symmetry_space_group_name_H-M "P 31"
_symmetry_group_IT_number 144
_symmetry_cell_setting 'hexagonal'
loop_
_space_group_symop_operation_xyz
x,y,z
-y,x-y,1/3+z
-x+y,-x,2/3+z
loop_
_atom_site_type_symbol
_atom_site_label
_atom_site_fract_x
_atom_site_fract_y
_atom_site_fract_z
Si Si1 0.356597 0.242995 0.468630
Si Si2 0.856265 0.585109 0.656533
Si Si3 0.555101 0.486307 0.266103
Si Si4 0.278427 0.680815 0.021828
Si Si5 0.927896 0.944080 0.680193
Si Si6 0.976166 0.499095 0.366391
O O1 0.517197 0.338350 0.372020
O O2 0.381561 0.114665 0.558904
O O3 0.206809 0.189319 0.363595
O O4 0.359243 0.363210 0.590233
O O5 0.930952 0.533740 0.786529
O O6 0.888753 0.762957 0.677557
O O7 0.933820 0.553305 0.516078
O O8 0.664988 0.488052 0.653334
O O9 0.460029 0.557863 0.348309
O O10 0.324597 0.661311 0.851696
O O11 0.347981 0.870806 0.029278
O O12 0.995333 0.994714 0.512418
#
# Coordination Sequence:
#
# PCOD9574510 Si02
#       6
#     3   3   3   3   3   3
#     4  12  25  48  78 112 158 212 278 345 410 494
#     4  12  26  47  80 116 163 216 279 347 424 498
#     4  12  25  48  78 112 158 212 278 345 410 494
#     4  12  28  50  79 117 168 218 277 342 425 498
#     4  12  28  50  79 117 168 218 277 342 425 498
#     4  12  26  47  80 116 163 216 279 347 424 498
#
# _framework density 24.173203000000001
#
# number of rings (size 3 to 8) (size 9 to 14) (size 15 to 20)
#    0.000    0.000    3.333    7.000    0.000    4.000 
#    0.000    0.000    0.000    0.000    0.000    0.000 
#    0.000    0.000    0.000    0.000    0.000    0.000 
#
# Total GULP energy -100235.183181 kJ/mol
# GULP energy per Si atom -5568.621288 kJ/mol
# Density = 2.411818 g / cm^3
# Si number density = 24.173203 Si / 1000 Ang^3
#
#
#
# Elastic Constant Matrix: (Units=GPa)
#
#
# Indices 1 2 3 4 5 6 
#
# 1 76.0141 42.3141 17.9878 -2.5335 -1.8351 0.0000
# 2 42.3141 76.0141 17.9878 2.5335 1.8351 0.0000
# 3 17.9878 17.9878 186.3616 0.0000 0.0000 0.0000
# 4 -2.5335 2.5335 0.0000 45.3860 0.0000 1.8351
# 5 -1.8351 1.8351 0.0000 0.0000 45.3860 -2.5335
# 6 0.0000 0.0000 0.0000 1.8351 -2.5335 16.8500
#
#
#
# Elastic Compliance Matrix: (Units=1/GPa)
#
#
# Indices 1 2 3 4 5 6 
#
# 1 0.019382 -0.010676 -0.000840 0.001678 0.001215 0.000000
# 2 -0.010676 0.019382 -0.000840 -0.001678 -0.001215 0.000000
# 3 -0.000840 -0.000840 0.005528 0.000000 0.000000 0.000000
# 4 0.001678 -0.001678 0.000000 0.022319 0.000000 -0.002431
# 5 0.001215 -0.001215 0.000000 0.000000 0.022319 0.003356
# 6 0.000000 0.000000 0.000000 -0.002431 0.003356 0.060116
#
#
# Mechanical properties :
#
#
# Convention : Reuss Voigt Hill
#
# Bulk Modulus (GPa) = 51.07300 54.99656 53.03478
# Shear Modulus (GPa) = 27.73362 38.86442 33.29902
#
# Velocity S-wave (km/s) = 3.39084 4.01402 3.71552
# Velocity P-wave (km/s) = 6.04187 6.65459 6.35562
#
# Compressibility (1/GPa) = 0.01957982
#
# Stress axis : x y z
#
# Youngs Moduli (GPa) = 51.59325 51.59325 180.89271
#
# Poissons Ratio (x) = 0.55080 0.15202
# Poissons Ratio (y) = 0.55080 0.15202
# Poissons Ratio (z) = 0.04336 0.04336
#
# Static dielectric constant tensor:
#      x y z
#    x 2.019730 0.000000 0.000000 
#    y 0.000000 2.019730 0.000000 
#    z 0.000000 0.000000 1.998170 
# 
# From -- ./inp_files/264.got.cif
#   From: 2010.05.17/outbox.cif.g08.bks.cpg/sg144_cif.got.tgz:264.got - 2010.05.20 13:46:34.
