data_PCOD9574407
_publ_section_title
;
Structure prediction by ZEFSAII (Michael W. Deem and Ramdas Pophale) SiO2 
 PCOD9574407
Probable space group: P 31
;
_chemical_formula_sum "Si O2"
_cell_formula_units_Z 15
_cell_length_a 7.319904
_cell_length_b 7.319904
_cell_length_c 11.969780
_cell_angle_alpha 90.000000
_cell_angle_beta 90.000000
_cell_angle_gamma 120.000000
_cell_volume 555.427746
_symmetry_space_group_name_H-M "P 31"
_symmetry_group_IT_number 144
_symmetry_cell_setting 'hexagonal'
loop_
_space_group_symop_operation_xyz
x,y,z
-y,x-y,1/3+z
-x+y,-x,2/3+z
loop_
_atom_site_type_symbol
_atom_site_label
_atom_site_fract_x
_atom_site_fract_y
_atom_site_fract_z
Si Si1 0.934135 0.719286 0.610440
Si Si2 0.202828 0.548509 0.662128
Si Si3 0.527611 0.377045 0.155703
Si Si4 0.811894 0.066118 0.888731
Si Si5 0.212615 0.319303 0.320491
O O1 0.801318 0.578222 0.718469
O O2 0.763035 0.779755 0.567264
O O3 0.809312 0.963441 0.768992
O O4 0.135833 0.958585 0.613103
O O5 0.229487 0.353279 0.630299
O O6 0.050235 0.588482 0.576571
O O7 0.434080 0.747848 0.674708
O O8 0.075459 0.510629 0.776855
O O9 0.768680 0.501177 0.192386
O O10 0.386601 0.278784 0.263559
#
# Coordination Sequence:
#
# PCOD9574407 Si02
#       5
#     3   3   3   3   3
#     4  10  25  47  72 109 159 203 256 331 403 473
#     4  10  25  47  72 111 159 205 261 327 406 476
#     4  10  23  48  72 115 161 203 266 330 403 479
#     4  12  24  47  82 111 157 213 264 341 397 485
#     4  12  23  45  80 114 156 206 275 321 399 491
#
# _framework density 27.006215999999998
#
# number of rings (size 3 to 8) (size 9 to 14) (size 15 to 20)
#    1.200    0.000    2.000    3.600    0.000    1.600 
#    3.600    0.000    0.000    0.000    0.000    0.000 
#    0.000    0.000    0.000    0.000    0.000    0.000 
#
# Total GULP energy -83687.497208 kJ/mol
# GULP energy per Si atom -5579.166481 kJ/mol
# Density = 2.694475 g / cm^3
# Si number density = 27.006216 Si / 1000 Ang^3
#
#
#
# Elastic Constant Matrix: (Units=GPa)
#
#
# Indices 1 2 3 4 5 6 
#
# 1 140.3924 25.0052 16.2697 1.5658 1.9023 0.0000
# 2 25.0052 140.3924 16.2697 -1.5658 -1.9023 0.0000
# 3 16.2697 16.2697 75.9200 0.0000 0.0000 0.0000
# 4 1.5658 -1.5658 0.0000 37.0739 0.0000 -1.9023
# 5 1.9023 -1.9023 0.0000 0.0000 37.0739 1.5658
# 6 0.0000 0.0000 0.0000 -1.9023 1.5658 57.6936
#
#
#
# Elastic Compliance Matrix: (Units=1/GPa)
#
#
# Indices 1 2 3 4 5 6 
#
# 1 0.007502 -0.001189 -0.001353 -0.000367 -0.000446 0.000000
# 2 -0.001189 0.007502 -0.001353 0.000367 0.000446 0.000000
# 3 -0.001353 -0.001353 0.013752 0.000000 0.000000 0.000000
# 4 -0.000367 0.000367 0.000000 0.027050 0.000000 0.000892
# 5 -0.000446 0.000446 0.000000 0.000000 0.027050 -0.000734
# 6 0.000000 0.000000 0.000000 0.000892 -0.000734 0.017382
#
#
# Mechanical properties :
#
#
# Convention : Reuss Voigt Hill
#
# Bulk Modulus (GPa) = 47.69842 52.42156 50.05999
# Shear Modulus (GPa) = 43.47254 46.31227 44.89241
#
# Velocity S-wave (km/s) = 4.01649 4.14560 4.08155
# Velocity P-wave (km/s) = 6.26178 6.50905 6.38661
#
# Compressibility (1/GPa) = 0.02096506
#
# Stress axis : x y z
#
# Youngs Moduli (GPa) = 133.30403 133.30403 72.71915
#
# Poissons Ratio (x) = 0.15856 0.09837
# Poissons Ratio (y) = 0.15856 0.09837
# Poissons Ratio (z) = 0.18032 0.18032
#
# Static dielectric constant tensor:
#      x y z
#    x 2.132650 0.000000 0.000000 
#    y 0.000000 2.132650 0.000000 
#    z 0.000000 0.000000 2.157200 
# 
# From -- ./inp_files/482.got.cif
#   From: 2010.05.17/outbox.cif.g08.bks.cpg/sg144_cif.got.tgz:482.got - 2010.05.20 13:46:34.
