data_PCOD9574159
_publ_section_title
;
Structure prediction by ZEFSAII (Michael W. Deem and Ramdas Pophale) SiO2 
 PCOD9574159
Probable space group: I 41/A C D
;
_chemical_formula_sum "Si O2"
_cell_formula_units_Z 120
_cell_length_a 18.889163
_cell_length_b 18.889163
_cell_length_c 13.299339
_cell_angle_alpha 90.000000
_cell_angle_beta 90.000000
_cell_angle_gamma 90.000000
_cell_volume 4745.210523
_symmetry_space_group_name_H-M "I 41/A C D"
_symmetry_group_IT_number 142
_space_group.IT_coordinate_system_code '2'
_symmetry_cell_setting 'tetragonal'
loop_
_space_group_symop_operation_xyz
x,y,z
1/4-y,3/4+x,1/4+z
-x,1/2-y,z
1/4+y,1/4-x,3/4+z
x,-y,1/2-z
1/2-x,y,-z
3/4+y,1/4+x,1/4-z
1/4-y,1/4-x,1/4-z
-x,-y,-z
3/4+y,1/4-x,3/4-z
x,1/2+y,-z
3/4-y,3/4+x,1/4-z
-x,y,1/2+z
1/2+x,-y,z
1/4-y,3/4-x,3/4+z
3/4+y,3/4+x,3/4+z
1/2+x,1/2+y,1/2+z
3/4-y,1/4+x,3/4+z
1/2-x,-y,1/2+z
3/4+y,3/4-x,1/4+z
1/2+x,1/2-y,-z
-x,1/2+y,1/2-z
1/4+y,3/4+x,3/4-z
3/4-y,3/4-x,3/4-z
1/2-x,1/2-y,1/2-z
1/4+y,3/4-x,1/4-z
1/2+x,y,1/2-z
1/4-y,1/4+x,3/4-z
1/2-x,1/2+y,z
x,1/2-y,1/2+z
3/4-y,1/4-x,1/4+z
1/4+y,1/4+x,1/4+z
loop_
_atom_site_type_symbol
_atom_site_label
_atom_site_fract_x
_atom_site_fract_y
_atom_site_fract_z
Si Si1 0.603491 0.146510 0.375000
Si Si2 0.901201 0.496695 0.438302
Si Si3 0.602463 0.791739 0.728174
Si Si4 0.000000 0.250000 0.375000
Si Si5 0.766816 0.098778 0.895601
O O1 0.688382 0.159799 0.390354
O O2 0.589247 0.209433 0.296700
O O3 0.948782 0.429499 0.471660
O O4 0.891368 0.534164 0.546519
O O5 0.828438 0.457870 0.410269
O O6 0.585542 0.835542 0.625000
O O7 0.543344 0.807695 0.810519
O O8 0.696391 0.053610 0.875000
O O9 0.750000 0.138703 0.000000
#
# Coordination Sequence:
#
# PCOD9574159 Si02
#       5
#    16  32  32   8  32
#     4  12  25  48  70 114 158 186 266 331 374 476
#     4  11  24  41  77 105 148 201 245 321 401 451
#     4  12  26  52  76 105 153 208 262 322 390 475
#     4  12  26  52  80  98 148 212 266 316 388 466
#     4   9  18  38  63 103 144 184 242 310 376 455
#
# _framework density 25.288654999999999
#
# number of rings (size 3 to 8) (size 9 to 14) (size 15 to 20)
#    0.000    1.067    4.000    3.200    3.733    0.000 
#    0.000    0.000    5.867    0.000    0.000    0.000 
#    0.000    0.000    0.000    0.000    0.000    0.000 
#
# Total GULP energy -334331.766696 kJ/mol
# GULP energy per Si atom -5572.196112 kJ/mol
# Density = 2.523110 g / cm^3
# Si number density = 25.288655 Si / 1000 Ang^3
#
#
#
# Elastic Constant Matrix: (Units=GPa)
#
#
# Indices 1 2 3 4 5 6 
#
# 1 -373.6818 533.7086 45.6904 0.0000 0.0000 0.0000
# 2 533.7086 -373.6375 45.6800 0.0000 0.0000 0.0000
# 3 45.6904 45.6800 54.2313 0.0000 0.0000 0.0000
# 4 0.0000 0.0000 0.0000 6.1731 0.0000 0.0000
# 5 0.0000 0.0000 0.0000 0.0000 6.1580 0.0000
# 6 0.0000 0.0000 0.0000 0.0000 0.0000 46.2054
#
#
#
# Elastic Compliance Matrix: (Units=1/GPa)
#
#
# Indices 1 2 3 4 5 6 
#
# 1 0.005467 0.006570 -0.010140 0.000000 0.000000 0.000000
# 2 0.006570 0.005468 -0.010141 0.000000 0.000000 0.000000
# 3 -0.010140 -0.010141 0.035524 0.000000 0.000000 0.000000
# 4 0.000000 0.000000 0.000000 0.161992 0.000000 0.000000
# 5 0.000000 0.000000 0.000000 0.000000 0.162392 0.000000
# 6 0.000000 0.000000 0.000000 0.000000 0.000000 0.021643
#
#
# Mechanical properties :
#
#
# Convention : Reuss Voigt Hill
#
# Bulk Modulus (GPa) = 52.52826 61.89666 57.21246
# Shear Modulus (GPa) = 11.73014 -76.17051 -32.22018
#
# Velocity S-wave (km/s) = 2.15605 -5.49416 -3.57332
# Velocity P-wave (km/s) = 5.19756 3.96466 2.37656
#
# Compressibility (1/GPa) = 0.01903737
#
# Stress axis : x y z
#
# Youngs Moduli (GPa) = 182.91400 182.88655 28.15003
#
# Poissons Ratio (x) = -1.20148 0.28543
# Poissons Ratio (y) = -1.20166 0.28546
# Poissons Ratio (z) = 1.85469 1.85458
#
# Static dielectric constant tensor:
#      x y z
#    x 2.136770 0.000000 0.000000 
#    y 0.000000 2.136850 0.000000 
#    z 0.000000 0.000000 2.299380 
# 
# From -- ./inp_files/5051.got.cif
#   From: 2010.05.17/outbox.cif.g08.bks.cpg/sg142_3_cif.got.tgz:5051.got - 2010.05.20 13:39:18.
