data_PCOD9574742
_publ_section_title
;
Structure prediction by ZEFSAII (Michael W. Deem and Ramdas Pophale) SiO2 
 PCOD9574742
Probable space group: R 3
;
_chemical_formula_sum "Si O2"
_cell_formula_units_Z 63
_cell_length_a 18.250565
_cell_length_b 18.250565
_cell_length_c 9.183995
_cell_angle_alpha 90.000000
_cell_angle_beta 90.000000
_cell_angle_gamma 120.000000
_cell_volume 2649.200925
_symmetry_space_group_name_H-M "R 3"
_symmetry_group_IT_number 146
_symmetry_cell_setting 'hexagonal'
loop_
_space_group_symop_operation_xyz
x,y,z
-y,x-y,z
-x+y,-x,z
2/3+x,1/3+y,1/3+z
2/3-y,1/3+x-y,1/3+z
2/3-x+y,1/3-x,1/3+z
1/3+x,2/3+y,2/3+z
1/3-y,2/3+x-y,2/3+z
1/3-x+y,2/3-x,2/3+z
loop_
_atom_site_type_symbol
_atom_site_label
_atom_site_fract_x
_atom_site_fract_y
_atom_site_fract_z
Si Si1 0.775561 0.388690 0.084450
Si Si2 0.551284 0.581485 0.421087
Si Si3 0.761294 0.910139 0.335894
Si Si4 0.315968 0.833151 0.175311
Si Si5 0.885181 0.254918 0.407984
Si Si6 0.272380 0.183122 0.895637
Si Si7 0.307018 0.350028 0.988171
O O1 0.711676 0.424463 0.101585
O O2 0.853903 0.432172 0.190532
O O3 0.812708 0.401963 0.922122
O O4 0.547603 0.645904 0.307497
O O5 0.649217 0.607330 0.437342
O O6 0.520301 0.585899 0.579655
O O7 0.497743 0.487427 0.357420
O O8 0.821551 0.886709 0.426049
O O9 0.742121 0.855265 0.191478
O O10 0.670853 0.874525 0.424476
O O11 0.787291 0.007803 0.315280
O O12 0.261173 0.862580 0.083551
O O13 0.247059 0.252345 0.943246
O O14 0.306282 0.337579 0.168500
#
# Coordination Sequence:
#
# PCOD9574742 Si02
#       7
#     9   9   9   9   9   9   9
#     4  10  24  44  70  99 126 190 243 290 358 444
#     4  11  22  34  65 101 135 181 226 289 361 418
#     4  10  22  39  67 100 142 179 228 299 365 432
#     4  11  20  41  64  97 141 180 233 296 349 441
#     4  12  20  35  62 102 139 177 230 287 359 425
#     4  10  22  44  66  97 137 182 237 290 353 446
#     4  10  24  45  68 104 144 189 237 299 375 442
#
# _framework density 23.780754999999999
#
# number of rings (size 3 to 8) (size 9 to 14) (size 15 to 20)
#    0.286    1.143    4.286    0.857    2.000    6.857 
#    2.571    0.000    0.000    0.000    0.000    0.000 
#    0.000    0.000    0.000    0.000    0.000    0.000 
#
# Total GULP energy -116906.351603 kJ/mol
# GULP energy per Si atom -5566.969124 kJ/mol
# Density = 2.372663 g / cm^3
# Si number density = 23.780755 Si / 1000 Ang^3
#
#
#
# Elastic Constant Matrix: (Units=GPa)
#
#
# Indices 1 2 3 4 5 6 
#
# 1 70.2866 12.9990 20.1472 -0.5416 -3.2339 0.0000
# 2 12.9990 70.2865 20.1469 0.5417 3.2340 0.0000
# 3 20.1472 20.1469 126.2328 0.0001 0.0004 0.0000
# 4 -0.5416 0.5417 0.0001 23.5230 0.0001 3.2341
# 5 -3.2339 3.2340 0.0004 0.0001 23.5232 -0.5417
# 6 0.0000 0.0000 0.0000 3.2341 -0.5417 28.6438
#
#
#
# Elastic Compliance Matrix: (Units=1/GPa)
#
#
# Indices 1 2 3 4 5 6 
#
# 1 0.015375 -0.002364 -0.002077 0.000408 0.002439 0.000000
# 2 -0.002364 0.015375 -0.002077 -0.000409 -0.002439 0.000000
# 3 -0.002077 -0.002077 0.008585 0.000000 0.000000 0.000000
# 4 0.000408 -0.000409 0.000000 0.043201 0.000000 -0.004878
# 5 0.002439 -0.002439 0.000000 0.000000 0.043201 0.000817
# 6 0.000000 0.000000 0.000000 -0.004878 0.000817 0.035478
#
#
# Mechanical properties :
#
#
# Convention : Reuss Voigt Hill
#
# Bulk Modulus (GPa) = 38.02103 41.48799 39.75451
# Shear Modulus (GPa) = 27.32006 29.37218 28.34612
#
# Velocity S-wave (km/s) = 3.39312 3.51825 3.45625
# Velocity P-wave (km/s) = 5.60124 5.82992 5.71672
#
# Compressibility (1/GPa) = 0.02630123
#
# Stress axis : x y z
#
# Youngs Moduli (GPa) = 65.03967 65.03972 116.48555
#
# Poissons Ratio (x) = 0.15373 0.24191
# Poissons Ratio (y) = 0.15373 0.24190
# Poissons Ratio (z) = 0.13507 0.13506
#
# Static dielectric constant tensor:
#      x y z
#    x 2.024370 0.000000 0.000000 
#    y 0.000000 2.024370 0.000000 
#    z 0.000000 0.000000 1.942960 
# 
# From -- ./inp_files/808.got.cif
#   From: 2010.05.17/outbox.cif.g08.bks.cpg/sg146_cif.got.tgz:808.got - 2010.05.20 13:48:23.
