data_PCOD9574657
_publ_section_title
;
Structure prediction by ZEFSAII (Michael W. Deem and Ramdas Pophale) SiO2 
 PCOD9574657
Probable space group: P 32
;
_chemical_formula_sum "Si O2"
_cell_formula_units_Z 18
_cell_length_a 4.899828
_cell_length_b 4.899828
_cell_length_c 32.693105
_cell_angle_alpha 90.000000
_cell_angle_beta 90.000000
_cell_angle_gamma 120.000000
_cell_volume 679.748834
_symmetry_space_group_name_H-M "P 32"
_symmetry_group_IT_number 145
_symmetry_cell_setting 'hexagonal'
loop_
_space_group_symop_operation_xyz
x,y,z
-y,x-y,2/3+z
-x+y,-x,1/3+z
loop_
_atom_site_type_symbol
_atom_site_label
_atom_site_fract_x
_atom_site_fract_y
_atom_site_fract_z
Si Si1 0.342922 0.255708 0.523190
Si Si2 0.412749 0.657159 0.413402
Si Si3 0.776962 0.620440 0.025690
Si Si4 0.323779 0.246190 0.137364
Si Si5 0.323825 0.746029 0.580485
Si Si6 0.889687 0.176778 0.634865
O O1 0.327793 0.549783 0.541362
O O2 0.308954 0.039878 0.562081
O O3 0.071097 0.015594 0.492675
O O4 0.682294 0.404395 0.501212
O O5 0.706591 0.642271 0.431806
O O6 0.557593 0.975174 0.386882
O O7 0.161827 0.376357 0.385418
O O8 0.798548 0.496759 0.339809
O O9 0.968446 0.836584 0.987413
O O10 0.338908 0.555398 0.119192
O O11 0.042997 0.495106 0.608467
O O12 0.641818 0.890868 0.607010
#
# Coordination Sequence:
#
# PCOD9574657 Si02
#       6
#     3   3   3   3   3   3
#     4  12  27  50  78 112 153 201 254 315 381 454
#     4  12  28  50  78 114 154 202 256 316 382 456
#     4  12  29  52  79 114 156 203 256 317 384 456
#     4  12  27  50  78 112 153 201 254 315 381 454
#     4  12  28  50  78 114 154 202 256 316 382 456
#     4  12  29  52  79 114 156 203 256 317 384 456
#
# _framework density 26.480366
#
# number of rings (size 3 to 8) (size 9 to 14) (size 15 to 20)
#    0.000    0.000    0.000    8.000    0.000   18.667 
#    0.000    0.000    0.000    0.000    0.000    0.000 
#    0.000    0.000    0.000    0.000    0.000    0.000 
#
# Total GULP energy -101235.917856 kJ/mol
# GULP energy per Si atom -5624.217659 kJ/mol
# Density = 2.642010 g / cm^3
# Si number density = 26.480366 Si / 1000 Ang^3
#
#
#
# Elastic Constant Matrix: (Units=GPa)
#
#
# Indices 1 2 3 4 5 6 
#
# 1 107.2629 33.0445 38.3686 -4.8907 -0.0015 0.0000
# 2 33.0445 107.2629 38.3686 4.8907 0.0015 0.0000
# 3 38.3686 38.3686 146.5193 0.0000 0.0000 0.0000
# 4 -4.8907 4.8907 0.0000 38.2236 0.0000 0.0015
# 5 -0.0015 0.0015 0.0000 0.0000 38.2236 -4.8907
# 6 0.0000 0.0000 0.0000 0.0015 -4.8907 37.1092
#
#
#
# Elastic Compliance Matrix: (Units=1/GPa)
#
#
# Indices 1 2 3 4 5 6 
#
# 1 0.011012 -0.002693 -0.002178 0.001754 0.000001 0.000000
# 2 -0.002693 0.011012 -0.002178 -0.001754 -0.000001 0.000000
# 3 -0.002178 -0.002178 0.007966 0.000000 0.000000 0.000000
# 4 0.001754 -0.001754 0.000000 0.026611 0.000000 -0.000001
# 5 0.000001 -0.000001 0.000000 0.000000 0.026611 0.003507
# 6 0.000000 0.000000 0.000000 -0.000001 0.003507 0.027410
#
#
# Mechanical properties :
#
#
# Convention : Reuss Voigt Hill
#
# Bulk Modulus (GPa) = 62.93401 64.51205 63.72303
# Shear Modulus (GPa) = 38.45665 39.46217 38.95941
#
# Velocity S-wave (km/s) = 3.81500 3.86455 3.83986
# Velocity P-wave (km/s) = 6.57446 6.65794 6.61633
#
# Compressibility (1/GPa) = 0.01588966
#
# Stress axis : x y z
#
# Youngs Moduli (GPa) = 90.81231 90.81231 125.53467
#
# Poissons Ratio (x) = 0.24457 0.27346
# Poissons Ratio (y) = 0.24457 0.27346
# Poissons Ratio (z) = 0.19782 0.19782
#
# Static dielectric constant tensor:
#      x y z
#    x 2.004210 0.000000 0.000000 
#    y 0.000000 2.004210 0.000000 
#    z 0.000000 0.000000 2.045510 
# 
# From -- ./inp_files/1021.got.cif
#   From: 2010.05.17/outbox.cif.g08.bks.cpg/sg145_cif.got.tgz:1021.got - 2010.05.20 13:47:28.
