data_PCOD9574821
_publ_section_title
;
Structure prediction by ZEFSAII (Michael W. Deem and Ramdas Pophale) SiO2 
 PCOD9574821
Probable space group: R 3
;
_chemical_formula_sum "Si O2"
_cell_formula_units_Z 60
_cell_length_a 15.351257
_cell_length_b 15.351257
_cell_length_c 13.237537
_cell_angle_alpha 90.000000
_cell_angle_beta 90.000000
_cell_angle_gamma 120.000000
_cell_volume 2701.628963
_symmetry_space_group_name_H-M "R 3"
_symmetry_group_IT_number 146
_symmetry_cell_setting 'hexagonal'
loop_
_space_group_symop_operation_xyz
x,y,z
-y,x-y,z
-x+y,-x,z
2/3+x,1/3+y,1/3+z
2/3-y,1/3+x-y,1/3+z
2/3-x+y,1/3-x,1/3+z
1/3+x,2/3+y,2/3+z
1/3-y,2/3+x-y,2/3+z
1/3-x+y,2/3-x,2/3+z
loop_
_atom_site_type_symbol
_atom_site_label
_atom_site_fract_x
_atom_site_fract_y
_atom_site_fract_z
Si Si1 0.020356 0.268531 0.172770
Si Si2 0.000000 0.000000 0.011233
Si Si3 0.815290 0.826109 0.972026
Si Si4 0.369166 0.488738 0.359910
Si Si5 0.764068 0.141815 0.641325
Si Si6 0.666667 0.333334 0.100499
Si Si7 0.200434 0.886739 0.522463
Si Si8 0.787562 0.122365 0.225380
O O1 0.104048 0.250133 0.224401
O O2 0.052799 0.383119 0.195789
O O3 0.907766 0.189196 0.208476
O O4 0.013006 0.263156 0.051832
O O5 0.110570 0.025596 0.037864
O O6 0.000000 0.000000 0.888683
O O7 0.829424 0.767824 0.878135
O O8 0.771829 0.899053 0.944418
O O9 0.268859 0.408055 0.303472
O O10 0.360000 0.583188 0.396177
O O11 0.459184 0.522558 0.282031
O O12 0.393189 0.435581 0.453832
O O13 0.804323 0.190534 0.752184
O O14 0.644760 0.071006 0.620152
#
# Coordination Sequence:
#
# PCOD9574821 Si02
#       8
#     9   3   9   9   9   3   9   9
#     4  11  26  48  75 103 151 199 245 293 382 446
#     4  12  24  36  69 103 137 175 240 312 360 424
#     4  11  25  42  75 102 144 189 243 303 374 438
#     4  12  25  45  74 107 145 188 252 307 372 435
#     4  12  28  46  76 109 150 189 250 310 369 437
#     4  12  24  45  69 109 140 190 249 315 354 445
#     4  11  24  48  72 104 142 200 239 300 371 449
#     4  11  26  46  74 109 143 190 242 308 370 440
#
# _framework density 22.208825000000001
#
# number of rings (size 3 to 8) (size 9 to 14) (size 15 to 20)
#    0.000    0.600    3.000    4.500   12.600    0.000 
#    3.600    0.000    0.000    0.000    0.000    0.000 
#    0.000    0.000    0.000    0.000    0.000    0.000 
#
# Total GULP energy -111715.028758 kJ/mol
# GULP energy per Si atom -5585.751438 kJ/mol
# Density = 2.215828 g / cm^3
# Si number density = 22.208825 Si / 1000 Ang^3
#
#
#
# Elastic Constant Matrix: (Units=GPa)
#
#
# Indices 1 2 3 4 5 6 
#
# 1 96.0933 26.3426 27.8623 7.5228 4.9256 0.0000
# 2 26.3426 96.0934 27.8623 -7.5230 -4.9255 0.0000
# 3 27.8623 27.8623 92.1010 0.0000 0.0000 0.0001
# 4 7.5228 -7.5230 0.0000 33.4969 0.0000 -4.9256
# 5 4.9256 -4.9255 0.0000 0.0000 33.4970 7.5227
# 6 0.0000 0.0000 0.0001 -4.9256 7.5227 34.8754
#
#
#
# Elastic Compliance Matrix: (Units=1/GPa)
#
#
# Indices 1 2 3 4 5 6 
#
# 1 0.012437 -0.002966 -0.002865 -0.003459 -0.002265 0.000000
# 2 -0.002966 0.012437 -0.002865 0.003459 0.002265 0.000000
# 3 -0.002865 -0.002865 0.012591 0.000000 0.000000 0.000000
# 4 -0.003459 0.003459 0.000000 0.032073 0.000000 0.004530
# 5 -0.002265 0.002265 0.000000 0.000000 0.032073 -0.006918
# 6 0.000000 0.000000 0.000000 0.004530 -0.006918 0.030806
#
#
# Mechanical properties :
#
#
# Convention : Reuss Voigt Hill
#
# Bulk Modulus (GPa) = 49.81772 49.82468 49.82120
# Shear Modulus (GPa) = 31.94856 33.85523 32.90189
#
# Velocity S-wave (km/s) = 3.79694 3.90860 3.85317
# Velocity P-wave (km/s) = 6.45775 6.54621 6.50213
#
# Compressibility (1/GPa) = 0.02007318
#
# Stress axis : x y z
#
# Youngs Moduli (GPa) = 80.40369 80.40373 79.41999
#
# Poissons Ratio (x) = 0.23844 0.22757
# Poissons Ratio (y) = 0.23844 0.22757
# Poissons Ratio (z) = 0.23039 0.23038
#
# Static dielectric constant tensor:
#      x y z
#    x 1.849660 0.000000 0.000000 
#    y 0.000000 1.849660 0.000000 
#    z 0.000000 0.000000 1.808060 
# 
# From -- ./inp_files/1561.got.cif
#   From: 2010.05.17/outbox.cif.g08.bks.cpg/sg146_cif.got.tgz:1561.got - 2010.05.20 13:48:23.
