data_PCOD9574221
_publ_section_title
;
Structure prediction by ZEFSAII (Michael W. Deem and Ramdas Pophale) SiO2 
 PCOD9574221
Probable space group: I 41/A C D
;
_chemical_formula_sum "Si O2"
_cell_formula_units_Z 72
_cell_length_a 13.423555
_cell_length_b 13.423555
_cell_length_c 19.582503
_cell_angle_alpha 90.000000
_cell_angle_beta 90.000000
_cell_angle_gamma 90.000000
_cell_volume 3528.607029
_symmetry_space_group_name_H-M "I 41/A C D"
_symmetry_group_IT_number 142
_space_group.IT_coordinate_system_code '2'
_symmetry_cell_setting 'tetragonal'
loop_
_space_group_symop_operation_xyz
x,y,z
1/4-y,3/4+x,1/4+z
-x,1/2-y,z
1/4+y,1/4-x,3/4+z
x,-y,1/2-z
1/2-x,y,-z
3/4+y,1/4+x,1/4-z
1/4-y,1/4-x,1/4-z
-x,-y,-z
3/4+y,1/4-x,3/4-z
x,1/2+y,-z
3/4-y,3/4+x,1/4-z
-x,y,1/2+z
1/2+x,-y,z
1/4-y,3/4-x,3/4+z
3/4+y,3/4+x,3/4+z
1/2+x,1/2+y,1/2+z
3/4-y,1/4+x,3/4+z
1/2-x,-y,1/2+z
3/4+y,3/4-x,1/4+z
1/2+x,1/2-y,-z
-x,1/2+y,1/2-z
1/4+y,3/4+x,3/4-z
3/4-y,3/4-x,3/4-z
1/2-x,1/2-y,1/2-z
1/4+y,3/4-x,1/4-z
1/2+x,y,1/2-z
1/4-y,1/4+x,3/4-z
1/2-x,1/2+y,z
x,1/2-y,1/2+z
3/4-y,1/4-x,1/4+z
1/4+y,1/4+x,1/4+z
loop_
_atom_site_type_symbol
_atom_site_label
_atom_site_fract_x
_atom_site_fract_y
_atom_site_fract_z
Si Si1 0.227403 0.775204 0.827945
Si Si2 0.354394 0.527865 0.329346
Si Si3 0.000000 0.250000 0.125000
O O1 0.250000 0.750000 0.750000
O O2 0.289456 0.709945 0.883068
O O3 0.274040 0.884607 0.835704
O O4 0.108023 0.757758 0.837287
O O5 0.366825 0.500000 0.250000
O O6 0.309889 0.440112 0.375000
#
# Coordination Sequence:
#
# PCOD9574221 Si02
#       3
#    32  32   8
#     4  12  26  46  73 107 145 196 244 298 368 436
#     4  12  25  46  73 108 149 188 246 304 363 437
#     4  12  24  44  76 102 144 192 238 296 368 428
#
# _framework density 20.404653
#
# number of rings (size 3 to 8) (size 9 to 14) (size 15 to 20)
#    0.000    0.000    8.889    0.000    0.000    9.778 
#    0.000    0.000    0.000    0.000    0.000    0.000 
#    0.000    0.000    0.000    0.000    0.000    0.000 
#
# Total GULP energy -200480.554095 kJ/mol
# GULP energy per Si atom -5568.904280 kJ/mol
# Density = 2.035821 g / cm^3
# Si number density = 20.404653 Si / 1000 Ang^3
#
#
#
# Elastic Constant Matrix: (Units=GPa)
#
#
# Indices 1 2 3 4 5 6 
#
# 1 119.0826 57.1942 72.4481 0.0000 0.0000 0.0000
# 2 57.1942 119.0819 72.4484 0.0000 0.0000 0.0000
# 3 72.4481 72.4484 198.4797 0.0000 0.0000 0.0000
# 4 0.0000 0.0000 0.0000 22.2732 0.0000 0.0000
# 5 0.0000 0.0000 0.0000 0.0000 22.2706 0.0000
# 6 0.0000 0.0000 0.0000 0.0000 0.0000 38.0767
#
#
#
# Elastic Compliance Matrix: (Units=1/GPa)
#
#
# Indices 1 2 3 4 5 6 
#
# 1 0.012131 -0.004027 -0.002958 0.000000 0.000000 0.000000
# 2 -0.004027 0.012131 -0.002958 0.000000 0.000000 0.000000
# 3 -0.002958 -0.002958 0.007198 0.000000 0.000000 0.000000
# 4 0.000000 0.000000 0.000000 0.044897 0.000000 0.000000
# 5 0.000000 0.000000 0.000000 0.000000 0.044902 0.000000
# 6 0.000000 0.000000 0.000000 0.000000 0.000000 0.026263
#
#
# Mechanical properties :
#
#
# Convention : Reuss Voigt Hill
#
# Bulk Modulus (GPa) = 86.40118 93.42506 89.91312
# Shear Modulus (GPa) = 29.19409 32.16102 30.67756
#
# Velocity S-wave (km/s) = 3.78664 3.97440 3.88165
# Velocity P-wave (km/s) = 7.84563 8.18209 8.01563
#
# Compressibility (1/GPa) = 0.01157392
#
# Stress axis : x y z
#
# Youngs Moduli (GPa) = 82.43112 82.43036 138.92844
#
# Poissons Ratio (x) = 0.33193 0.41099
# Poissons Ratio (y) = 0.33193 0.41100
# Poissons Ratio (z) = 0.24385 0.24386
#
# Static dielectric constant tensor:
#      x y z
#    x 1.862360 0.000000 0.000000 
#    y 0.000000 1.862290 0.000000 
#    z 0.000000 0.000000 1.574420 
# 
# From -- ./inp_files/6337.got.cif
#   From: 2010.05.17/outbox.cif.g08.bks.cpg/sg142_4_cif.got.tgz:6337.got - 2010.05.20 13:39:18.
