data_PCOD9574426
_publ_section_title
;
Structure prediction by ZEFSAII (Michael W. Deem and Ramdas Pophale) SiO2 
 PCOD9574426
Probable space group: P 31
;
_chemical_formula_sum "Si O2"
_cell_formula_units_Z 15
_cell_length_a 10.682189
_cell_length_b 10.682189
_cell_length_c 5.664919
_cell_angle_alpha 90.000000
_cell_angle_beta 90.000000
_cell_angle_gamma 120.000000
_cell_volume 559.815413
_symmetry_space_group_name_H-M "P 31"
_symmetry_group_IT_number 144
_symmetry_cell_setting 'hexagonal'
loop_
_space_group_symop_operation_xyz
x,y,z
-y,x-y,1/3+z
-x+y,-x,2/3+z
loop_
_atom_site_type_symbol
_atom_site_label
_atom_site_fract_x
_atom_site_fract_y
_atom_site_fract_z
Si Si1 0.640750 0.957750 0.836280
Si Si2 0.592638 0.417922 0.791300
Si Si3 0.998348 0.870309 0.892367
Si Si4 0.702638 0.721008 0.062795
Si Si5 0.450244 0.658800 0.322581
O O1 0.693437 0.858063 0.964672
O O2 0.470014 0.850340 0.838820
O O3 0.705929 0.962562 0.571503
O O4 0.647160 0.097426 0.956167
O O5 0.732809 0.438283 0.649901
O O6 0.637368 0.573797 0.910175
O O7 0.872551 0.790229 0.092370
O O8 0.108948 0.028757 0.998498
O O9 0.611690 0.689203 0.298539
O O10 0.413055 0.776978 0.414623
#
# Coordination Sequence:
#
# PCOD9574426 Si02
#       5
#     3   3   3   3   3
#     4  11  25  46  73 108 148 203 261 316 395 478
#     4  12  29  52  80 121 164 212 272 346 421 484
#     4  10  25  44  66 103 144 196 242 314 381 464
#     4  11  25  46  73 108 148 203 261 316 395 478
#     4  12  24  44  72 108 148 200 258 328 386 472
#
# _framework density 26.794543999999998
#
# number of rings (size 3 to 8) (size 9 to 14) (size 15 to 20)
#    0.000    0.800    2.000    3.600   11.200    6.400 
#    0.000    0.000    0.000    0.000    0.000    0.000 
#    0.000    0.000    0.000    0.000    0.000    0.000 
#
# Total GULP energy -83668.354121 kJ/mol
# GULP energy per Si atom -5577.890275 kJ/mol
# Density = 2.673356 g / cm^3
# Si number density = 26.794544 Si / 1000 Ang^3
#
#
#
# Elastic Constant Matrix: (Units=GPa)
#
#
# Indices 1 2 3 4 5 6 
#
# 1 118.9596 31.5223 34.1982 -5.5124 -3.2942 0.0000
# 2 31.5223 118.9596 34.1982 5.5124 3.2942 0.0000
# 3 34.1982 34.1982 60.2098 0.0000 0.0000 0.0000
# 4 -5.5124 5.5124 0.0000 46.7271 0.0000 3.2942
# 5 -3.2942 3.2942 0.0000 0.0000 46.7271 -5.5124
# 6 0.0000 0.0000 0.0000 3.2942 -5.5124 43.7187
#
#
#
# Elastic Compliance Matrix: (Units=1/GPa)
#
#
# Indices 1 2 3 4 5 6 
#
# 1 0.010315 -0.001357 -0.005088 0.001377 0.000823 0.000000
# 2 -0.001357 0.010315 -0.005088 -0.001377 -0.000823 0.000000
# 3 -0.005088 -0.005088 0.022388 0.000000 0.000000 0.000000
# 4 0.001377 -0.001377 0.000000 0.021842 0.000000 -0.001646
# 5 0.000823 -0.000823 0.000000 0.000000 0.021842 0.002754
# 6 0.000000 0.000000 0.000000 -0.001646 0.002754 0.023345
#
#
# Mechanical properties :
#
#
# Convention : Reuss Voigt Hill
#
# Bulk Modulus (GPa) = 50.11941 55.32959 52.72450
# Shear Modulus (GPa) = 35.77461 40.64858 38.21159
#
# Velocity S-wave (km/s) = 3.65793 3.89915 3.78047
# Velocity P-wave (km/s) = 6.04866 6.40044 6.22703
#
# Compressibility (1/GPa) = 0.01995235
#
# Stress axis : x y z
#
# Youngs Moduli (GPa) = 96.94501 96.94501 44.66616
#
# Poissons Ratio (x) = 0.13158 0.22726
# Poissons Ratio (y) = 0.13158 0.22726
# Poissons Ratio (z) = 0.49325 0.49325
#
# Static dielectric constant tensor:
#      x y z
#    x 2.267600 0.000000 0.000000 
#    y 0.000000 2.267600 0.000000 
#    z 0.000000 0.000000 2.231490 
# 
# From -- ./inp_files/60.got.cif
#   From: 2010.05.17/outbox.cif.g08.bks.cpg/sg144_cif.got.tgz:60.got - 2010.05.20 13:46:34.
