data_PCOD9574349
_publ_section_title
;
Structure prediction by ZEFSAII (Michael W. Deem and Ramdas Pophale) SiO2 
 PCOD9574349
Probable space group: P 31
;
_chemical_formula_sum "Si O2"
_cell_formula_units_Z 24
_cell_length_a 9.280654
_cell_length_b 9.280654
_cell_length_c 14.146444
_cell_angle_alpha 90.000000
_cell_angle_beta 90.000000
_cell_angle_gamma 120.000000
_cell_volume 1055.200722
_symmetry_space_group_name_H-M "P 31"
_symmetry_group_IT_number 144
_symmetry_cell_setting 'hexagonal'
loop_
_space_group_symop_operation_xyz
x,y,z
-y,x-y,1/3+z
-x+y,-x,2/3+z
loop_
_atom_site_type_symbol
_atom_site_label
_atom_site_fract_x
_atom_site_fract_y
_atom_site_fract_z
Si Si1 0.358107 0.735589 0.930150
Si Si2 0.322915 0.299586 0.515378
Si Si3 0.602648 0.408235 0.378876
Si Si4 0.433977 0.173537 0.063263
Si Si5 0.246711 0.145492 0.720472
Si Si6 0.997484 0.673438 0.890963
Si Si7 0.080615 0.952114 0.022777
Si Si8 0.110627 0.606264 0.464686
O O1 0.355973 0.570320 0.893489
O O2 0.189672 0.726016 0.895687
O O3 0.515646 0.887440 0.879669
O O4 0.393587 0.771673 0.041880
O O5 0.478913 0.305062 0.463575
O O6 0.274790 0.194460 0.609999
O O7 0.171797 0.231023 0.441652
O O8 0.716367 0.329588 0.350441
O O9 0.719464 0.598429 0.411352
O O10 0.483367 0.391905 0.294157
O O11 0.382586 0.282994 0.126775
O O12 0.274724 0.065421 0.998094
O O13 0.459667 0.042546 0.126927
O O14 0.274490 0.308859 0.777184
O O15 0.059619 0.997400 0.724469
O O16 0.984753 0.826988 0.936773
#
# Coordination Sequence:
#
# PCOD9574349 Si02
#       8
#     3   3   3   3   3   3   3   3
#     4  11  21  43  69  97 131 186 228 274 338 419
#     4  10  21  41  66  91 140 174 218 284 334 410
#     4  10  23  43  65  96 136 179 222 276 350 411
#     4  11  22  44  64  99 133 176 224 283 342 406
#     4  10  23  39  66  99 132 170 224 285 339 400
#     4  11  24  40  68  93 133 180 223 276 346 409
#     4  11  22  42  65  98 130 174 225 279 345 399
#     4  10  22  42  69  97 135 177 228 281 346 408
#
# _framework density 22.744489000000002
#
# number of rings (size 3 to 8) (size 9 to 14) (size 15 to 20)
#    0.000    1.500    2.500    2.250    3.500    3.000 
#    0.000    1.250    0.000    0.000    0.000    0.000 
#    0.000    0.000    0.000    0.000    0.000    0.000 
#
# Total GULP energy -134283.359049 kJ/mol
# GULP energy per Si atom -5595.139960 kJ/mol
# Density = 2.269272 g / cm^3
# Si number density = 22.744489 Si / 1000 Ang^3
#
#
#
# Elastic Constant Matrix: (Units=GPa)
#
#
# Indices 1 2 3 4 5 6 
#
# 1 98.6216 43.8561 12.4431 0.4248 3.1364 0.0000
# 2 43.8561 98.6216 12.4431 -0.4248 -3.1364 0.0000
# 3 12.4431 12.4431 41.8222 0.0000 0.0000 0.0000
# 4 0.4248 -0.4248 0.0000 24.4019 0.0000 -3.1364
# 5 3.1364 -3.1364 0.0000 0.0000 24.4019 0.4248
# 6 0.0000 0.0000 0.0000 -3.1364 0.4248 27.3827
#
#
#
# Elastic Compliance Matrix: (Units=1/GPa)
#
#
# Indices 1 2 3 4 5 6 
#
# 1 0.012970 -0.005567 -0.002203 -0.000323 -0.002383 0.000000
# 2 -0.005567 0.012970 -0.002203 0.000323 0.002383 0.000000
# 3 -0.002203 -0.002203 0.025221 0.000000 0.000000 0.000000
# 4 -0.000323 0.000323 0.000000 0.041604 0.000000 0.004765
# 5 -0.002383 0.002383 0.000000 0.000000 0.041604 -0.000645
# 6 0.000000 0.000000 0.000000 0.004765 -0.000645 0.037075
#
#
# Mechanical properties :
#
#
# Convention : Reuss Voigt Hill
#
# Bulk Modulus (GPa) = 32.03335 41.83890 36.93612
# Shear Modulus (GPa) = 24.77743 26.59220 25.68481
#
# Velocity S-wave (km/s) = 3.30416 3.42302 3.36412
# Velocity P-wave (km/s) = 5.35455 5.83591 5.60041
#
# Compressibility (1/GPa) = 0.03121747
#
# Stress axis : x y z
#
# Youngs Moduli (GPa) = 77.09812 77.09812 39.64879
#
# Poissons Ratio (x) = 0.42921 0.08733
# Poissons Ratio (y) = 0.42921 0.08733
# Poissons Ratio (z) = 0.16982 0.16982
#
# Static dielectric constant tensor:
#      x y z
#    x 1.841380 0.000000 0.000000 
#    y 0.000000 1.841380 0.000000 
#    z 0.000000 0.000000 1.853020 
# 
# From -- ./inp_files/845.got.cif
#   From: 2010.05.17/outbox.cif.g08.bks.cpg/sg144_cif.got.tgz:845.got - 2010.05.20 13:46:34.
