data_PCOD9574405
_publ_section_title
;
Structure prediction by ZEFSAII (Michael W. Deem and Ramdas Pophale) SiO2 
 PCOD9574405
Probable space group: P 31
;
_chemical_formula_sum "Si O2"
_cell_formula_units_Z 15
_cell_length_a 7.116743
_cell_length_b 7.116743
_cell_length_c 14.415917
_cell_angle_alpha 90.000000
_cell_angle_beta 90.000000
_cell_angle_gamma 120.000000
_cell_volume 632.317892
_symmetry_space_group_name_H-M "P 31"
_symmetry_group_IT_number 144
_symmetry_cell_setting 'hexagonal'
loop_
_space_group_symop_operation_xyz
x,y,z
-y,x-y,1/3+z
-x+y,-x,2/3+z
loop_
_atom_site_type_symbol
_atom_site_label
_atom_site_fract_x
_atom_site_fract_y
_atom_site_fract_z
Si Si1 0.125300 0.183396 0.562880
Si Si2 0.875636 0.526559 0.896254
Si Si3 0.527519 0.667242 0.568773
Si Si4 0.891052 0.085509 0.097380
Si Si5 0.636579 0.442029 0.714289
O O1 0.658720 0.382682 0.300818
O O2 0.318168 0.431291 0.554891
O O3 0.898050 0.176832 0.573647
O O4 0.657228 0.645393 0.657343
O O5 0.813017 0.464693 0.788625
O O6 0.129177 0.622204 0.916070
O O7 0.926972 0.903970 0.145985
O O8 0.934567 0.590148 0.437127
O O9 0.687779 0.734476 0.481001
O O10 0.923292 0.076812 0.988864
#
# Coordination Sequence:
#
# PCOD9574405 Si02
#       5
#     3   3   3   3   3
#     4  10  25  46  71 113 145 200 253 314 392 453
#     4  11  26  46  77 104 157 197 252 320 377 471
#     4  10  24  47  73 106 145 199 254 311 388 454
#     4  10  23  44  79  98 154 191 245 324 373 456
#     4  11  24  49  70 115 149 199 260 311 390 458
#
# _framework density 23.722245999999998
#
# number of rings (size 3 to 8) (size 9 to 14) (size 15 to 20)
#    0.000    1.600    2.000    0.000   14.000    0.000 
#   21.600    0.000    0.000    0.000    0.000    0.000 
#    0.000    0.000    0.000    0.000    0.000    0.000 
#
# Total GULP energy -83878.933339 kJ/mol
# GULP energy per Si atom -5591.928889 kJ/mol
# Density = 2.366825 g / cm^3
# Si number density = 23.722246 Si / 1000 Ang^3
#
#
#
# Elastic Constant Matrix: (Units=GPa)
#
#
# Indices 1 2 3 4 5 6 
#
# 1 118.6920 26.6834 47.2389 2.9841 -1.4307 0.0000
# 2 26.6834 118.6920 47.2389 -2.9841 1.4307 0.0000
# 3 47.2389 47.2389 129.3618 0.0000 0.0000 0.0000
# 4 2.9841 -2.9841 0.0000 26.1057 0.0000 1.4307
# 5 -1.4307 1.4307 0.0000 0.0000 26.1057 2.9841
# 6 0.0000 0.0000 0.0000 1.4307 2.9841 46.0043
#
#
#
# Elastic Compliance Matrix: (Units=1/GPa)
#
#
# Indices 1 2 3 4 5 6 
#
# 1 0.009994 -0.000975 -0.003294 -0.001254 0.000601 0.000000
# 2 -0.000975 0.009994 -0.003294 0.001254 -0.000601 0.000000
# 3 -0.003294 -0.003294 0.010136 0.000000 0.000000 0.000000
# 4 -0.001254 0.001254 0.000000 0.038658 0.000000 -0.001202
# 5 0.000601 -0.000601 0.000000 0.000000 0.038658 -0.002508
# 6 0.000000 0.000000 0.000000 -0.001202 -0.002508 0.021937
#
#
# Mechanical properties :
#
#
# Convention : Reuss Voigt Hill
#
# Bulk Modulus (GPa) = 66.66713 67.67423 67.17068
# Shear Modulus (GPa) = 33.44467 36.01544 34.73006
#
# Velocity S-wave (km/s) = 3.75886 3.90065 3.83041
# Velocity P-wave (km/s) = 6.85587 6.99117 6.92385
#
# Compressibility (1/GPa) = 0.01499989
#
# Stress axis : x y z
#
# Youngs Moduli (GPa) = 100.06140 100.06140 98.66183
#
# Poissons Ratio (x) = 0.09753 0.32494
# Poissons Ratio (y) = 0.09753 0.32494
# Poissons Ratio (z) = 0.32955 0.32955
#
# Static dielectric constant tensor:
#      x y z
#    x 1.952490 0.000000 0.000000 
#    y 0.000000 1.952490 0.000000 
#    z 0.000000 0.000000 1.898530 
# 
# From -- ./inp_files/537.got.cif
#   From: 2010.05.17/outbox.cif.g08.bks.cpg/sg144_cif.got.tgz:537.got - 2010.05.20 13:46:34.
