data_PCOD9574274
_publ_section_title
;
Structure prediction by ZEFSAII (Michael W. Deem and Ramdas Pophale) SiO2 
 PCOD9574274
Probable space group: P 3
;
_chemical_formula_sum "Si O2"
_cell_formula_units_Z 14
_cell_length_a 8.079723
_cell_length_b 8.079723
_cell_length_c 12.630760
_cell_angle_alpha 90.000000
_cell_angle_beta 90.000000
_cell_angle_gamma 120.000000
_cell_volume 714.090177
_symmetry_space_group_name_H-M "P 3"
_symmetry_group_IT_number 143
_symmetry_cell_setting 'hexagonal'
loop_
_space_group_symop_operation_xyz
x,y,z
-y,x-y,z
-x+y,-x,z
loop_
_atom_site_type_symbol
_atom_site_label
_atom_site_fract_x
_atom_site_fract_y
_atom_site_fract_z
Si Si1 0.764666 0.577458 0.421600
Si Si2 0.000000 0.000000 0.770129
Si Si3 0.690700 0.649312 0.184577
Si Si4 0.000000 0.000000 0.517601
Si Si5 0.187257 0.763208 0.862977
Si Si6 0.657214 0.956505 0.100107
O O1 0.543512 0.415481 0.446311
O O2 0.757160 0.610243 0.295947
O O3 0.863530 0.783014 0.475966
O O4 0.000000 0.000000 0.643767
O O5 0.138639 0.216856 0.810976
O O6 0.624501 0.805312 0.191610
O O7 0.520804 0.467247 0.129243
O O8 0.870557 0.741581 0.106167
O O9 0.127769 0.542613 0.836428
O O10 0.150999 0.753025 0.989062
#
# Coordination Sequence:
#
# PCOD9574274 Si02
#       6
#     3   1   3   1   3   3
#     4  10  23  46  64 100 138 170 230 281 331 416
#     4  12  27  48  73  95 130 183 231 297 355 374
#     4  12  21  37  61  94 136 178 215 256 331 411
#     4  12  27  48  73  95 130 183 231 297 355 374
#     4  10  23  46  64 100 138 170 230 281 331 416
#     4  12  21  37  61  94 136 178 215 256 331 411
#
# _framework density 19.605370000000001
#
# number of rings (size 3 to 8) (size 9 to 14) (size 15 to 20)
#    0.857    0.000    4.286    3.857    0.000    1.714 
#    2.571    0.000    0.000    0.000    0.000    0.000 
#    0.000    0.000    0.000    0.000    0.000    0.000 
#
# Total GULP energy -77993.144978 kJ/mol
# GULP energy per Si atom -5570.938927 kJ/mol
# Density = 1.956075 g / cm^3
# Si number density = 19.605370 Si / 1000 Ang^3
#
#
#
# Elastic Constant Matrix: (Units=GPa)
#
#
# Indices 1 2 3 4 5 6 
#
# 1 134.7273 49.4518 56.1653 -8.8340 -2.7019 0.0000
# 2 49.4518 134.7273 56.1653 8.8340 2.7019 0.0000
# 3 56.1653 56.1653 98.4254 0.0000 0.0000 0.0000
# 4 -8.8340 8.8340 0.0000 17.2681 0.0000 2.7019
# 5 -2.7019 2.7019 0.0000 0.0000 17.2681 -8.8340
# 6 0.0000 0.0000 0.0000 2.7019 -8.8340 42.6378
#
#
#
# Elastic Compliance Matrix: (Units=1/GPa)
#
#
# Indices 1 2 3 4 5 6 
#
# 1 0.010796 -0.002468 -0.004752 0.006786 0.002075 0.000000
# 2 -0.002468 0.010796 -0.004752 -0.006786 -0.002075 0.000000
# 3 -0.004752 -0.004752 0.015584 0.000000 0.000000 0.000000
# 4 0.006786 -0.006786 0.000000 0.065503 0.000000 -0.004151
# 5 0.002075 -0.002075 0.000000 0.000000 0.065503 0.013571
# 6 0.000000 0.000000 0.000000 -0.004151 0.013571 0.026528
#
#
# Mechanical properties :
#
#
# Convention : Reuss Voigt Hill
#
# Bulk Modulus (GPa) = 75.58303 76.82720 76.20511
# Shear Modulus (GPa) = 22.41510 29.17463 25.79486
#
# Velocity S-wave (km/s) = 3.38496 3.86177 3.63120
# Velocity P-wave (km/s) = 7.34256 7.69131 7.51896
#
# Compressibility (1/GPa) = 0.01323048
#
# Stress axis : x y z
#
# Youngs Moduli (GPa) = 92.62709 92.62709 64.17020
#
# Poissons Ratio (x) = 0.22861 0.30495
# Poissons Ratio (y) = 0.22861 0.30495
# Poissons Ratio (z) = 0.44018 0.44018
#
# Static dielectric constant tensor:
#      x y z
#    x 1.756520 0.000000 0.000000 
#    y 0.000000 1.756520 0.000000 
#    z 0.000000 0.000000 1.645840 
# 
# From -- ./inp_files/215.got.cif
#   From: 2010.05.17/outbox.cif.g08.bks.cpg/sg143_cif.got.tgz:215.got - 2010.05.20 13:46:24.
