data_PCOD9574934
_publ_section_title
;
Structure prediction by ZEFSAII (Michael W. Deem and Ramdas Pophale) SiO2 
 PCOD9574934
Probable space group: P -3
;
_chemical_formula_sum "Si O2"
_cell_formula_units_Z 40
_cell_length_a 17.516304
_cell_length_b 17.516304
_cell_length_c 8.519594
_cell_angle_alpha 90.000000
_cell_angle_beta 90.000000
_cell_angle_gamma 120.000000
_cell_volume 2263.781354
_symmetry_space_group_name_H-M "P -3"
_symmetry_group_IT_number 147
_symmetry_cell_setting 'hexagonal'
loop_
_space_group_symop_operation_xyz
x,y,z
-y,x-y,z
-x+y,-x,z
-x,-y,-z
y,-x+y,-z
x-y,x,-z
loop_
_atom_site_type_symbol
_atom_site_label
_atom_site_fract_x
_atom_site_fract_y
_atom_site_fract_z
Si Si1 0.339516 0.242720 0.085881
Si Si2 0.926122 0.427533 0.391086
Si Si3 0.208746 0.725612 0.377440
Si Si4 0.410135 0.420627 0.931200
Si Si5 0.656985 0.897822 0.120249
Si Si6 0.666667 0.333335 0.170558
Si Si7 0.301089 0.809565 0.681506
Si Si8 0.333334 0.666667 0.204963
O O1 0.265947 0.266470 0.143548
O O2 0.400156 0.245938 0.228747
O O3 0.402047 0.327360 0.975600
O O4 0.310168 0.156479 0.983112
O O5 0.859586 0.349963 0.504747
O O6 0.969218 0.400276 0.252365
O O7 0.877907 0.473471 0.304728
O O8 0.000000 0.500000 0.500000
O O9 0.156127 0.760118 0.272556
O O10 0.278519 0.796533 0.498029
O O11 0.260669 0.689609 0.272331
O O12 0.500000 0.500000 0.000000
O O13 0.326018 0.414614 0.020483
O O14 0.711730 0.279758 0.240386
O O15 0.666668 0.333334 0.983276
#
# Coordination Sequence:
#
# PCOD9574934 Si02
#       8
#     6   6   6   6   6   2   6   2
#     4  10  23  41  64  88 119 161 203 260 301 377
#     4  12  23  35  55  81 123 166 208 261 304 364
#     4  12  23  39  54  91 122 161 214 258 313 361
#     4  10  21  39  61  89 122 165 211 246 309 361
#     4  10  24  41  63  89 121 156 211 253 314 371
#     4  12  25  35  55  81 121 170 217 258 301 353
#     4  12  22  38  56  84 125 163 212 254 314 352
#     4  12  25  35  58  81 121 167 214 267 295 359
#
# _framework density 17.669549
#
# number of rings (size 3 to 8) (size 9 to 14) (size 15 to 20)
#    0.900    0.000    4.500    3.600    4.200    2.400 
#    0.000    0.000    0.000    0.300    0.000    0.000 
#    0.000    1.200    0.000    0.000    0.000    0.000 
#
# Total GULP energy -223195.155692 kJ/mol
# GULP energy per Si atom -5579.878892 kJ/mol
# Density = 1.762933 g / cm^3
# Si number density = 17.669549 Si / 1000 Ang^3
#
#
#
# Elastic Constant Matrix: (Units=GPa)
#
#
# Indices 1 2 3 4 5 6 
#
# 1 59.9691 16.5457 19.4087 1.7824 7.2737 -0.0001
# 2 16.5457 59.9695 19.4088 -1.7823 -7.2738 -0.0001
# 3 19.4087 19.4088 106.3616 0.0001 0.0000 0.0001
# 4 1.7824 -1.7823 0.0001 24.0096 0.0000 -7.2738
# 5 7.2737 -7.2738 0.0000 0.0000 24.0093 1.7824
# 6 -0.0001 -0.0001 0.0001 -7.2738 1.7824 21.7116
#
#
#
# Elastic Compliance Matrix: (Units=1/GPa)
#
#
# Indices 1 2 3 4 5 6 
#
# 1 0.020104 -0.005701 -0.002628 -0.001916 -0.007818 0.000000
# 2 -0.005701 0.020104 -0.002628 0.001916 0.007818 0.000000
# 3 -0.002628 -0.002628 0.010361 0.000000 0.000000 0.000000
# 4 -0.001916 0.001916 0.000000 0.046671 0.000000 0.015636
# 5 -0.007818 0.007818 0.000000 0.000000 0.046672 -0.003831
# 6 0.000000 0.000000 0.000000 0.015636 -0.003831 0.051611
#
#
# Mechanical properties :
#
#
# Convention : Reuss Voigt Hill
#
# Bulk Modulus (GPa) = 34.89959 37.44742 36.17350
# Shear Modulus (GPa) = 22.02742 25.34191 23.68466
#
# Velocity S-wave (km/s) = 3.53460 3.79121 3.66515
# Velocity P-wave (km/s) = 6.03755 6.35638 6.19901
#
# Compressibility (1/GPa) = 0.02865363
#
# Stress axis : x y z
#
# Youngs Moduli (GPa) = 49.74128 49.74156 96.51515
#
# Poissons Ratio (x) = 0.28359 0.25366
# Poissons Ratio (y) = 0.28359 0.25366
# Poissons Ratio (z) = 0.13073 0.13073
#
# Static dielectric constant tensor:
#      x y z
#    x 1.635420 0.000000 0.000000 
#    y 0.000000 1.635420 0.000000 
#    z 0.000000 0.000000 1.605970 
# 
# From -- ./inp_files/650.got.cif
#   From: 2010.05.17/outbox.cif.g08.bks.cpg/sg147_cif.got.tgz:650.got - 2010.05.20 13:49:32.
