data_PCOD9574139
_publ_section_title
;
Structure prediction by ZEFSAII (Michael W. Deem and Ramdas Pophale) SiO2 
 PCOD9574139
Probable space group: I 41/A C D
;
_chemical_formula_sum "Si O2"
_cell_formula_units_Z 136
_cell_length_a 21.423094
_cell_length_b 21.423094
_cell_length_c 13.143411
_cell_angle_alpha 90.000000
_cell_angle_beta 90.000000
_cell_angle_gamma 90.000000
_cell_volume 6032.154764
_symmetry_space_group_name_H-M "I 41/A C D"
_symmetry_group_IT_number 142
_space_group.IT_coordinate_system_code '2'
_symmetry_cell_setting 'tetragonal'
loop_
_space_group_symop_operation_xyz
x,y,z
1/4-y,3/4+x,1/4+z
-x,1/2-y,z
1/4+y,1/4-x,3/4+z
x,-y,1/2-z
1/2-x,y,-z
3/4+y,1/4+x,1/4-z
1/4-y,1/4-x,1/4-z
-x,-y,-z
3/4+y,1/4-x,3/4-z
x,1/2+y,-z
3/4-y,3/4+x,1/4-z
-x,y,1/2+z
1/2+x,-y,z
1/4-y,3/4-x,3/4+z
3/4+y,3/4+x,3/4+z
1/2+x,1/2+y,1/2+z
3/4-y,1/4+x,3/4+z
1/2-x,-y,1/2+z
3/4+y,3/4-x,1/4+z
1/2+x,1/2-y,-z
-x,1/2+y,1/2-z
1/4+y,3/4+x,3/4-z
3/4-y,3/4-x,3/4-z
1/2-x,1/2-y,1/2-z
1/4+y,3/4-x,1/4-z
1/2+x,y,1/2-z
1/4-y,1/4+x,3/4-z
1/2-x,1/2+y,z
x,1/2-y,1/2+z
3/4-y,1/4-x,1/4+z
1/4+y,1/4+x,1/4+z
loop_
_atom_site_type_symbol
_atom_site_label
_atom_site_fract_x
_atom_site_fract_y
_atom_site_fract_z
Si Si1 0.665909 0.623643 0.226301
Si Si2 0.297653 0.286191 0.586006
Si Si3 0.000000 0.750000 0.625000
Si Si4 0.580770 0.829588 0.006824
Si Si5 0.292956 0.852498 0.855929
O O1 0.621786 0.628215 0.125000
O O2 0.684468 0.677099 0.309855
O O3 0.633435 0.572078 0.294982
O O4 0.734209 0.609135 0.182638
O O5 0.250000 0.313611 0.500000
O O6 0.363156 0.284399 0.527223
O O7 0.273231 0.218277 0.617699
O O8 0.943123 0.770447 0.695942
O O9 0.597666 0.900168 0.974639
O O10 0.572835 0.822835 0.125000
#
# Coordination Sequence:
#
# PCOD9574139 Si02
#       5
#    32  32   8  32  32
#     4  11  24  43  70  99 141 187 241 307 369 448
#     4  11  23  44  69 101 141 184 245 301 369 448
#     4  12  22  48  64 110 144 188 234 304 372 450
#     4  11  24  43  69 102 146 188 236 296 369 442
#     4  11  24  46  66 105 139 186 253 299 377 442
#
# _framework density 22.545840999999999
#
# number of rings (size 3 to 8) (size 9 to 14) (size 15 to 20)
#    0.000    0.941    2.353    4.588    0.000    1.882 
#    0.000   17.647    0.000    0.000    0.000    0.000 
#    0.000    0.000    0.000    0.000    0.000    0.000 
#
# Total GULP energy -379700.021092 kJ/mol
# GULP energy per Si atom -5583.823840 kJ/mol
# Density = 2.249453 g / cm^3
# Si number density = 22.545841 Si / 1000 Ang^3
#
#
#
# Elastic Constant Matrix: (Units=GPa)
#
#
# Indices 1 2 3 4 5 6 
#
# 1 66.2046 17.1207 54.9132 0.0000 0.0000 0.0000
# 2 17.1207 66.2030 54.9130 0.0000 0.0000 0.0000
# 3 54.9132 54.9130 219.7111 0.0000 0.0000 0.0000
# 4 0.0000 0.0000 0.0000 22.6008 0.0000 0.0000
# 5 0.0000 0.0000 0.0000 0.0000 22.6005 0.0000
# 6 0.0000 0.0000 0.0000 0.0000 0.0000 15.7128
#
#
#
# Elastic Compliance Matrix: (Units=1/GPa)
#
#
# Indices 1 2 3 4 5 6 
#
# 1 0.019135 -0.001238 -0.004473 0.000000 0.000000 0.000000
# 2 -0.001238 0.019136 -0.004473 0.000000 0.000000 0.000000
# 3 -0.004473 -0.004473 0.006787 0.000000 0.000000 0.000000
# 4 0.000000 0.000000 0.000000 0.044246 0.000000 0.000000
# 5 0.000000 0.000000 0.000000 0.000000 0.044247 0.000000
# 6 0.000000 0.000000 0.000000 0.000000 0.000000 0.063642
#
#
# Mechanical properties :
#
#
# Convention : Reuss Voigt Hill
#
# Bulk Modulus (GPa) = 40.50364 67.33471 53.91917
# Shear Modulus (GPa) = 22.14429 27.19428 24.66928
#
# Velocity S-wave (km/s) = 3.13739 3.47677 3.31143
# Velocity P-wave (km/s) = 5.57927 6.78585 6.21193
#
# Compressibility (1/GPa) = 0.02468914
#
# Stress axis : x y z
#
# Youngs Moduli (GPa) = 52.26018 52.25864 147.33270
#
# Poissons Ratio (x) = 0.06471 0.65902
# Poissons Ratio (y) = 0.06471 0.65904
# Poissons Ratio (z) = 0.23376 0.23376
#
# Static dielectric constant tensor:
#      x y z
#    x 1.851560 0.000000 0.000000 
#    y 0.000000 1.851560 0.000000 
#    z 0.000000 0.000000 1.864710 
# 
# From -- ./inp_files/3582.got.cif
#   From: 2010.05.17/outbox.cif.g08.bks.cpg/sg142_2_cif.got.tgz:3582.got - 2010.05.20 13:39:18.
