data_PCOD9574215
_publ_section_title
;
Structure prediction by ZEFSAII (Michael W. Deem and Ramdas Pophale) SiO2 
 PCOD9574215
Probable space group: I 41/A C D
;
_chemical_formula_sum "Si O2"
_cell_formula_units_Z 176
_cell_length_a 17.039922
_cell_length_b 17.039922
_cell_length_c 27.542954
_cell_angle_alpha 90.000000
_cell_angle_beta 90.000000
_cell_angle_gamma 90.000000
_cell_volume 7997.342977
_symmetry_space_group_name_H-M "I 41/A C D"
_symmetry_group_IT_number 142
_space_group.IT_coordinate_system_code '2'
_symmetry_cell_setting 'tetragonal'
loop_
_space_group_symop_operation_xyz
x,y,z
1/4-y,3/4+x,1/4+z
-x,1/2-y,z
1/4+y,1/4-x,3/4+z
x,-y,1/2-z
1/2-x,y,-z
3/4+y,1/4+x,1/4-z
1/4-y,1/4-x,1/4-z
-x,-y,-z
3/4+y,1/4-x,3/4-z
x,1/2+y,-z
3/4-y,3/4+x,1/4-z
-x,y,1/2+z
1/2+x,-y,z
1/4-y,3/4-x,3/4+z
3/4+y,3/4+x,3/4+z
1/2+x,1/2+y,1/2+z
3/4-y,1/4+x,3/4+z
1/2-x,-y,1/2+z
3/4+y,3/4-x,1/4+z
1/2+x,1/2-y,-z
-x,1/2+y,1/2-z
1/4+y,3/4+x,3/4-z
3/4-y,3/4-x,3/4-z
1/2-x,1/2-y,1/2-z
1/4+y,3/4-x,1/4-z
1/2+x,y,1/2-z
1/4-y,1/4+x,3/4-z
1/2-x,1/2+y,z
x,1/2-y,1/2+z
3/4-y,1/4-x,1/4+z
1/4+y,1/4+x,1/4+z
loop_
_atom_site_type_symbol
_atom_site_label
_atom_site_fract_x
_atom_site_fract_y
_atom_site_fract_z
Si Si1 0.182180 0.159879 0.538255
Si Si2 0.317245 0.932756 0.625000
Si Si3 0.980137 0.072150 0.035140
Si Si4 0.037209 0.526950 0.125885
Si Si5 0.408189 0.119459 0.777024
Si Si6 0.878906 0.414775 0.330722
O O1 0.250000 0.142310 0.500000
O O2 0.108994 0.101829 0.533251
O O3 0.225550 0.157578 0.589691
O O4 0.153728 0.250703 0.531995
O O5 0.347792 0.889850 0.575816
O O6 0.225795 0.916969 0.615295
O O7 0.037546 0.143786 0.022786
O O8 0.996521 0.036202 0.088159
O O9 0.000000 0.000000 0.000000
O O10 0.081799 0.594231 0.096598
O O11 0.969336 0.567666 0.157128
O O12 0.373219 0.081102 0.727726
#
# Coordination Sequence:
#
# PCOD9574215 Si02
#       6
#    32  16  32  32  32  32
#     4  12  26  47  74 109 147 197 254 313 377 454
#     4  12  24  44  81 110 144 195 254 318 378 442
#     4  12  27  47  73 111 149 193 254 310 379 453
#     4  12  27  49  70 108 152 196 253 311 381 456
#     4  12  23  51  78 107 151 198 253 312 377 462
#     4  12  27  46  75 108 153 200 253 312 388 451
#
# _framework density 22.00731
#
# number of rings (size 3 to 8) (size 9 to 14) (size 15 to 20)
#    0.000    0.000    7.273    1.636    5.091    0.364 
#    3.273    2.727    0.000    0.000    0.000    0.000 
#    0.000    0.000    0.000    0.000    0.000    0.000 
#
# Total GULP energy -491745.393582 kJ/mol
# GULP energy per Si atom -5588.015836 kJ/mol
# Density = 2.195722 g / cm^3
# Si number density = 22.007310 Si / 1000 Ang^3
#
#
#
# Elastic Constant Matrix: (Units=GPa)
#
#
# Indices 1 2 3 4 5 6 
#
# 1 93.0720 48.8471 38.2978 0.0000 0.0000 0.0000
# 2 48.8471 93.0724 38.2964 0.0000 0.0000 0.0000
# 3 38.2978 38.2964 160.4197 0.0000 0.0000 0.0000
# 4 0.0000 0.0000 0.0000 28.6125 0.0000 0.0000
# 5 0.0000 0.0000 0.0000 0.0000 28.6123 0.0000
# 6 0.0000 0.0000 0.0000 0.0000 0.0000 51.5099
#
#
#
# Elastic Compliance Matrix: (Units=1/GPa)
#
#
# Indices 1 2 3 4 5 6 
#
# 1 0.015350 -0.007262 -0.001931 0.000000 0.000000 0.000000
# 2 -0.007262 0.015350 -0.001931 0.000000 0.000000 0.000000
# 3 -0.001931 -0.001931 0.007156 0.000000 0.000000 0.000000
# 4 0.000000 0.000000 0.000000 0.034950 0.000000 0.000000
# 5 0.000000 0.000000 0.000000 0.000000 0.034950 0.000000
# 6 0.000000 0.000000 0.000000 0.000000 0.000000 0.019414
#
#
# Mechanical properties :
#
#
# Convention : Reuss Voigt Hill
#
# Bulk Modulus (GPa) = 64.06724 66.38297 65.22511
# Shear Modulus (GPa) = 32.33756 36.48846 34.41301
#
# Velocity S-wave (km/s) = 3.83743 4.07629 3.95866
# Velocity P-wave (km/s) = 6.98638 7.23771 7.11315
#
# Compressibility (1/GPa) = 0.01560860
#
# Stress axis : x y z
#
# Youngs Moduli (GPa) = 65.14614 65.14698 139.75069
#
# Poissons Ratio (x) = 0.47307 0.26987
# Poissons Ratio (y) = 0.47307 0.26983
# Poissons Ratio (z) = 0.12580 0.12579
#
# Static dielectric constant tensor:
#      x y z
#    x 1.850260 0.000000 0.000000 
#    y 0.000000 1.850250 0.000000 
#    z 0.000000 0.000000 1.703190 
# 
# From -- ./inp_files/12515.got.cif
#   From: 2010.05.17/outbox.cif.g08.bks.cpg/sg142_7_cif.got.tgz:12515.got - 2010.05.20 13:39:18.
