data_PCOD9574905
_publ_section_title
;
Structure prediction by ZEFSAII (Michael W. Deem and Ramdas Pophale) SiO2 
 PCOD9574905
Probable space group: P -3
;
_chemical_formula_sum "Si O2"
_cell_formula_units_Z 48
_cell_length_a 17.538853
_cell_length_b 17.538853
_cell_length_c 8.941820
_cell_angle_alpha 90.000000
_cell_angle_beta 90.000000
_cell_angle_gamma 120.000000
_cell_volume 2382.094197
_symmetry_space_group_name_H-M "P -3"
_symmetry_group_IT_number 147
_symmetry_cell_setting 'hexagonal'
loop_
_space_group_symop_operation_xyz
x,y,z
-y,x-y,z
-x+y,-x,z
-x,-y,-z
y,-x+y,-z
x-y,x,-z
loop_
_atom_site_type_symbol
_atom_site_label
_atom_site_fract_x
_atom_site_fract_y
_atom_site_fract_z
Si Si1 0.129934 0.448686 0.677744
Si Si2 0.851617 0.685407 0.895834
Si Si3 0.965006 0.740411 0.170587
Si Si4 0.482143 0.017978 0.245896
Si Si5 0.978003 0.819881 0.464445
Si Si6 0.130469 0.579783 0.045199
Si Si7 0.509395 0.744053 0.947112
Si Si8 0.061822 0.354616 0.381868
O O1 0.221824 0.496259 0.769193
O O2 0.129110 0.415903 0.510992
O O3 0.070704 0.360393 0.777801
O O4 0.081402 0.506010 0.676473
O O5 0.795835 0.726116 0.830873
O O6 0.888536 0.651909 0.763196
O O7 0.787934 0.605922 0.004338
O O8 0.930147 0.745950 0.008200
O O9 0.936224 0.782699 0.302062
O O10 0.476649 0.925969 0.196619
O O11 0.394864 0.997681 0.335191
O O12 0.489608 0.066823 0.088110
O O13 0.908185 0.837320 0.549736
O O14 0.988094 0.742849 0.545194
O O15 0.220576 0.670958 0.021487
O O16 0.159745 0.507920 0.014376
#
# Coordination Sequence:
#
# PCOD9574905 Si02
#       8
#     6   6   6   6   6   6   6   6
#     4   9  21  39  58  86 122 155 201 245 307 370
#     4  11  22  38  59  87 120 151 199 253 297 352
#     4  10  23  38  60  90 119 155 200 253 295 359
#     4  10  20  36  59  89 119 157 202 256 303 365
#     4  11  24  43  62  86 124 164 203 250 310 372
#     4  10  20  34  59  89 119 156 205 247 307 359
#     4  10  20  36  59  84 120 157 196 250 298 370
#     4  11  22  38  62  88 117 155 205 250 309 359
#
# _framework density 20.150337
#
# number of rings (size 3 to 8) (size 9 to 14) (size 15 to 20)
#    0.000    1.750    2.500    1.500    5.250    2.000 
#    0.000    0.000    2.750    1.000    0.000    0.000 
#    0.000    0.000    0.000    0.000    0.000    0.000 
#
# Total GULP energy -267638.285294 kJ/mol
# GULP energy per Si atom -5575.797610 kJ/mol
# Density = 2.010447 g / cm^3
# Si number density = 20.150337 Si / 1000 Ang^3
#
#
#
# Elastic Constant Matrix: (Units=GPa)
#
#
# Indices 1 2 3 4 5 6 
#
# 1 53.6251 16.5931 13.3033 -2.1541 1.5702 0.0000
# 2 16.5931 53.6251 13.3033 2.1541 -1.5702 0.0000
# 3 13.3033 13.3033 83.5907 0.0000 0.0000 0.0000
# 4 -2.1541 2.1541 0.0000 24.2867 0.0000 -1.5702
# 5 1.5702 -1.5702 0.0000 0.0000 24.2867 -2.1541
# 6 0.0000 0.0000 0.0000 -1.5702 -2.1541 18.5160
#
#
#
# Elastic Compliance Matrix: (Units=1/GPa)
#
#
# Indices 1 2 3 4 5 6 
#
# 1 0.021296 -0.006141 -0.002412 0.002434 -0.001774 0.000000
# 2 -0.006141 0.021296 -0.002412 -0.002434 0.001774 0.000000
# 3 -0.002412 -0.002412 0.012731 0.000000 0.000000 0.000000
# 4 0.002434 -0.002434 0.000000 0.041836 0.000000 0.003548
# 5 -0.001774 0.001774 0.000000 0.000000 0.041836 0.004867
# 6 0.000000 0.000000 0.000000 0.003548 0.004867 0.054875
#
#
# Mechanical properties :
#
#
# Convention : Reuss Voigt Hill
#
# Bulk Modulus (GPa) = 29.94594 30.80449 30.37521
# Shear Modulus (GPa) = 22.03320 23.26064 22.64692
#
# Velocity S-wave (km/s) = 3.31031 3.40127 3.35610
# Velocity P-wave (km/s) = 5.43179 5.54485 5.48861
#
# Compressibility (1/GPa) = 0.03339351
#
# Stress axis : x y z
#
# Youngs Moduli (GPa) = 46.95664 46.95664 78.54991
#
# Poissons Ratio (x) = 0.28836 0.18946
# Poissons Ratio (y) = 0.28836 0.18946
# Poissons Ratio (z) = 0.11326 0.11326
#
# Static dielectric constant tensor:
#      x y z
#    x 1.742840 0.000000 0.000000 
#    y 0.000000 1.742840 0.000000 
#    z 0.000000 0.000000 1.756000 
# 
# From -- ./inp_files/679.got.cif
#   From: 2010.05.17/outbox.cif.g08.bks.cpg/sg147_cif.got.tgz:679.got - 2010.05.20 13:49:32.
