data_PCOD9574724
_publ_section_title
;
Structure prediction by ZEFSAII (Michael W. Deem and Ramdas Pophale) SiO2 
 PCOD9574724
Probable space group: R 3
;
_chemical_formula_sum "Si O2"
_cell_formula_units_Z 51
_cell_length_a 18.977750
_cell_length_b 18.977750
_cell_length_c 7.255328
_cell_angle_alpha 90.000000
_cell_angle_beta 90.000000
_cell_angle_gamma 120.000000
_cell_volume 2262.961290
_symmetry_space_group_name_H-M "R 3"
_symmetry_group_IT_number 146
_symmetry_cell_setting 'hexagonal'
loop_
_space_group_symop_operation_xyz
x,y,z
-y,x-y,z
-x+y,-x,z
2/3+x,1/3+y,1/3+z
2/3-y,1/3+x-y,1/3+z
2/3-x+y,1/3-x,1/3+z
1/3+x,2/3+y,2/3+z
1/3-y,2/3+x-y,2/3+z
1/3-x+y,2/3-x,2/3+z
loop_
_atom_site_type_symbol
_atom_site_label
_atom_site_fract_x
_atom_site_fract_y
_atom_site_fract_z
Si Si1 0.805246 0.305374 0.679810
Si Si2 0.333334 0.666668 0.429708
Si Si3 0.300105 0.031539 0.184678
Si Si4 0.241752 0.483351 0.362146
Si Si5 0.333334 0.666668 0.985765
Si Si6 0.669671 0.056065 0.910330
Si Si7 0.345453 0.159499 0.905601
O O1 0.829706 0.366278 0.853752
O O2 0.720572 0.292647 0.602205
O O3 0.808829 0.227867 0.759153
O O4 0.875519 0.346931 0.529877
O O5 0.292860 0.569766 0.471062
O O6 0.333334 0.666667 0.207266
O O7 0.328019 0.031183 0.391700
O O8 0.423712 0.976416 0.410393
O O9 0.296372 0.445298 0.285935
O O10 0.173103 0.407416 0.477397
O O11 0.680524 0.039841 0.697748
O O12 0.762298 0.106444 0.978831
#
# Coordination Sequence:
#
# PCOD9574724 Si02
#       7
#     9   3   9   9   3   9   9
#     4  11  21  41  66  97 133 170 229 281 339 412
#     4   9  18  39  73  98 133 178 218 280 343 416
#     4  12  24  42  64  99 132 171 222 285 345 404
#     4  10  21  40  68  98 132 179 221 279 346 398
#     4   9  21  39  67  98 130 187 218 280 349 398
#     4  10  23  41  63  96 133 177 224 273 335 408
#     4  11  22  40  65  96 133 174 224 280 341 404
#
# _framework density 22.536842
#
# number of rings (size 3 to 8) (size 9 to 14) (size 15 to 20)
#    0.000    1.412    1.765    5.294    2.471    0.000 
#    0.000    3.529    0.000    0.000    0.000    0.000 
#    0.000    0.000    0.000    0.000    0.000    0.000 
#
# Total GULP energy -94901.830304 kJ/mol
# GULP energy per Si atom -5582.460606 kJ/mol
# Density = 2.248555 g / cm^3
# Si number density = 22.536842 Si / 1000 Ang^3
#
#
#
# Elastic Constant Matrix: (Units=GPa)
#
#
# Indices 1 2 3 4 5 6 
#
# 1 119.6367 37.1947 26.2872 1.0352 -3.6164 0.0007
# 2 37.1947 119.6374 26.2871 -1.0355 3.6164 -0.0007
# 3 26.2872 26.2871 48.4833 -0.0004 -0.0009 0.0002
# 4 1.0352 -1.0355 -0.0004 19.6822 0.0002 3.6162
# 5 -3.6164 3.6164 -0.0009 0.0002 19.6814 1.0352
# 6 0.0007 -0.0007 0.0002 3.6162 1.0352 41.2214
#
#
#
# Elastic Compliance Matrix: (Units=1/GPa)
#
#
# Indices 1 2 3 4 5 6 
#
# 1 0.010069 -0.002276 -0.004225 -0.000649 0.002268 0.000000
# 2 -0.002276 0.010069 -0.004225 0.000649 -0.002269 0.000000
# 3 -0.004225 -0.004225 0.025207 0.000000 0.000001 0.000000
# 4 -0.000649 0.000649 0.000000 0.051709 -0.000001 -0.004536
# 5 0.002268 -0.002269 0.000001 -0.000001 0.051711 -0.001299
# 6 0.000000 0.000000 0.000000 -0.004536 -0.001299 0.024690
#
#
# Mechanical properties :
#
#
# Convention : Reuss Voigt Hill
#
# Bulk Modulus (GPa) = 41.85471 51.92170 46.88821
# Shear Modulus (GPa) = 24.64609 29.31623 26.98116
#
# Velocity S-wave (km/s) = 3.31054 3.61059 3.46382
# Velocity P-wave (km/s) = 5.76410 6.36164 6.07023
#
# Compressibility (1/GPa) = 0.02389217
#
# Stress axis : x y z
#
# Youngs Moduli (GPa) = 99.31640 99.31674 39.67112
#
# Poissons Ratio (x) = 0.22606 0.16761
# Poissons Ratio (y) = 0.22606 0.16761
# Poissons Ratio (z) = 0.41962 0.41962
#
# Static dielectric constant tensor:
#      x y z
#    x 1.889640 0.000000 0.000000 
#    y 0.000000 1.889640 0.000000 
#    z 0.000000 0.000000 1.838460 
# 
# From -- ./inp_files/683.got.cif
#   From: 2010.05.17/outbox.cif.g08.bks.cpg/sg146_cif.got.tgz:683.got - 2010.05.20 13:48:23.
