data_PCOD9574135
_publ_section_title
;
Structure prediction by ZEFSAII (Michael W. Deem and Ramdas Pophale) SiO2 
 PCOD9574135
Probable space group: I 41/A C D
;
_chemical_formula_sum "Si O2"
_cell_formula_units_Z 128
_cell_length_a 19.792262
_cell_length_b 19.792262
_cell_length_c 17.319253
_cell_angle_alpha 90.000000
_cell_angle_beta 90.000000
_cell_angle_gamma 90.000000
_cell_volume 6784.533935
_symmetry_space_group_name_H-M "I 41/A C D"
_symmetry_group_IT_number 142
_space_group.IT_coordinate_system_code '2'
_symmetry_cell_setting 'tetragonal'
loop_
_space_group_symop_operation_xyz
x,y,z
1/4-y,3/4+x,1/4+z
-x,1/2-y,z
1/4+y,1/4-x,3/4+z
x,-y,1/2-z
1/2-x,y,-z
3/4+y,1/4+x,1/4-z
1/4-y,1/4-x,1/4-z
-x,-y,-z
3/4+y,1/4-x,3/4-z
x,1/2+y,-z
3/4-y,3/4+x,1/4-z
-x,y,1/2+z
1/2+x,-y,z
1/4-y,3/4-x,3/4+z
3/4+y,3/4+x,3/4+z
1/2+x,1/2+y,1/2+z
3/4-y,1/4+x,3/4+z
1/2-x,-y,1/2+z
3/4+y,3/4-x,1/4+z
1/2+x,1/2-y,-z
-x,1/2+y,1/2-z
1/4+y,3/4+x,3/4-z
3/4-y,3/4-x,3/4-z
1/2-x,1/2-y,1/2-z
1/4+y,3/4-x,1/4-z
1/2+x,y,1/2-z
1/4-y,1/4+x,3/4-z
1/2-x,1/2+y,z
x,1/2-y,1/2+z
3/4-y,1/4-x,1/4+z
1/4+y,1/4+x,1/4+z
loop_
_atom_site_type_symbol
_atom_site_label
_atom_site_fract_x
_atom_site_fract_y
_atom_site_fract_z
Si Si1 0.680970 0.651724 0.449085
Si Si2 0.934830 0.291243 0.216312
Si Si3 0.741725 0.067668 0.800008
Si Si4 0.546970 0.939297 0.473347
O O1 0.750000 0.659265 0.500000
O O2 0.614059 0.675045 0.494263
O O3 0.670768 0.571360 0.433058
O O4 0.685502 0.692745 0.368992
O O5 0.943776 0.306225 0.125000
O O6 0.874537 0.240616 0.239195
O O7 0.000000 0.250000 0.243389
O O8 0.707241 0.129598 0.756693
O O9 0.740280 0.000000 0.750000
O O10 0.699012 0.050989 0.875000
O O11 0.500000 0.000000 0.500000
#
# Coordination Sequence:
#
# PCOD9574135 Si02
#       4
#    32  32  32  32
#     4  11  25  44  74 100 136 182 228 283 351 413
#     4  11  27  47  68 101 142 183 229 285 345 410
#     4  11  23  43  69 104 138 173 230 288 343 404
#     4  12  25  44  69 100 137 180 228 283 342 412
#
# _framework density 18.866439
#
# number of rings (size 3 to 8) (size 9 to 14) (size 15 to 20)
#    0.000    0.750    5.000    1.500    7.000    0.000 
#    0.000    0.000    0.000    0.000    0.000    0.000 
#    0.000    0.000    0.000    0.000    0.000    0.000 
#
# Total GULP energy -357382.296122 kJ/mol
# GULP energy per Si atom -5584.098377 kJ/mol
# Density = 1.882350 g / cm^3
# Si number density = 18.866439 Si / 1000 Ang^3
#
#
#
# Elastic Constant Matrix: (Units=GPa)
#
#
# Indices 1 2 3 4 5 6 
#
# 1 160.5110 81.2056 56.6073 0.0000 0.0000 0.0000
# 2 81.2056 160.5098 56.6069 0.0000 0.0000 0.0000
# 3 56.6073 56.6069 105.9429 0.0000 0.0000 0.0000
# 4 0.0000 0.0000 0.0000 34.0552 0.0000 0.0000
# 5 0.0000 0.0000 0.0000 0.0000 34.0559 0.0000
# 6 0.0000 0.0000 0.0000 0.0000 0.0000 38.3309
#
#
#
# Elastic Compliance Matrix: (Units=1/GPa)
#
#
# Indices 1 2 3 4 5 6 
#
# 1 0.009064 -0.003546 -0.002948 0.000000 0.000000 0.000000
# 2 -0.003546 0.009064 -0.002948 0.000000 0.000000 0.000000
# 3 -0.002948 -0.002948 0.012590 0.000000 0.000000 0.000000
# 4 0.000000 0.000000 0.000000 0.029364 0.000000 0.000000
# 5 0.000000 0.000000 0.000000 0.000000 0.029364 0.000000
# 6 0.000000 0.000000 0.000000 0.000000 0.000000 0.026089
#
#
# Mechanical properties :
#
#
# Convention : Reuss Voigt Hill
#
# Bulk Modulus (GPa) = 84.51417 90.64482 87.57950
# Shear Modulus (GPa) = 36.13688 36.79132 36.46410
#
# Velocity S-wave (km/s) = 4.38128 4.42078 4.40107
# Velocity P-wave (km/s) = 8.39568 8.61438 8.50573
#
# Compressibility (1/GPa) = 0.01183234
#
# Stress axis : x y z
#
# Youngs Moduli (GPa) = 110.32922 110.32862 79.42947
#
# Poissons Ratio (x) = 0.39120 0.23419
# Poissons Ratio (y) = 0.39120 0.23419
# Poissons Ratio (z) = 0.32529 0.32529
#
# Static dielectric constant tensor:
#      x y z
#    x 1.737290 0.000000 0.000000 
#    y 0.000000 1.737030 0.000000 
#    z 0.000000 0.000000 1.658010 
# 
# From -- ./inp_files/7094.got.cif
#   From: 2010.05.17/outbox.cif.g08.bks.cpg/sg142_4_cif.got.tgz:7094.got - 2010.05.20 13:39:18.
