data_PCOD9574015
_publ_section_title
;
Structure prediction by ZEFSAII (Michael W. Deem and Ramdas Pophale) SiO2 
 PCOD9574015
Probable space group: I 41/A C D
;
_chemical_formula_sum "Si O2"
_cell_formula_units_Z 136
_cell_length_a 22.673320
_cell_length_b 22.673320
_cell_length_c 12.391038
_cell_angle_alpha 90.000000
_cell_angle_beta 90.000000
_cell_angle_gamma 90.000000
_cell_volume 6369.977874
_symmetry_space_group_name_H-M "I 41/A C D"
_symmetry_group_IT_number 142
_space_group.IT_coordinate_system_code '2'
_symmetry_cell_setting 'tetragonal'
loop_
_space_group_symop_operation_xyz
x,y,z
1/4-y,3/4+x,1/4+z
-x,1/2-y,z
1/4+y,1/4-x,3/4+z
x,-y,1/2-z
1/2-x,y,-z
3/4+y,1/4+x,1/4-z
1/4-y,1/4-x,1/4-z
-x,-y,-z
3/4+y,1/4-x,3/4-z
x,1/2+y,-z
3/4-y,3/4+x,1/4-z
-x,y,1/2+z
1/2+x,-y,z
1/4-y,3/4-x,3/4+z
3/4+y,3/4+x,3/4+z
1/2+x,1/2+y,1/2+z
3/4-y,1/4+x,3/4+z
1/2-x,-y,1/2+z
3/4+y,3/4-x,1/4+z
1/2+x,1/2-y,-z
-x,1/2+y,1/2-z
1/4+y,3/4+x,3/4-z
3/4-y,3/4-x,3/4-z
1/2-x,1/2-y,1/2-z
1/4+y,3/4-x,1/4-z
1/2+x,y,1/2-z
1/4-y,1/4+x,3/4-z
1/2-x,1/2+y,z
x,1/2-y,1/2+z
3/4-y,1/4-x,1/4+z
1/4+y,1/4+x,1/4+z
loop_
_atom_site_type_symbol
_atom_site_label
_atom_site_fract_x
_atom_site_fract_y
_atom_site_fract_z
Si Si1 0.108261 0.046934 0.152670
Si Si2 0.500000 0.250000 0.625000
Si Si3 0.818404 0.157886 0.016773
Si Si4 0.525266 0.373489 0.706165
Si Si5 0.813615 0.154330 0.268143
O O1 0.166150 0.083851 0.125000
O O2 0.059800 0.093831 0.195842
O O3 0.117035 0.000000 0.250000
O O4 0.092115 0.004713 0.052087
O O5 0.526067 0.302972 0.697785
O O6 0.826188 0.168006 0.144344
O O7 0.750000 0.166603 0.000000
O O8 0.856201 0.207811 0.959524
O O9 0.839656 0.094085 0.974156
O O10 0.554361 0.400593 0.598934
#
# Coordination Sequence:
#
# PCOD9574015 Si02
#       5
#    32   8  32  32  32
#     4  10  24  44  69 102 139 185 235 290 358 425
#     4  12  24  44  78  96 144 182 240 308 338 440
#     4  11  24  42  70  97 136 189 225 288 363 419
#     4  11  24  46  68 100 139 183 232 297 358 419
#     4  10  24  44  64 104 139 171 240 288 346 435
#
# _framework density 21.350152000000001
#
# number of rings (size 3 to 8) (size 9 to 14) (size 15 to 20)
#    0.000    1.412    2.353    2.118    6.588    6.588 
#    0.000    1.176    0.000    0.000    0.000    0.000 
#    0.000    0.000    0.000    0.000    0.000    0.000 
#
# Total GULP energy -379688.080949 kJ/mol
# GULP energy per Si atom -5583.648249 kJ/mol
# Density = 2.130156 g / cm^3
# Si number density = 21.350152 Si / 1000 Ang^3
#
#
#
# Elastic Constant Matrix: (Units=GPa)
#
#
# Indices 1 2 3 4 5 6 
#
# 1 108.8932 43.9854 33.2930 0.0000 0.0000 0.0000
# 2 43.9854 108.8983 33.2943 0.0000 0.0000 0.0000
# 3 33.2930 33.2943 66.4464 0.0000 0.0000 0.0000
# 4 0.0000 0.0000 0.0000 25.2351 0.0000 0.0000
# 5 0.0000 0.0000 0.0000 0.0000 25.2344 0.0000
# 6 0.0000 0.0000 0.0000 0.0000 0.0000 37.3542
#
#
#
# Elastic Compliance Matrix: (Units=1/GPa)
#
#
# Indices 1 2 3 4 5 6 
#
# 1 0.011887 -0.003519 -0.004192 0.000000 0.000000 0.000000
# 2 -0.003519 0.011886 -0.004192 0.000000 0.000000 0.000000
# 3 -0.004192 -0.004192 0.019251 0.000000 0.000000 0.000000
# 4 0.000000 0.000000 0.000000 0.039627 0.000000 0.000000
# 5 0.000000 0.000000 0.000000 0.000000 0.039628 0.000000
# 6 0.000000 0.000000 0.000000 0.000000 0.000000 0.026771
#
#
# Mechanical properties :
#
#
# Convention : Reuss Voigt Hill
#
# Bulk Modulus (GPa) = 52.04131 56.15371 54.09751
# Shear Modulus (GPa) = 27.89184 29.14243 28.51713
#
# Velocity S-wave (km/s) = 3.61834 3.69857 3.65867
# Velocity P-wave (km/s) = 6.47183 6.67814 6.57579
#
# Compressibility (1/GPa) = 0.01921550
#
# Stress axis : x y z
#
# Youngs Moduli (GPa) = 84.12772 84.13113 51.94537
#
# Poissons Ratio (x) = 0.29609 0.21777
# Poissons Ratio (y) = 0.29608 0.21778
# Poissons Ratio (z) = 0.35269 0.35271
#
# Static dielectric constant tensor:
#      x y z
#    x 1.777500 0.000000 0.000000 
#    y 0.000000 1.777500 0.000000 
#    z 0.000000 0.000000 1.827950 
# 
# From -- ./inp_files/3603.got.cif
#   From: 2010.05.17/outbox.cif.g08.bks.cpg/sg142_2_cif.got.tgz:3603.got - 2010.05.20 13:39:18.
