data_PCOD9574969
_publ_section_title
;
Structure prediction by ZEFSAII (Michael W. Deem and Ramdas Pophale) SiO2 
 PCOD9574969
Probable space group: P -3
;
_chemical_formula_sum "Si O2"
_cell_formula_units_Z 34
_cell_length_a 14.545113
_cell_length_b 14.545113
_cell_length_c 7.799327
_cell_angle_alpha 90.000000
_cell_angle_beta 90.000000
_cell_angle_gamma 120.000000
_cell_volume 1428.966213
_symmetry_space_group_name_H-M "P -3"
_symmetry_group_IT_number 147
_symmetry_cell_setting 'hexagonal'
loop_
_space_group_symop_operation_xyz
x,y,z
-y,x-y,z
-x+y,-x,z
-x,-y,-z
y,-x+y,-z
x-y,x,-z
loop_
_atom_site_type_symbol
_atom_site_label
_atom_site_fract_x
_atom_site_fract_y
_atom_site_fract_z
Si Si1 0.570049 0.838308 0.540305
Si Si2 0.666668 0.333335 0.368744
Si Si3 0.632229 0.512728 0.823738
Si Si4 0.042242 0.198469 0.098957
Si Si5 0.666668 0.333335 0.958170
Si Si6 0.094341 0.211239 0.586382
Si Si7 0.371658 0.987412 0.161499
O O1 0.453336 0.739080 0.567369
O O2 0.570828 0.884171 0.352376
O O3 0.662718 0.809874 0.570549
O O4 0.595675 0.926169 0.687346
O O5 0.666668 0.333334 0.163089
O O6 0.684084 0.444513 0.889976
O O7 0.507714 0.427226 0.794986
O O8 0.631694 0.584094 0.980328
O O9 0.962247 0.135072 0.253633
O O10 0.074744 0.319771 0.134585
O O11 0.142368 0.185278 0.056341
O O12 0.148711 0.178999 0.434964
#
# Coordination Sequence:
#
# PCOD9574969 Si02
#       7
#     6   2   6   6   2   6   6
#     4  11  25  45  71 102 140 190 228 291 348 417
#     4  12  25  47  67 103 149 181 250 287 343 415
#     4  11  24  42  70  98 139 181 229 276 354 399
#     4  11  25  43  70  96 135 178 224 281 355 409
#     4  12  25  44  73  97 146 187 226 296 340 415
#     4  11  26  46  71 105 138 179 233 293 348 419
#     4  10  25  43  67 103 134 178 226 291 329 425
#
# _framework density 23.793422
#
# number of rings (size 3 to 8) (size 9 to 14) (size 15 to 20)
#    0.000    1.059    1.765    3.000    7.412    5.647 
#    0.000    0.000    0.000    0.000    0.000    0.000 
#    0.000    0.000    0.000    0.000    0.000    0.000 
#
# Total GULP energy -190337.264578 kJ/mol
# GULP energy per Si atom -5598.154841 kJ/mol
# Density = 2.373927 g / cm^3
# Si number density = 23.793422 Si / 1000 Ang^3
#
#
#
# Elastic Constant Matrix: (Units=GPa)
#
#
# Indices 1 2 3 4 5 6 
#
# 1 85.5762 29.9466 8.1152 2.1890 0.4296 -0.0003
# 2 29.9466 85.5777 8.1154 -2.1891 -0.4299 -0.0004
# 3 8.1152 8.1154 122.2880 0.0000 0.0006 0.0005
# 4 2.1890 -2.1891 0.0000 18.8669 -0.0002 -0.4298
# 5 0.4296 -0.4299 0.0006 -0.0002 18.8668 2.1890
# 6 -0.0003 -0.0004 0.0005 -0.4298 2.1890 27.8152
#
#
#
# Elastic Compliance Matrix: (Units=1/GPa)
#
#
# Indices 1 2 3 4 5 6 
#
# 1 0.013443 -0.004705 -0.000580 -0.002106 -0.000413 0.000000
# 2 -0.004705 0.013443 -0.000580 0.002106 0.000413 0.000000
# 3 -0.000580 -0.000580 0.008254 0.000000 0.000000 0.000000
# 4 -0.002106 0.002106 0.000000 0.053510 0.000000 0.000827
# 5 -0.000413 0.000413 0.000000 0.000000 0.053511 -0.004211
# 6 0.000000 0.000000 0.000000 0.000827 -0.004211 0.036296
#
#
# Mechanical properties :
#
#
# Convention : Reuss Voigt Hill
#
# Bulk Modulus (GPa) = 42.71608 42.86625 42.79117
# Shear Modulus (GPa) = 25.25383 29.59409 27.42396
#
# Velocity S-wave (km/s) = 3.26142 3.53057 3.39866
# Velocity P-wave (km/s) = 5.67224 5.88855 5.78141
#
# Compressibility (1/GPa) = 0.02341039
#
# Stress axis : x y z
#
# Youngs Moduli (GPa) = 74.38855 74.38982 121.14787
#
# Poissons Ratio (x) = 0.35001 0.07025
# Poissons Ratio (y) = 0.35001 0.07025
# Poissons Ratio (z) = 0.04313 0.04314
#
# Static dielectric constant tensor:
#      x y z
#    x 1.868470 0.000000 0.000000 
#    y 0.000000 1.868470 0.000000 
#    z 0.000000 0.000000 2.033300 
# 
# From -- ./inp_files/561.got.cif
#   From: 2010.05.17/outbox.cif.g08.bks.cpg/sg147_cif.got.tgz:561.got - 2010.05.20 13:49:32.
