data_PCOD9574528
_publ_section_title
;
Structure prediction by ZEFSAII (Michael W. Deem and Ramdas Pophale) SiO2 
 PCOD9574528
Probable space group: P 32
;
_chemical_formula_sum "Si O2"
_cell_formula_units_Z 18
_cell_length_a 7.687890
_cell_length_b 7.687890
_cell_length_c 13.572787
_cell_angle_alpha 90.000000
_cell_angle_beta 90.000000
_cell_angle_gamma 120.000000
_cell_volume 694.726695
_symmetry_space_group_name_H-M "P 32"
_symmetry_group_IT_number 145
_symmetry_cell_setting 'hexagonal'
loop_
_space_group_symop_operation_xyz
x,y,z
-y,x-y,2/3+z
-x+y,-x,1/3+z
loop_
_atom_site_type_symbol
_atom_site_label
_atom_site_fract_x
_atom_site_fract_y
_atom_site_fract_z
Si Si1 0.595045 0.989837 0.619930
Si Si2 0.500939 0.993022 0.036155
Si Si3 0.856202 0.907656 0.766430
Si Si4 0.152796 0.647185 0.922510
Si Si5 0.176168 0.936572 0.645494
Si Si6 0.577289 0.163174 0.412785
O O1 0.652993 0.116456 0.516520
O O2 0.482859 0.749467 0.596283
O O3 0.407080 0.008152 0.660079
O O4 0.752724 0.009180 0.703769
O O5 0.291769 0.859299 0.978670
O O6 0.517310 0.894933 0.139703
O O7 0.611492 0.231470 0.057188
O O8 0.642804 0.948215 0.967923
O O9 0.080444 0.997416 0.730477
O O10 0.886850 0.906729 0.881406
O O11 0.707486 0.667596 0.754017
O O12 0.945522 0.547648 0.983568
#
# Coordination Sequence:
#
# PCOD9574528 Si02
#       6
#     3   3   3   3   3   3
#     4   9  17  33  62  91 129 183 229 287 363 427
#     4  10  20  33  65 100 135 179 249 302 356 457
#     4   9  18  35  59  94 134 173 233 295 357 428
#     4  10  18  35  63  99 131 191 249 286 378 453
#     4   9  19  33  60  95 135 175 236 303 346 444
#     4   9  18  35  59  93 138 173 232 313 344 429
#
# _framework density 25.909472000000001
#
# number of rings (size 3 to 8) (size 9 to 14) (size 15 to 20)
#    0.000    2.667    1.667    0.000    7.000    0.000 
#    0.000    5.000   11.000    0.000    0.000    0.000 
#    0.000    0.000    0.000    0.000    0.000    0.000 
#
# Total GULP energy -100397.596991 kJ/mol
# GULP energy per Si atom -5577.644277 kJ/mol
# Density = 2.585050 g / cm^3
# Si number density = 25.909472 Si / 1000 Ang^3
#
#
#
# Elastic Constant Matrix: (Units=GPa)
#
#
# Indices 1 2 3 4 5 6 
#
# 1 89.8865 44.3597 28.1550 -12.1325 -13.9032 0.0000
# 2 44.3597 89.8865 28.1550 12.1325 13.9032 0.0000
# 3 28.1550 28.1550 103.7184 0.0000 0.0000 0.0000
# 4 -12.1325 12.1325 0.0000 -20.6745 0.0000 13.9032
# 5 -13.9032 13.9032 0.0000 0.0000 -20.6745 -12.1325
# 6 0.0000 0.0000 0.0000 13.9032 -12.1325 22.7634
#
#
#
# Elastic Compliance Matrix: (Units=1/GPa)
#
#
# Indices 1 2 3 4 5 6 
#
# 1 0.010575 -0.002169 -0.002282 -0.007479 -0.008570 0.000000
# 2 -0.002169 0.010575 -0.002282 0.007479 0.008570 0.000000
# 3 -0.002282 -0.002282 0.010880 0.000000 0.000000 0.000000
# 4 -0.007479 0.007479 0.000000 -0.028064 0.000000 0.017141
# 5 -0.008570 0.008570 0.000000 0.000000 -0.028064 -0.014958
# 6 0.000000 0.000000 0.000000 0.017141 -0.014958 0.025489
#
#
# Mechanical properties :
#
#
# Convention : Reuss Voigt Hill
#
# Bulk Modulus (GPa) = 53.86463 53.87009 53.86736
# Shear Modulus (GPa) = 237.57901 8.47100 123.02500
#
# Velocity S-wave (km/s) = 9.58618 1.81013 6.89824
# Velocity P-wave (km/s) = 11.97335 5.02051 9.18060
#
# Compressibility (1/GPa) = 0.01856506
#
# Stress axis : x y z
#
# Youngs Moduli (GPa) = 94.56008 94.56008 91.90873
#
# Poissons Ratio (x) = 0.20511 0.20973
# Poissons Ratio (y) = 0.20511 0.20973
# Poissons Ratio (z) = 0.21578 0.21578
#
# Static dielectric constant tensor:
#      x y z
#    x 2.117510 0.000000 0.000000 
#    y 0.000000 2.117510 0.000000 
#    z 0.000000 0.000000 2.093910 
# 
# From -- ./inp_files/777.got.cif
#   From: 2010.05.17/outbox.cif.g08.bks.cpg/sg145_cif.got.tgz:777.got - 2010.05.20 13:47:28.
