data_PCOD9574557
_publ_section_title
;
Structure prediction by ZEFSAII (Michael W. Deem and Ramdas Pophale) SiO2 
 PCOD9574557
Probable space group: P 32
;
_chemical_formula_sum "Si O2"
_cell_formula_units_Z 21
_cell_length_a 8.126761
_cell_length_b 8.126761
_cell_length_c 17.614869
_cell_angle_alpha 90.000000
_cell_angle_beta 90.000000
_cell_angle_gamma 120.000000
_cell_volume 1007.499931
_symmetry_space_group_name_H-M "P 32"
_symmetry_group_IT_number 145
_symmetry_cell_setting 'hexagonal'
loop_
_space_group_symop_operation_xyz
x,y,z
-y,x-y,2/3+z
-x+y,-x,1/3+z
loop_
_atom_site_type_symbol
_atom_site_label
_atom_site_fract_x
_atom_site_fract_y
_atom_site_fract_z
Si Si1 0.629503 0.000336 0.567260
Si Si2 0.753381 0.003549 0.983027
Si Si3 0.106557 0.378677 0.030849
Si Si4 0.753381 0.749832 0.858618
Si Si5 0.208813 0.791186 0.087489
Si Si6 0.272119 0.378677 0.477462
Si Si7 0.629503 0.629167 0.274384
O O1 0.607913 0.865790 0.637219
O O2 0.427190 0.982981 0.552192
O O3 0.688412 0.933080 0.490095
O O4 0.788225 0.211775 0.587489
O O5 0.555791 0.982980 0.956119
O O6 0.901599 0.223750 0.998534
O O7 0.828381 0.914190 0.920822
O O8 0.707427 0.888416 0.062072
O O9 0.111583 0.292573 0.112905
O O10 0.138507 0.586646 0.047777
O O11 0.901599 0.677849 0.843110
O O12 0.413354 0.861493 0.127201
O O13 0.244668 0.933080 0.018216
O O14 0.134210 0.392087 0.537759
#
# Coordination Sequence:
#
# PCOD9574557 Si02
#       7
#     3   3   3   3   3   3   3
#     4  11  23  38  61  92 122 159 202 246 301 360
#     4  10  22  41  64  91 122 157 200 249 300 359
#     4  10  21  41  64  87 120 160 201 249 301 354
#     4  10  22  41  64  91 122 157 200 249 300 359
#     4  10  22  42  62  84 120 164 204 250 302 352
#     4  10  21  41  64  87 120 160 201 249 301 354
#     4  11  23  38  61  92 122 159 202 246 301 360
#
# _framework density 20.843672000000002
#
# number of rings (size 3 to 8) (size 9 to 14) (size 15 to 20)
#    0.000    1.714    0.000    5.143    0.000    6.857 
#    0.000   14.286    0.000    0.000    0.000    0.000 
#    0.000    0.000    0.000    0.000    0.000    0.000 
#
# Total GULP energy -117394.840170 kJ/mol
# GULP energy per Si atom -5590.230484 kJ/mol
# Density = 2.079623 g / cm^3
# Si number density = 20.843672 Si / 1000 Ang^3
#
#
#
# Elastic Constant Matrix: (Units=GPa)
#
#
# Indices 1 2 3 4 5 6 
#
# 1 67.3026 20.1461 55.3328 0.0000 -12.2087 0.0000
# 2 20.1461 67.3026 55.3328 0.0000 12.2087 0.0000
# 3 55.3328 55.3328 127.7322 0.0000 0.0000 0.0000
# 4 0.0000 0.0000 0.0000 30.1780 0.0000 12.2087
# 5 -12.2087 12.2087 0.0000 0.0000 30.1780 0.0000
# 6 0.0000 0.0000 0.0000 12.2087 0.0000 23.5782
#
#
#
# Elastic Compliance Matrix: (Units=1/GPa)
#
#
# Indices 1 2 3 4 5 6 
#
# 1 0.026068 -0.000757 -0.010964 0.000000 0.010852 0.000000
# 2 -0.000757 0.026068 -0.010964 0.000000 -0.010852 0.000000
# 3 -0.010964 -0.010964 0.017328 0.000000 0.000000 0.000000
# 4 0.000000 0.000000 0.000000 0.041918 0.000000 -0.021705
# 5 0.010852 -0.010852 0.000000 0.000000 0.041918 0.000000
# 6 0.000000 0.000000 0.000000 -0.021705 0.000000 0.053651
#
#
# Mechanical properties :
#
#
# Convention : Reuss Voigt Hill
#
# Bulk Modulus (GPa) = 41.50764 58.21786 49.86275
# Shear Modulus (GPa) = 19.20468 25.55523 22.37996
#
# Velocity S-wave (km/s) = 3.03870 3.50529 3.28030
# Velocity P-wave (km/s) = 5.68054 6.66139 6.19042
#
# Compressibility (1/GPa) = 0.02409195
#
# Stress axis : x y z
#
# Youngs Moduli (GPa) = 38.36120 38.36120 57.70906
#
# Poissons Ratio (x) = 0.02905 0.63275
# Poissons Ratio (y) = 0.02905 0.63275
# Poissons Ratio (z) = 0.42061 0.42061
#
# Static dielectric constant tensor:
#      x y z
#    x 1.722490 0.000000 0.000000 
#    y 0.000000 1.722490 0.000000 
#    z 0.000000 0.000000 1.762110 
# 
# From -- ./inp_files/805.got.cif
#   From: 2010.05.17/outbox.cif.g08.bks.cpg/sg145_cif.got.tgz:805.got - 2010.05.20 13:47:28.
