data_PCOD9574465
_publ_section_title
;
Structure prediction by ZEFSAII (Michael W. Deem and Ramdas Pophale) SiO2 
 PCOD9574465
Probable space group: P 31
;
_chemical_formula_sum "Si O2"
_cell_formula_units_Z 12
_cell_length_a 8.548139
_cell_length_b 8.548139
_cell_length_c 6.585998
_cell_angle_alpha 90.000000
_cell_angle_beta 90.000000
_cell_angle_gamma 120.000000
_cell_volume 416.768971
_symmetry_space_group_name_H-M "P 31"
_symmetry_group_IT_number 144
_symmetry_cell_setting 'hexagonal'
loop_
_space_group_symop_operation_xyz
x,y,z
-y,x-y,1/3+z
-x+y,-x,2/3+z
loop_
_atom_site_type_symbol
_atom_site_label
_atom_site_fract_x
_atom_site_fract_y
_atom_site_fract_z
Si Si1 0.308191 0.000000 0.003420
Si Si2 0.154143 0.154143 0.670087
Si Si3 0.205693 0.653288 0.765243
Si Si4 0.794307 0.447595 0.908264
O O1 0.152800 0.873105 0.169942
O O2 0.461199 0.148069 0.143478
O O3 0.313129 0.851931 0.863362
O O4 0.279695 0.126895 0.836898
O O5 1.000000 0.117209 0.836753
O O6 0.247252 0.697593 0.529252
O O7 0.000000 0.559292 0.836753
O O8 0.697593 0.247252 0.810922
#
# Coordination Sequence:
#
# PCOD9574465 Si02
#       4
#     3   3   3   3
#     4  11  24  43  74 108 140 182 232 290 352 416
#     4   9  18  35  64 104 140 174 222 278 340 408
#     4  12  28  48  72 104 143 187 234 289 351 416
#     4  12  28  48  72 104 143 187 234 289 351 416
#
# _framework density 28.792928
#
# number of rings (size 3 to 8) (size 9 to 14) (size 15 to 20)
#    0.000    1.000    0.000    7.500    0.000   16.000 
#    0.000    0.000    0.000    0.000    0.000    0.000 
#    0.000    0.000    0.000    0.000    0.000    0.000 
#
# Total GULP energy -66944.529964 kJ/mol
# GULP energy per Si atom -5578.710830 kJ/mol
# Density = 2.872739 g / cm^3
# Si number density = 28.792928 Si / 1000 Ang^3
#
#
#
# Elastic Constant Matrix: (Units=GPa)
#
#
# Indices 1 2 3 4 5 6 
#
# 1 92.2984 31.3515 29.9498 -12.5780 0.0000 0.0000
# 2 31.3515 92.2984 29.9498 12.5780 0.0000 0.0000
# 3 29.9498 29.9498 222.3252 0.0000 0.0000 0.0000
# 4 -12.5780 12.5780 0.0000 55.2775 0.0000 0.0000
# 5 0.0000 0.0000 0.0000 0.0000 55.2775 -12.5780
# 6 0.0000 0.0000 0.0000 0.0000 -12.5780 30.4735
#
#
#
# Elastic Compliance Matrix: (Units=1/GPa)
#
#
# Indices 1 2 3 4 5 6 
#
# 1 0.013380 -0.004728 -0.001166 0.004120 0.000000 0.000000
# 2 -0.004728 0.013380 -0.001166 -0.004120 0.000000 0.000000
# 3 -0.001166 -0.001166 0.004812 0.000000 0.000000 0.000000
# 4 0.004120 -0.004120 0.000000 0.019966 0.000000 0.000000
# 5 0.000000 0.000000 0.000000 0.000000 0.019966 0.008241
# 6 0.000000 0.000000 0.000000 0.000000 0.008241 0.036217
#
#
# Mechanical properties :
#
#
# Convention : Reuss Voigt Hill
#
# Bulk Modulus (GPa) = 57.29419 65.49157 61.39288
# Shear Modulus (GPa) = 39.16743 49.25044 44.20893
#
# Velocity S-wave (km/s) = 3.69224 4.14031 3.92268
# Velocity P-wave (km/s) = 6.17404 6.75658 6.47187
#
# Compressibility (1/GPa) = 0.01745378
#
# Stress axis : x y z
#
# Youngs Moduli (GPa) = 74.73728 74.73728 207.81660
#
# Poissons Ratio (x) = 0.35338 0.24221
# Poissons Ratio (y) = 0.35338 0.24221
# Poissons Ratio (z) = 0.08711 0.08711
#
# Static dielectric constant tensor:
#      x y z
#    x 2.319380 0.000000 0.000000 
#    y 0.000000 2.319380 0.000000 
#    z 0.000000 0.000000 2.227910 
# 
# From -- ./inp_files/48.got.cif
#   From: 2010.05.17/outbox.cif.g08.bks.cpg/sg144_cif.got.tgz:48.got - 2010.05.20 13:46:34.
