data_PCOD9574387
_publ_section_title
;
Structure prediction by ZEFSAII (Michael W. Deem and Ramdas Pophale) SiO2 
 PCOD9574387
Probable space group: P 31
;
_chemical_formula_sum "Si O2"
_cell_formula_units_Z 24
_cell_length_a 11.821125
_cell_length_b 11.821125
_cell_length_c 7.852723
_cell_angle_alpha 90.000000
_cell_angle_beta 90.000000
_cell_angle_gamma 120.000000
_cell_volume 950.317068
_symmetry_space_group_name_H-M "P 31"
_symmetry_group_IT_number 144
_symmetry_cell_setting 'hexagonal'
loop_
_space_group_symop_operation_xyz
x,y,z
-y,x-y,1/3+z
-x+y,-x,2/3+z
loop_
_atom_site_type_symbol
_atom_site_label
_atom_site_fract_x
_atom_site_fract_y
_atom_site_fract_z
Si Si1 0.771550 0.361692 0.972300
Si Si2 0.609246 0.007807 0.753688
Si Si3 0.864872 0.138980 0.581816
Si Si4 0.435882 0.707679 0.753207
Si Si5 0.126539 0.984137 0.783804
Si Si6 0.134409 0.885991 0.429918
Si Si7 0.388633 0.195460 0.925250
Si Si8 0.406450 0.445055 0.785365
O O1 0.703545 0.309177 0.787057
O O2 0.916792 0.484735 0.955359
O O3 0.795797 0.263934 0.091135
O O4 0.548908 0.855466 0.720929
O O5 0.563302 0.029293 0.938029
O O6 0.765117 0.080486 0.739566
O O7 0.816177 0.217166 0.460008
O O8 0.007168 0.241459 0.639133
O O9 0.864002 0.007176 0.512458
O O10 0.344945 0.714902 0.901543
O O11 0.464193 0.595608 0.822965
O O12 0.169559 0.932773 0.622982
O O13 0.109750 0.108945 0.735754
O O14 0.249211 0.060634 0.907598
O O15 0.124654 0.748127 0.407059
O O16 0.396661 0.336315 0.913747
#
# Coordination Sequence:
#
# PCOD9574387 Si02
#       8
#     3   3   3   3   3   3   3   3
#     4  12  27  53  74 104 141 186 250 308 370 438
#     4  11  26  46  72 100 142 185 240 301 358 437
#     4  12  22  39  68 108 137 191 243 296 376 427
#     4  10  25  48  71 103 143 188 234 286 352 436
#     4  11  21  35  61 101 147 183 229 301 354 429
#     4  11  21  36  61 100 148 184 231 294 359 423
#     4  11  24  42  70 100 137 189 238 300 362 431
#     4  10  22  45  67 100 145 184 225 296 353 435
#
# _framework density 25.254732000000001
#
# number of rings (size 3 to 8) (size 9 to 14) (size 15 to 20)
#    0.000    1.000    5.000    2.250    3.500    3.000 
#    4.500    0.000    0.000    0.000    0.000    0.000 
#    0.000    0.000    0.000    0.000    0.000    0.000 
#
# Total GULP energy -133845.487646 kJ/mol
# GULP energy per Si atom -5576.895319 kJ/mol
# Density = 2.519725 g / cm^3
# Si number density = 25.254732 Si / 1000 Ang^3
#
#
#
# Elastic Constant Matrix: (Units=GPa)
#
#
# Indices 1 2 3 4 5 6 
#
# 1 77.8405 17.2208 5.0889 1.6910 -5.8760 0.0000
# 2 17.2208 77.8405 5.0889 -1.6910 5.8760 0.0000
# 3 5.0889 5.0889 75.9778 0.0000 0.0000 0.0000
# 4 1.6910 -1.6910 0.0000 29.2889 0.0000 5.8760
# 5 -5.8760 5.8760 0.0000 0.0000 29.2889 1.6910
# 6 0.0000 0.0000 0.0000 5.8760 1.6910 30.3099
#
#
#
# Elastic Compliance Matrix: (Units=1/GPa)
#
#
# Indices 1 2 3 4 5 6 
#
# 1 0.013909 -0.003313 -0.000710 -0.000994 0.003455 0.000000
# 2 -0.003313 0.013909 -0.000710 0.000994 -0.003455 0.000000
# 3 -0.000710 -0.000710 0.013257 0.000000 0.000000 0.000000
# 4 -0.000994 0.000994 0.000000 0.035644 0.000000 -0.006910
# 5 0.003455 -0.003455 0.000000 0.000000 0.035644 -0.001989
# 6 0.000000 0.000000 0.000000 -0.006910 -0.001989 0.034443
#
#
# Mechanical properties :
#
#
# Convention : Reuss Voigt Hill
#
# Bulk Modulus (GPa) = 31.63645 31.82846 31.73245
# Shear Modulus (GPa) = 29.97502 31.39489 30.68496
#
# Velocity S-wave (km/s) = 3.44889 3.52963 3.48949
# Velocity P-wave (km/s) = 5.33047 5.40753 5.36914
#
# Compressibility (1/GPa) = 0.03160911
#
# Stress axis : x y z
#
# Youngs Moduli (GPa) = 71.89829 71.89829 75.43296
#
# Poissons Ratio (x) = 0.23820 0.05353
# Poissons Ratio (y) = 0.23820 0.05353
# Poissons Ratio (z) = 0.05102 0.05102
#
# Static dielectric constant tensor:
#      x y z
#    x 2.067030 0.000000 0.000000 
#    y 0.000000 2.067030 0.000000 
#    z 0.000000 0.000000 2.122280 
# 
# From -- ./inp_files/409.got.cif
#   From: 2010.05.17/outbox.cif.g08.bks.cpg/sg144_cif.got.tgz:409.got - 2010.05.20 13:46:34.
