data_PCOD9574977
_publ_section_title
;
Structure prediction by ZEFSAII (Michael W. Deem and Ramdas Pophale) SiO2 
 PCOD9574977
Probable space group: P -3
;
_chemical_formula_sum "Si O2"
_cell_formula_units_Z 24
_cell_length_a 11.601600
_cell_length_b 11.601600
_cell_length_c 7.534293
_cell_angle_alpha 90.000000
_cell_angle_beta 90.000000
_cell_angle_gamma 120.000000
_cell_volume 878.231303
_symmetry_space_group_name_H-M "P -3"
_symmetry_group_IT_number 147
_symmetry_cell_setting 'hexagonal'
loop_
_space_group_symop_operation_xyz
x,y,z
-y,x-y,z
-x+y,-x,z
-x,-y,-z
y,-x+y,-z
x-y,x,-z
loop_
_atom_site_type_symbol
_atom_site_label
_atom_site_fract_x
_atom_site_fract_y
_atom_site_fract_z
Si Si1 0.258180 0.992739 0.953967
Si Si2 0.538832 0.174321 0.964859
Si Si3 0.461168 0.825678 0.464858
Si Si4 0.265440 0.258180 0.453968
O O1 0.406985 0.047189 0.034220
O O2 0.254033 0.953310 0.750000
O O3 0.250718 0.128815 0.953317
O O4 0.691138 0.224922 0.015877
O O5 0.532214 0.166763 0.750000
O O6 0.308862 0.775079 0.515877
O O7 0.593015 0.952811 0.534220
O O8 0.250718 0.128815 0.546683
#
# Coordination Sequence:
#
# PCOD9574977 Si02
#       4
#     6   6   6   6
#     4  11  22  36  55  78 107 141 178 217 258 309
#     4   7  14  32  55  80 106 135 168 209 266 319
#     4   7  14  32  55  80 106 135 168 209 266 319
#     4  11  22  36  55  78 107 141 178 217 258 309
#
# _framework density 27.327652
#
# number of rings (size 3 to 8) (size 9 to 14) (size 15 to 20)
#    1.000    2.000    0.000    2.000    0.000    2.000 
#    0.000    0.000    0.000    9.000    0.000    0.000 
#    0.000    0.000    0.000    0.000    0.000    0.000 
#
# Total GULP energy -134070.403774 kJ/mol
# GULP energy per Si atom -5586.266824 kJ/mol
# Density = 2.726545 g / cm^3
# Si number density = 27.327652 Si / 1000 Ang^3
#
#
#
# Elastic Constant Matrix: (Units=GPa)
#
#
# Indices 1 2 3 4 5 6 
#
# 1 101.3066 -4.9317 16.0722 0.0000 0.0000 0.0000
# 2 -4.9317 101.3066 16.0722 0.0000 0.0000 0.0000
# 3 16.0722 16.0722 128.6717 0.0000 0.0000 0.0000
# 4 0.0000 0.0000 0.0000 26.3080 0.0000 0.0000
# 5 0.0000 0.0000 0.0000 0.0000 26.3080 0.0000
# 6 0.0000 0.0000 0.0000 0.0000 0.0000 53.1191
#
#
#
# Elastic Compliance Matrix: (Units=1/GPa)
#
#
# Indices 1 2 3 4 5 6 
#
# 1 0.010120 0.000707 -0.001352 0.000000 0.000000 0.000000
# 2 0.000707 0.010120 -0.001352 0.000000 0.000000 0.000000
# 3 -0.001352 -0.001352 0.008110 0.000000 0.000000 0.000000
# 4 0.000000 0.000000 0.000000 0.038011 0.000000 0.000000
# 5 0.000000 0.000000 0.000000 0.000000 0.038011 0.000000
# 6 0.000000 0.000000 0.000000 0.000000 0.000000 0.018826
#
#
# Mechanical properties :
#
#
# Convention : Reuss Voigt Hill
#
# Bulk Modulus (GPa) = 41.06041 42.85672 41.95857
# Shear Modulus (GPa) = 36.95188 41.41849 39.18519
#
# Velocity S-wave (km/s) = 3.68119 3.89733 3.79080
# Velocity P-wave (km/s) = 5.75552 5.99740 5.87771
#
# Compressibility (1/GPa) = 0.02435436
#
# Stress axis : x y z
#
# Youngs Moduli (GPa) = 98.81410 98.81410 123.31108
#
# Poissons Ratio (x) = -0.06988 0.16677
# Poissons Ratio (y) = -0.06988 0.16677
# Poissons Ratio (z) = 0.13364 0.13364
#
# Static dielectric constant tensor:
#      x y z
#    x 2.268500 0.000000 0.000000 
#    y 0.000000 2.268500 0.000000 
#    z 0.000000 0.000000 1.961800 
# 
# From -- ./inp_files/429.got.cif
#   From: 2010.05.17/outbox.cif.g08.bks.cpg/sg147_cif.got.tgz:429.got - 2010.05.20 13:49:32.
