data_PCOD9574090
_publ_section_title
;
Structure prediction by ZEFSAII (Michael W. Deem and Ramdas Pophale) SiO2 
 PCOD9574090
Probable space group: I 41/A C D
;
_chemical_formula_sum "Si O2"
_cell_formula_units_Z 112
_cell_length_a 14.096563
_cell_length_b 14.096563
_cell_length_c 27.129140
_cell_angle_alpha 90.000000
_cell_angle_beta 90.000000
_cell_angle_gamma 90.000000
_cell_volume 5390.915195
_symmetry_space_group_name_H-M "I 41/A C D"
_symmetry_group_IT_number 142
_space_group.IT_coordinate_system_code '2'
_symmetry_cell_setting 'tetragonal'
loop_
_space_group_symop_operation_xyz
x,y,z
1/4-y,3/4+x,1/4+z
-x,1/2-y,z
1/4+y,1/4-x,3/4+z
x,-y,1/2-z
1/2-x,y,-z
3/4+y,1/4+x,1/4-z
1/4-y,1/4-x,1/4-z
-x,-y,-z
3/4+y,1/4-x,3/4-z
x,1/2+y,-z
3/4-y,3/4+x,1/4-z
-x,y,1/2+z
1/2+x,-y,z
1/4-y,3/4-x,3/4+z
3/4+y,3/4+x,3/4+z
1/2+x,1/2+y,1/2+z
3/4-y,1/4+x,3/4+z
1/2-x,-y,1/2+z
3/4+y,3/4-x,1/4+z
1/2+x,1/2-y,-z
-x,1/2+y,1/2-z
1/4+y,3/4+x,3/4-z
3/4-y,3/4-x,3/4-z
1/2-x,1/2-y,1/2-z
1/4+y,3/4-x,1/4-z
1/2+x,y,1/2-z
1/4-y,1/4+x,3/4-z
1/2-x,1/2+y,z
x,1/2-y,1/2+z
3/4-y,1/4-x,1/4+z
1/4+y,1/4+x,1/4+z
loop_
_atom_site_type_symbol
_atom_site_label
_atom_site_fract_x
_atom_site_fract_y
_atom_site_fract_z
Si Si1 0.212129 0.922950 0.428069
Si Si2 0.750000 0.910629 0.500000
Si Si3 0.097841 0.167857 0.905293
Si Si4 0.004525 0.357230 0.734404
O O1 0.164907 0.914907 0.375000
O O2 0.322446 0.909418 0.414074
O O3 0.168639 0.838753 0.460563
O O4 0.206098 0.020357 0.458401
O O5 0.832488 0.841762 0.479774
O O6 0.122128 0.247558 0.863947
O O7 0.096263 0.221010 0.957648
O O8 0.000000 0.250000 0.714080
#
# Coordination Sequence:
#
# PCOD9574090 Si02
#       4
#    32  16  32  32
#     4  12  27  45  71 111 143 188 252 301 377 447
#     4  12  24  50  74  98 152 192 238 318 362 440
#     4  11  21  42  74 100 135 189 244 290 356 445
#     4  12  25  47  72 105 147 188 246 309 361 440
#
# _framework density 20.775694000000001
#
# number of rings (size 3 to 8) (size 9 to 14) (size 15 to 20)
#    0.000    0.286    8.571    1.714    0.000    4.000 
#    0.000    0.000    0.000    0.000    0.000    0.000 
#    0.000    0.000    0.000    0.000    0.000    0.000 
#
# Total GULP energy -312592.678491 kJ/mol
# GULP energy per Si atom -5582.012116 kJ/mol
# Density = 2.072841 g / cm^3
# Si number density = 20.775694 Si / 1000 Ang^3
#
#
#
# Elastic Constant Matrix: (Units=GPa)
#
#
# Indices 1 2 3 4 5 6 
#
# 1 111.9678 59.9356 32.8215 0.0000 0.0000 0.0000
# 2 59.9356 111.9678 32.8215 0.0000 0.0000 0.0000
# 3 32.8215 32.8215 128.1802 0.0000 0.0000 0.0000
# 4 0.0000 0.0000 0.0000 17.7922 0.0000 0.0000
# 5 0.0000 0.0000 0.0000 0.0000 17.7922 0.0000
# 6 0.0000 0.0000 0.0000 0.0000 0.0000 11.9755
#
#
#
# Elastic Compliance Matrix: (Units=1/GPa)
#
#
# Indices 1 2 3 4 5 6 
#
# 1 0.012833 -0.006386 -0.001651 0.000000 0.000000 0.000000
# 2 -0.006386 0.012833 -0.001651 0.000000 0.000000 0.000000
# 3 -0.001651 -0.001651 0.008647 0.000000 0.000000 0.000000
# 4 0.000000 0.000000 0.000000 0.056204 0.000000 0.000000
# 5 0.000000 0.000000 0.000000 0.000000 0.056204 0.000000
# 6 0.000000 0.000000 0.000000 0.000000 0.000000 0.083504
#
#
# Mechanical properties :
#
#
# Convention : Reuss Voigt Hill
#
# Bulk Modulus (GPa) = 66.94138 67.03031 66.98584
# Shear Modulus (GPa) = 19.64016 24.61446 22.12731
#
# Velocity S-wave (km/s) = 3.07798 3.44579 3.26706
# Velocity P-wave (km/s) = 6.70245 6.94011 6.82232
#
# Compressibility (1/GPa) = 0.01493844
#
# Stress axis : x y z
#
# Youngs Moduli (GPa) = 77.92250 77.92250 115.64697
#
# Poissons Ratio (x) = 0.49758 0.19093
# Poissons Ratio (y) = 0.49758 0.19093
# Poissons Ratio (z) = 0.12865 0.12865
#
# Static dielectric constant tensor:
#      x y z
#    x 1.763600 0.000000 0.000000 
#    y 0.000000 1.763600 0.000000 
#    z 0.000000 0.000000 1.775030 
# 
# From -- ./inp_files/9751.got.cif
#   From: 2010.05.17/outbox.cif.g08.bks.cpg/sg142_5_cif.got.tgz:9751.got - 2010.05.20 13:39:18.
