data_PCOD9574361
_publ_section_title
;
Structure prediction by ZEFSAII (Michael W. Deem and Ramdas Pophale) SiO2 
 PCOD9574361
Probable space group: P 31
;
_chemical_formula_sum "Si O2"
_cell_formula_units_Z 24
_cell_length_a 10.984607
_cell_length_b 10.984607
_cell_length_c 12.101466
_cell_angle_alpha 90.000000
_cell_angle_beta 90.000000
_cell_angle_gamma 120.000000
_cell_volume 1264.554828
_symmetry_space_group_name_H-M "P 31"
_symmetry_group_IT_number 144
_symmetry_cell_setting 'hexagonal'
loop_
_space_group_symop_operation_xyz
x,y,z
-y,x-y,1/3+z
-x+y,-x,2/3+z
loop_
_atom_site_type_symbol
_atom_site_label
_atom_site_fract_x
_atom_site_fract_y
_atom_site_fract_z
Si Si1 0.762960 0.813275 0.375000
Si Si2 0.813271 0.050303 0.208327
Si Si3 0.410771 0.483530 0.754167
Si Si4 0.170886 0.689877 0.811563
Si Si5 0.481003 0.170910 0.978236
Si Si6 0.317353 0.730000 0.270213
Si Si7 0.587357 0.317351 0.436901
Si Si8 0.589234 0.516465 0.254193
O O1 0.887514 0.810911 0.441524
O O2 0.672041 0.850975 0.458935
O O3 0.658039 0.657792 0.326590
O O4 0.810897 0.923379 0.274850
O O5 0.850958 0.178909 0.292273
O O6 0.657798 0.999745 0.159898
O O7 0.548544 0.508770 0.690524
O O8 0.292931 0.473398 0.668473
O O9 0.451076 0.616664 0.833910
O O10 0.214770 0.655985 0.693353
O O11 0.298743 0.722594 0.893289
O O12 0.039749 0.548523 0.857194
O O13 0.576140 0.298767 0.059964
O O14 0.558775 0.214802 0.860025
O O15 0.548914 0.383329 0.333936
O O16 0.473400 0.180489 0.501849
#
# Coordination Sequence:
#
# PCOD9574361 Si02
#       8
#     3   3   3   3   3   3   3   3
#     4  12  24  45  64  88 135 176 209 262 328 390
#     4  12  24  45  64  88 135 176 209 262 328 390
#     4  11  22  41  67  96 130 161 220 277 318 385
#     4  11  20  41  66  93 129 162 208 269 324 382
#     4  11  20  41  66  93 129 162 208 269 324 382
#     4  10  22  37  65  99 120 163 213 266 330 365
#     4  10  22  37  65  99 120 163 213 266 330 365
#     4  11  22  41  67  96 130 161 220 277 318 385
#
# _framework density 18.979012000000001
#
# number of rings (size 3 to 8) (size 9 to 14) (size 15 to 20)
#    0.000    1.000    5.000    3.000    0.000    0.000 
#    4.500    0.000    0.000    0.000    0.000    0.000 
#    0.000    0.000    0.000    0.000    0.000    0.000 
#
# Total GULP energy -134036.607521 kJ/mol
# GULP energy per Si atom -5584.858647 kJ/mol
# Density = 1.893581 g / cm^3
# Si number density = 18.979012 Si / 1000 Ang^3
#
#
#
# Elastic Constant Matrix: (Units=GPa)
#
#
# Indices 1 2 3 4 5 6 
#
# 1 75.5666 30.8509 32.7834 -0.0013 0.0025 0.0000
# 2 30.8509 75.5666 32.7834 0.0013 -0.0025 0.0000
# 3 32.7834 32.7834 91.1962 0.0000 0.0000 0.0000
# 4 -0.0013 0.0013 0.0000 41.1096 0.0000 -0.0025
# 5 0.0025 -0.0025 0.0000 0.0000 41.1096 -0.0013
# 6 0.0000 0.0000 0.0000 -0.0025 -0.0013 22.3578
#
#
#
# Elastic Compliance Matrix: (Units=1/GPa)
#
#
# Indices 1 2 3 4 5 6 
#
# 1 0.017217 -0.005147 -0.004339 0.000001 -0.000001 0.000000
# 2 -0.005147 0.017217 -0.004339 -0.000001 0.000001 0.000000
# 3 -0.004339 -0.004339 0.014085 0.000000 0.000000 0.000000
# 4 0.000001 -0.000001 0.000000 0.024325 0.000000 0.000003
# 5 -0.000001 0.000001 0.000000 0.000000 0.024325 0.000001
# 6 0.000000 0.000000 0.000000 0.000003 0.000001 0.044727
#
#
# Mechanical properties :
#
#
# Convention : Reuss Voigt Hill
#
# Bulk Modulus (GPa) = 47.91696 48.35164 48.13430
# Shear Modulus (GPa) = 28.32824 30.64287 29.48556
#
# Velocity S-wave (km/s) = 3.86762 4.02253 3.94583
# Velocity P-wave (km/s) = 6.72657 6.86338 6.79532
#
# Compressibility (1/GPa) = 0.02086944
#
# Stress axis : x y z
#
# Youngs Moduli (GPa) = 58.08228 58.08228 70.99747
#
# Poissons Ratio (x) = 0.29892 0.30806
# Poissons Ratio (y) = 0.29892 0.30806
# Poissons Ratio (z) = 0.25202 0.25202
#
# Static dielectric constant tensor:
#      x y z
#    x 1.654900 0.000000 0.000000 
#    y 0.000000 1.654900 0.000000 
#    z 0.000000 0.000000 1.672900 
# 
# From -- ./inp_files/683.got.cif
#   From: 2010.05.17/outbox.cif.g08.bks.cpg/sg144_cif.got.tgz:683.got - 2010.05.20 13:46:34.
