data_PCOD9574558
_publ_section_title
;
Structure prediction by ZEFSAII (Michael W. Deem and Ramdas Pophale) SiO2 
 PCOD9574558
Probable space group: P 32
;
_chemical_formula_sum "Si O2"
_cell_formula_units_Z 24
_cell_length_a 8.665805
_cell_length_b 8.665805
_cell_length_c 16.759113
_cell_angle_alpha 90.000000
_cell_angle_beta 90.000000
_cell_angle_gamma 120.000000
_cell_volume 1089.932205
_symmetry_space_group_name_H-M "P 32"
_symmetry_group_IT_number 145
_symmetry_cell_setting 'hexagonal'
loop_
_space_group_symop_operation_xyz
x,y,z
-y,x-y,2/3+z
-x+y,-x,1/3+z
loop_
_atom_site_type_symbol
_atom_site_label
_atom_site_fract_x
_atom_site_fract_y
_atom_site_fract_z
Si Si1 0.268012 0.040081 0.397370
Si Si2 0.938236 0.875918 0.102594
Si Si3 0.609155 0.211878 0.023840
Si Si4 0.395099 0.604352 0.784649
Si Si5 0.545213 0.275819 0.196738
Si Si6 0.660794 0.782405 0.325133
Si Si7 0.211723 0.884260 0.228778
Si Si8 0.373417 0.934682 0.823207
O O1 0.396027 0.236693 0.361170
O O2 0.117628 0.055403 0.443760
O O3 0.364674 0.957887 0.449615
O O4 0.191762 0.904689 0.322188
O O5 0.740122 0.708778 0.104295
O O6 0.050159 0.892858 0.022779
O O7 0.045579 0.862009 0.177619
O O8 0.630089 0.296752 0.110290
O O9 0.405139 0.053689 0.016497
O O10 0.666667 0.331964 0.943623
O O11 0.287756 0.483100 0.709624
O O12 0.283176 0.509368 0.864465
O O13 0.388738 0.784297 0.776817
O O14 0.492669 0.429971 0.192740
O O15 0.387023 0.071804 0.204082
O O16 0.620406 0.761974 0.231723
#
# Coordination Sequence:
#
# PCOD9574558 Si02
#       8
#     3   3   3   3   3   3   3   3
#     4  11  24  40  65  96 125 172 224 265 332 404
#     4  11  22  40  64  93 130 167 221 271 328 393
#     4  10  21  41  66  93 128 170 215 271 333 393
#     4  11  22  40  64  93 130 167 221 271 328 393
#     4  10  21  41  66  93 128 170 215 271 333 393
#     4  10  22  43  65  88 131 169 213 279 335 384
#     4  10  22  43  65  88 131 169 213 279 335 384
#     4  11  24  40  65  96 125 172 224 265 332 404
#
# _framework density 22.019715999999999
#
# number of rings (size 3 to 8) (size 9 to 14) (size 15 to 20)
#    0.000    1.500    2.500    3.000    3.500    0.000 
#    0.000    6.250    0.000    0.000    0.000    0.000 
#    0.000    0.000    0.000    0.000    0.000    0.000 
#
# Total GULP energy -133921.135985 kJ/mol
# GULP energy per Si atom -5580.047333 kJ/mol
# Density = 2.196960 g / cm^3
# Si number density = 22.019716 Si / 1000 Ang^3
#
#
#
# Elastic Constant Matrix: (Units=GPa)
#
#
# Indices 1 2 3 4 5 6 
#
# 1 74.9157 22.4667 17.7341 -3.2263 -0.0001 0.0000
# 2 22.4667 74.9157 17.7341 3.2263 0.0001 0.0000
# 3 17.7341 17.7341 58.1632 0.0000 0.0000 0.0000
# 4 -3.2263 3.2263 0.0000 18.5375 0.0000 0.0001
# 5 -0.0001 0.0001 0.0000 0.0000 18.5375 -3.2263
# 6 0.0000 0.0000 0.0000 0.0001 -3.2263 26.2245
#
#
#
# Elastic Compliance Matrix: (Units=1/GPa)
#
#
# Indices 1 2 3 4 5 6 
#
# 1 0.015517 -0.003966 -0.003522 0.003391 0.000000 0.000000
# 2 -0.003966 0.015517 -0.003522 -0.003391 0.000000 0.000000
# 3 -0.003522 -0.003522 0.019341 0.000000 0.000000 0.000000
# 4 0.003391 -0.003391 0.000000 0.055125 0.000000 0.000000
# 5 0.000000 0.000000 0.000000 0.000000 0.055125 0.006782
# 6 0.000000 0.000000 0.000000 0.000000 0.006782 0.038967
#
#
# Mechanical properties :
#
#
# Convention : Reuss Voigt Hill
#
# Bulk Modulus (GPa) = 35.26644 35.98493 35.62569
# Shear Modulus (GPa) = 21.63902 22.66390 22.15146
#
# Velocity S-wave (km/s) = 3.13822 3.21168 3.17516
# Velocity P-wave (km/s) = 5.40203 5.48915 5.44576
#
# Compressibility (1/GPa) = 0.02835557
#
# Stress axis : x y z
#
# Youngs Moduli (GPa) = 64.44359 64.44359 51.70415
#
# Poissons Ratio (x) = 0.25557 0.18211
# Poissons Ratio (y) = 0.25557 0.18211
# Poissons Ratio (z) = 0.22698 0.22698
#
# Static dielectric constant tensor:
#      x y z
#    x 1.819480 0.000000 0.000000 
#    y 0.000000 1.819480 0.000000 
#    z 0.000000 0.000000 1.866640 
# 
# From -- ./inp_files/866.got.cif
#   From: 2010.05.17/outbox.cif.g08.bks.cpg/sg145_cif.got.tgz:866.got - 2010.05.20 13:47:28.
