data_PCOD9574693
_publ_section_title
;
Structure prediction by ZEFSAII (Michael W. Deem and Ramdas Pophale) SiO2 
 PCOD9574693
Probable space group: R 3
;
_chemical_formula_sum "Si O2"
_cell_formula_units_Z 60
_cell_length_a 16.799188
_cell_length_b 16.799188
_cell_length_c 11.610842
_cell_angle_alpha 90.000000
_cell_angle_beta 90.000000
_cell_angle_gamma 120.000000
_cell_volume 2837.729060
_symmetry_space_group_name_H-M "R 3"
_symmetry_group_IT_number 146
_symmetry_cell_setting 'hexagonal'
loop_
_space_group_symop_operation_xyz
x,y,z
-y,x-y,z
-x+y,-x,z
2/3+x,1/3+y,1/3+z
2/3-y,1/3+x-y,1/3+z
2/3-x+y,1/3-x,1/3+z
1/3+x,2/3+y,2/3+z
1/3-y,2/3+x-y,2/3+z
1/3-x+y,2/3-x,2/3+z
loop_
_atom_site_type_symbol
_atom_site_label
_atom_site_fract_x
_atom_site_fract_y
_atom_site_fract_z
Si Si1 0.333334 0.666668 0.116295
Si Si2 0.530042 0.024359 0.284661
Si Si3 0.136633 0.934284 0.442846
Si Si4 0.333334 0.666668 0.834835
Si Si5 0.351408 0.389215 0.453710
Si Si6 0.562609 0.516536 0.657293
Si Si7 0.696789 0.112291 0.613302
Si Si8 0.146922 0.481387 0.759687
O O1 0.388739 0.616711 0.155084
O O2 0.333334 0.666667 0.975248
O O3 0.526788 0.965616 0.397138
O O4 0.631440 0.067223 0.227098
O O5 0.511316 0.102753 0.326344
O O6 0.459580 0.952753 0.193401
O O7 0.097828 0.881326 0.320445
O O8 0.224759 0.031012 0.420032
O O9 0.236121 0.580187 0.792123
O O10 0.385349 0.317369 0.488641
O O11 0.277080 0.342580 0.354805
O O12 0.490595 0.407844 0.645148
O O13 0.519437 0.577307 0.704207
O O14 0.621499 0.543160 0.536863
#
# Coordination Sequence:
#
# PCOD9574693 Si02
#       8
#     3   9   9   3   9   9   9   9
#     4  12  21  42  69 103 134 181 252 291 360 421
#     4  10  22  42  63  95 137 176 231 290 365 436
#     4  11  22  41  63 100 136 181 230 302 356 434
#     4  12  27  45  78 106 146 184 255 309 366 427
#     4   9  20  37  66  91 123 172 229 282 345 432
#     4  12  25  39  67  97 144 174 239 297 365 422
#     4  10  20  36  65  94 121 172 222 284 341 417
#     4  12  27  44  67 106 141 194 232 313 366 441
#
# _framework density 21.143668000000002
#
# number of rings (size 3 to 8) (size 9 to 14) (size 15 to 20)
#    0.000    1.200    4.500    0.900    6.300    0.000 
#    0.000    1.500    0.000    1.800    0.000    0.000 
#    0.000    0.000    0.000    0.000    0.000    0.000 
#
# Total GULP energy -111511.430513 kJ/mol
# GULP energy per Si atom -5575.571526 kJ/mol
# Density = 2.109554 g / cm^3
# Si number density = 21.143668 Si / 1000 Ang^3
#
#
#
# Elastic Constant Matrix: (Units=GPa)
#
#
# Indices 1 2 3 4 5 6 
#
# 1 87.7600 24.2172 14.7726 2.4831 0.2104 0.0001
# 2 24.2172 87.7623 14.7733 -2.4834 -0.2104 0.0001
# 3 14.7726 14.7733 66.4648 0.0001 0.0000 0.0002
# 4 2.4831 -2.4834 0.0001 32.4018 0.0000 -0.2104
# 5 0.2104 -0.2104 0.0000 0.0000 32.4016 2.4831
# 6 0.0001 0.0001 0.0002 -0.2104 2.4831 31.7716
#
#
#
# Elastic Compliance Matrix: (Units=1/GPa)
#
#
# Indices 1 2 3 4 5 6 
#
# 1 0.012660 -0.003173 -0.002109 -0.001213 -0.000103 0.000000
# 2 -0.003173 0.012660 -0.002109 0.001213 0.000103 0.000000
# 3 -0.002109 -0.002109 0.015983 0.000000 0.000000 0.000000
# 4 -0.001213 0.001213 0.000000 0.031050 0.000000 0.000206
# 5 -0.000103 0.000103 0.000000 0.000000 0.031050 -0.002427
# 6 0.000000 0.000000 0.000000 0.000206 -0.002427 0.031666
#
#
# Mechanical properties :
#
#
# Convention : Reuss Voigt Hill
#
# Bulk Modulus (GPa) = 37.70468 38.83481 38.26974
# Shear Modulus (GPa) = 31.50826 31.86327 31.68576
#
# Velocity S-wave (km/s) = 3.86450 3.88621 3.87537
# Velocity P-wave (km/s) = 6.14685 6.20836 6.17768
#
# Compressibility (1/GPa) = 0.02652191
#
# Stress axis : x y z
#
# Youngs Moduli (GPa) = 78.99023 78.99203 62.56693
#
# Poissons Ratio (x) = 0.25064 0.13192
# Poissons Ratio (y) = 0.25064 0.13193
# Poissons Ratio (z) = 0.16655 0.16656
#
# Static dielectric constant tensor:
#      x y z
#    x 1.796450 0.000000 0.000000 
#    y 0.000000 1.796450 0.000000 
#    z 0.000000 0.000000 1.817250 
# 
# From -- ./inp_files/1257.got.cif
#   From: 2010.05.17/outbox.cif.g08.bks.cpg/sg146_cif.got.tgz:1257.got - 2010.05.20 13:48:23.
