data_PCOD9574455
_publ_section_title
;
Structure prediction by ZEFSAII (Michael W. Deem and Ramdas Pophale) SiO2 
 PCOD9574455
Probable space group: P 31
;
_chemical_formula_sum "Si O2"
_cell_formula_units_Z 18
_cell_length_a 12.981733
_cell_length_b 12.981733
_cell_length_c 5.325679
_cell_angle_alpha 90.000000
_cell_angle_beta 90.000000
_cell_angle_gamma 120.000000
_cell_volume 777.268313
_symmetry_space_group_name_H-M "P 31"
_symmetry_group_IT_number 144
_symmetry_cell_setting 'hexagonal'
loop_
_space_group_symop_operation_xyz
x,y,z
-y,x-y,1/3+z
-x+y,-x,2/3+z
loop_
_atom_site_type_symbol
_atom_site_label
_atom_site_fract_x
_atom_site_fract_y
_atom_site_fract_z
Si Si1 0.780858 0.338671 0.558180
Si Si2 0.425779 0.638028 0.516853
Si Si3 0.249504 0.910229 0.580934
Si Si4 0.817219 0.154260 0.869556
Si Si5 0.702710 0.008118 0.375939
Si Si6 0.041773 0.503395 0.570244
O O1 0.738097 0.422220 0.686261
O O2 0.785315 0.253313 0.773146
O O3 0.913459 0.414880 0.451304
O O4 0.411858 0.745238 0.626056
O O5 0.561811 0.681954 0.460066
O O6 0.397695 0.540014 0.726864
O O7 0.329638 0.908555 0.347639
O O8 0.113886 0.810418 0.623157
O O9 0.266717 0.040910 0.579941
O O10 0.777440 0.064324 0.630757
O O11 0.755789 0.091405 0.129488
O O12 0.570295 0.988183 0.426360
#
# Coordination Sequence:
#
# PCOD9574455 Si02
#       6
#     3   3   3   3   3   3
#     4  11  23  43  69 104 150 199 247 309 380 465
#     4  12  25  45  72 114 149 199 256 317 403 461
#     4  11  28  48  77 105 153 199 260 324 379 472
#     4  11  29  47  75 112 148 203 259 311 388 453
#     4  12  26  51  75 111 152 201 253 321 386 453
#     4  11  25  42  76 108 152 197 251 318 386 466
#
# _framework density 23.158024000000001
#
# number of rings (size 3 to 8) (size 9 to 14) (size 15 to 20)
#    0.000    0.667    1.667    5.000   11.667    1.333 
#    3.000    0.000    0.000    0.000    0.000    0.000 
#    0.000    0.000    0.000    0.000    0.000    0.000 
#
# Total GULP energy -100652.002218 kJ/mol
# GULP energy per Si atom -5591.777901 kJ/mol
# Density = 2.310532 g / cm^3
# Si number density = 23.158024 Si / 1000 Ang^3
#
#
#
# Elastic Constant Matrix: (Units=GPa)
#
#
# Indices 1 2 3 4 5 6 
#
# 1 126.6665 60.2899 40.7173 2.5703 5.3759 0.0000
# 2 60.2899 126.6665 40.7173 -2.5703 -5.3759 0.0000
# 3 40.7173 40.7173 106.9282 0.0000 0.0000 0.0000
# 4 2.5703 -2.5703 0.0000 41.2130 0.0000 -5.3759
# 5 5.3759 -5.3759 0.0000 0.0000 41.2130 2.5703
# 6 0.0000 0.0000 0.0000 -5.3759 2.5703 33.1883
#
#
#
# Elastic Compliance Matrix: (Units=1/GPa)
#
#
# Indices 1 2 3 4 5 6 
#
# 1 0.010940 -0.004527 -0.002442 -0.000965 -0.002018 0.000000
# 2 -0.004527 0.010940 -0.002442 0.000965 0.002018 0.000000
# 3 -0.002442 -0.002442 0.011212 0.000000 0.000000 0.000000
# 4 -0.000965 0.000965 0.000000 0.024911 0.000000 0.004035
# 5 -0.002018 0.002018 0.000000 0.000000 0.024911 -0.001929
# 6 0.000000 0.000000 0.000000 0.004035 -0.001929 0.030934
#
#
# Mechanical properties :
#
#
# Convention : Reuss Voigt Hill
#
# Bulk Modulus (GPa) = 70.08011 71.52335 70.80173
# Shear Modulus (GPa) = 36.38338 37.69195 37.03766
#
# Velocity S-wave (km/s) = 3.96800 4.03873 4.00352
# Velocity P-wave (km/s) = 7.16385 7.25950 7.21184
#
# Compressibility (1/GPa) = 0.01426938
#
# Stress axis : x y z
#
# Youngs Moduli (GPa) = 91.40972 91.40972 89.19250
#
# Poissons Ratio (x) = 0.41384 0.21779
# Poissons Ratio (y) = 0.41384 0.21779
# Poissons Ratio (z) = 0.22320 0.22320
#
# Static dielectric constant tensor:
#      x y z
#    x 1.878750 0.000000 0.000000 
#    y 0.000000 1.878750 0.000000 
#    z 0.000000 0.000000 1.957110 
# 
# From -- ./inp_files/108.got.cif
#   From: 2010.05.17/outbox.cif.g08.bks.cpg/sg144_cif.got.tgz:108.got - 2010.05.20 13:46:34.
