data_PCOD9574781
_publ_section_title
;
Structure prediction by ZEFSAII (Michael W. Deem and Ramdas Pophale) SiO2 
 PCOD9574781
Probable space group: R 3
;
_chemical_formula_sum "Si O2"
_cell_formula_units_Z 51
_cell_length_a 12.437619
_cell_length_b 12.437619
_cell_length_c 18.184809
_cell_angle_alpha 90.000000
_cell_angle_beta 90.000000
_cell_angle_gamma 120.000000
_cell_volume 2436.205243
_symmetry_space_group_name_H-M "R 3"
_symmetry_group_IT_number 146
_symmetry_cell_setting 'hexagonal'
loop_
_space_group_symop_operation_xyz
x,y,z
-y,x-y,z
-x+y,-x,z
2/3+x,1/3+y,1/3+z
2/3-y,1/3+x-y,1/3+z
2/3-x+y,1/3-x,1/3+z
1/3+x,2/3+y,2/3+z
1/3-y,2/3+x-y,2/3+z
1/3-x+y,2/3-x,2/3+z
loop_
_atom_site_type_symbol
_atom_site_label
_atom_site_fract_x
_atom_site_fract_y
_atom_site_fract_z
Si Si1 0.746054 0.725823 0.915230
Si Si2 0.442496 0.490585 0.130292
Si Si3 0.972619 0.552764 0.524834
Si Si4 0.402943 0.189818 0.624056
Si Si5 0.333335 0.666668 0.145282
Si Si6 0.906653 0.838312 0.054271
Si Si7 0.333334 0.666668 0.969959
O O1 0.790368 0.694609 0.840136
O O2 0.722012 0.840864 0.902139
O O3 0.617666 0.601129 0.934775
O O4 0.843062 0.757268 0.982107
O O5 0.376385 0.344345 0.143466
O O6 0.371775 0.562130 0.162772
O O7 0.459969 0.516254 0.043514
O O8 0.893914 0.592485 0.578076
O O9 0.899653 0.444720 0.464206
O O10 0.542553 0.214542 0.611406
O O11 0.333334 0.666667 0.056906
O O12 0.866055 0.943536 0.053448
#
# Coordination Sequence:
#
# PCOD9574781 Si02
#       7
#     9   9   9   9   3   9   3
#     4  12  24  44  69 102 144 181 230 291 360 422
#     4  11  26  43  69 104 137 186 229 295 353 420
#     4  12  25  43  73 100 136 183 239 288 350 415
#     4  11  23  41  68  99 133 173 232 287 340 412
#     4   9  21  45  66  99 141 177 235 287 358 417
#     4  10  25  42  70 101 139 181 238 287 349 419
#     4   9  18  36  63  99 120 159 223 287 334 381
#
# _framework density 20.934196
#
# number of rings (size 3 to 8) (size 9 to 14) (size 15 to 20)
#    0.353    0.706    1.765    4.235    4.941    0.000 
#    1.059    0.000    0.000    0.000    0.000    0.000 
#    0.000    0.000    0.000    0.000    0.000    0.000 
#
# Total GULP energy -94795.002672 kJ/mol
# GULP energy per Si atom -5576.176628 kJ/mol
# Density = 2.088655 g / cm^3
# Si number density = 20.934196 Si / 1000 Ang^3
#
#
#
# Elastic Constant Matrix: (Units=GPa)
#
#
# Indices 1 2 3 4 5 6 
#
# 1 75.3489 38.7228 56.3321 5.3654 -4.0983 -0.0001
# 2 38.7228 75.3495 56.3320 -5.3656 4.0982 0.0000
# 3 56.3321 56.3320 143.1096 -0.0002 0.0003 -0.0001
# 4 5.3654 -5.3656 -0.0002 34.4879 0.0001 4.0985
# 5 -4.0983 4.0982 0.0003 0.0001 34.4886 5.3655
# 6 -0.0001 0.0000 -0.0001 4.0985 5.3655 18.3131
#
#
#
# Elastic Compliance Matrix: (Units=1/GPa)
#
#
# Indices 1 2 3 4 5 6 
#
# 1 0.021885 -0.007542 -0.005646 -0.004578 0.003497 0.000000
# 2 -0.007542 0.021884 -0.005645 0.004578 -0.003497 0.000000
# 3 -0.005646 -0.005645 0.011432 0.000000 0.000000 0.000000
# 4 -0.004578 0.004578 0.000000 0.031251 0.000000 -0.006994
# 5 0.003497 -0.003497 0.000000 0.000000 0.031251 -0.009156
# 6 0.000000 0.000000 0.000000 -0.006994 -0.009156 0.058853
#
#
# Mechanical properties :
#
#
# Convention : Reuss Voigt Hill
#
# Bulk Modulus (GPa) = 57.03032 66.28686 61.65859
# Shear Modulus (GPa) = 22.72032 26.95267 24.83649
#
# Velocity S-wave (km/s) = 3.29799 3.59206 3.44816
# Velocity P-wave (km/s) = 6.46561 6.99550 6.73577
#
# Compressibility (1/GPa) = 0.01753453
#
# Stress axis : x y z
#
# Youngs Moduli (GPa) = 45.69440 45.69499 87.47276
#
# Poissons Ratio (x) = 0.34464 0.49384
# Poissons Ratio (y) = 0.34463 0.49382
# Poissons Ratio (z) = 0.25797 0.25797
#
# Static dielectric constant tensor:
#      x y z
#    x 1.780840 0.000000 0.000000 
#    y 0.000000 1.780840 0.000000 
#    z 0.000000 0.000000 1.717540 
# 
# From -- ./inp_files/1991.got.cif
#   From: 2010.05.17/outbox.cif.g08.bks.cpg/sg146_cif.got.tgz:1991.got - 2010.05.20 13:48:23.
