data_PCOD9574472
_publ_section_title
;
Structure prediction by ZEFSAII (Michael W. Deem and Ramdas Pophale) SiO2 
 PCOD9574472
Probable space group: P 31
;
_chemical_formula_sum "Si O2"
_cell_formula_units_Z 24
_cell_length_a 8.712723
_cell_length_b 8.712723
_cell_length_c 14.334821
_cell_angle_alpha 90.000000
_cell_angle_beta 90.000000
_cell_angle_gamma 120.000000
_cell_volume 942.390110
_symmetry_space_group_name_H-M "P 31"
_symmetry_group_IT_number 144
_symmetry_cell_setting 'hexagonal'
loop_
_space_group_symop_operation_xyz
x,y,z
-y,x-y,1/3+z
-x+y,-x,2/3+z
loop_
_atom_site_type_symbol
_atom_site_label
_atom_site_fract_x
_atom_site_fract_y
_atom_site_fract_z
Si Si1 0.757978 0.462433 0.500000
Si Si2 0.925195 0.989320 0.435417
Si Si3 0.504401 0.058400 0.559153
Si Si4 0.456032 0.921759 0.870473
Si Si5 0.994044 0.680568 0.364414
Si Si6 0.237336 0.349929 0.940474
Si Si7 0.097857 0.822333 0.967567
Si Si8 0.397736 0.625403 0.075993
O O1 0.637885 0.266379 0.540590
O O2 0.618319 0.527056 0.486794
O O3 0.844272 0.485754 0.397935
O O4 0.929576 0.613870 0.556905
O O5 0.767640 0.959106 0.366758
O O6 0.862571 0.969258 0.543854
O O7 0.958977 0.831565 0.403137
O O8 0.092743 0.168942 0.395901
O O9 0.289563 0.958018 0.581479
O O10 0.614626 0.004815 0.629585
O O11 0.489747 0.955439 0.463486
O O12 0.301347 0.879768 0.946525
O O13 0.378899 0.766177 0.797214
O O14 0.637021 0.970080 0.922855
O O15 0.176730 0.728606 0.412840
O O16 0.346732 0.554419 0.971890
#
# Coordination Sequence:
#
# PCOD9574472 Si02
#       8
#     3   3   3   3   3   3   3   3
#     4  12  26  45  76 110 147 203 257 323 397 472
#     4  12  24  49  74 103 153 201 252 313 398 458
#     4  11  26  46  70 115 145 193 267 315 389 478
#     4  11  24  48  70 105 145 195 244 319 391 459
#     4  12  26  44  74 109 144 199 261 311 397 485
#     4  12  23  49  73 103 157 199 246 334 385 471
#     4  11  25  48  71 106 150 199 246 318 385 463
#     4  11  24  47  70 103 153 191 249 321 390 458
#
# _framework density 25.46716
#
# number of rings (size 3 to 8) (size 9 to 14) (size 15 to 20)
#    0.000    0.500    6.250    2.250    5.250    0.000 
#    2.250    0.000    0.000    0.000    0.000    0.000 
#    0.000    0.000    0.000    0.000    0.000    0.000 
#
# Total GULP energy -134039.870071 kJ/mol
# GULP energy per Si atom -5584.994586 kJ/mol
# Density = 2.540920 g / cm^3
# Si number density = 25.467160 Si / 1000 Ang^3
#
#
#
# Elastic Constant Matrix: (Units=GPa)
#
#
# Indices 1 2 3 4 5 6 
#
# 1 117.7729 57.2863 42.5358 15.2870 3.0783 0.0000
# 2 57.2863 117.7729 42.5358 -15.2870 -3.0783 0.0000
# 3 42.5358 42.5358 90.3780 0.0000 0.0000 0.0000
# 4 15.2870 -15.2870 0.0000 34.3153 0.0000 -3.0783
# 5 3.0783 -3.0783 0.0000 0.0000 34.3153 15.2870
# 6 0.0000 0.0000 0.0000 -3.0783 15.2870 30.2433
#
#
#
# Elastic Compliance Matrix: (Units=1/GPa)
#
#
# Indices 1 2 3 4 5 6 
#
# 1 0.014499 -0.007093 -0.003486 -0.009619 -0.001937 0.000000
# 2 -0.007093 0.014499 -0.003486 0.009619 0.001937 0.000000
# 3 -0.003486 -0.003486 0.014346 0.000000 0.000000 0.000000
# 4 -0.009619 0.009619 0.000000 0.038059 0.000000 0.003874
# 5 -0.001937 0.001937 0.000000 0.000000 0.038059 -0.019238
# 6 0.000000 0.000000 0.000000 0.003874 -0.019238 0.043183
#
#
# Mechanical properties :
#
#
# Convention : Reuss Voigt Hill
#
# Bulk Modulus (GPa) = 65.72296 67.84884 66.78590
# Shear Modulus (GPa) = 25.53033 32.01250 28.77141
#
# Velocity S-wave (km/s) = 3.16963 3.54928 3.36482
# Velocity P-wave (km/s) = 6.26565 6.59515 6.43251
#
# Compressibility (1/GPa) = 0.01521538
#
# Stress axis : x y z
#
# Youngs Moduli (GPa) = 68.97031 68.97031 69.70732
#
# Poissons Ratio (x) = 0.48919 0.24298
# Poissons Ratio (y) = 0.48919 0.24298
# Poissons Ratio (z) = 0.24041 0.24041
#
# Static dielectric constant tensor:
#      x y z
#    x 2.063140 0.000000 0.000000 
#    y 0.000000 2.063140 0.000000 
#    z 0.000000 0.000000 2.156020 
# 
# From -- ./inp_files/862.got.cif
#   From: 2010.05.17/outbox.cif.g08.bks.cpg/sg144_cif.got.tgz:862.got - 2010.05.20 13:46:34.
