data_PCOD9574392
_publ_section_title
;
Structure prediction by ZEFSAII (Michael W. Deem and Ramdas Pophale) SiO2 
 PCOD9574392
Probable space group: P 31
;
_chemical_formula_sum "Si O2"
_cell_formula_units_Z 21
_cell_length_a 9.925327
_cell_length_b 9.925327
_cell_length_c 12.073060
_cell_angle_alpha 90.000000
_cell_angle_beta 90.000000
_cell_angle_gamma 120.000000
_cell_volume 1030.000982
_symmetry_space_group_name_H-M "P 31"
_symmetry_group_IT_number 144
_symmetry_cell_setting 'hexagonal'
loop_
_space_group_symop_operation_xyz
x,y,z
-y,x-y,1/3+z
-x+y,-x,2/3+z
loop_
_atom_site_type_symbol
_atom_site_label
_atom_site_fract_x
_atom_site_fract_y
_atom_site_fract_z
Si Si1 0.697756 0.186275 0.535570
Si Si2 0.735952 0.625632 0.451518
Si Si3 0.832224 0.776983 0.996895
Si Si4 0.226715 0.819262 0.639464
Si Si5 0.090459 0.491557 0.752534
Si Si6 0.613805 0.412936 0.663040
Si Si7 0.025829 0.935694 0.542919
O O1 0.680831 0.307155 0.613676
O O2 0.803117 0.282654 0.430742
O O3 0.776516 0.114217 0.612659
O O4 0.535953 0.063032 0.480065
O O5 0.619871 0.647016 0.370365
O O6 0.636364 0.520999 0.556751
O O7 0.822715 0.545386 0.386678
O O8 0.869452 0.796725 0.489689
O O9 0.644220 0.684019 0.994614
O O10 0.863547 0.832954 0.123723
O O11 0.932021 0.935536 0.931622
O O12 0.179736 0.661898 0.702111
O O13 0.282336 0.811930 0.516220
O O14 0.080377 0.846214 0.626332
#
# Coordination Sequence:
#
# PCOD9574392 Si02
#       7
#     3   3   3   3   3   3   3
#     4  11  20  42  67  99 130 176 229 286 347 420
#     4  11  22  44  67 102 138 180 238 291 355 426
#     4  11  25  43  71  98 137 177 236 293 356 420
#     4  11  24  46  67  96 143 180 229 290 352 425
#     4  11  24  46  66  98 138 182 226 292 354 423
#     4  10  23  37  72 102 131 180 230 291 345 429
#     4  11  24  44  68 101 135 185 230 301 353 423
#
# _framework density 20.388331999999998
#
# number of rings (size 3 to 8) (size 9 to 14) (size 15 to 20)
#    0.000    1.143    4.286    1.714    4.000    0.000 
#    7.714    0.000    0.000    0.000    0.000    0.000 
#    0.000    0.000    0.000    0.000    0.000    0.000 
#
# Total GULP energy -117133.486617 kJ/mol
# GULP energy per Si atom -5577.785077 kJ/mol
# Density = 2.034193 g / cm^3
# Si number density = 20.388332 Si / 1000 Ang^3
#
#
#
# Elastic Constant Matrix: (Units=GPa)
#
#
# Indices 1 2 3 4 5 6 
#
# 1 88.0191 33.2621 36.2075 1.7161 6.8015 0.0000
# 2 33.2621 88.0191 36.2075 -1.7161 -6.8015 0.0000
# 3 36.2075 36.2075 78.1835 0.0000 0.0000 0.0000
# 4 1.7161 -1.7161 0.0000 38.5770 0.0000 -6.8015
# 5 6.8015 -6.8015 0.0000 0.0000 38.5770 1.7161
# 6 0.0000 0.0000 0.0000 -6.8015 1.7161 27.3785
#
#
#
# Elastic Compliance Matrix: (Units=1/GPa)
#
#
# Indices 1 2 3 4 5 6 
#
# 1 0.015276 -0.003879 -0.005278 -0.000852 -0.003377 0.000000
# 2 -0.003879 0.015276 -0.005278 0.000852 0.003377 0.000000
# 3 -0.005278 -0.005278 0.017679 0.000000 0.000000 0.000000
# 4 -0.000852 0.000852 0.000000 0.027189 0.000000 0.006754
# 5 -0.003377 0.003377 0.000000 0.000000 0.027189 -0.001704
# 6 0.000000 0.000000 0.000000 0.006754 -0.001704 0.038310
#
#
# Mechanical properties :
#
#
# Convention : Reuss Voigt Hill
#
# Bulk Modulus (GPa) = 51.65121 51.73064 51.69093
# Shear Modulus (GPa) = 28.37019 30.80948 29.58983
#
# Velocity S-wave (km/s) = 3.73432 3.89155 3.81374
# Velocity P-wave (km/s) = 6.63191 6.75425 6.69336
#
# Compressibility (1/GPa) = 0.01936063
#
# Stress axis : x y z
#
# Youngs Moduli (GPa) = 65.46311 65.46311 56.56467
#
# Poissons Ratio (x) = 0.25394 0.29854
# Poissons Ratio (y) = 0.25394 0.29854
# Poissons Ratio (z) = 0.34551 0.34551
#
# Static dielectric constant tensor:
#      x y z
#    x 1.735630 0.000000 0.000000 
#    y 0.000000 1.735630 0.000000 
#    z 0.000000 0.000000 1.760220 
# 
# From -- ./inp_files/584.got.cif
#   From: 2010.05.17/outbox.cif.g08.bks.cpg/sg144_cif.got.tgz:584.got - 2010.05.20 13:46:34.
