data_PCOD9574358
_publ_section_title
;
Structure prediction by ZEFSAII (Michael W. Deem and Ramdas Pophale) SiO2 
 PCOD9574358
Probable space group: P 31
;
_chemical_formula_sum "Si O2"
_cell_formula_units_Z 24
_cell_length_a 13.102790
_cell_length_b 13.102790
_cell_length_c 7.841830
_cell_angle_alpha 90.000000
_cell_angle_beta 90.000000
_cell_angle_gamma 120.000000
_cell_volume 1165.938427
_symmetry_space_group_name_H-M "P 31"
_symmetry_group_IT_number 144
_symmetry_cell_setting 'hexagonal'
loop_
_space_group_symop_operation_xyz
x,y,z
-y,x-y,1/3+z
-x+y,-x,2/3+z
loop_
_atom_site_type_symbol
_atom_site_label
_atom_site_fract_x
_atom_site_fract_y
_atom_site_fract_z
Si Si1 0.682946 0.814137 0.388100
Si Si2 0.971731 0.913344 0.737884
Si Si3 0.320986 0.848633 0.285521
Si Si4 0.124381 0.658139 0.478469
Si Si5 0.675102 0.408963 0.141184
Si Si6 0.002946 0.440058 0.916596
Si Si7 0.546753 0.073080 0.929689
Si Si8 0.299349 0.011185 0.041179
O O1 0.596890 0.855360 0.306908
O O2 0.661860 0.695623 0.294202
O O3 0.667825 0.770903 0.583628
O O4 0.813687 0.919901 0.362555
O O5 0.850740 0.787752 0.724199
O O6 0.969587 0.001341 0.594827
O O7 0.191514 0.750636 0.329925
O O8 0.392411 0.812059 0.159826
O O9 0.408330 0.895317 0.448175
O O10 0.316034 0.960663 0.216833
O O11 0.993922 0.562988 0.417122
O O12 0.616460 0.298499 0.274592
O O13 0.611824 0.484565 0.174130
O O14 0.808885 0.472300 0.210796
O O15 0.006293 0.505646 0.091548
O O16 0.433707 0.089948 0.972388
#
# Coordination Sequence:
#
# PCOD9574358 Si02
#       8
#     3   3   3   3   3   3   3   3
#     4   9  20  39  59  86 120 158 200 250 298 363
#     4  10  22  38  61  90 121 162 205 246 306 367
#     4  10  22  38  58  82 118 154 200 248 302 358
#     4  10  22  36  60  84 114 162 194 244 304 352
#     4  10  22  38  61  90 121 162 205 246 306 367
#     4   9  20  39  57  85 123 153 195 260 298 347
#     4   9  20  39  59  86 120 158 200 250 298 363
#     4   9  20  39  57  85 123 153 195 260 298 347
#
# _framework density 20.584278000000001
#
# number of rings (size 3 to 8) (size 9 to 14) (size 15 to 20)
#    0.000    2.500    0.000    0.000    7.000    9.000 
#    0.000    0.000    0.000    0.000    0.000    0.000 
#    0.000    0.000    0.000    0.000    0.000    0.000 
#
# Total GULP energy -133621.433691 kJ/mol
# GULP energy per Si atom -5567.559737 kJ/mol
# Density = 2.053743 g / cm^3
# Si number density = 20.584278 Si / 1000 Ang^3
#
#
#
# Elastic Constant Matrix: (Units=GPa)
#
#
# Indices 1 2 3 4 5 6 
#
# 1 41.4881 6.4398 -3.8451 1.4219 0.1673 0.0000
# 2 6.4398 41.4881 -3.8451 -1.4219 -0.1673 0.0000
# 3 -3.8451 -3.8451 39.4747 0.0000 0.0000 0.0000
# 4 1.4219 -1.4219 0.0000 24.7872 0.0000 -0.1673
# 5 0.1673 -0.1673 0.0000 0.0000 24.7872 1.4219
# 6 0.0000 0.0000 0.0000 -0.1673 1.4219 17.5241
#
#
#
# Elastic Compliance Matrix: (Units=1/GPa)
#
#
# Indices 1 2 3 4 5 6 
#
# 1 0.024932 -0.003736 0.002065 -0.001645 -0.000194 0.000000
# 2 -0.003736 0.024932 0.002065 0.001645 0.000194 0.000000
# 3 0.002065 0.002065 0.025735 0.000000 0.000000 0.000000
# 4 -0.001645 0.001645 0.000000 0.040535 0.000000 0.000387
# 5 -0.000194 0.000194 0.000000 0.000000 0.040535 -0.003289
# 6 0.000000 0.000000 0.000000 0.000387 -0.003289 0.057335
#
#
# Mechanical properties :
#
#
# Convention : Reuss Voigt Hill
#
# Bulk Modulus (GPa) = 13.09150 13.32776 13.20963
# Shear Modulus (GPa) = 20.94881 21.66645 21.30763
#
# Velocity S-wave (km/s) = 3.19362 3.24786 3.22085
# Velocity P-wave (km/s) = 4.46908 4.53360 4.50146
#
# Compressibility (1/GPa) = 0.07638545
#
# Stress axis : x y z
#
# Youngs Moduli (GPa) = 40.10961 40.10961 38.85775
#
# Poissons Ratio (x) = 0.14984 -0.08023
# Poissons Ratio (y) = 0.14984 -0.08023
# Poissons Ratio (z) = -0.08281 -0.08281
#
# Static dielectric constant tensor:
#      x y z
#    x 1.724230 0.000000 0.000000 
#    y 0.000000 1.724230 0.000000 
#    z 0.000000 0.000000 1.853360 
# 
# From -- ./inp_files/422.got.cif
#   From: 2010.05.17/outbox.cif.g08.bks.cpg/sg144_cif.got.tgz:422.got - 2010.05.20 13:46:34.
