data_PCOD9574850
_publ_section_title
;
Structure prediction by ZEFSAII (Michael W. Deem and Ramdas Pophale) SiO2 
 PCOD9574850
Probable space group: P -3
;
_chemical_formula_sum "Si O2"
_cell_formula_units_Z 48
_cell_length_a 18.458902
_cell_length_b 18.458902
_cell_length_c 12.271266
_cell_angle_alpha 90.000000
_cell_angle_beta 90.000000
_cell_angle_gamma 120.000000
_cell_volume 3621.026725
_symmetry_space_group_name_H-M "P -3"
_symmetry_group_IT_number 147
_symmetry_cell_setting 'hexagonal'
loop_
_space_group_symop_operation_xyz
x,y,z
-y,x-y,z
-x+y,-x,z
-x,-y,-z
y,-x+y,-z
x-y,x,-z
loop_
_atom_site_type_symbol
_atom_site_label
_atom_site_fract_x
_atom_site_fract_y
_atom_site_fract_z
Si Si1 0.494275 0.163595 0.236977
Si Si2 0.000000 0.412095 0.375183
Si Si3 0.669320 0.163595 0.763023
Si Si4 0.330680 0.836405 0.763023
Si Si5 0.505725 0.836405 0.236977
Si Si6 0.460236 0.364357 0.000001
Si Si7 0.000000 0.587905 0.375183
Si Si8 0.904121 0.364357 0.000001
O O1 0.586788 0.173576 0.242787
O O2 0.497449 0.248725 0.270160
O O3 0.463622 0.141559 0.111888
O O4 0.433474 0.084006 0.310664
O O5 0.084006 0.433473 0.310663
O O6 0.000000 0.500000 0.376084
O O7 0.000000 0.386971 0.500000
O O8 0.586788 0.173576 0.757213
O O9 0.751275 0.248724 0.729841
O O10 0.677935 0.141558 0.888112
O O11 0.322064 0.858441 0.888112
O O12 0.349468 0.915994 0.689336
O O13 0.566527 0.915994 0.310664
O O14 0.536377 0.858441 0.111888
O O15 0.545942 0.454058 0.000002
O O16 0.385969 0.385969 0.000000
#
# Coordination Sequence:
#
# PCOD9574850 Si02
#       8
#     6   6   6   6   6   6   6   6
#     4  10  18  28  43  62  83 107 139 177 212 245
#     4   9  18  31  43  55  77 110 142 171 208 250
#     4  10  18  28  43  62  83 107 139 177 212 245
#     4  10  18  28  43  62  83 107 139 177 212 245
#     4  10  18  28  43  62  83 107 139 177 212 245
#     4   9  15  26  42  59  80 108 137 166 207 255
#     4   9  18  31  43  55  77 110 142 171 208 250
#     4   9  15  26  42  59  80 108 137 166 207 255
#
# _framework density 13.255909000000001
#
# number of rings (size 3 to 8) (size 9 to 14) (size 15 to 20)
#    0.000    2.500    2.500    1.250    0.000    1.000 
#    0.000    2.500    0.000    3.000    0.000    0.000 
#    0.000    0.000    0.000    0.750    0.000    6.500 
#
# Total GULP energy -267304.770701 kJ/mol
# GULP energy per Si atom -5568.849390 kJ/mol
# Density = 1.322574 g / cm^3
# Si number density = 13.255909 Si / 1000 Ang^3
#
#
#
# Elastic Constant Matrix: (Units=GPa)
#
#
# Indices 1 2 3 4 5 6 
#
# 1 77.5305 38.4728 41.3293 0.0001 0.0000 0.0000
# 2 38.4728 77.5305 41.3293 -0.0001 0.0000 0.0000
# 3 41.3293 41.3293 109.3522 0.0000 0.0000 0.0000
# 4 0.0001 -0.0001 0.0000 5.4538 0.0000 0.0000
# 5 0.0000 0.0000 0.0000 0.0000 5.4538 0.0001
# 6 0.0000 0.0000 0.0000 0.0000 0.0001 19.5288
#
#
#
# Elastic Compliance Matrix: (Units=1/GPa)
#
#
# Indices 1 2 3 4 5 6 
#
# 1 0.018700 -0.006903 -0.004459 0.000000 0.000000 0.000000
# 2 -0.006903 0.018700 -0.004459 0.000000 0.000000 0.000000
# 3 -0.004459 -0.004459 0.012515 0.000000 0.000000 0.000000
# 4 0.000000 0.000000 0.000000 0.183359 0.000000 0.000000
# 5 0.000000 0.000000 0.000000 0.000000 0.183359 -0.000001
# 6 0.000000 0.000000 0.000000 0.000000 -0.000001 0.051206
#
#
# Mechanical properties :
#
#
# Convention : Reuss Voigt Hill
#
# Bulk Modulus (GPa) = 54.71968 56.29733 55.50851
# Shear Modulus (GPa) = 9.88977 15.63939 12.76458
#
# Velocity S-wave (km/s) = 2.73438 3.43856 3.10649
# Velocity P-wave (km/s) = 7.16507 7.63719 7.40489
#
# Compressibility (1/GPa) = 0.01827496
#
# Stress axis : x y z
#
# Youngs Moduli (GPa) = 53.47478 53.47478 79.90284
#
# Poissons Ratio (x) = 0.36912 0.35628
# Poissons Ratio (y) = 0.36912 0.35628
# Poissons Ratio (z) = 0.23844 0.23844
#
# Static dielectric constant tensor:
#      x y z
#    x 1.415620 0.000000 0.000000 
#    y 0.000000 1.415620 0.000000 
#    z 0.000000 0.000000 1.455870 
# 
# From -- ./inp_files/884.got.cif
#   From: 2010.05.17/outbox.cif.g08.bks.cpg/sg147_cif.got.tgz:884.got - 2010.05.20 13:49:32.
