data_PCOD9574214
_publ_section_title
;
Structure prediction by ZEFSAII (Michael W. Deem and Ramdas Pophale) SiO2 
 PCOD9574214
Probable space group: I 41/A C D
;
_chemical_formula_sum "Si O2"
_cell_formula_units_Z 112
_cell_length_a 14.900620
_cell_length_b 14.900620
_cell_length_c 22.932539
_cell_angle_alpha 90.000000
_cell_angle_beta 90.000000
_cell_angle_gamma 90.000000
_cell_volume 5091.676694
_symmetry_space_group_name_H-M "I 41/A C D"
_symmetry_group_IT_number 142
_space_group.IT_coordinate_system_code '2'
_symmetry_cell_setting 'tetragonal'
loop_
_space_group_symop_operation_xyz
x,y,z
1/4-y,3/4+x,1/4+z
-x,1/2-y,z
1/4+y,1/4-x,3/4+z
x,-y,1/2-z
1/2-x,y,-z
3/4+y,1/4+x,1/4-z
1/4-y,1/4-x,1/4-z
-x,-y,-z
3/4+y,1/4-x,3/4-z
x,1/2+y,-z
3/4-y,3/4+x,1/4-z
-x,y,1/2+z
1/2+x,-y,z
1/4-y,3/4-x,3/4+z
3/4+y,3/4+x,3/4+z
1/2+x,1/2+y,1/2+z
3/4-y,1/4+x,3/4+z
1/2-x,-y,1/2+z
3/4+y,3/4-x,1/4+z
1/2+x,1/2-y,-z
-x,1/2+y,1/2-z
1/4+y,3/4+x,3/4-z
3/4-y,3/4-x,3/4-z
1/2-x,1/2-y,1/2-z
1/4+y,3/4-x,1/4-z
1/2+x,y,1/2-z
1/4-y,1/4+x,3/4-z
1/2-x,1/2+y,z
x,1/2-y,1/2+z
3/4-y,1/4-x,1/4+z
1/4+y,1/4+x,1/4+z
loop_
_atom_site_type_symbol
_atom_site_label
_atom_site_fract_x
_atom_site_fract_y
_atom_site_fract_z
Si Si1 0.331067 0.377412 0.139485
Si Si2 0.345478 0.216109 0.341690
Si Si3 0.169112 0.919112 0.375000
Si Si4 0.472011 0.851443 0.966190
O O1 0.234277 0.335717 0.124865
O O2 0.330516 0.482585 0.154988
O O3 0.358552 0.314875 0.192940
O O4 0.400455 0.359878 0.086377
O O5 0.433496 0.183496 0.375000
O O6 0.332128 0.323491 0.341995
O O7 0.351590 0.187622 0.274389
O O8 0.500000 0.750000 0.980257
#
# Coordination Sequence:
#
# PCOD9574214 Si02
#       4
#    32  32  16  32
#     4  12  24  45  74 108 146 193 250 299 376 446
#     4  12  27  48  71 111 148 195 247 307 376 440
#     4  12  25  46  72 105 154 186 246 310 370 449
#     4  12  23  48  78 103 149 195 250 311 366 452
#
# _framework density 21.996684999999999
#
# number of rings (size 3 to 8) (size 9 to 14) (size 15 to 20)
#    0.000    0.000    7.143    3.000    0.000    2.286 
#    0.000    5.714    0.000    0.000    0.000    0.000 
#    0.000    0.000    0.000    0.000    0.000    0.000 
#
# Total GULP energy -312695.521373 kJ/mol
# GULP energy per Si atom -5583.848596 kJ/mol
# Density = 2.194662 g / cm^3
# Si number density = 21.996685 Si / 1000 Ang^3
#
#
#
# Elastic Constant Matrix: (Units=GPa)
#
#
# Indices 1 2 3 4 5 6 
#
# 1 143.6064 46.5426 30.9827 0.0000 0.0000 0.0000
# 2 46.5426 143.6064 30.9827 0.0000 0.0000 0.0000
# 3 30.9827 30.9827 83.9505 0.0000 0.0000 0.0000
# 4 0.0000 0.0000 0.0000 218.0817 0.0000 0.0000
# 5 0.0000 0.0000 0.0000 0.0000 218.0817 0.0000
# 6 0.0000 0.0000 0.0000 0.0000 0.0000 45.8185
#
#
#
# Elastic Compliance Matrix: (Units=1/GPa)
#
#
# Indices 1 2 3 4 5 6 
#
# 1 0.008140 -0.002162 -0.002206 0.000000 0.000000 0.000000
# 2 -0.002162 0.008140 -0.002206 0.000000 0.000000 0.000000
# 3 -0.002206 -0.002206 0.013540 0.000000 0.000000 0.000000
# 4 0.000000 0.000000 0.000000 0.004585 0.000000 0.000000
# 5 0.000000 0.000000 0.000000 0.000000 0.004585 0.000000
# 6 0.000000 0.000000 0.000000 0.000000 0.000000 0.021825
#
#
# Mechanical properties :
#
#
# Convention : Reuss Voigt Hill
#
# Bulk Modulus (GPa) = 59.98335 65.35327 62.66831
# Shear Modulus (GPa) = 62.87458 113.90673 88.39065
#
# Velocity S-wave (km/s) = 5.35217 7.20389 6.34593
# Velocity P-wave (km/s) = 8.09461 9.94835 9.06897
#
# Compressibility (1/GPa) = 0.01667129
#
# Stress axis : x y z
#
# Youngs Moduli (GPa) = 122.84635 122.84635 73.85392
#
# Poissons Ratio (x) = 0.26562 0.16294
# Poissons Ratio (y) = 0.26562 0.16294
# Poissons Ratio (z) = 0.27103 0.27103
#
# Static dielectric constant tensor:
#      x y z
#    x 1.929050 0.000000 0.000000 
#    y 0.000000 1.929050 0.000000 
#    z 0.000000 0.000000 1.731760 
# 
# From -- ./inp_files/9744.got.cif
#   From: 2010.05.17/outbox.cif.g08.bks.cpg/sg142_5_cif.got.tgz:9744.got - 2010.05.20 13:39:18.
