data_PCOD9574562
_publ_section_title
;
Structure prediction by ZEFSAII (Michael W. Deem and Ramdas Pophale) SiO2 
 PCOD9574562
Probable space group: P 32
;
_chemical_formula_sum "Si O2"
_cell_formula_units_Z 21
_cell_length_a 12.150935
_cell_length_b 12.150935
_cell_length_c 7.104897
_cell_angle_alpha 90.000000
_cell_angle_beta 90.000000
_cell_angle_gamma 120.000000
_cell_volume 908.464191
_symmetry_space_group_name_H-M "P 32"
_symmetry_group_IT_number 145
_symmetry_cell_setting 'hexagonal'
loop_
_space_group_symop_operation_xyz
x,y,z
-y,x-y,2/3+z
-x+y,-x,1/3+z
loop_
_atom_site_type_symbol
_atom_site_label
_atom_site_fract_x
_atom_site_fract_y
_atom_site_fract_z
Si Si1 0.017474 0.450885 0.758340
Si Si2 0.326285 0.563360 0.524743
Si Si3 0.658146 0.751245 0.959685
Si Si4 0.795192 0.813646 0.336785
Si Si5 0.489556 0.462664 0.018764
Si Si6 0.754792 0.963356 0.635699
Si Si7 0.726054 0.307712 0.840036
O O1 0.095019 0.562816 0.902192
O O2 0.057662 0.345515 0.744095
O O3 0.035234 0.521753 0.558994
O O4 0.870577 0.363116 0.794891
O O5 0.393654 0.682002 0.380570
O O6 0.216332 0.451326 0.403096
O O7 0.771663 0.800246 0.112610
O O8 0.592570 0.598103 0.925049
O O9 0.709146 0.845582 0.781977
O O10 0.811575 0.936216 0.446320
O O11 0.906980 0.782667 0.383457
O O12 0.348737 0.367900 0.939177
O O13 0.541177 0.367581 0.076137
O O14 0.694728 0.403007 0.727449
#
# Coordination Sequence:
#
# PCOD9574562 Si02
#       7
#     3   3   3   3   3   3   3
#     4  10  21  43  66  99 139 177 231 291 350 426
#     4  12  24  41  69 105 146 182 233 298 365 427
#     4  11  25  46  69 107 141 180 238 299 352 427
#     4  11  27  46  70 101 140 190 241 290 351 431
#     4  10  21  45  68  98 141 175 226 300 347 418
#     4  12  26  48  73 101 142 195 236 296 362 425
#     4  10  22  43  65  93 131 177 227 282 349 416
#
# _framework density 23.115936999999999
#
# number of rings (size 3 to 8) (size 9 to 14) (size 15 to 20)
#    0.000    1.143    5.714    0.000    6.000    1.143 
#    2.571    0.000    0.000    0.000    0.000    0.000 
#    0.000    0.000    0.000    0.000    0.000    0.000 
#
# Total GULP energy -117149.440158 kJ/mol
# GULP energy per Si atom -5578.544769 kJ/mol
# Density = 2.306332 g / cm^3
# Si number density = 23.115937 Si / 1000 Ang^3
#
#
#
# Elastic Constant Matrix: (Units=GPa)
#
#
# Indices 1 2 3 4 5 6 
#
# 1 112.9409 57.5978 29.9221 4.8113 11.0169 0.0000
# 2 57.5978 112.9409 29.9221 -4.8113 -11.0169 0.0000
# 3 29.9221 29.9221 85.7388 0.0000 0.0000 0.0000
# 4 4.8113 -4.8113 0.0000 30.3024 0.0000 -11.0169
# 5 11.0169 -11.0169 0.0000 0.0000 30.3024 4.8113
# 6 0.0000 0.0000 0.0000 -11.0169 4.8113 27.6715
#
#
#
# Elastic Compliance Matrix: (Units=1/GPa)
#
#
# Indices 1 2 3 4 5 6 
#
# 1 0.014257 -0.007575 -0.002332 -0.003466 -0.007937 0.000000
# 2 -0.007575 0.014257 -0.002332 0.003466 0.007937 0.000000
# 3 -0.002332 -0.002332 0.013291 0.000000 0.000000 0.000000
# 4 -0.003466 0.003466 0.000000 0.039873 0.000000 0.015875
# 5 -0.007937 0.007937 0.000000 0.000000 0.039873 -0.006933
# 6 0.000000 0.000000 0.000000 0.015875 -0.006933 0.043664
#
#
# Mechanical properties :
#
#
# Convention : Reuss Voigt Hill
#
# Bulk Modulus (GPa) = 57.71261 60.72276 59.21768
# Shear Modulus (GPa) = 25.57964 30.60052 28.09008
#
# Velocity S-wave (km/s) = 3.33014 3.64233 3.48973
# Velocity P-wave (km/s) = 6.30930 6.63435 6.47386
#
# Compressibility (1/GPa) = 0.01732724
#
# Stress axis : x y z
#
# Youngs Moduli (GPa) = 70.14102 70.14102 75.23877
#
# Poissons Ratio (x) = 0.53131 0.17546
# Poissons Ratio (y) = 0.53131 0.17546
# Poissons Ratio (z) = 0.16357 0.16357
#
# Static dielectric constant tensor:
#      x y z
#    x 1.942270 0.000000 0.000000 
#    y 0.000000 1.942270 0.000000 
#    z 0.000000 0.000000 1.903190 
# 
# From -- ./inp_files/419.got.cif
#   From: 2010.05.17/outbox.cif.g08.bks.cpg/sg145_cif.got.tgz:419.got - 2010.05.20 13:47:28.
