data_PCOD9574913
_publ_section_title
;
Structure prediction by ZEFSAII (Michael W. Deem and Ramdas Pophale) SiO2 
 PCOD9574913
Probable space group: P -3
;
_chemical_formula_sum "Si O2"
_cell_formula_units_Z 48
_cell_length_a 18.067443
_cell_length_b 18.067443
_cell_length_c 7.274014
_cell_angle_alpha 90.000000
_cell_angle_beta 90.000000
_cell_angle_gamma 120.000000
_cell_volume 2056.355281
_symmetry_space_group_name_H-M "P -3"
_symmetry_group_IT_number 147
_symmetry_cell_setting 'hexagonal'
loop_
_space_group_symop_operation_xyz
x,y,z
-y,x-y,z
-x+y,-x,z
-x,-y,-z
y,-x+y,-z
x-y,x,-z
loop_
_atom_site_type_symbol
_atom_site_label
_atom_site_fract_x
_atom_site_fract_y
_atom_site_fract_z
Si Si1 0.098882 0.477265 0.508879
Si Si2 0.816159 0.952099 0.952374
Si Si3 0.628253 0.506471 0.022919
Si Si4 0.632626 0.810017 0.543182
Si Si5 0.817488 0.187554 0.011686
Si Si6 0.449726 0.371652 0.047020
Si Si7 0.460139 0.096067 0.441800
Si Si8 0.822355 0.863793 0.436729
O O1 0.162095 0.442314 0.469169
O O2 0.086424 0.462438 0.731162
O O3 0.122291 0.573067 0.457535
O O4 0.005903 0.417626 0.423581
O O5 0.721423 0.898475 0.038580
O O6 0.820870 0.991574 0.751694
O O7 0.847800 0.883631 0.939206
O O8 0.723146 0.551468 0.943119
O O9 0.547045 0.415714 0.972198
O O10 0.645119 0.507969 0.241379
O O11 0.593023 0.571494 0.992696
O O12 0.634022 0.816505 0.764960
O O13 0.606953 0.879181 0.478874
O O14 0.723258 0.820865 0.489676
O O15 0.722603 0.112485 0.967721
O O16 0.888361 0.852751 0.567566
#
# Coordination Sequence:
#
# PCOD9574913 Si02
#       8
#     6   6   6   6   6   6   6   6
#     4   9  18  33  57  80 115 147 183 242 288 340
#     4  12  26  43  60  87 126 163 209 262 312 361
#     4   9  18  34  57  81 114 149 186 235 291 344
#     4  10  20  36  60  88 114 153 208 242 290 366
#     4  10  20  38  58  88 119 154 200 252 292 363
#     4   9  18  35  57  83 112 150 191 232 291 350
#     4   9  18  35  55  83 112 147 188 238 289 342
#     4  12  24  42  64  86 117 169 210 258 304 369
#
# _framework density 23.342269999999999
#
# number of rings (size 3 to 8) (size 9 to 14) (size 15 to 20)
#    0.000    2.000    1.250    2.500    1.750    0.000 
#    3.750    0.000    0.000    0.000    0.000    0.000 
#    0.000    0.000    0.000    0.000    0.000    0.000 
#
# Total GULP energy -267988.881961 kJ/mol
# GULP energy per Si atom -5583.101708 kJ/mol
# Density = 2.328914 g / cm^3
# Si number density = 23.342270 Si / 1000 Ang^3
#
#
#
# Elastic Constant Matrix: (Units=GPa)
#
#
# Indices 1 2 3 4 5 6 
#
# 1 92.5467 42.3492 -19.3602 -4.2253 -0.6160 0.0000
# 2 42.3492 92.5467 -19.3602 4.2253 0.6160 0.0000
# 3 -19.3602 -19.3602 52.0801 0.0000 0.0000 0.0000
# 4 -4.2253 4.2253 0.0000 -8.2571 0.0000 0.6160
# 5 -0.6160 0.6160 0.0000 0.0000 -8.2571 -4.2253
# 6 0.0000 0.0000 0.0000 0.6160 -4.2253 25.0988
#
#
#
# Elastic Compliance Matrix: (Units=1/GPa)
#
#
# Indices 1 2 3 4 5 6 
#
# 1 0.013305 -0.005006 0.003085 -0.009370 -0.001366 0.000000
# 2 -0.005006 0.013305 0.003085 0.009370 0.001366 0.000000
# 3 0.003085 0.003085 0.021495 0.000000 0.000000 0.000000
# 4 -0.009370 0.009370 0.000000 -0.111315 0.000000 0.002732
# 5 -0.001366 0.001366 0.000000 0.000000 -0.111315 -0.018739
# 6 0.000000 0.000000 0.000000 0.002732 -0.018739 0.036621
#
#
# Mechanical properties :
#
#
# Convention : Reuss Voigt Hill
#
# Bulk Modulus (GPa) = 19.82881 27.15901 23.49391
# Shear Modulus (GPa) = -40.51141 17.28656 -11.61243
#
# Velocity S-wave (km/s) = -4.17050 2.72429 -2.23286
# Velocity P-wave (km/s) = 3.83112 4.64285 1.85453
#
# Compressibility (1/GPa) = 0.05043167
#
# Stress axis : x y z
#
# Youngs Moduli (GPa) = 75.16244 75.16244 46.52297
#
# Poissons Ratio (x) = 0.37626 -0.14352
# Poissons Ratio (y) = 0.37626 -0.14352
# Poissons Ratio (z) = -0.23187 -0.23187
#
# Static dielectric constant tensor:
#      x y z
#    x 1.873920 0.000000 0.000000 
#    y 0.000000 1.873920 0.000000 
#    z 0.000000 0.000000 1.986900 
# 
# From -- ./inp_files/674.got.cif
#   From: 2010.05.17/outbox.cif.g08.bks.cpg/sg147_cif.got.tgz:674.got - 2010.05.20 13:49:32.
