data_PCOD9574926
_publ_section_title
;
Structure prediction by ZEFSAII (Michael W. Deem and Ramdas Pophale) SiO2 
 PCOD9574926
Probable space group: P -3
;
_chemical_formula_sum "Si O2"
_cell_formula_units_Z 34
_cell_length_a 11.193201
_cell_length_b 11.193201
_cell_length_c 16.485520
_cell_angle_alpha 90.000000
_cell_angle_beta 90.000000
_cell_angle_gamma 120.000000
_cell_volume 1788.718042
_symmetry_space_group_name_H-M "P -3"
_symmetry_group_IT_number 147
_symmetry_cell_setting 'hexagonal'
loop_
_space_group_symop_operation_xyz
x,y,z
-y,x-y,z
-x+y,-x,z
-x,-y,-z
y,-x+y,-z
x-y,x,-z
loop_
_atom_site_type_symbol
_atom_site_label
_atom_site_fract_x
_atom_site_fract_y
_atom_site_fract_z
Si Si1 0.506022 0.493976 0.193546
Si Si2 0.283765 0.000018 0.499999
Si Si3 0.666668 0.333334 0.191542
Si Si4 0.274549 0.276061 0.093158
Si Si5 0.493310 0.506706 0.612671
Si Si6 0.333335 0.666667 0.613654
Si Si7 0.998487 0.723938 0.906841
O O1 0.587060 0.412941 0.167811
O O2 0.357908 0.402627 0.153341
O O3 0.499667 0.500324 0.290521
O O4 0.597373 0.642092 0.153343
O O5 0.395406 0.037852 0.572754
O O6 0.134654 0.865371 0.517959
O O7 0.357576 0.962194 0.427243
O O8 0.666668 0.333334 0.289042
O O9 0.296517 0.148258 0.113763
O O10 0.113693 0.227386 0.095860
O O11 0.319870 0.319870 0.999999
O O12 0.412253 0.587813 0.588705
#
# Coordination Sequence:
#
# PCOD9574926 Si02
#       7
#     6   6   2   6   6   2   6
#     4  11  20  38  60  85 113 150 196 244 287 346
#     4  11  23  40  62  90 119 151 188 238 292 347
#     4   9  18  30  60  84  99 142 200 241 273 336
#     4  10  21  37  58  84 117 157 199 242 290 345
#     4  10  22  38  62  86 114 150 195 237 286 350
#     4   9  15  36  60  81 108 142 194 235 270 336
#     4  10  21  37  58  84 117 157 199 242 290 345
#
# _framework density 19.008026999999998
#
# number of rings (size 3 to 8) (size 9 to 14) (size 15 to 20)
#    0.000    1.765    3.529    1.059    0.000    2.824 
#    2.118    0.000    0.000    4.235    0.000    0.000 
#    0.000    0.000    0.000    0.000    0.000    0.000 
#
# Total GULP energy -189586.608643 kJ/mol
# GULP energy per Si atom -5576.076725 kJ/mol
# Density = 1.896476 g / cm^3
# Si number density = 19.008027 Si / 1000 Ang^3
#
#
#
# Elastic Constant Matrix: (Units=GPa)
#
#
# Indices 1 2 3 4 5 6 
#
# 1 70.6998 23.2827 36.5476 -2.8215 -0.0010 0.0000
# 2 23.2827 70.6998 36.5478 2.8215 0.0009 -0.0001
# 3 36.5476 36.5478 105.6075 0.0000 -0.0001 -0.0001
# 4 -2.8215 2.8215 0.0000 20.7619 0.0000 0.0010
# 5 -0.0010 0.0009 -0.0001 0.0000 20.7619 -2.8215
# 6 0.0000 -0.0001 -0.0001 0.0010 -2.8215 23.7086
#
#
#
# Elastic Compliance Matrix: (Units=1/GPa)
#
#
# Indices 1 2 3 4 5 6 
#
# 1 0.017997 -0.003439 -0.005038 0.002913 0.000001 0.000000
# 2 -0.003439 0.017998 -0.005038 -0.002913 -0.000001 0.000000
# 3 -0.005038 -0.005038 0.012956 0.000000 0.000000 0.000000
# 4 0.002913 -0.002913 0.000000 0.048957 0.000000 -0.000002
# 5 0.000001 -0.000001 0.000000 0.000000 0.048957 0.005826
# 6 0.000000 0.000000 0.000000 -0.000002 0.005826 0.042872
#
#
# Mechanical properties :
#
#
# Convention : Reuss Voigt Hill
#
# Bulk Modulus (GPa) = 45.61937 48.86257 47.24097
# Shear Modulus (GPa) = 22.31398 23.08844 22.70121
#
# Velocity S-wave (km/s) = 3.42997 3.48899 3.45961
# Velocity P-wave (km/s) = 6.30384 6.48019 6.39262
#
# Compressibility (1/GPa) = 0.02192051
#
# Stress axis : x y z
#
# Youngs Moduli (GPa) = 55.56328 55.56313 77.18236
#
# Poissons Ratio (x) = 0.19106 0.38888
# Poissons Ratio (y) = 0.19106 0.38888
# Poissons Ratio (z) = 0.27995 0.27995
#
# Static dielectric constant tensor:
#      x y z
#    x 1.654980 0.000000 0.000000 
#    y 0.000000 1.654980 0.000000 
#    z 0.000000 0.000000 1.647780 
# 
# From -- ./inp_files/954.got.cif
#   From: 2010.05.17/outbox.cif.g08.bks.cpg/sg147_cif.got.tgz:954.got - 2010.05.20 13:49:32.
