data_PCOD9574602
_publ_section_title
;
Structure prediction by ZEFSAII (Michael W. Deem and Ramdas Pophale) SiO2 
 PCOD9574602
Probable space group: P 32
;
_chemical_formula_sum "Si O2"
_cell_formula_units_Z 21
_cell_length_a 8.412345
_cell_length_b 8.412345
_cell_length_c 12.407252
_cell_angle_alpha 90.000000
_cell_angle_beta 90.000000
_cell_angle_gamma 120.000000
_cell_volume 760.396984
_symmetry_space_group_name_H-M "P 32"
_symmetry_group_IT_number 145
_symmetry_cell_setting 'hexagonal'
loop_
_space_group_symop_operation_xyz
x,y,z
-y,x-y,2/3+z
-x+y,-x,1/3+z
loop_
_atom_site_type_symbol
_atom_site_label
_atom_site_fract_x
_atom_site_fract_y
_atom_site_fract_z
Si Si1 0.779528 0.160286 0.486280
Si Si2 0.048862 0.493748 0.851805
Si Si3 0.140564 0.867642 0.367940
Si Si4 0.154521 0.495692 0.419244
Si Si5 0.665658 0.302455 0.283401
Si Si6 0.170245 0.997666 0.075664
Si Si7 0.264932 0.247432 0.285041
O O1 0.878259 0.055991 0.642571
O O2 0.651551 0.159202 0.584053
O O3 0.984090 0.329626 0.477827
O O4 0.778787 0.986015 0.430435
O O5 0.080158 0.381534 0.945057
O O6 0.230325 0.677034 0.832240
O O7 0.002863 0.359974 0.750562
O O8 0.763940 0.450560 0.065217
O O9 0.137386 0.677688 0.405427
O O10 0.197566 0.090740 0.378410
O O11 0.204160 0.395214 0.319984
O O12 0.480119 0.314824 0.271463
O O13 0.633436 0.129731 0.210929
O O14 0.176873 0.150942 0.165736
#
# Coordination Sequence:
#
# PCOD9574602 Si02
#       7
#     3   3   3   3   3   3   3
#     4  12  26  46  78 111 155 209 264 334 421 482
#     4  10  26  47  70 106 148 198 263 323 393 503
#     4  10  23  45  71 106 151 189 260 324 391 480
#     4  12  25  45  75 110 147 216 250 328 415 485
#     4  10  25  49  71 112 154 205 264 334 398 506
#     4  10  23  48  70 108 156 196 259 337 392 490
#     4  10  24  48  69 107 157 199 264 332 392 500
#
# _framework density 27.617152999999998
#
# number of rings (size 3 to 8) (size 9 to 14) (size 15 to 20)
#    0.000    1.714    1.429    2.571   12.000    1.143 
#    5.143    0.000    0.000    0.000    0.000    0.000 
#    0.000    0.000    0.000    0.000    0.000    0.000 
#
# Total GULP energy -116955.078591 kJ/mol
# GULP energy per Si atom -5569.289457 kJ/mol
# Density = 2.755429 g / cm^3
# Si number density = 27.617153 Si / 1000 Ang^3
#
#
#
# Elastic Constant Matrix: (Units=GPa)
#
#
# Indices 1 2 3 4 5 6 
#
# 1 119.6508 7.7321 8.1255 26.1193 4.0665 0.0000
# 2 7.7321 119.6508 8.1255 -26.1193 -4.0665 0.0000
# 3 8.1255 8.1255 -47.5160 0.0000 0.0000 0.0000
# 4 26.1193 -26.1193 0.0000 16.2869 0.0000 -4.0665
# 5 4.0665 -4.0665 0.0000 0.0000 16.2869 26.1193
# 6 0.0000 0.0000 0.0000 -4.0665 26.1193 55.9593
#
#
#
# Elastic Compliance Matrix: (Units=1/GPa)
#
#
# Indices 1 2 3 4 5 6 
#
# 1 0.022989 -0.015306 0.001314 -0.061413 -0.009561 0.000000
# 2 -0.015306 0.022989 0.001314 0.061413 0.009561 0.000000
# 3 0.001314 0.001314 -0.020596 0.000000 0.000000 0.000000
# 4 -0.061413 0.061413 0.000000 0.263151 0.000000 0.019123
# 5 -0.009561 0.009561 0.000000 0.000000 0.263151 -0.122827
# 6 0.000000 0.000000 0.000000 0.019123 -0.122827 0.076590
#
#
# Mechanical properties :
#
#
# Convention : Reuss Voigt Hill
#
# Bulk Modulus (GPa) = 40916.65112 26.63912 20471.64512
# Shear Modulus (GPa) = 7.64949 28.89346 18.27148
#
# Velocity S-wave (km/s) = 1.66609 3.23803 2.57495
# Velocity P-wave (km/s) = 121.86686 4.86278 86.24146
#
# Compressibility (1/GPa) = 0.00002444
#
# Stress axis : x y z
#
# Youngs Moduli (GPa) = 43.49941 43.49941 -48.55259
#
# Poissons Ratio (x) = 0.66581 0.06379
# Poissons Ratio (y) = 0.66581 0.06379
# Poissons Ratio (z) = -0.05715 -0.05715
#
# Static dielectric constant tensor:
#      x y z
#    x 2.365210 0.000000 0.000000 
#    y 0.000000 2.365210 0.000000 
#    z 0.000000 0.000000 2.903060 
# 
# From -- ./inp_files/825.got.cif
#   From: 2010.05.17/outbox.cif.g08.bks.cpg/sg145_cif.got.tgz:825.got - 2010.05.20 13:47:28.
