data_PCOD9574765
_publ_section_title
;
Structure prediction by ZEFSAII (Michael W. Deem and Ramdas Pophale) SiO2 
 PCOD9574765
Probable space group: R 3
;
_chemical_formula_sum "Si O2"
_cell_formula_units_Z 33
_cell_length_a 11.262903
_cell_length_b 11.262903
_cell_length_c 10.097095
_cell_angle_alpha 90.000000
_cell_angle_beta 90.000000
_cell_angle_gamma 120.000000
_cell_volume 1109.245720
_symmetry_space_group_name_H-M "R 3"
_symmetry_group_IT_number 146
_symmetry_cell_setting 'hexagonal'
loop_
_space_group_symop_operation_xyz
x,y,z
-y,x-y,z
-x+y,-x,z
2/3+x,1/3+y,1/3+z
2/3-y,1/3+x-y,1/3+z
2/3-x+y,1/3-x,1/3+z
1/3+x,2/3+y,2/3+z
1/3-y,2/3+x-y,2/3+z
1/3-x+y,2/3-x,2/3+z
loop_
_atom_site_type_symbol
_atom_site_label
_atom_site_fract_x
_atom_site_fract_y
_atom_site_fract_z
Si Si1 0.333334 0.666668 0.420777
Si Si2 0.333333 0.666667 0.734730
Si Si3 0.203369 0.944085 0.594213
Si Si4 0.355874 0.158076 0.418710
Si Si5 0.436869 0.494012 0.036599
O O1 0.333334 0.666667 0.576970
O O2 0.420283 0.600795 0.358571
O O3 0.179667 0.611363 0.785433
O O4 0.312325 0.128077 0.580214
O O5 0.327910 0.945566 0.681113
O O6 0.153637 0.799365 0.510631
O O7 0.280386 0.228608 0.349269
O O8 0.153666 0.976503 0.435405
#
# Coordination Sequence:
#
# PCOD9574765 Si02
#       5
#     3   3   9   9   9
#     4  12  24  46  71 103 147 198 235 302 370 441
#     4  12  30  46  71 115 153 198 247 311 367 429
#     4  10  23  44  76 101 144 190 249 297 372 440
#     4  10  26  45  74 105 155 188 252 303 368 440
#     4  10  23  45  74 108 139 198 239 307 367 442
#
# _framework density 29.749946000000001
#
# number of rings (size 3 to 8) (size 9 to 14) (size 15 to 20)
#    1.636    0.000    2.727    0.000    7.636    2.182 
#    4.909    0.000    0.000    0.000    0.000    0.000 
#    0.000    0.000    0.000    0.000    0.000    0.000 
#
# Total GULP energy -61268.913219 kJ/mol
# GULP energy per Si atom -5569.901202 kJ/mol
# Density = 2.968223 g / cm^3
# Si number density = 29.749946 Si / 1000 Ang^3
#
#
#
# Elastic Constant Matrix: (Units=GPa)
#
#
# Indices 1 2 3 4 5 6 
#
# 1 -156.9346 433.2460 90.6251 57.7047 -86.1985 -0.0057
# 2 433.2460 -156.9295 90.6239 -57.7055 86.1983 0.0064
# 3 90.6251 90.6239 135.8745 -0.0002 0.0003 -0.0004
# 4 57.7047 -57.7055 -0.0002 18.5314 0.0010 86.1963
# 5 -86.1985 86.1983 0.0003 0.0010 18.5314 57.6991
# 6 -0.0057 0.0064 -0.0004 86.1963 57.6991 -295.0736
#
#
#
# Elastic Compliance Matrix: (Units=1/GPa)
#
#
# Indices 1 2 3 4 5 6 
#
# 1 0.002931 0.003502 -0.004291 0.001778 -0.002656 0.000000
# 2 0.003502 0.002932 -0.004291 -0.001778 0.002656 0.000000
# 3 -0.004291 -0.004291 0.013084 0.000000 0.000000 0.000000
# 4 0.001778 -0.001778 0.000000 0.018184 0.000000 0.005312
# 5 -0.002656 0.002656 0.000000 0.000000 0.018184 0.003556
# 6 0.000000 0.000000 0.000000 0.005312 0.003556 -0.001142
#
#
# Mechanical properties :
#
#
# Convention : Reuss Voigt Hill
#
# Bulk Modulus (GPa) = 113.80610 116.77783 115.29196
# Shear Modulus (GPa) = 74.33674 -104.43445 -15.04886
#
# Velocity S-wave (km/s) = 5.00414 -5.93130 -2.25154
# Velocity P-wave (km/s) = 8.46911 2.75113 5.66379
#
# Compressibility (1/GPa) = 0.00878688
#
# Stress axis : x y z
#
# Youngs Moduli (GPa) = 341.12398 341.12058 76.42909
#
# Poissons Ratio (x) = -1.19475 0.32798
# Poissons Ratio (y) = -1.19476 0.32798
# Poissons Ratio (z) = 1.46384 1.46384
#
# Static dielectric constant tensor:
#      x y z
#    x 8.188520 -0.000190 0.000010 
#    y -0.000190 8.188410 0.000010 
#    z 0.000010 0.000010 2.283490 
# 
# From -- ./inp_files/1400.got.cif
#   From: 2010.05.17/outbox.cif.g08.bks.cpg/sg146_cif.got.tgz:1400.got - 2010.05.20 13:48:23.
