data_PCOD9574449
_publ_section_title
;
Structure prediction by ZEFSAII (Michael W. Deem and Ramdas Pophale) SiO2 
 PCOD9574449
Probable space group: P 31
;
_chemical_formula_sum "Si O2"
_cell_formula_units_Z 21
_cell_length_a 9.644835
_cell_length_b 9.644835
_cell_length_c 10.428288
_cell_angle_alpha 90.000000
_cell_angle_beta 90.000000
_cell_angle_gamma 120.000000
_cell_volume 840.104388
_symmetry_space_group_name_H-M "P 31"
_symmetry_group_IT_number 144
_symmetry_cell_setting 'hexagonal'
loop_
_space_group_symop_operation_xyz
x,y,z
-y,x-y,1/3+z
-x+y,-x,2/3+z
loop_
_atom_site_type_symbol
_atom_site_label
_atom_site_fract_x
_atom_site_fract_y
_atom_site_fract_z
Si Si1 0.128761 0.959762 0.028980
Si Si2 0.072679 0.519015 0.950658
Si Si3 0.266905 0.665240 0.204507
Si Si4 0.425630 0.368154 0.672281
Si Si5 0.972514 0.389851 0.547743
Si Si6 0.812193 0.800550 0.404881
Si Si7 0.751006 0.152996 0.730493
O O1 0.260722 0.004542 0.138703
O O2 0.073434 0.090714 0.027375
O O3 0.199276 0.963451 0.887336
O O4 0.974735 0.788524 0.062130
O O5 0.168881 0.630183 0.073572
O O6 0.039083 0.343282 0.984101
O O7 0.910489 0.524138 0.954980
O O8 0.208226 0.624208 0.850227
O O9 0.121572 0.609731 0.306175
O O10 0.385951 0.849997 0.232409
O O11 0.556131 0.435362 0.784115
O O12 0.277388 0.202812 0.722583
O O13 0.470442 0.323379 0.535535
O O14 0.889908 0.322098 0.682903
#
# Coordination Sequence:
#
# PCOD9574449 Si02
#       7
#     3   3   3   3   3   3   3
#     4  12  22  45  73 109 148 201 258 310 377 475
#     4  11  24  44  70 107 143 191 246 315 368 453
#     4  11  22  44  77 104 144 191 258 309 374 455
#     4  11  24  47  69 112 157 197 250 331 381 465
#     4  12  24  45  80 112 149 206 255 315 402 455
#     4  12  27  42  72 108 153 194 255 317 389 455
#     4  11  23  49  75 106 154 206 252 319 391 454
#
# _framework density 24.996894000000001
#
# number of rings (size 3 to 8) (size 9 to 14) (size 15 to 20)
#    0.000    0.571    5.714    4.286    2.000    1.143 
#    7.714    0.000    0.000    0.000    0.000    0.000 
#    0.000    0.000    0.000    0.000    0.000    0.000 
#
# Total GULP energy -117583.996158 kJ/mol
# GULP energy per Si atom -5599.237912 kJ/mol
# Density = 2.494000 g / cm^3
# Si number density = 24.996894 Si / 1000 Ang^3
#
#
#
# Elastic Constant Matrix: (Units=GPa)
#
#
# Indices 1 2 3 4 5 6 
#
# 1 61.2468 7.1642 4.9851 0.1466 3.6942 0.0000
# 2 7.1642 61.2468 4.9851 -0.1466 -3.6942 0.0000
# 3 4.9851 4.9851 93.9433 0.0000 0.0000 0.0000
# 4 0.1466 -0.1466 0.0000 26.4295 0.0000 -3.6942
# 5 3.6942 -3.6942 0.0000 0.0000 26.4295 0.1466
# 6 0.0000 0.0000 0.0000 -3.6942 0.1466 27.0413
#
#
#
# Elastic Compliance Matrix: (Units=1/GPa)
#
#
# Indices 1 2 3 4 5 6 
#
# 1 0.016791 -0.002060 -0.000782 -0.000105 -0.002635 0.000000
# 2 -0.002060 0.016791 -0.000782 0.000105 0.002635 0.000000
# 3 -0.000782 -0.000782 0.010728 0.000000 0.000000 0.000000
# 4 -0.000105 0.000105 0.000000 0.038574 0.000000 0.005270
# 5 -0.002635 0.002635 0.000000 0.000000 0.038574 -0.000209
# 6 0.000000 0.000000 0.000000 0.005270 -0.000209 0.037702
#
#
# Mechanical properties :
#
#
# Convention : Reuss Voigt Hill
#
# Bulk Modulus (GPa) = 26.98058 27.85620 27.41839
# Shear Modulus (GPa) = 27.97034 29.26688 28.61861
#
# Velocity S-wave (km/s) = 3.34870 3.42544 3.38729
# Velocity P-wave (km/s) = 5.07629 5.17812 5.12746
#
# Compressibility (1/GPa) = 0.03706369
#
# Stress axis : x y z
#
# Youngs Moduli (GPa) = 59.55535 59.55535 93.21680
#
# Poissons Ratio (x) = 0.12266 0.07287
# Poissons Ratio (y) = 0.12266 0.07287
# Poissons Ratio (z) = 0.04656 0.04656
#
# Static dielectric constant tensor:
#      x y z
#    x 2.025920 0.000000 0.000000 
#    y 0.000000 2.025920 0.000000 
#    z 0.000000 0.000000 2.077680 
# 
# From -- ./inp_files/608.got.cif
#   From: 2010.05.17/outbox.cif.g08.bks.cpg/sg144_cif.got.tgz:608.got - 2010.05.20 13:46:34.
