data_PCOD9574074
_publ_section_title
;
Structure prediction by ZEFSAII (Michael W. Deem and Ramdas Pophale) SiO2 
 PCOD9574074
Probable space group: I 41/A C D
;
_chemical_formula_sum "Si O2"
_cell_formula_units_Z 160
_cell_length_a 21.727665
_cell_length_b 21.727665
_cell_length_c 14.847347
_cell_angle_alpha 90.000000
_cell_angle_beta 90.000000
_cell_angle_gamma 90.000000
_cell_volume 7009.305223
_symmetry_space_group_name_H-M "I 41/A C D"
_symmetry_group_IT_number 142
_space_group.IT_coordinate_system_code '2'
_symmetry_cell_setting 'tetragonal'
loop_
_space_group_symop_operation_xyz
x,y,z
1/4-y,3/4+x,1/4+z
-x,1/2-y,z
1/4+y,1/4-x,3/4+z
x,-y,1/2-z
1/2-x,y,-z
3/4+y,1/4+x,1/4-z
1/4-y,1/4-x,1/4-z
-x,-y,-z
3/4+y,1/4-x,3/4-z
x,1/2+y,-z
3/4-y,3/4+x,1/4-z
-x,y,1/2+z
1/2+x,-y,z
1/4-y,3/4-x,3/4+z
3/4+y,3/4+x,3/4+z
1/2+x,1/2+y,1/2+z
3/4-y,1/4+x,3/4+z
1/2-x,-y,1/2+z
3/4+y,3/4-x,1/4+z
1/2+x,1/2-y,-z
-x,1/2+y,1/2-z
1/4+y,3/4+x,3/4-z
3/4-y,3/4-x,3/4-z
1/2-x,1/2-y,1/2-z
1/4+y,3/4-x,1/4-z
1/2+x,y,1/2-z
1/4-y,1/4+x,3/4-z
1/2-x,1/2+y,z
x,1/2-y,1/2+z
3/4-y,1/4-x,1/4+z
1/4+y,1/4+x,1/4+z
loop_
_atom_site_type_symbol
_atom_site_label
_atom_site_fract_x
_atom_site_fract_y
_atom_site_fract_z
Si Si1 0.574040 0.603063 0.049414
Si Si2 0.161427 0.124799 0.278110
Si Si3 0.033732 0.689896 0.980848
Si Si4 0.115043 0.474876 0.897442
Si Si5 0.027652 0.515038 0.146830
O O1 0.606674 0.643327 0.125000
O O2 0.520800 0.641729 0.003755
O O3 0.537486 0.547924 0.094291
O O4 0.621391 0.572577 0.980911
O O5 0.093384 0.153353 0.260784
O O6 0.155431 0.056337 0.319244
O O7 0.207333 0.125458 0.191149
O O8 0.190012 0.172769 0.350823
O O9 0.045775 0.704226 0.875000
O O10 0.000000 0.750000 0.019739
O O11 0.043924 0.469140 0.866251
O O12 0.040903 0.500000 0.250000
#
# Coordination Sequence:
#
# PCOD9574074 Si02
#       5
#    32  32  32  32  32
#     4  11  20  41  67 102 140 181 232 286 365 440
#     4  11  24  46  69 106 143 193 255 298 374 440
#     4  11  22  38  66 105 152 180 218 299 376 451
#     4  11  24  43  72 101 142 191 247 314 355 444
#     4  11  23  42  70 101 140 192 237 297 372 430
#
# _framework density 22.826799999999999
#
# number of rings (size 3 to 8) (size 9 to 14) (size 15 to 20)
#    0.000    1.000    6.000    2.400    2.800    1.600 
#    0.000    0.000    0.000   37.200    0.000    0.000 
#    0.000    0.000    0.000    0.000    0.000    0.000 
#
# Total GULP energy -446678.067451 kJ/mol
# GULP energy per Si atom -5583.475843 kJ/mol
# Density = 2.277485 g / cm^3
# Si number density = 22.826800 Si / 1000 Ang^3
#
#
#
# Elastic Constant Matrix: (Units=GPa)
#
#
# Indices 1 2 3 4 5 6 
#
# 1 109.2833 38.6373 47.5470 0.0000 0.0000 0.0000
# 2 38.6373 109.2816 47.5482 0.0000 0.0000 0.0000
# 3 47.5470 47.5482 72.2727 0.0000 0.0000 0.0000
# 4 0.0000 0.0000 0.0000 33.0661 0.0000 0.0000
# 5 0.0000 0.0000 0.0000 0.0000 33.0709 0.0000
# 6 0.0000 0.0000 0.0000 0.0000 0.0000 12.0302
#
#
#
# Elastic Compliance Matrix: (Units=1/GPa)
#
#
# Indices 1 2 3 4 5 6 
#
# 1 0.012935 -0.001220 -0.007707 0.000000 0.000000 0.000000
# 2 -0.001220 0.012936 -0.007708 0.000000 0.000000 0.000000
# 3 -0.007707 -0.007708 0.023978 0.000000 0.000000 0.000000
# 4 0.000000 0.000000 0.000000 0.030242 0.000000 0.000000
# 5 0.000000 0.000000 0.000000 0.000000 0.030238 0.000000
# 6 0.000000 0.000000 0.000000 0.000000 0.000000 0.083124
#
#
# Mechanical properties :
#
#
# Convention : Reuss Voigt Hill
#
# Bulk Modulus (GPa) = 60.31801 62.03361 61.17581
# Shear Modulus (GPa) = 21.52861 26.10712 23.81786
#
# Velocity S-wave (km/s) = 3.07437 3.38554 3.23370
# Velocity P-wave (km/s) = 6.25171 6.52053 6.38753
#
# Compressibility (1/GPa) = 0.01657880
#
# Stress axis : x y z
#
# Youngs Moduli (GPa) = 77.30922 77.30590 41.70512
#
# Poissons Ratio (x) = 0.09431 0.32143
# Poissons Ratio (y) = 0.09431 0.32145
# Poissons Ratio (z) = 0.59584 0.59586
#
# Static dielectric constant tensor:
#      x y z
#    x 1.881250 0.000000 0.000000 
#    y 0.000000 1.881240 0.000000 
#    z 0.000000 0.000000 1.826650 
# 
# From -- ./inp_files/5432.got.cif
#   From: 2010.05.17/outbox.cif.g08.bks.cpg/sg142_3_cif.got.tgz:5432.got - 2010.05.20 13:39:18.
