data_PCOD9574101
_publ_section_title
;
Structure prediction by ZEFSAII (Michael W. Deem and Ramdas Pophale) SiO2 
 PCOD9574101
Probable space group: I 41/A C D
;
_chemical_formula_sum "Si O2"
_cell_formula_units_Z 176
_cell_length_a 18.942203
_cell_length_b 18.942203
_cell_length_c 24.030031
_cell_angle_alpha 90.000000
_cell_angle_beta 90.000000
_cell_angle_gamma 90.000000
_cell_volume 8622.144642
_symmetry_space_group_name_H-M "I 41/A C D"
_symmetry_group_IT_number 142
_space_group.IT_coordinate_system_code '2'
_symmetry_cell_setting 'tetragonal'
loop_
_space_group_symop_operation_xyz
x,y,z
1/4-y,3/4+x,1/4+z
-x,1/2-y,z
1/4+y,1/4-x,3/4+z
x,-y,1/2-z
1/2-x,y,-z
3/4+y,1/4+x,1/4-z
1/4-y,1/4-x,1/4-z
-x,-y,-z
3/4+y,1/4-x,3/4-z
x,1/2+y,-z
3/4-y,3/4+x,1/4-z
-x,y,1/2+z
1/2+x,-y,z
1/4-y,3/4-x,3/4+z
3/4+y,3/4+x,3/4+z
1/2+x,1/2+y,1/2+z
3/4-y,1/4+x,3/4+z
1/2-x,-y,1/2+z
3/4+y,3/4-x,1/4+z
1/2+x,1/2-y,-z
-x,1/2+y,1/2-z
1/4+y,3/4+x,3/4-z
3/4-y,3/4-x,3/4-z
1/2-x,1/2-y,1/2-z
1/4+y,3/4-x,1/4-z
1/2+x,y,1/2-z
1/4-y,1/4+x,3/4-z
1/2-x,1/2+y,z
x,1/2-y,1/2+z
3/4-y,1/4-x,1/4+z
1/4+y,1/4+x,1/4+z
loop_
_atom_site_type_symbol
_atom_site_label
_atom_site_fract_x
_atom_site_fract_y
_atom_site_fract_z
Si Si1 0.597011 0.926805 0.895712
Si Si2 0.059740 0.446879 0.697698
Si Si3 0.303752 0.188693 0.155382
Si Si4 0.323769 0.345956 0.920619
Si Si5 0.864915 0.549228 0.478157
Si Si6 0.250000 0.451934 0.000000
O O1 0.514918 0.909942 0.906081
O O2 0.638063 0.870037 0.858663
O O3 0.595922 0.000225 0.862943
O O4 0.632496 0.937843 0.955812
O O5 0.065025 0.500000 0.750000
O O6 0.066257 0.496608 0.644193
O O7 0.123777 0.391514 0.700950
O O8 0.981405 0.413930 0.695877
O O9 0.254154 0.175662 0.208800
O O10 0.380856 0.369145 0.875000
O O11 0.306910 0.403194 0.968542
O O12 0.794560 0.505230 0.461708
#
# Coordination Sequence:
#
# PCOD9574101 Si02
#       6
#    32  32  32  32  32  16
#     4  11  23  40  63  94 129 174 218 274 332 395
#     4  11  22  38  65  95 132 173 216 274 335 396
#     4  11  24  40  63  93 132 170 223 276 331 390
#     4  11  23  39  62  98 134 169 215 274 331 393
#     4  12  22  39  64  99 129 169 226 273 329 398
#     4  12  20  32  68  96 128 166 222 274 326 382
#
# _framework density 20.412555000000001
#
# number of rings (size 3 to 8) (size 9 to 14) (size 15 to 20)
#    0.000    0.727    7.273    1.091    0.000    0.364 
#    0.000    0.000    0.000    8.727    0.000    0.000 
#    0.000    0.000    0.000    0.000    0.000    0.000 
#
# Total GULP energy -491342.884795 kJ/mol
# GULP energy per Si atom -5583.441873 kJ/mol
# Density = 2.036610 g / cm^3
# Si number density = 20.412555 Si / 1000 Ang^3
#
#
#
# Elastic Constant Matrix: (Units=GPa)
#
#
# Indices 1 2 3 4 5 6 
#
# 1 107.5336 48.7784 15.0687 0.0000 0.0000 0.0000
# 2 48.7784 107.5365 15.0686 0.0000 0.0000 0.0000
# 3 15.0687 15.0686 50.5577 0.0000 0.0000 0.0000
# 4 0.0000 0.0000 0.0000 24.7530 0.0000 0.0000
# 5 0.0000 0.0000 0.0000 0.0000 24.7530 0.0000
# 6 0.0000 0.0000 0.0000 0.0000 0.0000 9.0946
#
#
#
# Elastic Compliance Matrix: (Units=1/GPa)
#
#
# Indices 1 2 3 4 5 6 
#
# 1 0.011904 -0.005116 -0.002023 0.000000 0.000000 0.000000
# 2 -0.005116 0.011903 -0.002023 0.000000 0.000000 0.000000
# 3 -0.002023 -0.002023 0.020985 0.000000 0.000000 0.000000
# 4 0.000000 0.000000 0.000000 0.040399 0.000000 0.000000
# 5 0.000000 0.000000 0.000000 0.000000 0.040399 0.000000
# 6 0.000000 0.000000 0.000000 0.000000 0.000000 0.109955
#
#
# Mechanical properties :
#
#
# Convention : Reuss Voigt Hill
#
# Bulk Modulus (GPa) = 37.78116 47.05099 42.41608
# Shear Modulus (GPa) = 19.03369 24.16759 21.60064
#
# Velocity S-wave (km/s) = 3.05692 3.44460 3.25653
# Velocity P-wave (km/s) = 5.56854 6.23862 5.91308
#
# Compressibility (1/GPa) = 0.02646822
#
# Stress axis : x y z
#
# Youngs Moduli (GPa) = 84.00844 84.01087 47.65245
#
# Poissons Ratio (x) = 0.42980 0.09640
# Poissons Ratio (y) = 0.42978 0.09640
# Poissons Ratio (z) = 0.16995 0.16995
#
# Static dielectric constant tensor:
#      x y z
#    x 1.742520 0.000000 0.000000 
#    y 0.000000 1.742520 0.000000 
#    z 0.000000 0.000000 1.776370 
# 
# From -- ./inp_files/11426.got.cif
#   From: 2010.05.17/outbox.cif.g08.bks.cpg/sg142_6_cif.got.tgz:11426.got - 2010.05.20 13:39:18.
