data_PCOD9574207
_publ_section_title
;
Structure prediction by ZEFSAII (Michael W. Deem and Ramdas Pophale) SiO2 
 PCOD9574207
Probable space group: I 41/A C D
;
_chemical_formula_sum "Si O2"
_cell_formula_units_Z 192
_cell_length_a 16.651621
_cell_length_b 16.651621
_cell_length_c 33.058223
_cell_angle_alpha 90.000000
_cell_angle_beta 90.000000
_cell_angle_gamma 90.000000
_cell_volume 9166.267772
_symmetry_space_group_name_H-M "I 41/A C D"
_symmetry_group_IT_number 142
_space_group.IT_coordinate_system_code '2'
_symmetry_cell_setting 'tetragonal'
loop_
_space_group_symop_operation_xyz
x,y,z
1/4-y,3/4+x,1/4+z
-x,1/2-y,z
1/4+y,1/4-x,3/4+z
x,-y,1/2-z
1/2-x,y,-z
3/4+y,1/4+x,1/4-z
1/4-y,1/4-x,1/4-z
-x,-y,-z
3/4+y,1/4-x,3/4-z
x,1/2+y,-z
3/4-y,3/4+x,1/4-z
-x,y,1/2+z
1/2+x,-y,z
1/4-y,3/4-x,3/4+z
3/4+y,3/4+x,3/4+z
1/2+x,1/2+y,1/2+z
3/4-y,1/4+x,3/4+z
1/2-x,-y,1/2+z
3/4+y,3/4-x,1/4+z
1/2+x,1/2-y,-z
-x,1/2+y,1/2-z
1/4+y,3/4+x,3/4-z
3/4-y,3/4-x,3/4-z
1/2-x,1/2-y,1/2-z
1/4+y,3/4-x,1/4-z
1/2+x,y,1/2-z
1/4-y,1/4+x,3/4-z
1/2-x,1/2+y,z
x,1/2-y,1/2+z
3/4-y,1/4-x,1/4+z
1/4+y,1/4+x,1/4+z
loop_
_atom_site_type_symbol
_atom_site_label
_atom_site_fract_x
_atom_site_fract_y
_atom_site_fract_z
Si Si1 0.366123 0.061086 0.959656
Si Si2 0.500000 0.250000 0.723053
Si Si3 0.777886 0.775324 0.329495
Si Si4 0.297536 0.500000 0.750000
Si Si5 0.787949 0.199031 0.582258
Si Si6 0.126451 0.871184 0.198676
Si Si7 0.618061 0.336843 0.464165
O O1 0.449759 0.016915 0.951028
O O2 0.350060 0.125860 0.924753
O O3 0.370190 0.103186 0.003542
O O4 0.288318 0.004974 0.964081
O O5 0.560986 0.301017 0.696364
O O6 0.451818 0.309778 0.752669
O O7 0.778373 0.736645 0.373667
O O8 0.707301 0.840224 0.323072
O O9 0.863157 0.815700 0.318213
O O10 0.349554 0.426592 0.765271
O O11 0.702977 0.163327 0.567203
O O12 0.824959 0.269357 0.554769
#
# Coordination Sequence:
#
# PCOD9574207 Si02
#       7
#    32  16  32  16  32  32  32
#     4  12  22  45  68 100 132 184 235 286 338 414
#     4  12  24  40  74  96 136 176 240 290 332 408
#     4  12  26  44  70 101 145 178 228 291 360 414
#     4  12  24  38  74  98 132 172 240 290 328 404
#     4  12  26  43  70 100 145 180 225 290 362 415
#     4  12  24  46  67  99 139 186 233 285 342 424
#     4  12  23  42  67 105 132 177 232 290 346 407
#
# _framework density 20.946366999999999
#
# number of rings (size 3 to 8) (size 9 to 14) (size 15 to 20)
#    0.000    0.000    6.667    3.500    0.000    2.667 
#    0.000    5.833    0.000    0.000    0.000    0.000 
#    0.000    0.000    0.000    0.000    0.000    0.000 
#
# Total GULP energy -537049.996980 kJ/mol
# GULP energy per Si atom -5594.270802 kJ/mol
# Density = 2.089869 g / cm^3
# Si number density = 20.946367 Si / 1000 Ang^3
#
#
#
# Elastic Constant Matrix: (Units=GPa)
#
#
# Indices 1 2 3 4 5 6 
#
# 1 99.9669 38.3127 16.3151 0.0000 0.0000 0.0000
# 2 38.3127 99.9669 16.3151 0.0000 0.0000 0.0000
# 3 16.3151 16.3151 57.0912 0.0000 0.0000 0.0000
# 4 0.0000 0.0000 0.0000 23.7776 0.0000 0.0000
# 5 0.0000 0.0000 0.0000 0.0000 23.7776 0.0000
# 6 0.0000 0.0000 0.0000 0.0000 0.0000 53.2763
#
#
#
# Elastic Compliance Matrix: (Units=1/GPa)
#
#
# Indices 1 2 3 4 5 6 
#
# 1 0.011987 -0.004232 -0.002216 0.000000 0.000000 0.000000
# 2 -0.004232 0.011987 -0.002216 0.000000 0.000000 0.000000
# 3 -0.002216 -0.002216 0.018782 0.000000 0.000000 0.000000
# 4 0.000000 0.000000 0.000000 0.042056 0.000000 0.000000
# 5 0.000000 0.000000 0.000000 0.000000 0.042056 0.000000
# 6 0.000000 0.000000 0.000000 0.000000 0.000000 0.018770
#
#
# Mechanical properties :
#
#
# Convention : Reuss Voigt Hill
#
# Bulk Modulus (GPa) = 39.32754 44.32340 41.82547
# Shear Modulus (GPa) = 29.16395 32.57175 30.86785
#
# Velocity S-wave (km/s) = 3.73542 3.94764 3.84299
# Velocity P-wave (km/s) = 6.11724 6.47957 6.30101
#
# Compressibility (1/GPa) = 0.02542747
#
# Stress axis : x y z
#
# Youngs Moduli (GPa) = 83.42313 83.42313 53.24128
#
# Poissons Ratio (x) = 0.35308 0.11799
# Poissons Ratio (y) = 0.35308 0.11799
# Poissons Ratio (z) = 0.18487 0.18487
#
# Static dielectric constant tensor:
#      x y z
#    x 1.784800 0.000000 0.000000 
#    y 0.000000 1.784800 0.000000 
#    z 0.000000 0.000000 1.728170 
# 
# From -- ./inp_files/12610.got.cif
#   From: 2010.05.17/outbox.cif.g08.bks.cpg/sg142_7_cif.got.tgz:12610.got - 2010.05.20 13:39:18.
