data_PCOD9574257
_publ_section_title
;
Structure prediction by ZEFSAII (Michael W. Deem and Ramdas Pophale) SiO2 
 PCOD9574257
Probable space group: I 41/A C D
;
_chemical_formula_sum "Si O2"
_cell_formula_units_Z 68
_cell_length_a 24.000000
_cell_length_b 24.000000
_cell_length_c 12.000000
_cell_angle_alpha 90.000000
_cell_angle_beta 90.000000
_cell_angle_gamma 90.000000
_cell_volume 6912.000000
_symmetry_space_group_name_H-M "I 41/A C D"
_symmetry_group_IT_number 142
_space_group.IT_coordinate_system_code '2'
_symmetry_cell_setting 'tetragonal'
loop_
_space_group_symop_operation_xyz
x,y,z
1/4-y,3/4+x,1/4+z
-x,1/2-y,z
1/4+y,1/4-x,3/4+z
x,-y,1/2-z
1/2-x,y,-z
3/4+y,1/4+x,1/4-z
1/4-y,1/4-x,1/4-z
-x,-y,-z
3/4+y,1/4-x,3/4-z
x,1/2+y,-z
3/4-y,3/4+x,1/4-z
-x,y,1/2+z
1/2+x,-y,z
1/4-y,3/4-x,3/4+z
3/4+y,3/4+x,3/4+z
1/2+x,1/2+y,1/2+z
3/4-y,1/4+x,3/4+z
1/2-x,-y,1/2+z
3/4+y,3/4-x,1/4+z
1/2+x,1/2-y,-z
-x,1/2+y,1/2-z
1/4+y,3/4+x,3/4-z
3/4-y,3/4-x,3/4-z
1/2-x,1/2-y,1/2-z
1/4+y,3/4-x,1/4-z
1/2+x,y,1/2-z
1/4-y,1/4+x,3/4-z
1/2-x,1/2+y,z
x,1/2-y,1/2+z
3/4-y,1/4-x,1/4+z
1/4+y,1/4+x,1/4+z
loop_
_atom_site_type_symbol
_atom_site_label
_atom_site_fract_x
_atom_site_fract_y
_atom_site_fract_z
Si Si1 0.750000 0.543084 0.500000
Si Si2 0.848685 0.899517 0.116221
Si Si3 0.000000 0.250000 0.375000
Si Si4 0.750000 0.148124 0.000000
Si Si5 0.953191 0.852247 0.982427
Si Si6 0.158687 0.820181 0.822027
O O1 0.737332 0.512669 0.625000
O O2 0.697273 0.582396 0.473216
O O3 0.829525 0.851947 0.204592
O O4 0.861031 0.955110 0.186117
O O5 0.906791 0.881834 0.058981
O O6 0.022416 0.299968 0.450213
O O7 0.788616 0.178890 0.093011
O O8 0.921538 0.828463 0.875000
O O9 0.006916 0.889212 0.949293
O O10 0.107769 0.857769 0.875000
#
# Coordination Sequence:
#
# PCOD9574257 Si02
#       6
#    16  32   8  16  32  32
#     4  12  25  46  75 100 138 190 246 304 364 440
#     4  11  24  44  68 103 137 182 239 299 356 428
#     4  12  22  44  72  98 136 188 230 288 356 434
#     4  10  23  42  69  96 136 190 234 292 364 428
#     4  12  25  41  70 103 137 180 234 293 356 435
#     4  10  22  43  67  98 140 183 237 292 357 429
#
# _framework density 9.8379630000000002
#
# number of rings (size 3 to 8) (size 9 to 14) (size 15 to 20)
#    0.000    0.941    2.353    4.588    3.294    2.824 
#    0.000    5.882    0.000    0.000    0.000    0.000 
#    0.000    0.000    0.000    0.000    0.000    0.000 
#
# Total GULP energy -379692.738851 kJ/mol
# GULP energy per Si atom -5583.716748 kJ/mol
# Density = 0.981557 g / cm^3
# Si number density = 9.837963 Si / 1000 Ang^3
#
#
#
# Elastic Constant Matrix: (Units=GPa)
#
#
# Indices 1 2 3 4 5 6 
#
# 1 123.0522 66.3706 58.5589 0.0000 0.0000 0.0000
# 2 66.3706 123.0511 58.5601 0.0000 0.0000 0.0000
# 3 58.5589 58.5601 130.5589 0.0000 0.0000 0.0000
# 4 0.0000 0.0000 0.0000 15.7531 0.0000 0.0000
# 5 0.0000 0.0000 0.0000 0.0000 15.7687 0.0000
# 6 0.0000 0.0000 0.0000 0.0000 0.0000 15.0249
#
#
#
# Elastic Compliance Matrix: (Units=1/GPa)
#
#
# Indices 1 2 3 4 5 6 
#
# 1 0.012474 -0.005169 -0.003276 0.000000 0.000000 0.000000
# 2 -0.005169 0.012474 -0.003277 0.000000 0.000000 0.000000
# 3 -0.003276 -0.003277 0.010599 0.000000 0.000000 0.000000
# 4 0.000000 0.000000 0.000000 0.063480 0.000000 0.000000
# 5 0.000000 0.000000 0.000000 0.000000 0.063417 0.000000
# 6 0.000000 0.000000 0.000000 0.000000 0.000000 0.066556
#
#
# Mechanical properties :
#
#
# Convention : Reuss Voigt Hill
#
# Bulk Modulus (GPa) = 82.62673 82.62682 82.62677
# Shear Modulus (GPa) = 19.49492 22.18750 20.84121
#
# Velocity S-wave (km/s) = 3.15111 3.36169 3.25810
# Velocity P-wave (km/s) = 7.43803 7.55996 7.49924
#
# Compressibility (1/GPa) = 0.01210262
#
# Stress axis : x y z
#
# Youngs Moduli (GPa) = 80.16872 80.16695 94.35184
#
# Poissons Ratio (x) = 0.41436 0.30913
# Poissons Ratio (y) = 0.41437 0.30916
# Poissons Ratio (z) = 0.26266 0.26268
#
# Static dielectric constant tensor:
#      x y z
#    x 1.687030 0.000000 0.000000 
#    y 0.000000 1.687030 0.000000 
#    z 0.000000 0.000000 1.909720 
# 
# From -- ./inp_files/3621.got.cif
#   From: 2010.05.17/outbox.ucp.g08.bks.cvg/sg142_2_cif.got.tgz:3621.got - 2010.06.11 11:43:53.
