data_PCOD9574894
_publ_section_title
;
Structure prediction by ZEFSAII (Michael W. Deem and Ramdas Pophale) SiO2 
 PCOD9574894
Probable space group: P -3
;
_chemical_formula_sum "Si O2"
_cell_formula_units_Z 48
_cell_length_a 12.770068
_cell_length_b 12.770068
_cell_length_c 20.812469
_cell_angle_alpha 90.000000
_cell_angle_beta 90.000000
_cell_angle_gamma 120.000000
_cell_volume 2939.277942
_symmetry_space_group_name_H-M "P -3"
_symmetry_group_IT_number 147
_symmetry_cell_setting 'hexagonal'
loop_
_space_group_symop_operation_xyz
x,y,z
-y,x-y,z
-x+y,-x,z
-x,-y,-z
y,-x+y,-z
x-y,x,-z
loop_
_atom_site_type_symbol
_atom_site_label
_atom_site_fract_x
_atom_site_fract_y
_atom_site_fract_z
Si Si1 0.084472 0.666403 0.437898
Si Si2 0.752911 0.752618 0.073935
Si Si3 0.581931 0.666403 0.437898
Si Si4 0.418444 0.084879 0.807551
Si Si5 0.000293 0.247382 0.926065
Si Si6 0.915121 0.581556 0.807551
Si Si7 0.247965 0.999441 0.314321
Si Si8 0.752035 0.751475 0.685679
O O1 0.214956 0.785044 0.447861
O O2 0.098069 0.549035 0.426919
O O3 0.024416 0.691845 0.376377
O O4 1.000000 0.639875 0.500000
O O5 0.783053 0.891527 0.079275
O O6 0.649774 0.678109 0.125589
O O7 0.872701 0.745402 0.087105
O O8 0.715233 0.715233 0.000000
O O9 0.667429 0.691845 0.376377
O O10 0.350226 0.028335 0.874411
O O11 0.446192 0.223096 0.805421
O O12 0.539877 0.079753 0.801117
O O13 0.326630 0.016785 0.749265
O O14 0.983215 0.673370 0.749265
O O15 0.256310 0.128155 0.316705
O O16 0.108432 0.891568 0.312933
#
# Coordination Sequence:
#
# PCOD9574894 Si02
#       8
#     6   6   6   6   6   6   6   6
#     4  10  20  34  53  76 103 135 169 204 241 285
#     4   9  17  30  50  75 100 126 158 199 246 292
#     4  10  20  34  53  76 103 135 169 204 241 285
#     4  10  20  33  50  71  97 130 166 203 241 286
#     4   9  17  30  50  75 100 126 158 199 246 292
#     4  10  20  33  50  71  97 130 166 203 241 286
#     4  10  20  34  53  76 100 126 159 202 251 297
#     4  10  20  34  53  76 100 126 159 202 251 297
#
# _framework density 16.330542000000001
#
# number of rings (size 3 to 8) (size 9 to 14) (size 15 to 20)
#    0.000    2.250    0.000    3.250    0.000    1.500 
#    0.000    5.000    0.000   14.500    0.000    0.000 
#    0.000    0.000    0.000    0.000    0.000    0.000 
#
# Total GULP energy -267862.474524 kJ/mol
# GULP energy per Si atom -5580.468219 kJ/mol
# Density = 1.629337 g / cm^3
# Si number density = 16.330542 Si / 1000 Ang^3
#
#
#
# Elastic Constant Matrix: (Units=GPa)
#
#
# Indices 1 2 3 4 5 6 
#
# 1 129.4812 92.4236 81.8202 0.9065 0.0000 0.0000
# 2 92.4236 129.4812 81.8202 -0.9065 0.0000 0.0000
# 3 81.8202 81.8202 118.5496 0.0000 0.0000 0.0000
# 4 0.9065 -0.9065 0.0000 20.8571 0.0000 0.0000
# 5 0.0000 0.0000 0.0000 0.0000 20.8571 0.9065
# 6 0.0000 0.0000 0.0000 0.0000 0.9065 18.5288
#
#
#
# Elastic Compliance Matrix: (Units=1/GPa)
#
#
# Indices 1 2 3 4 5 6 
#
# 1 0.018110 -0.008933 -0.006334 -0.001175 0.000000 0.000000
# 2 -0.008933 0.018110 -0.006334 0.001175 0.000000 0.000000
# 3 -0.006334 -0.006334 0.017178 0.000000 0.000000 0.000000
# 4 -0.001175 0.001175 0.000000 0.048047 0.000000 0.000000
# 5 0.000000 0.000000 0.000000 0.000000 0.048047 -0.002351
# 6 0.000000 0.000000 0.000000 0.000000 -0.002351 0.054085
#
#
# Mechanical properties :
#
#
# Convention : Reuss Voigt Hill
#
# Bulk Modulus (GPa) = 98.06651 98.84889 98.45770
# Shear Modulus (GPa) = 19.98571 20.14511 20.06541
#
# Velocity S-wave (km/s) = 3.50212 3.51605 3.50909
# Velocity P-wave (km/s) = 8.74840 8.78322 8.76583
#
# Compressibility (1/GPa) = 0.01019716
#
# Stress axis : x y z
#
# Youngs Moduli (GPa) = 55.21824 55.21824 58.21245
#
# Poissons Ratio (x) = 0.49324 0.36872
# Poissons Ratio (y) = 0.49324 0.36872
# Poissons Ratio (z) = 0.34975 0.34975
#
# Static dielectric constant tensor:
#      x y z
#    x 1.515580 0.000000 0.000000 
#    y 0.000000 1.515580 0.000000 
#    z 0.000000 0.000000 1.546750 
# 
# From -- ./inp_files/1072.got.cif
#   From: 2010.05.17/outbox.cif.g08.bks.cpg/sg147_cif.got.tgz:1072.got - 2010.05.20 13:49:32.
