data_PCOD9574448
_publ_section_title
;
Structure prediction by ZEFSAII (Michael W. Deem and Ramdas Pophale) SiO2 
 PCOD9574448
Probable space group: P 31
;
_chemical_formula_sum "Si O2"
_cell_formula_units_Z 18
_cell_length_a 10.883497
_cell_length_b 10.883497
_cell_length_c 8.243900
_cell_angle_alpha 90.000000
_cell_angle_beta 90.000000
_cell_angle_gamma 120.000000
_cell_volume 845.668727
_symmetry_space_group_name_H-M "P 31"
_symmetry_group_IT_number 144
_symmetry_cell_setting 'hexagonal'
loop_
_space_group_symop_operation_xyz
x,y,z
-y,x-y,1/3+z
-x+y,-x,2/3+z
loop_
_atom_site_type_symbol
_atom_site_label
_atom_site_fract_x
_atom_site_fract_y
_atom_site_fract_z
Si Si1 0.857332 0.340969 0.059870
Si Si2 0.095709 0.018889 0.361177
Si Si3 0.735179 0.123039 0.583821
Si Si4 0.590930 0.473658 0.739432
Si Si5 0.535650 0.919877 0.312139
Si Si6 0.627566 0.723600 0.166818
O O1 0.688896 0.239164 0.043113
O O2 0.901637 0.339659 0.244354
O O3 0.893736 0.501604 0.028445
O O4 0.947850 0.309610 0.931488
O O5 0.233352 0.171292 0.323910
O O6 0.024199 0.025160 0.530952
O O7 0.158677 0.913927 0.392690
O O8 0.832068 0.290111 0.545539
O O9 0.660394 0.045183 0.416619
O O10 0.451654 0.470677 0.803464
O O11 0.572001 0.796646 0.292543
O O12 0.389264 0.881241 0.399274
#
# Coordination Sequence:
#
# PCOD9574448 Si02
#       6
#     3   3   3   3   3   3
#     4  11  23  39  71 106 139 179 235 298 362 415
#     4  12  28  49  73 104 147 194 243 300 370 434
#     4  11  22  44  69 105 135 176 241 300 348 425
#     4  12  21  39  75 104 136 181 236 301 358 407
#     4  11  25  46  69  99 146 186 238 290 358 433
#     4  11  27  47  67 102 143 188 239 289 358 440
#
# _framework density 21.284932000000001
#
# number of rings (size 3 to 8) (size 9 to 14) (size 15 to 20)
#    0.000    0.667    5.000    2.000    4.667    4.000 
#    3.000    0.000    0.000    0.000    0.000    0.000 
#    0.000    0.000    0.000    0.000    0.000    0.000 
#
# Total GULP energy -100650.616730 kJ/mol
# GULP energy per Si atom -5591.700929 kJ/mol
# Density = 2.123649 g / cm^3
# Si number density = 21.284932 Si / 1000 Ang^3
#
#
#
# Elastic Constant Matrix: (Units=GPa)
#
#
# Indices 1 2 3 4 5 6 
#
# 1 72.1143 28.5563 21.3424 1.9975 4.8440 0.0000
# 2 28.5563 72.1143 21.3424 -1.9975 -4.8440 0.0000
# 3 21.3424 21.3424 97.5932 0.0000 0.0000 0.0000
# 4 1.9975 -1.9975 0.0000 29.6630 0.0000 -4.8440
# 5 4.8440 -4.8440 0.0000 0.0000 29.6630 1.9975
# 6 0.0000 0.0000 0.0000 -4.8440 1.9975 21.7790
#
#
#
# Elastic Compliance Matrix: (Units=1/GPa)
#
#
# Indices 1 2 3 4 5 6 
#
# 1 0.017463 -0.006514 -0.002394 -0.001615 -0.003915 0.000000
# 2 -0.006514 0.017463 -0.002394 0.001615 0.003915 0.000000
# 3 -0.002394 -0.002394 0.011294 0.000000 0.000000 0.000000
# 4 -0.001615 0.001615 0.000000 0.035208 0.000000 0.007831
# 5 -0.003915 0.003915 0.000000 0.000000 0.035208 -0.003229
# 6 0.000000 0.000000 0.000000 0.007831 -0.003229 0.047954
#
#
# Mechanical properties :
#
#
# Convention : Reuss Voigt Hill
#
# Bulk Modulus (GPa) = 42.34824 42.70045 42.52435
# Shear Modulus (GPa) = 25.63233 27.59305 26.61269
#
# Velocity S-wave (km/s) = 3.47399 3.60441 3.53980
# Velocity P-wave (km/s) = 6.00255 6.11779 6.06044
#
# Compressibility (1/GPa) = 0.02361373
#
# Stress axis : x y z
#
# Youngs Moduli (GPa) = 57.26492 57.26492 88.54388
#
# Poissons Ratio (x) = 0.37303 0.21200
# Poissons Ratio (y) = 0.37303 0.21200
# Poissons Ratio (z) = 0.13711 0.13711
#
# Static dielectric constant tensor:
#      x y z
#    x 1.750150 0.000000 0.000000 
#    y 0.000000 1.750150 0.000000 
#    z 0.000000 0.000000 1.799590 
# 
# From -- ./inp_files/369.got.cif
#   From: 2010.05.17/outbox.cif.g08.bks.cpg/sg144_cif.got.tgz:369.got - 2010.05.20 13:46:34.
