data_PCOD9574368
_publ_section_title
;
Structure prediction by ZEFSAII (Michael W. Deem and Ramdas Pophale) SiO2 
 PCOD9574368
Probable space group: P 31
;
_chemical_formula_sum "Si O2"
_cell_formula_units_Z 24
_cell_length_a 8.459410
_cell_length_b 8.459410
_cell_length_c 17.023420
_cell_angle_alpha 90.000000
_cell_angle_beta 90.000000
_cell_angle_gamma 120.000000
_cell_volume 1055.012474
_symmetry_space_group_name_H-M "P 31"
_symmetry_group_IT_number 144
_symmetry_cell_setting 'hexagonal'
loop_
_space_group_symop_operation_xyz
x,y,z
-y,x-y,1/3+z
-x+y,-x,2/3+z
loop_
_atom_site_type_symbol
_atom_site_label
_atom_site_fract_x
_atom_site_fract_y
_atom_site_fract_z
Si Si1 0.408100 0.071267 0.848840
Si Si2 0.312381 0.393429 0.147625
Si Si3 0.437676 0.241410 0.271645
Si Si4 0.809163 0.036535 0.321286
Si Si5 0.857083 0.534497 0.305986
Si Si6 0.842622 0.889982 0.032805
Si Si7 0.209919 0.836362 0.516881
Si Si8 0.551606 0.084487 0.126333
O O1 0.325017 0.142026 0.918230
O O2 0.585492 0.080829 0.886756
O O3 0.462138 0.231239 0.786360
O O4 0.270815 0.877082 0.812384
O O5 0.302229 0.297880 0.230894
O O6 0.495173 0.583274 0.161186
O O7 0.328393 0.303939 0.066255
O O8 0.633008 0.410393 0.300352
O O9 0.483609 0.161554 0.194512
O O10 0.313406 0.078106 0.331046
O O11 0.689110 0.845894 0.272631
O O12 0.992328 0.049220 0.352613
O O13 0.925188 0.433374 0.368542
O O14 0.986621 0.750151 0.327160
O O15 0.798620 0.870786 0.125236
O O16 0.106589 0.625833 0.490427
#
# Coordination Sequence:
#
# PCOD9574368 Si02
#       8
#     3   3   3   3   3   3   3   3
#     4  10  22  40  63  92 126 170 214 273 342 398
#     4  12  24  40  68 100 128 172 227 282 346 422
#     4  11  24  40  68 100 131 178 236 281 355 428
#     4  11  22  45  65  89 139 172 219 288 341 419
#     4  10  22  43  64  92 139 173 222 289 348 419
#     4  11  24  43  68  94 136 184 229 281 355 423
#     4  10  25  39  69  98 128 176 229 277 355 417
#     4   9  21  42  63  91 131 175 216 279 350 402
#
# _framework density 22.748546000000001
#
# number of rings (size 3 to 8) (size 9 to 14) (size 15 to 20)
#    0.000    1.500    1.250    3.750    8.750    1.000 
#    0.000    0.000    0.000    0.000    0.000    0.000 
#    0.000    0.000    0.000    0.000    0.000    0.000 
#
# Total GULP energy -133764.950596 kJ/mol
# GULP energy per Si atom -5573.539608 kJ/mol
# Density = 2.269677 g / cm^3
# Si number density = 22.748546 Si / 1000 Ang^3
#
#
#
# Elastic Constant Matrix: (Units=GPa)
#
#
# Indices 1 2 3 4 5 6 
#
# 1 52.2826 7.2569 20.0810 -8.5652 -0.6864 0.0000
# 2 7.2569 52.2826 20.0810 8.5652 0.6864 0.0000
# 3 20.0810 20.0810 89.5148 0.0000 0.0000 0.0000
# 4 -8.5652 8.5652 0.0000 34.4659 0.0000 0.6864
# 5 -0.6864 0.6864 0.0000 0.0000 34.4659 -8.5652
# 6 0.0000 0.0000 0.0000 0.6864 -8.5652 22.5129
#
#
#
# Elastic Compliance Matrix: (Units=1/GPa)
#
#
# Indices 1 2 3 4 5 6 
#
# 1 0.022168 -0.002377 -0.004440 0.006100 0.000489 0.000000
# 2 -0.002377 0.022168 -0.004440 -0.006100 -0.000489 0.000000
# 3 -0.004440 -0.004440 0.013163 0.000000 0.000000 0.000000
# 4 0.006100 -0.006100 0.000000 0.032065 0.000000 -0.000978
# 5 0.000489 -0.000489 0.000000 0.000000 0.032065 0.012200
# 6 0.000000 0.000000 0.000000 -0.000978 0.012200 0.049090
#
#
# Mechanical properties :
#
#
# Convention : Reuss Voigt Hill
#
# Bulk Modulus (GPa) = 28.58334 32.10199 30.34267
# Shear Modulus (GPa) = 24.40277 28.06632 26.23454
#
# Velocity S-wave (km/s) = 3.27879 3.51631 3.39962
# Velocity P-wave (km/s) = 5.18904 5.53427 5.36444
#
# Compressibility (1/GPa) = 0.03498541
#
# Stress axis : x y z
#
# Youngs Moduli (GPa) = 45.11067 45.11067 75.96926
#
# Poissons Ratio (x) = 0.10725 0.33727
# Poissons Ratio (y) = 0.10725 0.33727
# Poissons Ratio (z) = 0.20027 0.20027
#
# Static dielectric constant tensor:
#      x y z
#    x 1.915790 0.000000 0.000000 
#    y 0.000000 1.915790 0.000000 
#    z 0.000000 0.000000 1.844400 
# 
# From -- ./inp_files/822.got.cif
#   From: 2010.05.17/outbox.cif.g08.bks.cpg/sg144_cif.got.tgz:822.got - 2010.05.20 13:46:34.
