data_PCOD9574079
_publ_section_title
;
Structure prediction by ZEFSAII (Michael W. Deem and Ramdas Pophale) SiO2 
 PCOD9574079
Probable space group: I 41/A C D
;
_chemical_formula_sum "Si O2"
_cell_formula_units_Z 176
_cell_length_a 29.788766
_cell_length_b 29.788766
_cell_length_c 11.551222
_cell_angle_alpha 90.000000
_cell_angle_beta 90.000000
_cell_angle_gamma 90.000000
_cell_volume 10250.214564
_symmetry_space_group_name_H-M "I 41/A C D"
_symmetry_group_IT_number 142
_space_group.IT_coordinate_system_code '2'
_symmetry_cell_setting 'tetragonal'
loop_
_space_group_symop_operation_xyz
x,y,z
1/4-y,3/4+x,1/4+z
-x,1/2-y,z
1/4+y,1/4-x,3/4+z
x,-y,1/2-z
1/2-x,y,-z
3/4+y,1/4+x,1/4-z
1/4-y,1/4-x,1/4-z
-x,-y,-z
3/4+y,1/4-x,3/4-z
x,1/2+y,-z
3/4-y,3/4+x,1/4-z
-x,y,1/2+z
1/2+x,-y,z
1/4-y,3/4-x,3/4+z
3/4+y,3/4+x,3/4+z
1/2+x,1/2+y,1/2+z
3/4-y,1/4+x,3/4+z
1/2-x,-y,1/2+z
3/4+y,3/4-x,1/4+z
1/2+x,1/2-y,-z
-x,1/2+y,1/2-z
1/4+y,3/4+x,3/4-z
3/4-y,3/4-x,3/4-z
1/2-x,1/2-y,1/2-z
1/4+y,3/4-x,1/4-z
1/2+x,y,1/2-z
1/4-y,1/4+x,3/4-z
1/2-x,1/2+y,z
x,1/2-y,1/2+z
3/4-y,1/4-x,1/4+z
1/4+y,1/4+x,1/4+z
loop_
_atom_site_type_symbol
_atom_site_label
_atom_site_fract_x
_atom_site_fract_y
_atom_site_fract_z
Si Si1 0.641525 0.926749 0.292768
Si Si2 0.799500 0.617185 0.813637
Si Si3 0.549806 0.954796 0.177310
Si Si4 0.717362 0.000000 0.250000
Si Si5 0.701201 0.653340 0.803795
Si Si6 0.696357 0.298934 0.469603
O O1 0.635244 0.937717 0.429085
O O2 0.594068 0.932697 0.231022
O O3 0.661398 0.878547 0.265726
O O4 0.681953 0.959338 0.254729
O O5 0.825511 0.575511 0.875000
O O6 0.745063 0.621577 0.829055
O O7 0.814139 0.664291 0.871833
O O8 0.501268 0.931821 0.188765
O O9 0.545724 0.000000 0.250000
O O10 0.561954 0.965551 0.044885
O O11 0.744125 0.005876 0.375000
O O12 0.680398 0.680136 0.910853
O O13 0.750000 0.298484 0.500000
#
# Coordination Sequence:
#
# PCOD9574079 Si02
#       6
#    32  32  32  16  32  32
#     4  12  22  37  57  80 114 151 194 236 287 328
#     4  11  21  37  55  81 114 152 193 236 280 328
#     4  11  21  36  57  76 107 151 187 238 286 340
#     4  12  26  42  56  82 116 164 214 240 276 332
#     4  11  22  37  54  80 115 146 191 236 278 340
#     4   9  22  35  54  81 106 143 194 236 288 336
#
# _framework density 17.170372
#
# number of rings (size 3 to 8) (size 9 to 14) (size 15 to 20)
#    0.000    1.091    4.545    2.727    2.545    5.091 
#    0.000    0.000    0.000    0.000    0.000    0.000 
#    0.000    9.455    0.000    0.000    0.000    0.000 
#
# Total GULP energy -490134.895467 kJ/mol
# GULP energy per Si atom -5569.714721 kJ/mol
# Density = 1.713129 g / cm^3
# Si number density = 17.170372 Si / 1000 Ang^3
#
#
#
# Elastic Constant Matrix: (Units=GPa)
#
#
# Indices 1 2 3 4 5 6 
#
# 1 78.4517 30.7658 23.5580 0.0000 0.0000 0.0000
# 2 30.7658 78.4529 23.5596 0.0000 0.0000 0.0000
# 3 23.5580 23.5596 92.0727 0.0000 0.0000 0.0000
# 4 0.0000 0.0000 0.0000 -13.5732 0.0000 0.0000
# 5 0.0000 0.0000 0.0000 0.0000 -13.5697 0.0000
# 6 0.0000 0.0000 0.0000 0.0000 0.0000 13.4296
#
#
#
# Elastic Compliance Matrix: (Units=1/GPa)
#
#
# Indices 1 2 3 4 5 6 
#
# 1 0.015631 -0.005339 -0.002633 0.000000 0.000000 0.000000
# 2 -0.005339 0.015631 -0.002634 0.000000 0.000000 0.000000
# 3 -0.002633 -0.002634 0.012209 0.000000 0.000000 0.000000
# 4 0.000000 0.000000 0.000000 -0.073675 0.000000 0.000000
# 5 0.000000 0.000000 0.000000 0.000000 -0.073693 0.000000
# 6 0.000000 0.000000 0.000000 0.000000 0.000000 0.074462
#
#
# Mechanical properties :
#
#
# Convention : Reuss Voigt Hill
#
# Bulk Modulus (GPa) = 44.92565 44.97155 44.94860
# Shear Modulus (GPa) = -6227.06297 8.66360 -3109.19968
#
# Velocity S-wave (km/s) = -60.28686 2.24869 -42.59958
# Velocity P-wave (km/s) = 69.42468 5.74373 48.92237
#
# Compressibility (1/GPa) = 0.02225900
#
# Stress axis : x y z
#
# Youngs Moduli (GPa) = 63.97449 63.97482 81.90927
#
# Poissons Ratio (x) = 0.34157 0.21569
# Poissons Ratio (y) = 0.34157 0.21572
# Poissons Ratio (z) = 0.16846 0.16849
#
# Static dielectric constant tensor:
#      x y z
#    x 1.617430 0.000000 0.000000 
#    y 0.000000 1.617420 0.000000 
#    z 0.000000 0.000000 1.669510 
# 
# From -- ./inp_files/4110.got.cif
#   From: 2010.05.17/outbox.cif.g08.bks.cpg/sg142_3_cif.got.tgz:4110.got - 2010.05.20 13:39:18.
