data_PCOD9574778
_publ_section_title
;
Structure prediction by ZEFSAII (Michael W. Deem and Ramdas Pophale) SiO2 
 PCOD9574778
Probable space group: R 3
;
_chemical_formula_sum "Si O2"
_cell_formula_units_Z 33
_cell_length_a 8.118680
_cell_length_b 8.118680
_cell_length_c 20.502758
_cell_angle_alpha 90.000000
_cell_angle_beta 90.000000
_cell_angle_gamma 120.000000
_cell_volume 1170.344626
_symmetry_space_group_name_H-M "R 3"
_symmetry_group_IT_number 146
_symmetry_cell_setting 'hexagonal'
loop_
_space_group_symop_operation_xyz
x,y,z
-y,x-y,z
-x+y,-x,z
2/3+x,1/3+y,1/3+z
2/3-y,1/3+x-y,1/3+z
2/3-x+y,1/3-x,1/3+z
1/3+x,2/3+y,2/3+z
1/3-y,2/3+x-y,2/3+z
1/3-x+y,2/3-x,2/3+z
loop_
_atom_site_type_symbol
_atom_site_label
_atom_site_fract_x
_atom_site_fract_y
_atom_site_fract_z
Si Si1 0.701595 0.035169 0.111650
Si Si2 0.143235 0.892685 0.563147
Si Si3 0.971482 0.337990 0.360831
Si Si4 0.000000 0.000000 0.341034
Si Si5 0.666668 0.333335 0.522726
O O1 0.520729 0.991804 0.157223
O O2 0.730253 0.880031 0.067881
O O3 0.412786 0.883260 0.028141
O O4 0.797306 0.213610 0.064151
O O5 0.267827 0.877241 0.621278
O O6 0.913195 0.798328 0.570348
O O7 0.881611 0.468280 0.499373
O O8 0.000000 0.000000 0.265379
#
# Coordination Sequence:
#
# PCOD9574778 Si02
#       5
#     9   9   9   3   3
#     4  10  24  49  78 117 170 223 287 357 430 522
#     4  10  25  46  76 122 168 216 292 343 429 525
#     4  11  27  48  84 120 173 229 284 364 442 515
#     4  12  27  48  84 120 174 222 280 368 436 519
#     4   9  21  45  72 111 153 216 271 350 427 489
#
# _framework density 28.196819999999999
#
# number of rings (size 3 to 8) (size 9 to 14) (size 15 to 20)
#    0.545    1.091    0.000    2.182   11.455    0.000 
#    0.000    0.000    6.000    0.000    0.000    0.000 
#    0.000    0.000    0.000    0.000    0.000    0.000 
#
# Total GULP energy -61319.998957 kJ/mol
# GULP energy per Si atom -5574.545360 kJ/mol
# Density = 2.813264 g / cm^3
# Si number density = 28.196820 Si / 1000 Ang^3
#
#
#
# Elastic Constant Matrix: (Units=GPa)
#
#
# Indices 1 2 3 4 5 6 
#
# 1 121.6666 70.1596 70.8486 -11.9016 6.4587 0.0002
# 2 70.1596 121.6660 70.8489 11.9015 -6.4588 0.0000
# 3 70.8486 70.8489 238.2694 -0.0004 -0.0001 0.0003
# 4 -11.9016 11.9015 -0.0004 39.4586 0.0002 -6.4587
# 5 6.4587 -6.4588 -0.0001 0.0002 39.4585 -11.9016
# 6 0.0002 0.0000 0.0003 -6.4587 -11.9016 25.7536
#
#
#
# Elastic Compliance Matrix: (Units=1/GPa)
#
#
# Indices 1 2 3 4 5 6 
#
# 1 0.015185 -0.008505 -0.001986 0.007145 -0.003878 0.000000
# 2 -0.008505 0.015185 -0.001986 -0.007145 0.003878 0.000000
# 3 -0.001986 -0.001986 0.005378 0.000000 0.000000 0.000000
# 4 0.007145 -0.007145 0.000000 0.030923 0.000000 0.007755
# 5 -0.003878 0.003878 0.000000 0.000000 0.030923 0.014290
# 6 0.000000 0.000000 0.000000 0.007755 0.014290 0.047378
#
#
# Mechanical properties :
#
#
# Convention : Reuss Voigt Hill
#
# Bulk Modulus (GPa) = 92.64925 100.59069 96.61997
# Shear Modulus (GPa) = 28.81441 38.91715 33.86578
#
# Velocity S-wave (km/s) = 3.20019 3.71913 3.46938
# Velocity P-wave (km/s) = 6.82527 7.36169 7.09855
#
# Compressibility (1/GPa) = 0.01079340
#
# Stress axis : x y z
#
# Youngs Moduli (GPa) = 65.85509 65.85448 185.93502
#
# Poissons Ratio (x) = 0.56006 0.36933
# Poissons Ratio (y) = 0.56007 0.36935
# Poissons Ratio (z) = 0.13081 0.13082
#
# Static dielectric constant tensor:
#      x y z
#    x 2.432140 0.000000 0.000000 
#    y 0.000000 2.432150 0.000000 
#    z 0.000000 0.000000 2.238880 
# 
# From -- ./inp_files/1334.got.cif
#   From: 2010.05.17/outbox.cif.g08.bks.cpg/sg146_cif.got.tgz:1334.got - 2010.05.20 13:48:23.
