data_PCOD9574231
_publ_section_title
;
Structure prediction by ZEFSAII (Michael W. Deem and Ramdas Pophale) SiO2 
 PCOD9574231
Probable space group: I 41/A C D
;
_chemical_formula_sum "Si O2"
_cell_formula_units_Z 64
_cell_length_a 23.370173
_cell_length_b 23.370173
_cell_length_c 4.636284
_cell_angle_alpha 90.000000
_cell_angle_beta 90.000000
_cell_angle_gamma 90.000000
_cell_volume 2532.175986
_symmetry_space_group_name_H-M "I 41/A C D"
_symmetry_group_IT_number 142
_space_group.IT_coordinate_system_code '2'
_symmetry_cell_setting 'tetragonal'
loop_
_space_group_symop_operation_xyz
x,y,z
1/4-y,3/4+x,1/4+z
-x,1/2-y,z
1/4+y,1/4-x,3/4+z
x,-y,1/2-z
1/2-x,y,-z
3/4+y,1/4+x,1/4-z
1/4-y,1/4-x,1/4-z
-x,-y,-z
3/4+y,1/4-x,3/4-z
x,1/2+y,-z
3/4-y,3/4+x,1/4-z
-x,y,1/2+z
1/2+x,-y,z
1/4-y,3/4-x,3/4+z
3/4+y,3/4+x,3/4+z
1/2+x,1/2+y,1/2+z
3/4-y,1/4+x,3/4+z
1/2-x,-y,1/2+z
3/4+y,3/4-x,1/4+z
1/2+x,1/2-y,-z
-x,1/2+y,1/2-z
1/4+y,3/4+x,3/4-z
3/4-y,3/4-x,3/4-z
1/2-x,1/2-y,1/2-z
1/4+y,3/4-x,1/4-z
1/2+x,y,1/2-z
1/4-y,1/4+x,3/4-z
1/2-x,1/2+y,z
x,1/2-y,1/2+z
3/4-y,1/4-x,1/4+z
1/4+y,1/4+x,1/4+z
loop_
_atom_site_type_symbol
_atom_site_label
_atom_site_fract_x
_atom_site_fract_y
_atom_site_fract_z
Si Si1 0.788872 0.873905 0.231799
Si Si2 0.960492 0.116123 0.612549
O O1 0.750000 0.852754 0.500000
O O2 0.837454 0.912547 0.375000
O O3 0.750000 0.907562 0.000000
O O4 0.818311 0.827836 0.018406
O O5 0.924950 0.174950 0.625000
O O6 0.979521 0.112597 0.282538
#
# Coordination Sequence:
#
# PCOD9574231 Si02
#       2
#    32  32
#     4  12  26  47  73 105 145 189 242 302 363 434
#     4  12  26  46  72 104 142 184 235 294 355 426
#
# _framework density 25.274706999999999
#
# number of rings (size 3 to 8) (size 9 to 14) (size 15 to 20)
#    0.000    0.000    0.000   12.000    0.000   11.000 
#    0.000    2.500    0.000    0.000    0.000    0.000 
#    0.000    0.000    0.000    0.000    0.000    0.000 
#
# Total GULP energy -178954.944265 kJ/mol
# GULP energy per Si atom -5592.342008 kJ/mol
# Density = 2.521718 g / cm^3
# Si number density = 25.274707 Si / 1000 Ang^3
#
#
#
# Elastic Constant Matrix: (Units=GPa)
#
#
# Indices 1 2 3 4 5 6 
#
# 1 94.8363 30.9674 31.4531 0.0000 0.0000 0.0000
# 2 30.9674 94.8356 31.4511 0.0000 0.0000 0.0000
# 3 31.4531 31.4511 164.5936 0.0000 0.0000 0.0000
# 4 0.0000 0.0000 0.0000 51.4099 0.0000 0.0000
# 5 0.0000 0.0000 0.0000 0.0000 51.4089 0.0000
# 6 0.0000 0.0000 0.0000 0.0000 0.0000 -0.3509
#
#
#
# Elastic Compliance Matrix: (Units=1/GPa)
#
#
# Indices 1 2 3 4 5 6 
#
# 1 0.012223 -0.003434 -0.001680 0.000000 0.000000 0.000000
# 2 -0.003434 0.012223 -0.001679 0.000000 0.000000 0.000000
# 3 -0.001680 -0.001679 0.006717 0.000000 0.000000 0.000000
# 4 0.000000 0.000000 0.000000 0.019452 0.000000 0.000000
# 5 0.000000 0.000000 0.000000 0.000000 0.019452 0.000000
# 6 0.000000 0.000000 0.000000 0.000000 0.000000 -2.849640
#
#
# Mechanical properties :
#
#
# Convention : Reuss Voigt Hill
#
# Bulk Modulus (GPa) = 56.89239 60.22319 58.55779
# Shear Modulus (GPa) = -1.81151 37.85317 18.02083
#
# Velocity S-wave (km/s) = -0.84752 3.87417 2.67310
# Velocity P-wave (km/s) = 4.64766 6.62506 5.72242
#
# Compressibility (1/GPa) = 0.01757704
#
# Stress axis : x y z
#
# Youngs Moduli (GPa) = 81.81358 81.81364 148.86699
#
# Poissons Ratio (x) = 0.28097 0.25002
# Poissons Ratio (y) = 0.28097 0.25000
# Poissons Ratio (z) = 0.13741 0.13739
#
# Static dielectric constant tensor:
#      x y z
#    x 2.006690 0.000000 0.000000 
#    y 0.000000 2.006680 0.000000 
#    z 0.000000 0.000000 1.920020 
# 
# From -- ./inp_files/483.got.cif
#   From: 2010.05.17/outbox.cif.g08.bks.cpg/sg142_1_cif.got.tgz:483.got - 2010.05.20 13:39:18.
