data_PCOD9574010
_publ_section_title
;
Structure prediction by ZEFSAII (Michael W. Deem and Ramdas Pophale) SiO2 
 PCOD9574010
Probable space group: I 41/A C D
;
_chemical_formula_sum "Si O2"
_cell_formula_units_Z 80
_cell_length_a 14.876981
_cell_length_b 14.876981
_cell_length_c 14.953089
_cell_angle_alpha 90.000000
_cell_angle_beta 90.000000
_cell_angle_gamma 90.000000
_cell_volume 3309.485899
_symmetry_space_group_name_H-M "I 41/A C D"
_symmetry_group_IT_number 142
_space_group.IT_coordinate_system_code '2'
_symmetry_cell_setting 'tetragonal'
loop_
_space_group_symop_operation_xyz
x,y,z
1/4-y,3/4+x,1/4+z
-x,1/2-y,z
1/4+y,1/4-x,3/4+z
x,-y,1/2-z
1/2-x,y,-z
3/4+y,1/4+x,1/4-z
1/4-y,1/4-x,1/4-z
-x,-y,-z
3/4+y,1/4-x,3/4-z
x,1/2+y,-z
3/4-y,3/4+x,1/4-z
-x,y,1/2+z
1/2+x,-y,z
1/4-y,3/4-x,3/4+z
3/4+y,3/4+x,3/4+z
1/2+x,1/2+y,1/2+z
3/4-y,1/4+x,3/4+z
1/2-x,-y,1/2+z
3/4+y,3/4-x,1/4+z
1/2+x,1/2-y,-z
-x,1/2+y,1/2-z
1/4+y,3/4+x,3/4-z
3/4-y,3/4-x,3/4-z
1/2-x,1/2-y,1/2-z
1/4+y,3/4-x,1/4-z
1/2+x,y,1/2-z
1/4-y,1/4+x,3/4-z
1/2-x,1/2+y,z
x,1/2-y,1/2+z
3/4-y,1/4-x,1/4+z
1/4+y,1/4+x,1/4+z
loop_
_atom_site_type_symbol
_atom_site_label
_atom_site_fract_x
_atom_site_fract_y
_atom_site_fract_z
Si Si1 0.509049 0.600451 0.257380
Si Si2 0.339838 0.910163 0.625000
Si Si3 0.564245 0.070394 0.048714
O O1 0.547126 0.500000 0.250000
O O2 0.420893 0.602529 0.195879
O O3 0.478991 0.607158 0.360136
O O4 0.592350 0.665483 0.239659
O O5 0.242598 0.897345 0.670239
O O6 0.500000 0.000000 0.000000
#
# Coordination Sequence:
#
# PCOD9574010 Si02
#       3
#    32  16  32
#     4  10  24  43  66  98 133 177 229 283 349 422
#     4  10  24  45  68  98 136 179 230 290 354 427
#     4  11  24  41  67  99 136 183 231 289 352 422
#
# _framework density 24.172939
#
# number of rings (size 3 to 8) (size 9 to 14) (size 15 to 20)
#    0.000    1.600    0.000    2.400    0.000   21.600 
#    0.000    0.000    0.000    0.000    0.000    0.000 
#    0.000    0.000    0.000    0.000    0.000    0.000 
#
# Total GULP energy -223828.557197 kJ/mol
# GULP energy per Si atom -5595.713930 kJ/mol
# Density = 2.411792 g / cm^3
# Si number density = 24.172939 Si / 1000 Ang^3
#
#
#
# Elastic Constant Matrix: (Units=GPa)
#
#
# Indices 1 2 3 4 5 6 
#
# 1 80.5182 39.7228 12.1489 0.0000 0.0000 0.0000
# 2 39.7228 80.5181 12.1477 0.0000 0.0000 0.0000
# 3 12.1489 12.1477 86.8998 0.0000 0.0000 0.0000
# 4 0.0000 0.0000 0.0000 17.7274 0.0000 0.0000
# 5 0.0000 0.0000 0.0000 0.0000 17.7261 0.0000
# 6 0.0000 0.0000 0.0000 0.0000 0.0000 64.1758
#
#
#
# Elastic Compliance Matrix: (Units=1/GPa)
#
#
# Indices 1 2 3 4 5 6 
#
# 1 0.016536 -0.007977 -0.001197 0.000000 0.000000 0.000000
# 2 -0.007977 0.016535 -0.001196 0.000000 0.000000 0.000000
# 3 -0.001197 -0.001196 0.011842 0.000000 0.000000 0.000000
# 4 0.000000 0.000000 0.000000 0.056410 0.000000 0.000000
# 5 0.000000 0.000000 0.000000 0.000000 0.056414 0.000000
# 6 0.000000 0.000000 0.000000 0.000000 0.000000 0.015582
#
#
# Mechanical properties :
#
#
# Convention : Reuss Voigt Hill
#
# Bulk Modulus (GPa) = 41.36834 41.77498 41.57166
# Shear Modulus (GPa) = 24.73819 32.18698 28.46258
#
# Velocity S-wave (km/s) = 3.20251 3.65297 3.43513
# Velocity P-wave (km/s) = 5.55206 5.92550 5.74182
#
# Compressibility (1/GPa) = 0.02417307
#
# Stress axis : x y z
#
# Youngs Moduli (GPa) = 60.47585 60.47600 84.44502
#
# Poissons Ratio (x) = 0.48242 0.10105
# Poissons Ratio (y) = 0.48242 0.10102
# Poissons Ratio (z) = 0.07237 0.07235
#
# Static dielectric constant tensor:
#      x y z
#    x 1.982960 0.000000 0.000000 
#    y 0.000000 1.982960 0.000000 
#    z 0.000000 0.000000 1.978570 
# 
# From -- ./inp_files/8191.got.cif
#   From: 2010.05.17/outbox.cif.g08.bks.cpg/sg142_5_cif.got.tgz:8191.got - 2010.05.20 13:39:18.
