data_PCOD9574049
_publ_section_title
;
Structure prediction by ZEFSAII (Michael W. Deem and Ramdas Pophale) SiO2 
 PCOD9574049
Probable space group: I 41/A C D
;
_chemical_formula_sum "Si O2"
_cell_formula_units_Z 56
_cell_length_a 16.340795
_cell_length_b 16.340795
_cell_length_c 7.268407
_cell_angle_alpha 90.000000
_cell_angle_beta 90.000000
_cell_angle_gamma 90.000000
_cell_volume 1940.821530
_symmetry_space_group_name_H-M "I 41/A C D"
_symmetry_group_IT_number 142
_space_group.IT_coordinate_system_code '2'
_symmetry_cell_setting 'tetragonal'
loop_
_space_group_symop_operation_xyz
x,y,z
1/4-y,3/4+x,1/4+z
-x,1/2-y,z
1/4+y,1/4-x,3/4+z
x,-y,1/2-z
1/2-x,y,-z
3/4+y,1/4+x,1/4-z
1/4-y,1/4-x,1/4-z
-x,-y,-z
3/4+y,1/4-x,3/4-z
x,1/2+y,-z
3/4-y,3/4+x,1/4-z
-x,y,1/2+z
1/2+x,-y,z
1/4-y,3/4-x,3/4+z
3/4+y,3/4+x,3/4+z
1/2+x,1/2+y,1/2+z
3/4-y,1/4+x,3/4+z
1/2-x,-y,1/2+z
3/4+y,3/4-x,1/4+z
1/2+x,1/2-y,-z
-x,1/2+y,1/2-z
1/4+y,3/4+x,3/4-z
3/4-y,3/4-x,3/4-z
1/2-x,1/2-y,1/2-z
1/4+y,3/4-x,1/4-z
1/2+x,y,1/2-z
1/4-y,1/4+x,3/4-z
1/2-x,1/2+y,z
x,1/2-y,1/2+z
3/4-y,1/4-x,1/4+z
1/4+y,1/4+x,1/4+z
loop_
_atom_site_type_symbol
_atom_site_label
_atom_site_fract_x
_atom_site_fract_y
_atom_site_fract_z
Si Si1 0.000000 0.250000 0.375000
Si Si2 0.086191 0.079146 0.374402
Si Si3 0.600663 0.500000 0.250000
O O1 0.037220 0.160833 0.313725
O O2 0.181966 0.100176 0.386237
O O3 0.075143 0.000000 0.250000
O O4 0.063153 0.054150 0.583846
#
# Coordination Sequence:
#
# PCOD9574049 Si02
#       3
#     8  32  16
#     4  12  32  58  90 140 202 246 316 406 470 588
#     4  11  27  57  88 132 184 247 316 394 479 568
#     4  10  26  52  90 128 176 246 322 390 466 570
#
# _framework density 28.853762
#
# number of rings (size 3 to 8) (size 9 to 14) (size 15 to 20)
#    0.000    1.143    0.000    1.714   20.000    6.857 
#   30.857    5.714    0.000    0.000    0.000    0.000 
#    0.000    0.000    0.000    0.000    0.000    0.000 
#
# Total GULP energy -156191.682084 kJ/mol
# GULP energy per Si atom -5578.274360 kJ/mol
# Density = 2.878809 g / cm^3
# Si number density = 28.853762 Si / 1000 Ang^3
#
#
#
# Elastic Constant Matrix: (Units=GPa)
#
#
# Indices 1 2 3 4 5 6 
#
# 1 261.3349 109.5033 65.3656 0.0000 0.0000 0.0000
# 2 109.5033 261.3349 65.3656 0.0000 0.0000 0.0000
# 3 65.3656 65.3656 160.2950 0.0000 0.0000 0.0000
# 4 0.0000 0.0000 0.0000 6.6472 0.0000 0.0000
# 5 0.0000 0.0000 0.0000 0.0000 6.6472 0.0000
# 6 0.0000 0.0000 0.0000 0.0000 0.0000 59.0976
#
#
#
# Elastic Compliance Matrix: (Units=1/GPa)
#
#
# Indices 1 2 3 4 5 6 
#
# 1 0.004868 -0.001718 -0.001284 0.000000 0.000000 0.000000
# 2 -0.001718 0.004868 -0.001284 0.000000 0.000000 0.000000
# 3 -0.001284 -0.001284 0.007286 0.000000 0.000000 0.000000
# 4 0.000000 0.000000 0.000000 0.150440 0.000000 0.000000
# 5 0.000000 0.000000 0.000000 0.000000 0.150440 0.000000
# 6 0.000000 0.000000 0.000000 0.000000 0.000000 0.016921
#
#
# Mechanical properties :
#
#
# Convention : Reuss Voigt Hill
#
# Bulk Modulus (GPa) = 118.37731 129.27044 123.82388
# Shear Modulus (GPa) = 14.44204 43.99376 29.21790
#
# Velocity S-wave (km/s) = 2.23967 3.90900 3.18562
# Velocity P-wave (km/s) = 6.91403 8.07916 7.51920
#
# Compressibility (1/GPa) = 0.00844756
#
# Stress axis : x y z
#
# Youngs Moduli (GPa) = 205.43229 205.43229 137.25171
#
# Poissons Ratio (x) = 0.35303 0.17626
# Poissons Ratio (y) = 0.35303 0.17626
# Poissons Ratio (z) = 0.26383 0.26383
#
# Static dielectric constant tensor:
#      x y z
#    x 2.354940 0.000000 0.000000 
#    y 0.000000 2.354940 0.000000 
#    z 0.000000 0.000000 2.315510 
# 
# From -- ./inp_files/1123.got.cif
#   From: 2010.05.17/outbox.cif.g08.bks.cpg/sg142_1_cif.got.tgz:1123.got - 2010.05.20 13:39:18.
