data_PCOD9574661
_publ_section_title
;
Structure prediction by ZEFSAII (Michael W. Deem and Ramdas Pophale) SiO2 
 PCOD9574661
Probable space group: P 32
;
_chemical_formula_sum "Si O2"
_cell_formula_units_Z 12
_cell_length_a 9.436640
_cell_length_b 9.436640
_cell_length_c 6.642193
_cell_angle_alpha 90.000000
_cell_angle_beta 90.000000
_cell_angle_gamma 120.000000
_cell_volume 512.244020
_symmetry_space_group_name_H-M "P 32"
_symmetry_group_IT_number 145
_symmetry_cell_setting 'hexagonal'
loop_
_space_group_symop_operation_xyz
x,y,z
-y,x-y,2/3+z
-x+y,-x,1/3+z
loop_
_atom_site_type_symbol
_atom_site_label
_atom_site_fract_x
_atom_site_fract_y
_atom_site_fract_z
Si Si1 0.932887 0.484259 0.215830
Si Si2 0.933179 0.166983 0.210372
Si Si3 0.733782 0.884706 0.518151
Si Si4 0.833648 0.266514 0.856943
O O1 0.972003 0.344982 0.289074
O O2 0.804257 0.500226 0.357770
O O3 0.085126 0.666668 0.200325
O O4 0.861095 0.419838 0.991863
O O5 0.862408 0.029303 0.376211
O O6 0.800426 0.133761 0.033658
O O7 0.805575 0.892078 0.742119
O O8 0.694666 0.706313 0.444906
#
# Coordination Sequence:
#
# PCOD9574661 Si02
#       4
#     3   3   3   3
#     4   9  19  41  67 112 143 193 246 297 371 431
#     4   8  21  39  72 108 147 195 235 315 352 451
#     4   9  19  41  67 112 143 193 246 297 371 431
#     4   8  21  39  72 108 147 195 235 315 352 451
#
# _framework density 23.426334000000001
#
# number of rings (size 3 to 8) (size 9 to 14) (size 15 to 20)
#    3.000    0.000    0.000    0.000    0.000    4.000 
#    9.000    0.000    0.000   36.000    0.000    0.000 
#    0.000    0.000    0.000    0.000    0.000    0.000 
#
# Total GULP energy -66884.847018 kJ/mol
# GULP energy per Si atom -5573.737251 kJ/mol
# Density = 2.337301 g / cm^3
# Si number density = 23.426334 Si / 1000 Ang^3
#
#
#
# Elastic Constant Matrix: (Units=GPa)
#
#
# Indices 1 2 3 4 5 6 
#
# 1 152.8810 67.4193 89.4857 14.0235 0.0003 0.0000
# 2 67.4193 152.8810 89.4857 -14.0235 -0.0003 0.0000
# 3 89.4857 89.4857 135.5072 0.0000 0.0000 0.0000
# 4 14.0235 -14.0235 0.0000 56.8782 0.0000 -0.0003
# 5 0.0003 -0.0003 0.0000 0.0000 56.8782 14.0235
# 6 0.0000 0.0000 0.0000 -0.0003 14.0235 42.7308
#
#
#
# Elastic Compliance Matrix: (Units=1/GPa)
#
#
# Indices 1 2 3 4 5 6 
#
# 1 0.011262 -0.001469 -0.006467 -0.003139 0.000000 0.000000
# 2 -0.001469 0.011262 -0.006467 0.003139 0.000000 0.000000
# 3 -0.006467 -0.006467 0.015921 0.000000 0.000000 0.000000
# 4 -0.003139 0.003139 0.000000 0.019129 0.000000 0.000000
# 5 0.000000 0.000000 0.000000 0.000000 0.019129 -0.006278
# 6 0.000000 0.000000 0.000000 0.000000 -0.006278 0.025463
#
#
# Mechanical properties :
#
#
# Convention : Reuss Voigt Hill
#
# Bulk Modulus (GPa) = 103.74672 103.78341 103.76506
# Shear Modulus (GPa) = 37.26154 44.28935 40.77545
#
# Velocity S-wave (km/s) = 3.99254 4.35280 4.17655
# Velocity P-wave (km/s) = 8.10163 8.34630 8.22487
#
# Compressibility (1/GPa) = 0.00963886
#
# Stress axis : x y z
#
# Youngs Moduli (GPa) = 88.79228 88.79228 62.80921
#
# Poissons Ratio (x) = 0.13044 0.40620
# Poissons Ratio (y) = 0.13044 0.40620
# Poissons Ratio (z) = 0.57424 0.57424
#
# Static dielectric constant tensor:
#      x y z
#    x 1.937730 0.000000 0.000000 
#    y 0.000000 1.937730 0.000000 
#    z 0.000000 0.000000 1.941920 
# 
# From -- ./inp_files/225.got.cif
#   From: 2010.05.17/outbox.cif.g08.bks.cpg/sg145_cif.got.tgz:225.got - 2010.05.20 13:47:28.
