data_PCOD9574018
_publ_section_title
;
Structure prediction by ZEFSAII (Michael W. Deem and Ramdas Pophale) SiO2 
 PCOD9574018
Probable space group: I 41/A C D
;
_chemical_formula_sum "Si O2"
_cell_formula_units_Z 160
_cell_length_a 27.704655
_cell_length_b 27.704655
_cell_length_c 9.269083
_cell_angle_alpha 90.000000
_cell_angle_beta 90.000000
_cell_angle_gamma 90.000000
_cell_volume 7114.465272
_symmetry_space_group_name_H-M "I 41/A C D"
_symmetry_group_IT_number 142
_space_group.IT_coordinate_system_code '2'
_symmetry_cell_setting 'tetragonal'
loop_
_space_group_symop_operation_xyz
x,y,z
1/4-y,3/4+x,1/4+z
-x,1/2-y,z
1/4+y,1/4-x,3/4+z
x,-y,1/2-z
1/2-x,y,-z
3/4+y,1/4+x,1/4-z
1/4-y,1/4-x,1/4-z
-x,-y,-z
3/4+y,1/4-x,3/4-z
x,1/2+y,-z
3/4-y,3/4+x,1/4-z
-x,y,1/2+z
1/2+x,-y,z
1/4-y,3/4-x,3/4+z
3/4+y,3/4+x,3/4+z
1/2+x,1/2+y,1/2+z
3/4-y,1/4+x,3/4+z
1/2-x,-y,1/2+z
3/4+y,3/4-x,1/4+z
1/2+x,1/2-y,-z
-x,1/2+y,1/2-z
1/4+y,3/4+x,3/4-z
3/4-y,3/4-x,3/4-z
1/2-x,1/2-y,1/2-z
1/4+y,3/4-x,1/4-z
1/2+x,y,1/2-z
1/4-y,1/4+x,3/4-z
1/2-x,1/2+y,z
x,1/2-y,1/2+z
3/4-y,1/4-x,1/4+z
1/4+y,1/4+x,1/4+z
loop_
_atom_site_type_symbol
_atom_site_label
_atom_site_fract_x
_atom_site_fract_y
_atom_site_fract_z
Si Si1 0.263950 0.305228 0.713987
Si Si2 0.627103 0.622898 0.625000
Si Si3 0.647117 0.457690 0.078723
Si Si4 0.850667 0.783323 0.029334
Si Si5 0.440867 0.887548 0.093472
Si Si6 0.696293 0.446293 0.375000
O O1 0.250000 0.250000 0.750000
O O2 0.224935 0.345986 0.756463
O O3 0.294983 0.298246 0.565794
O O4 0.306910 0.322047 0.819852
O O5 0.655450 0.598420 0.757143
O O6 0.571184 0.616690 0.659668
O O7 0.657041 0.446551 0.247096
O O8 0.685426 0.501310 0.051396
O O9 0.860397 0.730925 0.966812
O O10 0.875944 0.788509 0.184723
O O11 0.397445 0.852555 0.125000
#
# Coordination Sequence:
#
# PCOD9574018 Si02
#       6
#    32  16  32  32  32  16
#     4  10  24  44  73 111 146 197 259 330 389 477
#     4  12  26  47  71 102 152 208 255 336 375 490
#     4  11  25  45  70 101 158 197 274 308 409 476
#     4  10  26  46  75 109 148 195 263 313 416 455
#     4  10  25  46  77 107 150 193 250 332 403 483
#     4  10  26  43  66 110 140 220 248 332 387 498
#
# _framework density 22.489393
#
# number of rings (size 3 to 8) (size 9 to 14) (size 15 to 20)
#    1.200    0.400    0.000    2.400    4.200   13.600 
#    0.000    0.500    0.000    0.000    0.000    0.000 
#    0.000    0.000    0.000    0.000    0.000    0.000 
#
# Total GULP energy -445370.499370 kJ/mol
# GULP energy per Si atom -5567.131242 kJ/mol
# Density = 2.243821 g / cm^3
# Si number density = 22.489393 Si / 1000 Ang^3
#
#
#
# Elastic Constant Matrix: (Units=GPa)
#
#
# Indices 1 2 3 4 5 6 
#
# 1 53.1503 65.9066 15.6146 0.0000 0.0000 0.0000
# 2 65.9066 53.1542 15.6091 0.0000 0.0000 0.0000
# 3 15.6146 15.6091 64.0403 0.0000 0.0000 0.0000
# 4 0.0000 0.0000 0.0000 31.1652 0.0000 0.0000
# 5 0.0000 0.0000 0.0000 0.0000 31.1685 0.0000
# 6 0.0000 0.0000 0.0000 0.0000 0.0000 39.2260
#
#
#
# Elastic Compliance Matrix: (Units=1/GPa)
#
#
# Indices 1 2 3 4 5 6 
#
# 1 -0.034718 0.043689 -0.002184 0.000000 0.000000 0.000000
# 2 0.043689 -0.034714 -0.002191 0.000000 0.000000 0.000000
# 3 -0.002184 -0.002191 0.016682 0.000000 0.000000 0.000000
# 4 0.000000 0.000000 0.000000 0.032087 0.000000 0.000000
# 5 0.000000 0.000000 0.000000 0.000000 0.032084 0.000000
# 6 0.000000 0.000000 0.000000 0.000000 0.000000 0.025493
#
#
# Mechanical properties :
#
#
# Convention : Reuss Voigt Hill
#
# Bulk Modulus (GPa) = 38.64330 40.51174 39.57752
# Shear Modulus (GPa) = -151.11172 25.19291 -62.95941
#
# Velocity S-wave (km/s) = -8.20599 3.35059 -5.29678
# Velocity P-wave (km/s) = 8.51846 5.74643 4.44650
#
# Compressibility (1/GPa) = 0.02587771
#
# Stress axis : x y z
#
# Youngs Moduli (GPa) = -28.80332 -28.80715 59.94606
#
# Poissons Ratio (x) = 1.25855 0.13089
# Poissons Ratio (y) = 1.25838 0.13136
# Poissons Ratio (z) = -0.06289 -0.06313
#
# Static dielectric constant tensor:
#      x y z
#    x 1.786780 0.000000 0.000000 
#    y 0.000000 1.786870 0.000000 
#    z 0.000000 0.000000 1.929450 
# 
# From -- ./inp_files/3888.got.cif
#   From: 2010.05.17/outbox.cif.g08.bks.cpg/sg142_2_cif.got.tgz:3888.got - 2010.05.20 13:39:18.
