data_PCOD9574333
_publ_section_title
;
Structure prediction by ZEFSAII (Michael W. Deem and Ramdas Pophale) SiO2 
 PCOD9574333
Probable space group: P 31
;
_chemical_formula_sum "Si O2"
_cell_formula_units_Z 24
_cell_length_a 7.721141
_cell_length_b 7.721141
_cell_length_c 19.221175
_cell_angle_alpha 90.000000
_cell_angle_beta 90.000000
_cell_angle_gamma 120.000000
_cell_volume 992.369782
_symmetry_space_group_name_H-M "P 31"
_symmetry_group_IT_number 144
_symmetry_cell_setting 'hexagonal'
loop_
_space_group_symop_operation_xyz
x,y,z
-y,x-y,1/3+z
-x+y,-x,2/3+z
loop_
_atom_site_type_symbol
_atom_site_label
_atom_site_fract_x
_atom_site_fract_y
_atom_site_fract_z
Si Si1 0.585073 0.080648 0.061850
Si Si2 0.133404 0.485369 0.779096
Si Si3 0.847111 0.181653 0.672201
Si Si4 0.213916 0.750218 0.591352
Si Si5 0.890143 0.840164 0.347577
Si Si6 0.153059 0.233419 0.154874
Si Si7 0.609438 0.763689 0.639474
Si Si8 0.857448 0.339245 0.534239
O O1 0.526937 0.852118 0.084597
O O2 0.620410 0.205126 0.132593
O O3 0.400638 0.038086 0.013156
O O4 0.779642 0.168697 0.014796
O O5 0.104157 0.408819 0.858266
O O6 0.155113 0.702548 0.787534
O O7 0.945825 0.349092 0.730243
O O8 0.755251 0.240415 0.607371
O O9 0.031336 0.144404 0.650488
O O10 0.687762 0.955469 0.690040
O O11 0.384737 0.712120 0.622689
O O12 0.048556 0.536886 0.562625
O O13 0.131301 0.854763 0.642625
O O14 0.893369 0.883824 0.430309
O O15 0.095274 0.278605 0.231006
O O16 0.281639 0.124817 0.168117
#
# Coordination Sequence:
#
# PCOD9574333 Si02
#       8
#     3   3   3   3   3   3   3   3
#     4  10  21  38  59  85 118 159 204 251 306 374
#     4   9  20  39  60  84 119 157 199 248 306 368
#     4  10  21  37  60  86 117 157 201 252 308 373
#     4  10  21  39  61  86 119 158 197 246 303 370
#     4  11  22  38  62  90 120 158 209 257 308 369
#     4  10  21  38  59  87 122 160 203 259 315 371
#     4  10  21  38  57  83 118 157 199 247 309 369
#     4  10  21  37  60  87 119 156 198 248 309 366
#
# _framework density 24.184533999999999
#
# number of rings (size 3 to 8) (size 9 to 14) (size 15 to 20)
#    0.000    2.000    0.000    3.750    0.000    8.000 
#    0.000   11.250    0.000    0.000    0.000    0.000 
#    0.000    0.000    0.000    0.000    0.000    0.000 
#
# Total GULP energy -133914.549174 kJ/mol
# GULP energy per Si atom -5579.772882 kJ/mol
# Density = 2.412949 g / cm^3
# Si number density = 24.184534 Si / 1000 Ang^3
#
#
#
# Elastic Constant Matrix: (Units=GPa)
#
#
# Indices 1 2 3 4 5 6 
#
# 1 58.1316 15.5303 26.0318 3.0272 -5.8727 0.0000
# 2 15.5303 58.1316 26.0318 -3.0272 5.8727 0.0000
# 3 26.0318 26.0318 87.1851 0.0000 0.0000 0.0000
# 4 3.0272 -3.0272 0.0000 30.5652 0.0000 5.8727
# 5 -5.8727 5.8727 0.0000 0.0000 30.5652 3.0272
# 6 0.0000 0.0000 0.0000 5.8727 3.0272 21.3006
#
#
#
# Elastic Compliance Matrix: (Units=1/GPa)
#
#
# Indices 1 2 3 4 5 6 
#
# 1 0.021184 -0.003977 -0.005138 -0.002492 0.004834 0.000000
# 2 -0.003977 0.021184 -0.005138 0.002492 -0.004834 0.000000
# 3 -0.005138 -0.005138 0.014538 0.000000 0.000000 0.000000
# 4 -0.002492 0.002492 0.000000 0.035068 0.000000 -0.009668
# 5 0.004834 -0.004834 0.000000 0.000000 0.035068 -0.004984
# 6 0.000000 0.000000 0.000000 -0.009668 -0.004984 0.050321
#
#
# Mechanical properties :
#
#
# Convention : Reuss Voigt Hill
#
# Bulk Modulus (GPa) = 35.21012 37.62624 36.41818
# Shear Modulus (GPa) = 23.21978 25.54315 24.38147
#
# Velocity S-wave (km/s) = 3.10192 3.25341 3.17857
# Velocity P-wave (km/s) = 5.23639 5.45020 5.34436
#
# Compressibility (1/GPa) = 0.02840092
#
# Stress axis : x y z
#
# Youngs Moduli (GPa) = 47.20629 47.20629 68.78596
#
# Poissons Ratio (x) = 0.18773 0.35340
# Poissons Ratio (y) = 0.18773 0.35340
# Poissons Ratio (z) = 0.24253 0.24253
#
# Static dielectric constant tensor:
#      x y z
#    x 1.950090 0.000000 0.000000 
#    y 0.000000 1.950090 0.000000 
#    z 0.000000 0.000000 1.962130 
# 
# From -- ./inp_files/960.got.cif
#   From: 2010.05.17/outbox.cif.g08.bks.cpg/sg144_cif.got.tgz:960.got - 2010.05.20 13:46:34.
