data_PCOD9574209
_publ_section_title
;
Structure prediction by ZEFSAII (Michael W. Deem and Ramdas Pophale) SiO2 
 PCOD9574209
Probable space group: I 41/A C D
;
_chemical_formula_sum "Si O2"
_cell_formula_units_Z 160
_cell_length_a 20.821023
_cell_length_b 20.821023
_cell_length_c 16.990064
_cell_angle_alpha 90.000000
_cell_angle_beta 90.000000
_cell_angle_gamma 90.000000
_cell_volume 7365.447574
_symmetry_space_group_name_H-M "I 41/A C D"
_symmetry_group_IT_number 142
_space_group.IT_coordinate_system_code '2'
_symmetry_cell_setting 'tetragonal'
loop_
_space_group_symop_operation_xyz
x,y,z
1/4-y,3/4+x,1/4+z
-x,1/2-y,z
1/4+y,1/4-x,3/4+z
x,-y,1/2-z
1/2-x,y,-z
3/4+y,1/4+x,1/4-z
1/4-y,1/4-x,1/4-z
-x,-y,-z
3/4+y,1/4-x,3/4-z
x,1/2+y,-z
3/4-y,3/4+x,1/4-z
-x,y,1/2+z
1/2+x,-y,z
1/4-y,3/4-x,3/4+z
3/4+y,3/4+x,3/4+z
1/2+x,1/2+y,1/2+z
3/4-y,1/4+x,3/4+z
1/2-x,-y,1/2+z
3/4+y,3/4-x,1/4+z
1/2+x,1/2-y,-z
-x,1/2+y,1/2-z
1/4+y,3/4+x,3/4-z
3/4-y,3/4-x,3/4-z
1/2-x,1/2-y,1/2-z
1/4+y,3/4-x,1/4-z
1/2+x,y,1/2-z
1/4-y,1/4+x,3/4-z
1/2-x,1/2+y,z
x,1/2-y,1/2+z
3/4-y,1/4-x,1/4+z
1/4+y,1/4+x,1/4+z
loop_
_atom_site_type_symbol
_atom_site_label
_atom_site_fract_x
_atom_site_fract_y
_atom_site_fract_z
Si Si1 0.003734 0.507153 0.404554
Si Si2 0.914683 0.822286 0.021853
Si Si3 0.125149 0.955023 0.322976
Si Si4 0.934542 0.885998 0.181902
Si Si5 0.108045 0.200773 0.693356
O O1 0.931391 0.512340 0.372931
O O2 0.000000 0.500000 0.500000
O O3 0.039792 0.455080 0.348925
O O4 0.037876 0.575560 0.397942
O O5 0.903146 0.857747 0.103836
O O6 0.903701 0.748137 0.042108
O O7 0.861940 0.845931 0.960085
O O8 0.985866 0.841869 0.994020
O O9 0.185687 0.935687 0.375000
O O10 0.141159 0.000000 0.250000
O O11 0.888792 0.863605 0.253307
O O12 0.056161 0.193840 0.625000
#
# Coordination Sequence:
#
# PCOD9574209 Si02
#       5
#    32  32  32  32  32
#     4  12  24  46  69 102 147 197 242 299 385 458
#     4  12  23  41  69 107 143 186 235 304 383 441
#     4  12  25  44  76 110 143 198 260 308 369 460
#     4  12  24  42  69 104 145 193 237 305 380 446
#     4  12  27  41  67 110 149 184 241 315 379 453
#
# _framework density 21.723051999999999
#
# number of rings (size 3 to 8) (size 9 to 14) (size 15 to 20)
#    0.000    0.000    8.000    1.800    0.000    2.400 
#    0.000    0.000    0.000    4.800    0.000    0.000 
#    0.000    0.000    0.000    0.000    0.000    0.000 
#
# Total GULP energy -447025.248036 kJ/mol
# GULP energy per Si atom -5587.815600 kJ/mol
# Density = 2.167361 g / cm^3
# Si number density = 21.723052 Si / 1000 Ang^3
#
#
#
# Elastic Constant Matrix: (Units=GPa)
#
#
# Indices 1 2 3 4 5 6 
#
# 1 74.7277 48.3079 36.9430 0.0000 0.0000 0.0000
# 2 48.3079 74.7264 36.9438 0.0000 0.0000 0.0000
# 3 36.9430 36.9438 129.1103 0.0000 0.0000 0.0000
# 4 0.0000 0.0000 0.0000 42.7283 0.0000 0.0000
# 5 0.0000 0.0000 0.0000 0.0000 42.7292 0.0000
# 6 0.0000 0.0000 0.0000 0.0000 0.0000 23.5137
#
#
#
# Elastic Compliance Matrix: (Units=1/GPa)
#
#
# Indices 1 2 3 4 5 6 
#
# 1 0.023832 -0.014019 -0.002808 0.000000 0.000000 0.000000
# 2 -0.014019 0.023833 -0.002808 0.000000 0.000000 0.000000
# 3 -0.002808 -0.002808 0.009352 0.000000 0.000000 0.000000
# 4 0.000000 0.000000 0.000000 0.023404 0.000000 0.000000
# 5 0.000000 0.000000 0.000000 0.000000 0.023403 0.000000
# 6 0.000000 0.000000 0.000000 0.000000 0.000000 0.042528
#
#
# Mechanical properties :
#
#
# Convention : Reuss Voigt Hill
#
# Bulk Modulus (GPa) = 56.34463 58.10599 57.22531
# Shear Modulus (GPa) = 26.10432 32.21890 29.16161
#
# Velocity S-wave (km/s) = 3.47030 3.85537 3.66789
# Velocity P-wave (km/s) = 6.48470 6.82826 6.65869
#
# Compressibility (1/GPa) = 0.01774792
#
# Stress axis : x y z
#
# Youngs Moduli (GPa) = 41.95960 41.95839 106.92450
#
# Poissons Ratio (x) = 0.58820 0.30024
# Poissons Ratio (y) = 0.58821 0.30029
# Poissons Ratio (z) = 0.11782 0.11784
#
# Static dielectric constant tensor:
#      x y z
#    x 1.844540 0.000000 0.000000 
#    y 0.000000 1.844540 0.000000 
#    z 0.000000 0.000000 2.069490 
# 
# From -- ./inp_files/7375.got.cif
#   From: 2010.05.17/outbox.cif.g08.bks.cpg/sg142_4_cif.got.tgz:7375.got - 2010.05.20 13:39:18.
