data_PCOD9574178
_publ_section_title
;
Structure prediction by ZEFSAII (Michael W. Deem and Ramdas Pophale) SiO2 
 PCOD9574178
Probable space group: I 41/A C D
;
_chemical_formula_sum "Si O2"
_cell_formula_units_Z 96
_cell_length_a 14.222531
_cell_length_b 14.222531
_cell_length_c 18.520634
_cell_angle_alpha 90.000000
_cell_angle_beta 90.000000
_cell_angle_gamma 90.000000
_cell_volume 3746.361032
_symmetry_space_group_name_H-M "I 41/A C D"
_symmetry_group_IT_number 142
_space_group.IT_coordinate_system_code '2'
_symmetry_cell_setting 'tetragonal'
loop_
_space_group_symop_operation_xyz
x,y,z
1/4-y,3/4+x,1/4+z
-x,1/2-y,z
1/4+y,1/4-x,3/4+z
x,-y,1/2-z
1/2-x,y,-z
3/4+y,1/4+x,1/4-z
1/4-y,1/4-x,1/4-z
-x,-y,-z
3/4+y,1/4-x,3/4-z
x,1/2+y,-z
3/4-y,3/4+x,1/4-z
-x,y,1/2+z
1/2+x,-y,z
1/4-y,3/4-x,3/4+z
3/4+y,3/4+x,3/4+z
1/2+x,1/2+y,1/2+z
3/4-y,1/4+x,3/4+z
1/2-x,-y,1/2+z
3/4+y,3/4-x,1/4+z
1/2+x,1/2-y,-z
-x,1/2+y,1/2-z
1/4+y,3/4+x,3/4-z
3/4-y,3/4-x,3/4-z
1/2-x,1/2-y,1/2-z
1/4+y,3/4-x,1/4-z
1/2+x,y,1/2-z
1/4-y,1/4+x,3/4-z
1/2-x,1/2+y,z
x,1/2-y,1/2+z
3/4-y,1/4-x,1/4+z
1/4+y,1/4+x,1/4+z
loop_
_atom_site_type_symbol
_atom_site_label
_atom_site_fract_x
_atom_site_fract_y
_atom_site_fract_z
Si Si1 0.910352 0.307662 0.741553
Si Si2 0.818982 0.589419 0.624439
Si Si3 0.787726 0.739699 0.881684
O O1 0.846945 0.359152 0.800634
O O2 0.945281 0.392873 0.690385
O O3 0.853456 0.238671 0.687396
O O4 0.000000 0.250000 0.771309
O O5 0.741985 0.508016 0.625000
O O6 0.913965 0.537658 0.602486
O O7 0.770165 0.675365 0.584275
#
# Coordination Sequence:
#
# PCOD9574178 Si02
#       3
#    32  32  32
#     4  11  24  49  76 107 151 209 261 324 392 459
#     4  12  26  47  73 112 153 199 262 316 392 453
#     4  11  25  45  75 109 153 201 261 324 388 465
#
# _framework density 25.624866000000001
#
# number of rings (size 3 to 8) (size 9 to 14) (size 15 to 20)
#    0.000    0.667    3.333    6.000    4.667    0.000 
#    6.000    0.000    0.000    0.000    0.000    0.000 
#    0.000    0.000    0.000    0.000    0.000    0.000 
#
# Total GULP energy -268735.503116 kJ/mol
# GULP energy per Si atom -5598.656315 kJ/mol
# Density = 2.556654 g / cm^3
# Si number density = 25.624866 Si / 1000 Ang^3
#
#
#
# Elastic Constant Matrix: (Units=GPa)
#
#
# Indices 1 2 3 4 5 6 
#
# 1 143.2685 53.4997 11.7475 0.0000 0.0000 0.0000
# 2 53.4997 143.2722 11.7500 0.0000 0.0000 0.0000
# 3 11.7475 11.7500 98.9234 0.0000 0.0000 0.0000
# 4 0.0000 0.0000 0.0000 25.3519 0.0000 0.0000
# 5 0.0000 0.0000 0.0000 0.0000 25.3542 0.0000
# 6 0.0000 0.0000 0.0000 0.0000 0.0000 64.8645
#
#
#
# Elastic Compliance Matrix: (Units=1/GPa)
#
#
# Indices 1 2 3 4 5 6 
#
# 1 0.008147 -0.002992 -0.000612 0.000000 0.000000 0.000000
# 2 -0.002992 0.008147 -0.000612 0.000000 0.000000 0.000000
# 3 -0.000612 -0.000612 0.010254 0.000000 0.000000 0.000000
# 4 0.000000 0.000000 0.000000 0.039445 0.000000 0.000000
# 5 0.000000 0.000000 0.000000 0.000000 0.039441 0.000000
# 6 0.000000 0.000000 0.000000 0.000000 0.000000 0.015417
#
#
# Mechanical properties :
#
#
# Convention : Reuss Voigt Hill
#
# Bulk Modulus (GPa) = 55.20107 59.93984 57.57045
# Shear Modulus (GPa) = 36.94849 43.67860 40.31354
#
# Velocity S-wave (km/s) = 3.80136 4.13309 3.97069
# Velocity P-wave (km/s) = 6.39186 6.79843 6.59827
#
# Compressibility (1/GPa) = 0.01811559
#
# Stress axis : x y z
#
# Youngs Moduli (GPa) = 122.73805 122.74073 97.52044
#
# Poissons Ratio (x) = 0.36726 0.05970
# Poissons Ratio (y) = 0.36725 0.05972
# Poissons Ratio (z) = 0.07513 0.07517
#
# Static dielectric constant tensor:
#      x y z
#    x 2.045470 0.000000 0.000000 
#    y 0.000000 2.045460 0.000000 
#    z 0.000000 0.000000 2.026470 
# 
# From -- ./inp_files/8344.got.cif
#   From: 2010.05.17/outbox.cif.g08.bks.cpg/sg142_5_cif.got.tgz:8344.got - 2010.05.20 13:39:18.
