data_PCOD9574685
_publ_section_title
;
Structure prediction by ZEFSAII (Michael W. Deem and Ramdas Pophale) SiO2 
 PCOD9574685
Probable space group: R 3
;
_chemical_formula_sum "Si O2"
_cell_formula_units_Z 51
_cell_length_a 11.217016
_cell_length_b 11.217016
_cell_length_c 21.566774
_cell_angle_alpha 90.000000
_cell_angle_beta 90.000000
_cell_angle_gamma 120.000000
_cell_volume 2350.014261
_symmetry_space_group_name_H-M "R 3"
_symmetry_group_IT_number 146
_symmetry_cell_setting 'hexagonal'
loop_
_space_group_symop_operation_xyz
x,y,z
-y,x-y,z
-x+y,-x,z
2/3+x,1/3+y,1/3+z
2/3-y,1/3+x-y,1/3+z
2/3-x+y,1/3-x,1/3+z
1/3+x,2/3+y,2/3+z
1/3-y,2/3+x-y,2/3+z
1/3-x+y,2/3-x,2/3+z
loop_
_atom_site_type_symbol
_atom_site_label
_atom_site_fract_x
_atom_site_fract_y
_atom_site_fract_z
Si Si1 0.000000 0.000000 0.005756
Si Si2 0.628716 0.055594 0.343756
Si Si3 0.000000 0.000000 0.156332
Si Si4 0.914990 0.592185 0.889665
Si Si5 0.314617 0.173087 0.151820
Si Si6 0.911390 0.822657 0.361681
Si Si7 0.770783 0.751445 0.495450
O O1 0.000000 0.000000 0.081080
O O2 0.157758 0.091576 0.988207
O O3 0.578005 0.018884 0.414760
O O4 0.793532 0.116820 0.337380
O O5 0.560031 0.932782 0.295680
O O6 0.156806 0.087787 0.174904
O O7 0.961798 0.481684 0.874386
O O8 0.774398 0.551499 0.854500
O O9 0.028032 0.741950 0.862719
O O10 0.357096 0.055482 0.152478
O O11 0.858463 0.784860 0.432302
O O12 0.853015 0.925759 0.346951
#
# Coordination Sequence:
#
# PCOD9574685 Si02
#       7
#     3   9   3   9   9   9   9
#     4   9  21  39  63  87 141 180 213 265 356 400
#     4  11  23  42  66 104 135 175 234 285 348 414
#     4   9  15  39  72  96 117 174 228 280 320 394
#     4  12  26  43  70 104 135 183 234 285 362 408
#     4  11  22  43  69  98 133 182 231 284 342 418
#     4  10  19  40  72  95 128 181 234 273 338 407
#     4  12  22  46  72  92 141 183 228 286 342 429
#
# _framework density 21.701998
#
# number of rings (size 3 to 8) (size 9 to 14) (size 15 to 20)
#    0.353    0.706    5.294    2.471    2.471    1.412 
#    7.412    0.000    0.000    0.000    0.000    0.000 
#    0.000    0.000    0.000    0.000    0.000    0.000 
#
# Total GULP energy -94735.569643 kJ/mol
# GULP energy per Si atom -5572.680567 kJ/mol
# Density = 2.165260 g / cm^3
# Si number density = 21.701998 Si / 1000 Ang^3
#
#
#
# Elastic Constant Matrix: (Units=GPa)
#
#
# Indices 1 2 3 4 5 6 
#
# 1 73.9123 4.9742 17.6859 6.0508 7.1414 0.0000
# 2 4.9742 73.9123 17.6859 -6.0508 -7.1414 0.0000
# 3 17.6859 17.6859 51.0195 0.0000 0.0000 0.0000
# 4 6.0508 -6.0508 0.0000 5.9963 0.0000 -7.1414
# 5 7.1414 -7.1414 0.0000 0.0000 5.9963 6.0508
# 6 0.0000 0.0000 0.0000 -7.1414 6.0508 34.4690
#
#
#
# Elastic Compliance Matrix: (Units=1/GPa)
#
#
# Indices 1 2 3 4 5 6 
#
# 1 0.020094 -0.005084 -0.005203 -0.025407 -0.029986 0.000000
# 2 -0.005084 0.020094 -0.005203 0.025407 0.029986 0.000000
# 3 -0.005203 -0.005203 0.023208 0.000000 0.000000 0.000000
# 4 -0.025407 0.025407 0.000000 0.289467 0.000000 0.059973
# 5 -0.029986 0.029986 0.000000 0.000000 0.289467 -0.050814
# 6 0.000000 0.000000 0.000000 0.059973 -0.050814 0.050357
#
#
# Mechanical properties :
#
#
# Convention : Reuss Voigt Hill
#
# Bulk Modulus (GPa) = 30.85049 31.05955 30.95502
# Shear Modulus (GPa) = 6.80761 19.85889 13.33325
#
# Velocity S-wave (km/s) = 1.77304 3.02830 2.48136
# Velocity P-wave (km/s) = 4.29394 5.15464 4.74385
#
# Compressibility (1/GPa) = 0.03241440
#
# Stress axis : x y z
#
# Youngs Moduli (GPa) = 49.76639 49.76639 43.08935
#
# Poissons Ratio (x) = 0.25304 0.22419
# Poissons Ratio (y) = 0.25304 0.22419
# Poissons Ratio (z) = 0.25893 0.25893
#
# Static dielectric constant tensor:
#      x y z
#    x 1.805270 0.000000 0.000000 
#    y 0.000000 1.805270 0.000000 
#    z 0.000000 0.000000 1.808700 
# 
# From -- ./inp_files/1987.got.cif
#   From: 2010.05.17/outbox.cif.g08.bks.cpg/sg146_cif.got.tgz:1987.got - 2010.05.20 13:48:23.
