data_PCOD9574847
_publ_section_title
;
Structure prediction by ZEFSAII (Michael W. Deem and Ramdas Pophale) SiO2 
 PCOD9574847
Probable space group: P -3
;
_chemical_formula_sum "Si O2"
_cell_formula_units_Z 42
_cell_length_a 19.319427
_cell_length_b 19.319427
_cell_length_c 6.393061
_cell_angle_alpha 90.000000
_cell_angle_beta 90.000000
_cell_angle_gamma 120.000000
_cell_volume 2066.464566
_symmetry_space_group_name_H-M "P -3"
_symmetry_group_IT_number 147
_symmetry_cell_setting 'hexagonal'
loop_
_space_group_symop_operation_xyz
x,y,z
-y,x-y,z
-x+y,-x,z
-x,-y,-z
y,-x+y,-z
x-y,x,-z
loop_
_atom_site_type_symbol
_atom_site_label
_atom_site_fract_x
_atom_site_fract_y
_atom_site_fract_z
Si Si1 0.385493 0.831554 0.543434
Si Si2 0.983116 0.554468 0.222440
Si Si3 0.433997 0.335024 0.842939
Si Si4 0.719787 0.035064 0.496783
Si Si5 0.168702 0.669245 0.252843
Si Si6 0.239890 0.757641 0.855287
Si Si7 0.644777 0.856878 0.522509
O O1 0.443084 0.917178 0.659297
O O2 0.348008 0.853047 0.344431
O O3 0.434473 0.794308 0.435846
O O4 0.315424 0.777823 0.706066
O O5 0.967261 0.621249 0.335967
O O6 0.077900 0.595963 0.242267
O O7 0.958110 0.546785 0.981596
O O8 0.351308 0.306299 0.728602
O O9 0.437051 0.274482 0.005518
O O10 0.801243 0.117175 0.461343
O O11 0.710957 0.948707 0.493862
O O12 0.164141 0.746191 0.331435
O O13 0.210817 0.687351 0.026990
O O14 0.166423 0.750735 0.719988
#
# Coordination Sequence:
#
# PCOD9574847 Si02
#       7
#     6   6   6   6   6   6   6
#     4  10  21  35  56  85 124 156 203 268 312 361
#     4   9  19  34  58  88 120 152 203 262 319 369
#     4  10  17  36  56  78 122 156 196 258 308 366
#     4  10  19  35  59  91 122 159 202 267 315 374
#     4  11  22  35  59  91 118 162 210 254 319 380
#     4  11  20  37  59  82 122 167 206 258 311 376
#     4  11  21  38  61  90 124 159 212 263 319 371
#
# _framework density 20.324567999999999
#
# number of rings (size 3 to 8) (size 9 to 14) (size 15 to 20)
#    0.000    1.714    5.714    1.286    0.000    2.857 
#    0.000    0.000    0.000   11.714    0.000    0.000 
#    0.000    1.143    0.000    0.000    0.000    0.000 
#
# Total GULP energy -234452.729363 kJ/mol
# GULP energy per Si atom -5582.207842 kJ/mol
# Density = 2.027831 g / cm^3
# Si number density = 20.324568 Si / 1000 Ang^3
#
#
#
# Elastic Constant Matrix: (Units=GPa)
#
#
# Indices 1 2 3 4 5 6 
#
# 1 89.9823 47.7264 39.7311 2.4614 0.0142 0.0000
# 2 47.7264 89.9823 39.7311 -2.4614 -0.0142 0.0000
# 3 39.7311 39.7311 122.2309 0.0000 0.0000 0.0000
# 4 2.4614 -2.4614 0.0000 28.8030 0.0000 -0.0142
# 5 0.0142 -0.0142 0.0000 0.0000 28.8030 2.4614
# 6 0.0000 0.0000 0.0000 -0.0142 2.4614 21.1279
#
#
#
# Elastic Compliance Matrix: (Units=1/GPa)
#
#
# Indices 1 2 3 4 5 6 
#
# 1 0.016421 -0.007483 -0.002905 -0.002043 -0.000012 0.000000
# 2 -0.007483 0.016421 -0.002905 0.002043 0.000012 0.000000
# 3 -0.002905 -0.002905 0.010070 0.000000 0.000000 0.000000
# 4 -0.002043 0.002043 0.000000 0.035068 0.000000 0.000024
# 5 -0.000012 0.000012 0.000000 0.000000 0.035068 -0.004085
# 6 0.000000 0.000000 0.000000 0.000024 -0.004085 0.047807
#
#
# Mechanical properties :
#
#
# Convention : Reuss Voigt Hill
#
# Bulk Modulus (GPa) = 61.25589 61.84142 61.54866
# Shear Modulus (GPa) = 25.92261 27.41392 26.66826
#
# Velocity S-wave (km/s) = 3.57519 3.67659 3.62625
# Velocity P-wave (km/s) = 6.87364 6.96535 6.91965
#
# Compressibility (1/GPa) = 0.01632496
#
# Stress axis : x y z
#
# Youngs Moduli (GPa) = 60.89853 60.89853 99.30481
#
# Poissons Ratio (x) = 0.45568 0.28852
# Poissons Ratio (y) = 0.45568 0.28852
# Poissons Ratio (z) = 0.17693 0.17693
#
# Static dielectric constant tensor:
#      x y z
#    x 1.770650 0.000000 0.000000 
#    y 0.000000 1.770650 0.000000 
#    z 0.000000 0.000000 1.775630 
# 
# From -- ./inp_files/234.got.cif
#   From: 2010.05.17/outbox.cif.g08.bks.cpg/sg147_cif.got.tgz:234.got - 2010.05.20 13:49:32.
