data_PCOD9574495
_publ_section_title
;
Structure prediction by ZEFSAII (Michael W. Deem and Ramdas Pophale) SiO2 
 PCOD9574495
Probable space group: P 31
;
_chemical_formula_sum "Si O2"
_cell_formula_units_Z 15
_cell_length_a 9.614344
_cell_length_b 9.614344
_cell_length_c 7.214069
_cell_angle_alpha 90.000000
_cell_angle_beta 90.000000
_cell_angle_gamma 120.000000
_cell_volume 577.497672
_symmetry_space_group_name_H-M "P 31"
_symmetry_group_IT_number 144
_symmetry_cell_setting 'hexagonal'
loop_
_space_group_symop_operation_xyz
x,y,z
-y,x-y,1/3+z
-x+y,-x,2/3+z
loop_
_atom_site_type_symbol
_atom_site_label
_atom_site_fract_x
_atom_site_fract_y
_atom_site_fract_z
Si Si1 0.474719 0.093106 0.245480
Si Si2 0.063347 0.137006 0.162587
Si Si3 0.963675 0.630341 0.037984
Si Si4 0.858614 0.285054 0.163822
Si Si5 0.259675 0.529661 0.580051
O O1 0.410232 0.189591 0.365292
O O2 0.666667 0.189536 0.204652
O O3 0.394494 0.915172 0.323666
O O4 0.404772 0.071437 0.037984
O O5 0.242380 0.284418 0.202728
O O6 0.938838 0.187344 0.085638
O O7 0.063096 0.007997 0.025510
O O8 0.923099 0.446024 0.044008
O O9 0.090953 0.708703 0.206575
O O10 0.388431 0.658669 0.717128
#
# Coordination Sequence:
#
# PCOD9574495 Si02
#       5
#     3   3   3   3   3
#     4  12  26  46  73 112 150 202 261 314 393 473
#     4  12  28  50  77 114 156 206 260 326 401 472
#     4  12  24  48  74 104 158 196 258 332 376 474
#     4  12  26  46  73 112 150 202 261 314 393 473
#     4  12  28  50  77 114 156 206 260 326 401 472
#
# _framework density 25.974129000000001
#
# number of rings (size 3 to 8) (size 9 to 14) (size 15 to 20)
#    0.000    0.000    8.000    0.000    5.600    3.200 
#    0.000    0.000    0.000    0.000    0.000    0.000 
#    0.000    0.000    0.000    0.000    0.000    0.000 
#
# Total GULP energy -83966.194655 kJ/mol
# GULP energy per Si atom -5597.746310 kJ/mol
# Density = 2.591501 g / cm^3
# Si number density = 25.974129 Si / 1000 Ang^3
#
#
#
# Elastic Constant Matrix: (Units=GPa)
#
#
# Indices 1 2 3 4 5 6 
#
# 1 177.8739 100.3115 42.2212 2.0453 0.0002 0.0000
# 2 100.3115 177.8739 42.2212 -2.0453 -0.0002 0.0000
# 3 42.2212 42.2212 86.5238 0.0000 0.0000 0.0000
# 4 2.0453 -2.0453 0.0000 38.3582 0.0000 -0.0002
# 5 0.0002 -0.0002 0.0000 0.0000 38.3582 2.0453
# 6 0.0000 0.0000 0.0000 -0.0002 2.0453 38.7812
#
#
#
# Elastic Compliance Matrix: (Units=1/GPa)
#
#
# Indices 1 2 3 4 5 6 
#
# 1 0.008574 -0.004355 -0.002059 -0.000689 0.000000 0.000000
# 2 -0.004355 0.008574 -0.002059 0.000689 0.000000 0.000000
# 3 -0.002059 -0.002059 0.013567 0.000000 0.000000 0.000000
# 4 -0.000689 0.000689 0.000000 0.026144 0.000000 0.000000
# 5 0.000000 0.000000 0.000000 0.000000 0.026144 -0.001379
# 6 0.000000 0.000000 0.000000 0.000000 -0.001379 0.025858
#
#
# Mechanical properties :
#
#
# Convention : Reuss Voigt Hill
#
# Bulk Modulus (GPa) = 72.62099 90.19773 81.40936
# Shear Modulus (GPa) = 38.34429 40.26739 39.30584
#
# Velocity S-wave (km/s) = 3.84637 3.94164 3.89430
# Velocity P-wave (km/s) = 6.90983 7.45096 7.18549
#
# Compressibility (1/GPa) = 0.01377012
#
# Stress axis : x y z
#
# Youngs Moduli (GPa) = 116.62512 116.62512 73.70769
#
# Poissons Ratio (x) = 0.50787 0.15177
# Poissons Ratio (y) = 0.50787 0.15177
# Poissons Ratio (z) = 0.24015 0.24015
#
# Static dielectric constant tensor:
#      x y z
#    x 2.065610 0.000000 0.000000 
#    y 0.000000 2.065610 0.000000 
#    z 0.000000 0.000000 2.024320 
# 
# From -- ./inp_files/225.got.cif
#   From: 2010.05.17/outbox.cif.g08.bks.cpg/sg144_cif.got.tgz:225.got - 2010.05.20 13:46:34.
