data_PCOD9574787
_publ_section_title
;
Structure prediction by ZEFSAII (Michael W. Deem and Ramdas Pophale) SiO2 
 PCOD9574787
Probable space group: R 3
;
_chemical_formula_sum "Si O2"
_cell_formula_units_Z 45
_cell_length_a 14.010512
_cell_length_b 14.010512
_cell_length_c 11.474555
_cell_angle_alpha 90.000000
_cell_angle_beta 90.000000
_cell_angle_gamma 120.000000
_cell_volume 1950.628191
_symmetry_space_group_name_H-M "R 3"
_symmetry_group_IT_number 146
_symmetry_cell_setting 'hexagonal'
loop_
_space_group_symop_operation_xyz
x,y,z
-y,x-y,z
-x+y,-x,z
2/3+x,1/3+y,1/3+z
2/3-y,1/3+x-y,1/3+z
2/3-x+y,1/3-x,1/3+z
1/3+x,2/3+y,2/3+z
1/3-y,2/3+x-y,2/3+z
1/3-x+y,2/3-x,2/3+z
loop_
_atom_site_type_symbol
_atom_site_label
_atom_site_fract_x
_atom_site_fract_y
_atom_site_fract_z
Si Si1 0.135149 0.047533 0.413680
Si Si2 0.257421 0.905848 0.254298
Si Si3 0.865353 0.538358 0.548804
Si Si4 0.881435 0.343536 0.172366
Si Si5 0.122951 0.657134 0.605158
O O1 0.244528 0.075204 0.477439
O O2 0.157020 0.088268 0.279884
O O3 0.074487 0.115586 0.451562
O O4 0.301794 0.874727 0.368793
O O5 0.130057 0.868773 0.266105
O O6 0.343003 0.031799 0.224822
O O7 0.849938 0.528479 0.410488
O O8 0.995041 0.615927 0.577848
O O9 0.761180 0.245711 0.206510
O O10 0.903801 0.458212 0.227648
#
# Coordination Sequence:
#
# PCOD9574787 Si02
#       5
#     9   9   9   9   9
#     4  10  26  41  75 104 142 195 248 307 369 447
#     4  12  26  49  75 107 151 198 258 308 385 450
#     4  12  25  48  74 108 152 197 257 309 383 447
#     4  12  29  47  77 110 154 201 251 316 379 460
#     4  12  28  47  75 111 153 199 250 316 382 450
#
# _framework density 23.069492
#
# number of rings (size 3 to 8) (size 9 to 14) (size 15 to 20)
#    0.400    0.000    2.000    5.200   11.200    0.000 
#    0.000    0.000    0.000    0.000    0.000    0.000 
#    0.000    0.000    0.000    0.000    0.000    0.000 
#
# Total GULP energy -83895.011984 kJ/mol
# GULP energy per Si atom -5593.000799 kJ/mol
# Density = 2.301698 g / cm^3
# Si number density = 23.069492 Si / 1000 Ang^3
#
#
#
# Elastic Constant Matrix: (Units=GPa)
#
#
# Indices 1 2 3 4 5 6 
#
# 1 107.6771 22.4940 4.4423 4.3283 2.7774 0.0000
# 2 22.4940 107.6771 4.4423 -4.3283 -2.7774 0.0000
# 3 4.4423 4.4423 138.7653 0.0000 0.0000 0.0000
# 4 4.3283 -4.3283 0.0000 27.2341 0.0000 -2.7774
# 5 2.7774 -2.7774 0.0000 0.0000 27.2341 4.3283
# 6 0.0000 0.0000 0.0000 -2.7774 4.3283 42.5915
#
#
#
# Elastic Compliance Matrix: (Units=1/GPa)
#
#
# Indices 1 2 3 4 5 6 
#
# 1 0.009856 -0.002157 -0.000246 -0.001909 -0.001225 0.000000
# 2 -0.002157 0.009856 -0.000246 0.001909 0.001225 0.000000
# 3 -0.000246 -0.000246 0.007222 0.000000 0.000000 0.000000
# 4 -0.001909 0.001909 0.000000 0.037575 0.000000 0.002450
# 5 -0.001225 0.001225 0.000000 0.000000 0.037575 -0.003819
# 6 0.000000 0.000000 0.000000 0.002450 -0.003819 0.024027
#
#
# Mechanical properties :
#
#
# Convention : Reuss Voigt Hill
#
# Bulk Modulus (GPa) = 46.22275 46.31960 46.27118
# Shear Modulus (GPa) = 36.06887 40.92802 38.49844
#
# Velocity S-wave (km/s) = 3.95839 4.21660 4.08953
# Velocity P-wave (km/s) = 6.40090 6.62028 6.51152
#
# Compressibility (1/GPa) = 0.02163437
#
# Stress axis : x y z
#
# Youngs Moduli (GPa) = 101.45917 101.45917 138.46214
#
# Poissons Ratio (x) = 0.21886 0.03413
# Poissons Ratio (y) = 0.21886 0.03413
# Poissons Ratio (z) = 0.02501 0.02501
#
# Static dielectric constant tensor:
#      x y z
#    x 1.840220 0.000000 0.000000 
#    y 0.000000 1.840220 0.000000 
#    z 0.000000 0.000000 1.832890 
# 
# From -- ./inp_files/1078.got.cif
#   From: 2010.05.17/outbox.cif.g08.bks.cpg/sg146_cif.got.tgz:1078.got - 2010.05.20 13:48:23.
