data_PCOD9574161
_publ_section_title
;
Structure prediction by ZEFSAII (Michael W. Deem and Ramdas Pophale) SiO2 
 PCOD9574161
Probable space group: I 41/A C D
;
_chemical_formula_sum "Si O2"
_cell_formula_units_Z 128
_cell_length_a 22.363960
_cell_length_b 22.363960
_cell_length_c 11.885189
_cell_angle_alpha 90.000000
_cell_angle_beta 90.000000
_cell_angle_gamma 90.000000
_cell_volume 5944.338139
_symmetry_space_group_name_H-M "I 41/A C D"
_symmetry_group_IT_number 142
_space_group.IT_coordinate_system_code '2'
_symmetry_cell_setting 'tetragonal'
loop_
_space_group_symop_operation_xyz
x,y,z
1/4-y,3/4+x,1/4+z
-x,1/2-y,z
1/4+y,1/4-x,3/4+z
x,-y,1/2-z
1/2-x,y,-z
3/4+y,1/4+x,1/4-z
1/4-y,1/4-x,1/4-z
-x,-y,-z
3/4+y,1/4-x,3/4-z
x,1/2+y,-z
3/4-y,3/4+x,1/4-z
-x,y,1/2+z
1/2+x,-y,z
1/4-y,3/4-x,3/4+z
3/4+y,3/4+x,3/4+z
1/2+x,1/2+y,1/2+z
3/4-y,1/4+x,3/4+z
1/2-x,-y,1/2+z
3/4+y,3/4-x,1/4+z
1/2+x,1/2-y,-z
-x,1/2+y,1/2-z
1/4+y,3/4+x,3/4-z
3/4-y,3/4-x,3/4-z
1/2-x,1/2-y,1/2-z
1/4+y,3/4-x,1/4-z
1/2+x,y,1/2-z
1/4-y,1/4+x,3/4-z
1/2-x,1/2+y,z
x,1/2-y,1/2+z
3/4-y,1/4-x,1/4+z
1/4+y,1/4+x,1/4+z
loop_
_atom_site_type_symbol
_atom_site_label
_atom_site_fract_x
_atom_site_fract_y
_atom_site_fract_z
Si Si1 0.587259 0.786355 0.895864
Si Si2 0.774150 0.881923 0.881153
Si Si3 0.893451 0.919164 0.479264
Si Si4 0.306972 0.251373 0.932924
O O1 0.567109 0.726954 0.824473
O O2 0.622825 0.837355 0.826937
O O3 0.633445 0.762078 0.991718
O O4 0.837727 0.912274 0.875000
O O5 0.725370 0.889958 0.784300
O O6 0.783238 0.811725 0.890417
O O7 0.750000 0.904845 0.000000
O O8 0.857106 0.892895 0.375000
O O9 0.956771 0.933146 0.422571
O O10 0.250000 0.278250 0.000000
#
# Coordination Sequence:
#
# PCOD9574161 Si02
#       4
#    32  32  32  32
#     4  11  24  43  68 107 147 182 237 297 368 451
#     4  11  26  45  70  98 134 184 239 295 356 431
#     4  12  25  44  72 103 139 189 241 301 367 436
#     4  11  24  42  69  99 139 188 236 290 366 438
#
# _framework density 21.533096
#
# number of rings (size 3 to 8) (size 9 to 14) (size 15 to 20)
#    0.000    0.750    7.500    0.750    3.500    3.000 
#    0.000    0.000    0.000    0.000    0.000    0.000 
#    0.000    0.000    0.000    0.000    0.000    0.000 
#
# Total GULP energy -356962.536434 kJ/mol
# GULP energy per Si atom -5577.539632 kJ/mol
# Density = 2.148409 g / cm^3
# Si number density = 21.533096 Si / 1000 Ang^3
#
#
#
# Elastic Constant Matrix: (Units=GPa)
#
#
# Indices 1 2 3 4 5 6 
#
# 1 37.9133 -1.4141 6.7418 0.0000 0.0000 0.0000
# 2 -1.4141 37.9289 6.7468 0.0000 0.0000 0.0000
# 3 6.7418 6.7468 58.8098 0.0000 0.0000 0.0000
# 4 0.0000 0.0000 0.0000 18.3778 0.0000 0.0000
# 5 0.0000 0.0000 0.0000 0.0000 18.3697 0.0000
# 6 0.0000 0.0000 0.0000 0.0000 0.0000 -1.9897
#
#
#
# Elastic Compliance Matrix: (Units=1/GPa)
#
#
# Indices 1 2 3 4 5 6 
#
# 1 0.027019 0.001591 -0.003280 0.000000 0.000000 0.000000
# 2 0.001591 0.027008 -0.003281 0.000000 0.000000 0.000000
# 3 -0.003280 -0.003281 0.017756 0.000000 0.000000 0.000000
# 4 0.000000 0.000000 0.000000 0.054413 0.000000 0.000000
# 5 0.000000 0.000000 0.000000 0.000000 0.054437 0.000000
# 6 0.000000 0.000000 0.000000 0.000000 0.000000 -0.502599
#
#
# Mechanical properties :
#
#
# Convention : Reuss Voigt Hill
#
# Bulk Modulus (GPa) = 16.16994 17.64456 16.90725
# Shear Modulus (GPa) = -17.15790 15.12340 -1.01725
#
# Velocity S-wave (km/s) = -2.82585 2.65303 -0.68807
# Velocity P-wave (km/s) = 1.76681 4.19484 2.69027
#
# Compressibility (1/GPa) = 0.06184314
#
# Stress axis : x y z
#
# Youngs Moduli (GPa) = 37.01161 37.02602 56.31786
#
# Poissons Ratio (x) = -0.05890 0.18471
# Poissons Ratio (y) = -0.05888 0.18477
# Poissons Ratio (z) = 0.12139 0.12148
#
# Static dielectric constant tensor:
#      x y z
#    x 1.744790 0.000000 0.000000 
#    y 0.000000 1.744780 0.000000 
#    z 0.000000 0.000000 1.460250 
# 
# From -- ./inp_files/3458.got.cif
#   From: 2010.05.17/outbox.cif.g08.bks.cpg/sg142_2_cif.got.tgz:3458.got - 2010.05.20 13:39:18.
