data_PCOD9574760
_publ_section_title
;
Structure prediction by ZEFSAII (Michael W. Deem and Ramdas Pophale) SiO2 
 PCOD9574760
Probable space group: R 3
;
_chemical_formula_sum "Si O2"
_cell_formula_units_Z 45
_cell_length_a 21.422367
_cell_length_b 21.422367
_cell_length_c 5.178216
_cell_angle_alpha 90.000000
_cell_angle_beta 90.000000
_cell_angle_gamma 120.000000
_cell_volume 2058.001583
_symmetry_space_group_name_H-M "R 3"
_symmetry_group_IT_number 146
_symmetry_cell_setting 'hexagonal'
loop_
_space_group_symop_operation_xyz
x,y,z
-y,x-y,z
-x+y,-x,z
2/3+x,1/3+y,1/3+z
2/3-y,1/3+x-y,1/3+z
2/3-x+y,1/3-x,1/3+z
1/3+x,2/3+y,2/3+z
1/3-y,2/3+x-y,2/3+z
1/3-x+y,2/3-x,2/3+z
loop_
_atom_site_type_symbol
_atom_site_label
_atom_site_fract_x
_atom_site_fract_y
_atom_site_fract_z
Si Si1 0.406222 0.066753 0.786670
Si Si2 0.068034 0.723331 0.312655
Si Si3 0.862110 0.119918 0.283615
Si Si4 0.413606 0.200064 0.021397
Si Si5 0.496094 0.869378 0.827659
O O1 0.344006 0.055678 0.586853
O O2 0.483066 0.092190 0.660259
O O3 0.413714 0.125628 0.992162
O O4 0.037526 0.761305 0.119952
O O5 0.025957 0.726034 0.563410
O O6 0.151045 0.763509 0.225250
O O7 0.854486 0.044670 0.186718
O O8 0.826388 0.156373 0.103424
O O9 0.444231 0.242895 0.749348
O O10 0.466192 0.250462 0.247145
#
# Coordination Sequence:
#
# PCOD9574760 Si02
#       5
#     9   9   9   9   9
#     4  12  24  44  68 103 150 204 249 305 357 460
#     4   9  19  30  53  83 130 168 209 276 355 418
#     4  10  23  40  65 100 136 190 241 295 371 442
#     4  11  24  44  63  99 143 186 240 297 373 436
#     4  10  24  38  65  93 137 178 233 299 368 438
#
# _framework density 21.865870999999999
#
# number of rings (size 3 to 8) (size 9 to 14) (size 15 to 20)
#    0.000    1.600    2.000    2.400   16.800    3.200 
#    0.000    0.000    0.000    0.800    0.000    5.600 
#    0.000    0.000    0.000    0.000    0.000    0.000 
#
# Total GULP energy -83551.572868 kJ/mol
# GULP energy per Si atom -5570.104858 kJ/mol
# Density = 2.181610 g / cm^3
# Si number density = 21.865871 Si / 1000 Ang^3
#
#
#
# Elastic Constant Matrix: (Units=GPa)
#
#
# Indices 1 2 3 4 5 6 
#
# 1 91.7767 29.4180 35.3390 2.1953 -1.9824 0.2172
# 2 29.4180 91.9791 35.2060 -1.8802 1.4798 0.1603
# 3 35.3390 35.2060 133.6492 0.0461 -0.0769 0.0816
# 4 2.1953 -1.8802 0.0461 29.9037 0.1118 1.8125
# 5 -1.9824 1.4798 -0.0769 0.1118 30.1790 2.0222
# 6 0.2172 0.1603 0.0816 1.8125 2.0222 31.1565
#
#
#
# Elastic Compliance Matrix: (Units=1/GPa)
#
#
# Indices 1 2 3 4 5 6 
#
# 1 0.012966 -0.003197 -0.002585 -0.001149 0.001011 -0.000066
# 2 -0.003197 0.012908 -0.002556 0.001056 -0.000850 -0.000044
# 3 -0.002585 -0.002556 0.008839 0.000015 -0.000023 0.000009
# 4 -0.001149 0.001056 0.000015 0.033710 -0.000121 -0.001951
# 5 0.001011 -0.000850 -0.000023 -0.000121 0.033389 -0.002163
# 6 -0.000066 -0.000044 0.000009 -0.001951 -0.002163 0.032351
#
#
# Mechanical properties :
#
#
# Convention : Reuss Voigt Hill
#
# Bulk Modulus (GPa) = 55.44150 57.48122 56.46136
# Shear Modulus (GPa) = 31.87748 32.74398 32.31073
#
# Velocity S-wave (km/s) = 3.82234 3.87394 3.84823
# Velocity P-wave (km/s) = 6.70005 6.80846 6.75447
#
# Compressibility (1/GPa) = 0.01803703
#
# Stress axis : x y z
#
# Youngs Moduli (GPa) = 77.12690 77.47058 113.13432
#
# Poissons Ratio (x) = 0.24767 0.29247
# Poissons Ratio (y) = 0.24657 0.28915
# Poissons Ratio (z) = 0.19938 0.19800
#
# Static dielectric constant tensor:
#      x y z
#    x 1.834080 -0.000110 -0.000200 
#    y -0.000110 1.834310 -0.000060 
#    z -0.000200 -0.000060 1.963380 
# 
# From -- ./inp_files/330.got.cif
#   From: 2010.05.17/outbox.cif.g08.bks.cpg/sg146_cif.got.tgz:330.got - 2010.05.20 13:48:23.
