data_PCOD9574596
_publ_section_title
;
Structure prediction by ZEFSAII (Michael W. Deem and Ramdas Pophale) SiO2 
 PCOD9574596
Probable space group: P 32
;
_chemical_formula_sum "Si O2"
_cell_formula_units_Z 24
_cell_length_a 11.258690
_cell_length_b 11.258690
_cell_length_c 9.387038
_cell_angle_alpha 90.000000
_cell_angle_beta 90.000000
_cell_angle_gamma 120.000000
_cell_volume 1030.468998
_symmetry_space_group_name_H-M "P 32"
_symmetry_group_IT_number 145
_symmetry_cell_setting 'hexagonal'
loop_
_space_group_symop_operation_xyz
x,y,z
-y,x-y,2/3+z
-x+y,-x,1/3+z
loop_
_atom_site_type_symbol
_atom_site_label
_atom_site_fract_x
_atom_site_fract_y
_atom_site_fract_z
Si Si1 0.203455 0.527558 0.908700
Si Si2 0.185685 0.078108 0.051372
Si Si3 0.932216 0.491728 0.427772
Si Si4 0.490531 0.169499 0.042020
Si Si5 0.155651 0.487724 0.234712
Si Si6 0.218609 0.269509 0.783198
Si Si7 0.964042 0.587858 0.867185
Si Si8 0.232710 0.271154 0.275890
O O1 0.361138 0.649441 0.925163
O O2 0.212737 0.406469 0.826232
O O3 0.104689 0.580294 0.847262
O O4 0.143901 0.470586 0.065155
O O5 0.334079 0.098202 0.093810
O O6 0.142075 0.131304 0.190910
O O7 0.090207 0.917772 0.025854
O O8 0.209091 0.178538 0.919524
O O9 0.899683 0.390733 0.560273
O O10 0.790059 0.462520 0.361094
O O11 0.030838 0.490665 0.309325
O O12 0.005478 0.642187 0.500147
O O13 0.585736 0.149519 0.155152
O O14 0.161658 0.360687 0.301082
O O15 0.354079 0.319589 0.689054
O O16 0.961858 0.693255 0.752915
#
# Coordination Sequence:
#
# PCOD9574596 Si02
#       8
#     3   3   3   3   3   3   3   3
#     4  12  22  39  70 113 148 176 242 314 371 445
#     4  11  25  48  68  96 156 194 242 305 368 455
#     4  10  23  42  69 101 143 195 239 307 374 439
#     4  10  23  47  69 101 145 189 247 310 368 449
#     4  12  21  39  71 108 147 183 234 310 379 437
#     4  12  26  46  71 104 146 203 248 305 377 454
#     4  11  25  41  75 108 140 192 248 306 374 442
#     4  10  23  42  67 105 147 186 236 299 377 441
#
# _framework density 23.290367
#
# number of rings (size 3 to 8) (size 9 to 14) (size 15 to 20)
#    0.000    1.000    5.000    1.500    1.750    2.000 
#    0.000    1.250    0.000    0.000    0.000    0.000 
#    0.000    0.000    0.000    0.000    0.000    0.000 
#
# Total GULP energy -134263.852440 kJ/mol
# GULP energy per Si atom -5594.327185 kJ/mol
# Density = 2.323736 g / cm^3
# Si number density = 23.290367 Si / 1000 Ang^3
#
#
#
# Elastic Constant Matrix: (Units=GPa)
#
#
# Indices 1 2 3 4 5 6 
#
# 1 62.7808 6.8406 11.9513 -1.7117 0.6514 0.0000
# 2 6.8406 62.7808 11.9513 1.7117 -0.6514 0.0000
# 3 11.9513 11.9513 84.7976 0.0000 0.0000 0.0000
# 4 -1.7117 1.7117 0.0000 27.2471 0.0000 -0.6514
# 5 0.6514 -0.6514 0.0000 0.0000 27.2471 -1.7117
# 6 0.0000 0.0000 0.0000 -0.6514 -1.7117 27.9701
#
#
#
# Elastic Compliance Matrix: (Units=1/GPa)
#
#
# Indices 1 2 3 4 5 6 
#
# 1 0.016524 -0.001431 -0.002127 0.001128 -0.000429 0.000000
# 2 -0.001431 0.016524 -0.002127 -0.001128 0.000429 0.000000
# 3 -0.002127 -0.002127 0.012392 0.000000 0.000000 0.000000
# 4 0.001128 -0.001128 0.000000 0.036863 0.000000 0.000859
# 5 -0.000429 0.000429 0.000000 0.000000 0.036863 0.002256
# 6 0.000000 0.000000 0.000000 0.000859 0.002256 0.035910
#
#
# Mechanical properties :
#
#
# Convention : Reuss Voigt Hill
#
# Bulk Modulus (GPa) = 29.35072 30.20507 29.77790
# Shear Modulus (GPa) = 28.12049 28.46727 28.29388
#
# Velocity S-wave (km/s) = 3.47852 3.49990 3.48923
# Velocity P-wave (km/s) = 5.36310 5.41567 5.38945
#
# Compressibility (1/GPa) = 0.03407072
#
# Stress axis : x y z
#
# Youngs Moduli (GPa) = 60.51623 60.51623 80.69441
#
# Poissons Ratio (x) = 0.08658 0.17166
# Poissons Ratio (y) = 0.08658 0.17166
# Poissons Ratio (z) = 0.12874 0.12874
#
# Static dielectric constant tensor:
#      x y z
#    x 1.896740 0.000000 0.000000 
#    y 0.000000 1.896740 0.000000 
#    z 0.000000 0.000000 1.873750 
# 
# From -- ./inp_files/449.got.cif
#   From: 2010.05.17/outbox.cif.g08.bks.cpg/sg145_cif.got.tgz:449.got - 2010.05.20 13:47:28.
