data_PCOD9574525
_publ_section_title
;
Structure prediction by ZEFSAII (Michael W. Deem and Ramdas Pophale) SiO2 
 PCOD9574525
Probable space group: P 31
;
_chemical_formula_sum "Si O2"
_cell_formula_units_Z 18
_cell_length_a 12.000000
_cell_length_b 12.000000
_cell_length_c 6.000000
_cell_angle_alpha 90.000000
_cell_angle_beta 90.000000
_cell_angle_gamma 120.000000
_cell_volume 748.245949
_symmetry_space_group_name_H-M "P 31"
_symmetry_group_IT_number 144
_symmetry_cell_setting 'hexagonal'
loop_
_space_group_symop_operation_xyz
x,y,z
-y,x-y,1/3+z
-x+y,-x,2/3+z
loop_
_atom_site_type_symbol
_atom_site_label
_atom_site_fract_x
_atom_site_fract_y
_atom_site_fract_z
Si Si1 0.178715 0.470748 0.832780
Si Si2 0.880264 0.958630 0.282642
Si Si3 0.758729 0.465853 0.427244
Si Si4 0.928318 0.642494 0.767832
Si Si5 0.327928 0.083380 0.442941
Si Si6 0.537854 0.816956 0.651919
O O1 0.242516 0.465336 0.584982
O O2 0.030442 0.389215 0.767369
O O3 0.214696 0.613524 0.897711
O O4 0.186989 0.420275 0.090383
O O5 0.833562 0.826899 0.147074
O O6 0.921571 0.930878 0.519202
O O7 0.775625 0.002727 0.289851
O O8 0.628613 0.386416 0.570983
O O9 0.875138 0.521335 0.604866
O O10 0.767299 0.589644 0.308188
O O11 0.807786 0.639084 0.889678
O O12 0.029143 0.659304 0.959527
#
# Coordination Sequence:
#
# PCOD9574525 Si02
#       6
#     3   3   3   3   3   3
#     4  12  29  52  83 118 158 213 272 341 413 488
#     4  12  24  46  76 118 160 200 256 328 418 494
#     4  12  30  54  78 112 160 218 286 344 406 490
#     4  12  29  47  78 116 162 210 265 337 414 499
#     4  12  29  47  78 116 162 210 265 337 414 499
#     4  12  29  52  83 118 158 213 272 341 413 488
#
# _framework density 24.056260999999999
#
# number of rings (size 3 to 8) (size 9 to 14) (size 15 to 20)
#    0.000    0.000    5.000    3.000   16.333    0.000 
#    0.000    0.000    0.000    0.000    0.000    0.000 
#    0.000    0.000    0.000    0.000    0.000    0.000 
#
# Total GULP energy -100388.414368 kJ/mol
# GULP energy per Si atom -5577.134132 kJ/mol
# Density = 2.400151 g / cm^3
# Si number density = 24.056261 Si / 1000 Ang^3
#
#
#
# Elastic Constant Matrix: (Units=GPa)
#
#
# Indices 1 2 3 4 5 6 
#
# 1 72.3394 16.1531 13.1405 -0.4863 3.2174 0.0000
# 2 16.1531 72.3394 13.1405 0.4863 -3.2174 0.0000
# 3 13.1405 13.1405 109.2717 0.0000 0.0000 0.0000
# 4 -0.4863 0.4863 0.0000 43.0603 0.0000 -3.2174
# 5 3.2174 -3.2174 0.0000 0.0000 43.0603 -0.4863
# 6 0.0000 0.0000 0.0000 -3.2174 -0.4863 28.0932
#
#
#
# Elastic Compliance Matrix: (Units=1/GPa)
#
#
# Indices 1 2 3 4 5 6 
#
# 1 0.014837 -0.003118 -0.001409 0.000203 -0.001342 0.000000
# 2 -0.003118 0.014837 -0.001409 -0.000203 0.001342 0.000000
# 3 -0.001409 -0.001409 0.009490 0.000000 0.000000 0.000000
# 4 0.000203 -0.000203 0.000000 0.023428 0.000000 0.002683
# 5 -0.001342 0.001342 0.000000 0.000000 0.023428 0.000406
# 6 0.000000 0.000000 0.000000 0.002683 0.000406 0.035910
#
#
# Mechanical properties :
#
#
# Convention : Reuss Voigt Hill
#
# Bulk Modulus (GPa) = 36.64179 37.64652 37.14416
# Shear Modulus (GPa) = 34.98916 36.94387 35.96651
#
# Velocity S-wave (km/s) = 3.81789 3.92309 3.87085
# Velocity P-wave (km/s) = 5.89066 6.01699 5.95416
#
# Compressibility (1/GPa) = 0.02729124
#
# Stress axis : x y z
#
# Youngs Moduli (GPa) = 67.39911 67.39911 105.36919
#
# Poissons Ratio (x) = 0.21016 0.14849
# Poissons Ratio (y) = 0.21016 0.14849
# Poissons Ratio (z) = 0.09498 0.09498
#
# Static dielectric constant tensor:
#      x y z
#    x 1.985710 0.000000 0.000000 
#    y 0.000000 1.985710 0.000000 
#    z 0.000000 0.000000 1.919770 
# 
# From -- ./inp_files/118.got.cif
#   From: 2010.05.17/outbox.ucp.g08.bks.cvg/sg144_cif.got.tgz:118.got - 2010.06.11 11:44:17.
