data_PCOD9574512
_publ_section_title
;
Structure prediction by ZEFSAII (Michael W. Deem and Ramdas Pophale) SiO2 
 PCOD9574512
Probable space group: P 31
;
_chemical_formula_sum "Si O2"
_cell_formula_units_Z 12
_cell_length_a 7.453260
_cell_length_b 7.453260
_cell_length_c 9.387618
_cell_angle_alpha 90.000000
_cell_angle_beta 90.000000
_cell_angle_gamma 120.000000
_cell_volume 451.625633
_symmetry_space_group_name_H-M "P 31"
_symmetry_group_IT_number 144
_symmetry_cell_setting 'hexagonal'
loop_
_space_group_symop_operation_xyz
x,y,z
-y,x-y,1/3+z
-x+y,-x,2/3+z
loop_
_atom_site_type_symbol
_atom_site_label
_atom_site_fract_x
_atom_site_fract_y
_atom_site_fract_z
Si Si1 0.791231 0.175840 0.146920
Si Si2 0.189510 0.452967 0.680310
Si Si3 0.644293 0.813312 0.692575
Si Si4 0.554466 0.422628 0.222905
O O1 0.651153 0.280421 0.181317
O O2 0.961558 0.236628 0.268268
O O3 0.666501 0.933298 0.117705
O O4 0.888131 0.286414 0.996181
O O5 0.400464 0.670262 0.655197
O O6 0.134534 0.341069 0.527479
O O7 0.013625 0.482988 0.753950
O O8 0.699836 0.040361 0.643395
#
# Coordination Sequence:
#
# PCOD9574512 Si02
#       4
#     3   3   3   3
#     4  12  28  53  82 125 166 226 284 346 439 509
#     4  12  27  52  81 122 173 221 285 360 424 515
#     4  12  25  52  83 119 169 225 284 356 425 504
#     4  12  26  51  84 116 168 226 277 356 430 500
#
# _framework density 26.570681
#
# number of rings (size 3 to 8) (size 9 to 14) (size 15 to 20)
#    0.000    0.000    7.500    0.000    3.500    2.000 
#    9.000    2.500    0.000    0.000    0.000    0.000 
#    0.000    0.000    0.000    0.000    0.000    0.000 
#
# Total GULP energy -67457.786966 kJ/mol
# GULP energy per Si atom -5621.482247 kJ/mol
# Density = 2.651020 g / cm^3
# Si number density = 26.570681 Si / 1000 Ang^3
#
#
#
# Elastic Constant Matrix: (Units=GPa)
#
#
# Indices 1 2 3 4 5 6 
#
# 1 99.5378 22.5508 27.5639 5.0213 -3.1867 0.0000
# 2 22.5508 99.5378 27.5639 -5.0213 3.1867 0.0000
# 3 27.5639 27.5639 150.6866 0.0000 0.0000 0.0000
# 4 5.0213 -5.0213 0.0000 61.0595 0.0000 3.1867
# 5 -3.1867 3.1867 0.0000 0.0000 61.0595 5.0213
# 6 0.0000 0.0000 0.0000 3.1867 5.0213 38.4935
#
#
#
# Elastic Compliance Matrix: (Units=1/GPa)
#
#
# Indices 1 2 3 4 5 6 
#
# 1 0.011058 -0.002130 -0.001633 -0.001085 0.000688 0.000000
# 2 -0.002130 0.011058 -0.001633 0.001085 -0.000688 0.000000
# 3 -0.001633 -0.001633 0.007234 0.000000 0.000000 0.000000
# 4 -0.001085 0.001085 0.000000 0.016628 0.000000 -0.001377
# 5 0.000688 -0.000688 0.000000 0.000000 0.016628 -0.002169
# 6 0.000000 0.000000 0.000000 -0.001377 -0.002169 0.026375
#
#
# Mechanical properties :
#
#
# Convention : Reuss Voigt Hill
#
# Bulk Modulus (GPa) = 53.88649 56.12439 55.00544
# Shear Modulus (GPa) = 47.18838 50.26138 48.72488
#
# Velocity S-wave (km/s) = 4.21878 4.35398 4.28692
# Velocity P-wave (km/s) = 6.63742 6.81504 6.72681
#
# Compressibility (1/GPa) = 0.01855753
#
# Stress axis : x y z
#
# Youngs Moduli (GPa) = 90.43281 90.43281 138.24034
#
# Poissons Ratio (x) = 0.19260 0.22577
# Poissons Ratio (y) = 0.19260 0.22577
# Poissons Ratio (z) = 0.14769 0.14769
#
# Static dielectric constant tensor:
#      x y z
#    x 2.067040 0.000000 0.000000 
#    y 0.000000 2.067040 0.000000 
#    z 0.000000 0.000000 2.103650 
# 
# From -- ./inp_files/245.got.cif
#   From: 2010.05.17/outbox.cif.g08.bks.cpg/sg144_cif.got.tgz:245.got - 2010.05.20 13:46:34.
