data_PCOD9574483
_publ_section_title
;
Structure prediction by ZEFSAII (Michael W. Deem and Ramdas Pophale) SiO2 
 PCOD9574483
Probable space group: P 31
;
_chemical_formula_sum "Si O2"
_cell_formula_units_Z 18
_cell_length_a 8.488926
_cell_length_b 8.488926
_cell_length_c 11.022176
_cell_angle_alpha 90.000000
_cell_angle_beta 90.000000
_cell_angle_gamma 120.000000
_cell_volume 687.865406
_symmetry_space_group_name_H-M "P 31"
_symmetry_group_IT_number 144
_symmetry_cell_setting 'hexagonal'
loop_
_space_group_symop_operation_xyz
x,y,z
-y,x-y,1/3+z
-x+y,-x,2/3+z
loop_
_atom_site_type_symbol
_atom_site_label
_atom_site_fract_x
_atom_site_fract_y
_atom_site_fract_z
Si Si1 0.705732 0.533354 0.493120
Si Si2 0.155844 0.490559 0.827933
Si Si3 0.816451 0.330258 0.667683
Si Si4 0.048574 0.169457 0.001419
Si Si5 0.804689 0.829428 0.839909
Si Si6 0.471609 0.835559 0.915787
O O1 0.827000 0.474307 0.569477
O O2 0.608593 0.386288 0.385725
O O3 0.808184 0.733916 0.437486
O O4 0.537493 0.505261 0.575881
O O5 0.267062 0.693579 0.876975
O O6 0.264095 0.479634 0.711279
O O7 0.954767 0.426036 0.779134
O O8 0.153039 0.361183 0.934199
O O9 0.886870 0.210302 0.599346
O O10 0.166053 0.087730 0.058754
O O11 0.916316 0.025122 0.903328
O O12 0.605954 0.807066 0.823938
#
# Coordination Sequence:
#
# PCOD9574483 Si02
#       6
#     3   3   3   3   3   3
#     4  12  27  46  75 110 153 200 252 312 376 444
#     4  11  26  48  78 111 152 199 254 313 377 450
#     4  11  27  49  73 111 153 199 253 312 373 448
#     4  12  27  50  79 112 153 202 250 313 380 449
#     4  11  26  46  75 109 151 199 253 309 375 448
#     4  11  25  49  76 111 150 201 256 311 375 451
#
# _framework density 26.167909000000002
#
# number of rings (size 3 to 8) (size 9 to 14) (size 15 to 20)
#    0.000    0.667    0.000    7.000    0.000   22.667 
#    0.000    1.667    0.000    0.000    0.000    0.000 
#    0.000    0.000    0.000    0.000    0.000    0.000 
#
# Total GULP energy -101148.815375 kJ/mol
# GULP energy per Si atom -5619.378632 kJ/mol
# Density = 2.610835 g / cm^3
# Si number density = 26.167909 Si / 1000 Ang^3
#
#
#
# Elastic Constant Matrix: (Units=GPa)
#
#
# Indices 1 2 3 4 5 6 
#
# 1 87.1998 5.6597 7.2049 -2.0057 4.2330 0.0000
# 2 5.6597 87.1998 7.2049 2.0057 -4.2330 0.0000
# 3 7.2049 7.2049 75.2179 0.0000 0.0000 0.0000
# 4 -2.0057 2.0057 0.0000 45.2979 0.0000 -4.2330
# 5 4.2330 -4.2330 0.0000 0.0000 45.2979 -2.0057
# 6 0.0000 0.0000 0.0000 -4.2330 -2.0057 40.7700
#
#
#
# Elastic Compliance Matrix: (Units=1/GPa)
#
#
# Indices 1 2 3 4 5 6 
#
# 1 0.011671 -0.000740 -0.001047 0.000550 -0.001160 0.000000
# 2 -0.000740 0.011671 -0.001047 -0.000550 0.001160 0.000000
# 3 -0.001047 -0.001047 0.013495 0.000000 0.000000 0.000000
# 4 0.000550 -0.000550 0.000000 0.022342 0.000000 0.002320
# 5 -0.001160 0.001160 0.000000 0.000000 0.022342 0.001099
# 6 0.000000 0.000000 0.000000 0.002320 0.001099 0.024823
#
#
# Mechanical properties :
#
#
# Convention : Reuss Voigt Hill
#
# Bulk Modulus (GPa) = 32.08232 32.19517 32.13874
# Shear Modulus (GPa) = 40.84897 41.57636 41.21266
#
# Velocity S-wave (km/s) = 3.95528 3.99034 3.97285
# Velocity P-wave (km/s) = 5.75723 5.79313 5.77521
#
# Compressibility (1/GPa) = 0.03116982
#
# Stress axis : x y z
#
# Youngs Moduli (GPa) = 85.67947 85.67947 74.09988
#
# Poissons Ratio (x) = 0.06340 0.07759
# Poissons Ratio (y) = 0.06340 0.07759
# Poissons Ratio (z) = 0.08971 0.08971
#
# Static dielectric constant tensor:
#      x y z
#    x 1.991460 0.000000 0.000000 
#    y 0.000000 1.991460 0.000000 
#    z 0.000000 0.000000 2.040540 
# 
# From -- ./inp_files/573.got.cif
#   From: 2010.05.17/outbox.cif.g08.bks.cpg/sg144_cif.got.tgz:573.got - 2010.05.20 13:46:34.
