data_PCOD9574445
_publ_section_title
;
Structure prediction by ZEFSAII (Michael W. Deem and Ramdas Pophale) SiO2 
 PCOD9574445
Probable space group: P 31
;
_chemical_formula_sum "Si O2"
_cell_formula_units_Z 18
_cell_length_a 11.750117
_cell_length_b 11.750117
_cell_length_c 7.561868
_cell_angle_alpha 90.000000
_cell_angle_beta 90.000000
_cell_angle_gamma 120.000000
_cell_volume 904.157535
_symmetry_space_group_name_H-M "P 31"
_symmetry_group_IT_number 144
_symmetry_cell_setting 'hexagonal'
loop_
_space_group_symop_operation_xyz
x,y,z
-y,x-y,1/3+z
-x+y,-x,2/3+z
loop_
_atom_site_type_symbol
_atom_site_label
_atom_site_fract_x
_atom_site_fract_y
_atom_site_fract_z
Si Si1 0.885925 0.228012 0.415890
Si Si2 0.173812 0.413933 0.319007
Si Si3 0.635523 0.970208 0.356811
Si Si4 0.858871 0.352769 0.763416
Si Si5 0.837122 0.397059 0.145129
Si Si6 0.090468 0.633862 0.296750
O O1 0.787673 0.074307 0.395052
O O2 0.895350 0.276189 0.618397
O O3 0.822296 0.300393 0.303055
O O4 0.029866 0.286046 0.333578
O O5 0.318101 0.394638 0.822006
O O6 0.151512 0.538096 0.309076
O O7 0.249387 0.424130 0.498488
O O8 0.561417 0.054044 0.387248
O O9 0.588343 0.849268 0.490634
O O10 0.700068 0.283362 0.753943
O O11 0.882286 0.348482 0.972958
O O12 0.947858 0.540435 0.210271
#
# Coordination Sequence:
#
# PCOD9574445 Si02
#       6
#     3   3   3   3   3   3
#     4  11  25  43  63 102 134 174 225 277 336 405
#     4  11  26  43  67  99 132 182 227 268 339 406
#     4  12  24  43  66  99 138 177 220 281 334 401
#     4  12  20  34  66  95 136 165 206 275 341 388
#     4  11  22  35  63 101 131 170 210 272 344 395
#     4  11  25  44  65  96 137 176 226 273 332 401
#
# _framework density 19.908034000000001
#
# number of rings (size 3 to 8) (size 9 to 14) (size 15 to 20)
#    0.000    0.667    6.667    2.000    2.333    2.667 
#    0.000    1.667    0.000    0.000    0.000    0.000 
#    0.000    0.000    0.000    0.000    0.000    0.000 
#
# Total GULP energy -100554.608013 kJ/mol
# GULP energy per Si atom -5586.367112 kJ/mol
# Density = 1.986272 g / cm^3
# Si number density = 19.908034 Si / 1000 Ang^3
#
#
#
# Elastic Constant Matrix: (Units=GPa)
#
#
# Indices 1 2 3 4 5 6 
#
# 1 75.8137 32.2224 54.7582 8.2242 -2.9221 0.0000
# 2 32.2224 75.8137 54.7582 -8.2242 2.9221 0.0000
# 3 54.7582 54.7582 150.7353 0.0000 0.0000 0.0000
# 4 8.2242 -8.2242 0.0000 21.5722 0.0000 2.9221
# 5 -2.9221 2.9221 0.0000 0.0000 21.5722 8.2242
# 6 0.0000 0.0000 0.0000 2.9221 8.2242 21.7957
#
#
#
# Elastic Compliance Matrix: (Units=1/GPa)
#
#
# Indices 1 2 3 4 5 6 
#
# 1 0.021014 -0.006362 -0.005323 -0.010437 0.003708 0.000000
# 2 -0.006362 0.021014 -0.005323 0.010437 -0.003708 0.000000
# 3 -0.005323 -0.005323 0.010501 0.000000 0.000000 0.000000
# 4 -0.010437 0.010437 0.000000 0.055318 0.000000 -0.007416
# 5 0.003708 -0.003708 0.000000 0.000000 0.055318 -0.020873
# 6 0.000000 0.000000 0.000000 -0.007416 -0.020873 0.054751
#
#
# Mechanical properties :
#
#
# Convention : Reuss Voigt Hill
#
# Bulk Modulus (GPa) = 54.01226 65.09333 59.55280
# Shear Modulus (GPa) = 19.37219 23.69630 21.53424
#
# Velocity S-wave (km/s) = 3.12281 3.45380 3.29247
# Velocity P-wave (km/s) = 6.33975 6.97660 6.66578
#
# Compressibility (1/GPa) = 0.01851432
#
# Stress axis : x y z
#
# Youngs Moduli (GPa) = 47.58814 47.58814 95.22685
#
# Poissons Ratio (x) = 0.30275 0.50685
# Poissons Ratio (y) = 0.30275 0.50685
# Poissons Ratio (z) = 0.25329 0.25329
#
# Static dielectric constant tensor:
#      x y z
#    x 1.717980 0.000000 0.000000 
#    y 0.000000 1.717980 0.000000 
#    z 0.000000 0.000000 1.715100 
# 
# From -- ./inp_files/364.got.cif
#   From: 2010.05.17/outbox.cif.g08.bks.cpg/sg144_cif.got.tgz:364.got - 2010.05.20 13:46:34.
