data_PCOD9574432
_publ_section_title
;
Structure prediction by ZEFSAII (Michael W. Deem and Ramdas Pophale) SiO2 
 PCOD9574432
Probable space group: P 31
;
_chemical_formula_sum "Si O2"
_cell_formula_units_Z 15
_cell_length_a 11.280717
_cell_length_b 11.280717
_cell_length_c 7.863245
_cell_angle_alpha 90.000000
_cell_angle_beta 90.000000
_cell_angle_gamma 120.000000
_cell_volume 866.574385
_symmetry_space_group_name_H-M "P 31"
_symmetry_group_IT_number 144
_symmetry_cell_setting 'hexagonal'
loop_
_space_group_symop_operation_xyz
x,y,z
-y,x-y,1/3+z
-x+y,-x,2/3+z
loop_
_atom_site_type_symbol
_atom_site_label
_atom_site_fract_x
_atom_site_fract_y
_atom_site_fract_z
Si Si1 0.031328 0.246635 0.382680
Si Si2 0.753365 0.968669 0.406852
Si Si3 0.462948 0.874237 0.538103
Si Si4 0.181248 0.818752 0.394766
Si Si5 0.462948 0.588708 0.584764
O O1 0.111392 0.222786 0.228100
O O2 0.110486 0.273031 0.561603
O O3 0.041175 0.390800 0.339063
O O4 0.880214 0.119784 0.394767
O O5 0.609199 0.958820 0.450468
O O6 0.726971 0.889512 0.227929
O O7 0.340690 0.873674 0.435747
O O8 0.438577 0.719287 0.561435
O O9 0.462227 0.924452 0.728099
O O10 0.126321 0.659309 0.353787
#
# Coordination Sequence:
#
# PCOD9574432 Si02
#       5
#     3   3   3   3   3
#     4  11  25  38  57  91 129 163 206 250 315 380
#     4  11  25  38  57  91 129 163 206 250 315 380
#     4  11  18  36  64  97 118 146 204 264 312 356
#     4  12  20  38  72  88 120 162 204 270 312 356
#     4  11  18  36  64  97 118 146 204 264 312 356
#
# _framework density 17.309536000000001
#
# number of rings (size 3 to 8) (size 9 to 14) (size 15 to 20)
#    0.000    0.800   10.000    1.200    2.800    0.000 
#    0.000    0.000    0.000    9.600    0.000    0.000 
#    0.000    0.000    0.000    0.000    0.000    0.000 
#
# Total GULP energy -83746.200972 kJ/mol
# GULP energy per Si atom -5583.080065 kJ/mol
# Density = 1.727014 g / cm^3
# Si number density = 17.309536 Si / 1000 Ang^3
#
#
#
# Elastic Constant Matrix: (Units=GPa)
#
#
# Indices 1 2 3 4 5 6 
#
# 1 97.4838 46.8056 57.2727 0.0001 1.1465 0.0000
# 2 46.8056 97.4838 57.2727 -0.0001 -1.1465 0.0000
# 3 57.2727 57.2727 159.7937 0.0000 0.0000 0.0000
# 4 0.0001 -0.0001 0.0000 8.1317 0.0000 -1.1465
# 5 1.1465 -1.1465 0.0000 0.0000 8.1317 0.0001
# 6 0.0000 0.0000 0.0000 -1.1465 0.0001 25.3391
#
#
#
# Elastic Compliance Matrix: (Units=1/GPa)
#
#
# Indices 1 2 3 4 5 6 
#
# 1 0.014773 -0.005086 -0.003472 0.000000 -0.002800 0.000000
# 2 -0.005086 0.014773 -0.003472 0.000000 0.002800 0.000000
# 3 -0.003472 -0.003472 0.008747 0.000000 0.000000 0.000000
# 4 0.000000 0.000000 0.000000 0.123765 0.000000 0.005600
# 5 -0.002800 0.002800 0.000000 0.000000 0.123765 0.000000
# 6 0.000000 0.000000 0.000000 0.005600 0.000000 0.039718
#
#
# Mechanical properties :
#
#
# Convention : Reuss Voigt Hill
#
# Bulk Modulus (GPa) = 70.26063 75.27371 72.76717
# Shear Modulus (GPa) = 14.11054 21.21452 17.66253
#
# Velocity S-wave (km/s) = 2.85825 3.50465 3.19782
# Velocity P-wave (km/s) = 7.18134 7.74326 7.46758
#
# Compressibility (1/GPa) = 0.01423272
#
# Stress axis : x y z
#
# Youngs Moduli (GPa) = 67.69170 67.69170 114.32714
#
# Poissons Ratio (x) = 0.34429 0.39693
# Poissons Ratio (y) = 0.34429 0.39693
# Poissons Ratio (z) = 0.23502 0.23502
#
# Static dielectric constant tensor:
#      x y z
#    x 1.575820 0.000000 0.000000 
#    y 0.000000 1.575820 0.000000 
#    z 0.000000 0.000000 1.636970 
# 
# From -- ./inp_files/277.got.cif
#   From: 2010.05.17/outbox.cif.g08.bks.cpg/sg144_cif.got.tgz:277.got - 2010.05.20 13:46:34.
