data_PCOD9574864
_publ_section_title
;
Structure prediction by ZEFSAII (Michael W. Deem and Ramdas Pophale) SiO2 
 PCOD9574864
Probable space group: P -3
;
_chemical_formula_sum "Si O2"
_cell_formula_units_Z 48
_cell_length_a 18.772916
_cell_length_b 18.772916
_cell_length_c 9.239921
_cell_angle_alpha 90.000000
_cell_angle_beta 90.000000
_cell_angle_gamma 120.000000
_cell_volume 2820.086071
_symmetry_space_group_name_H-M "P -3"
_symmetry_group_IT_number 147
_symmetry_cell_setting 'hexagonal'
loop_
_space_group_symop_operation_xyz
x,y,z
-y,x-y,z
-x+y,-x,z
-x,-y,-z
y,-x+y,-z
x-y,x,-z
loop_
_atom_site_type_symbol
_atom_site_label
_atom_site_fract_x
_atom_site_fract_y
_atom_site_fract_z
Si Si1 0.650758 0.095563 0.328159
Si Si2 0.243178 0.907652 0.429460
Si Si3 0.584778 0.094308 0.842342
Si Si4 0.555195 0.904437 0.328159
Si Si5 0.411732 0.186112 0.160048
Si Si6 0.415222 0.509530 0.842342
Si Si7 0.907652 0.243178 0.429460
Si Si8 0.813888 0.588268 0.839952
O O1 0.684814 0.103735 0.492234
O O2 0.728825 0.162815 0.238706
O O3 0.574639 0.107432 0.283847
O O4 0.618703 0.000000 0.285448
O O5 0.158582 0.841418 0.500000
O O6 0.233758 0.886546 0.261441
O O7 0.267325 0.000000 0.458561
O O8 0.532793 0.107432 0.716153
O O9 0.679698 0.163963 0.845512
O O10 0.565824 1.000000 0.824711
O O11 0.548051 0.096102 0.000000
O O12 0.581079 0.896265 0.492234
O O13 0.566009 0.837185 0.238706
O O14 0.484265 0.163963 0.154488
O O15 0.347212 0.113454 0.261441
O O16 0.384276 0.192138 0.000000
#
# Coordination Sequence:
#
# PCOD9574864 Si02
#       8
#     6   6   6   6   6   6   6   6
#     4   9  19  36  52  70 101 140 176 222 273 321
#     4   9  19  35  56  80 107 137 178 224 273 328
#     4  10  19  32  50  73 104 140 180 221 272 327
#     4   9  19  36  52  70 101 140 176 222 273 321
#     4  11  20  31  50  77 102 134 180 226 266 319
#     4  10  19  32  50  73 104 140 180 221 272 327
#     4   9  19  35  56  80 107 137 178 224 273 328
#     4  11  20  31  50  77 102 134 180 226 266 319
#
# _framework density 17.020755000000001
#
# number of rings (size 3 to 8) (size 9 to 14) (size 15 to 20)
#    0.000    2.250    2.500    0.750    0.000    2.000 
#    1.500    5.000    0.000    0.250    0.000    0.000 
#    0.000    1.000    0.000    0.000    0.000    0.000 
#
# Total GULP energy -267233.295468 kJ/mol
# GULP energy per Si atom -5567.360322 kJ/mol
# Density = 1.698202 g / cm^3
# Si number density = 17.020755 Si / 1000 Ang^3
#
#
#
# Elastic Constant Matrix: (Units=GPa)
#
#
# Indices 1 2 3 4 5 6 
#
# 1 77.8183 39.3884 35.0245 0.0000 -1.6415 0.0000
# 2 39.3884 77.8183 35.0245 0.0000 1.6415 0.0000
# 3 35.0245 35.0245 95.8544 0.0000 0.0000 0.0000
# 4 0.0000 0.0000 0.0000 16.9541 0.0000 1.6415
# 5 -1.6415 1.6415 0.0000 0.0000 16.9541 0.0000
# 6 0.0000 0.0000 0.0000 1.6415 0.0000 19.2149
#
#
#
# Elastic Compliance Matrix: (Units=1/GPa)
#
#
# Indices 1 2 3 4 5 6 
#
# 1 0.018577 -0.007661 -0.003989 0.000000 0.002540 0.000000
# 2 -0.007661 0.018577 -0.003989 0.000000 -0.002540 0.000000
# 3 -0.003989 -0.003989 0.013347 0.000000 0.000000 0.000000
# 4 0.000000 0.000000 0.000000 0.059475 0.000000 -0.005081
# 5 0.002540 -0.002540 0.000000 0.000000 0.059475 0.000000
# 6 0.000000 0.000000 0.000000 -0.005081 0.000000 0.052477
#
#
# Mechanical properties :
#
#
# Convention : Reuss Voigt Hill
#
# Bulk Modulus (GPa) = 52.01681 52.26287 52.13984
# Shear Modulus (GPa) = 19.25947 20.09487 19.67717
#
# Velocity S-wave (km/s) = 3.36747 3.43973 3.40379
# Velocity P-wave (km/s) = 6.76365 6.82259 6.79318
#
# Compressibility (1/GPa) = 0.01922455
#
# Stress axis : x y z
#
# Youngs Moduli (GPa) = 53.82980 53.82980 74.92192
#
# Poissons Ratio (x) = 0.41241 0.29883
# Poissons Ratio (y) = 0.41241 0.29883
# Poissons Ratio (z) = 0.21470 0.21470
#
# Static dielectric constant tensor:
#      x y z
#    x 1.567430 0.000000 0.000000 
#    y 0.000000 1.567430 0.000000 
#    z 0.000000 0.000000 1.628160 
# 
# From -- ./inp_files/689.got.cif
#   From: 2010.05.17/outbox.cif.g08.bks.cpg/sg147_cif.got.tgz:689.got - 2010.05.20 13:49:32.
