data_PCOD9574230
_publ_section_title
;
Structure prediction by ZEFSAII (Michael W. Deem and Ramdas Pophale) SiO2 
 PCOD9574230
Probable space group: I 41/A C D
;
_chemical_formula_sum "Si O2"
_cell_formula_units_Z 120
_cell_length_a 24.301322
_cell_length_b 24.301322
_cell_length_c 8.307467
_cell_angle_alpha 90.000000
_cell_angle_beta 90.000000
_cell_angle_gamma 90.000000
_cell_volume 4906.009951
_symmetry_space_group_name_H-M "I 41/A C D"
_symmetry_group_IT_number 142
_space_group.IT_coordinate_system_code '2'
_symmetry_cell_setting 'tetragonal'
loop_
_space_group_symop_operation_xyz
x,y,z
1/4-y,3/4+x,1/4+z
-x,1/2-y,z
1/4+y,1/4-x,3/4+z
x,-y,1/2-z
1/2-x,y,-z
3/4+y,1/4+x,1/4-z
1/4-y,1/4-x,1/4-z
-x,-y,-z
3/4+y,1/4-x,3/4-z
x,1/2+y,-z
3/4-y,3/4+x,1/4-z
-x,y,1/2+z
1/2+x,-y,z
1/4-y,3/4-x,3/4+z
3/4+y,3/4+x,3/4+z
1/2+x,1/2+y,1/2+z
3/4-y,1/4+x,3/4+z
1/2-x,-y,1/2+z
3/4+y,3/4-x,1/4+z
1/2+x,1/2-y,-z
-x,1/2+y,1/2-z
1/4+y,3/4+x,3/4-z
3/4-y,3/4-x,3/4-z
1/2-x,1/2-y,1/2-z
1/4+y,3/4-x,1/4-z
1/2+x,y,1/2-z
1/4-y,1/4+x,3/4-z
1/2-x,1/2+y,z
x,1/2-y,1/2+z
3/4-y,1/4-x,1/4+z
1/4+y,1/4+x,1/4+z
loop_
_atom_site_type_symbol
_atom_site_label
_atom_site_fract_x
_atom_site_fract_y
_atom_site_fract_z
Si Si1 0.589081 0.500000 0.250000
Si Si2 0.017953 0.925030 0.275170
Si Si3 0.874072 0.034478 0.594678
Si Si4 0.000000 0.250000 0.375000
Si Si5 0.546947 0.642081 0.019345
O O1 0.543007 0.549223 0.240573
O O2 0.625898 0.510363 0.411619
O O3 0.060284 0.960932 0.375135
O O4 0.007237 0.871143 0.379074
O O5 0.046926 0.905459 0.112772
O O6 0.842573 0.092573 0.625000
O O7 0.852788 0.000000 0.750000
O O8 0.962692 0.297278 0.453210
O O9 0.601828 0.648173 0.125000
#
# Coordination Sequence:
#
# PCOD9574230 Si02
#       5
#    16  32  32   8  32
#     4  12  26  56  82 112 158 200 256 332 396 478
#     4  12  25  47  73 109 154 204 263 316 387 473
#     4  12  29  52  82 117 150 202 266 332 407 477
#     4  12  26  40  54 104 170 200 246 300 366 460
#     4  12  26  38  66 102 155 213 254 309 375 460
#
# _framework density 24.459796000000001
#
# number of rings (size 3 to 8) (size 9 to 14) (size 15 to 20)
#    0.000    0.000    6.667    2.800    7.467    1.067 
#    2.400    0.000    0.000    0.000    0.000    0.000 
#    0.000    0.000    0.000    0.000    0.000    0.000 
#
# Total GULP energy -334438.149711 kJ/mol
# GULP energy per Si atom -5573.969162 kJ/mol
# Density = 2.440412 g / cm^3
# Si number density = 24.459796 Si / 1000 Ang^3
#
#
#
# Elastic Constant Matrix: (Units=GPa)
#
#
# Indices 1 2 3 4 5 6 
#
# 1 60.7199 -0.9158 31.2126 0.0000 0.0000 0.0000
# 2 -0.9158 60.7191 31.2125 0.0000 0.0000 0.0000
# 3 31.2126 31.2125 187.8874 0.0000 0.0000 0.0000
# 4 0.0000 0.0000 0.0000 46.7446 0.0000 0.0000
# 5 0.0000 0.0000 0.0000 0.0000 46.7459 0.0000
# 6 0.0000 0.0000 0.0000 0.0000 0.0000 20.1728
#
#
#
# Elastic Compliance Matrix: (Units=1/GPa)
#
#
# Indices 1 2 3 4 5 6 
#
# 1 0.018227 0.002002 -0.003361 0.000000 0.000000 0.000000
# 2 0.002002 0.018227 -0.003361 0.000000 0.000000 0.000000
# 3 -0.003361 -0.003361 0.006439 0.000000 0.000000 0.000000
# 4 0.000000 0.000000 0.000000 0.021393 0.000000 0.000000
# 5 0.000000 0.000000 0.000000 0.000000 0.021392 0.000000
# 6 0.000000 0.000000 0.000000 0.000000 0.000000 0.049572
#
#
# Mechanical properties :
#
#
# Convention : Reuss Voigt Hill
#
# Bulk Modulus (GPa) = 29.89082 48.03834 38.96458
# Shear Modulus (GPa) = 32.08450 39.25381 35.66915
#
# Velocity S-wave (km/s) = 3.62570 4.01038 3.82288
# Velocity P-wave (km/s) = 5.45660 6.41300 5.95404
#
# Compressibility (1/GPa) = 0.03345509
#
# Stress axis : x y z
#
# Youngs Moduli (GPa) = 54.86454 54.86375 155.30674
#
# Poissons Ratio (x) = -0.10986 0.52191
# Poissons Ratio (y) = -0.10986 0.52192
# Poissons Ratio (z) = 0.18437 0.18437
#
# Static dielectric constant tensor:
#      x y z
#    x 1.991990 0.000000 0.000000 
#    y 0.000000 1.991990 0.000000 
#    z 0.000000 0.000000 2.191160 
# 
# From -- ./inp_files/1883.got.cif
#   From: 2010.05.17/outbox.cif.g08.bks.cpg/sg142_1_cif.got.tgz:1883.got - 2010.05.20 13:39:18.
