data_PCOD9574809
_publ_section_title
;
Structure prediction by ZEFSAII (Michael W. Deem and Ramdas Pophale) SiO2 
 PCOD9574809
Probable space group: R 3
;
_chemical_formula_sum "Si O2"
_cell_formula_units_Z 33
_cell_length_a 14.402385
_cell_length_b 14.402385
_cell_length_c 6.798860
_cell_angle_alpha 90.000000
_cell_angle_beta 90.000000
_cell_angle_gamma 120.000000
_cell_volume 1221.337136
_symmetry_space_group_name_H-M "R 3"
_symmetry_group_IT_number 146
_symmetry_cell_setting 'hexagonal'
loop_
_space_group_symop_operation_xyz
x,y,z
-y,x-y,z
-x+y,-x,z
2/3+x,1/3+y,1/3+z
2/3-y,1/3+x-y,1/3+z
2/3-x+y,1/3-x,1/3+z
1/3+x,2/3+y,2/3+z
1/3-y,2/3+x-y,2/3+z
1/3-x+y,2/3-x,2/3+z
loop_
_atom_site_type_symbol
_atom_site_label
_atom_site_fract_x
_atom_site_fract_y
_atom_site_fract_z
Si Si1 0.189850 0.228733 0.144330
Si Si2 0.174221 0.748930 0.428572
Si Si3 0.666668 0.333335 0.060916
Si Si4 0.386133 0.086849 0.275820
Si Si5 0.333334 0.666668 0.866991
O O1 0.421666 0.425891 0.959408
O O2 0.131239 0.262151 0.980522
O O3 0.101326 0.116995 0.246600
O O4 0.255972 0.200497 0.988229
O O5 0.231148 0.682263 0.347367
O O6 0.280181 0.863992 0.459234
O O7 0.666668 0.333334 0.297183
O O8 0.277670 0.013696 0.161066
#
# Coordination Sequence:
#
# PCOD9574809 Si02
#       5
#     9   9   3   9   3
#     4  11  22  46  89 123 169 231 295 356 431 517
#     4  11  22  46  89 123 169 231 295 356 431 517
#     4   9  18  42  87 117 161 227 286 351 433 509
#     4  12  24  44  82 126 164 224 290 352 434 504
#     4   9  18  42  87 117 161 227 286 351 433 509
#
# _framework density 27.019568
#
# number of rings (size 3 to 8) (size 9 to 14) (size 15 to 20)
#    0.000    1.091   10.909    0.000    0.000    0.000 
#    0.000    5.455   36.000    0.000    0.000    0.000 
#    0.000    0.000    0.000    0.000    0.000    0.000 
#
# Total GULP energy -61447.713453 kJ/mol
# GULP energy per Si atom -5586.155768 kJ/mol
# Density = 2.695807 g / cm^3
# Si number density = 27.019568 Si / 1000 Ang^3
#
#
#
# Elastic Constant Matrix: (Units=GPa)
#
#
# Indices 1 2 3 4 5 6 
#
# 1 121.9888 55.1750 61.9143 -14.1536 1.1148 0.0005
# 2 55.1750 121.9907 61.9139 14.1538 -1.1148 0.0008
# 3 61.9143 61.9139 152.9642 0.0000 0.0004 0.0007
# 4 -14.1536 14.1538 0.0000 45.8045 -0.0002 -1.1144
# 5 1.1148 -1.1148 0.0004 -0.0002 45.8050 -14.1535
# 6 0.0005 0.0008 0.0007 -1.1144 -14.1535 33.4076
#
#
#
# Elastic Compliance Matrix: (Units=1/GPa)
#
#
# Indices 1 2 3 4 5 6 
#
# 1 0.012554 -0.004683 -0.003186 0.005326 -0.000419 0.000000
# 2 -0.004683 0.012554 -0.003186 -0.005326 0.000419 0.000000
# 3 -0.003186 -0.003186 0.009117 0.000000 0.000000 0.000000
# 4 0.005326 -0.005326 0.000000 0.025144 0.000000 0.000839
# 5 -0.000419 0.000419 0.000000 0.000000 0.025144 0.010652
# 6 0.000000 0.000000 0.000000 0.000839 0.010652 0.034474
#
#
# Mechanical properties :
#
#
# Convention : Reuss Voigt Hill
#
# Bulk Modulus (GPa) = 82.54087 83.88335 83.21211
# Shear Modulus (GPa) = 34.45050 39.53279 36.99165
#
# Velocity S-wave (km/s) = 3.57462 3.82922 3.70411
# Velocity P-wave (km/s) = 6.90305 7.11782 7.01126
#
# Compressibility (1/GPa) = 0.01211521
#
# Stress axis : x y z
#
# Youngs Moduli (GPa) = 79.65280 79.65463 109.68977
#
# Poissons Ratio (x) = 0.37303 0.34948
# Poissons Ratio (y) = 0.37302 0.34946
# Poissons Ratio (z) = 0.25378 0.25377
#
# Static dielectric constant tensor:
#      x y z
#    x 2.168830 -0.000010 0.000000 
#    y -0.000010 2.168830 0.000000 
#    z 0.000000 0.000000 2.062490 
# 
# From -- ./inp_files/563.got.cif
#   From: 2010.05.17/outbox.cif.g08.bks.cpg/sg146_cif.got.tgz:563.got - 2010.05.20 13:48:23.
