data_PCOD9574326
_publ_section_title
;
Structure prediction by ZEFSAII (Michael W. Deem and Ramdas Pophale) SiO2 
 PCOD9574326
Probable space group: P 31
;
_chemical_formula_sum "Si O2"
_cell_formula_units_Z 15
_cell_length_a 11.718902
_cell_length_b 11.718902
_cell_length_c 5.330410
_cell_angle_alpha 90.000000
_cell_angle_beta 90.000000
_cell_angle_gamma 120.000000
_cell_volume 633.964722
_symmetry_space_group_name_H-M "P 31"
_symmetry_group_IT_number 144
_symmetry_cell_setting 'hexagonal'
loop_
_space_group_symop_operation_xyz
x,y,z
-y,x-y,1/3+z
-x+y,-x,2/3+z
loop_
_atom_site_type_symbol
_atom_site_label
_atom_site_fract_x
_atom_site_fract_y
_atom_site_fract_z
Si Si1 0.462396 0.777623 0.862180
Si Si2 0.061884 0.135069 0.955751
Si Si3 0.062325 0.493791 0.807378
Si Si4 0.852802 0.194157 0.770590
Si Si5 0.946750 0.648374 0.610558
O O1 0.427827 0.675046 0.637235
O O2 0.505177 0.910823 0.706283
O O3 0.515978 0.707725 0.058469
O O4 0.201057 0.262168 0.994982
O O5 0.971913 0.071758 0.194916
O O6 0.966424 0.152575 0.762800
O O7 0.938687 0.348565 0.834261
O O8 0.017850 0.562225 0.596649
O O9 0.770976 0.154454 0.510702
O O10 0.762559 0.120606 0.010948
#
# Coordination Sequence:
#
# PCOD9574326 Si02
#       5
#     3   3   3   3   3
#     4   9  22  40  68 110 136 188 227 324 384 421
#     4  10  20  40  66  98 134 168 238 296 358 418
#     4  11  26  46  74 106 152 184 261 298 388 443
#     4  11  27  45  71 105 141 201 237 303 362 441
#     4  11  27  45  71 105 141 201 237 303 362 441
#
# _framework density 23.660623000000001
#
# number of rings (size 3 to 8) (size 9 to 14) (size 15 to 20)
#    0.000    1.600    2.000    0.000   14.000    3.200 
#    3.600    0.000    0.000    0.000    0.000    0.000 
#    0.000    0.000    0.000    0.000    0.000    0.000 
#
# Total GULP energy -83541.621881 kJ/mol
# GULP energy per Si atom -5569.441459 kJ/mol
# Density = 2.360677 g / cm^3
# Si number density = 23.660623 Si / 1000 Ang^3
#
#
#
# Elastic Constant Matrix: (Units=GPa)
#
#
# Indices 1 2 3 4 5 6 
#
# 1 94.9452 55.5639 30.3317 6.8909 -10.3023 0.0000
# 2 55.5639 94.9452 30.3317 -6.8909 10.3023 0.0000
# 3 30.3317 30.3317 124.1229 0.0000 0.0000 0.0000
# 4 6.8909 -6.8909 0.0000 22.1173 0.0000 10.3023
# 5 -10.3023 10.3023 0.0000 0.0000 22.1173 6.8909
# 6 0.0000 0.0000 0.0000 10.3023 6.8909 19.6907
#
#
#
# Elastic Compliance Matrix: (Units=1/GPa)
#
#
# Indices 1 2 3 4 5 6 
#
# 1 0.023301 -0.015931 -0.001801 -0.012223 0.018274 0.000000
# 2 -0.015931 0.023301 -0.001801 0.012223 -0.018274 0.000000
# 3 -0.001801 -0.001801 0.008937 0.000000 0.000000 0.000000
# 4 -0.012223 0.012223 0.000000 0.069854 0.000000 -0.036548
# 5 0.018274 -0.018274 0.000000 0.000000 0.069854 -0.024446
# 6 0.000000 0.000000 0.000000 -0.036548 -0.024446 0.078463
#
#
# Mechanical properties :
#
#
# Convention : Reuss Voigt Hill
#
# Bulk Modulus (GPa) = 60.70618 60.71865 60.71242
# Shear Modulus (GPa) = 15.71018 25.97079 20.84049
#
# Velocity S-wave (km/s) = 2.57958 3.31666 2.97106
# Velocity P-wave (km/s) = 5.88090 6.35492 6.12250
#
# Compressibility (1/GPa) = 0.01647279
#
# Stress axis : x y z
#
# Youngs Moduli (GPa) = 42.91724 42.91724 111.89753
#
# Poissons Ratio (x) = 0.68370 0.20153
# Poissons Ratio (y) = 0.68370 0.20153
# Poissons Ratio (z) = 0.07729 0.07729
#
# Static dielectric constant tensor:
#      x y z
#    x 1.959980 0.000000 0.000000 
#    y 0.000000 1.959980 0.000000 
#    z 0.000000 0.000000 1.945510 
# 
# From -- ./inp_files/66.got.cif
#   From: 2010.05.17/outbox.cif.g08.bks.cpg/sg144_cif.got.tgz:66.got - 2010.05.20 13:46:34.
