data_PCOD9574804
_publ_section_title
;
Structure prediction by ZEFSAII (Michael W. Deem and Ramdas Pophale) SiO2 
 PCOD9574804
Probable space group: R 3
;
_chemical_formula_sum "Si O2"
_cell_formula_units_Z 42
_cell_length_a 12.990904
_cell_length_b 12.990904
_cell_length_c 11.883978
_cell_angle_alpha 90.000000
_cell_angle_beta 90.000000
_cell_angle_gamma 120.000000
_cell_volume 1736.885613
_symmetry_space_group_name_H-M "R 3"
_symmetry_group_IT_number 146
_symmetry_cell_setting 'hexagonal'
loop_
_space_group_symop_operation_xyz
x,y,z
-y,x-y,z
-x+y,-x,z
2/3+x,1/3+y,1/3+z
2/3-y,1/3+x-y,1/3+z
2/3-x+y,1/3-x,1/3+z
1/3+x,2/3+y,2/3+z
1/3-y,2/3+x-y,2/3+z
1/3-x+y,2/3-x,2/3+z
loop_
_atom_site_type_symbol
_atom_site_label
_atom_site_fract_x
_atom_site_fract_y
_atom_site_fract_z
Si Si1 0.333334 0.666667 0.594396
Si Si2 0.210223 0.789701 0.252272
Si Si3 0.056834 0.519964 0.300379
Si Si4 0.424269 0.138699 0.194859
Si Si5 0.307998 0.849701 0.000010
Si Si6 0.666667 0.333335 0.529397
O O1 0.201732 0.599793 0.547255
O O2 0.333334 0.666667 0.729295
O O3 0.103726 0.656607 0.271958
O O4 0.331994 0.825757 0.318307
O O5 0.266948 0.804773 0.126920
O O6 0.182734 0.893031 0.294250
O O7 0.010127 0.474852 0.425998
O O8 0.966347 0.425593 0.208332
O O9 0.344506 0.109120 0.304596
O O10 0.279985 0.741224 0.919834
#
# Coordination Sequence:
#
# PCOD9574804 Si02
#       6
#     3   9   9   9   9   3
#     4  12  24  42  64  95 139 186 231 288 349 413
#     4  11  22  41  68 100 136 181 230 286 347 414
#     4  11  22  41  68 100 136 181 230 286 347 414
#     4  11  24  43  67  99 137 181 232 288 347 413
#     4  11  24  43  67  99 137 181 232 288 347 413
#     4  12  24  42  64  95 139 186 231 288 349 413
#
# _framework density 24.181213
#
# number of rings (size 3 to 8) (size 9 to 14) (size 15 to 20)
#    0.000    0.857    0.000   10.714    0.000    1.714 
#    0.000    8.571    0.000    7.714    0.000    0.000 
#    0.000    0.000    0.000    0.000    0.000    0.000 
#
# Total GULP energy -78003.986821 kJ/mol
# GULP energy per Si atom -5571.713344 kJ/mol
# Density = 2.412618 g / cm^3
# Si number density = 24.181213 Si / 1000 Ang^3
#
#
#
# Elastic Constant Matrix: (Units=GPa)
#
#
# Indices 1 2 3 4 5 6 
#
# 1 54.0278 21.6951 10.3429 10.1849 -1.5493 0.0000
# 2 21.6951 54.0280 10.3430 -10.1843 1.5498 -0.0003
# 3 10.3429 10.3430 133.3491 0.0001 -0.0003 0.0002
# 4 10.1849 -10.1843 0.0001 28.7754 0.0002 1.5493
# 5 -1.5493 1.5498 -0.0003 0.0002 28.7752 10.1847
# 6 0.0000 -0.0003 0.0002 1.5493 10.1847 16.1661
#
#
#
# Elastic Compliance Matrix: (Units=1/GPa)
#
#
# Indices 1 2 3 4 5 6 
#
# 1 0.026781 -0.013289 -0.001046 -0.014182 0.002158 -0.000001
# 2 -0.013289 0.026781 -0.001046 0.014182 -0.002158 0.000001
# 3 -0.001046 -0.001046 0.007661 0.000000 0.000000 0.000000
# 4 -0.014182 0.014182 0.000000 0.045023 -0.000001 -0.004314
# 5 0.002158 -0.002158 0.000000 -0.000001 0.045024 -0.028365
# 6 -0.000001 0.000001 0.000000 -0.004314 -0.028365 0.080141
#
#
# Mechanical properties :
#
#
# Convention : Reuss Voigt Hill
#
# Bulk Modulus (GPa) = 32.83063 36.24076 34.53569
# Shear Modulus (GPa) = 18.36020 28.01161 23.18590
#
# Velocity S-wave (km/s) = 2.75848 3.40723 3.09987
# Velocity P-wave (km/s) = 4.87361 5.52255 5.20820
#
# Compressibility (1/GPa) = 0.03045936
#
# Stress axis : x y z
#
# Youngs Moduli (GPa) = 37.34006 37.34052 130.52361
#
# Poissons Ratio (x) = 0.49621 0.13659
# Poissons Ratio (y) = 0.49621 0.13659
# Poissons Ratio (z) = 0.03907 0.03908
#
# Static dielectric constant tensor:
#      x y z
#    x 1.965330 0.000000 0.000000 
#    y 0.000000 1.965330 0.000000 
#    z 0.000000 0.000000 2.051940 
# 
# From -- ./inp_files/1116.got.cif
#   From: 2010.05.17/outbox.cif.g08.bks.cpg/sg146_cif.got.tgz:1116.got - 2010.05.20 13:48:23.
