data_PCOD9574822
_publ_section_title
;
Structure prediction by ZEFSAII (Michael W. Deem and Ramdas Pophale) SiO2 
 PCOD9574822
Probable space group: R 3
;
_chemical_formula_sum "Si O2"
_cell_formula_units_Z 42
_cell_length_a 10.463148
_cell_length_b 10.463148
_cell_length_c 20.367879
_cell_angle_alpha 90.000000
_cell_angle_beta 90.000000
_cell_angle_gamma 120.000000
_cell_volume 1931.084041
_symmetry_space_group_name_H-M "R 3"
_symmetry_group_IT_number 146
_symmetry_cell_setting 'hexagonal'
loop_
_space_group_symop_operation_xyz
x,y,z
-y,x-y,z
-x+y,-x,z
2/3+x,1/3+y,1/3+z
2/3-y,1/3+x-y,1/3+z
2/3-x+y,1/3-x,1/3+z
1/3+x,2/3+y,2/3+z
1/3-y,2/3+x-y,2/3+z
1/3-x+y,2/3-x,2/3+z
loop_
_atom_site_type_symbol
_atom_site_label
_atom_site_fract_x
_atom_site_fract_y
_atom_site_fract_z
Si Si1 0.544734 0.397987 0.699950
Si Si2 0.689774 0.939668 0.162261
Si Si3 0.000000 0.000000 0.978904
Si Si4 0.083435 0.726994 0.624571
Si Si5 0.397984 0.544731 0.420216
Si Si6 0.666668 0.333335 0.474586
O O1 0.509872 0.229604 0.689983
O O2 0.501718 0.418509 0.772952
O O3 0.439871 0.423787 0.652541
O O4 0.602207 0.935532 0.226751
O O5 0.757113 0.106534 0.134293
O O6 0.833034 0.922458 0.167808
O O7 0.166968 0.089428 0.952350
O O8 0.000000 0.000000 0.060078
O O9 0.085176 0.835046 0.680548
O O10 0.490128 0.719729 0.430182
#
# Coordination Sequence:
#
# PCOD9574822 Si02
#       6
#     9   9   3   9   9   3
#     4   9  22  43  65  92 130 166 211 258 322 376
#     4  11  25  42  67  97 127 168 216 267 314 376
#     4  12  24  45  63  99 129 171 211 257 328 384
#     4  11  25  42  67  97 127 168 216 267 314 376
#     4   9  22  43  65  92 130 166 211 258 322 376
#     4  12  24  45  63  99 129 171 211 257 328 384
#
# _framework density 21.74944
#
# number of rings (size 3 to 8) (size 9 to 14) (size 15 to 20)
#    0.857    0.857    4.286    0.000    6.000    8.571 
#    0.000    0.000    0.000    0.000    0.000    0.000 
#    0.000    0.000    0.000    0.000    0.000    0.000 
#
# Total GULP energy -78131.393310 kJ/mol
# GULP energy per Si atom -5580.813808 kJ/mol
# Density = 2.169994 g / cm^3
# Si number density = 21.749440 Si / 1000 Ang^3
#
#
#
# Elastic Constant Matrix: (Units=GPa)
#
#
# Indices 1 2 3 4 5 6 
#
# 1 63.8993 -6.3989 -18.6147 7.6082 -0.0013 -0.0006
# 2 -6.3989 63.9004 -18.6146 -7.6084 0.0015 -0.0004
# 3 -18.6147 -18.6146 40.4669 -0.0001 -0.0001 -0.0001
# 4 7.6082 -7.6084 -0.0001 4.6743 -0.0001 0.0014
# 5 -0.0013 0.0015 -0.0001 -0.0001 4.6744 7.6086
# 6 -0.0006 -0.0004 -0.0001 0.0014 7.6086 35.1494
#
#
#
# Elastic Compliance Matrix: (Units=1/GPa)
#
#
# Indices 1 2 3 4 5 6 
#
# 1 0.023365 0.001402 0.011393 -0.035748 0.000003 0.000001
# 2 0.001402 0.023365 0.011393 0.035750 -0.000006 0.000000
# 3 0.011393 0.011393 0.035193 0.000002 -0.000001 0.000001
# 4 -0.035748 0.035750 0.000002 0.330312 0.000016 -0.000017
# 5 0.000003 -0.000006 -0.000001 0.000016 0.330316 -0.071502
# 6 0.000001 0.000000 0.000001 -0.000017 -0.071502 0.043928
#
#
# Mechanical properties :
#
#
# Convention : Reuss Voigt Hill
#
# Bulk Modulus (GPa) = 7.67461 9.00113 8.33787
# Shear Modulus (GPa) = 6.39766 23.02594 14.71180
#
# Velocity S-wave (km/s) = 1.71695 3.25728 2.60363
# Velocity P-wave (km/s) = 2.73256 4.27716 3.58894
#
# Compressibility (1/GPa) = 0.13029978
#
# Stress axis : x y z
#
# Youngs Moduli (GPa) = 42.79839 42.79871 28.41472
#
# Poissons Ratio (x) = -0.06001 -0.32373
# Poissons Ratio (y) = -0.06001 -0.32373
# Poissons Ratio (z) = -0.48760 -0.48761
#
# Static dielectric constant tensor:
#      x y z
#    x 1.769400 0.000000 0.000000 
#    y 0.000000 1.769390 0.000000 
#    z 0.000000 0.000000 1.801950 
# 
# From -- ./inp_files/1897.got.cif
#   From: 2010.05.17/outbox.cif.g08.bks.cpg/sg146_cif.got.tgz:1897.got - 2010.05.20 13:48:23.
