data_PCOD9574327
_publ_section_title
;
Structure prediction by ZEFSAII (Michael W. Deem and Ramdas Pophale) SiO2 
 PCOD9574327
Probable space group: P 31
;
_chemical_formula_sum "Si O2"
_cell_formula_units_Z 24
_cell_length_a 9.104954
_cell_length_b 9.104954
_cell_length_c 13.961696
_cell_angle_alpha 90.000000
_cell_angle_beta 90.000000
_cell_angle_gamma 120.000000
_cell_volume 1002.361370
_symmetry_space_group_name_H-M "P 31"
_symmetry_group_IT_number 144
_symmetry_cell_setting 'hexagonal'
loop_
_space_group_symop_operation_xyz
x,y,z
-y,x-y,1/3+z
-x+y,-x,2/3+z
loop_
_atom_site_type_symbol
_atom_site_label
_atom_site_fract_x
_atom_site_fract_y
_atom_site_fract_z
Si Si1 0.748780 0.020051 0.841660
Si Si2 0.251906 0.009321 0.872142
Si Si3 0.115589 0.220016 0.781767
Si Si4 0.937531 0.134970 0.580684
Si Si5 0.275095 0.699762 0.922894
Si Si6 0.132938 0.560537 0.458394
Si Si7 0.850311 0.431872 0.324266
Si Si8 0.482066 0.386008 0.312026
O O1 0.647183 0.041717 0.929071
O O2 0.671831 0.052962 0.746354
O O3 0.950338 0.155462 0.849087
O O4 0.770048 0.853011 0.834445
O O5 0.210978 0.109674 0.791328
O O6 0.419041 0.133499 0.933086
O O7 0.272236 0.844379 0.854552
O O8 0.068431 0.923176 0.923303
O O9 0.252902 0.409774 0.800342
O O10 0.040167 0.204731 0.677507
O O11 0.776919 0.159095 0.576511
O O12 0.423086 0.668125 0.884079
O O13 0.323981 0.775581 0.029351
O O14 0.080675 0.547914 0.934674
O O15 0.936875 0.449643 0.427332
O O16 0.666999 0.413599 0.328551
#
# Coordination Sequence:
#
# PCOD9574327 Si02
#       8
#     3   3   3   3   3   3   3   3
#     4  10  21  39  69  94 135 188 221 288 349 417
#     4   9  22  42  64  98 131 178 234 279 346 412
#     4  10  20  41  66  96 132 180 234 272 354 407
#     4   9  19  43  68  96 135 186 228 280 345 432
#     4  10  24  45  68  99 140 189 234 285 353 419
#     4  11  24  42  67 100 136 186 238 283 347 415
#     4  11  23  41  66 101 138 174 234 290 354 402
#     4  10  23  43  70 102 141 181 235 293 350 412
#
# _framework density 23.943462
#
# number of rings (size 3 to 8) (size 9 to 14) (size 15 to 20)
#    0.000    2.000    1.250    0.750    5.250    0.000 
#   11.250    5.000    0.000    1.500    0.000    0.000 
#    0.000    0.000    0.000    0.000    0.000    0.000 
#
# Total GULP energy -133851.307714 kJ/mol
# GULP energy per Si atom -5577.137821 kJ/mol
# Density = 2.388897 g / cm^3
# Si number density = 23.943462 Si / 1000 Ang^3
#
#
#
# Elastic Constant Matrix: (Units=GPa)
#
#
# Indices 1 2 3 4 5 6 
#
# 1 129.3910 57.4199 28.1797 -3.1039 0.9099 0.0000
# 2 57.4199 129.3910 28.1797 3.1039 -0.9099 0.0000
# 3 28.1797 28.1797 53.9691 0.0000 0.0000 0.0000
# 4 -3.1039 3.1039 0.0000 30.3352 0.0000 -0.9099
# 5 0.9099 -0.9099 0.0000 0.0000 30.3352 -3.1039
# 6 0.0000 0.0000 0.0000 -0.9099 -3.1039 35.9855
#
#
#
# Elastic Compliance Matrix: (Units=1/GPa)
#
#
# Indices 1 2 3 4 5 6 
#
# 1 0.010191 -0.003838 -0.003318 0.001435 -0.000421 0.000000
# 2 -0.003838 0.010191 -0.003318 -0.001435 0.000421 0.000000
# 3 -0.003318 -0.003318 0.021994 0.000000 0.000000 0.000000
# 4 0.001435 -0.001435 0.000000 0.033284 0.000000 0.000842
# 5 -0.000421 0.000421 0.000000 0.000000 0.033284 0.002871
# 6 0.000000 0.000000 0.000000 0.000842 0.002871 0.028058
#
#
# Mechanical properties :
#
#
# Convention : Reuss Voigt Hill
#
# Bulk Modulus (GPa) = 46.66161 60.03443 53.34802
# Shear Modulus (GPa) = 30.28619 32.59596 31.44108
#
# Velocity S-wave (km/s) = 3.56041 3.69368 3.62766
# Velocity P-wave (km/s) = 6.03594 6.58171 6.31472
#
# Compressibility (1/GPa) = 0.02143089
#
# Stress axis : x y z
#
# Youngs Moduli (GPa) = 98.12173 98.12173 45.46750
#
# Poissons Ratio (x) = 0.37654 0.15085
# Poissons Ratio (y) = 0.37654 0.15085
# Poissons Ratio (z) = 0.32554 0.32554
#
# Static dielectric constant tensor:
#      x y z
#    x 2.014950 0.000000 0.000000 
#    y 0.000000 2.014950 0.000000 
#    z 0.000000 0.000000 1.950250 
# 
# From -- ./inp_files/857.got.cif
#   From: 2010.05.17/outbox.cif.g08.bks.cpg/sg144_cif.got.tgz:857.got - 2010.05.20 13:46:34.
