data_PCOD9574649
_publ_section_title
;
Structure prediction by ZEFSAII (Michael W. Deem and Ramdas Pophale) SiO2 
 PCOD9574649
Probable space group: P 32
;
_chemical_formula_sum "Si O2"
_cell_formula_units_Z 15
_cell_length_a 9.323616
_cell_length_b 9.323616
_cell_length_c 7.717936
_cell_angle_alpha 90.000000
_cell_angle_beta 90.000000
_cell_angle_gamma 120.000000
_cell_volume 581.032682
_symmetry_space_group_name_H-M "P 32"
_symmetry_group_IT_number 145
_symmetry_cell_setting 'hexagonal'
loop_
_space_group_symop_operation_xyz
x,y,z
-y,x-y,2/3+z
-x+y,-x,1/3+z
loop_
_atom_site_type_symbol
_atom_site_label
_atom_site_fract_x
_atom_site_fract_y
_atom_site_fract_z
Si Si1 0.751077 0.548083 0.470390
Si Si2 0.933723 0.862147 0.652605
Si Si3 0.902639 0.618105 0.899866
Si Si4 0.953886 0.361857 0.472376
Si Si5 0.242052 0.702492 0.011256
O O1 0.767497 0.697093 0.590185
O O2 0.570569 0.388338 0.500878
O O3 0.882488 0.486510 0.474836
O O4 0.774622 0.620207 0.280440
O O5 0.004065 0.756744 0.752786
O O6 0.021334 0.954695 0.473791
O O7 0.047545 0.640609 0.027225
O O8 0.753776 0.645122 0.969454
O O9 0.128709 0.457024 0.565813
O O10 0.272417 0.588894 0.871711
#
# Coordination Sequence:
#
# PCOD9574649 Si02
#       5
#     3   3   3   3   3
#     4  12  25  49  79 117 155 210 276 325 392 478
#     4  12  30  51  79 118 162 210 261 331 403 478
#     4  12  26  51  79 113 157 206 270 323 394 480
#     4  12  26  49  80 115 157 213 270 333 388 485
#     4  12  29  50  75 117 161 203 255 330 413 469
#
# _framework density 25.816101
#
# number of rings (size 3 to 8) (size 9 to 14) (size 15 to 20)
#    0.000    0.000    6.000    1.200    8.400    3.200 
#    0.000    0.000    0.000    0.000    0.000    0.000 
#    0.000    0.000    0.000    0.000    0.000    0.000 
#
# Total GULP energy -83628.012171 kJ/mol
# GULP energy per Si atom -5575.200811 kJ/mol
# Density = 2.575734 g / cm^3
# Si number density = 25.816101 Si / 1000 Ang^3
#
#
#
# Elastic Constant Matrix: (Units=GPa)
#
#
# Indices 1 2 3 4 5 6 
#
# 1 42.3254 10.5340 6.8899 -11.6025 14.7736 0.0000
# 2 10.5340 42.3254 6.8899 11.6025 -14.7736 0.0000
# 3 6.8899 6.8899 124.9223 0.0000 0.0000 0.0000
# 4 -11.6025 11.6025 0.0000 -0.3976 0.0000 -14.7736
# 5 14.7736 -14.7736 0.0000 0.0000 -0.3976 -11.6025
# 6 0.0000 0.0000 0.0000 -14.7736 -11.6025 15.8957
#
#
#
# Elastic Compliance Matrix: (Units=1/GPa)
#
#
# Indices 1 2 3 4 5 6 
#
# 1 0.009874 0.009320 -0.001059 -0.016151 0.020565 0.000000
# 2 0.009320 0.009874 -0.001059 0.016151 -0.020565 0.000000
# 3 -0.001059 -0.001059 0.008122 0.000000 0.000000 0.000000
# 4 -0.016151 0.016151 0.000000 -0.044253 0.000000 -0.041129
# 5 0.020565 -0.020565 0.000000 0.000000 -0.044253 -0.032301
# 6 0.000000 0.000000 0.000000 -0.041129 -0.032301 0.001107
#
#
# Mechanical properties :
#
#
# Convention : Reuss Voigt Hill
#
# Bulk Modulus (GPa) = 23.65440 28.68897 26.17169
# Shear Modulus (GPa) = -83.54961 15.37071 -34.08945
#
# Velocity S-wave (km/s) = -5.69505 2.44271 -3.63777
# Velocity P-wave (km/s) = 5.83629 4.36952 2.73583
#
# Compressibility (1/GPa) = 0.04227542
#
# Stress axis : x y z
#
# Youngs Moduli (GPa) = 101.27855 101.27854 123.12620
#
# Poissons Ratio (x) = -0.94395 0.13034
# Poissons Ratio (y) = -0.94395 0.13034
# Poissons Ratio (z) = 0.10722 0.10722
#
# Static dielectric constant tensor:
#      x y z
#    x 2.112770 0.000000 0.000000 
#    y 0.000000 2.112770 0.000000 
#    z 0.000000 0.000000 2.289340 
# 
# From -- ./inp_files/274.got.cif
#   From: 2010.05.17/outbox.cif.g08.bks.cpg/sg145_cif.got.tgz:274.got - 2010.05.20 13:47:28.
