data_PCOD9574552
_publ_section_title
;
Structure prediction by ZEFSAII (Michael W. Deem and Ramdas Pophale) SiO2 
 PCOD9574552
Probable space group: P 32
;
_chemical_formula_sum "Si O2"
_cell_formula_units_Z 12
_cell_length_a 6.761719
_cell_length_b 6.761719
_cell_length_c 12.511457
_cell_angle_alpha 90.000000
_cell_angle_beta 90.000000
_cell_angle_gamma 120.000000
_cell_volume 495.396298
_symmetry_space_group_name_H-M "P 32"
_symmetry_group_IT_number 145
_symmetry_cell_setting 'hexagonal'
loop_
_space_group_symop_operation_xyz
x,y,z
-y,x-y,2/3+z
-x+y,-x,1/3+z
loop_
_atom_site_type_symbol
_atom_site_label
_atom_site_fract_x
_atom_site_fract_y
_atom_site_fract_z
Si Si1 0.968357 0.697380 0.154590
Si Si2 0.935594 0.459564 0.647120
Si Si3 0.906781 0.722009 0.479968
Si Si4 0.203494 0.529321 0.011894
O O1 0.179516 0.760522 0.237108
O O2 0.734569 0.585890 0.220544
O O3 0.044130 0.954484 0.118905
O O4 0.989216 0.552093 0.057610
O O5 0.204442 0.591081 0.667130
O O6 0.881503 0.649613 0.603367
O O7 0.829546 0.308610 0.751644
O O8 0.137276 0.741273 0.435941
#
# Coordination Sequence:
#
# PCOD9574552 Si02
#       4
#     3   3   3   3
#     4  10  22  40  62  92 124 166 210 256 312 368
#     4  10  22  42  64  94 126 167 210 256 314 370
#     4  10  22  42  64  94 126 167 210 256 314 370
#     4  10  20  44  62  88 136 156 208 274 296 370
#
# _framework density 24.223027999999999
#
# number of rings (size 3 to 8) (size 9 to 14) (size 15 to 20)
#    0.000    2.000    2.500    0.000    3.500    0.000 
#   18.000    0.000    0.000    0.000    0.000    0.000 
#    0.000    0.000    0.000    0.000    0.000    0.000 
#
# Total GULP energy -66946.512042 kJ/mol
# GULP energy per Si atom -5578.876003 kJ/mol
# Density = 2.416790 g / cm^3
# Si number density = 24.223028 Si / 1000 Ang^3
#
#
#
# Elastic Constant Matrix: (Units=GPa)
#
#
# Indices 1 2 3 4 5 6 
#
# 1 95.8904 31.8256 9.7709 -6.3480 -3.4935 0.0000
# 2 31.8256 95.8904 9.7709 6.3480 3.4935 0.0000
# 3 9.7709 9.7709 62.3407 0.0000 0.0000 0.0000
# 4 -6.3480 6.3480 0.0000 44.4864 0.0000 3.4935
# 5 -3.4935 3.4935 0.0000 0.0000 44.4864 -6.3480
# 6 0.0000 0.0000 0.0000 3.4935 -6.3480 32.0324
#
#
#
# Elastic Compliance Matrix: (Units=1/GPa)
#
#
# Indices 1 2 3 4 5 6 
#
# 1 0.012114 -0.004092 -0.001257 0.002313 0.001273 0.000000
# 2 -0.004092 0.012114 -0.001257 -0.002313 -0.001273 0.000000
# 3 -0.001257 -0.001257 0.016435 0.000000 0.000000 0.000000
# 4 0.002313 -0.002313 0.000000 0.023339 0.000000 -0.002545
# 5 0.001273 -0.001273 0.000000 0.000000 0.023339 0.004625
# 6 0.000000 0.000000 0.000000 -0.002545 0.004625 0.032413
#
#
# Mechanical properties :
#
#
# Convention : Reuss Voigt Hill
#
# Bulk Modulus (GPa) = 36.42971 39.65067 38.04019
# Shear Modulus (GPa) = 35.18230 37.71799 36.45015
#
# Velocity S-wave (km/s) = 3.81521 3.95031 3.88335
# Velocity P-wave (km/s) = 5.87194 6.10009 5.98710
#
# Compressibility (1/GPa) = 0.02745012
#
# Stress axis : x y z
#
# Youngs Moduli (GPa) = 82.54727 82.54727 60.84569
#
# Poissons Ratio (x) = 0.33778 0.07650
# Poissons Ratio (y) = 0.33778 0.07650
# Poissons Ratio (z) = 0.10379 0.10379
#
# Static dielectric constant tensor:
#      x y z
#    x 1.957460 0.000000 0.000000 
#    y 0.000000 1.957460 0.000000 
#    z 0.000000 0.000000 1.961910 
# 
# From -- ./inp_files/719.got.cif
#   From: 2010.05.17/outbox.cif.g08.bks.cpg/sg145_cif.got.tgz:719.got - 2010.05.20 13:47:28.
