data_PCOD9574357
_publ_section_title
;
Structure prediction by ZEFSAII (Michael W. Deem and Ramdas Pophale) SiO2 
 PCOD9574357
Probable space group: P 31
;
_chemical_formula_sum "Si O2"
_cell_formula_units_Z 18
_cell_length_a 8.178509
_cell_length_b 8.178509
_cell_length_c 14.060915
_cell_angle_alpha 90.000000
_cell_angle_beta 90.000000
_cell_angle_gamma 120.000000
_cell_volume 814.502622
_symmetry_space_group_name_H-M "P 31"
_symmetry_group_IT_number 144
_symmetry_cell_setting 'hexagonal'
loop_
_space_group_symop_operation_xyz
x,y,z
-y,x-y,1/3+z
-x+y,-x,2/3+z
loop_
_atom_site_type_symbol
_atom_site_label
_atom_site_fract_x
_atom_site_fract_y
_atom_site_fract_z
Si Si1 0.687105 0.866088 0.764410
Si Si2 0.220594 0.963654 0.473298
Si Si3 0.611901 0.531987 0.658014
Si Si4 0.814129 0.599540 0.466557
Si Si5 0.199623 0.489362 0.625831
Si Si6 0.087734 0.456068 0.995636
O O1 0.741499 0.743386 0.696867
O O2 0.563987 0.721663 0.848863
O O3 0.560719 0.929637 0.703706
O O4 0.861190 0.046697 0.810388
O O5 0.281605 0.943963 0.366808
O O6 0.365879 0.983804 0.555870
O O7 0.024632 0.767457 0.487892
O O8 0.700536 0.511673 0.562169
O O9 0.565049 0.373646 0.735695
O O10 0.406577 0.510234 0.637955
O O11 0.711302 0.686884 0.403366
O O12 0.225648 0.689042 0.655911
#
# Coordination Sequence:
#
# PCOD9574357 Si02
#       6
#     3   3   3   3   3   3
#     4  11  24  46  70 102 142 186 232 295 358 420
#     4  11  25  43  71 102 142 181 242 292 351 428
#     4  10  23  43  69  97 142 184 230 290 352 417
#     4  11  24  45  69 102 141 182 239 290 351 427
#     4  10  21  45  67 100 141 185 230 288 361 417
#     4  11  23  44  72  97 138 190 227 289 359 417
#
# _framework density 22.099378999999999
#
# number of rings (size 3 to 8) (size 9 to 14) (size 15 to 20)
#    0.000    1.333    1.667    5.000    7.000    0.000 
#    6.000    1.667    0.000    0.000    0.000    0.000 
#    0.000    0.000    0.000    0.000    0.000    0.000 
#
# Total GULP energy -100656.469806 kJ/mol
# GULP energy per Si atom -5592.026100 kJ/mol
# Density = 2.204908 g / cm^3
# Si number density = 22.099379 Si / 1000 Ang^3
#
#
#
# Elastic Constant Matrix: (Units=GPa)
#
#
# Indices 1 2 3 4 5 6 
#
# 1 57.6170 23.5655 44.4864 3.5872 0.0983 0.0000
# 2 23.5655 57.6170 44.4864 -3.5872 -0.0983 0.0000
# 3 44.4864 44.4864 153.8941 0.0000 0.0000 0.0000
# 4 3.5872 -3.5872 0.0000 38.1554 0.0000 -0.0983
# 5 0.0983 -0.0983 0.0000 0.0000 38.1554 3.5872
# 6 0.0000 0.0000 0.0000 -0.0983 3.5872 17.0258
#
#
#
# Elastic Compliance Matrix: (Units=1/GPa)
#
#
# Indices 1 2 3 4 5 6 
#
# 1 0.023996 -0.005966 -0.005212 -0.002817 -0.000077 0.000000
# 2 -0.005966 0.023996 -0.005212 0.002817 0.000077 0.000000
# 3 -0.005212 -0.005212 0.009511 0.000000 0.000000 0.000000
# 4 -0.002817 0.002817 0.000000 0.026739 0.000000 0.000154
# 5 -0.000077 0.000077 0.000000 0.000000 0.026739 -0.005634
# 6 0.000000 0.000000 0.000000 0.000154 -0.005634 0.059922
#
#
# Mechanical properties :
#
#
# Convention : Reuss Voigt Hill
#
# Bulk Modulus (GPa) = 40.44747 54.91163 47.67955
# Shear Modulus (GPa) = 23.59353 29.10662 26.35008
#
# Velocity S-wave (km/s) = 3.27098 3.63310 3.45678
# Velocity P-wave (km/s) = 5.71034 6.51926 6.12816
#
# Compressibility (1/GPa) = 0.02472343
#
# Stress axis : x y z
#
# Youngs Moduli (GPa) = 41.67428 41.67428 105.13884
#
# Poissons Ratio (x) = 0.24861 0.54798
# Poissons Ratio (y) = 0.24861 0.54798
# Poissons Ratio (z) = 0.21720 0.21720
#
# Static dielectric constant tensor:
#      x y z
#    x 1.800410 0.000000 0.000000 
#    y 0.000000 1.800410 0.000000 
#    z 0.000000 0.000000 1.796080 
# 
# From -- ./inp_files/499.got.cif
#   From: 2010.05.17/outbox.cif.g08.bks.cpg/sg144_cif.got.tgz:499.got - 2010.05.20 13:46:34.
