data_PCOD9574646
_publ_section_title
;
Structure prediction by ZEFSAII (Michael W. Deem and Ramdas Pophale) SiO2 
 PCOD9574646
Probable space group: P 32
;
_chemical_formula_sum "Si O2"
_cell_formula_units_Z 15
_cell_length_a 10.757732
_cell_length_b 10.757732
_cell_length_c 5.807430
_cell_angle_alpha 90.000000
_cell_angle_beta 90.000000
_cell_angle_gamma 120.000000
_cell_volume 582.044322
_symmetry_space_group_name_H-M "P 32"
_symmetry_group_IT_number 145
_symmetry_cell_setting 'hexagonal'
loop_
_space_group_symop_operation_xyz
x,y,z
-y,x-y,2/3+z
-x+y,-x,1/3+z
loop_
_atom_site_type_symbol
_atom_site_label
_atom_site_fract_x
_atom_site_fract_y
_atom_site_fract_z
Si Si1 0.530353 0.285056 0.678980
Si Si2 0.021391 0.877497 0.598492
Si Si3 0.419371 0.416299 0.327217
Si Si4 0.016072 0.336020 0.381367
Si Si5 0.387352 0.813891 0.371144
O O1 0.625235 0.220319 0.574608
O O2 0.520865 0.373479 0.467624
O O3 0.375610 0.152060 0.713188
O O4 0.980739 0.710604 0.548324
O O5 0.090945 0.996257 0.391935
O O6 0.154309 0.916882 0.772863
O O7 0.531072 0.562760 0.197014
O O8 0.364553 0.482325 0.525833
O O9 0.077876 0.416281 0.136984
O O10 0.253447 0.684837 0.244955
#
# Coordination Sequence:
#
# PCOD9574646 Si02
#       5
#     3   3   3   3   3
#     4  12  24  44  72 106 140 194 262 324 382 460
#     4  12  29  48  74 119 164 208 250 328 427 486
#     4  12  26  48  78 108 151 206 264 319 395 486
#     4  12  26  48  78 108 151 206 264 319 395 486
#     4  12  25  46  76 111 144 194 264 320 385 474
#
# _framework density 25.771234
#
# number of rings (size 3 to 8) (size 9 to 14) (size 15 to 20)
#    0.000    0.000    6.000    4.800    0.000    8.000 
#    0.000    0.000    0.000    0.000    0.000    0.000 
#    0.000    0.000    0.000    0.000    0.000    0.000 
#
# Total GULP energy -83779.371119 kJ/mol
# GULP energy per Si atom -5585.291408 kJ/mol
# Density = 2.571258 g / cm^3
# Si number density = 25.771234 Si / 1000 Ang^3
#
#
#
# Elastic Constant Matrix: (Units=GPa)
#
#
# Indices 1 2 3 4 5 6 
#
# 1 83.4472 9.9280 4.5141 -1.0081 -0.8909 0.0000
# 2 9.9280 83.4472 4.5141 1.0081 0.8909 0.0000
# 3 4.5141 4.5141 37.8983 0.0000 0.0000 0.0000
# 4 -1.0081 1.0081 0.0000 38.3770 0.0000 0.8909
# 5 -0.8909 0.8909 0.0000 0.0000 38.3770 -1.0081
# 6 0.0000 0.0000 0.0000 0.8909 -1.0081 36.7596
#
#
#
# Elastic Compliance Matrix: (Units=1/GPa)
#
#
# Indices 1 2 3 4 5 6 
#
# 1 0.012227 -0.001393 -0.001290 0.000358 0.000316 0.000000
# 2 -0.001393 0.012227 -0.001290 -0.000358 -0.000316 0.000000
# 3 -0.001290 -0.001290 0.026694 0.000000 0.000000 0.000000
# 4 0.000358 -0.000358 0.000000 0.026091 0.000000 -0.000632
# 5 0.000316 -0.000316 0.000000 0.000000 0.026091 0.000716
# 6 0.000000 0.000000 0.000000 -0.000632 0.000716 0.027239
#
#
# Mechanical properties :
#
#
# Convention : Reuss Voigt Hill
#
# Bulk Modulus (GPa) = 23.14790 26.96721 25.05755
# Shear Modulus (GPa) = 32.69793 35.09180 33.89487
#
# Velocity S-wave (km/s) = 3.56585 3.69408 3.63053
# Velocity P-wave (km/s) = 5.09464 5.35553 5.22671
#
# Compressibility (1/GPa) = 0.04320047
#
# Stress axis : x y z
#
# Youngs Moduli (GPa) = 81.78744 81.78744 37.46184
#
# Poissons Ratio (x) = 0.11389 0.04834
# Poissons Ratio (y) = 0.11389 0.04834
# Poissons Ratio (z) = 0.10554 0.10554
#
# Static dielectric constant tensor:
#      x y z
#    x 2.234130 0.000000 0.000000 
#    y 0.000000 2.234130 0.000000 
#    z 0.000000 0.000000 2.058770 
# 
# From -- ./inp_files/55.got.cif
#   From: 2010.05.17/outbox.cif.g08.bks.cpg/sg145_cif.got.tgz:55.got - 2010.05.20 13:47:28.
