data_PCOD9574380
_publ_section_title
;
Structure prediction by ZEFSAII (Michael W. Deem and Ramdas Pophale) SiO2 
 PCOD9574380
Probable space group: P 31
;
_chemical_formula_sum "Si O2"
_cell_formula_units_Z 24
_cell_length_a 12.049064
_cell_length_b 12.049064
_cell_length_c 8.106245
_cell_angle_alpha 90.000000
_cell_angle_beta 90.000000
_cell_angle_gamma 120.000000
_cell_volume 1019.194285
_symmetry_space_group_name_H-M "P 31"
_symmetry_group_IT_number 144
_symmetry_cell_setting 'hexagonal'
loop_
_space_group_symop_operation_xyz
x,y,z
-y,x-y,1/3+z
-x+y,-x,2/3+z
loop_
_atom_site_type_symbol
_atom_site_label
_atom_site_fract_x
_atom_site_fract_y
_atom_site_fract_z
Si Si1 0.095602 0.070420 0.486950
Si Si2 0.598438 0.269179 0.707331
Si Si3 0.349915 0.751777 0.256465
Si Si4 0.341587 0.226212 0.838827
Si Si5 0.060235 0.673959 0.739315
Si Si6 0.025789 0.519143 0.058791
Si Si7 0.736633 0.774068 0.381604
Si Si8 0.241619 0.350161 0.596818
O O1 0.170183 0.226014 0.478051
O O2 0.996733 0.032275 0.644401
O O3 0.193141 0.022593 0.554879
O O4 0.667770 0.327143 0.537561
O O5 0.459853 0.258560 0.719913
O O6 0.571345 0.126490 0.724705
O O7 0.311829 0.652758 0.410935
O O8 0.497970 0.855918 0.281094
O O9 0.261210 0.818071 0.271014
O O10 0.255156 0.278878 0.756920
O O11 0.262987 0.073540 0.850730
O O12 0.387464 0.302876 0.007884
O O13 0.073667 0.613703 0.905807
O O14 0.110788 0.823934 0.755875
O O15 0.059802 0.407095 0.038867
O O16 0.072207 0.613601 0.213626
#
# Coordination Sequence:
#
# PCOD9574380 Si02
#       8
#     3   3   3   3   3   3   3   3
#     4  11  27  50  78 107 148 200 254 315 372 448
#     4  11  22  43  69  98 135 183 237 292 358 425
#     4  12  25  43  73 108 146 191 238 302 374 447
#     4  10  22  43  68  95 144 187 231 303 356 437
#     4  12  23  42  71 107 138 190 243 295 369 439
#     4  11  25  41  71 103 140 186 237 300 364 443
#     4  10  23  44  73 101 147 191 237 305 377 430
#     4  11  23  48  67 105 148 186 239 304 372 439
#
# _framework density 23.548010999999999
#
# number of rings (size 3 to 8) (size 9 to 14) (size 15 to 20)
#    0.000    1.000    2.500    4.500    3.500    0.000 
#    0.000    0.000    0.000    0.000    0.000    0.000 
#    0.000    0.000    0.000    0.000    0.000    0.000 
#
# Total GULP energy -134104.248545 kJ/mol
# GULP energy per Si atom -5587.677023 kJ/mol
# Density = 2.349441 g / cm^3
# Si number density = 23.548011 Si / 1000 Ang^3
#
#
#
# Elastic Constant Matrix: (Units=GPa)
#
#
# Indices 1 2 3 4 5 6 
#
# 1 104.1306 35.9825 27.8005 0.5011 1.1336 0.0000
# 2 35.9825 104.1306 27.8005 -0.5011 -1.1336 0.0000
# 3 27.8005 27.8005 98.9602 0.0000 0.0000 0.0000
# 4 0.5011 -0.5011 0.0000 29.2965 0.0000 -1.1336
# 5 1.1336 -1.1336 0.0000 0.0000 29.2965 0.5011
# 6 0.0000 0.0000 0.0000 -1.1336 0.5011 34.0741
#
#
#
# Elastic Compliance Matrix: (Units=1/GPa)
#
#
# Indices 1 2 3 4 5 6 
#
# 1 0.011365 -0.003332 -0.002257 -0.000251 -0.000569 0.000000
# 2 -0.003332 0.011365 -0.002257 0.000251 0.000569 0.000000
# 3 -0.002257 -0.002257 0.011373 0.000000 0.000000 0.000000
# 4 -0.000251 0.000251 0.000000 0.034186 0.000000 0.001137
# 5 -0.000569 0.000569 0.000000 0.000000 0.034186 -0.000503
# 6 0.000000 0.000000 0.000000 0.001137 -0.000503 0.029393
#
#
# Mechanical properties :
#
#
# Convention : Reuss Voigt Hill
#
# Bulk Modulus (GPa) = 54.31291 54.48757 54.40024
# Shear Modulus (GPa) = 32.53193 32.90930 32.72062
#
# Velocity S-wave (km/s) = 3.72091 3.74243 3.73168
# Velocity P-wave (km/s) = 6.44787 6.47020 6.45904
#
# Compressibility (1/GPa) = 0.01841183
#
# Stress axis : x y z
#
# Youngs Moduli (GPa) = 87.99297 87.99297 87.92821
#
# Poissons Ratio (x) = 0.29319 0.19841
# Poissons Ratio (y) = 0.29319 0.19841
# Poissons Ratio (z) = 0.19856 0.19856
#
# Static dielectric constant tensor:
#      x y z
#    x 1.909090 0.000000 0.000000 
#    y 0.000000 1.909090 0.000000 
#    z 0.000000 0.000000 1.989520 
# 
# From -- ./inp_files/407.got.cif
#   From: 2010.05.17/outbox.cif.g08.bks.cpg/sg144_cif.got.tgz:407.got - 2010.05.20 13:46:34.
