data_PCOD9574152
_publ_section_title
;
Structure prediction by ZEFSAII (Michael W. Deem and Ramdas Pophale) SiO2 
 PCOD9574152
Probable space group: I 41/A C D
;
_chemical_formula_sum "Si O2"
_cell_formula_units_Z 128
_cell_length_a 20.463435
_cell_length_b 20.463435
_cell_length_c 13.633261
_cell_angle_alpha 90.000000
_cell_angle_beta 90.000000
_cell_angle_gamma 90.000000
_cell_volume 5708.957655
_symmetry_space_group_name_H-M "I 41/A C D"
_symmetry_group_IT_number 142
_space_group.IT_coordinate_system_code '2'
_symmetry_cell_setting 'tetragonal'
loop_
_space_group_symop_operation_xyz
x,y,z
1/4-y,3/4+x,1/4+z
-x,1/2-y,z
1/4+y,1/4-x,3/4+z
x,-y,1/2-z
1/2-x,y,-z
3/4+y,1/4+x,1/4-z
1/4-y,1/4-x,1/4-z
-x,-y,-z
3/4+y,1/4-x,3/4-z
x,1/2+y,-z
3/4-y,3/4+x,1/4-z
-x,y,1/2+z
1/2+x,-y,z
1/4-y,3/4-x,3/4+z
3/4+y,3/4+x,3/4+z
1/2+x,1/2+y,1/2+z
3/4-y,1/4+x,3/4+z
1/2-x,-y,1/2+z
3/4+y,3/4-x,1/4+z
1/2+x,1/2-y,-z
-x,1/2+y,1/2-z
1/4+y,3/4+x,3/4-z
3/4-y,3/4-x,3/4-z
1/2-x,1/2-y,1/2-z
1/4+y,3/4-x,1/4-z
1/2+x,y,1/2-z
1/4-y,1/4+x,3/4-z
1/2-x,1/2+y,z
x,1/2-y,1/2+z
3/4-y,1/4-x,1/4+z
1/4+y,1/4+x,1/4+z
loop_
_atom_site_type_symbol
_atom_site_label
_atom_site_fract_x
_atom_site_fract_y
_atom_site_fract_z
Si Si1 0.041117 0.023163 0.142125
Si Si2 0.394777 0.934337 0.205949
Si Si3 0.370532 0.683415 0.842614
Si Si4 0.595291 0.306187 0.779969
O O1 0.965667 0.045054 0.162946
O O2 0.069600 0.083215 0.078557
O O3 0.066789 0.000000 0.250000
O O4 0.947569 0.043440 0.918472
O O5 0.351121 0.898880 0.125000
O O6 0.397349 0.882989 0.294837
O O7 0.364458 0.000000 0.250000
O O8 0.404306 0.741775 0.784799
O O9 0.388629 0.680318 0.956728
O O10 0.550980 0.300980 0.875000
#
# Coordination Sequence:
#
# PCOD9574152 Si02
#       4
#    32  32  32  32
#     4  11  23  50  78 106 154 205 252 319 396 465
#     4  11  25  47  77 108 148 201 258 315 390 470
#     4  12  27  47  80 112 154 213 252 325 409 468
#     4  12  26  47  72 116 153 199 265 323 387 485
#
# _framework density 22.420905000000001
#
# number of rings (size 3 to 8) (size 9 to 14) (size 15 to 20)
#    0.000    0.500    5.000    3.750    3.500    0.500 
#    4.500    2.500    0.000    0.000    0.000    0.000 
#    0.000    0.000    0.000    0.000    0.000    0.000 
#
# Total GULP energy -357793.647740 kJ/mol
# GULP energy per Si atom -5590.525746 kJ/mol
# Density = 2.236987 g / cm^3
# Si number density = 22.420905 Si / 1000 Ang^3
#
#
#
# Elastic Constant Matrix: (Units=GPa)
#
#
# Indices 1 2 3 4 5 6 
#
# 1 100.4063 59.5893 42.3740 0.0000 0.0000 0.0000
# 2 59.5893 100.4055 42.3733 0.0000 0.0000 0.0000
# 3 42.3740 42.3733 160.0541 0.0000 0.0000 0.0000
# 4 0.0000 0.0000 0.0000 42.8212 0.0000 0.0000
# 5 0.0000 0.0000 0.0000 0.0000 42.8204 0.0000
# 6 0.0000 0.0000 0.0000 0.0000 0.0000 27.8107
#
#
#
# Elastic Compliance Matrix: (Units=1/GPa)
#
#
# Indices 1 2 3 4 5 6 
#
# 1 0.015885 -0.008615 -0.001925 0.000000 0.000000 0.000000
# 2 -0.008615 0.015885 -0.001925 0.000000 0.000000 0.000000
# 3 -0.001925 -0.001925 0.007267 0.000000 0.000000 0.000000
# 4 0.000000 0.000000 0.000000 0.023353 0.000000 0.000000
# 5 0.000000 0.000000 0.000000 0.000000 0.023353 0.000000
# 6 0.000000 0.000000 0.000000 0.000000 0.000000 0.035957
#
#
# Mechanical properties :
#
#
# Convention : Reuss Voigt Hill
#
# Bulk Modulus (GPa) = 70.88287 72.17104 71.52696
# Shear Modulus (GPa) = 33.04012 37.12577 35.08294
#
# Velocity S-wave (km/s) = 3.84295 4.07363 3.95997
# Velocity P-wave (km/s) = 7.16759 7.37462 7.27184
#
# Compressibility (1/GPa) = 0.01410778
#
# Stress axis : x y z
#
# Youngs Moduli (GPa) = 62.95371 62.95343 137.60934
#
# Poissons Ratio (x) = 0.54235 0.26485
# Poissons Ratio (y) = 0.54235 0.26484
# Poissons Ratio (z) = 0.12116 0.12116
#
# Static dielectric constant tensor:
#      x y z
#    x 1.868880 0.000000 0.000000 
#    y 0.000000 1.868880 0.000000 
#    z 0.000000 0.000000 1.896250 
# 
# From -- ./inp_files/3480.got.cif
#   From: 2010.05.17/outbox.cif.g08.bks.cpg/sg142_2_cif.got.tgz:3480.got - 2010.05.20 13:39:18.
