data_PCOD9574436
_publ_section_title
;
Structure prediction by ZEFSAII (Michael W. Deem and Ramdas Pophale) SiO2 
 PCOD9574436
Probable space group: P 31
;
_chemical_formula_sum "Si O2"
_cell_formula_units_Z 12
_cell_length_a 7.053167
_cell_length_b 7.053167
_cell_length_c 9.844131
_cell_angle_alpha 90.000000
_cell_angle_beta 90.000000
_cell_angle_gamma 120.000000
_cell_volume 424.107888
_symmetry_space_group_name_H-M "P 31"
_symmetry_group_IT_number 144
_symmetry_cell_setting 'hexagonal'
loop_
_space_group_symop_operation_xyz
x,y,z
-y,x-y,1/3+z
-x+y,-x,2/3+z
loop_
_atom_site_type_symbol
_atom_site_label
_atom_site_fract_x
_atom_site_fract_y
_atom_site_fract_z
Si Si1 0.429737 0.852279 0.271460
Si Si2 0.707213 0.646631 0.365852
Si Si3 0.313717 0.946809 0.986792
Si Si4 0.822208 0.147589 0.751173
O O1 0.623743 0.817624 0.329950
O O2 0.436535 0.975465 0.130385
O O3 0.242196 0.596387 0.254198
O O4 0.617833 0.642185 0.046759
O O5 0.519078 0.394049 0.349557
O O6 0.750675 0.648561 0.525823
O O7 0.873823 0.678300 0.247262
O O8 0.118681 0.187469 0.363998
#
# Coordination Sequence:
#
# PCOD9574436 Si02
#       4
#     3   3   3   3
#     4  11  20  44  76 107 157 210 266 332 410 478
#     4  11  24  47  77 118 159 212 277 339 408 488
#     4  11  22  45  77 110 162 214 266 340 408 483
#     4  11  24  44  78 117 154 222 271 327 424 487
#
# _framework density 28.294691
#
# number of rings (size 3 to 8) (size 9 to 14) (size 15 to 20)
#    0.000    1.000    7.500    1.500    0.000    2.000 
#    4.500    2.500    0.000    0.000    0.000    0.000 
#    0.000    0.000    0.000    0.000    0.000    0.000 
#
# Total GULP energy -67147.026227 kJ/mol
# GULP energy per Si atom -5595.585519 kJ/mol
# Density = 2.823029 g / cm^3
# Si number density = 28.294691 Si / 1000 Ang^3
#
#
#
# Elastic Constant Matrix: (Units=GPa)
#
#
# Indices 1 2 3 4 5 6 
#
# 1 130.7362 57.8829 43.2095 5.7170 6.1372 0.0000
# 2 57.8829 130.7362 43.2095 -5.7170 -6.1372 0.0000
# 3 43.2095 43.2095 202.6881 0.0000 0.0000 0.0000
# 4 5.7170 -5.7170 0.0000 49.1099 0.0000 -6.1372
# 5 6.1372 -6.1372 0.0000 0.0000 49.1099 5.7170
# 6 0.0000 0.0000 0.0000 -6.1372 5.7170 36.4267
#
#
#
# Elastic Compliance Matrix: (Units=1/GPa)
#
#
# Indices 1 2 3 4 5 6 
#
# 1 0.010082 -0.004206 -0.001253 -0.001663 -0.001786 0.000000
# 2 -0.004206 0.010082 -0.001253 0.001663 0.001786 0.000000
# 3 -0.001253 -0.001253 0.005468 0.000000 0.000000 0.000000
# 4 -0.001663 0.001663 0.000000 0.021196 0.000000 0.003571
# 5 -0.001786 0.001786 0.000000 0.000000 0.021196 -0.003327
# 6 0.000000 0.000000 0.000000 0.003571 -0.003327 0.028576
#
#
# Mechanical properties :
#
#
# Convention : Reuss Voigt Hill
#
# Bulk Modulus (GPa) = 81.90937 83.64048 82.77492
# Shear Modulus (GPa) = 43.82430 48.25321 46.03875
#
# Velocity S-wave (km/s) = 3.93982 4.13411 4.03813
# Velocity P-wave (km/s) = 7.05037 7.23964 7.14563
#
# Compressibility (1/GPa) = 0.01220862
#
# Stress axis : x y z
#
# Youngs Moduli (GPa) = 99.18832 99.18832 182.89100
#
# Poissons Ratio (x) = 0.41721 0.22908
# Poissons Ratio (y) = 0.41721 0.22908
# Poissons Ratio (z) = 0.12424 0.12424
#
# Static dielectric constant tensor:
#      x y z
#    x 2.187240 0.000000 0.000000 
#    y 0.000000 2.187240 0.000000 
#    z 0.000000 0.000000 2.192690 
# 
# From -- ./inp_files/244.got.cif
#   From: 2010.05.17/outbox.cif.g08.bks.cpg/sg144_cif.got.tgz:244.got - 2010.05.20 13:46:34.
