data_PCOD9574414
_publ_section_title
;
Structure prediction by ZEFSAII (Michael W. Deem and Ramdas Pophale) SiO2 
 PCOD9574414
Probable space group: P 31
;
_chemical_formula_sum "Si O2"
_cell_formula_units_Z 15
_cell_length_a 10.918683
_cell_length_b 10.918683
_cell_length_c 6.181623
_cell_angle_alpha 90.000000
_cell_angle_beta 90.000000
_cell_angle_gamma 120.000000
_cell_volume 638.224779
_symmetry_space_group_name_H-M "P 31"
_symmetry_group_IT_number 144
_symmetry_cell_setting 'hexagonal'
loop_
_space_group_symop_operation_xyz
x,y,z
-y,x-y,1/3+z
-x+y,-x,2/3+z
loop_
_atom_site_type_symbol
_atom_site_label
_atom_site_fract_x
_atom_site_fract_y
_atom_site_fract_z
Si Si1 0.669492 0.457929 0.645660
Si Si2 0.409347 0.457315 0.441736
Si Si3 0.155880 0.246408 0.740555
Si Si4 0.578836 0.770634 0.458389
Si Si5 0.941425 0.165519 0.387472
O O1 0.587789 0.348802 0.835653
O O2 0.555685 0.460349 0.479865
O O3 0.767899 0.609264 0.752606
O O4 0.290603 0.328542 0.582846
O O5 0.448804 0.616195 0.513652
O O6 0.341251 0.442882 0.205550
O O7 0.011044 0.156037 0.609412
O O8 0.159240 0.373935 0.877298
O O9 0.172502 0.144795 0.909573
O O10 0.713998 0.787528 0.588172
#
# Coordination Sequence:
#
# PCOD9574414 Si02
#       5
#     3   3   3   3   3
#     4  11  24  43  75 109 151 193 246 307 364 440
#     4  10  24  44  67 111 144 192 242 298 366 429
#     4  11  24  47  75 101 152 185 248 295 370 441
#     4  10  25  41  73 104 146 191 241 301 359 442
#     4  10  25  47  70 111 139 199 239 305 365 434
#
# _framework density 23.502694999999999
#
# number of rings (size 3 to 8) (size 9 to 14) (size 15 to 20)
#    0.000    1.600    2.000    0.000    5.600   11.200 
#    0.000    0.000    0.000    0.000    0.000    0.000 
#    0.000    0.000    0.000    0.000    0.000    0.000 
#
# Total GULP energy -83910.495398 kJ/mol
# GULP energy per Si atom -5594.033027 kJ/mol
# Density = 2.344920 g / cm^3
# Si number density = 23.502695 Si / 1000 Ang^3
#
#
#
# Elastic Constant Matrix: (Units=GPa)
#
#
# Indices 1 2 3 4 5 6 
#
# 1 120.9321 60.9750 45.9966 10.7542 8.0770 0.0000
# 2 60.9750 120.9321 45.9966 -10.7542 -8.0770 0.0000
# 3 45.9966 45.9966 73.0689 0.0000 0.0000 0.0000
# 4 10.7542 -10.7542 0.0000 37.8743 0.0000 -8.0770
# 5 8.0770 -8.0770 0.0000 0.0000 37.8743 10.7542
# 6 0.0000 0.0000 0.0000 -8.0770 10.7542 29.9786
#
#
#
# Elastic Compliance Matrix: (Units=1/GPa)
#
#
# Indices 1 2 3 4 5 6 
#
# 1 0.013952 -0.005887 -0.005077 -0.005633 -0.004231 0.000000
# 2 -0.005887 0.013952 -0.005077 0.005633 0.004231 0.000000
# 3 -0.005077 -0.005077 0.020077 0.000000 0.000000 0.000000
# 4 -0.005633 0.005633 0.000000 0.031407 0.000000 0.008462
# 5 -0.004231 0.004231 0.000000 0.000000 0.031407 -0.011267
# 6 0.000000 0.000000 0.000000 0.008462 -0.011267 0.039679
#
#
# Mechanical properties :
#
#
# Convention : Reuss Voigt Hill
#
# Bulk Modulus (GPa) = 62.89370 68.98548 65.93959
# Shear Modulus (GPa) = 26.61635 31.94310 29.27972
#
# Velocity S-wave (km/s) = 3.36889 3.69063 3.53342
# Velocity P-wave (km/s) = 6.47695 6.89760 6.69058
#
# Compressibility (1/GPa) = 0.01589984
#
# Stress axis : x y z
#
# Youngs Moduli (GPa) = 71.67443 71.67443 49.80772
#
# Poissons Ratio (x) = 0.42197 0.25286
# Poissons Ratio (y) = 0.42197 0.25286
# Poissons Ratio (z) = 0.36387 0.36387
#
# Static dielectric constant tensor:
#      x y z
#    x 1.890660 0.000000 0.000000 
#    y 0.000000 1.890660 0.000000 
#    z 0.000000 0.000000 1.901790 
# 
# From -- ./inp_files/74.got.cif
#   From: 2010.05.17/outbox.cif.g08.bks.cpg/sg144_cif.got.tgz:74.got - 2010.05.20 13:46:34.
