data_PCOD9574621
_publ_section_title
;
Structure prediction by ZEFSAII (Michael W. Deem and Ramdas Pophale) SiO2 
 PCOD9574621
Probable space group: P 32
;
_chemical_formula_sum "Si O2"
_cell_formula_units_Z 21
_cell_length_a 9.991601
_cell_length_b 9.991601
_cell_length_c 11.472598
_cell_angle_alpha 90.000000
_cell_angle_beta 90.000000
_cell_angle_gamma 120.000000
_cell_volume 991.887857
_symmetry_space_group_name_H-M "P 32"
_symmetry_group_IT_number 145
_symmetry_cell_setting 'hexagonal'
loop_
_space_group_symop_operation_xyz
x,y,z
-y,x-y,2/3+z
-x+y,-x,1/3+z
loop_
_atom_site_type_symbol
_atom_site_label
_atom_site_fract_x
_atom_site_fract_y
_atom_site_fract_z
Si Si1 0.690006 0.195130 0.213940
Si Si2 0.893936 0.553713 0.144828
Si Si3 0.219990 0.736255 0.255566
Si Si4 0.322665 0.061232 0.196318
Si Si5 0.359445 0.036368 0.934977
Si Si6 0.660810 0.025298 0.984906
Si Si7 0.283708 0.758151 0.771709
O O1 0.803103 0.375487 0.187522
O O2 0.705205 0.146908 0.343726
O O3 0.509477 0.147057 0.206094
O O4 0.716870 0.100421 0.112638
O O5 0.825001 0.641870 0.217503
O O6 0.074118 0.634101 0.172921
O O7 0.197953 0.640916 0.373441
O O8 0.372680 0.760977 0.187712
O O9 0.246430 0.907187 0.273809
O O10 0.284635 0.192516 0.234475
O O11 0.287237 0.004646 0.063275
O O12 0.538125 0.077036 0.945307
O O13 0.287218 0.891613 0.849653
O O14 0.558104 0.843077 0.004192
#
# Coordination Sequence:
#
# PCOD9574621 Si02
#       7
#     3   3   3   3   3   3   3
#     4  11  20  38  65  97 130 171 238 276 339 414
#     4  12  24  39  68 102 133 182 231 295 344 422
#     4  12  25  40  70 106 143 182 235 293 365 415
#     4  11  22  44  67 101 138 186 229 297 349 423
#     4  11  24  42  69  99 140 182 239 292 348 419
#     4  11  23  40  72  96 136 185 237 286 348 421
#     4  12  24  43  69 107 140 192 235 299 353 432
#
# _framework density 21.171749999999999
#
# number of rings (size 3 to 8) (size 9 to 14) (size 15 to 20)
#    0.000    0.571    7.143    2.571    4.000    0.000 
#    0.000    1.429    3.143    0.000    0.000    0.000 
#    0.000    0.000    0.000    0.000    0.000    0.000 
#
# Total GULP energy -117448.097961 kJ/mol
# GULP energy per Si atom -5592.766570 kJ/mol
# Density = 2.112356 g / cm^3
# Si number density = 21.171750 Si / 1000 Ang^3
#
#
#
# Elastic Constant Matrix: (Units=GPa)
#
#
# Indices 1 2 3 4 5 6 
#
# 1 59.8260 12.7331 1.6692 0.0144 3.2032 0.0000
# 2 12.7331 59.8260 1.6692 -0.0144 -3.2032 0.0000
# 3 1.6692 1.6692 50.9122 0.0000 0.0000 0.0000
# 4 0.0144 -0.0144 0.0000 23.7889 0.0000 -3.2032
# 5 3.2032 -3.2032 0.0000 0.0000 23.7889 0.0144
# 6 0.0000 0.0000 0.0000 -3.2032 0.0144 23.5464
#
#
#
# Elastic Compliance Matrix: (Units=1/GPa)
#
#
# Indices 1 2 3 4 5 6 
#
# 1 0.017717 -0.003914 -0.000453 -0.000013 -0.002913 0.000000
# 2 -0.003914 0.017717 -0.000453 0.000013 0.002913 0.000000
# 3 -0.000453 -0.000453 0.019671 0.000000 0.000000 0.000000
# 4 -0.000013 0.000013 0.000000 0.042821 0.000000 0.005825
# 5 -0.002913 0.002913 0.000000 0.000000 0.042821 -0.000026
# 6 0.000000 0.000000 0.000000 0.005825 -0.000026 0.043262
#
#
# Mechanical properties :
#
#
# Convention : Reuss Voigt Hill
#
# Bulk Modulus (GPa) = 21.99418 22.52303 22.25861
# Shear Modulus (GPa) = 23.94610 24.52434 24.23522
#
# Velocity S-wave (km/s) = 3.36674 3.40715 3.38701
# Velocity P-wave (km/s) = 5.05216 5.11269 5.08251
#
# Compressibility (1/GPa) = 0.04546656
#
# Stress axis : x y z
#
# Youngs Moduli (GPa) = 56.44363 56.44363 50.83538
#
# Poissons Ratio (x) = 0.22093 0.02301
# Poissons Ratio (y) = 0.22093 0.02301
# Poissons Ratio (z) = 0.02554 0.02554
#
# Static dielectric constant tensor:
#      x y z
#    x 1.769760 0.000000 0.000000 
#    y 0.000000 1.769760 0.000000 
#    z 0.000000 0.000000 1.786820 
# 
# From -- ./inp_files/623.got.cif
#   From: 2010.05.17/outbox.cif.g08.bks.cpg/sg145_cif.got.tgz:623.got - 2010.05.20 13:47:28.
