data_PCOD9574756
_publ_section_title
;
Structure prediction by ZEFSAII (Michael W. Deem and Ramdas Pophale) SiO2 
 PCOD9574756
Probable space group: R 3
;
_chemical_formula_sum "Si O2"
_cell_formula_units_Z 63
_cell_length_a 17.846912
_cell_length_b 17.846912
_cell_length_c 9.021896
_cell_angle_alpha 90.000000
_cell_angle_beta 90.000000
_cell_angle_gamma 120.000000
_cell_volume 2488.597225
_symmetry_space_group_name_H-M "R 3"
_symmetry_group_IT_number 146
_symmetry_cell_setting 'hexagonal'
loop_
_space_group_symop_operation_xyz
x,y,z
-y,x-y,z
-x+y,-x,z
2/3+x,1/3+y,1/3+z
2/3-y,1/3+x-y,1/3+z
2/3-x+y,1/3-x,1/3+z
1/3+x,2/3+y,2/3+z
1/3-y,2/3+x-y,2/3+z
1/3-x+y,2/3-x,2/3+z
loop_
_atom_site_type_symbol
_atom_site_label
_atom_site_fract_x
_atom_site_fract_y
_atom_site_fract_z
Si Si1 0.627021 0.723350 0.883040
Si Si2 0.194350 0.729397 0.001815
Si Si3 0.113217 0.183603 0.109091
Si Si4 0.247617 0.285086 0.877677
Si Si5 0.338502 0.125813 0.672917
Si Si6 0.535339 0.688646 0.581643
Si Si7 0.395231 0.477832 0.223652
O O1 0.561194 0.733015 0.992449
O O2 0.597426 0.734736 0.721702
O O3 0.726432 0.789884 0.895804
O O4 0.618117 0.633155 0.936483
O O5 0.208276 0.664063 0.900198
O O6 0.111384 0.733181 0.934768
O O7 0.167789 0.687759 0.162463
O O8 0.135264 0.273858 0.201039
O O9 0.194225 0.214261 0.000466
O O10 0.026952 0.137375 0.006053
O O11 0.191351 0.255164 0.730557
O O12 0.335479 0.284748 0.843566
O O13 0.244673 0.079179 0.764708
O O14 0.399051 0.185803 0.806384
#
# Coordination Sequence:
#
# PCOD9574756 Si02
#       7
#     9   9   9   9   9   9   9
#     4  11  22  37  64  90 137 178 219 282 345 423
#     4  11  21  39  60  92 131 176 216 267 341 416
#     4  10  23  39  61  89 134 176 224 270 347 418
#     4  12  20  35  58  92 126 166 205 273 336 399
#     4  10  24  41  59  95 133 174 227 275 348 416
#     4  11  21  38  60  94 131 176 224 284 350 414
#     4  11  23  35  62  92 132 166 219 277 335 410
#
# _framework density 25.315467000000002
#
# number of rings (size 3 to 8) (size 9 to 14) (size 15 to 20)
#    0.000    1.143    5.714    0.857    2.000    0.000 
#    0.000    0.000    0.000   15.429    0.000    0.000 
#    0.000    0.000    0.000    0.000    0.000    0.000 
#
# Total GULP energy -116956.847747 kJ/mol
# GULP energy per Si atom -5569.373702 kJ/mol
# Density = 2.525785 g / cm^3
# Si number density = 25.315467 Si / 1000 Ang^3
#
#
#
# Elastic Constant Matrix: (Units=GPa)
#
#
# Indices 1 2 3 4 5 6 
#
# 1 55.9895 3.8985 23.9378 3.6629 6.7259 0.0000
# 2 3.8985 55.9895 23.9377 -3.6629 -6.7259 0.0000
# 3 23.9378 23.9377 145.7352 0.0000 0.0000 0.0000
# 4 3.6629 -3.6629 0.0000 35.3794 0.0000 -6.7259
# 5 6.7259 -6.7259 0.0000 0.0000 35.3794 3.6629
# 6 0.0000 0.0000 0.0000 -6.7259 3.6629 26.0455
#
#
#
# Elastic Compliance Matrix: (Units=1/GPa)
#
#
# Indices 1 2 3 4 5 6 
#
# 1 0.019862 -0.000640 -0.003157 -0.002123 -0.003898 0.000000
# 2 -0.000640 0.019862 -0.003157 0.002123 0.003898 0.000000
# 3 -0.003157 -0.003157 0.007899 0.000000 0.000000 0.000000
# 4 -0.002123 0.002123 0.000000 0.030186 0.000000 0.007795
# 5 -0.003898 0.003898 0.000000 0.000000 0.030186 -0.004245
# 6 0.000000 0.000000 0.000000 0.007795 -0.004245 0.041004
#
#
# Mechanical properties :
#
#
# Convention : Reuss Voigt Hill
#
# Bulk Modulus (GPa) = 29.66174 40.14025 34.90100
# Shear Modulus (GPa) = 28.71124 33.09021 30.90073
#
# Velocity S-wave (km/s) = 3.37135 3.61933 3.49754
# Velocity P-wave (km/s) = 5.18623 5.77551 5.48878
#
# Compressibility (1/GPa) = 0.03371346
#
# Stress axis : x y z
#
# Youngs Moduli (GPa) = 50.34734 50.34734 126.59900
#
# Poissons Ratio (x) = 0.03223 0.39971
# Poissons Ratio (y) = 0.03223 0.39971
# Poissons Ratio (z) = 0.15896 0.15896
#
# Static dielectric constant tensor:
#      x y z
#    x 2.087810 0.000000 0.000000 
#    y 0.000000 2.087810 0.000000 
#    z 0.000000 0.000000 2.032610 
# 
# From -- ./inp_files/821.got.cif
#   From: 2010.05.17/outbox.cif.g08.bks.cpg/sg146_cif.got.tgz:821.got - 2010.05.20 13:48:23.
