data_PCOD9574255
_publ_section_title
;
Structure prediction by ZEFSAII (Michael W. Deem and Ramdas Pophale) SiO2 
 PCOD9574255
Probable space group: I 41/A C D
;
_chemical_formula_sum "Si O2"
_cell_formula_units_Z 88
_cell_length_a 18.000000
_cell_length_b 18.000000
_cell_length_c 30.000000
_cell_angle_alpha 90.000000
_cell_angle_beta 90.000000
_cell_angle_gamma 90.000000
_cell_volume 9720.000000
_symmetry_space_group_name_H-M "I 41/A C D"
_symmetry_group_IT_number 142
_space_group.IT_coordinate_system_code '2'
_symmetry_cell_setting 'tetragonal'
loop_
_space_group_symop_operation_xyz
x,y,z
1/4-y,3/4+x,1/4+z
-x,1/2-y,z
1/4+y,1/4-x,3/4+z
x,-y,1/2-z
1/2-x,y,-z
3/4+y,1/4+x,1/4-z
1/4-y,1/4-x,1/4-z
-x,-y,-z
3/4+y,1/4-x,3/4-z
x,1/2+y,-z
3/4-y,3/4+x,1/4-z
-x,y,1/2+z
1/2+x,-y,z
1/4-y,3/4-x,3/4+z
3/4+y,3/4+x,3/4+z
1/2+x,1/2+y,1/2+z
3/4-y,1/4+x,3/4+z
1/2-x,-y,1/2+z
3/4+y,3/4-x,1/4+z
1/2+x,1/2-y,-z
-x,1/2+y,1/2-z
1/4+y,3/4+x,3/4-z
3/4-y,3/4-x,3/4-z
1/2-x,1/2-y,1/2-z
1/4+y,3/4-x,1/4-z
1/2+x,y,1/2-z
1/4-y,1/4+x,3/4-z
1/2-x,1/2+y,z
x,1/2-y,1/2+z
3/4-y,1/4-x,1/4+z
1/4+y,1/4+x,1/4+z
loop_
_atom_site_type_symbol
_atom_site_label
_atom_site_fract_x
_atom_site_fract_y
_atom_site_fract_z
Si Si1 0.250000 0.006063 0.000000
Si Si2 0.781151 0.824243 0.278013
Si Si3 0.985450 0.978708 0.302102
Si Si4 0.059031 0.185719 0.678870
Si Si5 0.631570 0.491208 0.122823
Si Si6 0.762189 0.898620 0.908581
O O1 0.262431 0.052263 0.954223
O O2 0.162606 0.971743 0.991821
O O3 0.750000 0.750000 0.250000
O O4 0.865027 0.804980 0.293456
O O5 0.741902 0.834926 0.326668
O O6 0.975430 0.890930 0.305207
O O7 0.064468 0.994573 0.325228
O O8 0.982454 0.000000 0.250000
O O9 0.919579 0.011072 0.333396
O O10 0.069647 0.180354 0.625000
O O11 0.000000 0.250000 0.687104
O O12 0.685129 0.564872 0.125000
O O13 0.689886 0.424381 0.119003
O O14 0.830297 0.919704 0.875000
#
# Coordination Sequence:
#
# PCOD9574255 Si02
#       6
#    16  32  32  32  32  32
#     4  10  24  42  64 100 136 172 240 284 342 430
#     4  11  23  40  69  99 133 178 228 285 346 417
#     4  12  24  41  69  96 133 176 224 282 351 408
#     4  11  25  42  65  95 133 172 224 282 345 412
#     4  10  21  46  61  93 133 170 223 279 344 417
#     4  10  24  40  66  94 131 174 225 283 340 413
#
# _framework density 9.0534979999999994
#
# number of rings (size 3 to 8) (size 9 to 14) (size 15 to 20)
#    0.000    1.273    4.545    0.000    8.909    0.000 
#    0.000    0.000    0.000    0.000    0.000    0.000 
#    0.000    0.000    0.000    0.000    0.000    0.000 
#
# Total GULP energy -489997.576711 kJ/mol
# GULP energy per Si atom -5568.154281 kJ/mol
# Density = 0.903289 g / cm^3
# Si number density = 9.053498 Si / 1000 Ang^3
#
#
#
# Elastic Constant Matrix: (Units=GPa)
#
#
# Indices 1 2 3 4 5 6 
#
# 1 119.7539 76.1165 64.4844 0.0000 0.0000 0.0000
# 2 76.1165 119.7532 64.4839 0.0000 0.0000 0.0000
# 3 64.4844 64.4839 147.3739 0.0000 0.0000 0.0000
# 4 0.0000 0.0000 0.0000 21.2845 0.0000 0.0000
# 5 0.0000 0.0000 0.0000 0.0000 21.2838 0.0000
# 6 0.0000 0.0000 0.0000 0.0000 0.0000 31.1985
#
#
#
# Elastic Compliance Matrix: (Units=1/GPa)
#
#
# Indices 1 2 3 4 5 6 
#
# 1 0.015044 -0.007872 -0.003138 0.000000 0.000000 0.000000
# 2 -0.007872 0.015044 -0.003138 0.000000 0.000000 0.000000
# 3 -0.003138 -0.003138 0.009532 0.000000 0.000000 0.000000
# 4 0.000000 0.000000 0.000000 0.046983 0.000000 0.000000
# 5 0.000000 0.000000 0.000000 0.000000 0.046984 0.000000
# 6 0.000000 0.000000 0.000000 0.000000 0.000000 0.032053
#
#
# Mechanical properties :
#
#
# Convention : Reuss Voigt Hill
#
# Bulk Modulus (GPa) = 88.31705 88.56118 88.43912
# Shear Modulus (GPa) = 25.28960 26.87310 26.08135
#
# Velocity S-wave (km/s) = 3.74127 3.85662 3.79938
# Velocity P-wave (km/s) = 8.21850 8.29744 8.25806
#
# Compressibility (1/GPa) = 0.01132284
#
# Stress axis : x y z
#
# Youngs Moduli (GPa) = 66.47205 66.47184 104.91510
#
# Poissons Ratio (x) = 0.52329 0.32922
# Poissons Ratio (y) = 0.52329 0.32922
# Poissons Ratio (z) = 0.20859 0.20858
#
# Static dielectric constant tensor:
#      x y z
#    x 1.670720 0.000000 0.000000 
#    y 0.000000 1.670720 0.000000 
#    z 0.000000 0.000000 1.547150 
# 
# From -- ./inp_files/12542.got.cif
#   From: 2010.05.17/outbox.ucp.g08.bks.cvg/sg142_7_cif.got.tgz:12542.got - 2010.06.11 11:43:53.
