data_PCOD9574113
_publ_section_title
;
Structure prediction by ZEFSAII (Michael W. Deem and Ramdas Pophale) SiO2 
 PCOD9574113
Probable space group: I 41/A C D
;
_chemical_formula_sum "Si O2"
_cell_formula_units_Z 176
_cell_length_a 22.358493
_cell_length_b 22.358493
_cell_length_c 14.455228
_cell_angle_alpha 90.000000
_cell_angle_beta 90.000000
_cell_angle_gamma 90.000000
_cell_volume 7226.200412
_symmetry_space_group_name_H-M "I 41/A C D"
_symmetry_group_IT_number 142
_space_group.IT_coordinate_system_code '2'
_symmetry_cell_setting 'tetragonal'
loop_
_space_group_symop_operation_xyz
x,y,z
1/4-y,3/4+x,1/4+z
-x,1/2-y,z
1/4+y,1/4-x,3/4+z
x,-y,1/2-z
1/2-x,y,-z
3/4+y,1/4+x,1/4-z
1/4-y,1/4-x,1/4-z
-x,-y,-z
3/4+y,1/4-x,3/4-z
x,1/2+y,-z
3/4-y,3/4+x,1/4-z
-x,y,1/2+z
1/2+x,-y,z
1/4-y,3/4-x,3/4+z
3/4+y,3/4+x,3/4+z
1/2+x,1/2+y,1/2+z
3/4-y,1/4+x,3/4+z
1/2-x,-y,1/2+z
3/4+y,3/4-x,1/4+z
1/2+x,1/2-y,-z
-x,1/2+y,1/2-z
1/4+y,3/4+x,3/4-z
3/4-y,3/4-x,3/4-z
1/2-x,1/2-y,1/2-z
1/4+y,3/4-x,1/4-z
1/2+x,y,1/2-z
1/4-y,1/4+x,3/4-z
1/2-x,1/2+y,z
x,1/2-y,1/2+z
3/4-y,1/4-x,1/4+z
1/4+y,1/4+x,1/4+z
loop_
_atom_site_type_symbol
_atom_site_label
_atom_site_fract_x
_atom_site_fract_y
_atom_site_fract_z
Si Si1 0.210196 0.960196 0.875000
Si Si2 0.996887 0.954964 0.142135
Si Si3 0.669514 0.236784 0.319016
Si Si4 0.750000 0.433475 0.000000
Si Si5 0.357346 0.107346 0.875000
Si Si6 0.443055 0.306946 0.875000
Si Si7 0.750000 0.640943 0.000000
Si Si8 0.984847 0.671435 0.185785
O O1 0.210821 0.902770 0.938231
O O2 0.212812 0.021206 0.934249
O O3 0.030654 0.898547 0.186930
O O4 0.931717 0.957392 0.187866
O O5 0.996812 0.941546 0.034129
O O6 0.013852 0.025157 0.141673
O O7 0.642904 0.170389 0.323040
O O8 0.622046 0.289403 0.337378
O O9 0.701524 0.398097 0.939913
O O10 0.488817 0.308210 0.785493
O O11 0.037537 0.683237 0.109012
#
# Coordination Sequence:
#
# PCOD9574113 Si02
#       8
#    16  32  32  16  16  16  16  32
#     4   9  20  41  66 106 146 202 249 318 397 480
#     4  11  25  49  68 113 145 193 259 323 394 465
#     4  11  27  48  75 109 154 201 261 322 399 475
#     4   9  20  43  66 106 150 191 257 310 398 472
#     4  11  24  43  72 106 141 204 244 328 382 474
#     4  12  26  50  78 112 157 204 261 318 396 458
#     4  11  22  41  74 104 152 197 259 322 400 472
#     4  11  26  48  76 111 148 205 256 321 381 473
#
# _framework density 24.355813999999999
#
# number of rings (size 3 to 8) (size 9 to 14) (size 15 to 20)
#    0.000    1.273    1.818    2.182    2.545    6.909 
#    9.818    0.000    0.000    0.000    0.000    0.000 
#    0.000    0.000    0.000    0.000    0.000    0.000 
#
# Total GULP energy -491794.396604 kJ/mol
# GULP energy per Si atom -5588.572689 kJ/mol
# Density = 2.430038 g / cm^3
# Si number density = 24.355814 Si / 1000 Ang^3
#
#
#
# Elastic Constant Matrix: (Units=GPa)
#
#
# Indices 1 2 3 4 5 6 
#
# 1 101.0790 26.2269 28.7543 0.0000 0.0000 0.0000
# 2 26.2269 101.0801 28.7547 0.0000 0.0000 0.0000
# 3 28.7543 28.7547 121.9922 0.0000 0.0000 0.0000
# 4 0.0000 0.0000 0.0000 -1.8331 0.0000 0.0000
# 5 0.0000 0.0000 0.0000 0.0000 -1.8366 0.0000
# 6 0.0000 0.0000 0.0000 0.0000 0.0000 2066.7686
#
#
#
# Elastic Compliance Matrix: (Units=1/GPa)
#
#
# Indices 1 2 3 4 5 6 
#
# 1 0.011075 -0.002284 -0.002072 0.000000 0.000000 0.000000
# 2 -0.002284 0.011075 -0.002072 0.000000 0.000000 0.000000
# 3 -0.002072 -0.002072 0.009174 0.000000 0.000000 0.000000
# 4 0.000000 0.000000 0.000000 -0.545518 0.000000 0.000000
# 5 0.000000 0.000000 0.000000 0.000000 -0.544492 0.000000
# 6 0.000000 0.000000 0.000000 0.000000 0.000000 0.000484
#
#
# Mechanical properties :
#
#
# Convention : Reuss Voigt Hill
#
# Bulk Modulus (GPa) = 54.14833 54.62477 54.38655
# Shear Modulus (GPa) = -4.81145 428.64749 211.91802
#
# Velocity S-wave (km/s) = -1.40704 13.28066 9.33799
# Velocity P-wave (km/s) = 4.43179 16.05131 11.77466
#
# Compressibility (1/GPa) = 0.01846779
#
# Stress axis : x y z
#
# Youngs Moduli (GPa) = 90.29021 90.29110 109.00273
#
# Poissons Ratio (x) = 0.20624 0.22587
# Poissons Ratio (y) = 0.20624 0.22587
# Poissons Ratio (z) = 0.18709 0.18710
#
# Static dielectric constant tensor:
#      x y z
#    x 1.843690 0.000000 0.000000 
#    y 0.000000 1.843680 0.000000 
#    z 0.000000 0.000000 1.942990 
# 
# From -- ./inp_files/5626.got.cif
#   From: 2010.05.17/outbox.cif.g08.bks.cpg/sg142_3_cif.got.tgz:5626.got - 2010.05.20 13:39:18.
