data_PCOD9574961
_publ_section_title
;
Structure prediction by ZEFSAII (Michael W. Deem and Ramdas Pophale) SiO2 
 PCOD9574961
Probable space group: P -3
;
_chemical_formula_sum "Si O2"
_cell_formula_units_Z 48
_cell_length_a 17.334340
_cell_length_b 17.334340
_cell_length_c 8.876123
_cell_angle_alpha 90.000000
_cell_angle_beta 90.000000
_cell_angle_gamma 120.000000
_cell_volume 2309.769088
_symmetry_space_group_name_H-M "P -3"
_symmetry_group_IT_number 147
_symmetry_cell_setting 'hexagonal'
loop_
_space_group_symop_operation_xyz
x,y,z
-y,x-y,z
-x+y,-x,z
-x,-y,-z
y,-x+y,-z
x-y,x,-z
loop_
_atom_site_type_symbol
_atom_site_label
_atom_site_fract_x
_atom_site_fract_y
_atom_site_fract_z
Si Si1 0.254540 0.478246 0.598017
Si Si2 0.097090 0.372619 0.388611
Si Si3 0.311582 0.266383 0.923964
Si Si4 0.663106 0.235366 0.137585
Si Si5 0.440981 0.417368 0.107455
Si Si6 0.696843 0.860786 0.815843
Si Si7 0.130154 0.926085 0.528562
Si Si8 0.554655 0.953728 0.446200
O O1 0.180970 0.450834 0.469317
O O2 0.251610 0.556701 0.688114
O O3 0.221058 0.397457 0.724739
O O4 0.341348 0.486597 0.515751
O O5 0.089702 0.381423 0.212150
O O6 0.107027 0.286753 0.416103
O O7 0.009723 0.357426 0.477590
O O8 0.222995 0.257054 0.848977
O O9 0.348530 0.352349 0.028132
O O10 0.307453 0.189440 0.029548
O O11 0.748431 0.330787 0.083045
O O12 0.635846 0.132839 0.115106
O O13 0.413162 0.439351 0.267939
O O14 0.500000 0.500000 0.000000
O O15 0.756493 0.843972 0.696303
O O16 0.026312 0.865282 0.507247
O O17 0.500000 0.000000 0.500000
#
# Coordination Sequence:
#
# PCOD9574961 Si02
#       8
#     6   6   6   6   6   6   6   6
#     4  11  22  44  68  99 131 183 240 283 343 412
#     4  11  22  42  66  96 132 179 233 287 338 414
#     4  12  25  41  65  98 141 177 226 285 370 415
#     4  10  23  43  72  93 136 185 228 276 350 420
#     4  12  26  44  69 107 141 186 231 290 356 422
#     4  11  25  40  66  97 139 181 229 294 353 421
#     4  11  22  42  66  94 129 181 239 285 344 416
#     4  12  24  44  72 101 134 178 242 287 337 423
#
# _framework density 20.781299000000001
#
# number of rings (size 3 to 8) (size 9 to 14) (size 15 to 20)
#    0.250    0.500    5.000    3.125    5.250    0.000 
#    0.000    0.000    0.000    2.500    0.000    0.000 
#    0.000    0.000    0.000    0.000    0.000    0.000 
#
# Total GULP energy -267445.662494 kJ/mol
# GULP energy per Si atom -5571.784635 kJ/mol
# Density = 2.073400 g / cm^3
# Si number density = 20.781299 Si / 1000 Ang^3
#
#
#
# Elastic Constant Matrix: (Units=GPa)
#
#
# Indices 1 2 3 4 5 6 
#
# 1 48.4781 3.8208 17.9285 1.8409 -8.9891 0.0000
# 2 3.8208 48.4781 17.9285 -1.8409 8.9891 0.0000
# 3 17.9285 17.9285 126.3824 0.0000 0.0000 0.0000
# 4 1.8409 -1.8409 0.0000 30.8984 0.0000 8.9891
# 5 -8.9891 8.9891 0.0000 0.0000 30.8984 1.8409
# 6 0.0000 0.0000 0.0000 8.9891 1.8409 22.3286
#
#
#
# Elastic Compliance Matrix: (Units=1/GPa)
#
#
# Indices 1 2 3 4 5 6 
#
# 1 0.023343 -0.002162 -0.003005 -0.001520 0.007420 0.000000
# 2 -0.002162 0.023343 -0.003005 0.001520 -0.007420 0.000000
# 3 -0.003005 -0.003005 0.008765 0.000000 0.000000 0.000000
# 4 -0.001520 0.001520 0.000000 0.036863 0.000000 -0.014840
# 5 0.007420 -0.007420 0.000000 0.000000 0.036863 -0.003039
# 6 0.000000 0.000000 0.000000 -0.014840 -0.003039 0.051010
#
#
# Mechanical properties :
#
#
# Convention : Reuss Voigt Hill
#
# Bulk Modulus (GPa) = 25.57018 33.63268 29.60143
# Shear Modulus (GPa) = 23.85882 29.06912 26.46397
#
# Velocity S-wave (km/s) = 3.39202 3.74413 3.57242
# Velocity P-wave (km/s) = 5.26044 5.90852 5.59387
#
# Compressibility (1/GPa) = 0.03910806
#
# Stress axis : x y z
#
# Youngs Moduli (GPa) = 42.83920 42.83920 114.09023
#
# Poissons Ratio (x) = 0.09262 0.34281
# Poissons Ratio (y) = 0.09262 0.34281
# Poissons Ratio (z) = 0.12872 0.12872
#
# Static dielectric constant tensor:
#      x y z
#    x 2.023840 0.000000 0.000000 
#    y 0.000000 2.023840 0.000000 
#    z 0.000000 0.000000 1.784270 
# 
# From -- ./inp_files/687.got.cif
#   From: 2010.05.17/outbox.cif.g08.bks.cpg/sg147_cif.got.tgz:687.got - 2010.05.20 13:49:32.
