data_PCOD9574153
_publ_section_title
;
Structure prediction by ZEFSAII (Michael W. Deem and Ramdas Pophale) SiO2 
 PCOD9574153
Probable space group: I 41/A C D
;
_chemical_formula_sum "Si O2"
_cell_formula_units_Z 176
_cell_length_a 16.136683
_cell_length_b 16.136683
_cell_length_c 30.613740
_cell_angle_alpha 90.000000
_cell_angle_beta 90.000000
_cell_angle_gamma 90.000000
_cell_volume 7971.589464
_symmetry_space_group_name_H-M "I 41/A C D"
_symmetry_group_IT_number 142
_space_group.IT_coordinate_system_code '2'
_symmetry_cell_setting 'tetragonal'
loop_
_space_group_symop_operation_xyz
x,y,z
1/4-y,3/4+x,1/4+z
-x,1/2-y,z
1/4+y,1/4-x,3/4+z
x,-y,1/2-z
1/2-x,y,-z
3/4+y,1/4+x,1/4-z
1/4-y,1/4-x,1/4-z
-x,-y,-z
3/4+y,1/4-x,3/4-z
x,1/2+y,-z
3/4-y,3/4+x,1/4-z
-x,y,1/2+z
1/2+x,-y,z
1/4-y,3/4-x,3/4+z
3/4+y,3/4+x,3/4+z
1/2+x,1/2+y,1/2+z
3/4-y,1/4+x,3/4+z
1/2-x,-y,1/2+z
3/4+y,3/4-x,1/4+z
1/2+x,1/2-y,-z
-x,1/2+y,1/2-z
1/4+y,3/4+x,3/4-z
3/4-y,3/4-x,3/4-z
1/2-x,1/2-y,1/2-z
1/4+y,3/4-x,1/4-z
1/2+x,y,1/2-z
1/4-y,1/4+x,3/4-z
1/2-x,1/2+y,z
x,1/2-y,1/2+z
3/4-y,1/4-x,1/4+z
1/4+y,1/4+x,1/4+z
loop_
_atom_site_type_symbol
_atom_site_label
_atom_site_fract_x
_atom_site_fract_y
_atom_site_fract_z
Si Si1 0.028331 0.342950 0.773606
Si Si2 0.926779 0.899384 0.309922
Si Si3 0.866943 0.735507 0.115089
Si Si4 0.291649 0.835934 0.733074
Si Si5 0.192352 0.239693 0.650357
Si Si6 0.750000 0.067282 0.000000
O O1 0.123243 0.345560 0.759430
O O2 0.000000 0.250000 0.786150
O O3 0.974770 0.367523 0.732082
O O4 0.009362 0.400205 0.815009
O O5 0.861647 0.830470 0.326067
O O6 0.989603 0.911759 0.350264
O O7 0.873320 0.976813 0.292178
O O8 0.911703 0.817135 0.133845
O O9 0.787918 0.714707 0.143888
O O10 0.250000 0.750000 0.750000
O O11 0.310154 0.819040 0.681739
O O12 0.235945 0.917327 0.740147
#
# Coordination Sequence:
#
# PCOD9574153 Si02
#       6
#    32  32  32  32  32  16
#     4  12  23  47  74 102 144 196 247 299 375 453
#     4  11  26  46  70 105 146 201 242 301 371 450
#     4  11  24  39  69 107 137 183 242 305 365 432
#     4  12  26  48  74 107 148 195 243 314 376 441
#     4  11  25  45  69 102 149 187 243 303 364 440
#     4  12  26  46  76 110 152 198 250 310 384 444
#
# _framework density 22.078408
#
# number of rings (size 3 to 8) (size 9 to 14) (size 15 to 20)
#    0.000    0.545    5.455    2.182    5.091    2.909 
#    0.000    0.000    0.000    0.000    0.000    0.000 
#    0.000    0.000    0.000    0.000    0.000    0.000 
#
# Total GULP energy -492248.374458 kJ/mol
# GULP energy per Si atom -5593.731528 kJ/mol
# Density = 2.202816 g / cm^3
# Si number density = 22.078408 Si / 1000 Ang^3
#
#
#
# Elastic Constant Matrix: (Units=GPa)
#
#
# Indices 1 2 3 4 5 6 
#
# 1 101.2403 41.9021 47.5734 0.0000 0.0000 0.0000
# 2 41.9021 101.2403 47.5734 0.0000 0.0000 0.0000
# 3 47.5734 47.5734 177.7881 0.0000 0.0000 0.0000
# 4 0.0000 0.0000 0.0000 22.0683 0.0000 0.0000
# 5 0.0000 0.0000 0.0000 0.0000 22.0683 0.0000
# 6 0.0000 0.0000 0.0000 0.0000 0.0000 33.1106
#
#
#
# Elastic Compliance Matrix: (Units=1/GPa)
#
#
# Indices 1 2 3 4 5 6 
#
# 1 0.012675 -0.004178 -0.002274 0.000000 0.000000 0.000000
# 2 -0.004178 0.012675 -0.002274 0.000000 0.000000 0.000000
# 3 -0.002274 -0.002274 0.006842 0.000000 0.000000 0.000000
# 4 0.000000 0.000000 0.000000 0.045314 0.000000 0.000000
# 5 0.000000 0.000000 0.000000 0.000000 0.045314 0.000000
# 6 0.000000 0.000000 0.000000 0.000000 0.000000 0.030202
#
#
# Mechanical properties :
#
#
# Convention : Reuss Voigt Hill
#
# Bulk Modulus (GPa) = 67.83679 72.70741 70.27210
# Shear Modulus (GPa) = 28.50872 31.66410 30.08641
#
# Velocity S-wave (km/s) = 3.59729 3.79115 3.69549
# Velocity P-wave (km/s) = 6.93153 7.22265 7.07859
#
# Compressibility (1/GPa) = 0.01474126
#
# Stress axis : x y z
#
# Youngs Moduli (GPa) = 78.89548 78.89548 146.16600
#
# Poissons Ratio (x) = 0.32959 0.33235
# Poissons Ratio (y) = 0.32959 0.33235
# Poissons Ratio (z) = 0.17939 0.17939
#
# Static dielectric constant tensor:
#      x y z
#    x 1.803240 0.000000 0.000000 
#    y 0.000000 1.803240 0.000000 
#    z 0.000000 0.000000 1.839270 
# 
# From -- ./inp_files/11462.got.cif
#   From: 2010.05.17/outbox.cif.g08.bks.cpg/sg142_6_cif.got.tgz:11462.got - 2010.05.20 13:39:18.
