data_PCOD9574815
_publ_section_title
;
Structure prediction by ZEFSAII (Michael W. Deem and Ramdas Pophale) SiO2 
 PCOD9574815
Probable space group: R 3
;
_chemical_formula_sum "Si O2"
_cell_formula_units_Z 42
_cell_length_a 10.925119
_cell_length_b 10.925119
_cell_length_c 19.815709
_cell_angle_alpha 90.000000
_cell_angle_beta 90.000000
_cell_angle_gamma 120.000000
_cell_volume 2048.295448
_symmetry_space_group_name_H-M "R 3"
_symmetry_group_IT_number 146
_symmetry_cell_setting 'hexagonal'
loop_
_space_group_symop_operation_xyz
x,y,z
-y,x-y,z
-x+y,-x,z
2/3+x,1/3+y,1/3+z
2/3-y,1/3+x-y,1/3+z
2/3-x+y,1/3-x,1/3+z
1/3+x,2/3+y,2/3+z
1/3-y,2/3+x-y,2/3+z
1/3-x+y,2/3-x,2/3+z
loop_
_atom_site_type_symbol
_atom_site_label
_atom_site_fract_x
_atom_site_fract_y
_atom_site_fract_z
Si Si1 0.012082 0.468925 0.623840
Si Si2 0.890800 0.297740 0.874371
Si Si3 0.666668 0.333334 0.116656
Si Si4 0.666667 0.333334 0.280587
Si Si5 0.244312 0.878802 0.398375
Si Si6 0.948531 0.580981 0.943121
O O1 0.007177 0.386852 0.556114
O O2 0.173098 0.585535 0.638608
O O3 0.962724 0.349928 0.682911
O O4 0.937594 0.559483 0.605349
O O5 0.850455 0.246060 0.798462
O O6 0.899750 0.443340 0.895711
O O7 0.790393 0.171051 0.924835
O O8 0.666668 0.333334 0.198332
O O9 0.672982 0.477910 0.090734
O O10 0.135469 0.750497 0.352018
#
# Coordination Sequence:
#
# PCOD9574815 Si02
#       6
#     9   9   3   3   9   9
#     4  11  23  44  67  99 140 178 230 290 345 412
#     4  11  24  46  70 103 138 189 232 285 352 410
#     4  12  21  42  75  99 135 177 241 275 343 435
#     4  12  21  45  69  93 144 183 226 293 343 408
#     4  11  25  42  73 105 134 188 233 288 355 408
#     4  11  24  45  70 101 145 175 238 291 338 427
#
# _framework density 20.504854000000002
#
# number of rings (size 3 to 8) (size 9 to 14) (size 15 to 20)
#    0.000    0.857    4.286    3.000    3.000    0.000 
#   14.143    0.000    0.000    0.000    0.000    0.000 
#    0.000    0.000    0.000    0.000    0.000    0.000 
#
# Total GULP energy -77958.479156 kJ/mol
# GULP energy per Si atom -5568.462797 kJ/mol
# Density = 2.045818 g / cm^3
# Si number density = 20.504854 Si / 1000 Ang^3
#
#
#
# Elastic Constant Matrix: (Units=GPa)
#
#
# Indices 1 2 3 4 5 6 
#
# 1 78.2958 11.6289 28.4807 -4.9916 5.7608 0.0002
# 2 11.6289 78.2957 28.4808 4.9914 -5.7608 0.0000
# 3 28.4807 28.4808 111.5359 0.0000 -0.0001 0.0000
# 4 -4.9916 4.9914 0.0000 20.4226 -0.0002 -5.7610
# 5 5.7608 -5.7608 -0.0001 -0.0002 20.4226 -4.9912
# 6 0.0002 0.0000 0.0000 -5.7610 -4.9912 33.3335
#
#
#
# Elastic Compliance Matrix: (Units=1/GPa)
#
#
# Indices 1 2 3 4 5 6 
#
# 1 0.014833 -0.001567 -0.003388 0.004008 -0.004626 0.000000
# 2 -0.001567 0.014833 -0.003388 -0.004008 0.004626 0.000000
# 3 -0.003388 -0.003388 0.010696 0.000000 0.000000 0.000000
# 4 0.004008 -0.004008 0.000000 0.053535 0.000000 0.009252
# 5 -0.004626 0.004626 0.000000 0.000000 0.053534 0.008016
# 6 0.000000 0.000000 0.000000 0.009252 0.008016 0.032799
#
#
# Mechanical properties :
#
#
# Convention : Reuss Voigt Hill
#
# Bulk Modulus (GPa) = 42.23327 45.03425 43.63376
# Shear Modulus (GPa) = 24.41333 28.13820 26.27577
#
# Velocity S-wave (km/s) = 3.45427 3.70844 3.58361
# Velocity P-wave (km/s) = 6.04572 6.35193 6.20072
#
# Compressibility (1/GPa) = 0.02367802
#
# Stress axis : x y z
#
# Youngs Moduli (GPa) = 67.41756 67.41760 93.49517
#
# Poissons Ratio (x) = 0.10562 0.31672
# Poissons Ratio (y) = 0.10562 0.31672
# Poissons Ratio (z) = 0.22838 0.22838
#
# Static dielectric constant tensor:
#      x y z
#    x 1.793770 0.000000 0.000000 
#    y 0.000000 1.793770 0.000000 
#    z 0.000000 0.000000 1.760820 
# 
# From -- ./inp_files/1681.got.cif
#   From: 2010.05.17/outbox.cif.g08.bks.cpg/sg146_cif.got.tgz:1681.got - 2010.05.20 13:48:23.
