data_PCOD9574070
_publ_section_title
;
Structure prediction by ZEFSAII (Michael W. Deem and Ramdas Pophale) SiO2 
 PCOD9574070
Probable space group: I 41/A C D
;
_chemical_formula_sum "Si O2"
_cell_formula_units_Z 112
_cell_length_a 13.407400
_cell_length_b 13.407400
_cell_length_c 29.598425
_cell_angle_alpha 90.000000
_cell_angle_beta 90.000000
_cell_angle_gamma 90.000000
_cell_volume 5320.564773
_symmetry_space_group_name_H-M "I 41/A C D"
_symmetry_group_IT_number 142
_space_group.IT_coordinate_system_code '2'
_symmetry_cell_setting 'tetragonal'
loop_
_space_group_symop_operation_xyz
x,y,z
1/4-y,3/4+x,1/4+z
-x,1/2-y,z
1/4+y,1/4-x,3/4+z
x,-y,1/2-z
1/2-x,y,-z
3/4+y,1/4+x,1/4-z
1/4-y,1/4-x,1/4-z
-x,-y,-z
3/4+y,1/4-x,3/4-z
x,1/2+y,-z
3/4-y,3/4+x,1/4-z
-x,y,1/2+z
1/2+x,-y,z
1/4-y,3/4-x,3/4+z
3/4+y,3/4+x,3/4+z
1/2+x,1/2+y,1/2+z
3/4-y,1/4+x,3/4+z
1/2-x,-y,1/2+z
3/4+y,3/4-x,1/4+z
1/2+x,1/2-y,-z
-x,1/2+y,1/2-z
1/4+y,3/4+x,3/4-z
3/4-y,3/4-x,3/4-z
1/2-x,1/2-y,1/2-z
1/4+y,3/4-x,1/4-z
1/2+x,y,1/2-z
1/4-y,1/4+x,3/4-z
1/2-x,1/2+y,z
x,1/2-y,1/2+z
3/4-y,1/4-x,1/4+z
1/4+y,1/4+x,1/4+z
loop_
_atom_site_type_symbol
_atom_site_label
_atom_site_fract_x
_atom_site_fract_y
_atom_site_fract_z
Si Si1 0.242552 0.087340 0.218446
Si Si2 0.886949 0.240332 0.250537
Si Si3 0.224263 0.974263 0.875000
Si Si4 0.640149 0.193937 0.146612
O O1 0.178193 0.188149 0.218920
O O2 0.343977 0.128768 0.242506
O O3 0.252966 0.040815 0.169170
O O4 0.199796 0.000000 0.250000
O O5 0.877524 0.286670 0.300822
O O6 0.000000 0.250000 0.236073
O O7 0.256301 0.862043 0.862342
O O8 0.625144 0.298817 0.121070
#
# Coordination Sequence:
#
# PCOD9574070 Si02
#       4
#    32  32  16  32
#     4  11  24  40  63  93 124 159 204 258 303 359
#     4  11  22  42  61  90 126 162 206 248 301 373
#     4  12  22  40  63  93 124 156 204 260 304 358
#     4  11  20  38  66  89 117 163 208 244 297 371
#
# _framework density 21.050398000000001
#
# number of rings (size 3 to 8) (size 9 to 14) (size 15 to 20)
#    0.000    0.857    8.571    0.000    0.000    1.143 
#    5.143    0.714    0.000    0.000    0.000    0.000 
#    0.000    0.000    0.000    0.000    0.000    0.000 
#
# Total GULP energy -312600.929286 kJ/mol
# GULP energy per Si atom -5582.159452 kJ/mol
# Density = 2.100249 g / cm^3
# Si number density = 21.050398 Si / 1000 Ang^3
#
#
#
# Elastic Constant Matrix: (Units=GPa)
#
#
# Indices 1 2 3 4 5 6 
#
# 1 75.1473 22.1767 -13.3376 0.0000 0.0000 0.0000
# 2 22.1767 75.1473 -13.3376 0.0000 0.0000 0.0000
# 3 -13.3376 -13.3376 50.6940 0.0000 0.0000 0.0000
# 4 0.0000 0.0000 0.0000 7.0242 0.0000 0.0000
# 5 0.0000 0.0000 0.0000 0.0000 7.0242 0.0000
# 6 0.0000 0.0000 0.0000 0.0000 0.0000 35.3494
#
#
#
# Elastic Compliance Matrix: (Units=1/GPa)
#
#
# Indices 1 2 3 4 5 6 
#
# 1 0.014976 -0.003902 0.002913 0.000000 0.000000 0.000000
# 2 -0.003902 0.014976 0.002913 0.000000 0.000000 0.000000
# 3 0.002913 0.002913 0.021259 0.000000 0.000000 0.000000
# 4 0.000000 0.000000 0.000000 0.142365 0.000000 0.000000
# 5 0.000000 0.000000 0.000000 0.000000 0.142365 0.000000
# 6 0.000000 0.000000 0.000000 0.000000 0.000000 0.028289
#
#
# Mechanical properties :
#
#
# Convention : Reuss Voigt Hill
#
# Bulk Modulus (GPa) = 18.16200 21.33238 19.74719
# Shear Modulus (GPa) = 13.20186 23.57870 18.39028
#
# Velocity S-wave (km/s) = 2.50702 3.35043 2.95893
# Velocity P-wave (km/s) = 4.12636 5.01230 4.59075
#
# Compressibility (1/GPa) = 0.05506001
#
# Stress axis : x y z
#
# Youngs Moduli (GPa) = 66.77372 66.77372 47.03836
#
# Poissons Ratio (x) = 0.26058 -0.13704
# Poissons Ratio (y) = 0.26058 -0.13704
# Poissons Ratio (z) = -0.19454 -0.19454
#
# Static dielectric constant tensor:
#      x y z
#    x 1.820850 0.000000 0.000000 
#    y 0.000000 1.820850 0.000000 
#    z 0.000000 0.000000 1.741580 
# 
# From -- ./inp_files/11112.got.cif
#   From: 2010.05.17/outbox.cif.g08.bks.cpg/sg142_6_cif.got.tgz:11112.got - 2010.05.20 13:39:18.
