data_PCOD9574312
_publ_section_title
;
Structure prediction by ZEFSAII (Michael W. Deem and Ramdas Pophale) SiO2 
 PCOD9574312
Probable space group: P 31
;
_chemical_formula_sum "Si O2"
_cell_formula_units_Z 21
_cell_length_a 7.012619
_cell_length_b 7.012619
_cell_length_c 17.433046
_cell_angle_alpha 90.000000
_cell_angle_beta 90.000000
_cell_angle_gamma 120.000000
_cell_volume 742.445186
_symmetry_space_group_name_H-M "P 31"
_symmetry_group_IT_number 144
_symmetry_cell_setting 'hexagonal'
loop_
_space_group_symop_operation_xyz
x,y,z
-y,x-y,1/3+z
-x+y,-x,2/3+z
loop_
_atom_site_type_symbol
_atom_site_label
_atom_site_fract_x
_atom_site_fract_y
_atom_site_fract_z
Si Si1 0.012952 0.888391 0.160410
Si Si2 0.353829 0.047098 0.799938
Si Si3 0.810830 0.150755 0.667068
Si Si4 0.083066 0.595793 0.727627
Si Si5 0.452501 0.098090 0.091799
Si Si6 0.520553 0.690372 0.617778
Si Si7 0.983966 0.399949 0.902733
O O1 0.940334 0.721123 0.087713
O O2 0.854528 0.761248 0.231020
O O3 0.704260 0.236158 0.114815
O O4 0.954846 0.077537 0.139862
O O5 0.285964 0.840454 0.743398
O O6 0.719520 0.722984 0.827987
O O7 0.423279 0.978512 0.878504
O O8 0.029400 0.384339 0.675045
O O9 0.618293 0.175571 0.624524
O O10 0.753534 0.927293 0.621771
O O11 0.870162 0.622713 0.711483
O O12 0.017434 0.493191 0.815541
O O13 0.422640 0.911455 0.032347
O O14 0.346412 0.771855 0.600458
#
# Coordination Sequence:
#
# PCOD9574312 Si02
#       7
#     3   3   3   3   3   3   3
#     4   9  18  37  64  94 142 181 243 312 382 460
#     4  10  20  37  64  99 146 189 248 314 391 470
#     4   8  16  35  62  89 130 182 242 305 376 459
#     4   9  18  35  61  93 130 191 235 306 383 453
#     4  10  20  36  62  96 143 191 243 319 387 464
#     4   8  18  37  61  92 143 184 251 306 385 482
#     4   8  16  35  64  89 132 184 238 308 376 460
#
# _framework density 28.284915999999999
#
# number of rings (size 3 to 8) (size 9 to 14) (size 15 to 20)
#    0.857    2.286    0.000    0.000    0.000    1.143 
#    0.000   18.571    9.429    0.000    0.000    0.000 
#    8.571    0.000    0.000    0.000    0.000    0.000 
#
# Total GULP energy -117283.427258 kJ/mol
# GULP energy per Si atom -5584.925108 kJ/mol
# Density = 2.822054 g / cm^3
# Si number density = 28.284916 Si / 1000 Ang^3
#
#
#
# Elastic Constant Matrix: (Units=GPa)
#
#
# Indices 1 2 3 4 5 6 
#
# 1 156.4284 46.5054 26.6399 6.3030 0.9784 0.0000
# 2 46.5054 156.4284 26.6399 -6.3030 -0.9784 0.0000
# 3 26.6399 26.6399 79.0858 0.0000 0.0000 0.0000
# 4 6.3030 -6.3030 0.0000 43.0254 0.0000 -0.9784
# 5 0.9784 -0.9784 0.0000 0.0000 43.0254 6.3030
# 6 0.0000 0.0000 0.0000 -0.9784 6.3030 54.9615
#
#
#
# Elastic Compliance Matrix: (Units=1/GPa)
#
#
# Indices 1 2 3 4 5 6 
#
# 1 0.007331 -0.001925 -0.001821 -0.001356 -0.000210 0.000000
# 2 -0.001925 0.007331 -0.001821 0.001356 0.000210 0.000000
# 3 -0.001821 -0.001821 0.013871 0.000000 0.000000 0.000000
# 4 -0.001356 0.001356 0.000000 0.023649 0.000000 0.000421
# 5 -0.000210 0.000210 0.000000 0.000000 0.023649 -0.002712
# 6 0.000000 0.000000 0.000000 0.000421 -0.002712 0.018513
#
#
# Mechanical properties :
#
#
# Convention : Reuss Voigt Hill
#
# Bulk Modulus (GPa) = 57.47420 65.72366 61.59893
# Shear Modulus (GPa) = 44.93221 47.67962 46.30591
#
# Velocity S-wave (km/s) = 3.98999 4.11017 4.05053
# Velocity P-wave (km/s) = 6.44908 6.76841 6.61067
#
# Compressibility (1/GPa) = 0.01739911
#
# Stress axis : x y z
#
# Youngs Moduli (GPa) = 136.40390 136.40390 72.09157
#
# Poissons Ratio (x) = 0.26263 0.13127
# Poissons Ratio (y) = 0.26263 0.13127
# Poissons Ratio (z) = 0.24838 0.24838
#
# Static dielectric constant tensor:
#      x y z
#    x 2.249430 0.000000 0.000000 
#    y 0.000000 2.249430 0.000000 
#    z 0.000000 0.000000 2.296610 
# 
# From -- ./inp_files/944.got.cif
#   From: 2010.05.17/outbox.cif.g08.bks.cpg/sg144_cif.got.tgz:944.got - 2010.05.20 13:46:34.
