data_PCOD9574991
_publ_section_title
;
Structure prediction by ZEFSAII (Michael W. Deem and Ramdas Pophale) SiO2 
 PCOD9574991
Probable space group: P -3
;
_chemical_formula_sum "Si O2"
_cell_formula_units_Z 30
_cell_length_a 9.000000
_cell_length_b 9.000000
_cell_length_c 24.000000
_cell_angle_alpha 90.000000
_cell_angle_beta 90.000000
_cell_angle_gamma 120.000000
_cell_volume 1683.553385
_symmetry_space_group_name_H-M "P -3"
_symmetry_group_IT_number 147
_symmetry_cell_setting 'hexagonal'
loop_
_space_group_symop_operation_xyz
x,y,z
-y,x-y,z
-x+y,-x,z
-x,-y,-z
y,-x+y,-z
x-y,x,-z
loop_
_atom_site_type_symbol
_atom_site_label
_atom_site_fract_x
_atom_site_fract_y
_atom_site_fract_z
Si Si1 0.990243 0.331503 0.783720
Si Si2 0.004602 0.669273 0.974089
Si Si3 0.326224 0.341572 0.474445
Si Si4 0.327080 0.334835 0.835370
Si Si5 0.137966 0.673409 0.345025
O O1 0.831923 0.164402 0.812567
O O2 0.000399 0.501265 0.810993
O O3 0.953093 0.326909 0.715145
O O4 0.163255 0.333229 0.805252
O O5 0.014215 0.676539 0.904747
O O6 0.000000 0.500000 0.000000
O O7 0.834547 0.666679 0.997968
O O8 0.500000 0.500000 0.500000
O O9 0.161110 0.332004 0.506171
O O10 0.320871 0.374935 0.406035
O O11 0.170039 0.508780 0.344643
#
# Coordination Sequence:
#
# PCOD9574991 Si02
#       5
#     6   6   6   6   6
#     4  12  25  43  70  97 134 175 222 282 337 398
#     4  12  25  43  67  95 135 174 222 277 336 404
#     4  12  24  43  71 105 142 184 226 284 337 399
#     4  12  24  44  66 101 130 176 225 275 339 407
#     4  10  20  44  71  98 136 176 230 274 340 409
#
# _framework density 17.819452999999999
#
# number of rings (size 3 to 8) (size 9 to 14) (size 15 to 20)
#    0.400    0.000    4.000    6.000    0.000    3.200 
#    0.000    0.000    0.000    0.000    0.000    0.000 
#    0.000    0.000    0.000    0.000    0.000    0.000 
#
# Total GULP energy -167221.651474 kJ/mol
# GULP energy per Si atom -5574.055049 kJ/mol
# Density = 1.777889 g / cm^3
# Si number density = 17.819453 Si / 1000 Ang^3
#
#
#
# Elastic Constant Matrix: (Units=GPa)
#
#
# Indices 1 2 3 4 5 6 
#
# 1 179.3708 82.0381 68.4120 -1.2965 0.7780 0.0000
# 2 82.0381 179.3708 68.4120 1.2965 -0.7780 0.0000
# 3 68.4120 68.4120 248.4056 0.0000 0.0000 0.0000
# 4 -1.2965 1.2965 0.0000 46.4876 0.0000 -0.7780
# 5 0.7780 -0.7780 0.0000 0.0000 46.4876 -1.2965
# 6 0.0000 0.0000 0.0000 -0.7780 -1.2965 48.6663
#
#
#
# Elastic Compliance Matrix: (Units=1/GPa)
#
#
# Indices 1 2 3 4 5 6 
#
# 1 0.007377 -0.002907 -0.001231 0.000287 -0.000172 0.000000
# 2 -0.002907 0.007377 -0.001231 -0.000287 0.000172 0.000000
# 3 -0.001231 -0.001231 0.004704 0.000000 0.000000 0.000000
# 4 0.000287 -0.000287 0.000000 0.021533 0.000000 0.000344
# 5 -0.000172 0.000172 0.000000 0.000000 0.021533 0.000574
# 6 0.000000 0.000000 0.000000 0.000344 0.000574 0.020569
#
#
# Mechanical properties :
#
#
# Convention : Reuss Voigt Hill
#
# Bulk Modulus (GPa) = 114.68888 116.09682 115.39285
# Shear Modulus (GPa) = 51.68625 54.21399 52.95012
#
# Velocity S-wave (km/s) = 5.39152 5.52178 5.45704
# Velocity P-wave (km/s) = 10.16166 10.29304 10.22756
#
# Compressibility (1/GPa) = 0.00871924
#
# Stress axis : x y z
#
# Youngs Moduli (GPa) = 135.55492 135.55492 212.59811
#
# Poissons Ratio (x) = 0.39411 0.26170
# Poissons Ratio (y) = 0.39411 0.26170
# Poissons Ratio (z) = 0.16687 0.16687
#
# Static dielectric constant tensor:
#      x y z
#    x 1.629330 0.000000 0.000000 
#    y 0.000000 1.629330 0.000000 
#    z 0.000000 0.000000 1.622970 
# 
# From -- ./inp_files/1099.got.cif
#   From: 2010.05.17/outbox.ucp.g08.bks.cvg/sg147_cif.got.tgz:1099.got - 2010.06.11 11:44:37.
