data_PCOD9574776
_publ_section_title
;
Structure prediction by ZEFSAII (Michael W. Deem and Ramdas Pophale) SiO2 
 PCOD9574776
Probable space group: R 3
;
_chemical_formula_sum "Si O2"
_cell_formula_units_Z 45
_cell_length_a 15.127563
_cell_length_b 15.127563
_cell_length_c 10.656480
_cell_angle_alpha 90.000000
_cell_angle_beta 90.000000
_cell_angle_gamma 120.000000
_cell_volume 2111.943748
_symmetry_space_group_name_H-M "R 3"
_symmetry_group_IT_number 146
_symmetry_cell_setting 'hexagonal'
loop_
_space_group_symop_operation_xyz
x,y,z
-y,x-y,z
-x+y,-x,z
2/3+x,1/3+y,1/3+z
2/3-y,1/3+x-y,1/3+z
2/3-x+y,1/3-x,1/3+z
1/3+x,2/3+y,2/3+z
1/3-y,2/3+x-y,2/3+z
1/3-x+y,2/3-x,2/3+z
loop_
_atom_site_type_symbol
_atom_site_label
_atom_site_fract_x
_atom_site_fract_y
_atom_site_fract_z
Si Si1 0.126475 0.629012 0.188930
Si Si2 0.756435 0.758057 0.162559
Si Si3 0.839706 0.060176 0.795365
Si Si4 0.296388 0.827160 0.096766
Si Si5 0.058522 0.209407 0.891350
O O1 0.142909 0.681025 0.323474
O O2 0.188978 0.723039 0.093998
O O3 0.179257 0.559815 0.180052
O O4 0.006739 0.557215 0.161753
O O5 0.636719 0.721770 0.154559
O O6 0.805447 0.816395 0.291433
O O7 0.765345 0.656950 0.174408
O O8 0.799930 0.817982 0.033552
O O9 0.960123 0.136708 0.808670
O O10 0.814656 0.964115 0.883378
#
# Coordination Sequence:
#
# PCOD9574776 Si02
#       5
#     9   9   9   9   9
#     4  12  26  43  70 106 138 177 236 283 344 412
#     4  10  24  46  72  92 138 186 222 274 364 392
#     4  12  26  43  70 106 138 177 236 283 344 412
#     4  11  24  46  71  99 138 182 224 286 344 416
#     4  11  24  46  71  99 138 182 224 286 344 416
#
# _framework density 21.307385
#
# number of rings (size 3 to 8) (size 9 to 14) (size 15 to 20)
#    0.000    0.800    2.000    4.400   11.200    1.600 
#    0.000    0.000    0.000    0.000    0.000    0.000 
#    0.000    0.000    0.000    0.000    0.000    0.000 
#
# Total GULP energy -83936.665141 kJ/mol
# GULP energy per Si atom -5595.777676 kJ/mol
# Density = 2.125889 g / cm^3
# Si number density = 21.307385 Si / 1000 Ang^3
#
#
#
# Elastic Constant Matrix: (Units=GPa)
#
#
# Indices 1 2 3 4 5 6 
#
# 1 41.6378 59.7083 24.1036 6.2597 -3.8889 0.0000
# 2 59.7083 41.6378 24.1036 -6.2597 3.8889 0.0000
# 3 24.1036 24.1036 113.3878 0.0000 0.0000 0.0000
# 4 6.2597 -6.2597 0.0000 16.4096 0.0000 3.8889
# 5 -3.8889 3.8889 0.0000 0.0000 16.4096 6.2597
# 6 0.0000 0.0000 0.0000 3.8889 6.2597 -9.0352
#
#
#
# Elastic Compliance Matrix: (Units=1/GPa)
#
#
# Indices 1 2 3 4 5 6 
#
# 1 -0.014763 0.025740 -0.002333 0.015451 -0.009599 0.000000
# 2 0.025740 -0.014763 -0.002333 -0.015451 0.009599 0.000000
# 3 -0.002333 -0.002333 0.009811 0.000000 0.000000 0.000000
# 4 0.015451 -0.015451 0.000000 0.044603 0.000000 0.019198
# 5 -0.009599 0.009599 0.000000 0.000000 0.044603 0.030901
# 6 0.000000 0.000000 0.000000 0.019198 0.030901 -0.081006
#
#
# Mechanical properties :
#
#
# Convention : Reuss Voigt Hill
#
# Bulk Modulus (GPa) = 44.57970 45.83270 45.20620
# Shear Modulus (GPa) = -108.25989 10.67334 -48.79328
#
# Velocity S-wave (km/s) = -7.13575 2.24056 -4.79055
# Velocity P-wave (km/s) = 6.85013 5.31511 3.05564
#
# Compressibility (1/GPa) = 0.02243173
#
# Stress axis : x y z
#
# Youngs Moduli (GPa) = -67.73675 -67.73675 101.92252
#
# Poissons Ratio (x) = 1.74356 0.23783
# Poissons Ratio (y) = 1.74356 0.23783
# Poissons Ratio (z) = -0.15806 -0.15806
#
# Static dielectric constant tensor:
#      x y z
#    x 1.745650 0.000000 0.000000 
#    y 0.000000 1.745650 0.000000 
#    z 0.000000 0.000000 1.794330 
# 
# From -- ./inp_files/1079.got.cif
#   From: 2010.05.17/outbox.cif.g08.bks.cpg/sg146_cif.got.tgz:1079.got - 2010.05.20 13:48:23.
