data_PCOD9574547
_publ_section_title
;
Structure prediction by ZEFSAII (Michael W. Deem and Ramdas Pophale) SiO2 
 PCOD9574547
Probable space group: P 32
;
_chemical_formula_sum "Si O2"
_cell_formula_units_Z 24
_cell_length_a 13.614605
_cell_length_b 13.614605
_cell_length_c 7.143833
_cell_angle_alpha 90.000000
_cell_angle_beta 90.000000
_cell_angle_gamma 120.000000
_cell_volume 1146.758629
_symmetry_space_group_name_H-M "P 32"
_symmetry_group_IT_number 145
_symmetry_cell_setting 'hexagonal'
loop_
_space_group_symop_operation_xyz
x,y,z
-y,x-y,2/3+z
-x+y,-x,1/3+z
loop_
_atom_site_type_symbol
_atom_site_label
_atom_site_fract_x
_atom_site_fract_y
_atom_site_fract_z
Si Si1 0.412817 0.457378 0.618710
Si Si2 0.665099 0.802422 0.763729
Si Si3 0.459204 0.235549 0.281032
Si Si4 0.748573 0.995709 0.071990
Si Si5 0.891545 0.401619 0.645840
Si Si6 0.314998 0.730337 0.360994
Si Si7 0.916824 0.916206 0.652561
Si Si8 0.945665 0.392192 0.226536
O O1 0.304392 0.335015 0.580919
O O2 0.499202 0.482636 0.445153
O O3 0.390977 0.562263 0.625028
O O4 0.485986 0.466567 0.802241
O O5 0.547551 0.777475 0.668483
O O6 0.780801 0.855205 0.645267
O O7 0.637022 0.678179 0.829472
O O8 0.694666 0.886141 0.939252
O O9 0.350116 0.249566 0.298077
O O10 0.566026 0.360760 0.272875
O O11 0.468023 0.170067 0.462689
O O12 0.450770 0.161785 0.102243
O O13 0.881365 0.040986 0.099569
O O14 0.939460 0.393288 0.448062
O O15 0.283758 0.618413 0.244617
O O16 0.972097 0.935849 0.448129
#
# Coordination Sequence:
#
# PCOD9574547 Si02
#       8
#     3   3   3   3   3   3   3   3
#     4   9  22  40  61  92 127 165 208 265 313 386
#     4  10  22  42  66  90 134 168 212 274 312 386
#     4  10  22  39  60  93 129 164 212 271 312 385
#     4  10  20  41  66  94 131 164 216 267 320 381
#     4  10  23  38  63  90 128 170 216 255 323 385
#     4  11  24  41  66  96 129 167 216 266 325 380
#     4  10  22  43  64  93 125 165 212 261 318 383
#     4  10  21  42  62  90 129 169 214 261 327 372
#
# _framework density 20.928554999999999
#
# number of rings (size 3 to 8) (size 9 to 14) (size 15 to 20)
#    0.000    2.000    1.250    0.750    1.750   10.000 
#    9.000    1.250    0.000    0.000    0.000    0.000 
#    0.000    0.000    0.000    0.000    0.000    0.000 
#
# Total GULP energy -134036.030346 kJ/mol
# GULP energy per Si atom -5584.834598 kJ/mol
# Density = 2.088092 g / cm^3
# Si number density = 20.928555 Si / 1000 Ang^3
#
#
#
# Elastic Constant Matrix: (Units=GPa)
#
#
# Indices 1 2 3 4 5 6 
#
# 1 61.2624 12.5898 -2.6779 -0.7212 -2.8914 0.0000
# 2 12.5898 61.2624 -2.6779 0.7212 2.8914 0.0000
# 3 -2.6779 -2.6779 67.6851 0.0000 0.0000 0.0000
# 4 -0.7212 0.7212 0.0000 14.3298 0.0000 2.8914
# 5 -2.8914 2.8914 0.0000 0.0000 14.3298 -0.7212
# 6 0.0000 0.0000 0.0000 2.8914 -0.7212 24.3363
#
#
#
# Elastic Compliance Matrix: (Units=1/GPa)
#
#
# Indices 1 2 3 4 5 6 
#
# 1 0.017331 -0.003751 0.000537 0.001061 0.004254 0.000000
# 2 -0.003751 0.017331 0.000537 -0.001061 -0.004254 0.000000
# 3 0.000537 0.000537 0.014817 0.000000 0.000000 0.000000
# 4 0.001061 -0.001061 0.000000 0.071608 0.000000 -0.008508
# 5 0.004254 -0.004254 0.000000 0.000000 0.071608 0.002122
# 6 0.000000 0.000000 0.000000 -0.008508 0.002122 0.042165
#
#
# Mechanical properties :
#
#
# Convention : Reuss Voigt Hill
#
# Bulk Modulus (GPa) = 22.66293 22.74198 22.70245
# Shear Modulus (GPa) = 19.61390 22.79757 21.20574
#
# Velocity S-wave (km/s) = 3.06467 3.30404 3.18660
# Velocity P-wave (km/s) = 4.83478 5.04437 4.94069
#
# Compressibility (1/GPa) = 0.04412492
#
# Stress axis : x y z
#
# Youngs Moduli (GPa) = 57.70036 57.70036 67.49087
#
# Poissons Ratio (x) = 0.21646 -0.03626
# Poissons Ratio (y) = 0.21646 -0.03626
# Poissons Ratio (z) = -0.03100 -0.03100
#
# Static dielectric constant tensor:
#      x y z
#    x 1.767830 0.000000 0.000000 
#    y 0.000000 1.767830 0.000000 
#    z 0.000000 0.000000 1.735340 
# 
# From -- ./inp_files/179.got.cif
#   From: 2010.05.17/outbox.cif.g08.bks.cpg/sg145_cif.got.tgz:179.got - 2010.05.20 13:47:28.
