data_PCOD9574224
_publ_section_title
;
Structure prediction by ZEFSAII (Michael W. Deem and Ramdas Pophale) SiO2 
 PCOD9574224
Probable space group: I 41/A C D
;
_chemical_formula_sum "Si O2"
_cell_formula_units_Z 72
_cell_length_a 9.834734
_cell_length_b 9.834734
_cell_length_c 35.096919
_cell_angle_alpha 90.000000
_cell_angle_beta 90.000000
_cell_angle_gamma 90.000000
_cell_volume 3394.643949
_symmetry_space_group_name_H-M "I 41/A C D"
_symmetry_group_IT_number 142
_space_group.IT_coordinate_system_code '2'
_symmetry_cell_setting 'tetragonal'
loop_
_space_group_symop_operation_xyz
x,y,z
1/4-y,3/4+x,1/4+z
-x,1/2-y,z
1/4+y,1/4-x,3/4+z
x,-y,1/2-z
1/2-x,y,-z
3/4+y,1/4+x,1/4-z
1/4-y,1/4-x,1/4-z
-x,-y,-z
3/4+y,1/4-x,3/4-z
x,1/2+y,-z
3/4-y,3/4+x,1/4-z
-x,y,1/2+z
1/2+x,-y,z
1/4-y,3/4-x,3/4+z
3/4+y,3/4+x,3/4+z
1/2+x,1/2+y,1/2+z
3/4-y,1/4+x,3/4+z
1/2-x,-y,1/2+z
3/4+y,3/4-x,1/4+z
1/2+x,1/2-y,-z
-x,1/2+y,1/2-z
1/4+y,3/4+x,3/4-z
3/4-y,3/4-x,3/4-z
1/2-x,1/2-y,1/2-z
1/4+y,3/4-x,1/4-z
1/2+x,y,1/2-z
1/4-y,1/4+x,3/4-z
1/2-x,1/2+y,z
x,1/2-y,1/2+z
3/4-y,1/4-x,1/4+z
1/4+y,1/4+x,1/4+z
loop_
_atom_site_type_symbol
_atom_site_label
_atom_site_fract_x
_atom_site_fract_y
_atom_site_fract_z
Si Si1 0.000000 0.250000 0.875000
Si Si2 0.196009 0.557882 0.164409
Si Si3 0.531854 0.905632 0.213096
O O1 0.945424 0.130421 0.901836
O O2 0.237419 0.487419 0.125000
O O3 0.329628 0.586725 0.188943
O O4 0.090231 0.465866 0.187621
O O5 0.500000 0.750000 0.223565
O O6 0.545235 0.000000 0.250000
#
# Coordination Sequence:
#
# PCOD9574224 Si02
#       3
#     8  32  32
#     4  12  24  44  80 116 148 192 262 320 372 440
#     4  12  26  48  80 113 153 201 260 314 379 455
#     4  12  30  49  77 113 157 202 252 316 387 458
#
# _framework density 21.209883000000001
#
# number of rings (size 3 to 8) (size 9 to 14) (size 15 to 20)
#    0.000    0.000    4.444    4.000    3.111    3.556 
#    0.000    0.000    0.000    0.000    0.000    0.000 
#    0.000    0.000    0.000    0.000    0.000    0.000 
#
# Total GULP energy -201817.598049 kJ/mol
# GULP energy per Si atom -5606.044390 kJ/mol
# Density = 2.116161 g / cm^3
# Si number density = 21.209883 Si / 1000 Ang^3
#
#
#
# Elastic Constant Matrix: (Units=GPa)
#
#
# Indices 1 2 3 4 5 6 
#
# 1 170.0599 74.5633 87.1848 0.0000 0.0000 0.0000
# 2 74.5633 170.0599 87.1848 0.0000 0.0000 0.0000
# 3 87.1848 87.1848 172.3967 0.0000 0.0000 0.0000
# 4 0.0000 0.0000 0.0000 -26.7171 0.0000 0.0000
# 5 0.0000 0.0000 0.0000 0.0000 -26.7171 0.0000
# 6 0.0000 0.0000 0.0000 0.0000 0.0000 32.5566
#
#
#
# Elastic Compliance Matrix: (Units=1/GPa)
#
#
# Indices 1 2 3 4 5 6 
#
# 1 0.008432 -0.002040 -0.003233 0.000000 0.000000 0.000000
# 2 -0.002040 0.008432 -0.003233 0.000000 0.000000 0.000000
# 3 -0.003233 -0.003233 0.009070 0.000000 0.000000 0.000000
# 4 0.000000 0.000000 0.000000 -0.037429 0.000000 0.000000
# 5 0.000000 0.000000 0.000000 0.000000 -0.037429 0.000000
# 6 0.000000 0.000000 0.000000 0.000000 0.000000 0.030716
#
#
# Mechanical properties :
#
#
# Convention : Reuss Voigt Hill
#
# Bulk Modulus (GPa) = 112.05811 112.26470 112.16140
# Shear Modulus (GPa) = 2815.31274 13.39673 1414.35473
#
# Velocity S-wave (km/s) = 36.47246 2.51594 25.85121
# Velocity P-wave (km/s) = 42.73876 7.84125 30.72529
#
# Compressibility (1/GPa) = 0.00892394
#
# Stress axis : x y z
#
# Youngs Moduli (GPa) = 118.59740 118.59740 110.25058
#
# Poissons Ratio (x) = 0.24190 0.35640
# Poissons Ratio (y) = 0.24190 0.35640
# Poissons Ratio (z) = 0.38339 0.38339
#
# Static dielectric constant tensor:
#      x y z
#    x 1.756020 0.000000 0.000000 
#    y 0.000000 1.756020 0.000000 
#    z 0.000000 0.000000 1.736640 
# 
# From -- ./inp_files/11784.got.cif
#   From: 2010.05.17/outbox.cif.g08.bks.cpg/sg142_6_cif.got.tgz:11784.got - 2010.05.20 13:39:18.
