data_PCOD9574396
_publ_section_title
;
Structure prediction by ZEFSAII (Michael W. Deem and Ramdas Pophale) SiO2 
 PCOD9574396
Probable space group: P 31
;
_chemical_formula_sum "Si O2"
_cell_formula_units_Z 24
_cell_length_a 15.567703
_cell_length_b 15.567703
_cell_length_c 5.445164
_cell_angle_alpha 90.000000
_cell_angle_beta 90.000000
_cell_angle_gamma 120.000000
_cell_volume 1142.853786
_symmetry_space_group_name_H-M "P 31"
_symmetry_group_IT_number 144
_symmetry_cell_setting 'hexagonal'
loop_
_space_group_symop_operation_xyz
x,y,z
-y,x-y,1/3+z
-x+y,-x,2/3+z
loop_
_atom_site_type_symbol
_atom_site_label
_atom_site_fract_x
_atom_site_fract_y
_atom_site_fract_z
Si Si1 0.982698 0.683808 0.212330
Si Si2 0.970505 0.317288 0.237523
Si Si3 0.487444 0.966793 0.675363
Si Si4 0.574516 0.921896 0.276314
Si Si5 0.891803 0.922110 0.233645
Si Si6 0.702156 0.860263 0.579361
Si Si7 0.904115 0.196409 0.726710
Si Si8 0.228675 0.639304 0.258903
O O1 0.997018 0.595574 0.102414
O O2 0.989314 0.665363 0.498727
O O3 0.888286 0.680068 0.097023
O O4 0.072629 0.794281 0.152636
O O5 0.915002 0.261933 0.487447
O O6 0.974841 0.417946 0.150492
O O7 0.079298 0.332615 0.288522
O O8 0.933622 0.252997 0.987887
O O9 0.505937 0.963570 0.384940
O O10 0.412778 0.851541 0.738118
O O11 0.612018 0.868490 0.461416
O O12 0.509688 0.837540 0.080194
O O13 0.799265 0.906024 0.403247
O O14 0.852879 0.827639 0.049990
O O15 0.975408 0.922729 0.414959
O O16 0.274851 0.593095 0.442168
#
# Coordination Sequence:
#
# PCOD9574396 Si02
#       8
#     3   3   3   3   3   3   3   3
#     4  10  23  43  71  93 133 181 238 285 361 437
#     4  11  28  44  67 102 138 183 230 299 357 422
#     4  10  25  43  67  95 135 177 235 292 362 427
#     4  10  23  40  64  95 128 191 231 300 341 437
#     4  11  24  37  63  94 141 187 239 291 339 426
#     4  10  24  37  62  94 136 182 232 281 343 422
#     4  11  27  44  69  99 137 186 229 296 356 431
#     4  11  24  36  59  92 132 183 232 282 335 418
#
# _framework density 21.000060000000001
#
# number of rings (size 3 to 8) (size 9 to 14) (size 15 to 20)
#    0.000    1.500    0.000    2.250   28.000    0.000 
#    0.000    0.000    0.000    1.500    0.000    0.000 
#    0.000    0.000    0.000    0.000    0.000    0.000 
#
# Total GULP energy -133922.430517 kJ/mol
# GULP energy per Si atom -5580.101272 kJ/mol
# Density = 2.095226 g / cm^3
# Si number density = 21.000060 Si / 1000 Ang^3
#
#
#
# Elastic Constant Matrix: (Units=GPa)
#
#
# Indices 1 2 3 4 5 6 
#
# 1 97.1466 51.6179 40.8003 2.9528 2.7515 0.0000
# 2 51.6179 97.1466 40.8003 -2.9528 -2.7515 0.0000
# 3 40.8003 40.8003 101.0030 0.0000 0.0000 0.0000
# 4 2.9528 -2.9528 0.0000 27.4746 0.0000 -2.7515
# 5 2.7515 -2.7515 0.0000 0.0000 27.4746 2.9528
# 6 0.0000 0.0000 0.0000 -2.7515 2.9528 22.7643
#
#
#
# Elastic Compliance Matrix: (Units=1/GPa)
#
#
# Indices 1 2 3 4 5 6 
#
# 1 0.015593 -0.006958 -0.003488 -0.002424 -0.002258 0.000000
# 2 -0.006958 0.015593 -0.003488 0.002424 0.002258 0.000000
# 3 -0.003488 -0.003488 0.012719 0.000000 0.000000 0.000000
# 4 -0.002424 0.002424 0.000000 0.037371 0.000000 0.004517
# 5 -0.002258 0.002258 0.000000 0.000000 0.037371 -0.004847
# 6 0.000000 0.000000 0.000000 0.004517 -0.004847 0.045103
#
#
# Mechanical properties :
#
#
# Convention : Reuss Voigt Hill
#
# Bulk Modulus (GPa) = 62.35739 62.41480 62.38609
# Shear Modulus (GPa) = 25.38520 26.34786 25.86653
#
# Velocity S-wave (km/s) = 3.48057 3.54596 3.51342
# Velocity P-wave (km/s) = 6.77576 6.82282 6.79933
#
# Compressibility (1/GPa) = 0.01603659
#
# Stress axis : x y z
#
# Youngs Moduli (GPa) = 64.12930 64.12930 78.62309
#
# Poissons Ratio (x) = 0.44621 0.27426
# Poissons Ratio (y) = 0.44621 0.27426
# Poissons Ratio (z) = 0.22370 0.22370
#
# Static dielectric constant tensor:
#      x y z
#    x 1.759740 0.000000 0.000000 
#    y 0.000000 1.759740 0.000000 
#    z 0.000000 0.000000 2.015480 
# 
# From -- ./inp_files/131.got.cif
#   From: 2010.05.17/outbox.cif.g08.bks.cpg/sg144_cif.got.tgz:131.got - 2010.05.20 13:46:34.
