data_PCOD9574043
_publ_section_title
;
Structure prediction by ZEFSAII (Michael W. Deem and Ramdas Pophale) SiO2 
 PCOD9574043
Probable space group: I 41/A C D
;
_chemical_formula_sum "Si O2"
_cell_formula_units_Z 72
_cell_length_a 10.115558
_cell_length_b 10.115558
_cell_length_c 30.512047
_cell_angle_alpha 90.000000
_cell_angle_beta 90.000000
_cell_angle_gamma 90.000000
_cell_volume 3122.130370
_symmetry_space_group_name_H-M "I 41/A C D"
_symmetry_group_IT_number 142
_space_group.IT_coordinate_system_code '2'
_symmetry_cell_setting 'tetragonal'
loop_
_space_group_symop_operation_xyz
x,y,z
1/4-y,3/4+x,1/4+z
-x,1/2-y,z
1/4+y,1/4-x,3/4+z
x,-y,1/2-z
1/2-x,y,-z
3/4+y,1/4+x,1/4-z
1/4-y,1/4-x,1/4-z
-x,-y,-z
3/4+y,1/4-x,3/4-z
x,1/2+y,-z
3/4-y,3/4+x,1/4-z
-x,y,1/2+z
1/2+x,-y,z
1/4-y,3/4-x,3/4+z
3/4+y,3/4+x,3/4+z
1/2+x,1/2+y,1/2+z
3/4-y,1/4+x,3/4+z
1/2-x,-y,1/2+z
3/4+y,3/4-x,1/4+z
1/2+x,1/2-y,-z
-x,1/2+y,1/2-z
1/4+y,3/4+x,3/4-z
3/4-y,3/4-x,3/4-z
1/2-x,1/2-y,1/2-z
1/4+y,3/4-x,1/4-z
1/2+x,y,1/2-z
1/4-y,1/4+x,3/4-z
1/2-x,1/2+y,z
x,1/2-y,1/2+z
3/4-y,1/4-x,1/4+z
1/4+y,1/4+x,1/4+z
loop_
_atom_site_type_symbol
_atom_site_label
_atom_site_fract_x
_atom_site_fract_y
_atom_site_fract_z
Si Si1 0.250000 0.127634 0.500000
Si Si2 0.379614 0.007615 0.415391
Si Si3 0.500000 0.750000 0.298690
Si Si4 0.000000 0.250000 0.625000
O O1 0.305172 0.041712 0.460053
O O2 0.374405 0.208946 0.518987
O O3 0.278792 0.028792 0.375000
O O4 0.488476 0.121045 0.405165
O O5 0.450201 0.869754 0.421459
#
# Coordination Sequence:
#
# PCOD9574043 Si02
#       4
#    16  32  16   8
#     4  12  26  48  82 124 166 210 276 344 418 496
#     4  10  25  49  81 110 164 211 274 337 418 489
#     4  12  27  51  82 120 154 222 271 347 406 500
#     4   8  22  52  74 108 170 220 260 354 408 494
#
# _framework density 23.061176
#
# number of rings (size 3 to 8) (size 9 to 14) (size 15 to 20)
#    1.333    0.000    0.000    4.000    0.000    8.889 
#    8.000    0.000    0.000    0.000    0.000    0.000 
#    0.000    0.000    0.000    0.000    0.000    0.000 
#
# Total GULP energy -201450.402566 kJ/mol
# GULP energy per Si atom -5595.844516 kJ/mol
# Density = 2.300869 g / cm^3
# Si number density = 23.061176 Si / 1000 Ang^3
#
#
#
# Elastic Constant Matrix: (Units=GPa)
#
#
# Indices 1 2 3 4 5 6 
#
# 1 178.6253 116.2140 99.2398 0.0000 0.0000 0.0000
# 2 116.2140 178.6253 99.2398 0.0000 0.0000 0.0000
# 3 99.2398 99.2398 188.0783 0.0000 0.0000 0.0000
# 4 0.0000 0.0000 0.0000 1383.4730 0.0005 0.0000
# 5 0.0000 0.0000 0.0000 0.0005 1383.4739 0.0000
# 6 0.0000 0.0000 0.0000 0.0000 0.0000 46.1969
#
#
#
# Elastic Compliance Matrix: (Units=1/GPa)
#
#
# Indices 1 2 3 4 5 6 
#
# 1 0.010641 -0.005381 -0.002775 0.000000 0.000000 0.000000
# 2 -0.005381 0.010641 -0.002775 0.000000 0.000000 0.000000
# 3 -0.002775 -0.002775 0.008246 0.000000 0.000000 0.000000
# 4 0.000000 0.000000 0.000000 0.000723 0.000000 0.000000
# 5 0.000000 0.000000 0.000000 0.000000 0.000723 0.000000
# 6 0.000000 0.000000 0.000000 0.000000 0.000000 0.021646
#
#
# Mechanical properties :
#
#
# Convention : Reuss Voigt Hill
#
# Bulk Modulus (GPa) = 130.47812 130.52399 130.50105
# Shear Modulus (GPa) = 64.90122 578.00444 321.45283
#
# Velocity S-wave (km/s) = 5.31076 15.84878 11.81922
# Velocity P-wave (km/s) = 9.71121 19.78973 15.58751
#
# Compressibility (1/GPa) = 0.00766412
#
# Stress axis : x y z
#
# Youngs Moduli (GPa) = 93.97251 93.97251 121.27218
#
# Poissons Ratio (x) = 0.50570 0.33659
# Poissons Ratio (y) = 0.50570 0.33659
# Poissons Ratio (z) = 0.26082 0.26082
#
# Static dielectric constant tensor:
#      x y z
#    x 1.873650 0.000000 0.000000 
#    y 0.000000 1.873650 0.000000 
#    z 0.000000 0.000000 1.830380 
# 
# From -- ./inp_files/10801.got.cif
#   From: 2010.05.17/outbox.cif.g08.bks.cpg/sg142_6_cif.got.tgz:10801.got - 2010.05.20 13:39:18.
