data_PCOD9574699
_publ_section_title
;
Structure prediction by ZEFSAII (Michael W. Deem and Ramdas Pophale) SiO2 
 PCOD9574699
Probable space group: R 3
;
_chemical_formula_sum "Si O2"
_cell_formula_units_Z 51
_cell_length_a 10.739939
_cell_length_b 10.739939
_cell_length_c 21.078835
_cell_angle_alpha 90.000000
_cell_angle_beta 90.000000
_cell_angle_gamma 120.000000
_cell_volume 2105.624210
_symmetry_space_group_name_H-M "R 3"
_symmetry_group_IT_number 146
_symmetry_cell_setting 'hexagonal'
loop_
_space_group_symop_operation_xyz
x,y,z
-y,x-y,z
-x+y,-x,z
2/3+x,1/3+y,1/3+z
2/3-y,1/3+x-y,1/3+z
2/3-x+y,1/3-x,1/3+z
1/3+x,2/3+y,2/3+z
1/3-y,2/3+x-y,2/3+z
1/3-x+y,2/3-x,2/3+z
loop_
_atom_site_type_symbol
_atom_site_label
_atom_site_fract_x
_atom_site_fract_y
_atom_site_fract_z
Si Si1 0.069064 0.674703 0.326070
Si Si2 0.855961 0.675804 0.239679
Si Si3 0.333334 0.666668 0.958652
Si Si4 0.982797 0.709180 0.465106
Si Si5 0.666668 0.333334 0.783660
Si Si6 0.053279 0.187347 0.067259
Si Si7 0.279757 0.989226 0.629433
O O1 0.183992 0.824107 0.294023
O O2 0.108153 0.553780 0.310284
O O3 0.911140 0.613159 0.295583
O O4 0.057113 0.709994 0.398467
O O5 0.685913 0.615987 0.238239
O O6 0.921718 0.840496 0.262433
O O7 0.933561 0.653869 0.180152
O O8 0.333334 0.666667 0.037268
O O9 0.026645 0.873817 0.475838
O O10 0.808419 0.626282 0.457746
O O11 0.145766 0.102318 0.066644
O O12 0.027270 0.291661 0.020704
#
# Coordination Sequence:
#
# PCOD9574699 Si02
#       7
#     9   9   3   9   3   9   9
#     4  12  25  47  73 107 152 207 248 326 401 462
#     4  12  26  44  75 110 148 197 265 319 384 474
#     4  12  21  48  81 111 147 207 256 329 370 471
#     4  12  25  44  77 115 151 206 265 319 393 471
#     4  12  24  51  81 114 168 204 262 326 403 465
#     4  10  20  39  70 105 144 192 249 313 374 453
#     4  12  23  47  73 104 154 201 259 320 397 470
#
# _framework density 24.220849000000001
#
# number of rings (size 3 to 8) (size 9 to 14) (size 15 to 20)
#    0.353    0.000    7.059    1.412    2.471    1.412 
#    4.235    0.000    0.000    0.000    0.000    0.000 
#    0.000    0.000    0.000    0.000    0.000    0.000 
#
# Total GULP energy -94719.947162 kJ/mol
# GULP energy per Si atom -5571.761598 kJ/mol
# Density = 2.416572 g / cm^3
# Si number density = 24.220849 Si / 1000 Ang^3
#
#
#
# Elastic Constant Matrix: (Units=GPa)
#
#
# Indices 1 2 3 4 5 6 
#
# 1 108.1859 32.5972 24.7455 8.0133 -6.6847 -0.0001
# 2 32.5972 108.1862 24.7457 -8.0134 6.6850 -0.0001
# 3 24.7455 24.7457 80.8815 0.0001 -0.0001 -0.0001
# 4 8.0133 -8.0134 0.0001 27.3242 -0.0002 6.6850
# 5 -6.6847 6.6850 -0.0001 -0.0002 27.3243 8.0133
# 6 -0.0001 -0.0001 -0.0001 6.6850 8.0133 37.7945
#
#
#
# Elastic Compliance Matrix: (Units=1/GPa)
#
#
# Indices 1 2 3 4 5 6 
#
# 1 0.011374 -0.003415 -0.002435 -0.004337 0.003618 0.000000
# 2 -0.003415 0.011374 -0.002435 0.004337 -0.003618 0.000000
# 3 -0.002435 -0.002435 0.013854 0.000000 0.000000 0.000000
# 4 -0.004337 0.004337 0.000000 0.040912 0.000000 -0.007236
# 5 0.003618 -0.003618 0.000000 0.000000 0.040912 -0.008674
# 6 0.000000 0.000000 0.000000 -0.007236 -0.008674 0.029578
#
#
# Mechanical properties :
#
#
# Convention : Reuss Voigt Hill
#
# Bulk Modulus (GPa) = 49.92079 51.27003 50.59541
# Shear Modulus (GPa) = 29.19689 32.83294 31.01491
#
# Velocity S-wave (km/s) = 3.47572 3.68579 3.58230
# Velocity P-wave (km/s) = 6.06324 6.27113 6.16806
#
# Compressibility (1/GPa) = 0.02003174
#
# Stress axis : x y z
#
# Youngs Moduli (GPa) = 87.91923 87.91924 72.18235
#
# Poissons Ratio (x) = 0.30024 0.17577
# Poissons Ratio (y) = 0.30024 0.17577
# Poissons Ratio (z) = 0.21409 0.21409
#
# Static dielectric constant tensor:
#      x y z
#    x 1.951800 0.000000 0.000000 
#    y 0.000000 1.951800 0.000000 
#    z 0.000000 0.000000 2.099940 
# 
# From -- ./inp_files/1933.got.cif
#   From: 2010.05.17/outbox.cif.g08.bks.cpg/sg146_cif.got.tgz:1933.got - 2010.05.20 13:48:23.
