data_PCOD9574306
_publ_section_title
;
Structure prediction by ZEFSAII (Michael W. Deem and Ramdas Pophale) SiO2 
 PCOD9574306
Probable space group: P 31
;
_chemical_formula_sum "Si O2"
_cell_formula_units_Z 15
_cell_length_a 7.266386
_cell_length_b 7.266386
_cell_length_c 13.054804
_cell_angle_alpha 90.000000
_cell_angle_beta 90.000000
_cell_angle_gamma 120.000000
_cell_volume 596.949945
_symmetry_space_group_name_H-M "P 31"
_symmetry_group_IT_number 144
_symmetry_cell_setting 'hexagonal'
loop_
_space_group_symop_operation_xyz
x,y,z
-y,x-y,1/3+z
-x+y,-x,2/3+z
loop_
_atom_site_type_symbol
_atom_site_label
_atom_site_fract_x
_atom_site_fract_y
_atom_site_fract_z
Si Si1 0.364664 0.911034 0.424840
Si Si2 0.854174 0.667921 0.689259
Si Si3 0.262287 0.707073 0.225233
Si Si4 0.605435 0.320711 0.207184
Si Si5 0.070069 0.736699 0.019581
O O1 0.259592 0.859879 0.313512
O O2 0.235884 0.719184 0.501760
O O3 0.596310 0.936440 0.392739
O O4 0.449871 0.131135 0.486061
O O5 0.754731 0.510141 0.592377
O O6 0.697919 0.537633 0.784189
O O7 0.869243 0.894085 0.684930
O O8 0.221297 0.498418 0.286927
O O9 0.108863 0.675433 0.131982
O O10 0.447943 0.317635 0.295243
#
# Coordination Sequence:
#
# PCOD9574306 Si02
#       5
#     3   3   3   3   3
#     4   8  18  33  57  87 118 159 210 261 318 410
#     4  10  20  37  59  89 126 167 211 277 326 401
#     4   9  17  35  58  83 121 163 209 258 332 389
#     4   9  21  36  59  89 126 160 221 267 332 407
#     4  10  20  35  61  86 121 171 211 275 330 405
#
# _framework density 25.127738000000001
#
# number of rings (size 3 to 8) (size 9 to 14) (size 15 to 20)
#    1.200    1.600    0.000    1.200    2.800    0.000 
#    0.000    2.000    0.000    2.400    0.000    0.000 
#    0.000    0.000    0.000    0.000    0.000    0.000 
#
# Total GULP energy -83551.420091 kJ/mol
# GULP energy per Si atom -5570.094673 kJ/mol
# Density = 2.507055 g / cm^3
# Si number density = 25.127738 Si / 1000 Ang^3
#
#
#
# Elastic Constant Matrix: (Units=GPa)
#
#
# Indices 1 2 3 4 5 6 
#
# 1 67.5995 20.1355 22.2478 5.7708 -4.4477 0.0000
# 2 20.1355 67.5995 22.2478 -5.7708 4.4477 0.0000
# 3 22.2478 22.2478 179.0264 0.0000 0.0000 0.0000
# 4 5.7708 -5.7708 0.0000 25.3698 0.0000 4.4477
# 5 -4.4477 4.4477 0.0000 0.0000 25.3698 5.7708
# 6 0.0000 0.0000 0.0000 4.4477 5.7708 23.7320
#
#
#
# Elastic Compliance Matrix: (Units=1/GPa)
#
#
# Indices 1 2 3 4 5 6 
#
# 1 0.017635 -0.005471 -0.001512 -0.005256 0.004051 0.000000
# 2 -0.005471 0.017635 -0.001512 0.005256 -0.004051 0.000000
# 3 -0.001512 -0.001512 0.005961 0.000000 0.000000 0.000000
# 4 -0.005256 0.005256 0.000000 0.043228 0.000000 -0.008102
# 5 0.004051 -0.004051 0.000000 0.000000 0.043228 -0.010512
# 6 0.000000 0.000000 0.000000 -0.008102 -0.010512 0.046212
#
#
# Mechanical properties :
#
#
# Convention : Reuss Voigt Hill
#
# Bulk Modulus (GPa) = 41.24743 49.27638 45.26190
# Shear Modulus (GPa) = 25.12950 31.53394 28.33172
#
# Velocity S-wave (km/s) = 3.16582 3.54636 3.36148
# Velocity P-wave (km/s) = 5.46022 6.03505 5.75482
#
# Compressibility (1/GPa) = 0.02424393
#
# Stress axis : x y z
#
# Youngs Moduli (GPa) = 56.70472 56.70472 167.74323
#
# Poissons Ratio (x) = 0.31021 0.25358
# Poissons Ratio (y) = 0.31021 0.25358
# Poissons Ratio (z) = 0.08572 0.08572
#
# Static dielectric constant tensor:
#      x y z
#    x 2.058800 0.000000 0.000000 
#    y 0.000000 2.058800 0.000000 
#    z 0.000000 0.000000 2.002010 
# 
# From -- ./inp_files/481.got.cif
#   From: 2010.05.17/outbox.cif.g08.bks.cpg/sg144_cif.got.tgz:481.got - 2010.05.20 13:46:34.
