data_PCOD9574538
_publ_section_title
;
Structure prediction by ZEFSAII (Michael W. Deem and Ramdas Pophale) SiO2 
 PCOD9574538
Probable space group: P 32
;
_chemical_formula_sum "Si O2"
_cell_formula_units_Z 18
_cell_length_a 7.832498
_cell_length_b 7.832498
_cell_length_c 12.327701
_cell_angle_alpha 90.000000
_cell_angle_beta 90.000000
_cell_angle_gamma 120.000000
_cell_volume 654.957786
_symmetry_space_group_name_H-M "P 32"
_symmetry_group_IT_number 145
_symmetry_cell_setting 'hexagonal'
loop_
_space_group_symop_operation_xyz
x,y,z
-y,x-y,2/3+z
-x+y,-x,1/3+z
loop_
_atom_site_type_symbol
_atom_site_label
_atom_site_fract_x
_atom_site_fract_y
_atom_site_fract_z
Si Si1 0.007302 0.754742 0.493980
Si Si2 0.855386 0.397887 0.219618
Si Si3 0.529055 0.844746 0.384145
Si Si4 0.005104 0.067123 0.371144
Si Si5 0.403797 0.034905 0.800809
Si Si6 0.486554 0.015940 0.163808
O O1 0.080138 0.598520 0.491220
O O2 0.768576 0.630160 0.499857
O O3 0.077526 0.895704 0.596368
O O4 0.062171 0.900801 0.392788
O O5 0.886166 0.363078 0.344318
O O6 0.735090 0.516144 0.215235
O O7 0.050488 0.535020 0.151225
O O8 0.713514 0.190918 0.159050
O O9 0.456017 0.899044 0.275809
O O10 0.468142 0.618819 0.405607
O O11 0.768242 0.956704 0.375711
O O12 0.067141 0.236581 0.463036
#
# Coordination Sequence:
#
# PCOD9574538 Si02
#       6
#     3   3   3   3   3   3
#     4  10  24  41  77 108 146 204 249 308 402 456
#     4  10  19  42  73 101 144 199 242 305 391 446
#     4  10  22  43  78 106 149 196 254 314 385 468
#     4  10  22  45  73 107 148 195 248 318 381 463
#     4  10  22  41  74 107 138 202 252 305 384 476
#     4  10  21  44  75 109 145 200 249 318 379 469
#
# _framework density 27.482685
#
# number of rings (size 3 to 8) (size 9 to 14) (size 15 to 20)
#    0.000    2.000    3.333    0.000    7.000    1.333 
#    0.000    1.667    7.333    4.000    0.000    0.000 
#    0.000    0.000    0.000    0.000    0.000    0.000 
#
# Total GULP energy -100967.891404 kJ/mol
# GULP energy per Si atom -5609.327300 kJ/mol
# Density = 2.742013 g / cm^3
# Si number density = 27.482685 Si / 1000 Ang^3
#
#
#
# Elastic Constant Matrix: (Units=GPa)
#
#
# Indices 1 2 3 4 5 6 
#
# 1 133.2963 43.1968 27.7742 -1.5820 -1.9100 0.0000
# 2 43.1968 133.2963 27.7742 1.5820 1.9100 0.0000
# 3 27.7742 27.7742 74.1950 0.0000 0.0000 0.0000
# 4 -1.5820 1.5820 0.0000 44.1925 0.0000 1.9100
# 5 -1.9100 1.9100 0.0000 0.0000 44.1925 -1.5820
# 6 0.0000 0.0000 0.0000 1.9100 -1.5820 45.0498
#
#
#
# Elastic Compliance Matrix: (Units=1/GPa)
#
#
# Indices 1 2 3 4 5 6 
#
# 1 0.008778 -0.002355 -0.002404 0.000399 0.000481 0.000000
# 2 -0.002355 0.008778 -0.002404 -0.000399 -0.000481 0.000000
# 3 -0.002404 -0.002404 0.015278 0.000000 0.000000 0.000000
# 4 0.000399 -0.000399 0.000000 0.022698 0.000000 -0.000962
# 5 0.000481 -0.000481 0.000000 0.000000 0.022698 0.000797
# 6 0.000000 0.000000 0.000000 -0.000962 0.000797 0.022266
#
#
# Mechanical properties :
#
#
# Convention : Reuss Voigt Hill
#
# Bulk Modulus (GPa) = 54.03569 59.80866 56.92217
# Shear Modulus (GPa) = 41.32451 42.82311 42.07381
#
# Velocity S-wave (km/s) = 3.88191 3.95167 3.91694
# Velocity P-wave (km/s) = 6.30846 6.52920 6.41978
#
# Compressibility (1/GPa) = 0.01850629
#
# Stress axis : x y z
#
# Youngs Moduli (GPa) = 113.92199 113.92199 65.45348
#
# Poissons Ratio (x) = 0.26832 0.15737
# Poissons Ratio (y) = 0.26832 0.15737
# Poissons Ratio (z) = 0.27390 0.27390
#
# Static dielectric constant tensor:
#      x y z
#    x 2.166440 0.000000 0.000000 
#    y 0.000000 2.166440 0.000000 
#    z 0.000000 0.000000 2.077140 
# 
# From -- ./inp_files/577.got.cif
#   From: 2010.05.17/outbox.cif.g08.bks.cpg/sg145_cif.got.tgz:577.got - 2010.05.20 13:47:28.
