data_PCOD9574990
_publ_section_title
;
Structure prediction by ZEFSAII (Michael W. Deem and Ramdas Pophale) SiO2 
 PCOD9574990
Probable space group: P -3
;
_chemical_formula_sum "Si O2"
_cell_formula_units_Z 48
_cell_length_a 19.472963
_cell_length_b 19.472963
_cell_length_c 7.647171
_cell_angle_alpha 90.000000
_cell_angle_beta 90.000000
_cell_angle_gamma 120.000000
_cell_volume 2511.282155
_symmetry_space_group_name_H-M "P -3"
_symmetry_group_IT_number 147
_symmetry_cell_setting 'hexagonal'
loop_
_space_group_symop_operation_xyz
x,y,z
-y,x-y,z
-x+y,-x,z
-x,-y,-z
y,-x+y,-z
x-y,x,-z
loop_
_atom_site_type_symbol
_atom_site_label
_atom_site_fract_x
_atom_site_fract_y
_atom_site_fract_z
Si Si1 0.176970 0.511288 0.211171
Si Si2 0.334319 0.511289 0.211171
Si Si3 0.087843 0.757364 0.291270
Si Si4 0.665681 0.488711 0.211171
Si Si5 0.757365 0.087843 0.291271
Si Si6 0.242636 0.330478 0.708730
Si Si7 0.511289 0.334319 0.211172
Si Si8 0.087843 0.330478 0.291270
O O1 0.262830 0.525660 0.269955
O O2 0.162086 0.581043 0.274115
O O3 0.113440 0.422165 0.262878
O O4 0.178569 0.513867 1.000000
O O5 0.308725 0.422166 0.262877
O O6 0.335298 0.513868 0.000000
O O7 0.085323 0.766918 0.500000
O O8 0.159828 0.840172 0.220451
O O9 1.000000 0.726889 0.220451
O O10 0.691275 0.577834 0.262877
O O11 0.581043 0.418957 0.274115
O O12 0.737170 0.474340 0.269955
O O13 0.840172 0.159828 0.220452
O O14 0.691275 0.113441 0.262879
O O15 0.766919 0.085323 0.500000
O O16 0.273110 0.273110 0.779549
#
# Coordination Sequence:
#
# PCOD9574990 Si02
#       8
#     6   6   6   6   6   6   6   6
#     4   9  17  29  45  65  90 120 152 183 213 246
#     4   9  17  29  45  65  90 120 152 183 213 246
#     4   9  18  32  48  65  86 113 144 178 218 263
#     4   9  17  29  45  65  90 120 152 183 213 246
#     4   9  18  32  48  65  86 113 144 178 218 263
#     4   9  18  32  48  65  86 113 144 178 218 263
#     4   9  17  29  45  65  90 120 152 183 213 246
#     4   9  18  32  48  65  86 113 144 178 218 263
#
# _framework density 19.113742999999999
#
# number of rings (size 3 to 8) (size 9 to 14) (size 15 to 20)
#    0.000    3.000    0.000    0.500    0.000    5.000 
#    0.000    5.000    0.000    3.500    0.000    3.500 
#    0.000    0.000    0.000   12.500    0.000   13.000 
#
# Total GULP energy -267627.026262 kJ/mol
# GULP energy per Si atom -5575.563047 kJ/mol
# Density = 1.907024 g / cm^3
# Si number density = 19.113743 Si / 1000 Ang^3
#
#
#
# Elastic Constant Matrix: (Units=GPa)
#
#
# Indices 1 2 3 4 5 6 
#
# 1 127.2276 111.0785 3.6936 -0.0031 0.0000 0.0000
# 2 111.0785 127.2276 3.6936 0.0031 0.0000 0.0000
# 3 3.6936 3.6936 35.9631 0.0000 0.0000 0.0000
# 4 -0.0031 0.0031 0.0000 143.7695 0.0000 0.0000
# 5 0.0000 0.0000 0.0000 0.0000 143.7695 -0.0031
# 6 0.0000 0.0000 0.0000 0.0000 -0.0031 8.0745
#
#
#
# Elastic Compliance Matrix: (Units=1/GPa)
#
#
# Indices 1 2 3 4 5 6 
#
# 1 0.033066 -0.028857 -0.000432 0.000001 0.000000 0.000000
# 2 -0.028857 0.033066 -0.000432 -0.000001 0.000000 0.000000
# 3 -0.000432 -0.000432 0.027895 0.000000 0.000000 0.000000
# 4 0.000001 -0.000001 0.000000 0.006956 0.000000 0.000000
# 5 0.000000 0.000000 0.000000 0.000000 0.006956 0.000003
# 6 0.000000 0.000000 0.000000 0.000000 0.000003 0.123846
#
#
# Mechanical properties :
#
#
# Convention : Reuss Voigt Hill
#
# Bulk Modulus (GPa) = 28.91422 58.59439 43.75430
# Shear Modulus (GPa) = 16.51493 70.58620 43.55056
#
# Velocity S-wave (km/s) = 2.94263 6.08356 4.77854
# Velocity P-wave (km/s) = 5.16776 8.94810 7.30665
#
# Compressibility (1/GPa) = 0.03458506
#
# Stress axis : x y z
#
# Youngs Moduli (GPa) = 30.24219 30.24219 35.84860
#
# Poissons Ratio (x) = 0.87269 0.01550
# Poissons Ratio (y) = 0.87269 0.01550
# Poissons Ratio (z) = 0.01308 0.01308
#
# Static dielectric constant tensor:
#      x y z
#    x 1.662630 0.000000 0.000000 
#    y 0.000000 1.662630 0.000000 
#    z 0.000000 0.000000 1.716500 
# 
# From -- ./inp_files/676.got.cif
#   From: 2010.05.17/outbox.cif.g08.bks.cpg/sg147_cif.got.tgz:676.got - 2010.05.20 13:49:32.
