data_PCOD9574515
_publ_section_title
;
Structure prediction by ZEFSAII (Michael W. Deem and Ramdas Pophale) SiO2 
 PCOD9574515
Probable space group: P 31
;
_chemical_formula_sum "Si O2"
_cell_formula_units_Z 6
_cell_length_a 8.007411
_cell_length_b 8.007411
_cell_length_c 5.009683
_cell_angle_alpha 90.000000
_cell_angle_beta 90.000000
_cell_angle_gamma 120.000000
_cell_volume 278.179497
_symmetry_space_group_name_H-M "P 31"
_symmetry_group_IT_number 144
_symmetry_cell_setting 'hexagonal'
loop_
_space_group_symop_operation_xyz
x,y,z
-y,x-y,1/3+z
-x+y,-x,2/3+z
loop_
_atom_site_type_symbol
_atom_site_label
_atom_site_fract_x
_atom_site_fract_y
_atom_site_fract_z
Si Si1 0.283123 0.333333 0.009490
Si Si2 0.666667 0.716877 0.842824
O O1 0.193714 0.387425 0.259492
O O2 0.304567 0.152283 0.092822
O O3 0.485615 0.514385 0.926156
O O4 0.139619 0.279239 0.759491
#
# Coordination Sequence:
#
# PCOD9574515 Si02
#       2
#     3   3
#     4  12  26  46  70 100 136 178 224 276 334 398
#     4  12  26  46  70 100 136 178 224 276 334 398
#
# _framework density 21.568809999999999
#
# number of rings (size 3 to 8) (size 9 to 14) (size 15 to 20)
#    0.000    0.000    0.000   12.000    0.000    8.000 
#    0.000    0.000    0.000    0.000    0.000    0.000 
#    0.000    0.000    0.000    0.000    0.000    0.000 
#
# Total GULP energy -33683.392922 kJ/mol
# GULP energy per Si atom -5613.898820 kJ/mol
# Density = 2.151972 g / cm^3
# Si number density = 21.568810 Si / 1000 Ang^3
#
#
#
# Elastic Constant Matrix: (Units=GPa)
#
#
# Indices 1 2 3 4 5 6 
#
# 1 195.8728 142.5056 102.6537 -0.0001 -0.0003 0.0000
# 2 142.5056 195.8728 102.6537 0.0001 0.0003 0.0000
# 3 102.6537 102.6537 196.9578 0.0000 0.0000 0.0000
# 4 -0.0001 0.0001 0.0000 46.9563 0.0000 0.0003
# 5 -0.0003 0.0003 0.0000 0.0000 46.9563 -0.0001
# 6 0.0000 0.0000 0.0000 0.0003 -0.0001 26.6836
#
#
#
# Elastic Compliance Matrix: (Units=1/GPa)
#
#
# Indices 1 2 3 4 5 6 
#
# 1 0.011530 -0.007208 -0.002253 0.000000 0.000000 0.000000
# 2 -0.007208 0.011530 -0.002253 0.000000 0.000000 0.000000
# 3 -0.002253 -0.002253 0.007425 0.000000 0.000000 0.000000
# 4 0.000000 0.000000 0.000000 0.021296 0.000000 0.000000
# 5 0.000000 0.000000 0.000000 0.000000 0.021296 0.000000
# 6 0.000000 0.000000 0.000000 0.000000 0.000000 0.037476
#
#
# Mechanical properties :
#
#
# Convention : Reuss Voigt Hill
#
# Bulk Modulus (GPa) = 141.66506 142.70327 142.18416
# Shear Modulus (GPa) = 36.67460 40.17858 38.42659
#
# Velocity S-wave (km/s) = 4.12801 4.32071 4.22546
# Velocity P-wave (km/s) = 9.40977 9.54971 9.47999
#
# Compressibility (1/GPa) = 0.00705890
#
# Stress axis : x y z
#
# Youngs Moduli (GPa) = 86.72968 86.72968 134.67377
#
# Poissons Ratio (x) = 0.62515 0.30337
# Poissons Ratio (y) = 0.62515 0.30337
# Poissons Ratio (z) = 0.19537 0.19537
#
# Static dielectric constant tensor:
#      x y z
#    x 1.749050 0.000000 0.000000 
#    y 0.000000 1.749050 0.000000 
#    z 0.000000 0.000000 1.761640 
# 
# From -- ./inp_files/31.got.cif
#   From: 2010.05.17/outbox.cif.g08.bks.cpg/sg144_cif.got.tgz:31.got - 2010.05.20 13:46:34.
