data_PCOD9574937
_publ_section_title
;
Structure prediction by ZEFSAII (Michael W. Deem and Ramdas Pophale) SiO2 
 PCOD9574937
Probable space group: P -3
;
_chemical_formula_sum "Si O2"
_cell_formula_units_Z 48
_cell_length_a 17.157162
_cell_length_b 17.157162
_cell_length_c 8.595243
_cell_angle_alpha 90.000000
_cell_angle_beta 90.000000
_cell_angle_gamma 120.000000
_cell_volume 2191.188273
_symmetry_space_group_name_H-M "P -3"
_symmetry_group_IT_number 147
_symmetry_cell_setting 'hexagonal'
loop_
_space_group_symop_operation_xyz
x,y,z
-y,x-y,z
-x+y,-x,z
-x,-y,-z
y,-x+y,-z
x-y,x,-z
loop_
_atom_site_type_symbol
_atom_site_label
_atom_site_fract_x
_atom_site_fract_y
_atom_site_fract_z
Si Si1 0.503171 0.946717 0.185430
Si Si2 0.801505 0.470186 0.950766
Si Si3 0.851277 0.800170 0.550058
Si Si4 0.802790 0.717614 0.870403
Si Si5 0.467243 0.196953 0.699308
Si Si6 0.229298 0.388082 0.609564
Si Si7 0.227331 0.888007 0.884596
Si Si8 0.491781 0.880271 0.851793
O O1 0.396410 0.888812 0.154547
O O2 0.522665 0.891148 0.310785
O O3 0.534672 0.048948 0.219735
O O4 0.536181 0.929968 0.016579
O O5 0.729671 0.460579 0.819647
O O6 0.831550 0.559883 0.049090
O O7 0.604166 0.400184 0.076022
O O8 0.826569 0.875170 0.502435
O O9 0.849787 0.791622 0.737268
O O10 0.780464 0.701576 0.474129
O O11 0.788467 0.627553 0.785536
O O12 0.711088 0.717141 0.905347
O O13 0.854047 0.721275 0.027175
O O14 0.456866 0.220399 0.524752
O O15 0.137806 0.349698 0.705357
O O16 0.310012 0.443059 0.735271
#
# Coordination Sequence:
#
# PCOD9574937 Si02
#       8
#     6   6   6   6   6   6   6   6
#     4   9  19  38  62  89 121 166 216 268 348 395
#     4   9  20  37  63  87 125 173 214 272 346 399
#     4  11  24  45  64  99 141 191 223 280 354 410
#     4  10  23  37  65  91 130 172 228 281 336 396
#     4  10  21  41  58  93 131 174 211 273 345 412
#     4  11  24  39  66  96 136 172 232 286 337 407
#     4  11  22  40  62  97 127 171 233 286 332 405
#     4   9  19  37  63  95 119 164 224 284 331 401
#
# _framework density 21.905922
#
# number of rings (size 3 to 8) (size 9 to 14) (size 15 to 20)
#    0.750    1.250    1.250    2.375    3.500    2.500 
#    3.000    0.000    0.000    1.000    0.000    0.000 
#    0.000    0.000    0.000    0.000    0.000    0.000 
#
# Total GULP energy -267203.612989 kJ/mol
# GULP energy per Si atom -5566.741937 kJ/mol
# Density = 2.185606 g / cm^3
# Si number density = 21.905922 Si / 1000 Ang^3
#
#
#
# Elastic Constant Matrix: (Units=GPa)
#
#
# Indices 1 2 3 4 5 6 
#
# 1 78.1251 21.6575 42.2150 -1.4739 1.8545 0.0000
# 2 21.6575 78.1251 42.2150 1.4739 -1.8545 0.0000
# 3 42.2150 42.2150 77.1468 0.0000 0.0000 0.0000
# 4 -1.4739 1.4739 0.0000 15.1131 0.0000 -1.8545
# 5 1.8545 -1.8545 0.0000 0.0000 15.1131 -1.4739
# 6 0.0000 0.0000 0.0000 -1.8545 -1.4739 28.2338
#
#
#
# Elastic Compliance Matrix: (Units=1/GPa)
#
#
# Indices 1 2 3 4 5 6 
#
# 1 0.018304 0.000359 -0.010212 0.001750 -0.002202 0.000000
# 2 0.000359 0.018304 -0.010212 -0.001750 0.002202 0.000000
# 3 -0.010212 -0.010212 0.024139 0.000000 0.000000 0.000000
# 4 0.001750 -0.001750 0.000000 0.067050 0.000000 0.004404
# 5 -0.002202 0.002202 0.000000 0.000000 0.067050 0.003500
# 6 0.000000 0.000000 0.000000 0.004404 0.003500 0.035891
#
#
# Mechanical properties :
#
#
# Convention : Reuss Voigt Hill
#
# Bulk Modulus (GPa) = 48.50833 49.50799 49.00816
# Shear Modulus (GPa) = 18.00244 20.17930 19.09087
#
# Velocity S-wave (km/s) = 2.86983 3.03839 2.95531
# Velocity P-wave (km/s) = 5.75962 5.91256 5.83659
#
# Compressibility (1/GPa) = 0.02061502
#
# Stress axis : x y z
#
# Youngs Moduli (GPa) = 54.63260 54.63260 41.42710
#
# Poissons Ratio (x) = -0.01960 0.42307
# Poissons Ratio (y) = -0.01960 0.42307
# Poissons Ratio (z) = 0.55793 0.55793
#
# Static dielectric constant tensor:
#      x y z
#    x 1.865570 0.000000 0.000000 
#    y 0.000000 1.865570 0.000000 
#    z 0.000000 0.000000 1.828990 
# 
# From -- ./inp_files/690.got.cif
#   From: 2010.05.17/outbox.cif.g08.bks.cpg/sg147_cif.got.tgz:690.got - 2010.05.20 13:49:32.
