data_PCOD9574050
_publ_section_title
;
Structure prediction by ZEFSAII (Michael W. Deem and Ramdas Pophale) SiO2 
 PCOD9574050
Probable space group: I 41/A C D
;
_chemical_formula_sum "Si O2"
_cell_formula_units_Z 216
_cell_length_a 27.454510
_cell_length_b 27.454510
_cell_length_c 14.695944
_cell_angle_alpha 90.000000
_cell_angle_beta 90.000000
_cell_angle_gamma 90.000000
_cell_volume 11077.069544
_symmetry_space_group_name_H-M "I 41/A C D"
_symmetry_group_IT_number 142
_space_group.IT_coordinate_system_code '2'
_symmetry_cell_setting 'tetragonal'
loop_
_space_group_symop_operation_xyz
x,y,z
1/4-y,3/4+x,1/4+z
-x,1/2-y,z
1/4+y,1/4-x,3/4+z
x,-y,1/2-z
1/2-x,y,-z
3/4+y,1/4+x,1/4-z
1/4-y,1/4-x,1/4-z
-x,-y,-z
3/4+y,1/4-x,3/4-z
x,1/2+y,-z
3/4-y,3/4+x,1/4-z
-x,y,1/2+z
1/2+x,-y,z
1/4-y,3/4-x,3/4+z
3/4+y,3/4+x,3/4+z
1/2+x,1/2+y,1/2+z
3/4-y,1/4+x,3/4+z
1/2-x,-y,1/2+z
3/4+y,3/4-x,1/4+z
1/2+x,1/2-y,-z
-x,1/2+y,1/2-z
1/4+y,3/4+x,3/4-z
3/4-y,3/4-x,3/4-z
1/2-x,1/2-y,1/2-z
1/4+y,3/4-x,1/4-z
1/2+x,y,1/2-z
1/4-y,1/4+x,3/4-z
1/2-x,1/2+y,z
x,1/2-y,1/2+z
3/4-y,1/4-x,1/4+z
1/4+y,1/4+x,1/4+z
loop_
_atom_site_type_symbol
_atom_site_label
_atom_site_fract_x
_atom_site_fract_y
_atom_site_fract_z
Si Si1 0.311626 0.370548 0.130345
Si Si2 0.750000 0.188309 0.000000
Si Si3 0.000000 0.250000 0.125000
Si Si4 0.187323 0.858635 0.340452
Si Si5 0.050771 0.357948 0.320809
Si Si6 0.263301 0.433751 0.603987
Si Si7 0.496367 0.586651 0.169162
Si Si8 0.009301 0.655511 0.496997
O O1 0.264992 0.347160 0.082524
O O2 0.318668 0.351716 0.233002
O O3 0.353701 0.344868 0.072097
O O4 0.311990 0.429146 0.130592
O O5 0.790888 0.223461 0.043090
O O6 0.952260 0.254083 0.186855
O O7 0.146864 0.896864 0.375000
O O8 0.238577 0.887586 0.346974
O O9 0.179662 0.809351 0.398353
O O10 0.008912 0.373587 0.248077
O O11 0.076698 0.308715 0.292705
O O12 0.027345 0.354705 0.420586
O O13 0.250000 0.423809 0.500000
O O14 0.233391 0.483391 0.625000
O O15 0.513616 0.610731 0.073767
#
# Coordination Sequence:
#
# PCOD9574050 Si02
#       8
#    32  16   8  32  32  32  32  32
#     4  11  24  46  66  99 136 175 232 281 343 421
#     4  10  28  46  68  98 138 190 230 274 352 422
#     4  12  24  42  64 100 138 176 236 278 332 396
#     4  11  24  41  69 102 138 175 228 292 347 402
#     4  11  25  43  67 102 135 185 234 277 350 416
#     4  11  23  43  67 106 134 171 231 285 351 414
#     4  11  25  47  66 100 144 182 232 283 343 417
#     4  12  24  42  65  97 139 180 232 287 340 404
#
# _framework density 19.499742000000001
#
# number of rings (size 3 to 8) (size 9 to 14) (size 15 to 20)
#    0.000    0.889    5.926    0.889    5.185    1.778 
#    2.667    1.481    0.000    0.000    0.000    0.000 
#    0.000    0.000    0.000    0.000    0.000    0.000 
#
# Total GULP energy -602301.429317 kJ/mol
# GULP energy per Si atom -5576.865086 kJ/mol
# Density = 1.945536 g / cm^3
# Si number density = 19.499742 Si / 1000 Ang^3
#
#
#
# Elastic Constant Matrix: (Units=GPa)
#
#
# Indices 1 2 3 4 5 6 
#
# 1 112.0245 57.1581 34.1269 0.0000 0.0000 0.0000
# 2 57.1581 112.0245 34.1269 0.0000 0.0000 0.0000
# 3 34.1269 34.1269 105.4932 0.0000 0.0000 0.0000
# 4 0.0000 0.0000 0.0000 -0.0484 0.0000 0.0000
# 5 0.0000 0.0000 0.0000 0.0000 -0.0484 0.0000
# 6 0.0000 0.0000 0.0000 0.0000 0.0000 10.1189
#
#
#
# Elastic Compliance Matrix: (Units=1/GPa)
#
#
# Indices 1 2 3 4 5 6 
#
# 1 0.012512 -0.005714 -0.002199 0.000000 0.000000 0.000000
# 2 -0.005714 0.012512 -0.002199 0.000000 0.000000 0.000000
# 3 -0.002199 -0.002199 0.010902 0.000000 0.000000 0.000000
# 4 0.000000 0.000000 0.000000-20.645412 0.000000 0.000000
# 5 0.000000 0.000000 0.000000 0.000000-20.645412 0.000000
# 6 0.000000 0.000000 0.000000 0.000000 0.000000 0.098825
#
#
# Mechanical properties :
#
#
# Convention : Reuss Voigt Hill
#
# Bulk Modulus (GPa) = 63.68806 64.48511 64.08659
# Shear Modulus (GPa) = -0.12156 15.61310 7.74577
#
# Velocity S-wave (km/s) = -0.24995 2.83270 1.99521
# Velocity P-wave (km/s) = 5.71389 6.62121 6.18422
#
# Compressibility (1/GPa) = 0.01570153
#
# Stress axis : x y z
#
# Youngs Moduli (GPa) = 79.92310 79.92310 91.72535
#
# Poissons Ratio (x) = 0.45668 0.20172
# Poissons Ratio (y) = 0.45668 0.20172
# Poissons Ratio (z) = 0.17576 0.17576
#
# Static dielectric constant tensor:
#      x y z
#    x 1.922340 0.000000 0.000000 
#    y 0.000000 1.922340 0.000000 
#    z 0.000000 0.000000 1.726860 
# 
# From -- ./inp_files/5802.got.cif
#   From: 2010.05.17/outbox.cif.g08.bks.cpg/sg142_3_cif.got.tgz:5802.got - 2010.05.20 13:39:18.
