data_PCOD9574229
_publ_section_title
;
Structure prediction by ZEFSAII (Michael W. Deem and Ramdas Pophale) SiO2 
 PCOD9574229
Probable space group: I 41/A C D
;
_chemical_formula_sum "Si O2"
_cell_formula_units_Z 112
_cell_length_a 29.868338
_cell_length_b 29.868338
_cell_length_c 5.267123
_cell_angle_alpha 90.000000
_cell_angle_beta 90.000000
_cell_angle_gamma 90.000000
_cell_volume 4698.893208
_symmetry_space_group_name_H-M "I 41/A C D"
_symmetry_group_IT_number 142
_space_group.IT_coordinate_system_code '2'
_symmetry_cell_setting 'tetragonal'
loop_
_space_group_symop_operation_xyz
x,y,z
1/4-y,3/4+x,1/4+z
-x,1/2-y,z
1/4+y,1/4-x,3/4+z
x,-y,1/2-z
1/2-x,y,-z
3/4+y,1/4+x,1/4-z
1/4-y,1/4-x,1/4-z
-x,-y,-z
3/4+y,1/4-x,3/4-z
x,1/2+y,-z
3/4-y,3/4+x,1/4-z
-x,y,1/2+z
1/2+x,-y,z
1/4-y,3/4-x,3/4+z
3/4+y,3/4+x,3/4+z
1/2+x,1/2+y,1/2+z
3/4-y,1/4+x,3/4+z
1/2-x,-y,1/2+z
3/4+y,3/4-x,1/4+z
1/2+x,1/2-y,-z
-x,1/2+y,1/2-z
1/4+y,3/4+x,3/4-z
3/4-y,3/4-x,3/4-z
1/2-x,1/2-y,1/2-z
1/4+y,3/4-x,1/4-z
1/2+x,y,1/2-z
1/4-y,1/4+x,3/4-z
1/2-x,1/2+y,z
x,1/2-y,1/2+z
3/4-y,1/4-x,1/4+z
1/4+y,1/4+x,1/4+z
loop_
_atom_site_type_symbol
_atom_site_label
_atom_site_fract_x
_atom_site_fract_y
_atom_site_fract_z
Si Si1 0.600673 0.778666 0.107098
Si Si2 0.643909 0.000000 0.250000
Si Si3 0.321533 0.343145 0.207419
Si Si4 0.250000 0.719961 0.500000
Si Si5 0.319358 0.069358 0.375000
O O1 0.552597 0.802597 0.125000
O O2 0.605895 0.741025 0.325005
O O3 0.637188 0.816190 0.180187
O O4 0.609363 0.038499 0.324664
O O5 0.673624 0.977601 0.474151
O O6 0.293706 0.311025 0.019918
O O7 0.328032 0.390177 0.068991
O O8 0.250000 0.750000 0.250000
#
# Coordination Sequence:
#
# PCOD9574229 Si02
#       5
#    32  16  32  16  16
#     4  12  29  51  81 120 162 214 269 332 412 495
#     4  12  25  50  80 119 156 218 274 335 414 487
#     4  12  27  48  82 113 162 211 269 334 411 491
#     4  12  25  46  78 121 160 200 262 339 400 475
#     4  12  26  48  84 110 165 218 268 346 410 506
#
# _framework density 23.835401000000001
#
# number of rings (size 3 to 8) (size 9 to 14) (size 15 to 20)
#    0.000    0.000    2.857    6.000    8.000    1.714 
#    0.000    0.000   44.000    0.000    0.000    0.000 
#    0.000    0.000    0.000    0.000    0.000    0.000 
#
# Total GULP energy -313683.175212 kJ/mol
# GULP energy per Si atom -5601.485272 kJ/mol
# Density = 2.378115 g / cm^3
# Si number density = 23.835401 Si / 1000 Ang^3
#
#
#
# Elastic Constant Matrix: (Units=GPa)
#
#
# Indices 1 2 3 4 5 6 
#
# 1 -382.9048 498.8052 21.7161 0.0000 0.0000 0.0000
# 2 498.8052 -382.9048 21.7161 0.0000 0.0000 0.0000
# 3 21.7161 21.7161 101.9871 0.0000 0.0000 0.0000
# 4 0.0000 0.0000 0.0000 29.9620 0.0000 0.0000
# 5 0.0000 0.0000 0.0000 0.0000 29.9620 0.0000
# 6 0.0000 0.0000 0.0000 0.0000 0.0000 43.4304
#
#
#
# Elastic Compliance Matrix: (Units=1/GPa)
#
#
# Indices 1 2 3 4 5 6 
#
# 1 0.004121 0.005255 -0.001996 0.000000 0.000000 0.000000
# 2 0.005255 0.004121 -0.001996 0.000000 0.000000 0.000000
# 3 -0.001996 -0.001996 0.010655 0.000000 0.000000 0.000000
# 4 0.000000 0.000000 0.000000 0.033376 0.000000 0.000000
# 5 0.000000 0.000000 0.000000 0.000000 0.033376 0.000000
# 6 0.000000 0.000000 0.000000 0.000000 0.000000 0.023025
#
#
# Mechanical properties :
#
#
# Convention : Reuss Voigt Hill
#
# Bulk Modulus (GPa) = 46.68109 46.73915 46.71012
# Shear Modulus (GPa) = 44.13442 -59.73312 -7.79935
#
# Velocity S-wave (km/s) = 4.30773 -5.01149 -1.81088
# Velocity P-wave (km/s) = 6.66103 3.71955 3.90732
#
# Compressibility (1/GPa) = 0.02142195
#
# Stress axis : x y z
#
# Youngs Moduli (GPa) = 242.65699 242.65699 93.84932
#
# Poissons Ratio (x) = -1.27521 0.18737
# Poissons Ratio (y) = -1.27521 0.18737
# Poissons Ratio (z) = 0.48446 0.48446
#
# Static dielectric constant tensor:
#      x y z
#    x 1.914550 0.000000 0.000000 
#    y 0.000000 1.914550 0.000000 
#    z 0.000000 0.000000 1.755400 
# 
# From -- ./inp_files/753.got.cif
#   From: 2010.05.17/outbox.cif.g08.bks.cpg/sg142_1_cif.got.tgz:753.got - 2010.05.20 13:39:18.
