data_PCOD9574741
_publ_section_title
;
Structure prediction by ZEFSAII (Michael W. Deem and Ramdas Pophale) SiO2 
 PCOD9574741
Probable space group: R 3
;
_chemical_formula_sum "Si O2"
_cell_formula_units_Z 33
_cell_length_a 11.610498
_cell_length_b 11.610498
_cell_length_c 12.605174
_cell_angle_alpha 90.000000
_cell_angle_beta 90.000000
_cell_angle_gamma 120.000000
_cell_volume 1471.570837
_symmetry_space_group_name_H-M "R 3"
_symmetry_group_IT_number 146
_symmetry_cell_setting 'hexagonal'
loop_
_space_group_symop_operation_xyz
x,y,z
-y,x-y,z
-x+y,-x,z
2/3+x,1/3+y,1/3+z
2/3-y,1/3+x-y,1/3+z
2/3-x+y,1/3-x,1/3+z
1/3+x,2/3+y,2/3+z
1/3-y,2/3+x-y,2/3+z
1/3-x+y,2/3-x,2/3+z
loop_
_atom_site_type_symbol
_atom_site_label
_atom_site_fract_x
_atom_site_fract_y
_atom_site_fract_z
Si Si1 0.333334 0.666668 0.671906
Si Si2 0.297290 0.133863 0.674198
Si Si3 0.977561 0.660061 0.851539
Si Si4 0.333334 0.666667 0.417330
Si Si5 0.617834 0.780115 0.711672
O O1 0.333334 0.666667 0.544121
O O2 0.464372 0.671184 0.714556
O O3 0.381762 0.250598 0.758029
O O4 0.325041 0.203869 0.560747
O O5 0.291171 0.994561 0.689662
O O6 0.146131 0.091560 0.705921
O O7 0.913409 0.702768 0.946909
O O8 0.119868 0.780619 0.812179
#
# Coordination Sequence:
#
# PCOD9574741 Si02
#       5
#     3   9   9   3   9
#     4  12  24  42  66  97 137 190 234 288 360 424
#     4  11  21  41  70 100 136 182 232 297 353 419
#     4  10  22  39  66 106 129 174 244 282 350 424
#     4  12  18  39  72  94 125 181 240 279 351 418
#     4  11  23  41  68  97 143 181 232 294 350 423
#
# _framework density 22.425014999999998
#
# number of rings (size 3 to 8) (size 9 to 14) (size 15 to 20)
#    0.000    1.091    8.182    0.000    0.000    2.182 
#    0.000    0.000    6.000    0.000    0.000    0.000 
#    0.000    0.000    0.000    0.000    0.000    0.000 
#
# Total GULP energy -61431.881726 kJ/mol
# GULP energy per Si atom -5584.716521 kJ/mol
# Density = 2.237398 g / cm^3
# Si number density = 22.425015 Si / 1000 Ang^3
#
#
#
# Elastic Constant Matrix: (Units=GPa)
#
#
# Indices 1 2 3 4 5 6 
#
# 1 103.8360 40.8356 37.3198 9.8188 -9.2271 -0.0003
# 2 40.8356 103.8365 37.3192 -9.8186 9.2267 -0.0001
# 3 37.3198 37.3192 81.1009 0.0000 0.0000 -0.0005
# 4 9.8188 -9.8186 0.0000 31.3263 -0.0003 9.2276
# 5 -9.2271 9.2267 0.0000 -0.0003 31.3262 9.8187
# 6 -0.0003 -0.0001 -0.0005 9.2276 9.8187 31.5012
#
#
#
# Elastic Compliance Matrix: (Units=1/GPa)
#
#
# Indices 1 2 3 4 5 6 
#
# 1 0.014258 -0.005194 -0.004171 -0.006097 0.005729 0.000000
# 2 -0.005194 0.014258 -0.004171 0.006097 -0.005729 0.000000
# 3 -0.004171 -0.004171 0.016169 0.000000 0.000000 0.000000
# 4 -0.006097 0.006097 0.000000 0.039119 0.000001 -0.011459
# 5 0.005729 -0.005729 0.000000 0.000001 0.039119 -0.012193
# 6 0.000000 0.000000 0.000000 -0.011459 -0.012193 0.038902
#
#
# Mechanical properties :
#
#
# Convention : Reuss Voigt Hill
#
# Bulk Modulus (GPa) = 56.77523 57.74697 57.26110
# Shear Modulus (GPa) = 25.67169 30.38397 28.02783
#
# Velocity S-wave (km/s) = 3.38713 3.68491 3.53915
# Velocity P-wave (km/s) = 6.37727 6.62660 6.50313
#
# Compressibility (1/GPa) = 0.01761332
#
# Stress axis : x y z
#
# Youngs Moduli (GPa) = 70.13688 70.13814 61.84700
#
# Poissons Ratio (x) = 0.36427 0.25797
# Poissons Ratio (y) = 0.36427 0.25795
# Poissons Ratio (z) = 0.29255 0.29253
#
# Static dielectric constant tensor:
#      x y z
#    x 1.863440 0.000000 0.000000 
#    y 0.000000 1.863440 0.000000 
#    z 0.000000 0.000000 1.901460 
# 
# From -- ./inp_files/1349.got.cif
#   From: 2010.05.17/outbox.cif.g08.bks.cpg/sg146_cif.got.tgz:1349.got - 2010.05.20 13:48:23.
