data_PCOD9574106
_publ_section_title
;
Structure prediction by ZEFSAII (Michael W. Deem and Ramdas Pophale) SiO2 
 PCOD9574106
Probable space group: I 41/A C D
;
_chemical_formula_sum "Si O2"
_cell_formula_units_Z 160
_cell_length_a 22.604554
_cell_length_b 22.604554
_cell_length_c 15.028102
_cell_angle_alpha 90.000000
_cell_angle_beta 90.000000
_cell_angle_gamma 90.000000
_cell_volume 7678.847086
_symmetry_space_group_name_H-M "I 41/A C D"
_symmetry_group_IT_number 142
_space_group.IT_coordinate_system_code '2'
_symmetry_cell_setting 'tetragonal'
loop_
_space_group_symop_operation_xyz
x,y,z
1/4-y,3/4+x,1/4+z
-x,1/2-y,z
1/4+y,1/4-x,3/4+z
x,-y,1/2-z
1/2-x,y,-z
3/4+y,1/4+x,1/4-z
1/4-y,1/4-x,1/4-z
-x,-y,-z
3/4+y,1/4-x,3/4-z
x,1/2+y,-z
3/4-y,3/4+x,1/4-z
-x,y,1/2+z
1/2+x,-y,z
1/4-y,3/4-x,3/4+z
3/4+y,3/4+x,3/4+z
1/2+x,1/2+y,1/2+z
3/4-y,1/4+x,3/4+z
1/2-x,-y,1/2+z
3/4+y,3/4-x,1/4+z
1/2+x,1/2-y,-z
-x,1/2+y,1/2-z
1/4+y,3/4+x,3/4-z
3/4-y,3/4-x,3/4-z
1/2-x,1/2-y,1/2-z
1/4+y,3/4-x,1/4-z
1/2+x,y,1/2-z
1/4-y,1/4+x,3/4-z
1/2-x,1/2+y,z
x,1/2-y,1/2+z
3/4-y,1/4-x,1/4+z
1/4+y,1/4+x,1/4+z
loop_
_atom_site_type_symbol
_atom_site_label
_atom_site_fract_x
_atom_site_fract_y
_atom_site_fract_z
Si Si1 0.271030 0.885946 0.101391
Si Si2 0.306089 0.823265 0.561812
Si Si3 0.325714 0.357318 0.246537
Si Si4 0.410637 0.292384 0.124529
Si Si5 0.125776 0.797296 0.928898
O O1 0.303228 0.946773 0.125000
O O2 0.218568 0.874993 0.169305
O O3 0.320082 0.834522 0.111407
O O4 0.250000 0.885639 0.000000
O O5 0.250000 0.806971 0.500000
O O6 0.291356 0.838677 0.664090
O O7 0.339166 0.879959 0.520638
O O8 0.353766 0.770437 0.569881
O O9 0.367456 0.305868 0.206229
O O10 0.424846 0.223189 0.114129
O O11 0.382978 0.314404 0.031976
O O12 0.067161 0.817161 0.875000
#
# Coordination Sequence:
#
# PCOD9574106 Si02
#       5
#    32  32  32  32  32
#     4  11  25  43  70  98 134 181 235 292 347 417
#     4  11  26  45  70 101 141 185 236 295 348 429
#     4  11  25  46  67 101 139 185 236 287 360 415
#     4  11  22  40  68 101 140 183 229 291 358 426
#     4  11  23  43  69 103 138 180 232 292 354 423
#
# _framework density 20.836459999999999
#
# number of rings (size 3 to 8) (size 9 to 14) (size 15 to 20)
#    0.000    1.000    4.000    1.800    2.800    1.600 
#    0.000    0.000    0.000    0.000    0.000    0.000 
#    0.000    0.000    0.000    0.000    0.000    0.000 
#
# Total GULP energy -447216.718062 kJ/mol
# GULP energy per Si atom -5590.208976 kJ/mol
# Density = 2.078904 g / cm^3
# Si number density = 20.836460 Si / 1000 Ang^3
#
#
#
# Elastic Constant Matrix: (Units=GPa)
#
#
# Indices 1 2 3 4 5 6 
#
# 1 91.4861 41.6649 50.5923 0.0000 0.0000 0.0000
# 2 41.6649 91.4844 50.5925 0.0000 0.0000 0.0000
# 3 50.5923 50.5925 157.4161 0.0000 0.0000 0.0000
# 4 0.0000 0.0000 0.0000 33.1178 0.0000 0.0000
# 5 0.0000 0.0000 0.0000 0.0000 33.1185 0.0000
# 6 0.0000 0.0000 0.0000 0.0000 0.0000 21.7822
#
#
#
# Elastic Compliance Matrix: (Units=1/GPa)
#
#
# Indices 1 2 3 4 5 6 
#
# 1 0.015005 -0.005067 -0.003194 0.000000 0.000000 0.000000
# 2 -0.005067 0.015005 -0.003194 0.000000 0.000000 0.000000
# 3 -0.003194 -0.003194 0.008406 0.000000 0.000000 0.000000
# 4 0.000000 0.000000 0.000000 0.030195 0.000000 0.000000
# 5 0.000000 0.000000 0.000000 0.000000 0.030195 0.000000
# 6 0.000000 0.000000 0.000000 0.000000 0.000000 0.045909
#
#
# Mechanical properties :
#
#
# Convention : Reuss Voigt Hill
#
# Bulk Modulus (GPa) = 64.49499 69.56510 67.03005
# Shear Modulus (GPa) = 28.93651 30.77284 29.85467
#
# Velocity S-wave (km/s) = 3.73063 3.84718 3.78935
# Velocity P-wave (km/s) = 7.04109 7.29336 7.16834
#
# Compressibility (1/GPa) = 0.01550508
#
# Stress axis : x y z
#
# Youngs Moduli (GPa) = 66.64639 66.64482 118.96937
#
# Poissons Ratio (x) = 0.33771 0.37996
# Poissons Ratio (y) = 0.33772 0.37997
# Poissons Ratio (z) = 0.21285 0.21286
#
# Static dielectric constant tensor:
#      x y z
#    x 1.733180 0.000000 0.000000 
#    y 0.000000 1.733140 0.000000 
#    z 0.000000 0.000000 1.737990 
# 
# From -- ./inp_files/7418.got.cif
#   From: 2010.05.17/outbox.cif.g08.bks.cpg/sg142_4_cif.got.tgz:7418.got - 2010.05.20 13:39:18.
