data_PCOD9574748
_publ_section_title
;
Structure prediction by ZEFSAII (Michael W. Deem and Ramdas Pophale) SiO2 
 PCOD9574748
Probable space group: R 3
;
_chemical_formula_sum "Si O2"
_cell_formula_units_Z 45
_cell_length_a 13.143365
_cell_length_b 13.143365
_cell_length_c 12.138619
_cell_angle_alpha 90.000000
_cell_angle_beta 90.000000
_cell_angle_gamma 120.000000
_cell_volume 1815.988314
_symmetry_space_group_name_H-M "R 3"
_symmetry_group_IT_number 146
_symmetry_cell_setting 'hexagonal'
loop_
_space_group_symop_operation_xyz
x,y,z
-y,x-y,z
-x+y,-x,z
2/3+x,1/3+y,1/3+z
2/3-y,1/3+x-y,1/3+z
2/3-x+y,1/3-x,1/3+z
1/3+x,2/3+y,2/3+z
1/3-y,2/3+x-y,2/3+z
1/3-x+y,2/3-x,2/3+z
loop_
_atom_site_type_symbol
_atom_site_label
_atom_site_fract_x
_atom_site_fract_y
_atom_site_fract_z
Si Si1 0.676716 0.562767 0.316660
Si Si2 0.394730 0.468519 0.499322
Si Si3 0.770738 0.954472 0.572188
Si Si4 0.294050 0.875289 0.175801
Si Si5 0.912793 0.061884 0.175843
O O1 0.626652 0.632781 0.247657
O O2 0.753020 0.663500 0.407009
O O3 0.592278 0.444458 0.384432
O O4 0.718768 0.457737 0.536549
O O5 0.268881 0.358632 0.523912
O O6 0.404541 0.498873 0.370020
O O7 0.483278 0.425507 0.548237
O O8 0.444515 0.586670 0.567989
O O9 0.824154 0.888243 0.500767
O O10 0.852014 0.094230 0.560697
#
# Coordination Sequence:
#
# PCOD9574748 Si02
#       5
#     9   9   9   9   9
#     4  12  24  46  73 104 145 195 240 308 360 439
#     4  12  25  46  76 103 147 191 248 302 362 435
#     4  12  26  47  69 107 143 197 243 306 363 439
#     4  12  25  47  69 103 149 190 248 297 375 427
#     4  10  22  42  69 105 136 179 241 285 354 426
#
# _framework density 24.779895
#
# number of rings (size 3 to 8) (size 9 to 14) (size 15 to 20)
#    0.400    0.000    4.000    5.200    0.000    0.000 
#    0.000    0.000    0.000    0.000    0.000    0.000 
#    0.000    0.000    0.000    0.000    0.000    0.000 
#
# Total GULP energy -83634.286424 kJ/mol
# GULP energy per Si atom -5575.619095 kJ/mol
# Density = 2.472349 g / cm^3
# Si number density = 24.779895 Si / 1000 Ang^3
#
#
#
# Elastic Constant Matrix: (Units=GPa)
#
#
# Indices 1 2 3 4 5 6 
#
# 1 72.6582 -19.9882 11.7680 -3.1277 4.6855 0.0000
# 2 -19.9882 72.6582 11.7680 3.1277 -4.6855 0.0000
# 3 11.7680 11.7680 84.9472 0.0000 0.0000 0.0000
# 4 -3.1277 3.1277 0.0000 30.7186 0.0000 -4.6855
# 5 4.6855 -4.6855 0.0000 0.0000 30.7186 -3.1277
# 6 0.0000 0.0000 0.0000 -4.6855 -3.1277 46.3232
#
#
#
# Elastic Compliance Matrix: (Units=1/GPa)
#
#
# Indices 1 2 3 4 5 6 
#
# 1 0.015639 0.004600 -0.002804 0.001124 -0.001684 0.000000
# 2 0.004600 0.015639 -0.002804 -0.001124 0.001684 0.000000
# 3 -0.002804 -0.002804 0.012549 0.000000 0.000000 0.000000
# 4 0.001124 -0.001124 0.000000 0.033296 0.000000 0.003368
# 5 -0.001684 0.001684 0.000000 0.000000 0.033296 0.002248
# 6 0.000000 0.000000 0.000000 0.003368 0.002248 0.022080
#
#
# Mechanical properties :
#
#
# Convention : Reuss Voigt Hill
#
# Bulk Modulus (GPa) = 23.91668 26.37324 25.14496
# Shear Modulus (GPa) = 33.68060 36.66646 35.17353
#
# Velocity S-wave (km/s) = 3.69072 3.85084 3.77163
# Velocity P-wave (km/s) = 5.27584 5.51707 5.39780
#
# Compressibility (1/GPa) = 0.04181182
#
# Stress axis : x y z
#
# Youngs Moduli (GPa) = 63.94070 63.94070 79.68855
#
# Poissons Ratio (x) = -0.29410 0.22343
# Poissons Ratio (y) = -0.29410 0.22343
# Poissons Ratio (z) = 0.17928 0.17928
#
# Static dielectric constant tensor:
#      x y z
#    x 2.054910 0.000000 0.000000 
#    y 0.000000 2.054910 0.000000 
#    z 0.000000 0.000000 1.941400 
# 
# From -- ./inp_files/1083.got.cif
#   From: 2010.05.17/outbox.cif.g08.bks.cpg/sg146_cif.got.tgz:1083.got - 2010.05.20 13:48:23.
