data_PCOD9574438
_publ_section_title
;
Structure prediction by ZEFSAII (Michael W. Deem and Ramdas Pophale) SiO2 
 PCOD9574438
Probable space group: P 31
;
_chemical_formula_sum "Si O2"
_cell_formula_units_Z 24
_cell_length_a 11.224637
_cell_length_b 11.224637
_cell_length_c 11.218144
_cell_angle_alpha 90.000000
_cell_angle_beta 90.000000
_cell_angle_gamma 120.000000
_cell_volume 1224.041809
_symmetry_space_group_name_H-M "P 31"
_symmetry_group_IT_number 144
_symmetry_cell_setting 'hexagonal'
loop_
_space_group_symop_operation_xyz
x,y,z
-y,x-y,1/3+z
-x+y,-x,2/3+z
loop_
_atom_site_type_symbol
_atom_site_label
_atom_site_fract_x
_atom_site_fract_y
_atom_site_fract_z
Si Si1 0.280583 0.216344 0.297630
Si Si2 0.937571 0.996651 0.041327
Si Si3 0.166583 0.656169 0.874298
Si Si4 0.992018 0.804780 0.618784
Si Si5 0.061267 0.759542 0.201827
Si Si6 0.318985 0.045094 0.102527
Si Si7 0.502922 0.793842 0.269094
Si Si8 0.127719 0.560265 0.356974
O O1 0.309560 0.354308 0.227149
O O2 0.325640 0.278846 0.430774
O O3 0.345268 0.142154 0.218177
O O4 0.126238 0.087941 0.327226
O O5 0.875420 0.973905 0.171403
O O6 0.827813 0.003030 0.955924
O O7 0.080481 0.137808 0.054402
O O8 0.192383 0.650780 0.734296
O O9 0.157676 0.517059 0.926610
O O10 0.298708 0.775136 0.944230
O O11 0.075139 0.728583 0.595940
O O12 0.835543 0.718983 0.661831
O O13 0.106424 0.669609 0.280736
O O14 0.192049 0.893405 0.140590
O O15 0.434284 0.013146 0.055321
O O16 0.425977 0.808127 0.154223
#
# Coordination Sequence:
#
# PCOD9574438 Si02
#       8
#     3   3   3   3   3   3   3   3
#     4  11  21  40  63  97 132 174 216 279 349 398
#     4  11  21  37  64  97 135 165 220 284 338 404
#     4  12  23  41  61  95 137 173 224 281 340 415
#     4  12  22  40  66 101 129 172 225 284 345 400
#     4  11  21  38  62  97 132 172 217 272 347 410
#     4  11  24  39  68  94 137 173 220 289 343 412
#     4  12  26  40  67  97 136 180 229 274 345 426
#     4  12  24  43  63  98 138 179 219 283 355 405
#
# _framework density 19.607171999999998
#
# number of rings (size 3 to 8) (size 9 to 14) (size 15 to 20)
#    0.000    0.500    7.500    2.250    1.750    0.000 
#    0.000    0.000    0.000    3.000    0.000    0.000 
#    0.000    0.000    0.000    0.000    0.000    0.000 
#
# Total GULP energy -133682.489819 kJ/mol
# GULP energy per Si atom -5570.103742 kJ/mol
# Density = 1.956255 g / cm^3
# Si number density = 19.607172 Si / 1000 Ang^3
#
#
#
# Elastic Constant Matrix: (Units=GPa)
#
#
# Indices 1 2 3 4 5 6 
#
# 1 81.9045 34.5522 35.2371 2.9887 -7.5507 0.0000
# 2 34.5522 81.9045 35.2371 -2.9887 7.5507 0.0000
# 3 35.2371 35.2371 114.5407 0.0000 0.0000 0.0000
# 4 2.9887 -2.9887 0.0000 27.2726 0.0000 7.5507
# 5 -7.5507 7.5507 0.0000 0.0000 27.2726 2.9887
# 6 0.0000 0.0000 0.0000 7.5507 2.9887 23.6761
#
#
#
# Elastic Compliance Matrix: (Units=1/GPa)
#
#
# Indices 1 2 3 4 5 6 
#
# 1 0.017036 -0.006485 -0.003246 -0.002578 0.006512 0.000000
# 2 -0.006485 0.017036 -0.003246 0.002578 -0.006512 0.000000
# 3 -0.003246 -0.003246 0.010728 0.000000 0.000000 0.000000
# 4 -0.002578 0.002578 0.000000 0.040837 0.000000 -0.013024
# 5 0.006512 -0.006512 0.000000 0.000000 0.040837 -0.005155
# 6 0.000000 0.000000 0.000000 -0.013024 -0.005155 0.047041
#
#
# Mechanical properties :
#
#
# Convention : Reuss Voigt Hill
#
# Bulk Modulus (GPa) = 53.06095 54.26693 53.66394
# Shear Modulus (GPa) = 24.30130 27.19917 25.75024
#
# Velocity S-wave (km/s) = 3.52434 3.72856 3.62789
# Velocity P-wave (km/s) = 6.60924 6.80245 6.70654
#
# Compressibility (1/GPa) = 0.01884625
#
# Stress axis : x y z
#
# Youngs Moduli (GPa) = 58.69987 58.69987 93.21688
#
# Poissons Ratio (x) = 0.38065 0.30258
# Poissons Ratio (y) = 0.38065 0.30258
# Poissons Ratio (z) = 0.19054 0.19054
#
# Static dielectric constant tensor:
#      x y z
#    x 1.730080 0.000000 0.000000 
#    y 0.000000 1.730080 0.000000 
#    z 0.000000 0.000000 1.768690 
# 
# From -- ./inp_files/685.got.cif
#   From: 2010.05.17/outbox.cif.g08.bks.cpg/sg144_cif.got.tgz:685.got - 2010.05.20 13:46:34.
