data_PCOD9574280
_publ_section_title
;
Structure prediction by ZEFSAII (Michael W. Deem and Ramdas Pophale) SiO2 
 PCOD9574280
Probable space group: P 3
;
_chemical_formula_sum "Si O2"
_cell_formula_units_Z 12
_cell_length_a 6.850184
_cell_length_b 6.850184
_cell_length_c 11.194258
_cell_angle_alpha 90.000000
_cell_angle_beta 90.000000
_cell_angle_gamma 120.000000
_cell_volume 454.915168
_symmetry_space_group_name_H-M "P 3"
_symmetry_group_IT_number 143
_symmetry_cell_setting 'hexagonal'
loop_
_space_group_symop_operation_xyz
x,y,z
-y,x-y,z
-x+y,-x,z
loop_
_atom_site_type_symbol
_atom_site_label
_atom_site_fract_x
_atom_site_fract_y
_atom_site_fract_z
Si Si1 0.884616 0.267198 0.079740
Si Si2 0.732801 0.617418 0.338641
Si Si3 0.115385 0.382582 0.838641
Si Si4 0.267197 0.884615 0.579740
O O1 0.896964 0.511499 0.078691
O O2 0.975037 0.248762 0.209190
O O3 0.000003 0.254886 0.959191
O O4 0.488500 0.385464 0.339690
O O5 0.745114 0.745116 0.459190
O O6 0.385467 0.488501 0.839690
O O7 0.024964 0.273723 0.709190
O O8 0.103035 0.614534 0.578691
#
# Coordination Sequence:
#
# PCOD9574280 Si02
#       4
#     3   3   3   3
#     4   8  16  28  42  64  89 110 141 178 209 252
#     4   8  16  28  42  64  89 110 141 178 209 252
#     4   8  16  28  42  64  89 110 141 178 209 252
#     4   8  16  28  42  64  89 110 141 178 209 252
#
# _framework density 26.378543000000001
#
# number of rings (size 3 to 8) (size 9 to 14) (size 15 to 20)
#    2.000    2.000    0.000    0.000    0.000    4.000 
#    0.000    0.000    0.000    2.000    0.000    0.000 
#    0.000    0.000    0.000    0.000    0.000    0.000 
#
# Total GULP energy -66870.049473 kJ/mol
# GULP energy per Si atom -5572.504123 kJ/mol
# Density = 2.631850 g / cm^3
# Si number density = 26.378543 Si / 1000 Ang^3
#
#
#
# Elastic Constant Matrix: (Units=GPa)
#
#
# Indices 1 2 3 4 5 6 
#
# 1 88.7696 25.0969 64.4226 0.0000 -0.0001 0.0000
# 2 25.0969 88.7696 64.4226 0.0000 0.0001 0.0000
# 3 64.4226 64.4226 372.6789 0.0000 0.0000 0.0000
# 4 0.0000 0.0000 0.0000 -37.2744 0.0000 0.0001
# 5 -0.0001 0.0001 0.0000 0.0000 -37.2744 0.0000
# 6 0.0000 0.0000 0.0000 0.0001 0.0000 31.8363
#
#
#
# Elastic Compliance Matrix: (Units=1/GPa)
#
#
# Indices 1 2 3 4 5 6 
#
# 1 0.013312 -0.002394 -0.001887 0.000000 0.000000 0.000000
# 2 -0.002394 0.013312 -0.001887 0.000000 0.000000 0.000000
# 3 -0.001887 -0.001887 0.003336 0.000000 0.000000 0.000000
# 4 0.000000 0.000000 0.000000 -0.026828 0.000000 0.000000
# 5 0.000000 0.000000 0.000000 0.000000 -0.026828 0.000000
# 6 0.000000 0.000000 0.000000 0.000000 0.000000 0.031411
#
#
# Mechanical properties :
#
#
# Convention : Reuss Voigt Hill
#
# Bulk Modulus (GPa) = 56.74677 95.34468 76.04573
# Shear Modulus (GPa) = 192.87021 17.87590 105.37305
#
# Velocity S-wave (km/s) = 8.56008 2.60603 6.32718
# Velocity P-wave (km/s) = 10.92059 6.72893 9.07022
#
# Compressibility (1/GPa) = 0.01762215
#
# Stress axis : x y z
#
# Youngs Moduli (GPa) = 75.12277 75.12277 299.78191
#
# Poissons Ratio (x) = 0.17983 0.56577
# Poissons Ratio (y) = 0.17983 0.56577
# Poissons Ratio (z) = 0.14178 0.14178
#
# Static dielectric constant tensor:
#      x y z
#    x 2.081980 0.000000 0.000000 
#    y 0.000000 2.081980 0.000000 
#    z 0.000000 0.000000 2.028310 
# 
# From -- ./inp_files/94.got.cif
#   From: 2010.05.17/outbox.cif.g08.bks.cpg/sg143_cif.got.tgz:94.got - 2010.05.20 13:46:24.
