data_PCOD9574698
_publ_section_title
;
Structure prediction by ZEFSAII (Michael W. Deem and Ramdas Pophale) SiO2 
 PCOD9574698
Probable space group: R 3
;
_chemical_formula_sum "Si O2"
_cell_formula_units_Z 54
_cell_length_a 17.374859
_cell_length_b 17.374859
_cell_length_c 10.035629
_cell_angle_alpha 90.000000
_cell_angle_beta 90.000000
_cell_angle_gamma 120.000000
_cell_volume 2623.721942
_symmetry_space_group_name_H-M "R 3"
_symmetry_group_IT_number 146
_symmetry_cell_setting 'hexagonal'
loop_
_space_group_symop_operation_xyz
x,y,z
-y,x-y,z
-x+y,-x,z
2/3+x,1/3+y,1/3+z
2/3-y,1/3+x-y,1/3+z
2/3-x+y,1/3-x,1/3+z
1/3+x,2/3+y,2/3+z
1/3-y,2/3+x-y,2/3+z
1/3-x+y,2/3-x,2/3+z
loop_
_atom_site_type_symbol
_atom_site_label
_atom_site_fract_x
_atom_site_fract_y
_atom_site_fract_z
Si Si1 0.911964 0.328277 0.446730
Si Si2 0.245298 0.994944 0.613397
Si Si3 0.082839 0.824534 0.624966
Si Si4 0.220037 0.377433 0.378262
Si Si5 0.749506 0.157868 0.458299
Si Si6 0.490730 0.446630 0.544929
O O1 0.950167 0.266056 0.499664
O O2 0.810332 0.259910 0.411470
O O3 0.920690 0.404005 0.548170
O O4 0.982555 0.383166 0.332998
O O5 0.254024 0.070672 0.714837
O O6 0.143666 0.926577 0.578136
O O7 0.108064 0.770354 0.518385
O O8 0.115121 0.818062 0.772705
O O9 0.978644 0.784012 0.645165
O O10 0.181938 0.297060 0.272705
O O11 0.645311 0.117345 0.478498
O O12 0.774731 0.103687 0.351718
#
# Coordination Sequence:
#
# PCOD9574698 Si02
#       6
#     9   9   9   9   9   9
#     4  10  20  38  60  84 120 160 202 238 292 360
#     4  10  20  38  60  84 120 160 202 238 292 360
#     4  11  22  37  60  87 120 154 199 246 296 351
#     4  11  22  37  60  87 120 154 199 246 296 351
#     4  11  22  37  60  87 120 154 199 246 296 351
#     4  11  22  37  60  87 120 154 199 246 296 351
#
# _framework density 20.581448000000002
#
# number of rings (size 3 to 8) (size 9 to 14) (size 15 to 20)
#    0.000    1.333    3.333    4.000    0.000    0.000 
#    2.000    0.000    0.000    0.000    0.000    0.000 
#    0.000    0.000    0.000    0.000    0.000    0.000 
#
# Total GULP energy -100298.903399 kJ/mol
# GULP energy per Si atom -5572.161300 kJ/mol
# Density = 2.053460 g / cm^3
# Si number density = 20.581448 Si / 1000 Ang^3
#
#
#
# Elastic Constant Matrix: (Units=GPa)
#
#
# Indices 1 2 3 4 5 6 
#
# 1 93.1479 38.1942 14.8707 -8.4999 0.8658 0.0000
# 2 38.1942 93.1479 14.8707 8.4999 -0.8658 0.0000
# 3 14.8707 14.8707 81.6313 0.0000 0.0000 0.0000
# 4 -8.4999 8.4999 0.0000 24.3066 0.0000 -0.8658
# 5 0.8658 -0.8658 0.0000 0.0000 24.3066 -8.4999
# 6 0.0000 0.0000 0.0000 -0.8658 -8.4999 27.4768
#
#
#
# Elastic Compliance Matrix: (Units=1/GPa)
#
#
# Indices 1 2 3 4 5 6 
#
# 1 0.014186 -0.006244 -0.001447 0.007144 -0.000728 0.000000
# 2 -0.006244 0.014186 -0.001447 -0.007144 0.000728 0.000000
# 3 -0.001447 -0.001447 0.012777 0.000000 0.000000 0.000000
# 4 0.007144 -0.007144 0.000000 0.046190 0.000000 0.001455
# 5 -0.000728 0.000728 0.000000 0.000000 0.046190 0.014289
# 6 0.000000 0.000000 0.000000 0.001455 0.014289 0.040860
#
#
# Mechanical properties :
#
#
# Convention : Reuss Voigt Hill
#
# Bulk Modulus (GPa) = 43.71926 44.86649 44.29287
# Shear Modulus (GPa) = 24.96400 28.55076 26.75738
#
# Velocity S-wave (km/s) = 3.48650 3.72857 3.60956
# Velocity P-wave (km/s) = 6.12338 6.35477 6.24015
#
# Compressibility (1/GPa) = 0.02287322
#
# Stress axis : x y z
#
# Youngs Moduli (GPa) = 70.49335 70.49335 78.26391
#
# Poissons Ratio (x) = 0.44019 0.11322
# Poissons Ratio (y) = 0.44019 0.11322
# Poissons Ratio (z) = 0.10198 0.10198
#
# Static dielectric constant tensor:
#      x y z
#    x 1.819950 0.000000 0.000000 
#    y 0.000000 1.819950 0.000000 
#    z 0.000000 0.000000 1.784610 
# 
# From -- ./inp_files/1171.got.cif
#   From: 2010.05.17/outbox.cif.g08.bks.cpg/sg146_cif.got.tgz:1171.got - 2010.05.20 13:48:23.
