data_PCOD9574628
_publ_section_title
;
Structure prediction by ZEFSAII (Michael W. Deem and Ramdas Pophale) SiO2 
 PCOD9574628
Probable space group: P 32
;
_chemical_formula_sum "Si O2"
_cell_formula_units_Z 24
_cell_length_a 8.024268
_cell_length_b 8.024268
_cell_length_c 17.932577
_cell_angle_alpha 90.000000
_cell_angle_beta 90.000000
_cell_angle_gamma 120.000000
_cell_volume 999.963588
_symmetry_space_group_name_H-M "P 32"
_symmetry_group_IT_number 145
_symmetry_cell_setting 'hexagonal'
loop_
_space_group_symop_operation_xyz
x,y,z
-y,x-y,2/3+z
-x+y,-x,1/3+z
loop_
_atom_site_type_symbol
_atom_site_label
_atom_site_fract_x
_atom_site_fract_y
_atom_site_fract_z
Si Si1 0.906390 0.304200 0.993630
Si Si2 0.025352 0.784169 0.502850
Si Si3 0.602190 0.695800 0.971913
Si Si4 0.331087 0.751341 0.782572
Si Si5 0.751341 0.331087 0.849638
Si Si6 0.396050 0.254519 0.750639
Si Si7 0.784169 0.025352 0.129360
Si Si8 0.603950 0.858469 0.548237
O O1 0.741620 0.287786 0.937152
O O2 0.086968 0.323279 0.944964
O O3 0.959814 0.495360 0.042259
O O4 0.813708 0.121410 0.047786
O O5 0.121410 0.813708 0.584423
O O6 0.129300 0.688245 0.457887
O O7 0.800183 0.642139 0.490412
O O8 0.096386 0.000000 0.482771
O O9 0.453835 0.712214 0.028390
O O10 0.763689 0.676721 0.020579
O O11 0.464453 0.504640 0.923283
O O12 0.255280 0.565635 0.833339
O O13 0.199817 0.841956 0.808464
O O14 0.565636 0.255280 0.798871
O O15 0.870700 0.558944 0.840989
O O16 0.261533 0.261533 0.816105
#
# Coordination Sequence:
#
# PCOD9574628 Si02
#       8
#     3   3   3   3   3   3   3   3
#     4  11  22  41  70 100 144 191 246 311 383 454
#     4  11  24  44  71 104 147 193 247 313 371 458
#     4  11  22  41  70 100 144 191 246 311 383 454
#     4  11  22  44  67 102 144 191 244 307 380 457
#     4  11  22  44  67 102 144 191 244 307 380 457
#     4  11  23  41  73 105 144 197 252 310 393 473
#     4  11  24  44  71 104 147 193 247 313 371 458
#     4  11  23  41  73 105 144 197 252 310 393 473
#
# _framework density 24.000876000000002
#
# number of rings (size 3 to 8) (size 9 to 14) (size 15 to 20)
#    0.000    1.000    2.500    6.750    0.000    1.000 
#    0.000    0.000    0.000    0.000    0.000    0.000 
#    0.000    0.000    0.000    0.000    0.000    0.000 
#
# Total GULP energy -133898.973219 kJ/mol
# GULP energy per Si atom -5579.123884 kJ/mol
# Density = 2.394625 g / cm^3
# Si number density = 24.000876 Si / 1000 Ang^3
#
#
#
# Elastic Constant Matrix: (Units=GPa)
#
#
# Indices 1 2 3 4 5 6 
#
# 1 112.9029 52.6004 24.1993 -19.9534 0.0000 0.0000
# 2 52.6004 112.9029 24.1993 19.9534 0.0000 0.0000
# 3 24.1993 24.1993 122.7515 0.0000 0.0000 0.0000
# 4 -19.9534 19.9534 0.0000 -5.6526 0.0000 0.0000
# 5 0.0000 0.0000 0.0000 0.0000 -5.6526 -19.9534
# 6 0.0000 0.0000 0.0000 0.0000 -19.9534 30.1513
#
#
#
# Elastic Compliance Matrix: (Units=1/GPa)
#
#
# Indices 1 2 3 4 5 6 
#
# 1 0.005691 0.000720 -0.001264 -0.017547 0.000000 0.000000
# 2 0.000720 0.005691 -0.001264 0.017547 0.000000 0.000000
# 3 -0.001264 -0.001264 0.008645 0.000000 0.000000 0.000000
# 4 -0.017547 0.017547 0.000000 -0.053030 0.000000 0.000000
# 5 0.000000 0.000000 0.000000 0.000000 -0.053030 -0.035094
# 6 0.000000 0.000000 0.000000 0.000000 -0.035094 0.009942
#
#
# Mechanical properties :
#
#
# Convention : Reuss Voigt Hill
#
# Bulk Modulus (GPa) = 60.92938 61.17281 61.05109
# Shear Modulus (GPa) = -74.62205 20.27310 -27.17448
#
# Velocity S-wave (km/s) = -5.58201 2.90949 -3.36851
# Velocity P-wave (km/s) = 4.01295 6.06877 3.21918
#
# Compressibility (1/GPa) = 0.01641244
#
# Stress axis : x y z
#
# Youngs Moduli (GPa) = 175.70493 175.70493 115.67483
#
# Poissons Ratio (x) = -0.12659 0.14622
# Poissons Ratio (y) = -0.12659 0.14622
# Poissons Ratio (z) = 0.22210 0.22210
#
# Static dielectric constant tensor:
#      x y z
#    x 2.009420 0.000000 0.000000 
#    y 0.000000 2.009420 0.000000 
#    z 0.000000 0.000000 1.971590 
# 
# From -- ./inp_files/853.got.cif
#   From: 2010.05.17/outbox.cif.g08.bks.cpg/sg145_cif.got.tgz:853.got - 2010.05.20 13:47:28.
