data_PCOD9574560
_publ_section_title
;
Structure prediction by ZEFSAII (Michael W. Deem and Ramdas Pophale) SiO2 
 PCOD9574560
Probable space group: P 32
;
_chemical_formula_sum "Si O2"
_cell_formula_units_Z 24
_cell_length_a 12.312514
_cell_length_b 12.312514
_cell_length_c 8.613514
_cell_angle_alpha 90.000000
_cell_angle_beta 90.000000
_cell_angle_gamma 120.000000
_cell_volume 1130.848614
_symmetry_space_group_name_H-M "P 32"
_symmetry_group_IT_number 145
_symmetry_cell_setting 'hexagonal'
loop_
_space_group_symop_operation_xyz
x,y,z
-y,x-y,2/3+z
-x+y,-x,1/3+z
loop_
_atom_site_type_symbol
_atom_site_label
_atom_site_fract_x
_atom_site_fract_y
_atom_site_fract_z
Si Si1 0.425226 0.142418 0.970050
Si Si2 0.528531 0.791708 0.497543
Si Si3 0.975335 0.568811 0.644593
Si Si4 0.752417 0.852168 0.729883
Si Si5 0.256661 0.147181 0.227164
Si Si6 0.586424 0.054909 0.609302
Si Si7 0.330107 0.971975 0.679280
Si Si8 0.239529 0.711043 0.818922
O O1 0.537636 0.115505 0.007138
O O2 0.466179 0.283816 0.916800
O O3 0.339087 0.044847 0.837359
O O4 0.349829 0.120287 0.127692
O O5 0.628589 0.792096 0.619651
O O6 0.387318 0.674301 0.527468
O O7 0.543414 0.777333 0.314677
O O8 0.557594 0.934105 0.510425
O O9 0.921832 0.661131 0.678027
O O10 0.984284 0.569894 0.456723
O O11 0.108988 0.625574 0.727938
O O12 0.860135 0.838251 0.646442
O O13 0.804499 0.996027 0.772058
O O14 0.719498 0.780787 0.894151
O O15 0.461709 0.063879 0.595324
O O16 0.319769 0.837917 0.720432
#
# Coordination Sequence:
#
# PCOD9574560 Si02
#       8
#     3   3   3   3   3   3   3   3
#     4  10  22  44  71  96 140 187 225 289 354 425
#     4  12  23  40  68 105 143 175 232 293 356 426
#     4  10  21  45  67  93 142 179 236 285 355 420
#     4  12  25  47  67 101 144 183 241 296 357 432
#     4  11  24  47  69  97 141 186 233 300 355 423
#     4  10  21  42  67  98 139 181 223 288 349 419
#     4  11  23  43  69 102 144 176 241 289 354 429
#     4  12  23  38  70 108 139 187 229 294 366 420
#
# _framework density 21.222999000000002
#
# number of rings (size 3 to 8) (size 9 to 14) (size 15 to 20)
#    0.000    1.000    3.750    4.500    0.000    2.000 
#    9.000    0.000    2.750    0.000    0.000    0.000 
#    0.000    0.000    0.000    0.000    0.000    0.000 
#
# Total GULP energy -133912.720421 kJ/mol
# GULP energy per Si atom -5579.696684 kJ/mol
# Density = 2.117469 g / cm^3
# Si number density = 21.222999 Si / 1000 Ang^3
#
#
#
# Elastic Constant Matrix: (Units=GPa)
#
#
# Indices 1 2 3 4 5 6 
#
# 1 120.5819 44.5217 25.8348 4.9796 2.1489 0.0000
# 2 44.5217 120.5819 25.8348 -4.9796 -2.1489 0.0000
# 3 25.8348 25.8348 38.3862 0.0000 0.0000 0.0000
# 4 4.9796 -4.9796 0.0000 30.1536 0.0000 -2.1489
# 5 2.1489 -2.1489 0.0000 0.0000 30.1536 4.9796
# 6 0.0000 0.0000 0.0000 -2.1489 4.9796 38.0301
#
#
#
# Elastic Compliance Matrix: (Units=1/GPa)
#
#
# Indices 1 2 3 4 5 6 
#
# 1 0.010583 -0.002910 -0.005164 -0.002228 -0.000962 0.000000
# 2 -0.002910 0.010583 -0.005164 0.002228 0.000962 0.000000
# 3 -0.005164 -0.005164 0.033002 0.000000 0.000000 0.000000
# 4 -0.002228 0.002228 0.000000 0.034037 0.000000 0.001923
# 5 -0.000962 0.000962 0.000000 0.000000 0.034037 -0.004457
# 6 0.000000 0.000000 0.000000 0.001923 -0.004457 0.026987
#
#
# Mechanical properties :
#
#
# Convention : Reuss Voigt Hill
#
# Bulk Modulus (GPa) = 36.11189 52.43694 44.27442
# Shear Modulus (GPa) = 27.03631 31.89136 29.46383
#
# Velocity S-wave (km/s) = 3.57307 3.88065 3.73003
# Velocity P-wave (km/s) = 5.83736 6.69630 6.28153
#
# Compressibility (1/GPa) = 0.02769171
#
# Stress axis : x y z
#
# Youngs Moduli (GPa) = 94.48894 94.48894 30.30113
#
# Poissons Ratio (x) = 0.27500 0.15648
# Poissons Ratio (y) = 0.27500 0.15648
# Poissons Ratio (z) = 0.48795 0.48795
#
# Static dielectric constant tensor:
#      x y z
#    x 1.800500 0.000000 0.000000 
#    y 0.000000 1.800500 0.000000 
#    z 0.000000 0.000000 1.765640 
# 
# From -- ./inp_files/443.got.cif
#   From: 2010.05.17/outbox.cif.g08.bks.cpg/sg145_cif.got.tgz:443.got - 2010.05.20 13:47:28.
