data_PCOD9574900
_publ_section_title
;
Structure prediction by ZEFSAII (Michael W. Deem and Ramdas Pophale) SiO2 
 PCOD9574900
Probable space group: P -3
;
_chemical_formula_sum "Si O2"
_cell_formula_units_Z 30
_cell_length_a 12.661860
_cell_length_b 12.661860
_cell_length_c 13.051985
_cell_angle_alpha 90.000000
_cell_angle_beta 90.000000
_cell_angle_gamma 120.000000
_cell_volume 1812.183669
_symmetry_space_group_name_H-M "P -3"
_symmetry_group_IT_number 147
_symmetry_cell_setting 'hexagonal'
loop_
_space_group_symop_operation_xyz
x,y,z
-y,x-y,z
-x+y,-x,z
-x,-y,-z
y,-x+y,-z
x-y,x,-z
loop_
_atom_site_type_symbol
_atom_site_label
_atom_site_fract_x
_atom_site_fract_y
_atom_site_fract_z
Si Si1 0.917786 0.333710 0.400763
Si Si2 0.082234 0.415463 0.200598
Si Si3 0.082234 0.666770 0.200596
Si Si4 0.666289 0.082214 0.400761
Si Si5 0.251102 0.000001 0.000001
O O1 0.795122 0.204878 0.400834
O O2 0.888038 0.444019 0.404105
O O3 0.996633 0.353543 0.298721
O O4 0.999999 0.350880 0.500002
O O5 0.096536 0.548267 0.187988
O O6 0.213235 0.426469 0.216588
O O7 0.023242 0.334696 0.099529
O O8 0.996630 0.643088 0.298718
O O9 0.023244 0.688545 0.099526
O O10 0.119394 0.880607 0.985282
#
# Coordination Sequence:
#
# PCOD9574900 Si02
#       5
#     6   6   6   6   6
#     4  10  20  34  53  76 102 132 166 205 249 297
#     4  10  20  34  53  76 102 132 167 208 253 299
#     4  10  20  34  53  76 102 132 167 208 253 299
#     4  10  20  34  53  76 102 132 166 205 249 297
#     4  10  20  34  52  74 102 136 172 208 248 296
#
# _framework density 16.554614999999998
#
# number of rings (size 3 to 8) (size 9 to 14) (size 15 to 20)
#    0.000    2.000    0.000    4.000    0.000    0.000 
#    0.000    4.000    0.000   22.400    0.000    0.000 
#    0.000    0.000    0.000    0.000    0.000    0.000 
#
# Total GULP energy -167512.722236 kJ/mol
# GULP energy per Si atom -5583.757408 kJ/mol
# Density = 1.651694 g / cm^3
# Si number density = 16.554615 Si / 1000 Ang^3
#
#
#
# Elastic Constant Matrix: (Units=GPa)
#
#
# Indices 1 2 3 4 5 6 
#
# 1 151.3798 110.7985 106.8897 4.3290 -0.0002 0.0000
# 2 110.7985 151.3798 106.8897 -4.3290 0.0002 0.0000
# 3 106.8897 106.8897 156.3078 0.0000 0.0000 0.0000
# 4 4.3290 -4.3290 0.0000 22.9117 0.0000 0.0002
# 5 -0.0002 0.0002 0.0000 0.0000 22.9117 4.3290
# 6 0.0000 0.0000 0.0000 0.0002 4.3290 20.2906
#
#
#
# Elastic Compliance Matrix: (Units=1/GPa)
#
#
# Indices 1 2 3 4 5 6 
#
# 1 0.017149 -0.008528 -0.005896 -0.004851 0.000000 0.000000
# 2 -0.008528 0.017149 -0.005896 0.004851 0.000000 0.000000
# 3 -0.005896 -0.005896 0.014461 0.000000 0.000000 0.000000
# 4 -0.004851 0.004851 0.000000 0.045479 0.000000 -0.000001
# 5 0.000000 0.000000 0.000000 0.000000 0.045479 -0.009703
# 6 0.000000 0.000000 0.000000 -0.000001 -0.009703 0.051354
#
#
# Mechanical properties :
#
#
# Convention : Reuss Voigt Hill
#
# Bulk Modulus (GPa) = 123.13438 123.13595 123.13517
# Shear Modulus (GPa) = 21.32946 22.18879 21.75913
#
# Velocity S-wave (km/s) = 3.59336 3.66504 3.62938
# Velocity P-wave (km/s) = 9.57907 9.61525 9.59718
#
# Compressibility (1/GPa) = 0.00812121
#
# Stress axis : x y z
#
# Youngs Moduli (GPa) = 58.31142 58.31142 69.15027
#
# Poissons Ratio (x) = 0.49726 0.40770
# Poissons Ratio (y) = 0.49726 0.40770
# Poissons Ratio (z) = 0.34379 0.34379
#
# Static dielectric constant tensor:
#      x y z
#    x 1.523650 0.000000 0.000000 
#    y 0.000000 1.523650 0.000000 
#    z 0.000000 0.000000 1.536560 
# 
# From -- ./inp_files/904.got.cif
#   From: 2010.05.17/outbox.cif.g08.bks.cpg/sg147_cif.got.tgz:904.got - 2010.05.20 13:49:32.
