data_PCOD9574539
_publ_section_title
;
Structure prediction by ZEFSAII (Michael W. Deem and Ramdas Pophale) SiO2 
 PCOD9574539
Probable space group: P 32
;
_chemical_formula_sum "Si O2"
_cell_formula_units_Z 24
_cell_length_a 14.202868
_cell_length_b 14.202868
_cell_length_c 6.254391
_cell_angle_alpha 90.000000
_cell_angle_beta 90.000000
_cell_angle_gamma 120.000000
_cell_volume 1092.616517
_symmetry_space_group_name_H-M "P 32"
_symmetry_group_IT_number 145
_symmetry_cell_setting 'hexagonal'
loop_
_space_group_symop_operation_xyz
x,y,z
-y,x-y,2/3+z
-x+y,-x,1/3+z
loop_
_atom_site_type_symbol
_atom_site_label
_atom_site_fract_x
_atom_site_fract_y
_atom_site_fract_z
Si Si1 0.335608 0.574560 0.357570
Si Si2 0.946858 0.400090 0.909997
Si Si3 0.143515 0.264673 0.775674
Si Si4 0.344863 0.166751 0.483726
Si Si5 0.967542 0.295890 0.524135
Si Si6 0.106391 0.061693 0.519228
Si Si7 0.606078 0.739502 0.799447
Si Si8 0.370913 0.392269 0.538447
O O1 0.408972 0.688810 0.236892
O O2 0.241262 0.502384 0.189890
O O3 0.383279 0.494541 0.403498
O O4 0.935405 0.371341 0.659770
O O5 0.951986 0.510531 0.981133
O O6 0.862192 0.289112 0.030678
O O7 0.065844 0.419680 0.964385
O O8 0.034536 0.256796 0.673032
O O9 0.132984 0.151725 0.703834
O O10 0.258843 0.352407 0.668292
O O11 0.153731 0.303701 0.020310
O O12 0.219727 0.078610 0.433109
O O13 0.357079 0.282664 0.432033
O O14 0.347233 0.140581 0.735786
O O15 0.056506 0.355479 0.339059
O O16 0.047434 0.078926 0.316684
#
# Coordination Sequence:
#
# PCOD9574539 Si02
#       8
#     3   3   3   3   3   3   3   3
#     4  12  26  41  65 102 145 182 224 280 344 417
#     4  10  23  42  70  90 133 179 228 285 341 393
#     4  10  22  40  60  97 130 171 219 270 331 400
#     4  10  24  45  66  96 135 174 229 284 336 401
#     4  10  19  43  62  94 131 177 213 279 327 394
#     4  11  24  37  64  97 137 177 221 271 334 410
#     4  10  22  38  65  91 136 178 216 269 340 400
#     4  11  24  46  66 101 135 176 232 278 339 411
#
# _framework density 21.965620000000001
#
# number of rings (size 3 to 8) (size 9 to 14) (size 15 to 20)
#    0.000    1.500    2.500    1.500   10.500    0.000 
#    4.500    1.250    0.000    0.000    0.000    0.000 
#    0.000    0.000    0.000    0.000    0.000    0.000 
#
# Total GULP energy -133771.700908 kJ/mol
# GULP energy per Si atom -5573.820871 kJ/mol
# Density = 2.191563 g / cm^3
# Si number density = 21.965620 Si / 1000 Ang^3
#
#
#
# Elastic Constant Matrix: (Units=GPa)
#
#
# Indices 1 2 3 4 5 6 
#
# 1 97.5605 27.0784 24.3729 -1.6455 -1.2207 0.0000
# 2 27.0784 97.5605 24.3729 1.6455 1.2207 0.0000
# 3 24.3729 24.3729 66.5982 0.0000 0.0000 0.0000
# 4 -1.6455 1.6455 0.0000 24.4344 0.0000 1.2207
# 5 -1.2207 1.2207 0.0000 0.0000 24.4344 -1.6455
# 6 0.0000 0.0000 0.0000 1.2207 -1.6455 35.2410
#
#
#
# Elastic Compliance Matrix: (Units=1/GPa)
#
#
# Indices 1 2 3 4 5 6 
#
# 1 0.011810 -0.002447 -0.003427 0.000960 0.000712 0.000000
# 2 -0.002447 0.011810 -0.003427 -0.000960 -0.000712 0.000000
# 3 -0.003427 -0.003427 0.017524 0.000000 0.000000 0.000000
# 4 0.000960 -0.000960 0.000000 0.041126 0.000000 -0.001425
# 5 0.000712 -0.000712 0.000000 0.000000 0.041126 0.001920
# 6 0.000000 0.000000 0.000000 -0.001425 0.001920 0.028515
#
#
# Mechanical properties :
#
#
# Convention : Reuss Voigt Hill
#
# Bulk Modulus (GPa) = 44.35875 45.92972 45.14424
# Shear Modulus (GPa) = 28.08554 29.21498 28.65026
#
# Velocity S-wave (km/s) = 3.57965 3.65092 3.61546
# Velocity P-wave (km/s) = 6.10931 6.22314 6.16649
#
# Compressibility (1/GPa) = 0.02254346
#
# Stress axis : x y z
#
# Youngs Moduli (GPa) = 84.67098 84.67098 57.06610
#
# Poissons Ratio (x) = 0.20720 0.19555
# Poissons Ratio (y) = 0.20720 0.19555
# Poissons Ratio (z) = 0.29014 0.29014
#
# Static dielectric constant tensor:
#      x y z
#    x 1.863580 0.000000 0.000000 
#    y 0.000000 1.863580 0.000000 
#    z 0.000000 0.000000 1.869680 
# 
# From -- ./inp_files/137.got.cif
#   From: 2010.05.17/outbox.cif.g08.bks.cpg/sg145_cif.got.tgz:137.got - 2010.05.20 13:47:28.
