data_PCOD9574253
_publ_section_title
;
Structure prediction by ZEFSAII (Michael W. Deem and Ramdas Pophale) SiO2 
 PCOD9574253
Probable space group: I 41/A C D
;
_chemical_formula_sum "Si O2"
_cell_formula_units_Z 120
_cell_length_a 21.000000
_cell_length_b 21.000000
_cell_length_c 27.000000
_cell_angle_alpha 90.000000
_cell_angle_beta 90.000000
_cell_angle_gamma 90.000000
_cell_volume 11907.000000
_symmetry_space_group_name_H-M "I 41/A C D"
_symmetry_group_IT_number 142
_space_group.IT_coordinate_system_code '2'
_symmetry_cell_setting 'tetragonal'
loop_
_space_group_symop_operation_xyz
x,y,z
1/4-y,3/4+x,1/4+z
-x,1/2-y,z
1/4+y,1/4-x,3/4+z
x,-y,1/2-z
1/2-x,y,-z
3/4+y,1/4+x,1/4-z
1/4-y,1/4-x,1/4-z
-x,-y,-z
3/4+y,1/4-x,3/4-z
x,1/2+y,-z
3/4-y,3/4+x,1/4-z
-x,y,1/2+z
1/2+x,-y,z
1/4-y,3/4-x,3/4+z
3/4+y,3/4+x,3/4+z
1/2+x,1/2+y,1/2+z
3/4-y,1/4+x,3/4+z
1/2-x,-y,1/2+z
3/4+y,3/4-x,1/4+z
1/2+x,1/2-y,-z
-x,1/2+y,1/2-z
1/4+y,3/4+x,3/4-z
3/4-y,3/4-x,3/4-z
1/2-x,1/2-y,1/2-z
1/4+y,3/4-x,1/4-z
1/2+x,y,1/2-z
1/4-y,1/4+x,3/4-z
1/2-x,1/2+y,z
x,1/2-y,1/2+z
3/4-y,1/4-x,1/4+z
1/4+y,1/4+x,1/4+z
loop_
_atom_site_type_symbol
_atom_site_label
_atom_site_fract_x
_atom_site_fract_y
_atom_site_fract_z
Si Si1 0.403323 0.662920 0.205566
Si Si2 0.967587 0.684484 0.202072
Si Si3 0.552201 0.092493 0.977969
Si Si4 0.669845 0.080156 0.375000
Si Si5 0.603008 0.791853 0.576380
Si Si6 0.732112 0.788356 0.630775
Si Si7 0.428457 0.124358 0.134215
Si Si8 0.212828 0.155152 0.835507
O O1 0.429907 0.641870 0.258689
O O2 0.362227 0.726785 0.219049
O O3 0.369099 0.610361 0.171987
O O4 0.471327 0.675397 0.179576
O O5 0.913348 0.704947 0.162960
O O6 0.000000 0.750000 0.221177
O O7 0.023561 0.645371 0.176946
O O8 0.588181 0.159554 0.968342
O O9 0.566844 0.047838 0.930987
O O10 0.574926 0.055600 0.027872
O O11 0.741439 0.096978 0.355065
O O12 0.571804 0.821804 0.625000
O O13 0.678164 0.789057 0.588674
O O14 0.798663 0.821444 0.619563
O O15 0.750618 0.715815 0.642698
O O16 0.356660 0.147003 0.141464
#
# Coordination Sequence:
#
# PCOD9574253 Si02
#       8
#    32  32  32  16  32  32  32  32
#     4  12  22  38  68 105 136 171 218 291 350 412
#     4  12  22  38  66 101 132 162 221 280 355 401
#     4  11  23  39  71  99 132 178 240 273 349 425
#     4  12  26  44  65  98 144 186 232 275 344 422
#     4  10  21  39  62  99 144 177 222 292 358 416
#     4  11  22  40  67  97 134 179 221 291 351 406
#     4  12  23  42  67  95 135 174 224 286 344 412
#     4  12  24  46  66  97 135 187 228 288 338 425
#
# _framework density 10.078105000000001
#
# number of rings (size 3 to 8) (size 9 to 14) (size 15 to 20)
#    0.000    0.533    5.333    4.800    1.867    1.600 
#    3.600    4.667    0.000    0.000    0.000    0.000 
#    0.000    0.000    0.000    0.000    0.000    0.000 
#
# Total GULP energy -669205.158514 kJ/mol
# GULP energy per Si atom -5576.709654 kJ/mol
# Density = 1.005517 g / cm^3
# Si number density = 10.078105 Si / 1000 Ang^3
#
#
#
# Elastic Constant Matrix: (Units=GPa)
#
#
# Indices 1 2 3 4 5 6 
#
# 1 109.6864 13.6363 31.5830 0.0000 0.0000 0.0000
# 2 13.6363 109.6859 31.5830 0.0000 0.0000 0.0000
# 3 31.5830 31.5830 90.8841 0.0000 0.0000 0.0000
# 4 0.0000 0.0000 0.0000 22.3107 0.0000 0.0000
# 5 0.0000 0.0000 0.0000 0.0000 22.3104 0.0000
# 6 0.0000 0.0000 0.0000 0.0000 0.0000 35.8573
#
#
#
# Elastic Compliance Matrix: (Units=1/GPa)
#
#
# Indices 1 2 3 4 5 6 
#
# 1 0.010138 -0.000273 -0.003428 0.000000 0.000000 0.000000
# 2 -0.000273 0.010138 -0.003428 0.000000 0.000000 0.000000
# 3 -0.003428 -0.003428 0.013386 0.000000 0.000000 0.000000
# 4 0.000000 0.000000 0.000000 0.044822 0.000000 0.000000
# 5 0.000000 0.000000 0.000000 0.000000 0.044822 0.000000
# 6 0.000000 0.000000 0.000000 0.000000 0.000000 0.027888
#
#
# Mechanical properties :
#
#
# Convention : Reuss Voigt Hill
#
# Bulk Modulus (GPa) = 51.53920 51.54011 51.53966
# Shear Modulus (GPa) = 29.08330 31.65928 30.37129
#
# Velocity S-wave (km/s) = 3.80267 3.96750 3.88596
# Velocity P-wave (km/s) = 6.70118 6.82744 6.76460
#
# Compressibility (1/GPa) = 0.01940271
#
# Stress axis : x y z
#
# Youngs Moduli (GPa) = 98.63931 98.63877 74.70721
#
# Poissons Ratio (x) = 0.02696 0.25610
# Poissons Ratio (y) = 0.02696 0.25610
# Poissons Ratio (z) = 0.33814 0.33814
#
# Static dielectric constant tensor:
#      x y z
#    x 1.748330 0.000000 0.000000 
#    y 0.000000 1.748330 0.000000 
#    z 0.000000 0.000000 1.840400 
# 
# From -- ./inp_files/11661.got.cif
#   From: 2010.05.17/outbox.ucp.g08.bks.cvg/sg142_6_cif.got.tgz:11661.got - 2010.06.11 11:43:53.
