data_PCOD9574164
_publ_section_title
;
Structure prediction by ZEFSAII (Michael W. Deem and Ramdas Pophale) SiO2 
 PCOD9574164
Probable space group: I 41/A C D
;
_chemical_formula_sum "Si O2"
_cell_formula_units_Z 160
_cell_length_a 20.464481
_cell_length_b 20.464481
_cell_length_c 18.688841
_cell_angle_alpha 90.000000
_cell_angle_beta 90.000000
_cell_angle_gamma 90.000000
_cell_volume 7826.792841
_symmetry_space_group_name_H-M "I 41/A C D"
_symmetry_group_IT_number 142
_space_group.IT_coordinate_system_code '2'
_symmetry_cell_setting 'tetragonal'
loop_
_space_group_symop_operation_xyz
x,y,z
1/4-y,3/4+x,1/4+z
-x,1/2-y,z
1/4+y,1/4-x,3/4+z
x,-y,1/2-z
1/2-x,y,-z
3/4+y,1/4+x,1/4-z
1/4-y,1/4-x,1/4-z
-x,-y,-z
3/4+y,1/4-x,3/4-z
x,1/2+y,-z
3/4-y,3/4+x,1/4-z
-x,y,1/2+z
1/2+x,-y,z
1/4-y,3/4-x,3/4+z
3/4+y,3/4+x,3/4+z
1/2+x,1/2+y,1/2+z
3/4-y,1/4+x,3/4+z
1/2-x,-y,1/2+z
3/4+y,3/4-x,1/4+z
1/2+x,1/2-y,-z
-x,1/2+y,1/2-z
1/4+y,3/4+x,3/4-z
3/4-y,3/4-x,3/4-z
1/2-x,1/2-y,1/2-z
1/4+y,3/4-x,1/4-z
1/2+x,y,1/2-z
1/4-y,1/4+x,3/4-z
1/2-x,1/2+y,z
x,1/2-y,1/2+z
3/4-y,1/4-x,1/4+z
1/4+y,1/4+x,1/4+z
loop_
_atom_site_type_symbol
_atom_site_label
_atom_site_fract_x
_atom_site_fract_y
_atom_site_fract_z
Si Si1 0.627096 0.308247 0.943708
Si Si2 0.418405 0.205302 0.660778
Si Si3 0.624548 0.432298 0.155305
Si Si4 0.092958 0.582570 0.315735
Si Si5 0.756226 0.591308 0.426265
O O1 0.586277 0.336277 0.875000
O O2 0.651930 0.233986 0.939363
O O3 0.695459 0.348893 0.946575
O O4 0.580629 0.316504 0.014088
O O5 0.467482 0.178771 0.598253
O O6 0.346277 0.187298 0.636793
O O7 0.623530 0.408670 0.237113
O O8 0.614795 0.509985 0.159518
O O9 0.686476 0.403334 0.112110
O O10 0.119542 0.630458 0.375000
O O11 0.750000 0.552645 0.500000
O O12 0.798340 0.548340 0.375000
#
# Coordination Sequence:
#
# PCOD9574164 Si02
#       5
#    32  32  32  32  32
#     4  11  26  46  70 102 141 185 233 292 353 417
#     4  11  24  43  70 106 138 187 234 285 350 422
#     4  11  25  43  72  99 139 183 233 283 354 417
#     4  11  27  45  69 103 140 183 232 296 352 421
#     4  11  25  43  69  99 139 183 230 288 351 419
#
# _framework density 20.442599999999999
#
# number of rings (size 3 to 8) (size 9 to 14) (size 15 to 20)
#    0.000    1.000    4.000    0.600   14.000    0.400 
#    0.000    2.000    0.000    0.000    0.000    0.000 
#    0.000    0.000    0.000    0.000    0.000    0.000 
#
# Total GULP energy -445982.906131 kJ/mol
# GULP energy per Si atom -5574.786327 kJ/mol
# Density = 2.039607 g / cm^3
# Si number density = 20.442600 Si / 1000 Ang^3
#
#
#
# Elastic Constant Matrix: (Units=GPa)
#
#
# Indices 1 2 3 4 5 6 
#
# 1 71.2164 10.6285 50.0053 0.0000 0.0000 0.0000
# 2 10.6285 71.2123 50.0027 0.0000 0.0000 0.0000
# 3 50.0053 50.0027 133.1615 0.0000 0.0000 0.0000
# 4 0.0000 0.0000 0.0000 28.3854 0.0000 0.0000
# 5 0.0000 0.0000 0.0000 0.0000 28.3854 0.0000
# 6 0.0000 0.0000 0.0000 0.0000 0.0000 -4.8898
#
#
#
# Elastic Compliance Matrix: (Units=1/GPa)
#
#
# Indices 1 2 3 4 5 6 
#
# 1 0.019542 0.003037 -0.008479 0.000000 0.000000 0.000000
# 2 0.003037 0.019543 -0.008479 0.000000 0.000000 0.000000
# 3 -0.008479 -0.008479 0.013878 0.000000 0.000000 0.000000
# 4 0.000000 0.000000 0.000000 0.035229 0.000000 0.000000
# 5 0.000000 0.000000 0.000000 0.000000 0.035229 0.000000
# 6 0.000000 0.000000 0.000000 0.000000 0.000000 -0.204508
#
#
# Mechanical properties :
#
#
# Convention : Reuss Voigt Hill
#
# Bulk Modulus (GPa) = 39.80776 55.20700 47.50738
# Shear Modulus (GPa) = -111.42747 21.37311 -45.02718
#
# Velocity S-wave (km/s) = -7.39093 3.23696 -4.69829
# Velocity P-wave (km/s) = 7.30200 6.40586 2.47833
#
# Compressibility (1/GPa) = 0.02512073
#
# Stress axis : x y z
#
# Youngs Moduli (GPa) = 51.17191 51.16980 72.05900
#
# Poissons Ratio (x) = -0.15540 0.61098
# Poissons Ratio (y) = -0.15540 0.61098
# Poissons Ratio (z) = 0.43388 0.43386
#
# Static dielectric constant tensor:
#      x y z
#    x 1.727350 0.000000 0.000000 
#    y 0.000000 1.727350 0.000000 
#    z 0.000000 0.000000 1.707740 
# 
# From -- ./inp_files/7389.got.cif
#   From: 2010.05.17/outbox.cif.g08.bks.cpg/sg142_4_cif.got.tgz:7389.got - 2010.05.20 13:39:18.
