data_PCOD9574714
_publ_section_title
;
Structure prediction by ZEFSAII (Michael W. Deem and Ramdas Pophale) SiO2 
 PCOD9574714
Probable space group: R 3
;
_chemical_formula_sum "Si O2"
_cell_formula_units_Z 63
_cell_length_a 16.970030
_cell_length_b 16.970030
_cell_length_c 11.537373
_cell_angle_alpha 90.000000
_cell_angle_beta 90.000000
_cell_angle_gamma 120.000000
_cell_volume 2877.416869
_symmetry_space_group_name_H-M "R 3"
_symmetry_group_IT_number 146
_symmetry_cell_setting 'hexagonal'
loop_
_space_group_symop_operation_xyz
x,y,z
-y,x-y,z
-x+y,-x,z
2/3+x,1/3+y,1/3+z
2/3-y,1/3+x-y,1/3+z
2/3-x+y,1/3-x,1/3+z
1/3+x,2/3+y,2/3+z
1/3-y,2/3+x-y,2/3+z
1/3-x+y,2/3-x,2/3+z
loop_
_atom_site_type_symbol
_atom_site_label
_atom_site_fract_x
_atom_site_fract_y
_atom_site_fract_z
Si Si1 0.830355 0.219250 0.644840
Si Si2 0.651421 0.721335 0.078048
Si Si3 0.235525 0.463495 0.403075
Si Si4 0.805406 0.005105 0.167423
Si Si5 0.776541 0.231764 0.048187
Si Si6 0.778656 0.143806 0.281290
Si Si7 0.568464 0.490548 0.329654
O O1 0.899353 0.251300 0.535595
O O2 0.823668 0.126964 0.690598
O O3 0.733689 0.202220 0.595846
O O4 0.891348 0.293069 0.741974
O O5 0.740663 0.724364 0.021949
O O6 0.633327 0.788216 0.998824
O O7 0.337790 0.530301 0.363780
O O8 0.167539 0.496230 0.355332
O O9 0.221321 0.459463 0.542409
O O10 0.748156 0.048261 0.222077
O O11 0.891285 0.091911 0.105734
O O12 0.754675 0.946344 0.055460
O O13 0.784268 0.213743 0.184743
O O14 0.814013 0.170789 0.990887
#
# Coordination Sequence:
#
# PCOD9574714 Si02
#       7
#     9   9   9   9   9   9   9
#     4  11  24  39  66  98 133 178 228 279 346 409
#     4  11  21  44  68  96 130 176 230 276 331 419
#     4  12  24  41  63  96 130 178 219 283 345 413
#     4  10  23  37  58  97 132 163 215 281 341 395
#     4  11  23  38  62  93 128 169 219 276 337 410
#     4  10  21  39  63  91 130 169 218 280 336 401
#     4  11  22  40  70  93 133 175 225 285 344 401
#
# _framework density 21.894639000000002
#
# number of rings (size 3 to 8) (size 9 to 14) (size 15 to 20)
#    0.000    1.143    4.286    2.857    4.000    0.000 
#    2.571    0.000    0.000    8.000    0.000    0.000 
#    0.000    0.000    0.000    0.000    0.000    0.000 
#
# Total GULP energy -117156.094198 kJ/mol
# GULP energy per Si atom -5578.861628 kJ/mol
# Density = 2.184481 g / cm^3
# Si number density = 21.894639 Si / 1000 Ang^3
#
#
#
# Elastic Constant Matrix: (Units=GPa)
#
#
# Indices 1 2 3 4 5 6 
#
# 1 64.2988 18.9174 3.5305 6.6482 4.5830 0.0000
# 2 18.9174 64.2988 3.5305 -6.6482 -4.5830 0.0000
# 3 3.5305 3.5305 38.2788 0.0000 0.0000 0.0000
# 4 6.6482 -6.6482 0.0000 27.8040 0.0000 -4.5830
# 5 4.5830 -4.5830 0.0000 0.0000 27.8040 6.6482
# 6 0.0000 0.0000 0.0000 -4.5830 6.6482 22.6907
#
#
#
# Elastic Compliance Matrix: (Units=1/GPa)
#
#
# Indices 1 2 3 4 5 6 
#
# 1 0.018343 -0.006232 -0.001117 -0.005876 -0.004051 0.000000
# 2 -0.006232 0.018343 -0.001117 0.005876 0.004051 0.000000
# 3 -0.001117 -0.001117 0.026330 0.000000 0.000000 0.000000
# 4 -0.005876 0.005876 0.000000 0.040112 0.000000 0.008102
# 5 -0.004051 0.004051 0.000000 0.000000 0.040112 -0.011752
# 6 0.000000 0.000000 0.000000 0.008102 -0.011752 0.049151
#
#
# Mechanical properties :
#
#
# Convention : Reuss Voigt Hill
#
# Bulk Modulus (GPa) = 21.69892 24.31480 23.00686
# Shear Modulus (GPa) = 22.25342 25.05295 23.65319
#
# Velocity S-wave (km/s) = 3.19154 3.38635 3.29039
# Velocity P-wave (km/s) = 4.84906 5.13997 4.99663
#
# Compressibility (1/GPa) = 0.04608524
#
# Stress axis : x y z
#
# Youngs Moduli (GPa) = 54.51526 54.51526 37.97918
#
# Poissons Ratio (x) = 0.33973 0.04243
# Poissons Ratio (y) = 0.33973 0.04243
# Poissons Ratio (z) = 0.06090 0.06090
#
# Static dielectric constant tensor:
#      x y z
#    x 1.836330 0.000000 0.000000 
#    y 0.000000 1.836330 0.000000 
#    z 0.000000 0.000000 1.828430 
# 
# From -- ./inp_files/1218.got.cif
#   From: 2010.05.17/outbox.cif.g08.bks.cpg/sg146_cif.got.tgz:1218.got - 2010.05.20 13:48:23.
