data_PCOD9574944
_publ_section_title
;
Structure prediction by ZEFSAII (Michael W. Deem and Ramdas Pophale) SiO2 
 PCOD9574944
Probable space group: P -3
;
_chemical_formula_sum "Si O2"
_cell_formula_units_Z 36
_cell_length_a 11.322812
_cell_length_b 11.322812
_cell_length_c 15.110214
_cell_angle_alpha 90.000000
_cell_angle_beta 90.000000
_cell_angle_gamma 120.000000
_cell_volume 1677.682753
_symmetry_space_group_name_H-M "P -3"
_symmetry_group_IT_number 147
_symmetry_cell_setting 'hexagonal'
loop_
_space_group_symop_operation_xyz
x,y,z
-y,x-y,z
-x+y,-x,z
-x,-y,-z
y,-x+y,-z
x-y,x,-z
loop_
_atom_site_type_symbol
_atom_site_label
_atom_site_fract_x
_atom_site_fract_y
_atom_site_fract_z
Si Si1 0.265041 0.031776 0.738680
Si Si2 0.041523 0.418950 0.392101
Si Si3 0.246658 0.306101 0.986264
Si Si4 0.712240 0.612573 0.562876
Si Si5 0.486177 0.824236 0.143164
Si Si6 0.258843 0.291645 0.787785
O O1 0.263918 0.042153 0.632714
O O2 0.419652 0.094812 0.774414
O O3 0.221603 0.133125 0.784473
O O4 0.171820 0.878307 0.766402
O O5 0.193970 0.454335 0.419638
O O6 0.036742 0.555621 0.407875
O O7 0.942546 0.300876 0.460855
O O8 0.004402 0.363752 0.292840
O O9 0.298066 0.349109 0.886298
O O10 0.264154 0.176724 0.009677
O O11 0.326112 0.428083 0.056080
O O12 0.331001 0.791190 0.145405
#
# Coordination Sequence:
#
# PCOD9574944 Si02
#       6
#     6   6   6   6   6   6
#     4  11  22  40  66  94 130 163 217 274 323 396
#     4  10  22  40  63  94 131 167 224 257 330 386
#     4  12  22  41  64  95 125 169 214 278 331 394
#     4  10  22  38  62  92 124 174 205 272 309 392
#     4  10  25  42  60  93 126 172 225 266 325 400
#     4  11  22  39  63  96 120 168 210 271 330 379
#
# _framework density 21.458169999999999
#
# number of rings (size 3 to 8) (size 9 to 14) (size 15 to 20)
#    0.333    1.000    3.333    1.833    4.667    0.667 
#    3.000    0.000    0.000    6.000    0.000    0.000 
#    0.000    0.000    0.000    0.000    0.000    0.000 
#
# Total GULP energy -201044.499671 kJ/mol
# GULP energy per Si atom -5584.569435 kJ/mol
# Density = 2.140933 g / cm^3
# Si number density = 21.458170 Si / 1000 Ang^3
#
#
#
# Elastic Constant Matrix: (Units=GPa)
#
#
# Indices 1 2 3 4 5 6 
#
# 1 52.4706 14.1796 23.0053 5.3393 3.5475 0.0000
# 2 14.1796 52.4706 23.0053 -5.3393 -3.5475 0.0000
# 3 23.0053 23.0053 166.3317 0.0000 0.0000 0.0000
# 4 5.3393 -5.3393 0.0000 25.6320 0.0000 -3.5475
# 5 3.5475 -3.5475 0.0000 0.0000 25.6320 5.3393
# 6 0.0000 0.0000 0.0000 -3.5475 5.3393 19.1455
#
#
#
# Elastic Compliance Matrix: (Units=1/GPa)
#
#
# Indices 1 2 3 4 5 6 
#
# 1 0.022545 -0.005958 -0.002294 -0.005937 -0.003945 0.000000
# 2 -0.005958 0.022545 -0.002294 0.005937 0.003945 0.000000
# 3 -0.002294 -0.002294 0.006647 0.000000 0.000000 0.000000
# 4 -0.005937 0.005937 0.000000 0.042579 0.000000 0.007890
# 5 -0.003945 0.003945 0.000000 0.000000 0.042579 -0.011874
# 6 0.000000 0.000000 0.000000 0.007890 -0.011874 0.057005
#
#
# Mechanical properties :
#
#
# Convention : Reuss Voigt Hill
#
# Bulk Modulus (GPa) = 32.63198 43.51705 38.07452
# Shear Modulus (GPa) = 22.20181 28.15408 25.17794
#
# Velocity S-wave (km/s) = 3.22010 3.62615 3.42914
# Velocity P-wave (km/s) = 5.39125 6.15271 5.78453
#
# Compressibility (1/GPa) = 0.03064478
#
# Stress axis : x y z
#
# Youngs Moduli (GPa) = 44.35574 44.35574 150.45044
#
# Poissons Ratio (x) = 0.26425 0.34516
# Poissons Ratio (y) = 0.26425 0.34516
# Poissons Ratio (z) = 0.10176 0.10176
#
# Static dielectric constant tensor:
#      x y z
#    x 1.791910 0.000000 0.000000 
#    y 0.000000 1.791910 0.000000 
#    z 0.000000 0.000000 1.797770 
# 
# From -- ./inp_files/935.got.cif
#   From: 2010.05.17/outbox.cif.g08.bks.cpg/sg147_cif.got.tgz:935.got - 2010.05.20 13:49:32.
