data_PCOD9574924
_publ_section_title
;
Structure prediction by ZEFSAII (Michael W. Deem and Ramdas Pophale) SiO2 
 PCOD9574924
Probable space group: P -3
;
_chemical_formula_sum "Si O2"
_cell_formula_units_Z 48
_cell_length_a 15.085215
_cell_length_b 15.085215
_cell_length_c 12.156614
_cell_angle_alpha 90.000000
_cell_angle_beta 90.000000
_cell_angle_gamma 120.000000
_cell_volume 2395.776316
_symmetry_space_group_name_H-M "P -3"
_symmetry_group_IT_number 147
_symmetry_cell_setting 'hexagonal'
loop_
_space_group_symop_operation_xyz
x,y,z
-y,x-y,z
-x+y,-x,z
-x,-y,-z
y,-x+y,-z
x-y,x,-z
loop_
_atom_site_type_symbol
_atom_site_label
_atom_site_fract_x
_atom_site_fract_y
_atom_site_fract_z
Si Si1 0.072157 0.690256 0.658144
Si Si2 0.143646 0.360613 0.810729
Si Si3 0.091902 0.241651 0.020704
Si Si4 0.482067 0.126285 0.684215
Si Si5 0.081810 0.793207 0.233491
Si Si6 0.238799 0.086619 0.517213
Si Si7 0.843166 0.523919 0.607923
Si Si8 0.502201 0.606000 0.637993
O O1 0.116653 0.754993 0.769446
O O2 0.111114 0.778902 0.565137
O O3 0.110319 0.606991 0.655801
O O4 0.950400 0.624237 0.638164
O O5 0.129510 0.342060 0.942634
O O6 0.139986 0.451965 0.739852
O O7 0.040201 0.256695 0.776493
O O8 0.161382 0.190088 0.990318
O O9 0.120069 0.268224 0.147732
O O10 0.404481 0.103726 0.784603
O O11 0.480516 0.217506 0.622068
O O12 0.598919 0.157885 0.692966
O O13 0.431324 0.016888 0.623105
O O14 0.104318 0.829633 0.357576
O O15 0.188962 0.156066 0.492718
O O16 0.848101 0.497908 0.480333
#
# Coordination Sequence:
#
# PCOD9574924 Si02
#       8
#     6   6   6   6   6   6   6   6
#     4  11  22  39  61  89 121 169 207 248 326 380
#     4  10  22  41  60  89 122 160 213 268 310 367
#     4  10  23  40  65  94 124 171 219 260 305 371
#     4  10  21  37  53  88 119 159 203 254 313 374
#     4  10  21  39  63  85 130 169 209 262 307 376
#     4  12  24  36  58  95 137 171 203 249 311 386
#     4  11  22  33  59  87 129 159 204 251 316 388
#     4  10  23  37  59  86 124 162 205 268 313 378
#
# _framework density 20.035257999999999
#
# number of rings (size 3 to 8) (size 9 to 14) (size 15 to 20)
#    0.000    1.500    1.250    5.000    8.750    0.000 
#    0.750    0.000    2.750    3.000    0.000    0.000 
#    0.000    0.000    0.000    0.000    0.000    0.000 
#
# Total GULP energy -267504.856528 kJ/mol
# GULP energy per Si atom -5573.017844 kJ/mol
# Density = 1.998966 g / cm^3
# Si number density = 20.035258 Si / 1000 Ang^3
#
#
#
# Elastic Constant Matrix: (Units=GPa)
#
#
# Indices 1 2 3 4 5 6 
#
# 1 85.8294 30.2277 17.8396 0.7502 -6.6191 0.0000
# 2 30.2277 85.8294 17.8396 -0.7502 6.6191 0.0000
# 3 17.8396 17.8396 54.2839 0.0000 0.0000 0.0000
# 4 0.7502 -0.7502 0.0000 23.0389 0.0000 6.6191
# 5 -6.6191 6.6191 0.0000 0.0000 23.0389 0.7502
# 6 0.0000 0.0000 0.0000 6.6191 0.7502 27.8008
#
#
#
# Elastic Compliance Matrix: (Units=1/GPa)
#
#
# Indices 1 2 3 4 5 6 
#
# 1 0.014454 -0.004870 -0.003150 -0.000629 0.005552 0.000000
# 2 -0.004870 0.014454 -0.003150 0.000629 -0.005552 0.000000
# 3 -0.003150 -0.003150 0.020492 0.000000 0.000000 0.000000
# 4 -0.000629 0.000629 0.000000 0.046636 0.000000 -0.011104
# 5 0.005552 -0.005552 0.000000 0.000000 0.046636 -0.001259
# 6 0.000000 0.000000 0.000000 -0.011104 -0.001259 0.038648
#
#
# Mechanical properties :
#
#
# Convention : Reuss Voigt Hill
#
# Bulk Modulus (GPa) = 36.95214 39.75070 38.35142
# Shear Modulus (GPa) = 23.50955 25.44478 24.47716
#
# Velocity S-wave (km/s) = 3.42922 3.56757 3.49908
# Velocity P-wave (km/s) = 5.84491 6.07071 5.95888
#
# Compressibility (1/GPa) = 0.02706203
#
# Stress axis : x y z
#
# Youngs Moduli (GPa) = 69.18335 69.18335 48.79953
#
# Poissons Ratio (x) = 0.33689 0.15371
# Poissons Ratio (y) = 0.33689 0.15371
# Poissons Ratio (z) = 0.21792 0.21792
#
# Static dielectric constant tensor:
#      x y z
#    x 1.760940 0.000000 0.000000 
#    y 0.000000 1.760940 0.000000 
#    z 0.000000 0.000000 1.725460 
# 
# From -- ./inp_files/865.got.cif
#   From: 2010.05.17/outbox.cif.g08.bks.cpg/sg147_cif.got.tgz:865.got - 2010.05.20 13:49:32.
