data_PCOD9574632
_publ_section_title
;
Structure prediction by ZEFSAII (Michael W. Deem and Ramdas Pophale) SiO2 
 PCOD9574632
Probable space group: P 32
;
_chemical_formula_sum "Si O2"
_cell_formula_units_Z 18
_cell_length_a 7.819905
_cell_length_b 7.819905
_cell_length_c 12.470490
_cell_angle_alpha 90.000000
_cell_angle_beta 90.000000
_cell_angle_gamma 120.000000
_cell_volume 660.415267
_symmetry_space_group_name_H-M "P 32"
_symmetry_group_IT_number 145
_symmetry_cell_setting 'hexagonal'
loop_
_space_group_symop_operation_xyz
x,y,z
-y,x-y,2/3+z
-x+y,-x,1/3+z
loop_
_atom_site_type_symbol
_atom_site_label
_atom_site_fract_x
_atom_site_fract_y
_atom_site_fract_z
Si Si1 0.613069 0.949589 0.228350
Si Si2 0.988129 0.047683 0.426019
Si Si3 0.699938 0.822443 0.874525
Si Si4 0.428577 0.913348 0.025173
Si Si5 0.618194 0.040896 0.522977
Si Si6 0.727868 0.347230 0.359844
O O1 0.778599 0.970800 0.144288
O O2 0.598678 0.791913 0.314303
O O3 0.645696 0.147407 0.286800
O O4 0.424477 0.854166 0.149609
O O5 0.000046 0.143140 0.308393
O O6 0.792427 0.997216 0.494497
O O7 0.027067 0.867350 0.449393
O O8 0.546463 0.861505 0.938246
O O9 0.563179 0.608569 0.817451
O O10 0.549677 0.148226 0.030533
O O11 0.731865 0.265753 0.476104
O O12 0.575031 0.062739 0.646844
#
# Coordination Sequence:
#
# PCOD9574632 Si02
#       6
#     3   3   3   3   3   3
#     4  11  24  45  74 105 144 187 247 300 356 449
#     4  11  22  46  71 103 144 187 241 299 365 443
#     4  11  25  47  67 106 147 181 241 308 355 442
#     4  11  26  46  71 107 146 184 242 306 361 433
#     4  12  22  42  75 101 139 197 240 295 373 434
#     4  12  23  46  74 100 142 196 241 298 372 431
#
# _framework density 27.255576000000001
#
# number of rings (size 3 to 8) (size 9 to 14) (size 15 to 20)
#    0.000    0.667    6.667    1.000    2.333    1.333 
#   12.000    0.000    0.000    0.000    0.000    0.000 
#    0.000    0.000    0.000    0.000    0.000    0.000 
#
# Total GULP energy -100442.137200 kJ/mol
# GULP energy per Si atom -5580.118733 kJ/mol
# Density = 2.719354 g / cm^3
# Si number density = 27.255576 Si / 1000 Ang^3
#
#
#
# Elastic Constant Matrix: (Units=GPa)
#
#
# Indices 1 2 3 4 5 6 
#
# 1 118.6171 45.8977 17.8267 -0.8164 5.2308 0.0000
# 2 45.8977 118.6171 17.8267 0.8164 -5.2308 0.0000
# 3 17.8267 17.8267 75.9312 0.0000 0.0000 0.0000
# 4 -0.8164 0.8164 0.0000 41.5429 0.0000 -5.2308
# 5 5.2308 -5.2308 0.0000 0.0000 41.5429 -0.8164
# 6 0.0000 0.0000 0.0000 -5.2308 -0.8164 36.3597
#
#
#
# Elastic Compliance Matrix: (Units=1/GPa)
#
#
# Indices 1 2 3 4 5 6 
#
# 1 0.010208 -0.003804 -0.001504 0.000275 -0.001764 0.000000
# 2 -0.003804 0.010208 -0.001504 -0.000275 0.001764 0.000000
# 3 -0.001504 -0.001504 0.013876 0.000000 0.000000 0.000000
# 4 0.000275 -0.000275 0.000000 0.024527 0.000000 0.003528
# 5 -0.001764 0.001764 0.000000 0.000000 0.024527 0.000551
# 6 0.000000 0.000000 0.000000 0.003528 0.000551 0.028023
#
#
# Mechanical properties :
#
#
# Convention : Reuss Voigt Hill
#
# Bulk Modulus (GPa) = 48.37885 52.91862 50.64873
# Shear Modulus (GPa) = 37.91344 39.33005 38.62175
#
# Velocity S-wave (km/s) = 3.73370 3.80282 3.76842
# Velocity P-wave (km/s) = 6.03125 6.22413 6.12845
#
# Compressibility (1/GPa) = 0.02067019
#
# Stress axis : x y z
#
# Youngs Moduli (GPa) = 97.96324 97.96324 72.06787
#
# Poissons Ratio (x) = 0.37261 0.10836
# Poissons Ratio (y) = 0.37261 0.10836
# Poissons Ratio (z) = 0.14729 0.14729
#
# Static dielectric constant tensor:
#      x y z
#    x 2.249650 0.000000 0.000000 
#    y 0.000000 2.249650 0.000000 
#    z 0.000000 0.000000 2.239980 
# 
# From -- ./inp_files/584.got.cif
#   From: 2010.05.17/outbox.cif.g08.bks.cpg/sg145_cif.got.tgz:584.got - 2010.05.20 13:47:28.
