data_PCOD9574945
_publ_section_title
;
Structure prediction by ZEFSAII (Michael W. Deem and Ramdas Pophale) SiO2 
 PCOD9574945
Probable space group: P -3
;
_chemical_formula_sum "Si O2"
_cell_formula_units_Z 24
_cell_length_a 14.230622
_cell_length_b 14.230622
_cell_length_c 5.243006
_cell_angle_alpha 90.000000
_cell_angle_beta 90.000000
_cell_angle_gamma 120.000000
_cell_volume 919.514860
_symmetry_space_group_name_H-M "P -3"
_symmetry_group_IT_number 147
_symmetry_cell_setting 'hexagonal'
loop_
_space_group_symop_operation_xyz
x,y,z
-y,x-y,z
-x+y,-x,z
-x,-y,-z
y,-x+y,-z
x-y,x,-z
loop_
_atom_site_type_symbol
_atom_site_label
_atom_site_fract_x
_atom_site_fract_y
_atom_site_fract_z
Si Si1 0.604266 0.670511 0.863057
Si Si2 0.292856 0.469800 0.670615
Si Si3 0.555775 0.130109 0.806461
Si Si4 0.967133 0.201885 0.544538
O O1 0.556880 0.727657 0.689357
O O2 0.558396 0.547982 0.772566
O O3 0.733176 0.733392 0.816154
O O4 0.542761 0.657114 0.129890
O O5 0.356171 0.547418 0.436755
O O6 0.270622 0.346999 0.616396
O O7 0.352056 0.523456 0.936635
O O8 0.077689 0.208497 0.443515
#
# Coordination Sequence:
#
# PCOD9574945 Si02
#       4
#     6   6   6   6
#     4   9  21  39  63  94 132 175 227 281 338 407
#     4  10  22  39  63  95 130 176 226 281 340 402
#     4  10  22  39  63  93 128 176 222 278 346 401
#     4   9  18  35  61  96 136 180 227 279 337 407
#
# _framework density 26.100721
#
# number of rings (size 3 to 8) (size 9 to 14) (size 15 to 20)
#    0.000    2.500    0.000    0.250    0.000   19.000 
#    1.500    0.000    0.000    0.000    0.000   33.250 
#    2.500    0.000    0.000    5.750    0.000    1.000 
#
# Total GULP energy -134161.044361 kJ/mol
# GULP energy per Si atom -5590.043515 kJ/mol
# Density = 2.604131 g / cm^3
# Si number density = 26.100721 Si / 1000 Ang^3
#
#
#
# Elastic Constant Matrix: (Units=GPa)
#
#
# Indices 1 2 3 4 5 6 
#
# 1 136.7654 47.9982 59.3350 0.9681 -3.2987 0.0000
# 2 47.9982 136.7654 59.3350 -0.9681 3.2987 0.0000
# 3 59.3350 59.3350 177.5675 0.0000 0.0000 0.0000
# 4 0.9681 -0.9681 0.0000 31.3855 0.0000 3.2987
# 5 -3.2987 3.2987 0.0000 0.0000 31.3855 0.9681
# 6 0.0000 0.0000 0.0000 3.2987 0.9681 44.3836
#
#
#
# Elastic Compliance Matrix: (Units=1/GPa)
#
#
# Indices 1 2 3 4 5 6 
#
# 1 0.009127 -0.002235 -0.002303 -0.000350 0.001194 0.000000
# 2 -0.002235 0.009127 -0.002303 0.000350 -0.001194 0.000000
# 3 -0.002303 -0.002303 0.007171 0.000000 0.000000 0.000000
# 4 -0.000350 0.000350 0.000000 0.032135 0.000000 -0.002388
# 5 0.001194 -0.001194 0.000000 0.000000 0.032135 -0.000701
# 6 0.000000 0.000000 0.000000 -0.002388 -0.000701 0.022724
#
#
# Mechanical properties :
#
#
# Convention : Reuss Voigt Hill
#
# Bulk Modulus (GPa) = 85.16274 87.15938 86.16106
# Shear Modulus (GPa) = 38.45796 40.39292 39.42544
#
# Velocity S-wave (km/s) = 3.84271 3.93820 3.89075
# Velocity P-wave (km/s) = 7.23795 7.35834 7.29839
#
# Compressibility (1/GPa) = 0.01174222
#
# Stress axis : x y z
#
# Youngs Moduli (GPa) = 109.56999 109.56999 139.45780
#
# Poissons Ratio (x) = 0.24491 0.32114
# Poissons Ratio (y) = 0.24491 0.32114
# Poissons Ratio (z) = 0.25232 0.25232
#
# Static dielectric constant tensor:
#      x y z
#    x 2.094200 0.000000 0.000000 
#    y 0.000000 2.094200 0.000000 
#    z 0.000000 0.000000 2.144630 
# 
# From -- ./inp_files/120.got.cif
#   From: 2010.05.17/outbox.cif.g08.bks.cpg/sg147_cif.got.tgz:120.got - 2010.05.20 13:49:32.
