data_PCOD9574652
_publ_section_title
;
Structure prediction by ZEFSAII (Michael W. Deem and Ramdas Pophale) SiO2 
 PCOD9574652
Probable space group: P 32
;
_chemical_formula_sum "Si O2"
_cell_formula_units_Z 18
_cell_length_a 11.908456
_cell_length_b 11.908456
_cell_length_c 6.297128
_cell_angle_alpha 90.000000
_cell_angle_beta 90.000000
_cell_angle_gamma 120.000000
_cell_volume 773.364203
_symmetry_space_group_name_H-M "P 32"
_symmetry_group_IT_number 145
_symmetry_cell_setting 'hexagonal'
loop_
_space_group_symop_operation_xyz
x,y,z
-y,x-y,2/3+z
-x+y,-x,1/3+z
loop_
_atom_site_type_symbol
_atom_site_label
_atom_site_fract_x
_atom_site_fract_y
_atom_site_fract_z
Si Si1 0.980832 0.800474 0.970070
Si Si2 0.186727 0.793504 0.659225
Si Si3 0.853672 0.335905 0.845395
Si Si4 0.868580 0.527727 0.198334
Si Si5 0.477033 0.538143 0.185207
Si Si6 0.025527 0.210040 0.986043
O O1 0.067228 0.777697 0.797917
O O2 0.893244 0.843594 0.839267
O O3 0.077445 0.910489 0.135041
O O4 0.894013 0.660782 0.085066
O O5 0.316741 0.887839 0.781088
O O6 0.171972 0.654677 0.619471
O O7 0.187619 0.856291 0.434913
O O8 0.729365 0.238999 0.711179
O O9 0.950526 0.450617 0.691543
O O10 0.831115 0.407728 0.041658
O O11 0.925134 0.255056 0.908179
O O12 0.999716 0.555556 0.317129
#
# Coordination Sequence:
#
# PCOD9574652 Si02
#       6
#     3   3   3   3   3   3
#     4  12  28  52  77 113 158 206 264 324 397 472
#     4  12  26  48  80 118 156 206 266 328 394 468
#     4  12  28  52  77 113 158 206 264 324 397 472
#     4  12  28  52  77 113 158 206 264 324 397 472
#     4  12  26  48  80 118 156 206 266 328 394 468
#     4  12  28  52  77 113 158 206 264 324 397 472
#
# _framework density 23.274933999999998
#
# number of rings (size 3 to 8) (size 9 to 14) (size 15 to 20)
#    0.000    0.000    6.667    2.000    0.000    5.333 
#    0.000    0.000    0.000    0.000    0.000    0.000 
#    0.000    0.000    0.000    0.000    0.000    0.000 
#
# Total GULP energy -100959.386998 kJ/mol
# GULP energy per Si atom -5608.854833 kJ/mol
# Density = 2.322196 g / cm^3
# Si number density = 23.274934 Si / 1000 Ang^3
#
#
#
# Elastic Constant Matrix: (Units=GPa)
#
#
# Indices 1 2 3 4 5 6 
#
# 1 96.1986 25.6286 35.6864 2.4539 2.1543 0.0000
# 2 25.6286 96.1986 35.6864 -2.4539 -2.1543 0.0000
# 3 35.6864 35.6864 84.9493 0.0000 0.0000 0.0000
# 4 2.4539 -2.4539 0.0000 43.2012 0.0000 -2.1543
# 5 2.1543 -2.1543 0.0000 0.0000 43.2012 2.4539
# 6 0.0000 0.0000 0.0000 -2.1543 2.4539 35.2850
#
#
#
# Elastic Compliance Matrix: (Units=1/GPa)
#
#
# Indices 1 2 3 4 5 6 
#
# 1 0.012579 -0.001691 -0.004574 -0.000811 -0.000712 0.000000
# 2 -0.001691 0.012579 -0.004574 0.000811 0.000712 0.000000
# 3 -0.004574 -0.004574 0.015615 0.000000 0.000000 0.000000
# 4 -0.000811 0.000811 0.000000 0.023311 0.000000 0.001423
# 5 -0.000712 0.000712 0.000000 0.000000 0.023311 -0.001621
# 6 0.000000 0.000000 0.000000 0.001423 -0.001621 0.028540
#
#
# Mechanical properties :
#
#
# Convention : Reuss Voigt Hill
#
# Bulk Modulus (GPa) = 52.37005 52.37217 52.37111
# Shear Modulus (GPa) = 34.72773 36.36048 35.54410
#
# Velocity S-wave (km/s) = 3.86692 3.95678 3.91210
# Velocity P-wave (km/s) = 6.51819 6.58978 6.55408
#
# Compressibility (1/GPa) = 0.01909488
#
# Stress axis : x y z
#
# Youngs Moduli (GPa) = 79.49709 79.49709 64.04228
#
# Poissons Ratio (x) = 0.13443 0.29293
# Poissons Ratio (y) = 0.13443 0.29293
# Poissons Ratio (z) = 0.36362 0.36362
#
# Static dielectric constant tensor:
#      x y z
#    x 1.857230 0.000000 0.000000 
#    y 0.000000 1.857230 0.000000 
#    z 0.000000 0.000000 1.865260 
# 
# From -- ./inp_files/116.got.cif
#   From: 2010.05.17/outbox.cif.g08.bks.cpg/sg145_cif.got.tgz:116.got - 2010.05.20 13:47:28.
