data_PCOD9574273
_publ_section_title
;
Structure prediction by ZEFSAII (Michael W. Deem and Ramdas Pophale) SiO2 
 PCOD9574273
Probable space group: P 3
;
_chemical_formula_sum "Si O2"
_cell_formula_units_Z 18
_cell_length_a 10.881278
_cell_length_b 10.881278
_cell_length_c 8.900859
_cell_angle_alpha 90.000000
_cell_angle_beta 90.000000
_cell_angle_gamma 120.000000
_cell_volume 912.688052
_symmetry_space_group_name_H-M "P 3"
_symmetry_group_IT_number 143
_symmetry_cell_setting 'hexagonal'
loop_
_space_group_symop_operation_xyz
x,y,z
-y,x-y,z
-x+y,-x,z
loop_
_atom_site_type_symbol
_atom_site_label
_atom_site_fract_x
_atom_site_fract_y
_atom_site_fract_z
Si Si1 0.362970 0.087037 0.167320
Si Si2 0.753704 0.696303 0.517749
Si Si3 0.720803 0.943065 0.647941
Si Si4 0.156177 0.348464 0.942682
Si Si5 0.945863 0.555595 0.037128
Si Si6 0.015126 0.489508 0.742388
O O1 0.333333 0.084664 0.342535
O O2 0.393652 0.234152 0.094596
O O3 0.498051 0.065794 0.143180
O O4 0.239392 0.960987 0.070600
O O5 0.732456 0.831380 0.541891
O O6 0.627658 0.572722 0.614471
O O7 0.900822 0.726991 0.590472
O O8 0.561447 0.917406 0.666421
O O9 0.757058 0.914683 0.816367
O O10 0.310710 0.415931 0.018647
O O11 0.116990 0.450324 0.842534
O O12 0.909606 0.490956 0.868704
#
# Coordination Sequence:
#
# PCOD9574273 Si02
#       6
#     3   3   3   3   3   3
#     4  11  25  43  69 104 139 183 223 282 353 402
#     4  11  25  43  69 104 139 183 223 282 353 402
#     4  10  23  45  68  96 142 173 233 281 328 414
#     4   9  22  44  68  97 129 183 234 276 330 405
#     4  10  23  45  68  96 142 173 233 281 328 414
#     4   9  22  44  68  97 129 183 234 276 330 405
#
# _framework density 19.721964
#
# number of rings (size 3 to 8) (size 9 to 14) (size 15 to 20)
#    0.000    2.000    0.000    0.667   18.667    0.000 
#   54.000    0.000    0.000    0.000    0.000    0.000 
#    0.000    0.000    0.000    0.000    0.000    0.000 
#
# Total GULP energy -100411.757716 kJ/mol
# GULP energy per Si atom -5578.430984 kJ/mol
# Density = 1.967708 g / cm^3
# Si number density = 19.721964 Si / 1000 Ang^3
#
#
#
# Elastic Constant Matrix: (Units=GPa)
#
#
# Indices 1 2 3 4 5 6 
#
# 1 102.4967 51.2816 84.9944 11.5609 -0.0004 0.0000
# 2 51.2816 102.4967 84.9944 -11.5609 0.0004 0.0000
# 3 84.9944 84.9944 151.8129 0.0000 0.0000 0.0000
# 4 11.5609 -11.5609 0.0000 28.4094 0.0000 0.0004
# 5 -0.0004 0.0004 0.0000 0.0000 28.4094 11.5609
# 6 0.0000 0.0000 0.0000 0.0004 11.5609 25.6076
#
#
#
# Elastic Compliance Matrix: (Units=1/GPa)
#
#
# Indices 1 2 3 4 5 6 
#
# 1 0.020491 -0.003429 -0.009553 -0.009734 0.000000 0.000000
# 2 -0.003429 0.020491 -0.009553 0.009734 0.000000 0.000000
# 3 -0.009553 -0.009553 0.017283 0.000000 0.000000 0.000000
# 4 -0.009734 0.009734 0.000000 0.043122 0.000000 -0.000001
# 5 0.000000 0.000000 0.000000 0.000000 0.043122 -0.019468
# 6 0.000000 0.000000 0.000000 -0.000001 -0.019468 0.047840
#
#
# Mechanical properties :
#
#
# Convention : Reuss Voigt Hill
#
# Bulk Modulus (GPa) = 75.77022 88.81633 82.29327
# Shear Modulus (GPa) = 20.67675 25.52101 23.09888
#
# Velocity S-wave (km/s) = 3.24143 3.60118 3.42603
# Velocity P-wave (km/s) = 7.24650 7.90084 7.58074
#
# Compressibility (1/GPa) = 0.01319780
#
# Stress axis : x y z
#
# Youngs Moduli (GPa) = 48.80118 48.80118 57.85880
#
# Poissons Ratio (x) = 0.16733 0.55271
# Poissons Ratio (y) = 0.16733 0.55271
# Poissons Ratio (z) = 0.46618 0.46618
#
# Static dielectric constant tensor:
#      x y z
#    x 1.716730 0.000000 0.000000 
#    y 0.000000 1.716730 0.000000 
#    z 0.000000 0.000000 1.691110 
# 
# From -- ./inp_files/184.got.cif
#   From: 2010.05.17/outbox.cif.g08.bks.cpg/sg143_cif.got.tgz:184.got - 2010.05.20 13:46:24.
