data_PCOD9574265
_publ_section_title
;
Structure prediction by ZEFSAII (Michael W. Deem and Ramdas Pophale) SiO2 
 PCOD9574265
Probable space group: P 3
;
_chemical_formula_sum "Si O2"
_cell_formula_units_Z 24
_cell_length_a 14.143717
_cell_length_b 14.143717
_cell_length_c 8.359232
_cell_angle_alpha 90.000000
_cell_angle_beta 90.000000
_cell_angle_gamma 120.000000
_cell_volume 1448.185272
_symmetry_space_group_name_H-M "P 3"
_symmetry_group_IT_number 143
_symmetry_cell_setting 'hexagonal'
loop_
_space_group_symop_operation_xyz
x,y,z
-y,x-y,z
-x+y,-x,z
loop_
_atom_site_type_symbol
_atom_site_label
_atom_site_fract_x
_atom_site_fract_y
_atom_site_fract_z
Si Si1 0.216518 0.214075 0.813750
Si Si2 0.131112 0.455393 0.306128
Si Si3 0.999578 0.217503 0.425196
Si Si4 0.343665 0.460080 0.429762
Si Si5 0.544607 0.675719 0.932018
Si Si6 0.785925 0.002443 0.424396
Si Si7 0.539920 0.883585 0.808384
Si Si8 0.217925 0.000422 0.812950
O O1 0.218264 0.214078 0.619073
O O2 0.304165 0.336661 0.864931
O O3 0.097086 0.194034 0.858851
O O4 0.235053 0.116380 0.867554
O O5 0.034836 0.336422 0.358052
O O6 0.239560 0.475801 0.399342
O O7 0.105878 0.551056 0.344723
O O8 0.153230 0.454761 0.119073
O O9 0.097086 0.194034 0.379295
O O10 0.999211 0.222843 0.619073
O O11 0.883620 0.118673 0.370592
O O12 0.304166 0.336661 0.373215
O O13 0.364801 0.466731 0.619073
O O14 0.524199 0.763760 0.838804
O O15 0.448944 0.554822 0.893423
O O16 0.663578 0.698415 0.880094
#
# Coordination Sequence:
#
# PCOD9574265 Si02
#       8
#     3   3   3   3   3   3   3   3
#     4   8  15  27  49  74  94 117 152 192 230 270
#     4  11  21  32  46  70 100 129 156 191 238 291
#     4   9  16  30  50  73  97 124 156 193 233 279
#     4  10  19  33  51  71  93 124 162 202 239 276
#     4  11  21  32  46  70 100 129 156 191 238 291
#     4   8  15  27  49  74  94 117 152 192 230 270
#     4  10  19  33  51  71  93 124 162 202 239 276
#     4   9  16  30  50  73  97 124 156 193 233 279
#
# _framework density 16.572465000000001
#
# number of rings (size 3 to 8) (size 9 to 14) (size 15 to 20)
#    0.000    2.500    0.000    5.500    0.000    2.000 
#    0.000    6.250    0.000    1.000    0.000    3.500 
#    0.000    0.000    0.000    0.000    0.000    0.000 
#
# Total GULP energy -133844.091718 kJ/mol
# GULP energy per Si atom -5576.837155 kJ/mol
# Density = 1.653475 g / cm^3
# Si number density = 16.572465 Si / 1000 Ang^3
#
#
#
# Elastic Constant Matrix: (Units=GPa)
#
#
# Indices 1 2 3 4 5 6 
#
# 1 108.3249 61.4237 -4.8494 0.0000 0.0000 0.0000
# 2 61.4237 108.3249 -4.8494 0.0000 0.0000 0.0000
# 3 -4.8494 -4.8494 15.2784 0.0000 0.0000 0.0000
# 4 0.0000 0.0000 0.0000 -10.0521 0.0000 0.0000
# 5 0.0000 0.0000 0.0000 0.0000 -10.0521 0.0000
# 6 0.0000 0.0000 0.0000 0.0000 0.0000 23.4506
#
#
#
# Elastic Compliance Matrix: (Units=1/GPa)
#
#
# Indices 1 2 3 4 5 6 
#
# 1 0.013661 -0.007661 0.001904 0.000000 0.000000 0.000000
# 2 -0.007661 0.013661 0.001904 0.000000 0.000000 0.000000
# 3 0.001904 0.001904 0.066661 0.000000 0.000000 0.000000
# 4 0.000000 0.000000 0.000000 -0.099482 0.000000 0.000000
# 5 0.000000 0.000000 0.000000 0.000000 -0.099482 0.000000
# 6 0.000000 0.000000 0.000000 0.000000 0.000000 0.042643
#
#
# Mechanical properties :
#
#
# Convention : Reuss Voigt Hill
#
# Bulk Modulus (GPa) = 11.59046 37.26424 24.42735
# Shear Modulus (GPa) = -193.23635 12.68283 -90.27676
#
# Velocity S-wave (km/s) = -10.80990 2.76940 -7.38865
# Velocity P-wave (km/s) = 12.19821 5.72368 7.61695
#
# Compressibility (1/GPa) = 0.08627788
#
# Stress axis : x y z
#
# Youngs Moduli (GPa) = 73.20299 73.20299 15.00135
#
# Poissons Ratio (x) = 0.56079 -0.02857
# Poissons Ratio (y) = 0.56079 -0.02857
# Poissons Ratio (z) = -0.13941 -0.13941
#
# Static dielectric constant tensor:
#      x y z
#    x 1.547170 0.000000 0.000000 
#    y 0.000000 1.547170 0.000000 
#    z 0.000000 0.000000 1.554590 
# 
# From -- ./inp_files/202.got.cif
#   From: 2010.05.17/outbox.cif.g08.bks.cpg/sg143_cif.got.tgz:202.got - 2010.05.20 13:46:24.
