data_PCOD9574217
_publ_section_title
;
Structure prediction by ZEFSAII (Michael W. Deem and Ramdas Pophale) SiO2 
 PCOD9574217
Probable space group: I 41/A C D
;
_chemical_formula_sum "Si O2"
_cell_formula_units_Z 96
_cell_length_a 16.863580
_cell_length_b 16.863580
_cell_length_c 13.672193
_cell_angle_alpha 90.000000
_cell_angle_beta 90.000000
_cell_angle_gamma 90.000000
_cell_volume 3888.102763
_symmetry_space_group_name_H-M "I 41/A C D"
_symmetry_group_IT_number 142
_space_group.IT_coordinate_system_code '2'
_symmetry_cell_setting 'tetragonal'
loop_
_space_group_symop_operation_xyz
x,y,z
1/4-y,3/4+x,1/4+z
-x,1/2-y,z
1/4+y,1/4-x,3/4+z
x,-y,1/2-z
1/2-x,y,-z
3/4+y,1/4+x,1/4-z
1/4-y,1/4-x,1/4-z
-x,-y,-z
3/4+y,1/4-x,3/4-z
x,1/2+y,-z
3/4-y,3/4+x,1/4-z
-x,y,1/2+z
1/2+x,-y,z
1/4-y,3/4-x,3/4+z
3/4+y,3/4+x,3/4+z
1/2+x,1/2+y,1/2+z
3/4-y,1/4+x,3/4+z
1/2-x,-y,1/2+z
3/4+y,3/4-x,1/4+z
1/2+x,1/2-y,-z
-x,1/2+y,1/2-z
1/4+y,3/4+x,3/4-z
3/4-y,3/4-x,3/4-z
1/2-x,1/2-y,1/2-z
1/4+y,3/4-x,1/4-z
1/2+x,y,1/2-z
1/4-y,1/4+x,3/4-z
1/2-x,1/2+y,z
x,1/2-y,1/2+z
3/4-y,1/4-x,1/4+z
1/4+y,1/4+x,1/4+z
loop_
_atom_site_type_symbol
_atom_site_label
_atom_site_fract_x
_atom_site_fract_y
_atom_site_fract_z
Si Si1 0.343460 0.861385 0.012822
Si Si2 0.121796 0.808510 0.467508
Si Si3 0.417040 0.021963 0.955536
O O1 0.372045 0.877956 0.125000
O O2 0.381655 0.776428 0.981292
O O3 0.250000 0.850741 0.000000
O O4 0.364315 0.944420 0.962016
O O5 0.060935 0.810935 0.375000
O O6 0.203085 0.817836 0.406024
O O7 0.110212 0.896852 0.510434
O O8 0.500000 0.000000 0.000000
#
# Coordination Sequence:
#
# PCOD9574217 Si02
#       3
#    32  32  32
#     4  12  24  40  67 103 136 185 231 279 351 414
#     4   8  21  41  65  96 138 173 225 284 338 395
#     4   9  19  40  67  96 130 174 229 272 346 405
#
# _framework density 24.690705000000001
#
# number of rings (size 3 to 8) (size 9 to 14) (size 15 to 20)
#    2.000    0.000    3.333    0.000    4.667    6.000 
#    0.000    0.000    0.000    0.000    0.000    0.000 
#    0.000    0.000    0.000    0.000    0.000    0.000 
#
# Total GULP energy -267415.193959 kJ/mol
# GULP energy per Si atom -5571.149874 kJ/mol
# Density = 2.463451 g / cm^3
# Si number density = 24.690705 Si / 1000 Ang^3
#
#
#
# Elastic Constant Matrix: (Units=GPa)
#
#
# Indices 1 2 3 4 5 6 
#
# 1 197.7005 76.7436 18.6818 0.0000 0.0000 0.0000
# 2 76.7436 197.7008 18.6821 0.0000 0.0000 0.0000
# 3 18.6818 18.6821 45.4315 0.0000 0.0000 0.0000
# 4 0.0000 0.0000 0.0000 32.7833 0.0000 0.0000
# 5 0.0000 0.0000 0.0000 0.0000 32.7829 0.0000
# 6 0.0000 0.0000 0.0000 0.0000 0.0000 59.0159
#
#
#
# Elastic Compliance Matrix: (Units=1/GPa)
#
#
# Indices 1 2 3 4 5 6 
#
# 1 0.006064 -0.002204 -0.001587 0.000000 0.000000 0.000000
# 2 -0.002204 0.006064 -0.001587 0.000000 0.000000 0.000000
# 3 -0.001587 -0.001587 0.023317 0.000000 0.000000 0.000000
# 4 0.000000 0.000000 0.000000 0.030503 0.000000 0.000000
# 5 0.000000 0.000000 0.000000 0.000000 0.030504 0.000000
# 6 0.000000 0.000000 0.000000 0.000000 0.000000 0.016945
#
#
# Mechanical properties :
#
#
# Convention : Reuss Voigt Hill
#
# Bulk Modulus (GPa) = 40.50656 74.33865 57.42261
# Shear Modulus (GPa) = 37.76980 46.69810 42.23395
#
# Velocity S-wave (km/s) = 3.91540 4.35365 4.14033
# Velocity P-wave (km/s) = 6.07303 7.44619 6.79439
#
# Compressibility (1/GPa) = 0.02468736
#
# Stress axis : x y z
#
# Youngs Moduli (GPa) = 164.91832 164.91835 42.88802
#
# Poissons Ratio (x) = 0.36345 0.06807
# Poissons Ratio (y) = 0.36345 0.06807
# Poissons Ratio (z) = 0.26175 0.26176
#
# Static dielectric constant tensor:
#      x y z
#    x 2.050360 0.000000 0.000000 
#    y 0.000000 2.050370 0.000000 
#    z 0.000000 0.000000 2.077080 
# 
# From -- ./inp_files/6574.got.cif
#   From: 2010.05.17/outbox.cif.g08.bks.cpg/sg142_4_cif.got.tgz:6574.got - 2010.05.20 13:39:18.
