data_PCOD9574300
_publ_section_title
;
Structure prediction by ZEFSAII (Michael W. Deem and Ramdas Pophale) SiO2 
 PCOD9574300
Probable space group: P 31
;
_chemical_formula_sum "Si O2"
_cell_formula_units_Z 24
_cell_length_a 14.717949
_cell_length_b 14.717949
_cell_length_c 6.291865
_cell_angle_alpha 90.000000
_cell_angle_beta 90.000000
_cell_angle_gamma 120.000000
_cell_volume 1180.333178
_symmetry_space_group_name_H-M "P 31"
_symmetry_group_IT_number 144
_symmetry_cell_setting 'hexagonal'
loop_
_space_group_symop_operation_xyz
x,y,z
-y,x-y,1/3+z
-x+y,-x,2/3+z
loop_
_atom_site_type_symbol
_atom_site_label
_atom_site_fract_x
_atom_site_fract_y
_atom_site_fract_z
Si Si1 0.354757 0.021424 0.198050
Si Si2 0.558190 0.040819 0.254668
Si Si3 0.374152 0.224857 0.141431
Si Si4 0.031620 0.222840 0.907200
Si Si5 0.497071 0.869135 0.567049
Si Si6 0.961269 0.797532 0.495719
Si Si7 0.301714 0.857887 0.822234
Si Si8 0.666667 0.040662 0.864716
O O1 0.460649 0.051874 0.324263
O O2 0.385206 0.127315 0.071836
O O3 0.261384 0.000140 0.358912
O O4 0.333472 0.928051 0.037189
O O5 0.666667 0.120912 0.364716
O O6 0.523008 0.923700 0.335315
O O7 0.584811 0.055848 0.006489
O O8 0.389182 0.251478 0.389610
O O9 0.257033 0.189674 0.060787
O O10 0.094279 0.163055 0.844873
O O11 0.104419 0.333334 0.031383
O O12 0.935352 0.138852 0.053868
O O13 0.397982 0.870167 0.675568
O O14 0.496387 0.760945 0.551227
O O15 0.598206 0.946536 0.706533
O O16 0.985001 0.720130 0.356234
#
# Coordination Sequence:
#
# PCOD9574300 Si02
#       8
#     3   3   3   3   3   3   3   3
#     4  12  23  44  71  98 136 182 232 291 354 425
#     4  10  22  41  68  95 131 177 225 283 354 421
#     4  10  22  41  68  95 131 177 225 283 354 421
#     4  12  25  44  67 101 139 182 239 293 348 431
#     4  11  24  42  66  98 139 182 231 289 354 422
#     4  11  24  42  66  98 139 182 231 289 354 422
#     4  12  25  44  67 101 139 182 239 293 348 431
#     4  10  19  42  65  92 128 180 220 279 352 409
#
# _framework density 20.333241000000001
#
# number of rings (size 3 to 8) (size 9 to 14) (size 15 to 20)
#    0.000    1.000    5.000    3.000    0.000    2.000 
#    4.500    1.250    0.000    0.000    0.000    0.000 
#    0.000    0.000    0.000    0.000    0.000    0.000 
#
# Total GULP energy -133800.892974 kJ/mol
# GULP energy per Si atom -5575.037207 kJ/mol
# Density = 2.028696 g / cm^3
# Si number density = 20.333241 Si / 1000 Ang^3
#
#
#
# Elastic Constant Matrix: (Units=GPa)
#
#
# Indices 1 2 3 4 5 6 
#
# 1 105.6098 55.7751 27.8613 -0.8254 0.0002 0.0000
# 2 55.7751 105.6098 27.8613 0.8254 -0.0002 0.0000
# 3 27.8613 27.8613 73.4075 0.0000 0.0000 0.0000
# 4 -0.8254 0.8254 0.0000 30.2639 0.0000 -0.0002
# 5 0.0002 -0.0002 0.0000 0.0000 30.2639 -0.8254
# 6 0.0000 0.0000 0.0000 -0.0002 -0.8254 24.9174
#
#
#
# Elastic Compliance Matrix: (Units=1/GPa)
#
#
# Indices 1 2 3 4 5 6 
#
# 1 0.013608 -0.006477 -0.002706 0.000548 0.000000 0.000000
# 2 -0.006477 0.013608 -0.002706 -0.000548 0.000000 0.000000
# 3 -0.002706 -0.002706 0.015677 0.000000 0.000000 0.000000
# 4 0.000548 -0.000548 0.000000 0.033073 0.000000 0.000000
# 5 0.000000 0.000000 0.000000 0.000000 0.033073 0.001096
# 6 0.000000 0.000000 0.000000 0.000000 0.001096 0.040169
#
#
# Mechanical properties :
#
#
# Convention : Reuss Voigt Hill
#
# Bulk Modulus (GPa) = 52.32080 56.40251 54.36165
# Shear Modulus (GPa) = 27.87740 28.63101 28.25420
#
# Velocity S-wave (km/s) = 3.70675 3.75652 3.73172
# Velocity P-wave (km/s) = 6.64135 6.82749 6.73506
#
# Compressibility (1/GPa) = 0.01911286
#
# Stress axis : x y z
#
# Youngs Moduli (GPa) = 73.48799 73.48799 63.78761
#
# Poissons Ratio (x) = 0.47597 0.17264
# Poissons Ratio (y) = 0.47597 0.17264
# Poissons Ratio (z) = 0.19889 0.19889
#
# Static dielectric constant tensor:
#      x y z
#    x 1.739510 0.000000 0.000000 
#    y 0.000000 1.739510 0.000000 
#    z 0.000000 0.000000 1.782140 
# 
# From -- ./inp_files/162.got.cif
#   From: 2010.05.17/outbox.cif.g08.bks.cpg/sg144_cif.got.tgz:162.got - 2010.05.20 13:46:34.
