data_PCOD9574517
_publ_section_title
;
Structure prediction by ZEFSAII (Michael W. Deem and Ramdas Pophale) SiO2 
 PCOD9574517
Probable space group: P 31
;
_chemical_formula_sum "Si O2"
_cell_formula_units_Z 12
_cell_length_a 4.947526
_cell_length_b 4.947526
_cell_length_c 21.395178
_cell_angle_alpha 90.000000
_cell_angle_beta 90.000000
_cell_angle_gamma 120.000000
_cell_volume 453.547425
_symmetry_space_group_name_H-M "P 31"
_symmetry_group_IT_number 144
_symmetry_cell_setting 'hexagonal'
loop_
_space_group_symop_operation_xyz
x,y,z
-y,x-y,1/3+z
-x+y,-x,2/3+z
loop_
_atom_site_type_symbol
_atom_site_label
_atom_site_fract_x
_atom_site_fract_y
_atom_site_fract_z
Si Si1 0.648236 0.296473 0.532730
Si Si2 0.155244 0.921823 0.950414
Si Si3 0.234417 0.468833 0.032730
Si Si4 0.766580 0.921823 0.115046
O O1 0.593220 0.516428 0.580520
O O2 0.923208 0.516428 0.484940
O O3 0.768523 0.094623 0.569669
O O4 0.326100 0.094623 0.495791
O O5 0.130135 0.709852 0.009539
O O6 0.166200 0.233541 0.975407
O O7 0.579717 0.709853 0.055921
O O8 0.067340 0.233541 0.090053
#
# Coordination Sequence:
#
# PCOD9574517 Si02
#       4
#     3   3   3   3
#     4  12  28  50  80 114 156 202 256 318 384 458
#     4  12  27  48  78 114 154 202 255 316 382 456
#     4  12  26  48  76 110 152 200 254 314 380 454
#     4  12  27  48  78 114 154 202 255 316 382 456
#
# _framework density 26.458096999999999
#
# number of rings (size 3 to 8) (size 9 to 14) (size 15 to 20)
#    0.000    0.000    0.000    9.000    0.000   14.000 
#    0.000    0.000    0.000    0.000    0.000    0.000 
#    0.000    0.000    0.000    0.000    0.000    0.000 
#
# Total GULP energy -67258.453321 kJ/mol
# GULP energy per Si atom -5604.871110 kJ/mol
# Density = 2.639788 g / cm^3
# Si number density = 26.458097 Si / 1000 Ang^3
#
#
#
# Elastic Constant Matrix: (Units=GPa)
#
#
# Indices 1 2 3 4 5 6 
#
# 1 160.0556 64.3714 34.8890 0.0000 -4.4553 0.0000
# 2 64.3714 160.0556 34.8890 0.0000 4.4553 0.0000
# 3 34.8890 34.8890 71.1992 0.0000 0.0000 0.0000
# 4 0.0000 0.0000 0.0000 34.5244 0.0000 4.4553
# 5 -4.4553 4.4553 0.0000 0.0000 34.5244 0.0000
# 6 0.0000 0.0000 0.0000 4.4553 0.0000 47.8421
#
#
#
# Elastic Compliance Matrix: (Units=1/GPa)
#
#
# Indices 1 2 3 4 5 6 
#
# 1 0.007917 -0.002661 -0.002576 0.000000 0.001365 0.000000
# 2 -0.002661 0.007917 -0.002576 0.000000 -0.001365 0.000000
# 3 -0.002576 -0.002576 0.016570 0.000000 0.000000 0.000000
# 4 0.000000 0.000000 0.000000 0.029317 0.000000 -0.002730
# 5 0.001365 -0.001365 0.000000 0.000000 0.029317 0.000000
# 6 0.000000 0.000000 0.000000 -0.002730 0.000000 0.021156
#
#
# Mechanical properties :
#
#
# Convention : Reuss Voigt Hill
#
# Bulk Modulus (GPa) = 59.59685 73.28990 66.44338
# Shear Modulus (GPa) = 37.47745 40.52225 38.99985
#
# Velocity S-wave (km/s) = 3.76770 3.91776 3.84347
# Velocity P-wave (km/s) = 6.44215 6.94447 6.69802
#
# Compressibility (1/GPa) = 0.01677941
#
# Stress axis : x y z
#
# Youngs Moduli (GPa) = 126.30375 126.30375 60.35171
#
# Poissons Ratio (x) = 0.33606 0.15546
# Poissons Ratio (y) = 0.33606 0.15546
# Poissons Ratio (z) = 0.32534 0.32534
#
# Static dielectric constant tensor:
#      x y z
#    x 2.007630 0.000000 0.000000 
#    y 0.000000 2.007630 0.000000 
#    z 0.000000 0.000000 2.118160 
# 
# From -- ./inp_files/884.got.cif
#   From: 2010.05.17/outbox.cif.g08.bks.cpg/sg144_cif.got.tgz:884.got - 2010.05.20 13:46:34.
