data_PCOD9574490
_publ_section_title
;
Structure prediction by ZEFSAII (Michael W. Deem and Ramdas Pophale) SiO2 
 PCOD9574490
Probable space group: P 31
;
_chemical_formula_sum "Si O2"
_cell_formula_units_Z 18
_cell_length_a 11.744036
_cell_length_b 11.744036
_cell_length_c 6.897195
_cell_angle_alpha 90.000000
_cell_angle_beta 90.000000
_cell_angle_gamma 120.000000
_cell_volume 823.830533
_symmetry_space_group_name_H-M "P 31"
_symmetry_group_IT_number 144
_symmetry_cell_setting 'hexagonal'
loop_
_space_group_symop_operation_xyz
x,y,z
-y,x-y,1/3+z
-x+y,-x,2/3+z
loop_
_atom_site_type_symbol
_atom_site_label
_atom_site_fract_x
_atom_site_fract_y
_atom_site_fract_z
Si Si1 0.086835 0.106605 0.745770
Si Si2 0.677786 0.725604 0.927714
Si Si3 0.763152 0.312136 0.129428
Si Si4 0.163544 0.772170 0.885020
Si Si5 0.528087 0.587450 0.289396
Si Si6 0.808260 0.115800 0.365521
O O1 0.107293 0.249772 0.721795
O O2 0.068022 0.044006 0.536498
O O3 0.203216 0.106835 0.864551
O O4 0.637037 0.769603 0.734022
O O5 0.784315 0.685589 0.862033
O O6 0.570456 0.615282 0.064059
O O7 0.730860 0.400119 0.274884
O O8 0.737880 0.184221 0.254504
O O9 0.916156 0.392500 0.060024
O O10 0.276876 0.836384 0.724334
O O11 0.027000 0.752094 0.796683
O O12 0.120439 0.627089 0.959015
#
# Coordination Sequence:
#
# PCOD9574490 Si02
#       6
#     3   3   3   3   3   3
#     4  12  22  40  71 109 149 192 239 310 378 438
#     4  12  26  47  74 111 154 193 250 314 384 454
#     4  12  30  52  78 112 154 208 261 319 387 466
#     4  12  29  50  77 115 151 205 252 319 385 457
#     4  12  30  51  80 111 154 203 259 315 386 464
#     4  12  25  48  76 112 152 197 259 313 382 453
#
# _framework density 21.849153999999999
#
# number of rings (size 3 to 8) (size 9 to 14) (size 15 to 20)
#    0.000    0.000    5.000    4.000   11.667    0.000 
#    0.000    0.000    0.000    0.000    0.000    0.000 
#    0.000    0.000    0.000    0.000    0.000    0.000 
#
# Total GULP energy -100718.787370 kJ/mol
# GULP energy per Si atom -5595.488187 kJ/mol
# Density = 2.179942 g / cm^3
# Si number density = 21.849154 Si / 1000 Ang^3
#
#
#
# Elastic Constant Matrix: (Units=GPa)
#
#
# Indices 1 2 3 4 5 6 
#
# 1 86.2544 29.0217 36.5828 3.7893 -2.9126 0.0000
# 2 29.0217 86.2544 36.5828 -3.7893 2.9126 0.0000
# 3 36.5828 36.5828 105.2722 0.0000 0.0000 0.0000
# 4 3.7893 -3.7893 0.0000 30.2960 0.0000 2.9126
# 5 -2.9126 2.9126 0.0000 0.0000 30.2960 3.7893
# 6 0.0000 0.0000 0.0000 2.9126 3.7893 28.6164
#
#
#
# Elastic Compliance Matrix: (Units=1/GPa)
#
#
# Indices 1 2 3 4 5 6 
#
# 1 0.014537 -0.003408 -0.003868 -0.002245 0.001725 0.000000
# 2 -0.003408 0.014537 -0.003868 0.002245 -0.001725 0.000000
# 3 -0.003868 -0.003868 0.012187 0.000000 0.000000 0.000000
# 4 -0.002245 0.002245 0.000000 0.033901 0.000000 -0.003450
# 5 0.001725 -0.001725 0.000000 0.000000 0.033901 -0.004489
# 6 0.000000 0.000000 0.000000 -0.003450 -0.004489 0.035891
#
#
# Mechanical properties :
#
#
# Convention : Reuss Voigt Hill
#
# Bulk Modulus (GPa) = 52.69820 53.57283 53.13551
# Shear Modulus (GPa) = 28.80749 29.54793 29.17771
#
# Velocity S-wave (km/s) = 3.63502 3.68143 3.65830
# Velocity P-wave (km/s) = 6.46446 6.53018 6.49740
#
# Compressibility (1/GPa) = 0.01897598
#
# Stress axis : x y z
#
# Youngs Moduli (GPa) = 68.78784 68.78784 82.05320
#
# Poissons Ratio (x) = 0.23442 0.31735
# Poissons Ratio (y) = 0.23442 0.31735
# Poissons Ratio (z) = 0.26604 0.26604
#
# Static dielectric constant tensor:
#      x y z
#    x 1.799870 0.000000 0.000000 
#    y 0.000000 1.799870 0.000000 
#    z 0.000000 0.000000 1.801700 
# 
# From -- ./inp_files/105.got.cif
#   From: 2010.05.17/outbox.cif.g08.bks.cpg/sg144_cif.got.tgz:105.got - 2010.05.20 13:46:34.
