data_PCOD9574308
_publ_section_title
;
Structure prediction by ZEFSAII (Michael W. Deem and Ramdas Pophale) SiO2 
 PCOD9574308
Probable space group: P 31
;
_chemical_formula_sum "Si O2"
_cell_formula_units_Z 21
_cell_length_a 8.137483
_cell_length_b 8.137483
_cell_length_c 18.039125
_cell_angle_alpha 90.000000
_cell_angle_beta 90.000000
_cell_angle_gamma 120.000000
_cell_volume 1034.489979
_symmetry_space_group_name_H-M "P 31"
_symmetry_group_IT_number 144
_symmetry_cell_setting 'hexagonal'
loop_
_space_group_symop_operation_xyz
x,y,z
-y,x-y,1/3+z
-x+y,-x,2/3+z
loop_
_atom_site_type_symbol
_atom_site_label
_atom_site_fract_x
_atom_site_fract_y
_atom_site_fract_z
Si Si1 0.764067 0.108484 0.000000
Si Si2 0.885221 0.268920 0.295833
Si Si3 0.269319 0.286222 0.251593
Si Si4 0.218512 0.063780 0.385629
Si Si5 0.253466 0.044997 0.115591
Si Si6 0.641847 0.567717 0.193204
Si Si7 0.815873 0.470115 0.487687
O O1 0.559605 0.077347 0.973375
O O2 0.895065 0.227294 0.931156
O O3 0.777481 0.199285 0.081857
O O4 0.802167 0.935625 0.014697
O O5 0.826032 0.164348 0.375075
O O6 0.743024 0.158781 0.229433
O O7 0.085460 0.288064 0.277911
O O8 0.341402 0.203826 0.318628
O O9 0.215467 0.146418 0.182682
O O10 0.430932 0.487198 0.222922
O O11 0.313896 0.011304 0.451681
O O12 0.128231 0.179687 0.425562
O O13 0.434131 0.024416 0.140188
O O14 0.653610 0.379978 0.169928
#
# Coordination Sequence:
#
# PCOD9574308 Si02
#       7
#     3   3   3   3   3   3   3
#     4  10  20  36  57  82 111 146 184 233 288 334
#     4   9  19  36  57  84 116 147 184 233 285 344
#     4  10  20  37  58  82 112 148 189 232 282 343
#     4  11  21  36  57  82 113 146 190 239 283 333
#     4   9  19  34  57  84 108 142 184 227 279 337
#     4  10  21  37  56  80 111 151 190 226 281 342
#     4   9  18  36  60  82 111 146 183 226 286 353
#
# _framework density 20.299861
#
# number of rings (size 3 to 8) (size 9 to 14) (size 15 to 20)
#    0.000    2.286    0.000    2.571    0.000    4.571 
#    0.000   17.143    0.000    0.000    0.000    0.000 
#    0.000    0.000    0.000    0.000    0.000    0.000 
#
# Total GULP energy -116981.019401 kJ/mol
# GULP energy per Si atom -5570.524733 kJ/mol
# Density = 2.025366 g / cm^3
# Si number density = 20.299861 Si / 1000 Ang^3
#
#
#
# Elastic Constant Matrix: (Units=GPa)
#
#
# Indices 1 2 3 4 5 6 
#
# 1 35.5265 8.5676 36.2814 0.7787 -0.4641 0.0000
# 2 8.5676 35.5265 36.2814 -0.7787 0.4641 0.0000
# 3 36.2814 36.2814 154.7305 0.0000 0.0000 0.0000
# 4 0.7787 -0.7787 0.0000 36.0559 0.0000 0.4641
# 5 -0.4641 0.4641 0.0000 0.0000 36.0559 0.7787
# 6 0.0000 0.0000 0.0000 0.4641 0.7787 13.4795
#
#
#
# Elastic Compliance Matrix: (Units=1/GPa)
#
#
# Indices 1 2 3 4 5 6 
#
# 1 0.037042 -0.000114 -0.008659 -0.000802 0.000478 0.000000
# 2 -0.000114 0.037042 -0.008659 0.000802 -0.000478 0.000000
# 3 -0.008659 -0.008659 0.010524 0.000000 0.000000 0.000000
# 4 -0.000802 0.000802 0.000000 0.027782 0.000000 -0.000957
# 5 0.000478 -0.000478 0.000000 0.000000 0.027782 -0.001605
# 6 0.000000 0.000000 0.000000 -0.000957 -0.001605 0.074313
#
#
# Mechanical properties :
#
#
# Convention : Reuss Voigt Hill
#
# Bulk Modulus (GPa) = 20.10285 43.11604 31.60945
# Shear Modulus (GPa) = 18.80198 26.76180 22.78189
#
# Velocity S-wave (km/s) = 3.04667 3.63481 3.35366
# Velocity P-wave (km/s) = 4.72237 6.23711 5.53183
#
# Compressibility (1/GPa) = 0.04974418
#
# Stress axis : x y z
#
# Youngs Moduli (GPa) = 26.99617 26.99617 95.02456
#
# Poissons Ratio (x) = 0.00308 0.82282
# Poissons Ratio (y) = 0.00308 0.82282
# Poissons Ratio (z) = 0.23376 0.23376
#
# Static dielectric constant tensor:
#      x y z
#    x 1.740450 0.000000 0.000000 
#    y 0.000000 1.740450 0.000000 
#    z 0.000000 0.000000 1.745570 
# 
# From -- ./inp_files/744.got.cif
#   From: 2010.05.17/outbox.cif.g08.bks.cpg/sg144_cif.got.tgz:744.got - 2010.05.20 13:46:34.
