data_PCOD9574378
_publ_section_title
;
Structure prediction by ZEFSAII (Michael W. Deem and Ramdas Pophale) SiO2 
 PCOD9574378
Probable space group: P 31
;
_chemical_formula_sum "Si O2"
_cell_formula_units_Z 24
_cell_length_a 9.283139
_cell_length_b 9.283139
_cell_length_c 15.775850
_cell_angle_alpha 90.000000
_cell_angle_beta 90.000000
_cell_angle_gamma 120.000000
_cell_volume 1177.370383
_symmetry_space_group_name_H-M "P 31"
_symmetry_group_IT_number 144
_symmetry_cell_setting 'hexagonal'
loop_
_space_group_symop_operation_xyz
x,y,z
-y,x-y,1/3+z
-x+y,-x,2/3+z
loop_
_atom_site_type_symbol
_atom_site_label
_atom_site_fract_x
_atom_site_fract_y
_atom_site_fract_z
Si Si1 0.402410 0.701204 0.125000
Si Si2 0.687214 0.786468 0.258638
Si Si3 0.670646 0.927158 0.433901
Si Si4 0.975203 0.987601 0.125000
Si Si5 0.072839 0.329353 0.482766
Si Si6 0.743700 0.256297 0.958333
Si Si7 0.568526 0.284266 0.124999
Si Si8 0.213530 0.312787 0.658029
O O1 0.527256 0.755088 0.204792
O O2 0.284668 0.505842 0.125389
O O3 0.284676 0.778833 0.124610
O O4 0.527258 0.772162 0.045208
O O5 0.707232 0.902930 0.337157
O O6 0.669364 0.612373 0.289005
O O7 0.850246 0.876106 0.198922
O O8 0.652424 0.089680 0.443360
O O9 0.822639 0.929334 0.484254
O O10 0.106695 0.929332 0.099079
O O11 0.850246 0.974139 0.051078
O O12 0.097071 0.292768 0.579508
O O13 0.910314 0.347568 0.473307
O O14 0.695604 0.320896 0.873992
O O15 0.679100 0.304397 0.042673
O O16 0.669360 0.056988 0.960997
#
# Coordination Sequence:
#
# PCOD9574378 Si02
#       8
#     3   3   3   3   3   3   3   3
#     4  11  24  42  66  99 136 176 228 297 348 404
#     4  11  23  45  67  92 138 186 225 280 358 416
#     4  11  23  45  65 103 132 174 233 285 348 417
#     4  10  22  42  70  92 134 188 226 282 354 428
#     4  11  23  45  65 103 132 174 233 285 348 417
#     4  12  24  48  70 104 132 194 230 286 340 438
#     4  11  28  44  74 103 142 182 238 287 358 420
#     4  11  23  45  67  92 138 186 225 280 358 416
#
# _framework density 20.384409000000002
#
# number of rings (size 3 to 8) (size 9 to 14) (size 15 to 20)
#    0.000    1.000    5.000    0.750    3.500    1.000 
#    4.500    2.500    0.000    0.000    0.000    0.000 
#    0.000    0.000    0.000    0.000    0.000    0.000 
#
# Total GULP energy -134064.363484 kJ/mol
# GULP energy per Si atom -5586.015145 kJ/mol
# Density = 2.033801 g / cm^3
# Si number density = 20.384409 Si / 1000 Ang^3
#
#
#
# Elastic Constant Matrix: (Units=GPa)
#
#
# Indices 1 2 3 4 5 6 
#
# 1 105.6618 69.4955 32.5464 0.0010 -3.3683 0.0000
# 2 69.4955 105.6618 32.5464 -0.0010 3.3683 0.0000
# 3 32.5464 32.5464 97.8555 0.0000 0.0000 0.0000
# 4 0.0010 -0.0010 0.0000 18.6374 0.0000 3.3683
# 5 -3.3683 3.3683 0.0000 0.0000 18.6374 0.0010
# 6 0.0000 0.0000 0.0000 3.3683 0.0010 18.0832
#
#
#
# Elastic Compliance Matrix: (Units=1/GPa)
#
#
# Indices 1 2 3 4 5 6 
#
# 1 0.017564 -0.011049 -0.002167 -0.000002 0.005171 0.000000
# 2 -0.011049 0.017564 -0.002167 0.000002 -0.005171 0.000000
# 3 -0.002167 -0.002167 0.011660 0.000000 0.000000 0.000000
# 4 -0.000002 0.000002 0.000000 0.055525 0.000000 -0.010343
# 5 0.005171 -0.005171 0.000000 0.000000 0.055525 -0.000003
# 6 0.000000 0.000000 0.000000 -0.010343 -0.000003 0.057227
#
#
# Mechanical properties :
#
#
# Convention : Reuss Voigt Hill
#
# Bulk Modulus (GPa) = 62.41235 64.26176 63.33705
# Shear Modulus (GPa) = 19.90677 22.71096 21.30887
#
# Velocity S-wave (km/s) = 3.12840 3.34149 3.23670
# Velocity P-wave (km/s) = 6.61312 6.81768 6.71618
#
# Compressibility (1/GPa) = 0.01602247
#
# Stress axis : x y z
#
# Youngs Moduli (GPa) = 56.93523 56.93523 85.76043
#
# Poissons Ratio (x) = 0.62910 0.18581
# Poissons Ratio (y) = 0.62910 0.18581
# Poissons Ratio (z) = 0.12336 0.12336
#
# Static dielectric constant tensor:
#      x y z
#    x 1.748840 0.000000 0.000000 
#    y 0.000000 1.748840 0.000000 
#    z 0.000000 0.000000 1.737490 
# 
# From -- ./inp_files/835.got.cif
#   From: 2010.05.17/outbox.cif.g08.bks.cpg/sg144_cif.got.tgz:835.got - 2010.05.20 13:46:34.
