data_PCOD9574275
_publ_section_title
;
Structure prediction by ZEFSAII (Michael W. Deem and Ramdas Pophale) SiO2 
 PCOD9574275
Probable space group: P 3
;
_chemical_formula_sum "Si O2"
_cell_formula_units_Z 17
_cell_length_a 10.912677
_cell_length_b 10.912677
_cell_length_c 9.763077
_cell_angle_alpha 90.000000
_cell_angle_beta 90.000000
_cell_angle_gamma 120.000000
_cell_volume 1006.885178
_symmetry_space_group_name_H-M "P 3"
_symmetry_group_IT_number 143
_symmetry_cell_setting 'hexagonal'
loop_
_space_group_symop_operation_xyz
x,y,z
-y,x-y,z
-x+y,-x,z
loop_
_atom_site_type_symbol
_atom_site_label
_atom_site_fract_x
_atom_site_fract_y
_atom_site_fract_z
Si Si1 0.347809 0.166149 0.476480
Si Si2 0.305085 0.942273 0.259713
Si Si3 0.666667 0.333335 0.091660
Si Si4 0.902390 0.087534 0.759701
Si Si5 0.612465 0.966840 0.259710
Si Si6 0.818345 0.652197 0.042932
Si Si7 0.666668 0.333335 0.427691
O O1 0.276597 0.144019 0.622751
O O2 0.341467 0.288526 0.388615
O O3 0.513875 0.219829 0.481189
O O4 0.282786 0.021833 0.388910
O O5 0.465020 0.968076 0.259715
O O6 0.190927 0.777561 0.259705
O O7 0.282801 0.021845 0.130518
O O8 0.705961 0.486132 0.038171
O O9 0.666668 0.333334 0.259677
O O10 0.072476 0.152838 0.759689
O O11 0.855999 0.132556 0.896677
O O12 0.711468 0.052949 0.130805
#
# Coordination Sequence:
#
# PCOD9574275 Si02
#       7
#     3   3   1   3   3   3   1
#     4  11  20  39  62  83 120 157 197 247 302 352
#     4  11  21  36  60  88 119 155 200 246 302 359
#     4  12  18  40  65  97 114 148 197 274 288 349
#     4  10  24  40  54  86 124 154 196 244 296 358
#     4  11  21  36  60  88 119 155 200 246 302 359
#     4  11  20  39  62  83 120 157 197 247 302 352
#     4  12  18  40  65  97 114 148 197 274 288 349
#
# _framework density 16.883752000000001
#
# number of rings (size 3 to 8) (size 9 to 14) (size 15 to 20)
#    0.353    0.706    7.059    2.471    0.000    1.412 
#    8.471    0.000    0.000    0.000    0.000    0.000 
#    0.000    0.000    0.000    0.000    0.000    0.000 
#
# Total GULP energy -94823.000295 kJ/mol
# GULP energy per Si atom -5577.823547 kJ/mol
# Density = 1.684532 g / cm^3
# Si number density = 16.883752 Si / 1000 Ang^3
#
#
#
# Elastic Constant Matrix: (Units=GPa)
#
#
# Indices 1 2 3 4 5 6 
#
# 1 86.6632 15.0562 47.3604 -0.0001 0.0004 -0.0008
# 2 15.0562 86.6616 47.3589 0.0000 -0.0002 -0.0010
# 3 47.3604 47.3589 153.7026 0.0000 0.0000 -0.0007
# 4 -0.0001 0.0000 0.0000 23.0085 -0.0001 -0.0004
# 5 0.0004 -0.0002 0.0000 -0.0001 23.0088 0.0000
# 6 -0.0008 -0.0010 -0.0007 -0.0004 0.0000 35.8026
#
#
#
# Elastic Compliance Matrix: (Units=1/GPa)
#
#
# Indices 1 2 3 4 5 6 
#
# 1 0.013876 -0.000089 -0.004248 0.000000 0.000000 0.000000
# 2 -0.000089 0.013876 -0.004248 0.000000 0.000000 0.000000
# 3 -0.004248 -0.004248 0.009124 0.000000 0.000000 0.000000
# 4 0.000000 0.000000 0.000000 0.043462 0.000000 0.000000
# 5 0.000000 0.000000 0.000000 0.000000 0.043462 0.000000
# 6 0.000000 0.000000 0.000000 0.000000 0.000000 0.027931
#
#
# Mechanical properties :
#
#
# Convention : Reuss Voigt Hill
#
# Bulk Modulus (GPa) = 50.74778 60.73093 55.73936
# Shear Modulus (GPa) = 28.49490 30.84743 29.67117
#
# Velocity S-wave (km/s) = 4.11263 4.27904 4.19666
# Velocity P-wave (km/s) = 7.25769 7.77571 7.52116
#
# Compressibility (1/GPa) = 0.01970529
#
# Stress axis : x y z
#
# Youngs Moduli (GPa) = 72.06704 72.06631 109.60174
#
# Poissons Ratio (x) = 0.00643 0.46560
# Poissons Ratio (y) = 0.00643 0.46559
# Poissons Ratio (z) = 0.30615 0.30614
#
# Static dielectric constant tensor:
#      x y z
#    x 1.576610 0.000000 0.000000 
#    y 0.000000 1.576610 0.000000 
#    z 0.000000 0.000000 1.554870 
# 
# From -- ./inp_files/172.got.cif
#   From: 2010.05.17/outbox.cif.g08.bks.cpg/sg143_cif.got.tgz:172.got - 2010.05.20 13:46:24.
