data_PCOD9574095
_publ_section_title
;
Structure prediction by ZEFSAII (Michael W. Deem and Ramdas Pophale) SiO2 
 PCOD9574095
Probable space group: I 41/A C D
;
_chemical_formula_sum "Si O2"
_cell_formula_units_Z 160
_cell_length_a 20.433659
_cell_length_b 20.433659
_cell_length_c 15.811635
_cell_angle_alpha 90.000000
_cell_angle_beta 90.000000
_cell_angle_gamma 90.000000
_cell_volume 6601.901851
_symmetry_space_group_name_H-M "I 41/A C D"
_symmetry_group_IT_number 142
_space_group.IT_coordinate_system_code '2'
_symmetry_cell_setting 'tetragonal'
loop_
_space_group_symop_operation_xyz
x,y,z
1/4-y,3/4+x,1/4+z
-x,1/2-y,z
1/4+y,1/4-x,3/4+z
x,-y,1/2-z
1/2-x,y,-z
3/4+y,1/4+x,1/4-z
1/4-y,1/4-x,1/4-z
-x,-y,-z
3/4+y,1/4-x,3/4-z
x,1/2+y,-z
3/4-y,3/4+x,1/4-z
-x,y,1/2+z
1/2+x,-y,z
1/4-y,3/4-x,3/4+z
3/4+y,3/4+x,3/4+z
1/2+x,1/2+y,1/2+z
3/4-y,1/4+x,3/4+z
1/2-x,-y,1/2+z
3/4+y,3/4-x,1/4+z
1/2+x,1/2-y,-z
-x,1/2+y,1/2-z
1/4+y,3/4+x,3/4-z
3/4-y,3/4-x,3/4-z
1/2-x,1/2-y,1/2-z
1/4+y,3/4-x,1/4-z
1/2+x,y,1/2-z
1/4-y,1/4+x,3/4-z
1/2-x,1/2+y,z
x,1/2-y,1/2+z
3/4-y,1/4-x,1/4+z
1/4+y,1/4+x,1/4+z
loop_
_atom_site_type_symbol
_atom_site_label
_atom_site_fract_x
_atom_site_fract_y
_atom_site_fract_z
Si Si1 0.121948 0.961043 0.171545
Si Si2 0.528580 0.132183 0.730327
Si Si3 0.609528 0.500000 0.250000
Si Si4 0.768791 0.518791 0.875000
Si Si5 0.407693 0.864300 0.535708
Si Si6 0.148790 0.220019 0.798461
O O1 0.196039 0.982602 0.163307
O O2 0.129314 0.887906 0.206640
O O3 0.078732 0.954348 0.086233
O O4 0.089421 0.000000 0.250000
O O5 0.465671 0.159155 0.781861
O O6 0.504786 0.128752 0.633057
O O7 0.589883 0.178905 0.739781
O O8 0.560377 0.061304 0.746206
O O9 0.662939 0.516034 0.176487
O O10 0.372830 0.877171 0.625000
O O11 0.472661 0.906601 0.520110
#
# Coordination Sequence:
#
# PCOD9574095 Si02
#       6
#    32  32  16  16  32  32
#     4  11  25  45  75 105 149 207 257 313 386 461
#     4  11  23  43  73 105 146 196 241 308 385 459
#     4  12  26  44  70 106 146 192 256 310 376 458
#     4  12  24  48  74  98 143 204 259 314 374 458
#     4  11  26  44  73 114 149 189 250 323 385 464
#     4  11  21  44  73 105 142 197 243 301 389 449
#
# _framework density 24.235441000000002
#
# number of rings (size 3 to 8) (size 9 to 14) (size 15 to 20)
#    0.000    0.800    7.000    0.600    7.000    3.200 
#    0.000    1.000    0.000    0.000    0.000    0.000 
#    0.000    0.000    0.000    0.000    0.000    0.000 
#
# Total GULP energy -446056.024389 kJ/mol
# GULP energy per Si atom -5575.700305 kJ/mol
# Density = 2.418028 g / cm^3
# Si number density = 24.235441 Si / 1000 Ang^3
#
#
#
# Elastic Constant Matrix: (Units=GPa)
#
#
# Indices 1 2 3 4 5 6 
#
# 1 114.9463 62.2643 18.7559 0.0000 0.0000 0.0000
# 2 62.2643 114.9464 18.7558 0.0000 0.0000 0.0000
# 3 18.7559 18.7558 34.2840 0.0000 0.0000 0.0000
# 4 0.0000 0.0000 0.0000 98.8933 0.0000 0.0000
# 5 0.0000 0.0000 0.0000 0.0000 98.8898 0.0000
# 6 0.0000 0.0000 0.0000 0.0000 0.0000 105.6992
#
#
#
# Elastic Compliance Matrix: (Units=1/GPa)
#
#
# Indices 1 2 3 4 5 6 
#
# 1 0.012682 -0.006300 -0.003491 0.000000 0.000000 0.000000
# 2 -0.006300 0.012682 -0.003491 0.000000 0.000000 0.000000
# 3 -0.003491 -0.003491 0.032988 0.000000 0.000000 0.000000
# 4 0.000000 0.000000 0.000000 0.010112 0.000000 0.000000
# 5 0.000000 0.000000 0.000000 0.000000 0.010112 0.000000
# 6 0.000000 0.000000 0.000000 0.000000 0.000000 0.009461
#
#
# Mechanical properties :
#
#
# Convention : Reuss Voigt Hill
#
# Bulk Modulus (GPa) = 31.45982 51.52541 41.49261
# Shear Modulus (GPa) = 39.93667 71.65650 55.79659
#
# Velocity S-wave (km/s) = 4.06379 5.44344 4.80341
# Velocity P-wave (km/s) = 5.91847 7.79837 6.92253
#
# Compressibility (1/GPa) = 0.03178658
#
# Stress axis : x y z
#
# Youngs Moduli (GPa) = 78.85227 78.85240 30.31380
#
# Poissons Ratio (x) = 0.49676 0.10584
# Poissons Ratio (y) = 0.49676 0.10584
# Poissons Ratio (z) = 0.27531 0.27531
#
# Static dielectric constant tensor:
#      x y z
#    x 2.013740 0.000000 0.000000 
#    y 0.000000 2.013730 0.000000 
#    z 0.000000 0.000000 2.477810 
# 
# From -- ./inp_files/7465.got.cif
#   From: 2010.05.17/outbox.cif.g08.bks.cpg/sg142_4_cif.got.tgz:7465.got - 2010.05.20 13:39:18.
