data_PCOD9574186
_publ_section_title
;
Structure prediction by ZEFSAII (Michael W. Deem and Ramdas Pophale) SiO2 
 PCOD9574186
Probable space group: I 41/A C D
;
_chemical_formula_sum "Si O2"
_cell_formula_units_Z 144
_cell_length_a 16.435062
_cell_length_b 16.435062
_cell_length_c 23.156444
_cell_angle_alpha 90.000000
_cell_angle_beta 90.000000
_cell_angle_gamma 90.000000
_cell_volume 6254.816334
_symmetry_space_group_name_H-M "I 41/A C D"
_symmetry_group_IT_number 142
_space_group.IT_coordinate_system_code '2'
_symmetry_cell_setting 'tetragonal'
loop_
_space_group_symop_operation_xyz
x,y,z
1/4-y,3/4+x,1/4+z
-x,1/2-y,z
1/4+y,1/4-x,3/4+z
x,-y,1/2-z
1/2-x,y,-z
3/4+y,1/4+x,1/4-z
1/4-y,1/4-x,1/4-z
-x,-y,-z
3/4+y,1/4-x,3/4-z
x,1/2+y,-z
3/4-y,3/4+x,1/4-z
-x,y,1/2+z
1/2+x,-y,z
1/4-y,3/4-x,3/4+z
3/4+y,3/4+x,3/4+z
1/2+x,1/2+y,1/2+z
3/4-y,1/4+x,3/4+z
1/2-x,-y,1/2+z
3/4+y,3/4-x,1/4+z
1/2+x,1/2-y,-z
-x,1/2+y,1/2-z
1/4+y,3/4+x,3/4-z
3/4-y,3/4-x,3/4-z
1/2-x,1/2-y,1/2-z
1/4+y,3/4-x,1/4-z
1/2+x,y,1/2-z
1/4-y,1/4+x,3/4-z
1/2-x,1/2+y,z
x,1/2-y,1/2+z
3/4-y,1/4-x,1/4+z
1/4+y,1/4+x,1/4+z
loop_
_atom_site_type_symbol
_atom_site_label
_atom_site_fract_x
_atom_site_fract_y
_atom_site_fract_z
Si Si1 0.712951 0.037050 0.375000
Si Si2 0.074143 0.871388 0.761536
Si Si3 0.320343 0.228418 0.706002
Si Si4 0.899627 0.589584 0.270578
Si Si5 0.396930 0.510377 0.844059
O O1 0.676007 0.085524 0.428835
O O2 0.809312 0.044614 0.363672
O O3 0.112249 0.793774 0.728241
O O4 0.074896 0.934859 0.709112
O O5 0.982335 0.862579 0.784907
O O6 0.116630 0.919926 0.815328
O O7 0.250000 0.250000 0.750000
O O8 0.357248 0.141004 0.720877
O O9 0.277599 0.215087 0.643498
O O10 0.921689 0.500000 0.250000
#
# Coordination Sequence:
#
# PCOD9574186 Si02
#       5
#    16  32  32  32  32
#     4  12  26  46  79 106 151 214 252 324 398 494
#     4  11  27  47  73 115 154 199 262 340 395 484
#     4  12  27  47  77 111 153 205 262 325 403 492
#     4  12  26  49  72 114 157 199 262 328 413 484
#     4  11  25  46  77 112 153 201 269 321 402 492
#
# _framework density 23.022259999999999
#
# number of rings (size 3 to 8) (size 9 to 14) (size 15 to 20)
#    0.000    0.444    4.444    3.333   12.444    0.000 
#    0.000    1.111    0.000    0.000    0.000    0.000 
#    0.000    0.000    0.000    0.000    0.000    0.000 
#
# Total GULP energy -401337.951370 kJ/mol
# GULP energy per Si atom -5574.138213 kJ/mol
# Density = 2.296986 g / cm^3
# Si number density = 23.022260 Si / 1000 Ang^3
#
#
#
# Elastic Constant Matrix: (Units=GPa)
#
#
# Indices 1 2 3 4 5 6 
#
# 1 107.0434 30.2298 52.2505 0.0000 0.0000 0.0000
# 2 30.2298 107.0425 52.2503 0.0000 0.0000 0.0000
# 3 52.2505 52.2503 155.3967 0.0000 0.0000 0.0000
# 4 0.0000 0.0000 0.0000 23.9531 0.0000 0.0000
# 5 0.0000 0.0000 0.0000 0.0000 23.9621 0.0000
# 6 0.0000 0.0000 0.0000 0.0000 0.0000 41.0865
#
#
#
# Elastic Compliance Matrix: (Units=1/GPa)
#
#
# Indices 1 2 3 4 5 6 
#
# 1 0.011405 -0.001614 -0.003292 0.000000 0.000000 0.000000
# 2 -0.001614 0.011405 -0.003292 0.000000 0.000000 0.000000
# 3 -0.003292 -0.003292 0.008649 0.000000 0.000000 0.000000
# 4 0.000000 0.000000 0.000000 0.041748 0.000000 0.000000
# 5 0.000000 0.000000 0.000000 0.000000 0.041733 0.000000
# 6 0.000000 0.000000 0.000000 0.000000 0.000000 0.024339
#
#
# Mechanical properties :
#
#
# Convention : Reuss Voigt Hill
#
# Bulk Modulus (GPa) = 66.39012 70.99376 68.69194
# Shear Modulus (GPa) = 31.11484 33.45047 32.28266
#
# Velocity S-wave (km/s) = 3.68028 3.81591 3.74871
# Velocity P-wave (km/s) = 6.85268 7.09358 6.97417
#
# Compressibility (1/GPa) = 0.01506248
#
# Stress axis : x y z
#
# Youngs Moduli (GPa) = 87.68305 87.68233 115.62037
#
# Poissons Ratio (x) = 0.14151 0.38063
# Poissons Ratio (y) = 0.14151 0.38063
# Poissons Ratio (z) = 0.28866 0.28866
#
# Static dielectric constant tensor:
#      x y z
#    x 1.965240 0.000000 0.000000 
#    y 0.000000 1.965250 0.000000 
#    z 0.000000 0.000000 1.901940 
# 
# From -- ./inp_files/10140.got.cif
#   From: 2010.05.17/outbox.cif.g08.bks.cpg/sg142_6_cif.got.tgz:10140.got - 2010.05.20 13:39:18.
