data_PCOD9574309
_publ_section_title
;
Structure prediction by ZEFSAII (Michael W. Deem and Ramdas Pophale) SiO2 
 PCOD9574309
Probable space group: P 31
;
_chemical_formula_sum "Si O2"
_cell_formula_units_Z 21
_cell_length_a 8.173460
_cell_length_b 8.173460
_cell_length_c 18.076745
_cell_angle_alpha 90.000000
_cell_angle_beta 90.000000
_cell_angle_gamma 120.000000
_cell_volume 1045.833976
_symmetry_space_group_name_H-M "P 31"
_symmetry_group_IT_number 144
_symmetry_cell_setting 'hexagonal'
loop_
_space_group_symop_operation_xyz
x,y,z
-y,x-y,1/3+z
-x+y,-x,2/3+z
loop_
_atom_site_type_symbol
_atom_site_label
_atom_site_fract_x
_atom_site_fract_y
_atom_site_fract_z
Si Si1 0.811544 0.811127 0.657860
Si Si2 0.999590 0.811123 0.374706
Si Si3 0.815398 0.240141 0.466681
Si Si4 0.759860 0.184606 0.899221
Si Si5 0.925497 0.616051 0.946292
Si Si6 0.406110 0.203063 0.849617
Si Si7 0.690568 0.616049 0.086276
O O1 0.743209 0.679521 0.729332
O O2 0.865116 0.718644 0.590063
O O3 0.657474 0.869354 0.632873
O O4 0.997525 0.002485 0.682947
O O5 0.936316 0.679506 0.303237
O O6 0.853539 0.718644 0.442505
O O7 0.211890 0.869365 0.399694
O O8 0.822822 0.133087 0.539807
O O9 0.866952 0.445443 0.497576
O O10 0.595064 0.121700 0.439740
O O11 0.878319 0.404938 0.926162
O O12 0.554566 0.133075 0.868325
O O13 0.866907 0.177167 0.826095
O O14 0.794229 0.588439 0.016285
#
# Coordination Sequence:
#
# PCOD9574309 Si02
#       7
#     3   3   3   3   3   3   3
#     4  11  21  35  59  88 116 148 193 246 298 348
#     4  11  21  35  59  88 116 148 193 246 298 348
#     4  10  20  38  61  83 114 155 196 238 292 362
#     4  10  20  38  61  83 114 155 196 238 292 362
#     4   9  19  35  57  85 114 148 192 234 286 351
#     4  10  20  36  58  82 112 154 194 230 294 358
#     4   9  19  35  57  85 114 148 192 234 286 351
#
# _framework density 20.079668000000002
#
# number of rings (size 3 to 8) (size 9 to 14) (size 15 to 20)
#    0.000    2.286    0.000    6.000    0.000    3.429 
#    0.000    2.857    0.000   51.429    0.000    0.000 
#    0.000    0.000    0.000    0.000    0.000    0.000 
#
# Total GULP energy -116960.580690 kJ/mol
# GULP energy per Si atom -5569.551461 kJ/mol
# Density = 2.003397 g / cm^3
# Si number density = 20.079668 Si / 1000 Ang^3
#
#
#
# Elastic Constant Matrix: (Units=GPa)
#
#
# Indices 1 2 3 4 5 6 
#
# 1 45.6080 36.3335 33.0459 0.0005 -17.3261 0.0000
# 2 36.3335 45.6080 33.0459 -0.0005 17.3261 0.0000
# 3 33.0459 33.0459 168.4212 0.0000 0.0000 0.0000
# 4 0.0005 -0.0005 0.0000 34.1790 0.0000 17.3261
# 5 -17.3261 17.3261 0.0000 0.0000 34.1790 0.0005
# 6 0.0000 0.0000 0.0000 17.3261 0.0005 4.6373
#
#
#
# Elastic Compliance Matrix: (Units=1/GPa)
#
#
# Indices 1 2 3 4 5 6 
#
# 1 -0.053054 0.067552 -0.002845 0.000002 -0.061138 0.000000
# 2 0.067552 -0.053054 -0.002845 -0.000002 0.061138 0.000000
# 3 -0.002845 -0.002845 0.007054 0.000000 0.000000 0.000000
# 4 0.000002 -0.000002 0.000000 -0.032727 0.000000 0.122276
# 5 -0.061138 0.061138 0.000000 0.000000 -0.032727 0.000004
# 6 0.000000 0.000000 0.000000 0.122276 0.000004 -0.241213
#
#
# Mechanical properties :
#
#
# Convention : Reuss Voigt Hill
#
# Bulk Modulus (GPa) = 40.53248 51.60973 46.07110
# Shear Modulus (GPa) = -9.59280 25.07987 7.74353
#
# Velocity S-wave (km/s) = -2.18809 3.53798 1.96590
# Velocity P-wave (km/s) = 3.72102 6.51521 5.30537
#
# Compressibility (1/GPa) = 0.02467157
#
# Stress axis : x y z
#
# Youngs Moduli (GPa) = -18.84866 -18.84866 141.76732
#
# Poissons Ratio (x) = 1.27327 0.40329
# Poissons Ratio (y) = 1.27327 0.40329
# Poissons Ratio (z) = -0.05362 -0.05362
#
# Static dielectric constant tensor:
#      x y z
#    x 1.775080 0.000000 0.000000 
#    y 0.000000 1.775080 0.000000 
#    z 0.000000 0.000000 1.723090 
# 
# From -- ./inp_files/803.got.cif
#   From: 2010.05.17/outbox.cif.g08.bks.cpg/sg144_cif.got.tgz:803.got - 2010.05.20 13:46:34.
