data_PCOD9574726
_publ_section_title
;
Structure prediction by ZEFSAII (Michael W. Deem and Ramdas Pophale) SiO2 
 PCOD9574726
Probable space group: R 3
;
_chemical_formula_sum "Si O2"
_cell_formula_units_Z 45
_cell_length_a 17.765275
_cell_length_b 17.765275
_cell_length_c 7.067061
_cell_angle_alpha 90.000000
_cell_angle_beta 90.000000
_cell_angle_gamma 120.000000
_cell_volume 1931.582851
_symmetry_space_group_name_H-M "R 3"
_symmetry_group_IT_number 146
_symmetry_cell_setting 'hexagonal'
loop_
_space_group_symop_operation_xyz
x,y,z
-y,x-y,z
-x+y,-x,z
2/3+x,1/3+y,1/3+z
2/3-y,1/3+x-y,1/3+z
2/3-x+y,1/3-x,1/3+z
1/3+x,2/3+y,2/3+z
1/3-y,2/3+x-y,2/3+z
1/3-x+y,2/3-x,2/3+z
loop_
_atom_site_type_symbol
_atom_site_label
_atom_site_fract_x
_atom_site_fract_y
_atom_site_fract_z
Si Si1 0.204607 0.528966 0.585820
Si Si2 0.610566 0.602045 0.221207
Si Si3 0.018569 0.861591 0.154367
Si Si4 0.271876 0.331887 0.683295
Si Si5 0.087795 0.187913 0.553088
O O1 0.159759 0.425474 0.551867
O O2 0.288353 0.554088 0.712110
O O3 0.146271 0.557320 0.710919
O O4 0.211814 0.568355 0.376473
O O5 0.628576 0.637726 0.431347
O O6 0.531641 0.613530 0.145202
O O7 0.035652 0.885143 0.375881
O O8 0.973976 0.758437 0.118302
O O9 0.305197 0.351194 0.469784
O O10 0.171449 0.259783 0.670222
#
# Coordination Sequence:
#
# PCOD9574726 Si02
#       5
#     9   9   9   9   9
#     4  11  25  43  67 100 147 188 238 297 360 441
#     4  10  21  41  66  99 139 183 236 295 355 426
#     4  12  25  44  69 102 144 192 242 297 361 434
#     4  12  23  43  72 103 140 186 244 303 357 422
#     4  11  24  43  70 104 140 193 240 298 365 427
#
# _framework density 23.296956000000002
#
# number of rings (size 3 to 8) (size 9 to 14) (size 15 to 20)
#    0.000    0.800    6.000    1.600    0.000    1.600 
#    0.000    2.000    0.000    0.000    0.000    0.000 
#    0.000    0.000    0.000    0.000    0.000    0.000 
#
# Total GULP energy -83732.539897 kJ/mol
# GULP energy per Si atom -5582.169326 kJ/mol
# Density = 2.324393 g / cm^3
# Si number density = 23.296956 Si / 1000 Ang^3
#
#
#
# Elastic Constant Matrix: (Units=GPa)
#
#
# Indices 1 2 3 4 5 6 
#
# 1 74.3441 32.0575 41.7530 -2.4147 2.5502 -0.0004
# 2 32.0575 74.3432 41.7516 2.4145 -2.5515 -0.0007
# 3 41.7530 41.7516 142.6668 0.0003 -0.0004 -0.0026
# 4 -2.4147 2.4145 0.0003 40.8359 -0.0005 -2.5511
# 5 2.5502 -2.5515 -0.0004 -0.0005 40.8350 -2.4162
# 6 -0.0004 -0.0007 -0.0026 -2.5511 -2.4162 21.1423
#
#
#
# Elastic Compliance Matrix: (Units=1/GPa)
#
#
# Indices 1 2 3 4 5 6 
#
# 1 0.018096 -0.005895 -0.003571 0.001419 -0.001499 0.000000
# 2 -0.005895 0.018096 -0.003570 -0.001418 0.001499 0.000000
# 3 -0.003571 -0.003570 0.009099 0.000000 0.000000 0.000001
# 4 0.001419 -0.001418 0.000000 0.024843 0.000000 0.002998
# 5 -0.001499 0.001499 0.000000 0.000000 0.024844 0.002839
# 6 0.000000 0.000000 0.000001 0.002998 0.002839 0.047985
#
#
# Mechanical properties :
#
#
# Convention : Reuss Voigt Hill
#
# Bulk Modulus (GPa) = 52.03414 58.05314 55.04364
# Shear Modulus (GPa) = 28.49941 32.28210 30.39076
#
# Velocity S-wave (km/s) = 3.50138 3.72651 3.61570
# Velocity P-wave (km/s) = 6.22333 6.59460 6.41165
#
# Compressibility (1/GPa) = 0.01921815
#
# Stress axis : x y z
#
# Youngs Moduli (GPa) = 55.26122 55.26106 109.89916
#
# Poissons Ratio (x) = 0.32578 0.39242
# Poissons Ratio (y) = 0.32578 0.39239
# Poissons Ratio (z) = 0.19732 0.19731
#
# Static dielectric constant tensor:
#      x y z
#    x 1.964910 0.000000 0.000000 
#    y 0.000000 1.964910 0.000000 
#    z 0.000000 0.000000 1.810860 
# 
# From -- ./inp_files/237.got.cif
#   From: 2010.05.17/outbox.cif.g08.bks.cpg/sg146_cif.got.tgz:237.got - 2010.05.20 13:48:23.
