data_PCOD9574336
_publ_section_title
;
Structure prediction by ZEFSAII (Michael W. Deem and Ramdas Pophale) SiO2 
 PCOD9574336
Probable space group: P 31
;
_chemical_formula_sum "Si O2"
_cell_formula_units_Z 21
_cell_length_a 9.914137
_cell_length_b 9.914137
_cell_length_c 11.890822
_cell_angle_alpha 90.000000
_cell_angle_beta 90.000000
_cell_angle_gamma 120.000000
_cell_volume 1012.167391
_symmetry_space_group_name_H-M "P 31"
_symmetry_group_IT_number 144
_symmetry_cell_setting 'hexagonal'
loop_
_space_group_symop_operation_xyz
x,y,z
-y,x-y,1/3+z
-x+y,-x,2/3+z
loop_
_atom_site_type_symbol
_atom_site_label
_atom_site_fract_x
_atom_site_fract_y
_atom_site_fract_z
Si Si1 0.169122 0.711006 0.473350
Si Si2 0.127044 0.292857 0.227736
Si Si3 0.365901 0.608564 0.324132
Si Si4 0.594757 0.526929 0.454332
Si Si5 0.173242 0.997719 0.527258
Si Si6 0.702294 0.136188 0.992046
Si Si7 0.934905 0.056350 0.397452
O O1 0.250781 0.636749 0.400542
O O2 0.224925 0.702282 0.599317
O O3 0.994655 0.633669 0.423679
O O4 0.239279 0.897553 0.467820
O O5 0.260175 0.471298 0.236522
O O6 0.184572 0.182516 0.170158
O O7 0.992713 0.285197 0.148390
O O8 0.038669 0.228783 0.346662
O O9 0.459759 0.537413 0.387368
O O10 0.693048 0.471108 0.380934
O O11 0.531132 0.433233 0.569323
O O12 0.298295 0.158108 0.584652
O O13 0.068509 0.021276 0.437195
O O14 0.052269 0.893485 0.625410
#
# Coordination Sequence:
#
# PCOD9574336 Si02
#       7
#     3   3   3   3   3   3   3
#     4  12  23  43  73  97 134 184 231 292 356 426
#     4  11  21  42  66  96 132 169 228 283 343 421
#     4  12  24  44  71 101 137 183 234 297 356 429
#     4  12  25  46  66  96 141 183 227 297 357 428
#     4  11  20  40  66  95 129 172 221 275 347 410
#     4  12  24  46  68  96 141 184 229 293 360 424
#     4  10  21  37  68  97 126 169 220 281 335 414
#
# _framework density 20.747554999999998
#
# number of rings (size 3 to 8) (size 9 to 14) (size 15 to 20)
#    0.000    0.571    7.143    1.714    0.000    0.000 
#    5.143    0.000    0.000    0.000    0.000    0.000 
#    0.000    0.000    0.000    0.000    0.000    0.000 
#
# Total GULP energy -117048.028567 kJ/mol
# GULP energy per Si atom -5573.715646 kJ/mol
# Density = 2.070033 g / cm^3
# Si number density = 20.747555 Si / 1000 Ang^3
#
#
#
# Elastic Constant Matrix: (Units=GPa)
#
#
# Indices 1 2 3 4 5 6 
#
# 1 66.5810 22.5544 22.2370 -0.4073 5.7130 0.0000
# 2 22.5544 66.5810 22.2370 0.4073 -5.7130 0.0000
# 3 22.2370 22.2370 62.3057 0.0000 0.0000 0.0000
# 4 -0.4073 0.4073 0.0000 38.4356 0.0000 -5.7130
# 5 5.7130 -5.7130 0.0000 0.0000 38.4356 -0.4073
# 6 0.0000 0.0000 0.0000 -5.7130 -0.4073 22.0133
#
#
#
# Elastic Compliance Matrix: (Units=1/GPa)
#
#
# Indices 1 2 3 4 5 6 
#
# 1 0.018640 -0.004990 -0.004872 0.000250 -0.003512 0.000000
# 2 -0.004990 0.018640 -0.004872 -0.000250 0.003512 0.000000
# 3 -0.004872 -0.004872 0.019527 0.000000 0.000000 0.000000
# 4 0.000250 -0.000250 0.000000 0.027067 0.000000 0.007025
# 5 -0.003512 0.003512 0.000000 0.000000 0.027067 0.000501
# 6 0.000000 0.000000 0.000000 0.007025 0.000501 0.047259
#
#
# Mechanical properties :
#
#
# Convention : Reuss Voigt Hill
#
# Bulk Modulus (GPa) = 36.57630 36.61386 36.59508
# Shear Modulus (GPa) = 25.40915 28.33950 26.87432
#
# Velocity S-wave (km/s) = 3.50334 3.69985 3.60293
# Velocity P-wave (km/s) = 5.83370 5.99478 5.91479
#
# Compressibility (1/GPa) = 0.02734011
#
# Stress axis : x y z
#
# Youngs Moduli (GPa) = 53.64916 53.64916 51.21056
#
# Poissons Ratio (x) = 0.26771 0.24947
# Poissons Ratio (y) = 0.26771 0.24947
# Poissons Ratio (z) = 0.26135 0.26135
#
# Static dielectric constant tensor:
#      x y z
#    x 1.755150 0.000000 0.000000 
#    y 0.000000 1.755150 0.000000 
#    z 0.000000 0.000000 1.830360 
# 
# From -- ./inp_files/607.got.cif
#   From: 2010.05.17/outbox.cif.g08.bks.cpg/sg144_cif.got.tgz:607.got - 2010.05.20 13:46:34.
