data_PCOD9574478
_publ_section_title
;
Structure prediction by ZEFSAII (Michael W. Deem and Ramdas Pophale) SiO2 
 PCOD9574478
Probable space group: P 31
;
_chemical_formula_sum "Si O2"
_cell_formula_units_Z 21
_cell_length_a 8.953280
_cell_length_b 8.953280
_cell_length_c 14.833197
_cell_angle_alpha 90.000000
_cell_angle_beta 90.000000
_cell_angle_gamma 120.000000
_cell_volume 1029.745089
_symmetry_space_group_name_H-M "P 31"
_symmetry_group_IT_number 144
_symmetry_cell_setting 'hexagonal'
loop_
_space_group_symop_operation_xyz
x,y,z
-y,x-y,1/3+z
-x+y,-x,2/3+z
loop_
_atom_site_type_symbol
_atom_site_label
_atom_site_fract_x
_atom_site_fract_y
_atom_site_fract_z
Si Si1 0.347874 0.999998 0.117470
Si Si2 0.721728 0.247450 0.172138
Si Si3 0.247450 0.721733 0.396135
Si Si4 0.273290 0.808198 0.604066
Si Si5 0.808201 0.273293 0.964208
Si Si6 0.113475 0.198241 0.610417
Si Si7 0.915230 0.801756 0.624522
O O1 0.409344 0.891243 0.056748
O O2 0.189766 0.900524 0.186407
O O3 0.518098 0.108753 0.178193
O O4 0.289241 0.099472 0.048532
O O5 0.739485 0.404925 0.229453
O O6 0.850454 0.184672 0.210489
O O7 0.755581 0.281141 0.066425
O O8 0.281143 0.755587 0.501848
O O9 0.404925 0.739492 0.338818
O O10 0.184668 0.850455 0.357784
O O11 0.100217 0.815428 0.621514
O O12 0.432691 0.999998 0.617473
O O13 0.815431 0.100220 0.946759
O O14 0.955256 0.999999 0.617469
#
# Coordination Sequence:
#
# PCOD9574478 Si02
#       7
#     3   3   3   3   3   3   3
#     4  12  26  42  72 104 140 190 240 308 360 444
#     4  12  23  49  67 106 143 191 245 308 371 443
#     4  12  23  49  67 106 143 191 245 308 371 443
#     4  11  27  43  73 100 145 192 244 307 374 451
#     4  11  27  43  73 100 145 192 244 307 374 451
#     4  11  25  45  70 103 140 189 241 304 369 439
#     4  11  25  45  70 103 140 189 241 304 369 439
#
# _framework density 20.393395000000002
#
# number of rings (size 3 to 8) (size 9 to 14) (size 15 to 20)
#    0.000    0.571    5.714    0.000   12.000    3.429 
#    0.000    0.000    0.000    0.000    0.000    0.000 
#    0.000    0.000    0.000    0.000    0.000    0.000 
#
# Total GULP energy -117243.955726 kJ/mol
# GULP energy per Si atom -5583.045511 kJ/mol
# Density = 2.034698 g / cm^3
# Si number density = 20.393395 Si / 1000 Ang^3
#
#
#
# Elastic Constant Matrix: (Units=GPa)
#
#
# Indices 1 2 3 4 5 6 
#
# 1 105.1990 16.1348 51.4269 -16.0749 0.0001 0.0000
# 2 16.1348 105.1990 51.4269 16.0749 -0.0001 0.0000
# 3 51.4269 51.4269 130.5299 0.0000 0.0000 0.0000
# 4 -16.0749 16.0749 0.0000 35.0045 0.0000 -0.0001
# 5 0.0001 -0.0001 0.0000 0.0000 35.0045 -16.0749
# 6 0.0000 0.0000 0.0000 -0.0001 -16.0749 44.5321
#
#
#
# Elastic Compliance Matrix: (Units=1/GPa)
#
#
# Indices 1 2 3 4 5 6 
#
# 1 0.012917 -0.000542 -0.004875 0.006181 0.000000 0.000000
# 2 -0.000542 0.012917 -0.004875 -0.006181 0.000000 0.000000
# 3 -0.004875 -0.004875 0.011503 0.000000 0.000000 0.000000
# 4 0.006181 -0.006181 0.000000 0.034244 0.000000 0.000000
# 5 0.000000 0.000000 0.000000 0.000000 0.034244 0.012361
# 6 0.000000 0.000000 0.000000 0.000000 0.012361 0.026918
#
#
# Mechanical properties :
#
#
# Convention : Reuss Voigt Hill
#
# Bulk Modulus (GPa) = 59.70046 64.32278 62.01162
# Shear Modulus (GPa) = 31.46392 37.70418 34.58405
#
# Velocity S-wave (km/s) = 3.93217 4.30448 4.12253
# Velocity P-wave (km/s) = 7.06781 7.50428 7.28931
#
# Compressibility (1/GPa) = 0.01675029
#
# Stress axis : x y z
#
# Youngs Moduli (GPa) = 77.41896 77.41896 86.93570
#
# Poissons Ratio (x) = 0.04197 0.42385
# Poissons Ratio (y) = 0.04197 0.42385
# Poissons Ratio (z) = 0.37745 0.37745
#
# Static dielectric constant tensor:
#      x y z
#    x 1.755160 0.000000 0.000000 
#    y 0.000000 1.755160 0.000000 
#    z 0.000000 0.000000 1.701530 
# 
# From -- ./inp_files/609.got.cif
#   From: 2010.05.17/outbox.cif.g08.bks.cpg/sg144_cif.got.tgz:609.got - 2010.05.20 13:46:34.
