data_PCOD9574764
_publ_section_title
;
Structure prediction by ZEFSAII (Michael W. Deem and Ramdas Pophale) SiO2 
 PCOD9574764
Probable space group: R 3
;
_chemical_formula_sum "Si O2"
_cell_formula_units_Z 42
_cell_length_a 16.762470
_cell_length_b 16.762470
_cell_length_c 7.281776
_cell_angle_alpha 90.000000
_cell_angle_beta 90.000000
_cell_angle_gamma 120.000000
_cell_volume 1771.919445
_symmetry_space_group_name_H-M "R 3"
_symmetry_group_IT_number 146
_symmetry_cell_setting 'hexagonal'
loop_
_space_group_symop_operation_xyz
x,y,z
-y,x-y,z
-x+y,-x,z
2/3+x,1/3+y,1/3+z
2/3-y,1/3+x-y,1/3+z
2/3-x+y,1/3-x,1/3+z
1/3+x,2/3+y,2/3+z
1/3-y,2/3+x-y,2/3+z
1/3-x+y,2/3-x,2/3+z
loop_
_atom_site_type_symbol
_atom_site_label
_atom_site_fract_x
_atom_site_fract_y
_atom_site_fract_z
Si Si1 0.000000 0.000000 0.641226
Si Si2 0.928384 0.799786 0.100135
Si Si3 0.588030 0.456204 0.017780
Si Si4 0.679593 0.938798 0.248852
Si Si5 0.726319 0.652226 0.161972
Si Si6 0.000000 0.000000 0.091811
O O1 0.944063 0.893850 0.585372
O O2 0.000000 0.000000 0.867090
O O3 0.921695 0.798993 0.880672
O O4 0.836390 0.709307 0.167438
O O5 0.935293 0.895636 0.154478
O O6 0.018696 0.799459 0.164847
O O7 0.504695 0.461127 0.923603
O O8 0.679466 0.552418 0.063798
O O9 0.693923 0.986007 0.448362
O O10 0.697086 0.709837 0.026563
#
# Coordination Sequence:
#
# PCOD9574764 Si02
#       6
#     3   9   9   9   9   3
#     4   9  21  42  73  95 145 184 239 295 364 422
#     4  10  23  43  70 104 144 186 238 293 359 426
#     4  10  23  42  70 106 139 190 238 295 360 425
#     4  12  26  43  70 103 142 183 238 296 355 425
#     4  10  24  42  70 103 141 185 233 291 359 423
#     4   9  21  42  73 107 139 190 242 292 367 419
#
# _framework density 23.703108
#
# number of rings (size 3 to 8) (size 9 to 14) (size 15 to 20)
#    0.000    1.714    2.143    0.000    9.000    1.714 
#    0.000    2.143    0.000    0.000    0.000    0.000 
#    0.000    0.000    0.000    0.000    0.000    0.000 
#
# Total GULP energy -78338.965522 kJ/mol
# GULP energy per Si atom -5595.640394 kJ/mol
# Density = 2.364916 g / cm^3
# Si number density = 23.703108 Si / 1000 Ang^3
#
#
#
# Elastic Constant Matrix: (Units=GPa)
#
#
# Indices 1 2 3 4 5 6 
#
# 1 123.6105 60.9348 15.0259 -1.2132 17.6837 0.0001
# 2 60.9348 123.6104 15.0260 1.2135 -17.6847 0.0000
# 3 15.0259 15.0260 85.6446 0.0005 -0.0016 0.0001
# 4 -1.2132 1.2135 0.0005 18.4105 0.0002 -17.6841
# 5 17.6837 -17.6847 -0.0016 0.0002 18.4097 -1.2134
# 6 0.0001 0.0000 0.0001 -17.6841 -1.2134 31.3378
#
#
#
# Elastic Compliance Matrix: (Units=1/GPa)
#
#
# Indices 1 2 3 4 5 6 
#
# 1 0.020307 -0.014729 -0.000979 0.002310 -0.033656 0.000000
# 2 -0.014729 0.020308 -0.000978 -0.002310 0.033656 0.000000
# 3 -0.000979 -0.000978 0.012020 -0.000001 0.000002 0.000000
# 4 0.002310 -0.002310 -0.000001 0.119272 -0.000002 0.067306
# 5 -0.033656 0.033656 0.000002 -0.000002 0.119283 0.004617
# 6 0.000000 0.000000 0.000000 0.067306 0.004617 0.070070
#
#
# Mechanical properties :
#
#
# Convention : Reuss Voigt Hill
#
# Bulk Modulus (GPa) = 51.91802 57.20434 54.56118
# Shear Modulus (GPa) = 12.46714 29.75684 21.11199
#
# Velocity S-wave (km/s) = 2.29589 3.54700 2.98767
# Velocity P-wave (km/s) = 5.38323 6.40008 5.91355
#
# Compressibility (1/GPa) = 0.01926114
#
# Stress axis : x y z
#
# Youngs Moduli (GPa) = 49.24292 49.24243 83.19767
#
# Poissons Ratio (x) = 0.72532 0.08147
# Poissons Ratio (y) = 0.72532 0.08137
# Poissons Ratio (z) = 0.04822 0.04816
#
# Static dielectric constant tensor:
#      x y z
#    x 1.876170 0.000000 0.000000 
#    y 0.000000 1.876170 0.000000 
#    z 0.000000 0.000000 1.930850 
# 
# From -- ./inp_files/632.got.cif
#   From: 2010.05.17/outbox.cif.g08.bks.cpg/sg146_cif.got.tgz:632.got - 2010.05.20 13:48:23.
