data_PCOD9574359
_publ_section_title
;
Structure prediction by ZEFSAII (Michael W. Deem and Ramdas Pophale) SiO2 
 PCOD9574359
Probable space group: P 31
;
_chemical_formula_sum "Si O2"
_cell_formula_units_Z 24
_cell_length_a 12.670111
_cell_length_b 12.670111
_cell_length_c 7.824486
_cell_angle_alpha 90.000000
_cell_angle_beta 90.000000
_cell_angle_gamma 120.000000
_cell_volume 1087.795578
_symmetry_space_group_name_H-M "P 31"
_symmetry_group_IT_number 144
_symmetry_cell_setting 'hexagonal'
loop_
_space_group_symop_operation_xyz
x,y,z
-y,x-y,1/3+z
-x+y,-x,2/3+z
loop_
_atom_site_type_symbol
_atom_site_label
_atom_site_fract_x
_atom_site_fract_y
_atom_site_fract_z
Si Si1 0.650773 0.787441 0.424390
Si Si2 0.920966 0.983386 0.311346
Si Si3 0.332623 0.877547 0.302579
Si Si4 0.133922 0.664019 0.475246
Si Si5 0.581843 0.276847 0.592076
Si Si6 0.999461 0.478218 0.970833
Si Si7 0.691032 0.040919 0.882170
Si Si8 0.144811 0.905133 0.116412
O O1 0.559735 0.816448 0.315594
O O2 0.611394 0.646050 0.404281
O O3 0.667468 0.815424 0.623783
O O4 0.782825 0.882264 0.345024
O O5 0.972623 0.120661 0.386364
O O6 0.950203 0.000855 0.110080
O O7 0.240058 0.736614 0.338522
O O8 0.423224 0.896088 0.152450
O O9 0.242799 0.930108 0.264906
O O10 0.420602 0.927079 0.464861
O O11 0.016266 0.663972 0.403173
O O12 0.637378 0.315396 0.782258
O O13 0.553336 0.139646 0.577909
O O14 0.452360 0.270356 0.561175
O O15 0.016542 0.589381 0.088937
O O16 0.779854 0.989884 0.824281
#
# Coordination Sequence:
#
# PCOD9574359 Si02
#       8
#     3   3   3   3   3   3   3   3
#     4  10  22  40  61  95 128 169 218 267 331 398
#     4  10  24  38  64  90 128 168 212 264 320 388
#     4  10  22  37  60  88 124 168 210 268 328 389
#     4  10  22  37  60  88 124 168 210 268 328 389
#     4  10  24  44  66  96 128 174 224 278 334 398
#     4  10  22  39  63  91 127 167 216 275 328 395
#     4  10  22  39  63  91 127 167 216 275 328 395
#     4  10  22  40  61  95 128 169 218 267 331 398
#
# _framework density 22.06297
#
# number of rings (size 3 to 8) (size 9 to 14) (size 15 to 20)
#    0.000    2.000    0.000    1.500    8.750    7.000 
#    0.000    0.000    2.750    0.000    0.000    0.000 
#    0.000    0.000    0.000    0.000    0.000    0.000 
#
# Total GULP energy -133730.239452 kJ/mol
# GULP energy per Si atom -5572.093310 kJ/mol
# Density = 2.201275 g / cm^3
# Si number density = 22.062970 Si / 1000 Ang^3
#
#
#
# Elastic Constant Matrix: (Units=GPa)
#
#
# Indices 1 2 3 4 5 6 
#
# 1 56.1396 9.5935 -1.6294 0.1880 -1.8268 0.0000
# 2 9.5935 56.1396 -1.6294 -0.1880 1.8268 0.0000
# 3 -1.6294 -1.6294 49.5479 0.0000 0.0000 0.0000
# 4 0.1880 -0.1880 0.0000 32.7788 0.0000 1.8268
# 5 -1.8268 1.8268 0.0000 0.0000 32.7788 0.1880
# 6 0.0000 0.0000 0.0000 1.8268 0.1880 23.2730
#
#
#
# Elastic Compliance Matrix: (Units=1/GPa)
#
#
# Indices 1 2 3 4 5 6 
#
# 1 0.018409 -0.003171 0.000501 -0.000124 0.001203 0.000000
# 2 -0.003171 0.018409 0.000501 0.000124 -0.001203 0.000000
# 3 0.000501 0.000501 0.020215 0.000000 0.000000 0.000000
# 4 -0.000124 0.000124 0.000000 0.030643 0.000000 -0.002405
# 5 0.001203 -0.001203 0.000000 0.000000 0.030643 -0.000248
# 6 0.000000 0.000000 0.000000 -0.002405 -0.000248 0.043159
#
#
# Mechanical properties :
#
#
# Convention : Reuss Voigt Hill
#
# Bulk Modulus (GPa) = 18.97690 19.38849 19.18270
# Shear Modulus (GPa) = 27.26575 28.13228 27.69902
#
# Velocity S-wave (km/s) = 3.51923 3.57471 3.54708
# Velocity P-wave (km/s) = 5.01330 5.08380 5.04867
#
# Compressibility (1/GPa) = 0.05269564
#
# Stress axis : x y z
#
# Youngs Moduli (GPa) = 54.32219 54.32219 49.46711
#
# Poissons Ratio (x) = 0.17225 -0.02479
# Poissons Ratio (y) = 0.17225 -0.02479
# Poissons Ratio (z) = -0.02722 -0.02722
#
# Static dielectric constant tensor:
#      x y z
#    x 1.829850 0.000000 0.000000 
#    y 0.000000 1.829850 0.000000 
#    z 0.000000 0.000000 1.895420 
# 
# From -- ./inp_files/416.got.cif
#   From: 2010.05.17/outbox.cif.g08.bks.cpg/sg144_cif.got.tgz:416.got - 2010.05.20 13:46:34.
