data_PCOD9574442
_publ_section_title
;
Structure prediction by ZEFSAII (Michael W. Deem and Ramdas Pophale) SiO2 
 PCOD9574442
Probable space group: P 31
;
_chemical_formula_sum "Si O2"
_cell_formula_units_Z 24
_cell_length_a 13.932384
_cell_length_b 13.932384
_cell_length_c 6.519561
_cell_angle_alpha 90.000000
_cell_angle_beta 90.000000
_cell_angle_gamma 120.000000
_cell_volume 1095.973003
_symmetry_space_group_name_H-M "P 31"
_symmetry_group_IT_number 144
_symmetry_cell_setting 'hexagonal'
loop_
_space_group_symop_operation_xyz
x,y,z
-y,x-y,1/3+z
-x+y,-x,2/3+z
loop_
_atom_site_type_symbol
_atom_site_label
_atom_site_fract_x
_atom_site_fract_y
_atom_site_fract_z
Si Si1 0.059769 0.577982 0.265780
Si Si2 0.334571 0.760234 0.645550
Si Si3 0.462305 0.268665 0.855453
Si Si4 0.626493 0.508144 0.818777
Si Si5 0.367037 0.340818 0.225513
Si Si6 0.077139 0.965213 0.549510
Si Si7 0.858849 0.187267 0.791431
Si Si8 0.641664 0.867892 0.251896
O O1 0.165055 0.588822 0.149633
O O2 0.089256 0.688766 0.392835
O O3 0.000192 0.476420 0.423491
O O4 0.976769 0.559045 0.076400
O O5 0.382420 0.737915 0.436656
O O6 0.263214 0.819243 0.587235
O O7 0.582282 0.375420 0.815280
O O8 0.386462 0.216821 0.657153
O O9 0.451717 0.161995 0.963686
O O10 0.425983 0.327725 0.026986
O O11 0.698761 0.579828 0.013045
O O12 0.302691 0.218403 0.312989
O O13 0.289260 0.383345 0.136679
O O14 0.207716 0.037029 0.490722
O O15 0.058926 0.037442 0.723562
O O16 0.074930 0.849357 0.588582
#
# Coordination Sequence:
#
# PCOD9574442 Si02
#       8
#     3   3   3   3   3   3   3   3
#     4  12  25  45  73 108 151 195 250 312 387 474
#     4  12  26  46  71 112 156 195 250 317 395 491
#     4  11  25  41  69 104 149 194 247 303 391 457
#     4  11  27  41  71 109 146 196 252 311 390 472
#     4  11  21  44  68  99 139 193 238 302 367 456
#     4  12  28  51  77 107 147 197 267 330 391 462
#     4  11  26  47  70 104 152 193 255 323 387 463
#     4  12  26  45  77 105 144 203 249 314 400 459
#
# _framework density 21.898349
#
# number of rings (size 3 to 8) (size 9 to 14) (size 15 to 20)
#    0.000    0.500    5.000    2.250    5.250    3.000 
#    2.250    0.000    0.000    0.000    0.000    0.000 
#    0.000    0.000    0.000    0.000    0.000    0.000 
#
# Total GULP energy -133723.974229 kJ/mol
# GULP energy per Si atom -5571.832260 kJ/mol
# Density = 2.184851 g / cm^3
# Si number density = 21.898349 Si / 1000 Ang^3
#
#
#
# Elastic Constant Matrix: (Units=GPa)
#
#
# Indices 1 2 3 4 5 6 
#
# 1 94.0816 30.2491 39.3207 -0.3166 -2.2468 0.0000
# 2 30.2491 94.0816 39.3207 0.3166 2.2468 0.0000
# 3 39.3207 39.3207 101.6051 0.0000 0.0000 0.0000
# 4 -0.3166 0.3166 0.0000 30.8738 0.0000 2.2468
# 5 -2.2468 2.2468 0.0000 0.0000 30.8738 -0.3166
# 6 0.0000 0.0000 0.0000 2.2468 -0.3166 31.9163
#
#
#
# Elastic Compliance Matrix: (Units=1/GPa)
#
#
# Indices 1 2 3 4 5 6 
#
# 1 0.013199 -0.002549 -0.004121 0.000161 0.001146 0.000000
# 2 -0.002549 0.013199 -0.004121 -0.000161 -0.001146 0.000000
# 3 -0.004121 -0.004121 0.013032 0.000000 0.000000 0.000000
# 4 0.000161 -0.000161 0.000000 0.032560 0.000000 -0.002292
# 5 0.001146 -0.001146 0.000000 0.000000 0.032560 0.000323
# 6 0.000000 0.000000 0.000000 -0.002292 0.000323 0.031497
#
#
# Mechanical properties :
#
#
# Convention : Reuss Voigt Hill
#
# Bulk Modulus (GPa) = 56.03493 56.39439 56.21466
# Shear Modulus (GPa) = 30.56611 30.79130 30.67871
#
# Velocity S-wave (km/s) = 3.74012 3.75387 3.74700
# Velocity P-wave (km/s) = 6.65549 6.67813 6.66682
#
# Compressibility (1/GPa) = 0.01784601
#
# Stress axis : x y z
#
# Youngs Moduli (GPa) = 75.76257 75.76257 76.73405
#
# Poissons Ratio (x) = 0.19313 0.31626
# Poissons Ratio (y) = 0.19313 0.31626
# Poissons Ratio (z) = 0.31226 0.31226
#
# Static dielectric constant tensor:
#      x y z
#    x 1.897820 0.000000 0.000000 
#    y 0.000000 1.897820 0.000000 
#    z 0.000000 0.000000 1.796290 
# 
# From -- ./inp_files/157.got.cif
#   From: 2010.05.17/outbox.cif.g08.bks.cpg/sg144_cif.got.tgz:157.got - 2010.05.20 13:46:34.
