data_PCOD9574672
_publ_section_title
;
Structure prediction by ZEFSAII (Michael W. Deem and Ramdas Pophale) SiO2 
 PCOD9574672
Probable space group: R 3
;
_chemical_formula_sum "Si O2"
_cell_formula_units_Z 60
_cell_length_a 16.930636
_cell_length_b 16.930636
_cell_length_c 11.400856
_cell_angle_alpha 90.000000
_cell_angle_beta 90.000000
_cell_angle_gamma 120.000000
_cell_volume 2830.183778
_symmetry_space_group_name_H-M "R 3"
_symmetry_group_IT_number 146
_symmetry_cell_setting 'hexagonal'
loop_
_space_group_symop_operation_xyz
x,y,z
-y,x-y,z
-x+y,-x,z
2/3+x,1/3+y,1/3+z
2/3-y,1/3+x-y,1/3+z
2/3-x+y,1/3-x,1/3+z
1/3+x,2/3+y,2/3+z
1/3-y,2/3+x-y,2/3+z
1/3-x+y,2/3-x,2/3+z
loop_
_atom_site_type_symbol
_atom_site_label
_atom_site_fract_x
_atom_site_fract_y
_atom_site_fract_z
Si Si1 0.818518 0.627718 0.538850
Si Si2 0.000000 0.000000 0.093545
Si Si3 0.285962 0.317877 0.865141
Si Si4 0.188549 0.768516 0.024043
Si Si5 0.673608 0.855194 0.638996
Si Si6 0.852715 0.370685 0.444083
Si Si7 0.333335 0.666667 0.044848
Si Si8 0.133828 0.565687 0.105322
O O1 0.918207 0.634225 0.537190
O O2 0.832666 0.716821 0.469831
O O3 0.736268 0.545137 0.468198
O O4 0.779491 0.606093 0.671349
O O5 0.944409 0.895250 0.058112
O O6 0.000000 0.000000 0.236967
O O7 0.229450 0.306470 0.748181
O O8 0.297300 0.230595 0.881884
O O9 0.231422 0.330622 0.971545
O O10 0.154198 0.667430 0.071680
O O11 0.248499 0.793685 0.906073
O O12 0.605422 0.755763 0.691585
O O13 0.759845 0.867172 0.566960
O O14 0.236212 0.584223 0.087680
#
# Coordination Sequence:
#
# PCOD9574672 Si02
#       8
#     9   3   9   9   9   9   3   9
#     4  11  19  37  61  93 128 168 216 278 328 388
#     4  12  18  39  69 100 128 166 222 279 328 377
#     4  10  18  33  61  89 124 160 225 268 313 375
#     4  10  19  32  58  92 120 163 216 273 314 385
#     4  11  21  35  59  99 125 171 217 278 320 399
#     4  11  23  37  63  99 133 166 219 277 336 388
#     4  12  21  39  66  94 128 163 228 276 328 389
#     4  11  21  36  63  94 122 165 221 279 325 393
#
# _framework density 21.200036000000001
#
# number of rings (size 3 to 8) (size 9 to 14) (size 15 to 20)
#    0.000    1.200    6.000    2.700    0.000    0.000 
#    0.000    3.000    6.600    0.000    0.000    0.000 
#    0.000    0.000    0.000    0.000    0.000    0.000 
#
# Total GULP energy -111419.736720 kJ/mol
# GULP energy per Si atom -5570.986836 kJ/mol
# Density = 2.115178 g / cm^3
# Si number density = 21.200036 Si / 1000 Ang^3
#
#
#
# Elastic Constant Matrix: (Units=GPa)
#
#
# Indices 1 2 3 4 5 6 
#
# 1 57.1859 -1.5473 19.5582 -2.5247 0.3753 -0.0002
# 2 -1.5473 57.1852 19.5579 2.5247 -0.3749 -0.0001
# 3 19.5582 19.5579 89.6979 0.0000 0.0001 0.0000
# 4 -2.5247 2.5247 0.0000 33.3854 0.0001 -0.3750
# 5 0.3753 -0.3749 0.0001 0.0001 33.3856 -2.5246
# 6 -0.0002 -0.0001 0.0000 -0.3750 -2.5246 29.3664
#
#
#
# Elastic Compliance Matrix: (Units=1/GPa)
#
#
# Indices 1 2 3 4 5 6 
#
# 1 0.019184 0.002044 -0.004628 0.001296 -0.000193 0.000000
# 2 0.002044 0.019184 -0.004628 -0.001296 0.000192 0.000000
# 3 -0.004628 -0.004628 0.013167 0.000000 0.000000 0.000000
# 4 0.001296 -0.001296 0.000000 0.030154 0.000000 0.000385
# 5 -0.000193 0.000192 0.000000 0.000000 0.030153 0.002592
# 6 0.000000 0.000000 0.000000 0.000385 0.002592 0.034280
#
#
# Mechanical properties :
#
#
# Convention : Reuss Voigt Hill
#
# Bulk Modulus (GPa) = 26.94868 31.02298 28.98583
# Shear Modulus (GPa) = 28.91550 30.32748 29.62149
#
# Velocity S-wave (km/s) = 3.69716 3.78635 3.74202
# Velocity P-wave (km/s) = 5.56458 5.81210 5.68968
#
# Compressibility (1/GPa) = 0.03710757
#
# Stress axis : x y z
#
# Youngs Moduli (GPa) = 52.12787 52.12732 75.94776
#
# Poissons Ratio (x) = -0.10652 0.35152
# Poissons Ratio (y) = -0.10653 0.35152
# Poissons Ratio (z) = 0.24127 0.24127
#
# Static dielectric constant tensor:
#      x y z
#    x 1.862760 0.000000 0.000000 
#    y 0.000000 1.862760 0.000000 
#    z 0.000000 0.000000 1.825520 
# 
# From -- ./inp_files/1263.got.cif
#   From: 2010.05.17/outbox.cif.g08.bks.cpg/sg146_cif.got.tgz:1263.got - 2010.05.20 13:48:23.
