data_PCOD9574619
_publ_section_title
;
Structure prediction by ZEFSAII (Michael W. Deem and Ramdas Pophale) SiO2 
 PCOD9574619
Probable space group: P 32
;
_chemical_formula_sum "Si O2"
_cell_formula_units_Z 24
_cell_length_a 14.482625
_cell_length_b 14.482625
_cell_length_c 6.580658
_cell_angle_alpha 90.000000
_cell_angle_beta 90.000000
_cell_angle_gamma 120.000000
_cell_volume 1195.348453
_symmetry_space_group_name_H-M "P 32"
_symmetry_group_IT_number 145
_symmetry_cell_setting 'hexagonal'
loop_
_space_group_symop_operation_xyz
x,y,z
-y,x-y,2/3+z
-x+y,-x,1/3+z
loop_
_atom_site_type_symbol
_atom_site_label
_atom_site_fract_x
_atom_site_fract_y
_atom_site_fract_z
Si Si1 0.634506 0.884740 0.244570
Si Si2 0.652677 0.693549 0.371283
Si Si3 0.169167 0.188123 0.284172
Si Si4 0.222597 0.020913 0.417527
Si Si5 0.609575 0.229003 0.943852
Si Si6 0.841429 0.225363 0.427718
Si Si7 0.346678 0.336632 0.958285
Si Si8 0.461173 0.459160 0.323254
O O1 0.618321 0.767478 0.247921
O O2 0.620693 0.913857 0.470018
O O3 0.568140 0.920084 0.100974
O O4 0.755809 0.960038 0.170153
O O5 0.702264 0.740392 0.591088
O O6 0.743411 0.681798 0.251956
O O7 0.551006 0.576564 0.381819
O O8 0.168355 0.078327 0.296632
O O9 0.063767 0.190996 0.224608
O O10 0.260234 0.260373 0.122827
O O11 0.324709 0.108576 0.547250
O O12 0.708202 0.304603 0.799930
O O13 0.505622 0.186072 0.797127
O O14 0.615817 0.128571 0.034912
O O15 0.736139 0.118012 0.499409
O O16 0.437133 0.434748 0.084257
#
# Coordination Sequence:
#
# PCOD9574619 Si02
#       8
#     3   3   3   3   3   3   3   3
#     4  11  23  43  69  92 130 173 222 279 334 393
#     4  11  24  45  67  95 131 178 224 274 334 405
#     4  11  24  37  64  98 130 171 220 262 333 395
#     4  12  24  40  65  97 135 175 222 274 326 407
#     4  11  25  40  64  98 136 176 223 270 327 405
#     4  11  23  40  65  92 133 176 218 270 336 394
#     4  11  21  42  64  94 130 171 214 283 332 388
#     4  10  26  43  66 100 131 172 225 278 340 403
#
# _framework density 20.077826999999999
#
# number of rings (size 3 to 8) (size 9 to 14) (size 15 to 20)
#    0.000    1.000    6.250    0.000    1.750    6.000 
#    0.000    1.250    0.000    0.000    0.000    0.000 
#    0.000    0.000    0.000    0.000    0.000    0.000 
#
# Total GULP energy -133917.368921 kJ/mol
# GULP energy per Si atom -5579.890372 kJ/mol
# Density = 2.003213 g / cm^3
# Si number density = 20.077827 Si / 1000 Ang^3
#
#
#
# Elastic Constant Matrix: (Units=GPa)
#
#
# Indices 1 2 3 4 5 6 
#
# 1 74.5758 17.9941 28.0126 -1.2415 1.3848 0.0000
# 2 17.9941 74.5758 28.0126 1.2415 -1.3848 0.0000
# 3 28.0126 28.0126 65.7596 0.0000 0.0000 0.0000
# 4 -1.2415 1.2415 0.0000 28.5926 0.0000 -1.3848
# 5 1.3848 -1.3848 0.0000 0.0000 28.5926 -1.2415
# 6 0.0000 0.0000 0.0000 -1.3848 -1.2415 28.2908
#
#
#
# Elastic Compliance Matrix: (Units=1/GPa)
#
#
# Indices 1 2 3 4 5 6 
#
# 1 0.016152 -0.001597 -0.006200 0.000771 -0.000860 0.000000
# 2 -0.001597 0.016152 -0.006200 -0.000771 0.000860 0.000000
# 3 -0.006200 -0.006200 0.020489 0.000000 0.000000 0.000000
# 4 0.000771 -0.000771 0.000000 0.035124 0.000000 0.001719
# 5 -0.000860 0.000860 0.000000 0.000000 0.035124 0.001541
# 6 0.000000 0.000000 0.000000 0.001719 0.001541 0.035499
#
#
# Mechanical properties :
#
#
# Convention : Reuss Voigt Hill
#
# Bulk Modulus (GPa) = 40.32490 40.32777 40.32633
# Shear Modulus (GPa) = 25.66693 26.48800 26.07746
#
# Velocity S-wave (km/s) = 3.57931 3.63611 3.60782
# Velocity P-wave (km/s) = 6.09999 6.14473 6.12240
#
# Compressibility (1/GPa) = 0.02479857
#
# Stress axis : x y z
#
# Youngs Moduli (GPa) = 61.91054 61.91054 48.80579
#
# Poissons Ratio (x) = 0.09888 0.30261
# Poissons Ratio (y) = 0.09888 0.30261
# Poissons Ratio (z) = 0.38386 0.38386
#
# Static dielectric constant tensor:
#      x y z
#    x 1.730310 0.000000 0.000000 
#    y 0.000000 1.730310 0.000000 
#    z 0.000000 0.000000 1.719470 
# 
# From -- ./inp_files/150.got.cif
#   From: 2010.05.17/outbox.cif.g08.bks.cpg/sg145_cif.got.tgz:150.got - 2010.05.20 13:47:28.
