data_PCOD9574165
_publ_section_title
;
Structure prediction by ZEFSAII (Michael W. Deem and Ramdas Pophale) SiO2 
 PCOD9574165
Probable space group: I 41/A C D
;
_chemical_formula_sum "Si O2"
_cell_formula_units_Z 80
_cell_length_a 13.458352
_cell_length_b 13.458352
_cell_length_c 22.459320
_cell_angle_alpha 90.000000
_cell_angle_beta 90.000000
_cell_angle_gamma 90.000000
_cell_volume 4067.994611
_symmetry_space_group_name_H-M "I 41/A C D"
_symmetry_group_IT_number 142
_space_group.IT_coordinate_system_code '2'
_symmetry_cell_setting 'tetragonal'
loop_
_space_group_symop_operation_xyz
x,y,z
1/4-y,3/4+x,1/4+z
-x,1/2-y,z
1/4+y,1/4-x,3/4+z
x,-y,1/2-z
1/2-x,y,-z
3/4+y,1/4+x,1/4-z
1/4-y,1/4-x,1/4-z
-x,-y,-z
3/4+y,1/4-x,3/4-z
x,1/2+y,-z
3/4-y,3/4+x,1/4-z
-x,y,1/2+z
1/2+x,-y,z
1/4-y,3/4-x,3/4+z
3/4+y,3/4+x,3/4+z
1/2+x,1/2+y,1/2+z
3/4-y,1/4+x,3/4+z
1/2-x,-y,1/2+z
3/4+y,3/4-x,1/4+z
1/2+x,1/2-y,-z
-x,1/2+y,1/2-z
1/4+y,3/4+x,3/4-z
3/4-y,3/4-x,3/4-z
1/2-x,1/2-y,1/2-z
1/4+y,3/4-x,1/4-z
1/2+x,y,1/2-z
1/4-y,1/4+x,3/4-z
1/2-x,1/2+y,z
x,1/2-y,1/2+z
3/4-y,1/4-x,1/4+z
1/4+y,1/4+x,1/4+z
loop_
_atom_site_type_symbol
_atom_site_label
_atom_site_fract_x
_atom_site_fract_y
_atom_site_fract_z
Si Si1 0.006235 0.105204 0.665456
Si Si2 0.338739 0.500000 0.750000
Si Si3 0.422838 0.040609 0.950413
O O1 0.067556 0.182445 0.625000
O O2 0.087593 0.062635 0.709112
O O3 0.909531 0.147946 0.700252
O O4 0.964467 0.027215 0.616590
O O5 0.269165 0.427823 0.711695
O O6 0.500000 0.000000 0.000000
#
# Coordination Sequence:
#
# PCOD9574165 Si02
#       3
#    32  16  32
#     4  11  25  44  67 102 141 180 233 299 346 411
#     4  12  26  42  70 102 138 180 234 290 348 426
#     4  11  24  43  71  97 136 184 230 279 357 418
#
# _framework density 19.665707999999999
#
# number of rings (size 3 to 8) (size 9 to 14) (size 15 to 20)
#    0.000    0.800    4.000    3.600    5.600    3.200 
#    0.000    0.000    0.000    0.000    0.000    0.000 
#    0.000    0.000    0.000    0.000    0.000    0.000 
#
# Total GULP energy -223041.002762 kJ/mol
# GULP energy per Si atom -5576.025069 kJ/mol
# Density = 1.962095 g / cm^3
# Si number density = 19.665708 Si / 1000 Ang^3
#
#
#
# Elastic Constant Matrix: (Units=GPa)
#
#
# Indices 1 2 3 4 5 6 
#
# 1 132.6834 74.8793 63.3648 0.0000 0.0000 0.0000
# 2 74.8793 132.6841 63.3650 0.0000 0.0000 0.0000
# 3 63.3648 63.3650 97.3237 0.0000 0.0000 0.0000
# 4 0.0000 0.0000 0.0000 47.6814 0.0000 0.0000
# 5 0.0000 0.0000 0.0000 0.0000 47.6817 0.0000
# 6 0.0000 0.0000 0.0000 0.0000 0.0000 15.5011
#
#
#
# Elastic Compliance Matrix: (Units=1/GPa)
#
#
# Indices 1 2 3 4 5 6 
#
# 1 0.012648 -0.004652 -0.005206 0.000000 0.000000 0.000000
# 2 -0.004652 0.012648 -0.005206 0.000000 0.000000 0.000000
# 3 -0.005206 -0.005206 0.017054 0.000000 0.000000 0.000000
# 4 0.000000 0.000000 0.000000 0.020973 0.000000 0.000000
# 5 0.000000 0.000000 0.000000 0.000000 0.020972 0.000000
# 6 0.000000 0.000000 0.000000 0.000000 0.000000 0.064511
#
#
# Mechanical properties :
#
#
# Convention : Reuss Voigt Hill
#
# Bulk Modulus (GPa) = 81.81857 85.10104 83.45981
# Shear Modulus (GPa) = 27.32092 32.91164 30.11628
#
# Velocity S-wave (km/s) = 3.73133 4.09535 3.91757
# Velocity P-wave (km/s) = 7.76265 8.10742 7.93691
#
# Compressibility (1/GPa) = 0.01222216
#
# Stress axis : x y z
#
# Youngs Moduli (GPa) = 79.06255 79.06297 58.63556
#
# Poissons Ratio (x) = 0.36776 0.30528
# Poissons Ratio (y) = 0.36776 0.30528
# Poissons Ratio (z) = 0.41163 0.41163
#
# Static dielectric constant tensor:
#      x y z
#    x 1.733830 0.000000 0.000000 
#    y 0.000000 1.733820 0.000000 
#    z 0.000000 0.000000 1.707800 
# 
# From -- ./inp_files/8205.got.cif
#   From: 2010.05.17/outbox.cif.g08.bks.cpg/sg142_5_cif.got.tgz:8205.got - 2010.05.20 13:39:18.
