data_PCOD9574475
_publ_section_title
;
Structure prediction by ZEFSAII (Michael W. Deem and Ramdas Pophale) SiO2 
 PCOD9574475
Probable space group: P 31
;
_chemical_formula_sum "Si O2"
_cell_formula_units_Z 18
_cell_length_a 11.699677
_cell_length_b 11.699677
_cell_length_c 6.527845
_cell_angle_alpha 90.000000
_cell_angle_beta 90.000000
_cell_angle_gamma 120.000000
_cell_volume 773.834717
_symmetry_space_group_name_H-M "P 31"
_symmetry_group_IT_number 144
_symmetry_cell_setting 'hexagonal'
loop_
_space_group_symop_operation_xyz
x,y,z
-y,x-y,1/3+z
-x+y,-x,2/3+z
loop_
_atom_site_type_symbol
_atom_site_label
_atom_site_fract_x
_atom_site_fract_y
_atom_site_fract_z
Si Si1 0.768014 0.322232 0.166480
Si Si2 0.344720 0.927272 0.729688
Si Si3 0.127379 0.813412 0.417038
Si Si4 0.739675 0.091172 0.419001
Si Si5 0.104774 0.005198 0.120984
Si Si6 0.143220 0.699035 0.024004
O O1 0.734770 0.423117 0.286939
O O2 0.713823 0.201966 0.330066
O O3 0.924338 0.376867 0.129667
O O4 0.249599 0.921690 0.547851
O O5 0.247438 0.832060 0.907814
O O6 0.419151 0.851405 0.647020
O O7 0.016999 0.719428 0.574761
O O8 0.074783 0.884362 0.265655
O O9 0.161971 0.728102 0.264816
O O10 0.895585 0.154944 0.450001
O O11 0.661979 0.005115 0.614738
O O12 0.041956 0.083644 0.233192
#
# Coordination Sequence:
#
# PCOD9574475 Si02
#       6
#     3   3   3   3   3   3
#     4  12  28  50  75 106 150 200 250 308 371 449
#     4  11  28  45  73 107 140 194 247 301 370 436
#     4  11  25  42  68 102 144 182 237 304 356 438
#     4  11  25  42  68 105 139 187 241 292 369 429
#     4  12  23  39  69 106 143 185 229 294 364 430
#     4  11  25  46  69 102 142 188 238 305 364 432
#
# _framework density 23.260781000000001
#
# number of rings (size 3 to 8) (size 9 to 14) (size 15 to 20)
#    0.000    0.667    3.333    3.000    7.000    8.000 
#    0.000    0.000    0.000    0.000    0.000    0.000 
#    0.000    0.000    0.000    0.000    0.000    0.000 
#
# Total GULP energy -100666.007188 kJ/mol
# GULP energy per Si atom -5592.555955 kJ/mol
# Density = 2.320784 g / cm^3
# Si number density = 23.260781 Si / 1000 Ang^3
#
#
#
# Elastic Constant Matrix: (Units=GPa)
#
#
# Indices 1 2 3 4 5 6 
#
# 1 89.9275 22.6973 25.4712 2.0333 -7.5353 0.0000
# 2 22.6973 89.9275 25.4712 -2.0333 7.5353 0.0000
# 3 25.4712 25.4712 89.1956 0.0000 0.0000 0.0000
# 4 2.0333 -2.0333 0.0000 32.8661 0.0000 7.5353
# 5 -7.5353 7.5353 0.0000 0.0000 32.8661 2.0333
# 6 0.0000 0.0000 0.0000 7.5353 2.0333 33.6151
#
#
#
# Elastic Compliance Matrix: (Units=1/GPa)
#
#
# Indices 1 2 3 4 5 6 
#
# 1 0.012969 -0.002773 -0.002912 -0.000974 0.003609 0.000000
# 2 -0.002773 0.012969 -0.002912 0.000974 -0.003609 0.000000
# 3 -0.002912 -0.002912 0.012874 0.000000 0.000000 0.000000
# 4 -0.000974 0.000974 0.000000 0.032202 0.000000 -0.007218
# 5 0.003609 -0.003609 0.000000 0.000000 0.032202 -0.001948
# 6 0.000000 0.000000 0.000000 -0.007218 -0.001948 0.031484
#
#
# Mechanical properties :
#
#
# Convention : Reuss Voigt Hill
#
# Bulk Modulus (GPa) = 46.25400 46.25890 46.25645
# Shear Modulus (GPa) = 31.42675 32.89688 32.16181
#
# Velocity S-wave (km/s) = 3.67967 3.76475 3.72245
# Velocity P-wave (km/s) = 6.16291 6.23121 6.19715
#
# Compressibility (1/GPa) = 0.02161975
#
# Stress axis : x y z
#
# Youngs Moduli (GPa) = 77.10622 77.10622 77.67446
#
# Poissons Ratio (x) = 0.21382 0.22616
# Poissons Ratio (y) = 0.21382 0.22616
# Poissons Ratio (z) = 0.22451 0.22451
#
# Static dielectric constant tensor:
#      x y z
#    x 1.900200 0.000000 0.000000 
#    y 0.000000 1.900200 0.000000 
#    z 0.000000 0.000000 1.848840 
# 
# From -- ./inp_files/92.got.cif
#   From: 2010.05.17/outbox.cif.g08.bks.cpg/sg144_cif.got.tgz:92.got - 2010.05.20 13:46:34.
