data_PCOD9574062
_publ_section_title
;
Structure prediction by ZEFSAII (Michael W. Deem and Ramdas Pophale) SiO2 
 PCOD9574062
Probable space group: I 41/A C D
;
_chemical_formula_sum "Si O2"
_cell_formula_units_Z 192
_cell_length_a 19.932365
_cell_length_b 19.932365
_cell_length_c 22.196318
_cell_angle_alpha 90.000000
_cell_angle_beta 90.000000
_cell_angle_gamma 90.000000
_cell_volume 8818.578818
_symmetry_space_group_name_H-M "I 41/A C D"
_symmetry_group_IT_number 142
_space_group.IT_coordinate_system_code '2'
_symmetry_cell_setting 'tetragonal'
loop_
_space_group_symop_operation_xyz
x,y,z
1/4-y,3/4+x,1/4+z
-x,1/2-y,z
1/4+y,1/4-x,3/4+z
x,-y,1/2-z
1/2-x,y,-z
3/4+y,1/4+x,1/4-z
1/4-y,1/4-x,1/4-z
-x,-y,-z
3/4+y,1/4-x,3/4-z
x,1/2+y,-z
3/4-y,3/4+x,1/4-z
-x,y,1/2+z
1/2+x,-y,z
1/4-y,3/4-x,3/4+z
3/4+y,3/4+x,3/4+z
1/2+x,1/2+y,1/2+z
3/4-y,1/4+x,3/4+z
1/2-x,-y,1/2+z
3/4+y,3/4-x,1/4+z
1/2+x,1/2-y,-z
-x,1/2+y,1/2-z
1/4+y,3/4+x,3/4-z
3/4-y,3/4-x,3/4-z
1/2-x,1/2-y,1/2-z
1/4+y,3/4-x,1/4-z
1/2+x,y,1/2-z
1/4-y,1/4+x,3/4-z
1/2-x,1/2+y,z
x,1/2-y,1/2+z
3/4-y,1/4-x,1/4+z
1/4+y,1/4+x,1/4+z
loop_
_atom_site_type_symbol
_atom_site_label
_atom_site_fract_x
_atom_site_fract_y
_atom_site_fract_z
Si Si1 0.330506 0.788233 0.192526
Si Si2 0.940623 0.407877 0.162414
Si Si3 0.407756 0.684844 0.380874
Si Si4 0.790356 0.439663 0.057858
Si Si5 0.426935 0.715992 0.507819
Si Si6 0.306201 0.164222 0.723475
O O1 0.316691 0.747524 0.132000
O O2 0.407044 0.812091 0.193959
O O3 0.323544 0.737150 0.249170
O O4 0.269739 0.839400 0.199900
O O5 0.897779 0.352222 0.125000
O O6 0.890234 0.466818 0.181200
O O7 0.975199 0.369645 0.217451
O O8 0.409107 0.766019 0.375240
O O9 0.393143 0.677921 0.451568
O O10 0.358374 0.653399 0.331298
O O11 0.780593 0.469408 0.125000
O O12 0.750000 0.464679 0.000000
O O13 0.865489 0.441405 0.030894
O O14 0.500000 0.750000 0.493350
#
# Coordination Sequence:
#
# PCOD9574062 Si02
#       6
#    32  32  32  32  32  32
#     4  11  22  37  61  90 127 170 212 267 347 404
#     4  11  21  37  62  98 128 160 223 277 337 400
#     4  11  20  33  56  89 127 165 214 271 338 397
#     4  11  24  45  71  99 130 179 232 276 330 406
#     4  12  20  34  60  96 130 166 209 282 348 405
#     4  11  23  41  59  90 132 170 219 271 328 409
#
# _framework density 21.772214999999999
#
# number of rings (size 3 to 8) (size 9 to 14) (size 15 to 20)
#    0.000    0.833    8.333    1.500    0.000    4.000 
#    0.000    1.667    0.000    1.000    0.000    0.000 
#    0.000    0.000    0.000    0.000    0.000    0.000 
#
# Total GULP energy -535426.223264 kJ/mol
# GULP energy per Si atom -5577.356492 kJ/mol
# Density = 2.172266 g / cm^3
# Si number density = 21.772215 Si / 1000 Ang^3
#
#
#
# Elastic Constant Matrix: (Units=GPa)
#
#
# Indices 1 2 3 4 5 6 
#
# 1 37.4545 4.5027 19.1466 0.0000 0.0000 0.0000
# 2 4.5027 37.4544 19.1466 0.0000 0.0000 0.0000
# 3 19.1466 19.1466 140.6424 0.0000 0.0000 0.0000
# 4 0.0000 0.0000 0.0000 24.6227 0.0000 0.0000
# 5 0.0000 0.0000 0.0000 0.0000 24.6224 0.0000
# 6 0.0000 0.0000 0.0000 0.0000 0.0000 10.3692
#
#
#
# Elastic Compliance Matrix: (Units=1/GPa)
#
#
# Indices 1 2 3 4 5 6 
#
# 1 0.028781 -0.001566 -0.003705 0.000000 0.000000 0.000000
# 2 -0.001566 0.028781 -0.003705 0.000000 0.000000 0.000000
# 3 -0.003705 -0.003705 0.008119 0.000000 0.000000 0.000000
# 4 0.000000 0.000000 0.000000 0.040613 0.000000 0.000000
# 5 0.000000 0.000000 0.000000 0.000000 0.040613 0.000000
# 6 0.000000 0.000000 0.000000 0.000000 0.000000 0.096440
#
#
# Mechanical properties :
#
#
# Convention : Reuss Voigt Hill
#
# Bulk Modulus (GPa) = 20.95135 33.46033 27.20584
# Shear Modulus (GPa) = 18.03689 23.43989 20.73839
#
# Velocity S-wave (km/s) = 2.88138 3.28471 3.08963
# Velocity P-wave (km/s) = 4.55123 5.45779 5.02500
#
# Compressibility (1/GPa) = 0.04772961
#
# Stress axis : x y z
#
# Youngs Moduli (GPa) = 34.74477 34.74472 123.16778
#
# Poissons Ratio (x) = 0.05441 0.45634
# Poissons Ratio (y) = 0.05441 0.45634
# Poissons Ratio (z) = 0.12873 0.12873
#
# Static dielectric constant tensor:
#      x y z
#    x 1.864590 0.000000 0.000000 
#    y 0.000000 1.864590 0.000000 
#    z 0.000000 0.000000 1.885570 
# 
# From -- ./inp_files/10442.got.cif
#   From: 2010.05.17/outbox.cif.g08.bks.cpg/sg142_6_cif.got.tgz:10442.got - 2010.05.20 13:39:18.
