data_PCOD9574675
_publ_section_title
;
Structure prediction by ZEFSAII (Michael W. Deem and Ramdas Pophale) SiO2 
 PCOD9574675
Probable space group: R 3
;
_chemical_formula_sum "Si O2"
_cell_formula_units_Z 60
_cell_length_a 14.152085
_cell_length_b 14.152085
_cell_length_c 14.789298
_cell_angle_alpha 90.000000
_cell_angle_beta 90.000000
_cell_angle_gamma 120.000000
_cell_volume 2565.187107
_symmetry_space_group_name_H-M "R 3"
_symmetry_group_IT_number 146
_symmetry_cell_setting 'hexagonal'
loop_
_space_group_symop_operation_xyz
x,y,z
-y,x-y,z
-x+y,-x,z
2/3+x,1/3+y,1/3+z
2/3-y,1/3+x-y,1/3+z
2/3-x+y,1/3-x,1/3+z
1/3+x,2/3+y,2/3+z
1/3-y,2/3+x-y,2/3+z
1/3-x+y,2/3-x,2/3+z
loop_
_atom_site_type_symbol
_atom_site_label
_atom_site_fract_x
_atom_site_fract_y
_atom_site_fract_z
Si Si1 0.971884 0.687994 0.465630
Si Si2 0.803967 0.870581 0.148345
Si Si3 0.415251 0.985822 0.540895
Si Si4 0.742322 0.173807 0.047933
Si Si5 0.992964 0.787757 0.288109
Si Si6 0.000000 0.000000 0.888260
Si Si7 0.248457 0.786020 0.654854
Si Si8 0.666666 0.333333 0.008016
O O1 0.850898 0.590841 0.431818
O O2 0.992299 0.784265 0.396433
O O3 0.941121 0.660267 0.571991
O O4 0.074174 0.672263 0.441053
O O5 0.720762 0.745042 0.176594
O O6 0.885387 0.854622 0.083372
O O7 0.845012 0.939849 0.240399
O O8 0.537626 0.055501 0.581271
O O9 0.414653 0.916004 0.454306
O O10 0.336073 0.902058 0.613318
O O11 0.808121 0.127372 0.993507
O O12 0.697735 0.239525 0.990371
O O13 0.975382 0.884887 0.927068
O O14 0.000000 0.000000 0.783220
#
# Coordination Sequence:
#
# PCOD9574675 Si02
#       8
#     9   9   9   9   9   3   9   3
#     4   9  18  36  58  84 120 164 215 256 323 393
#     4   9  20  32  54  85 123 164 209 262 332 380
#     4  10  18  35  54  87 128 166 211 269 329 396
#     4  10  23  37  60  89 125 161 213 272 340 400
#     4   9  18  34  56  84 124 166 213 263 322 399
#     4  12  24  33  69  93 132 163 227 271 345 387
#     4  11  21  36  59  91 128 165 212 276 335 402
#     4  12  24  45  60  99 126 175 218 289 336 417
#
# _framework density 23.390105999999999
#
# number of rings (size 3 to 8) (size 9 to 14) (size 15 to 20)
#    0.900    1.200    3.000    0.900    2.100    1.200 
#    0.900    0.000    0.000    0.000    0.000    0.000 
#    0.000    0.000    0.000    0.000    0.000    0.000 
#
# Total GULP energy -111358.001058 kJ/mol
# GULP energy per Si atom -5567.900053 kJ/mol
# Density = 2.333687 g / cm^3
# Si number density = 23.390106 Si / 1000 Ang^3
#
#
#
# Elastic Constant Matrix: (Units=GPa)
#
#
# Indices 1 2 3 4 5 6 
#
# 1 93.2226 21.4119 5.6602 9.8550 2.7784 0.0000
# 2 21.4119 93.2222 5.6601 -9.8550 -2.7784 -0.0001
# 3 5.6602 5.6601 49.2278 0.0000 0.0000 0.0000
# 4 9.8550 -9.8550 0.0000 28.3893 0.0000 -2.7784
# 5 2.7784 -2.7784 0.0000 0.0000 28.3894 9.8550
# 6 0.0000 -0.0001 0.0000 -2.7784 9.8550 35.9053
#
#
#
# Elastic Compliance Matrix: (Units=1/GPa)
#
#
# Indices 1 2 3 4 5 6 
#
# 1 0.012173 -0.003349 -0.001015 -0.005388 -0.001519 0.000000
# 2 -0.003349 0.012173 -0.001015 0.005388 0.001519 0.000000
# 3 -0.001015 -0.001015 0.020547 0.000000 0.000000 0.000000
# 4 -0.005388 0.005388 0.000000 0.039263 0.000000 0.003038
# 5 -0.001519 0.001519 0.000000 0.000000 0.039263 -0.010777
# 6 0.000000 0.000000 0.000000 0.003038 -0.010777 0.031044
#
#
# Mechanical properties :
#
#
# Convention : Reuss Voigt Hill
#
# Bulk Modulus (GPa) = 29.29452 33.45965 31.37708
# Shear Modulus (GPa) = 28.31298 32.06615 30.18956
#
# Velocity S-wave (km/s) = 3.48295 3.70662 3.59653
# Velocity P-wave (km/s) = 5.35968 5.71444 5.53990
#
# Compressibility (1/GPa) = 0.03413608
#
# Stress axis : x y z
#
# Youngs Moduli (GPa) = 82.15051 82.15015 48.66888
#
# Poissons Ratio (x) = 0.27514 0.04938
# Poissons Ratio (y) = 0.27514 0.04938
# Poissons Ratio (z) = 0.08334 0.08334
#
# Static dielectric constant tensor:
#      x y z
#    x 1.930390 0.000000 0.000000 
#    y 0.000000 1.930390 0.000000 
#    z 0.000000 0.000000 1.975080 
# 
# From -- ./inp_files/2010.got.cif
#   From: 2010.05.17/outbox.cif.g08.bks.cpg/sg146_cif.got.tgz:2010.got - 2010.05.20 13:48:23.
