data_PCOD9574187
_publ_section_title
;
Structure prediction by ZEFSAII (Michael W. Deem and Ramdas Pophale) SiO2 
 PCOD9574187
Probable space group: I 41/A C D
;
_chemical_formula_sum "Si O2"
_cell_formula_units_Z 120
_cell_length_a 13.643162
_cell_length_b 13.643162
_cell_length_c 32.470483
_cell_angle_alpha 90.000000
_cell_angle_beta 90.000000
_cell_angle_gamma 90.000000
_cell_volume 6043.921582
_symmetry_space_group_name_H-M "I 41/A C D"
_symmetry_group_IT_number 142
_space_group.IT_coordinate_system_code '2'
_symmetry_cell_setting 'tetragonal'
loop_
_space_group_symop_operation_xyz
x,y,z
1/4-y,3/4+x,1/4+z
-x,1/2-y,z
1/4+y,1/4-x,3/4+z
x,-y,1/2-z
1/2-x,y,-z
3/4+y,1/4+x,1/4-z
1/4-y,1/4-x,1/4-z
-x,-y,-z
3/4+y,1/4-x,3/4-z
x,1/2+y,-z
3/4-y,3/4+x,1/4-z
-x,y,1/2+z
1/2+x,-y,z
1/4-y,3/4-x,3/4+z
3/4+y,3/4+x,3/4+z
1/2+x,1/2+y,1/2+z
3/4-y,1/4+x,3/4+z
1/2-x,-y,1/2+z
3/4+y,3/4-x,1/4+z
1/2+x,1/2-y,-z
-x,1/2+y,1/2-z
1/4+y,3/4+x,3/4-z
3/4-y,3/4-x,3/4-z
1/2-x,1/2-y,1/2-z
1/4+y,3/4-x,1/4-z
1/2+x,y,1/2-z
1/4-y,1/4+x,3/4-z
1/2-x,1/2+y,z
x,1/2-y,1/2+z
3/4-y,1/4-x,1/4+z
1/4+y,1/4+x,1/4+z
loop_
_atom_site_type_symbol
_atom_site_label
_atom_site_fract_x
_atom_site_fract_y
_atom_site_fract_z
Si Si1 0.500000 0.750000 0.625000
Si Si2 0.326480 0.206315 0.935852
Si Si3 0.113471 0.500000 0.250000
Si Si4 0.754286 0.666744 0.284941
Si Si5 0.042591 0.591380 0.622166
O O1 0.496645 0.844608 0.653660
O O2 0.372904 0.112830 0.958726
O O3 0.230781 0.177953 0.909261
O O4 0.300026 0.291852 0.967172
O O5 0.181809 0.419674 0.271290
O O6 0.750000 0.750000 0.250000
O O7 0.717105 0.705471 0.329205
O O8 0.115242 0.684224 0.619985
#
# Coordination Sequence:
#
# PCOD9574187 Si02
#       5
#     8  32  16  32  32
#     4  12  24  44  76 100 140 190 234 298 348 424
#     4  12  26  47  70 107 141 184 242 287 358 424
#     4  12  28  46  74 106 144 188 232 304 346 424
#     4  12  27  47  73 104 142 188 235 295 356 422
#     4  11  25  47  73 103 143 187 231 289 356 422
#
# _framework density 19.854658000000001
#
# number of rings (size 3 to 8) (size 9 to 14) (size 15 to 20)
#    0.000    0.267    5.333    2.400    7.467    0.000 
#    0.000    0.000    0.000    0.000    0.000    0.000 
#    0.000    0.000    0.000    0.000    0.000    0.000 
#
# Total GULP energy -335928.858028 kJ/mol
# GULP energy per Si atom -5598.814300 kJ/mol
# Density = 1.980947 g / cm^3
# Si number density = 19.854658 Si / 1000 Ang^3
#
#
#
# Elastic Constant Matrix: (Units=GPa)
#
#
# Indices 1 2 3 4 5 6 
#
# 1 111.4378 84.8627 53.4895 0.0000 0.0000 0.0000
# 2 84.8627 111.4378 53.4895 0.0000 0.0000 0.0000
# 3 53.4895 53.4895 101.6810 0.0000 0.0000 0.0000
# 4 0.0000 0.0000 0.0000 14.0075 0.0000 0.0000
# 5 0.0000 0.0000 0.0000 0.0000 14.0075 0.0000
# 6 0.0000 0.0000 0.0000 0.0000 0.0000 35.7258
#
#
#
# Elastic Compliance Matrix: (Units=1/GPa)
#
#
# Indices 1 2 3 4 5 6 
#
# 1 0.022385 -0.015244 -0.003757 0.000000 0.000000 0.000000
# 2 -0.015244 0.022385 -0.003757 0.000000 0.000000 0.000000
# 3 -0.003757 -0.003757 0.013787 0.000000 0.000000 0.000000
# 4 0.000000 0.000000 0.000000 0.071390 0.000000 0.000000
# 5 0.000000 0.000000 0.000000 0.000000 0.071390 0.000000
# 6 0.000000 0.000000 0.000000 0.000000 0.000000 0.027991
#
#
# Mechanical properties :
#
#
# Convention : Reuss Voigt Hill
#
# Bulk Modulus (GPa) = 76.66897 78.69331 77.68114
# Shear Modulus (GPa) = 17.90881 21.59583 19.75232
#
# Velocity S-wave (km/s) = 3.00658 3.30160 3.15754
# Velocity P-wave (km/s) = 7.12402 7.36579 7.24591
#
# Compressibility (1/GPa) = 0.01304309
#
# Stress axis : x y z
#
# Youngs Moduli (GPa) = 44.67193 44.67193 72.53051
#
# Poissons Ratio (x) = 0.68097 0.27249
# Poissons Ratio (y) = 0.68097 0.27249
# Poissons Ratio (z) = 0.16783 0.16783
#
# Static dielectric constant tensor:
#      x y z
#    x 1.675440 0.000000 0.000000 
#    y 0.000000 1.675440 0.000000 
#    z 0.000000 0.000000 1.668280 
# 
# From -- ./inp_files/12299.got.cif
#   From: 2010.05.17/outbox.cif.g08.bks.cpg/sg142_7_cif.got.tgz:12299.got - 2010.05.20 13:39:18.
