data_PCOD9574682
_publ_section_title
;
Structure prediction by ZEFSAII (Michael W. Deem and Ramdas Pophale) SiO2 
 PCOD9574682
Probable space group: R 3
;
_chemical_formula_sum "Si O2"
_cell_formula_units_Z 51
_cell_length_a 11.989151
_cell_length_b 11.989151
_cell_length_c 18.586946
_cell_angle_alpha 90.000000
_cell_angle_beta 90.000000
_cell_angle_gamma 120.000000
_cell_volume 2313.745190
_symmetry_space_group_name_H-M "R 3"
_symmetry_group_IT_number 146
_symmetry_cell_setting 'hexagonal'
loop_
_space_group_symop_operation_xyz
x,y,z
-y,x-y,z
-x+y,-x,z
2/3+x,1/3+y,1/3+z
2/3-y,1/3+x-y,1/3+z
2/3-x+y,1/3-x,1/3+z
1/3+x,2/3+y,2/3+z
1/3-y,2/3+x-y,2/3+z
1/3-x+y,2/3-x,2/3+z
loop_
_atom_site_type_symbol
_atom_site_label
_atom_site_fract_x
_atom_site_fract_y
_atom_site_fract_z
Si Si1 0.104459 0.558690 0.455980
Si Si2 0.000000 0.000000 0.880234
Si Si3 0.350687 0.061874 0.713858
Si Si4 0.379208 0.448440 0.157428
Si Si5 0.856862 0.629435 0.380193
Si Si6 0.666668 0.333334 0.383967
Si Si7 0.227132 0.204240 0.647823
O O1 0.202889 0.555068 0.512419
O O2 0.017439 0.416328 0.425396
O O3 0.058365 0.651592 0.491098
O O4 0.169074 0.632925 0.381574
O O5 0.000000 0.000000 0.963955
O O6 0.399941 0.177753 0.772764
O O7 0.287786 0.111968 0.654483
O O8 0.442533 0.018932 0.675371
O O9 0.244707 0.390320 0.115574
O O10 0.369479 0.491328 0.236986
O O11 0.770186 0.480708 0.402779
O O12 0.981651 0.651065 0.335901
#
# Coordination Sequence:
#
# PCOD9574682 Si02
#       7
#     9   3   9   9   9   3   9
#     4  10  19  37  63  89 124 149 210 271 318 377
#     4  12  18  36  63  99 114 157 206 271 339 342
#     4  10  21  40  64  87 131 165 207 280 317 388
#     4  10  22  41  62  90 129 169 218 264 328 397
#     4  10  22  42  59  94 130 169 218 266 327 399
#     4  12  24  39  69  96 138 175 224 280 336 390
#     4  10  22  41  62  93 128 166 219 270 323 399
#
# _framework density 22.042183999999999
#
# number of rings (size 3 to 8) (size 9 to 14) (size 15 to 20)
#    0.000    2.118    3.529    3.176    0.000    1.412 
#   21.176    0.000    0.000    0.000    0.000    0.000 
#    0.000    0.000    0.000    0.000    0.000    0.000 
#
# Total GULP energy -94701.345420 kJ/mol
# GULP energy per Si atom -5570.667378 kJ/mol
# Density = 2.199201 g / cm^3
# Si number density = 22.042184 Si / 1000 Ang^3
#
#
#
# Elastic Constant Matrix: (Units=GPa)
#
#
# Indices 1 2 3 4 5 6 
#
# 1 80.7045 34.4717 -16.7839 1.9431 -6.0033 -0.0002
# 2 34.4717 80.7053 -16.7839 -1.9432 6.0033 0.0005
# 3 -16.7839 -16.7839 78.3400 0.0000 0.0003 -0.0002
# 4 1.9431 -1.9432 0.0000 9.1232 -0.0001 6.0034
# 5 -6.0033 6.0033 0.0003 -0.0001 9.1231 1.9430
# 6 -0.0002 0.0005 -0.0002 6.0034 1.9430 23.1169
#
#
#
# Elastic Compliance Matrix: (Units=1/GPa)
#
#
# Indices 1 2 3 4 5 6 
#
# 1 0.017962 -0.008701 0.001984 -0.005679 0.017545 0.000000
# 2 -0.008701 0.017962 0.001984 0.005679 -0.017545 -0.000001
# 3 0.001984 0.001984 0.013615 0.000000 -0.000001 0.000000
# 4 -0.005679 0.005679 0.000000 0.135121 0.000001 -0.035091
# 5 0.017545 -0.017545 -0.000001 0.000001 0.135122 -0.011357
# 6 0.000000 -0.000001 0.000000 -0.035091 -0.011357 0.053326
#
#
# Mechanical properties :
#
#
# Convention : Reuss Voigt Hill
#
# Bulk Modulus (GPa) = 24.95496 26.83973 25.89735
# Shear Modulus (GPa) = 12.62845 24.19570 18.41208
#
# Velocity S-wave (km/s) = 2.39618 3.31675 2.89331
# Velocity P-wave (km/s) = 4.35908 5.18370 4.78917
#
# Compressibility (1/GPa) = 0.04007220
#
# Stress axis : x y z
#
# Youngs Moduli (GPa) = 55.67319 55.67357 73.44837
#
# Poissons Ratio (x) = 0.48444 -0.14572
# Poissons Ratio (y) = 0.48443 -0.14573
# Poissons Ratio (z) = -0.11045 -0.11046
#
# Static dielectric constant tensor:
#      x y z
#    x 1.901040 0.000000 0.000000 
#    y 0.000000 1.901040 0.000000 
#    z 0.000000 0.000000 1.783190 
# 
# From -- ./inp_files/1923.got.cif
#   From: 2010.05.17/outbox.cif.g08.bks.cpg/sg146_cif.got.tgz:1923.got - 2010.05.20 13:48:23.
