data_PCOD9574825
_publ_section_title
;
Structure prediction by ZEFSAII (Michael W. Deem and Ramdas Pophale) SiO2 
 PCOD9574825
Probable space group: R 3
;
_chemical_formula_sum "Si O2"
_cell_formula_units_Z 45
_cell_length_a 19.194174
_cell_length_b 19.194174
_cell_length_c 6.268770
_cell_angle_alpha 90.000000
_cell_angle_beta 90.000000
_cell_angle_gamma 120.000000
_cell_volume 2000.100519
_symmetry_space_group_name_H-M "R 3"
_symmetry_group_IT_number 146
_symmetry_cell_setting 'hexagonal'
loop_
_space_group_symop_operation_xyz
x,y,z
-y,x-y,z
-x+y,-x,z
2/3+x,1/3+y,1/3+z
2/3-y,1/3+x-y,1/3+z
2/3-x+y,1/3-x,1/3+z
1/3+x,2/3+y,2/3+z
1/3-y,2/3+x-y,2/3+z
1/3-x+y,2/3-x,2/3+z
loop_
_atom_site_type_symbol
_atom_site_label
_atom_site_fract_x
_atom_site_fract_y
_atom_site_fract_z
Si Si1 0.890907 0.098257 0.882550
Si Si2 0.529415 0.343204 0.803613
Si Si3 0.066900 0.327157 0.372042
Si Si4 0.674515 0.481040 0.578847
Si Si5 0.274811 0.255602 0.193888
O O1 0.865716 0.023151 0.723359
O O2 0.895981 0.174692 0.764189
O O3 0.973806 0.121420 0.006068
O O4 0.823466 0.077226 0.061252
O O5 0.594936 0.432300 0.723635
O O6 0.547994 0.280129 0.685288
O O7 0.441469 0.314918 0.709262
O O8 0.036857 0.378764 0.241191
O O9 0.049490 0.244283 0.259051
O O10 0.353122 0.295390 0.342067
#
# Coordination Sequence:
#
# PCOD9574825 Si02
#       5
#     9   9   9   9   9
#     4  11  26  45  72 113 147 203 250 311 382 449
#     4  11  26  46  72 106 147 195 250 302 381 449
#     4  12  24  44  73 106 148 187 244 309 377 446
#     4  11  26  45  71 105 149 194 245 307 372 452
#     4  11  26  44  68 106 147 195 247 311 376 446
#
# _framework density 22.498867000000001
#
# number of rings (size 3 to 8) (size 9 to 14) (size 15 to 20)
#    0.000    0.800    4.000    1.600    8.400    4.800 
#    0.000    0.000    0.000    0.000    0.000    0.000 
#    0.000    0.000    0.000    0.000    0.000    0.000 
#
# Total GULP energy -83667.425810 kJ/mol
# GULP energy per Si atom -5577.828387 kJ/mol
# Density = 2.244766 g / cm^3
# Si number density = 22.498867 Si / 1000 Ang^3
#
#
#
# Elastic Constant Matrix: (Units=GPa)
#
#
# Indices 1 2 3 4 5 6 
#
# 1 84.6529 51.7066 55.0527 -12.0596 24.2668 0.0154
# 2 51.7066 84.5926 54.9203 12.0858 -24.2080 0.0045
# 3 55.0527 54.9203 124.8569 0.0580 0.0669 0.0359
# 4 -12.0596 12.0858 0.0580 17.3011 0.0248 -24.2131
# 5 24.2668 -24.2080 0.0669 0.0248 17.3450 -12.0588
# 6 0.0154 0.0045 0.0359 -24.2131 -12.0588 16.4457
#
#
#
# Elastic Compliance Matrix: (Units=1/GPa)
#
#
# Indices 1 2 3 4 5 6 
#
# 1 -0.003980 0.015347 -0.005004 -0.013452 0.027060 0.000047
# 2 0.015347 -0.003960 -0.005017 0.013425 -0.027046 -0.000067
# 3 -0.005004 -0.005017 0.012422 0.000058 -0.000007 0.000060
# 4 -0.013452 0.013425 0.000058 -0.036775 -0.000055 -0.054176
# 5 0.027060 -0.027046 -0.000007 -0.000055 -0.036761 -0.027054
# 6 0.000047 -0.000067 0.000060 -0.054176 -0.027054 -0.038795
#
#
# Mechanical properties :
#
#
# Convention : Reuss Voigt Hill
#
# Bulk Modulus (GPa) = 66.07364 68.60685 67.34024
# Shear Modulus (GPa) = -44.06910 19.04656 -12.51127
#
# Velocity S-wave (km/s) = -4.43055 2.91272 -2.36070
# Velocity P-wave (km/s) = 1.80507 6.47083 4.75026
#
# Compressibility (1/GPa) = 0.01513463
#
# Stress axis : x y z
#
# Youngs Moduli (GPa) = -251.23995 -252.50140 80.50124
#
# Poissons Ratio (x) = 3.87518 0.40283
# Poissons Ratio (y) = 3.85582 0.40385
# Poissons Ratio (z) = -1.25720 -1.26672
#
# Static dielectric constant tensor:
#      x y z
#    x 1.907620 -0.000020 0.000000 
#    y -0.000020 1.907580 -0.000020 
#    z 0.000000 -0.000020 1.881070 
# 
# From -- ./inp_files/238.got.cif
#   From: 2010.05.17/outbox.cif.g08.bks.cpg/sg146_cif.got.tgz:238.got - 2010.05.20 13:48:23.
