data_PCOD9574103
_publ_section_title
;
Structure prediction by ZEFSAII (Michael W. Deem and Ramdas Pophale) SiO2 
 PCOD9574103
Probable space group: I 41/A C D
;
_chemical_formula_sum "Si O2"
_cell_formula_units_Z 128
_cell_length_a 17.124596
_cell_length_b 17.124596
_cell_length_c 22.880979
_cell_angle_alpha 90.000000
_cell_angle_beta 90.000000
_cell_angle_gamma 90.000000
_cell_volume 6709.888007
_symmetry_space_group_name_H-M "I 41/A C D"
_symmetry_group_IT_number 142
_space_group.IT_coordinate_system_code '2'
_symmetry_cell_setting 'tetragonal'
loop_
_space_group_symop_operation_xyz
x,y,z
1/4-y,3/4+x,1/4+z
-x,1/2-y,z
1/4+y,1/4-x,3/4+z
x,-y,1/2-z
1/2-x,y,-z
3/4+y,1/4+x,1/4-z
1/4-y,1/4-x,1/4-z
-x,-y,-z
3/4+y,1/4-x,3/4-z
x,1/2+y,-z
3/4-y,3/4+x,1/4-z
-x,y,1/2+z
1/2+x,-y,z
1/4-y,3/4-x,3/4+z
3/4+y,3/4+x,3/4+z
1/2+x,1/2+y,1/2+z
3/4-y,1/4+x,3/4+z
1/2-x,-y,1/2+z
3/4+y,3/4-x,1/4+z
1/2+x,1/2-y,-z
-x,1/2+y,1/2-z
1/4+y,3/4+x,3/4-z
3/4-y,3/4-x,3/4-z
1/2-x,1/2-y,1/2-z
1/4+y,3/4-x,1/4-z
1/2+x,y,1/2-z
1/4-y,1/4+x,3/4-z
1/2-x,1/2+y,z
x,1/2-y,1/2+z
3/4-y,1/4-x,1/4+z
1/4+y,1/4+x,1/4+z
loop_
_atom_site_type_symbol
_atom_site_label
_atom_site_fract_x
_atom_site_fract_y
_atom_site_fract_z
Si Si1 0.242921 0.193936 0.193810
Si Si2 0.623506 0.253820 0.395600
Si Si3 0.571913 0.356300 0.627738
Si Si4 0.657844 0.143545 0.495232
O O1 0.250000 0.250000 0.250000
O O2 0.202740 0.239889 0.139991
O O3 0.326495 0.165138 0.170325
O O4 0.180199 0.127016 0.209997
O O5 0.585462 0.335462 0.375000
O O6 0.559699 0.190302 0.375000
O O7 0.636286 0.225149 0.462151
O O8 0.479199 0.350290 0.640033
O O9 0.610173 0.374935 0.689685
O O10 0.750000 0.138760 0.500000
#
# Coordination Sequence:
#
# PCOD9574103 Si02
#       4
#    32  32  32  32
#     4  11  22  40  61  90 127 163 206 257 316 375
#     4   9  20  35  59  87 115 155 205 251 303 368
#     4  11  24  40  64  93 125 165 212 263 318 382
#     4  11  22  40  63  89 127 166 208 260 319 382
#
# _framework density 19.076325000000001
#
# number of rings (size 3 to 8) (size 9 to 14) (size 15 to 20)
#    0.000    1.500    5.000    0.000    3.500    2.000 
#    0.000    3.750    0.000    0.000    0.000    0.000 
#    0.000    0.000    0.000    0.000    0.000    0.000 
#
# Total GULP energy -356755.353721 kJ/mol
# GULP energy per Si atom -5574.302402 kJ/mol
# Density = 1.903291 g / cm^3
# Si number density = 19.076325 Si / 1000 Ang^3
#
#
#
# Elastic Constant Matrix: (Units=GPa)
#
#
# Indices 1 2 3 4 5 6 
#
# 1 79.7613 13.3048 9.7845 0.0000 0.0000 0.0000
# 2 13.3048 79.7621 9.7847 0.0000 0.0000 0.0000
# 3 9.7845 9.7847 77.8143 0.0000 0.0000 0.0000
# 4 0.0000 0.0000 0.0000 31.3238 0.0000 0.0000
# 5 0.0000 0.0000 0.0000 0.0000 31.3242 0.0000
# 6 0.0000 0.0000 0.0000 0.0000 0.0000 19.3288
#
#
#
# Elastic Compliance Matrix: (Units=1/GPa)
#
#
# Indices 1 2 3 4 5 6 
#
# 1 0.013042 -0.002005 -0.001388 0.000000 0.000000 0.000000
# 2 -0.002005 0.013042 -0.001388 0.000000 0.000000 0.000000
# 3 -0.001388 -0.001388 0.013200 0.000000 0.000000 0.000000
# 4 0.000000 0.000000 0.000000 0.031925 0.000000 0.000000
# 5 0.000000 0.000000 0.000000 0.000000 0.031924 0.000000
# 6 0.000000 0.000000 0.000000 0.000000 0.000000 0.051736
#
#
# Mechanical properties :
#
#
# Convention : Reuss Voigt Hill
#
# Bulk Modulus (GPa) = 33.64449 33.67619 33.66034
# Shear Modulus (GPa) = 28.67984 30.02629 29.35306
#
# Velocity S-wave (km/s) = 3.88161 3.97168 3.92690
# Velocity P-wave (km/s) = 6.14526 6.22287 6.18419
#
# Compressibility (1/GPa) = 0.02972255
#
# Stress axis : x y z
#
# Youngs Moduli (GPa) = 76.67449 76.67529 75.75690
#
# Poissons Ratio (x) = 0.15375 0.10514
# Poissons Ratio (y) = 0.15375 0.10514
# Poissons Ratio (z) = 0.10641 0.10641
#
# Static dielectric constant tensor:
#      x y z
#    x 1.721350 0.000000 0.000000 
#    y 0.000000 1.721330 0.000000 
#    z 0.000000 0.000000 -1.816130 
# 
# From -- ./inp_files/9959.got.cif
#   From: 2010.05.17/outbox.cif.g08.bks.cpg/sg142_5_cif.got.tgz:9959.got - 2010.05.20 13:39:18.
