data_PCOD9574514
_publ_section_title
;
Structure prediction by ZEFSAII (Michael W. Deem and Ramdas Pophale) SiO2 
 PCOD9574514
Probable space group: P 31
;
_chemical_formula_sum "Si O2"
_cell_formula_units_Z 18
_cell_length_a 8.584017
_cell_length_b 8.584017
_cell_length_c 11.224813
_cell_angle_alpha 90.000000
_cell_angle_beta 90.000000
_cell_angle_gamma 120.000000
_cell_volume 716.293293
_symmetry_space_group_name_H-M "P 31"
_symmetry_group_IT_number 144
_symmetry_cell_setting 'hexagonal'
loop_
_space_group_symop_operation_xyz
x,y,z
-y,x-y,1/3+z
-x+y,-x,2/3+z
loop_
_atom_site_type_symbol
_atom_site_label
_atom_site_fract_x
_atom_site_fract_y
_atom_site_fract_z
Si Si1 0.298063 0.432095 0.421410
Si Si2 0.432127 0.298113 0.077597
Si Si3 0.337833 0.782631 0.330401
Si Si4 0.094507 0.094489 0.249493
Si Si5 0.782653 0.337867 0.168604
Si Si6 0.768434 0.000035 0.082818
O O1 0.352170 0.603238 0.336701
O O2 0.207478 0.469222 0.535000
O O3 0.173901 0.250836 0.349092
O O4 0.476289 0.433821 0.468122
O O5 0.433760 0.476299 0.030905
O O6 0.250903 0.173894 0.149931
O O7 0.603304 0.352280 0.162282
O O8 0.469246 0.207546 0.963995
O O9 0.180271 0.757071 0.422620
O O10 0.045864 0.907106 0.308994
O O11 0.907184 0.045969 0.189954
O O12 0.757053 0.180311 0.076365
#
# Coordination Sequence:
#
# PCOD9574514 Si02
#       6
#     3   3   3   3   3   3
#     4  12  27  50  77 111 154 201 253 311 378 450
#     4  12  27  50  77 111 154 201 253 311 378 450
#     4  12  26  46  75 111 152 202 252 311 376 450
#     4  12  28  50  76 108 150 200 252 312 378 448
#     4  12  26  46  75 111 152 202 252 311 376 450
#     4  12  26  44  72 106 146 194 250 310 374 442
#
# _framework density 25.129370000000002
#
# number of rings (size 3 to 8) (size 9 to 14) (size 15 to 20)
#    0.000    0.000    0.000   10.000    0.000    8.000 
#    0.000    0.000    0.000    0.000    0.000    0.000 
#    0.000    0.000    0.000    0.000    0.000    0.000 
#
# Total GULP energy -100965.936404 kJ/mol
# GULP energy per Si atom -5609.218689 kJ/mol
# Density = 2.507217 g / cm^3
# Si number density = 25.129370 Si / 1000 Ang^3
#
#
#
# Elastic Constant Matrix: (Units=GPa)
#
#
# Indices 1 2 3 4 5 6 
#
# 1 110.9997 54.3196 44.4547 9.5214 0.0096 0.0000
# 2 54.3196 110.9997 44.4547 -9.5214 -0.0096 0.0000
# 3 44.4547 44.4547 135.2726 0.0000 0.0000 0.0000
# 4 9.5214 -9.5214 0.0000 50.1143 0.0000 -0.0096
# 5 0.0096 -0.0096 0.0000 0.0000 50.1143 9.5214
# 6 0.0000 0.0000 0.0000 -0.0096 9.5214 28.3401
#
#
#
# Elastic Compliance Matrix: (Units=1/GPa)
#
#
# Indices 1 2 3 4 5 6 
#
# 1 0.013097 -0.005749 -0.002415 -0.003581 -0.000004 0.000000
# 2 -0.005749 0.013097 -0.002415 0.003581 0.000004 0.000000
# 3 -0.002415 -0.002415 0.008980 0.000000 0.000000 0.000000
# 4 -0.003581 0.003581 0.000000 0.021315 0.000000 0.000007
# 5 -0.000004 0.000004 0.000000 0.000000 0.021315 -0.007161
# 6 0.000000 0.000000 0.000000 0.000007 -0.007161 0.037692
#
#
# Mechanical properties :
#
#
# Convention : Reuss Voigt Hill
#
# Bulk Modulus (GPa) = 71.34679 71.52557 71.43618
# Shear Modulus (GPa) = 35.37987 39.98325 37.68156
#
# Velocity S-wave (km/s) = 3.75628 3.99318 3.87654
# Velocity P-wave (km/s) = 6.87505 7.05588 6.96605
#
# Compressibility (1/GPa) = 0.01401605
#
# Stress axis : x y z
#
# Youngs Moduli (GPa) = 76.35531 76.35531 111.36462
#
# Poissons Ratio (x) = 0.43898 0.26890
# Poissons Ratio (y) = 0.43898 0.26890
# Poissons Ratio (z) = 0.18437 0.18437
#
# Static dielectric constant tensor:
#      x y z
#    x 1.966930 0.000000 0.000000 
#    y 0.000000 1.966930 0.000000 
#    z 0.000000 0.000000 2.192380 
# 
# From -- ./inp_files/553.got.cif
#   From: 2010.05.17/outbox.cif.g08.bks.cpg/sg144_cif.got.tgz:553.got - 2010.05.20 13:46:34.
