data_PCOD9574225
_publ_section_title
;
Structure prediction by ZEFSAII (Michael W. Deem and Ramdas Pophale) SiO2 
 PCOD9574225
Probable space group: I 41/A C D
;
_chemical_formula_sum "Si O2"
_cell_formula_units_Z 72
_cell_length_a 9.746347
_cell_length_b 9.746347
_cell_length_c 34.415925
_cell_angle_alpha 90.000000
_cell_angle_beta 90.000000
_cell_angle_gamma 90.000000
_cell_volume 3269.212763
_symmetry_space_group_name_H-M "I 41/A C D"
_symmetry_group_IT_number 142
_space_group.IT_coordinate_system_code '2'
_symmetry_cell_setting 'tetragonal'
loop_
_space_group_symop_operation_xyz
x,y,z
1/4-y,3/4+x,1/4+z
-x,1/2-y,z
1/4+y,1/4-x,3/4+z
x,-y,1/2-z
1/2-x,y,-z
3/4+y,1/4+x,1/4-z
1/4-y,1/4-x,1/4-z
-x,-y,-z
3/4+y,1/4-x,3/4-z
x,1/2+y,-z
3/4-y,3/4+x,1/4-z
-x,y,1/2+z
1/2+x,-y,z
1/4-y,3/4-x,3/4+z
3/4+y,3/4+x,3/4+z
1/2+x,1/2+y,1/2+z
3/4-y,1/4+x,3/4+z
1/2-x,-y,1/2+z
3/4+y,3/4-x,1/4+z
1/2+x,1/2-y,-z
-x,1/2+y,1/2-z
1/4+y,3/4+x,3/4-z
3/4-y,3/4-x,3/4-z
1/2-x,1/2-y,1/2-z
1/4+y,3/4-x,1/4-z
1/2+x,y,1/2-z
1/4-y,1/4+x,3/4-z
1/2-x,1/2+y,z
x,1/2-y,1/2+z
3/4-y,1/4-x,1/4+z
1/4+y,1/4+x,1/4+z
loop_
_atom_site_type_symbol
_atom_site_label
_atom_site_fract_x
_atom_site_fract_y
_atom_site_fract_z
Si Si1 0.000000 0.250000 0.875000
Si Si2 0.696231 0.436745 0.085150
Si Si3 0.029251 0.408365 0.537581
O O1 0.043849 0.373994 0.847001
O O2 0.758705 0.491296 0.125000
O O3 0.816636 0.423268 0.053771
O O4 0.576908 0.536345 0.069873
O O5 0.000000 0.250000 0.528990
O O6 0.000000 0.500000 0.500000
#
# Coordination Sequence:
#
# PCOD9574225 Si02
#       3
#     8  32  32
#     4  12  24  44  84 120 152 200 274 332 392 456
#     4  12  26  48  81 113 157 207 266 323 389 474
#     4  12  30  49  77 113 159 206 262 323 402 471
#
# _framework density 22.023651000000001
#
# number of rings (size 3 to 8) (size 9 to 14) (size 15 to 20)
#    0.000    0.000    4.444    4.000    3.111    3.556 
#    0.000    0.000    0.000    0.000    0.000    0.000 
#    0.000    0.000    0.000    0.000    0.000    0.000 
#
# Total GULP energy -201758.535788 kJ/mol
# GULP energy per Si atom -5604.403772 kJ/mol
# Density = 2.197352 g / cm^3
# Si number density = 22.023651 Si / 1000 Ang^3
#
#
#
# Elastic Constant Matrix: (Units=GPa)
#
#
# Indices 1 2 3 4 5 6 
#
# 1 140.9577 50.0144 43.5411 0.0000 0.0000 0.0000
# 2 50.0144 140.9574 43.5406 0.0000 0.0000 0.0000
# 3 43.5411 43.5406 109.5356 0.0000 0.0000 0.0000
# 4 0.0000 0.0000 0.0000 34.6448 0.0000 0.0000
# 5 0.0000 0.0000 0.0000 0.0000 34.6449 0.0000
# 6 0.0000 0.0000 0.0000 0.0000 0.0000 47.7578
#
#
#
# Elastic Compliance Matrix: (Units=1/GPa)
#
#
# Indices 1 2 3 4 5 6 
#
# 1 0.008696 -0.002300 -0.002542 0.000000 0.000000 0.000000
# 2 -0.002300 0.008696 -0.002542 0.000000 0.000000 0.000000
# 3 -0.002542 -0.002542 0.011151 0.000000 0.000000 0.000000
# 4 0.000000 0.000000 0.000000 0.028864 0.000000 0.000000
# 5 0.000000 0.000000 0.000000 0.000000 0.028864 0.000000
# 6 0.000000 0.000000 0.000000 0.000000 0.000000 0.020939
#
#
# Mechanical properties :
#
#
# Convention : Reuss Voigt Hill
#
# Bulk Modulus (GPa) = 72.60739 73.96031 73.28385
# Shear Modulus (GPa) = 39.50382 40.36648 39.93515
#
# Velocity S-wave (km/s) = 4.23980 4.28585 4.26289
# Velocity P-wave (km/s) = 7.55032 7.62538 7.58795
#
# Compressibility (1/GPa) = 0.01377270
#
# Stress axis : x y z
#
# Youngs Moduli (GPa) = 114.99852 114.99871 89.68126
#
# Poissons Ratio (x) = 0.26451 0.22800
# Poissons Ratio (y) = 0.26451 0.22799
# Poissons Ratio (z) = 0.29236 0.29236
#
# Static dielectric constant tensor:
#      x y z
#    x 1.802660 0.000000 0.000000 
#    y 0.000000 1.802670 0.000000 
#    z 0.000000 0.000000 1.782390 
# 
# From -- ./inp_files/11783.got.cif
#   From: 2010.05.17/outbox.cif.g08.bks.cpg/sg142_6_cif.got.tgz:11783.got - 2010.05.20 13:39:18.
