data_PCOD9574184
_publ_section_title
;
Structure prediction by ZEFSAII (Michael W. Deem and Ramdas Pophale) SiO2 
 PCOD9574184
Probable space group: I 41/A C D
;
_chemical_formula_sum "Si O2"
_cell_formula_units_Z 136
_cell_length_a 17.866101
_cell_length_b 17.866101
_cell_length_c 18.490417
_cell_angle_alpha 90.000000
_cell_angle_beta 90.000000
_cell_angle_gamma 90.000000
_cell_volume 5902.096081
_symmetry_space_group_name_H-M "I 41/A C D"
_symmetry_group_IT_number 142
_space_group.IT_coordinate_system_code '2'
_symmetry_cell_setting 'tetragonal'
loop_
_space_group_symop_operation_xyz
x,y,z
1/4-y,3/4+x,1/4+z
-x,1/2-y,z
1/4+y,1/4-x,3/4+z
x,-y,1/2-z
1/2-x,y,-z
3/4+y,1/4+x,1/4-z
1/4-y,1/4-x,1/4-z
-x,-y,-z
3/4+y,1/4-x,3/4-z
x,1/2+y,-z
3/4-y,3/4+x,1/4-z
-x,y,1/2+z
1/2+x,-y,z
1/4-y,3/4-x,3/4+z
3/4+y,3/4+x,3/4+z
1/2+x,1/2+y,1/2+z
3/4-y,1/4+x,3/4+z
1/2-x,-y,1/2+z
3/4+y,3/4-x,1/4+z
1/2+x,1/2-y,-z
-x,1/2+y,1/2-z
1/4+y,3/4+x,3/4-z
3/4-y,3/4-x,3/4-z
1/2-x,1/2-y,1/2-z
1/4+y,3/4-x,1/4-z
1/2+x,y,1/2-z
1/4-y,1/4+x,3/4-z
1/2-x,1/2+y,z
x,1/2-y,1/2+z
3/4-y,1/4-x,1/4+z
1/4+y,1/4+x,1/4+z
loop_
_atom_site_type_symbol
_atom_site_label
_atom_site_fract_x
_atom_site_fract_y
_atom_site_fract_z
Si Si1 0.283232 0.249630 0.580287
Si Si2 0.000000 0.750000 0.375000
Si Si3 0.381926 0.397006 0.575779
Si Si4 0.800446 0.575258 0.792547
Si Si5 0.009702 0.906654 0.954472
O O1 0.250000 0.245143 0.500000
O O2 0.340316 0.318926 0.581616
O O3 0.328656 0.175452 0.602101
O O4 0.216670 0.256554 0.640077
O O5 0.074376 0.745055 0.327947
O O6 0.323546 0.461020 0.553430
O O7 0.446874 0.404620 0.515806
O O8 0.821508 0.500000 0.750000
O O9 0.829424 0.579424 0.875000
O O10 0.823798 0.657653 0.764279
#
# Coordination Sequence:
#
# PCOD9574184 Si02
#       5
#    32   8  32  32  32
#     4  11  25  48  76 111 149 197 254 306 373 457
#     4  12  24  48  80 102 148 204 240 302 400 436
#     4  11  27  48  75 108 153 193 242 318 367 448
#     4  11  25  44  75 106 143 193 245 303 370 438
#     4  11  26  50  71 110 151 192 247 312 367 454
#
# _framework density 23.042660000000001
#
# number of rings (size 3 to 8) (size 9 to 14) (size 15 to 20)
#    0.000    0.941    1.176    4.941    6.588    8.000 
#    4.235    0.000    0.000    0.000    0.000    0.000 
#    0.000    0.000    0.000    0.000    0.000    0.000 
#
# Total GULP energy -380581.416960 kJ/mol
# GULP energy per Si atom -5596.785544 kJ/mol
# Density = 2.299021 g / cm^3
# Si number density = 23.042660 Si / 1000 Ang^3
#
#
#
# Elastic Constant Matrix: (Units=GPa)
#
#
# Indices 1 2 3 4 5 6 
#
# 1 143.1432 104.0495 73.0026 0.0000 0.0000 0.0000
# 2 104.0495 143.1431 73.0026 0.0000 0.0000 0.0000
# 3 73.0026 73.0026 145.1686 0.0000 0.0000 0.0000
# 4 0.0000 0.0000 0.0000 24.6396 0.0000 0.0000
# 5 0.0000 0.0000 0.0000 0.0000 24.6396 0.0000
# 6 0.0000 0.0000 0.0000 0.0000 0.0000 43.6688
#
#
#
# Elastic Compliance Matrix: (Units=1/GPa)
#
#
# Indices 1 2 3 4 5 6 
#
# 1 0.015667 -0.009912 -0.002894 0.000000 0.000000 0.000000
# 2 -0.009912 0.015667 -0.002894 0.000000 0.000000 0.000000
# 3 -0.002894 -0.002894 0.009799 0.000000 0.000000 0.000000
# 4 0.000000 0.000000 0.000000 0.040585 0.000000 0.000000
# 5 0.000000 0.000000 0.000000 0.000000 0.040585 0.000000
# 6 0.000000 0.000000 0.000000 0.000000 0.000000 0.022900
#
#
# Mechanical properties :
#
#
# Convention : Reuss Voigt Hill
#
# Bulk Modulus (GPa) = 102.74484 103.50716 103.12600
# Shear Modulus (GPa) = 27.80119 30.68293 29.24206
#
# Velocity S-wave (km/s) = 3.47725 3.65303 3.56622
# Velocity P-wave (km/s) = 7.79792 7.92528 7.86186
#
# Compressibility (1/GPa) = 0.00973285
#
# Stress axis : x y z
#
# Youngs Moduli (GPa) = 63.82764 63.82764 102.04933
#
# Poissons Ratio (x) = 0.63269 0.29533
# Poissons Ratio (y) = 0.63269 0.29533
# Poissons Ratio (z) = 0.18471 0.18471
#
# Static dielectric constant tensor:
#      x y z
#    x 1.857320 0.000000 0.000000 
#    y 0.000000 1.857320 0.000000 
#    z 0.000000 0.000000 1.973070 
# 
# From -- ./inp_files/8771.got.cif
#   From: 2010.05.17/outbox.cif.g08.bks.cpg/sg142_5_cif.got.tgz:8771.got - 2010.05.20 13:39:18.
