data_PCOD9574160
_publ_section_title
;
Structure prediction by ZEFSAII (Michael W. Deem and Ramdas Pophale) SiO2 
 PCOD9574160
Probable space group: I 41/A C D
;
_chemical_formula_sum "Si O2"
_cell_formula_units_Z 120
_cell_length_a 22.023365
_cell_length_b 22.023365
_cell_length_c 12.864023
_cell_angle_alpha 90.000000
_cell_angle_beta 90.000000
_cell_angle_gamma 90.000000
_cell_volume 6239.419142
_symmetry_space_group_name_H-M "I 41/A C D"
_symmetry_group_IT_number 142
_space_group.IT_coordinate_system_code '2'
_symmetry_cell_setting 'tetragonal'
loop_
_space_group_symop_operation_xyz
x,y,z
1/4-y,3/4+x,1/4+z
-x,1/2-y,z
1/4+y,1/4-x,3/4+z
x,-y,1/2-z
1/2-x,y,-z
3/4+y,1/4+x,1/4-z
1/4-y,1/4-x,1/4-z
-x,-y,-z
3/4+y,1/4-x,3/4-z
x,1/2+y,-z
3/4-y,3/4+x,1/4-z
-x,y,1/2+z
1/2+x,-y,z
1/4-y,3/4-x,3/4+z
3/4+y,3/4+x,3/4+z
1/2+x,1/2+y,1/2+z
3/4-y,1/4+x,3/4+z
1/2-x,-y,1/2+z
3/4+y,3/4-x,1/4+z
1/2+x,1/2-y,-z
-x,1/2+y,1/2-z
1/4+y,3/4+x,3/4-z
3/4-y,3/4-x,3/4-z
1/2-x,1/2-y,1/2-z
1/4+y,3/4-x,1/4-z
1/2+x,y,1/2-z
1/4-y,1/4+x,3/4-z
1/2-x,1/2+y,z
x,1/2-y,1/2+z
3/4-y,1/4-x,1/4+z
1/4+y,1/4+x,1/4+z
loop_
_atom_site_type_symbol
_atom_site_label
_atom_site_fract_x
_atom_site_fract_y
_atom_site_fract_z
Si Si1 0.307414 0.119417 0.274003
Si Si2 0.889716 0.860285 0.875000
Si Si3 0.681630 0.071467 0.542451
Si Si4 0.000000 0.250000 0.375000
Si Si5 0.975934 0.147604 0.043094
O O1 0.334608 0.084608 0.375000
O O2 0.320311 0.088732 0.162905
O O3 0.235372 0.113312 0.281133
O O4 0.338558 0.185196 0.272148
O O5 0.873884 0.905585 0.781157
O O6 0.881794 0.791266 0.839035
O O7 0.750000 0.056458 0.500000
O O8 0.941108 0.236208 0.305383
O O9 0.938578 0.188578 0.125000
#
# Coordination Sequence:
#
# PCOD9574160 Si02
#       5
#    32  16  32   8  32
#     4  11  24  42  71 103 132 181 233 274 346 411
#     4  12  23  44  68  94 144 176 230 285 342 402
#     4  12  23  45  69  99 143 186 221 284 348 406
#     4  12  18  44  72  90 144 172 226 280 364 402
#     4  11  24  42  68 100 128 179 229 285 342 413
#
# _framework density 19.232559999999999
#
# number of rings (size 3 to 8) (size 9 to 14) (size 15 to 20)
#    0.000    0.533    5.333    4.000    0.000    1.067 
#    0.000    0.000    0.000    0.000    0.000    0.000 
#    0.000    0.000    0.000    0.000    0.000    0.000 
#
# Total GULP energy -335249.080181 kJ/mol
# GULP energy per Si atom -5587.484670 kJ/mol
# Density = 1.918879 g / cm^3
# Si number density = 19.232560 Si / 1000 Ang^3
#
#
#
# Elastic Constant Matrix: (Units=GPa)
#
#
# Indices 1 2 3 4 5 6 
#
# 1 89.1015 99.8052 50.3801 0.0000 0.0000 0.0000
# 2 99.8052 89.1037 50.3800 0.0000 0.0000 0.0000
# 3 50.3801 50.3800 155.6998 0.0000 0.0000 0.0000
# 4 0.0000 0.0000 0.0000 40.8753 0.0000 0.0000
# 5 0.0000 0.0000 0.0000 0.0000 40.8765 0.0000
# 6 0.0000 0.0000 0.0000 0.0000 0.0000 31.3081
#
#
#
# Elastic Compliance Matrix: (Units=1/GPa)
#
#
# Indices 1 2 3 4 5 6 
#
# 1 -0.043519 0.049917 -0.002070 0.000000 0.000000 0.000000
# 2 0.049917 -0.043518 -0.002070 0.000000 0.000000 0.000000
# 3 -0.002070 -0.002070 0.007762 0.000000 0.000000 0.000000
# 4 0.000000 0.000000 0.000000 0.024465 0.000000 0.000000
# 5 0.000000 0.000000 0.000000 0.000000 0.024464 0.000000
# 6 0.000000 0.000000 0.000000 0.000000 0.000000 0.031941
#
#
# Mechanical properties :
#
#
# Convention : Reuss Voigt Hill
#
# Bulk Modulus (GPa) = 81.45129 81.67061 81.56095
# Shear Modulus (GPa) = -58.23003 31.50129 -13.36437
#
# Velocity S-wave (km/s) = -5.50841 4.05151 -2.63892
# Velocity P-wave (km/s) = 1.40924 8.02765 5.76321
#
# Compressibility (1/GPa) = 0.01227728
#
# Stress axis : x y z
#
# Youngs Moduli (GPa) = -22.97821 -22.97891 128.82793
#
# Poissons Ratio (x) = 1.14703 0.26666
# Poissons Ratio (y) = 1.14699 0.26672
# Poissons Ratio (z) = -0.04756 -0.04757
#
# Static dielectric constant tensor:
#      x y z
#    x 1.688240 0.000000 0.000000 
#    y 0.000000 1.688260 0.000000 
#    z 0.000000 0.000000 1.688910 
# 
# From -- ./inp_files/3517.got.cif
#   From: 2010.05.17/outbox.cif.g08.bks.cpg/sg142_2_cif.got.tgz:3517.got - 2010.05.20 13:39:18.
