data_PCOD9574298
_publ_section_title
;
Structure prediction by ZEFSAII (Michael W. Deem and Ramdas Pophale) SiO2 
 PCOD9574298
Probable space group: P 31
;
_chemical_formula_sum "Si O2"
_cell_formula_units_Z 18
_cell_length_a 8.839354
_cell_length_b 8.839354
_cell_length_c 12.714342
_cell_angle_alpha 90.000000
_cell_angle_beta 90.000000
_cell_angle_gamma 120.000000
_cell_volume 860.331006
_symmetry_space_group_name_H-M "P 31"
_symmetry_group_IT_number 144
_symmetry_cell_setting 'hexagonal'
loop_
_space_group_symop_operation_xyz
x,y,z
-y,x-y,1/3+z
-x+y,-x,2/3+z
loop_
_atom_site_type_symbol
_atom_site_label
_atom_site_fract_x
_atom_site_fract_y
_atom_site_fract_z
Si Si1 0.776177 0.617881 0.345080
Si Si2 0.651288 0.857230 0.303974
Si Si3 0.047843 0.157761 0.755789
Si Si4 0.530061 0.206908 0.908870
Si Si5 0.943225 0.183625 0.407414
Si Si6 0.421311 0.015930 0.282352
O O1 0.626779 0.668610 0.327718
O O2 0.810005 0.509628 0.257533
O O3 0.734506 0.519232 0.456016
O O4 0.954800 0.800469 0.355360
O O5 0.781909 0.916928 0.203719
O O6 0.480926 0.870195 0.277961
O O7 0.760267 0.997595 0.396043
O O8 0.012165 0.305085 0.710698
O O9 0.880039 0.965179 0.745794
O O10 0.586108 0.394235 0.959741
O O11 0.360527 0.066357 0.974835
O O12 0.965402 0.296308 0.510551
#
# Coordination Sequence:
#
# PCOD9574298 Si02
#       6
#     3   3   3   3   3   3
#     4  11  23  42  65  93 133 183 231 284 348 419
#     4  10  23  41  64  99 139 175 228 289 349 418
#     4  11  22  41  68  97 134 177 229 287 347 417
#     4  11  22  42  64  94 133 179 234 281 347 419
#     4  10  19  39  67  95 127 181 230 273 346 413
#     4  11  23  41  68  98 134 177 230 290 345 418
#
# _framework density 20.922180999999998
#
# number of rings (size 3 to 8) (size 9 to 14) (size 15 to 20)
#    0.000    1.333    5.000    2.000    4.667    0.000 
#    3.000    1.667    0.000    0.000    0.000    0.000 
#    0.000    0.000    0.000    0.000    0.000    0.000 
#
# Total GULP energy -100423.616734 kJ/mol
# GULP energy per Si atom -5579.089819 kJ/mol
# Density = 2.087456 g / cm^3
# Si number density = 20.922181 Si / 1000 Ang^3
#
#
#
# Elastic Constant Matrix: (Units=GPa)
#
#
# Indices 1 2 3 4 5 6 
#
# 1 114.8305 40.5434 30.0499 -15.0298 4.9927 0.0000
# 2 40.5434 114.8305 30.0499 15.0298 -4.9927 0.0000
# 3 30.0499 30.0499 48.9099 0.0000 0.0000 0.0000
# 4 -15.0298 15.0298 0.0000 30.0758 0.0000 -4.9927
# 5 4.9927 -4.9927 0.0000 0.0000 30.0758 -15.0298
# 6 0.0000 0.0000 0.0000 -4.9927 -15.0298 37.1436
#
#
#
# Elastic Compliance Matrix: (Units=1/GPa)
#
#
# Indices 1 2 3 4 5 6 
#
# 1 0.012901 -0.004458 -0.005187 0.008675 -0.002882 0.000000
# 2 -0.004458 0.012901 -0.005187 -0.008675 0.002882 0.000000
# 3 -0.005187 -0.005187 0.026819 0.000000 0.000000 0.000000
# 4 0.008675 -0.008675 0.000000 0.042876 0.000000 0.005763
# 5 -0.002882 0.002882 0.000000 0.000000 0.042876 0.017349
# 6 0.000000 0.000000 0.000000 0.005763 0.017349 0.034718
#
#
# Mechanical properties :
#
#
# Convention : Reuss Voigt Hill
#
# Bulk Modulus (GPa) = 43.56080 53.31749 48.43914
# Shear Modulus (GPa) = 23.76348 31.32089 27.54218
#
# Velocity S-wave (km/s) = 3.37382 3.87333 3.63217
# Velocity P-wave (km/s) = 6.00354 6.74853 6.38691
#
# Compressibility (1/GPa) = 0.02295642
#
# Stress axis : x y z
#
# Youngs Moduli (GPa) = 77.51568 77.51568 37.28641
#
# Poissons Ratio (x) = 0.34558 0.19340
# Poissons Ratio (y) = 0.34558 0.19340
# Poissons Ratio (z) = 0.40207 0.40207
#
# Static dielectric constant tensor:
#      x y z
#    x 1.786920 0.000000 0.000000 
#    y 0.000000 1.786920 0.000000 
#    z 0.000000 0.000000 1.771310 
# 
# From -- ./inp_files/511.got.cif
#   From: 2010.05.17/outbox.cif.g08.bks.cpg/sg144_cif.got.tgz:511.got - 2010.05.20 13:46:34.
