data_PCOD9574373
_publ_section_title
;
Structure prediction by ZEFSAII (Michael W. Deem and Ramdas Pophale) SiO2 
 PCOD9574373
Probable space group: P 31
;
_chemical_formula_sum "Si O2"
_cell_formula_units_Z 21
_cell_length_a 12.299554
_cell_length_b 12.299554
_cell_length_c 8.072937
_cell_angle_alpha 90.000000
_cell_angle_beta 90.000000
_cell_angle_gamma 120.000000
_cell_volume 1057.647439
_symmetry_space_group_name_H-M "P 31"
_symmetry_group_IT_number 144
_symmetry_cell_setting 'hexagonal'
loop_
_space_group_symop_operation_xyz
x,y,z
-y,x-y,1/3+z
-x+y,-x,2/3+z
loop_
_atom_site_type_symbol
_atom_site_label
_atom_site_fract_x
_atom_site_fract_y
_atom_site_fract_z
Si Si1 0.751599 0.762203 0.714310
Si Si2 0.144133 0.742196 0.831756
Si Si3 0.519176 0.628569 0.271986
Si Si4 0.800474 0.000000 0.237176
Si Si5 0.989396 0.237797 0.760042
Si Si6 0.742196 0.144133 0.975930
Si Si7 0.628569 0.519176 0.535700
O O1 0.665918 0.814802 0.637216
O O2 0.876855 0.810187 0.604679
O O3 0.676609 0.610580 0.693742
O O4 0.791544 0.791544 0.903843
O O5 0.253435 0.775913 0.694657
O O6 0.119750 0.612904 0.908376
O O7 0.030868 0.739705 0.728236
O O8 0.610581 0.676609 0.113944
O O9 0.592901 0.592901 0.403843
O O10 0.810188 0.876855 0.203006
O O11 0.739705 0.030868 0.079449
O O12 0.851116 0.185197 0.837136
O O13 0.612904 0.119750 0.899310
O O14 0.775914 0.253435 0.113028
#
# Coordination Sequence:
#
# PCOD9574373 Si02
#       7
#     3   3   3   3   3   3   3
#     4  10  23  42  62  91 125 162 208 252 308 370
#     4  10  22  42  61  91 123 165 203 256 309 363
#     4   9  21  40  60  87 125 156 203 252 303 367
#     4  10  22  42  62  88 128 160 206 254 310 368
#     4  10  23  42  62  91 125 162 208 252 308 370
#     4  10  22  42  61  91 123 165 203 256 309 363
#     4   9  21  40  60  87 125 156 203 252 303 367
#
# _framework density 19.855388999999999
#
# number of rings (size 3 to 8) (size 9 to 14) (size 15 to 20)
#    0.000    2.286    0.000    2.571    6.000    2.286 
#   20.571    0.000    0.000    0.000    0.000    0.000 
#    0.000    0.000    0.000    0.000    0.000    0.000 
#
# Total GULP energy -117138.299744 kJ/mol
# GULP energy per Si atom -5578.014274 kJ/mol
# Density = 1.981020 g / cm^3
# Si number density = 19.855389 Si / 1000 Ang^3
#
#
#
# Elastic Constant Matrix: (Units=GPa)
#
#
# Indices 1 2 3 4 5 6 
#
# 1 64.4892 20.0450 2.4061 6.7294 0.0000 0.0000
# 2 20.0450 64.4892 2.4061 -6.7294 0.0000 0.0000
# 3 2.4061 2.4061 55.8467 0.0000 0.0000 0.0000
# 4 6.7294 -6.7294 0.0000 11.5644 0.0000 0.0000
# 5 0.0000 0.0000 0.0000 0.0000 11.5644 6.7294
# 6 0.0000 0.0000 0.0000 0.0000 6.7294 22.2221
#
#
#
# Elastic Compliance Matrix: (Units=1/GPa)
#
#
# Indices 1 2 3 4 5 6 
#
# 1 0.019586 -0.007727 -0.000511 -0.015894 0.000000 0.000000
# 2 -0.007727 0.019586 -0.000511 0.015894 0.000000 0.000000
# 3 -0.000511 -0.000511 0.017950 0.000000 0.000000 0.000000
# 4 -0.015894 0.015894 0.000000 0.104969 0.000000 0.000000
# 5 0.000000 0.000000 0.000000 0.000000 0.104969 -0.031787
# 6 0.000000 0.000000 0.000000 0.000000 -0.031787 0.054626
#
#
# Mechanical properties :
#
#
# Convention : Reuss Voigt Hill
#
# Bulk Modulus (GPa) = 25.23736 26.05992 25.64864
# Shear Modulus (GPa) = 14.18871 19.73471 16.96171
#
# Velocity S-wave (km/s) = 2.67610 3.15607 2.92595
# Velocity P-wave (km/s) = 4.72090 5.14144 4.93565
#
# Compressibility (1/GPa) = 0.03962380
#
# Stress axis : x y z
#
# Youngs Moduli (GPa) = 51.05731 51.05731 55.70972
#
# Poissons Ratio (x) = 0.39453 0.02846
# Poissons Ratio (y) = 0.39453 0.02846
# Poissons Ratio (z) = 0.02609 0.02609
#
# Static dielectric constant tensor:
#      x y z
#    x 1.706590 0.000000 0.000000 
#    y 0.000000 1.706590 0.000000 
#    z 0.000000 0.000000 1.729880 
# 
# From -- ./inp_files/350.got.cif
#   From: 2010.05.17/outbox.cif.g08.bks.cpg/sg144_cif.got.tgz:350.got - 2010.05.20 13:46:34.
