data_PCOD9574575
_publ_section_title
;
Structure prediction by ZEFSAII (Michael W. Deem and Ramdas Pophale) SiO2 
 PCOD9574575
Probable space group: P 32
;
_chemical_formula_sum "Si O2"
_cell_formula_units_Z 24
_cell_length_a 8.671416
_cell_length_b 8.671416
_cell_length_c 15.668849
_cell_angle_alpha 90.000000
_cell_angle_beta 90.000000
_cell_angle_gamma 120.000000
_cell_volume 1020.346713
_symmetry_space_group_name_H-M "P 32"
_symmetry_group_IT_number 145
_symmetry_cell_setting 'hexagonal'
loop_
_space_group_symop_operation_xyz
x,y,z
-y,x-y,2/3+z
-x+y,-x,1/3+z
loop_
_atom_site_type_symbol
_atom_site_label
_atom_site_fract_x
_atom_site_fract_y
_atom_site_fract_z
Si Si1 0.190821 0.374350 0.725060
Si Si2 0.102664 0.520937 0.942117
Si Si3 0.822099 0.607206 0.636840
Si Si4 0.108651 0.554644 0.201795
Si Si5 0.570543 0.465429 0.429748
Si Si6 0.983056 0.134186 0.447101
Si Si7 0.049524 0.168862 0.241131
Si Si8 0.706436 0.470913 0.181753
O O1 0.298861 0.411301 0.638645
O O2 0.339427 0.540912 0.780738
O O3 0.159970 0.207702 0.779430
O O4 0.001566 0.355936 0.709855
O O5 0.296426 0.540480 0.935315
O O6 0.963637 0.353363 0.998072
O O7 0.995973 0.467052 0.852849
O O8 0.931251 0.611559 0.719876
O O9 0.788489 0.425944 0.592030
O O10 0.932631 0.765611 0.572182
O O11 0.091600 0.363815 0.212756
O O12 0.905906 0.515125 0.204707
O O13 0.690398 0.373907 0.442236
O O14 0.934815 0.280370 0.483763
O O15 0.012447 0.152641 0.343849
O O16 0.099931 0.087813 0.511790
#
# Coordination Sequence:
#
# PCOD9574575 Si02
#       8
#     3   3   3   3   3   3   3   3
#     4  10  22  46  71 101 145 193 239 304 369 435
#     4  10  22  44  72 102 148 189 241 306 371 438
#     4  11  23  43  69 103 145 188 250 292 367 445
#     4  10  23  45  69 104 137 188 241 298 371 429
#     4  10  22  39  74 103 137 189 246 299 364 447
#     4  11  27  47  73 105 151 192 249 307 369 434
#     4  12  28  47  69 110 148 194 246 310 367 440
#     4  10  23  45  71 102 141 189 244 300 370 438
#
# _framework density 23.521417
#
# number of rings (size 3 to 8) (size 9 to 14) (size 15 to 20)
#    0.000    1.500    0.000    5.250   10.500    0.000 
#    6.750    0.000    0.000    0.000    0.000    0.000 
#    0.000    0.000    0.000    0.000    0.000    0.000 
#
# Total GULP energy -133865.998031 kJ/mol
# GULP energy per Si atom -5577.749918 kJ/mol
# Density = 2.346788 g / cm^3
# Si number density = 23.521417 Si / 1000 Ang^3
#
#
#
# Elastic Constant Matrix: (Units=GPa)
#
#
# Indices 1 2 3 4 5 6 
#
# 1 128.5881 51.7855 43.3776 -5.8177 -4.3764 0.0000
# 2 51.7855 128.5881 43.3776 5.8177 4.3764 0.0000
# 3 43.3776 43.3776 61.8218 0.0000 0.0000 0.0000
# 4 -5.8177 5.8177 0.0000 37.6073 0.0000 4.3764
# 5 -4.3764 4.3764 0.0000 0.0000 37.6073 -5.8177
# 6 0.0000 0.0000 0.0000 4.3764 -5.8177 38.4013
#
#
#
# Elastic Compliance Matrix: (Units=1/GPa)
#
#
# Indices 1 2 3 4 5 6 
#
# 1 0.010942 -0.002574 -0.005872 0.002091 0.001573 0.000000
# 2 -0.002574 0.010942 -0.005872 -0.002091 -0.001573 0.000000
# 3 -0.005872 -0.005872 0.024415 0.000000 0.000000 0.000000
# 4 0.002091 -0.002091 0.000000 0.027604 0.000000 -0.003146
# 5 0.001573 -0.001573 0.000000 0.000000 0.027604 0.004182
# 6 0.000000 0.000000 0.000000 -0.003146 0.004182 0.027033
#
#
# Mechanical properties :
#
#
# Convention : Reuss Voigt Hill
#
# Bulk Modulus (GPa) = 56.60847 66.23104 61.41976
# Shear Modulus (GPa) = 30.66310 34.75368 32.70839
#
# Velocity S-wave (km/s) = 3.61449 3.84804 3.73309
# Velocity P-wave (km/s) = 6.44503 6.92547 6.68956
#
# Compressibility (1/GPa) = 0.01766520
#
# Stress axis : x y z
#
# Youngs Moduli (GPa) = 91.38876 91.38876 40.95826
#
# Poissons Ratio (x) = 0.23525 0.24049
# Poissons Ratio (y) = 0.23525 0.24049
# Poissons Ratio (z) = 0.53659 0.53659
#
# Static dielectric constant tensor:
#      x y z
#    x 1.912950 0.000000 0.000000 
#    y 0.000000 1.912950 0.000000 
#    z 0.000000 0.000000 2.065450 
# 
# From -- ./inp_files/872.got.cif
#   From: 2010.05.17/outbox.cif.g08.bks.cpg/sg145_cif.got.tgz:872.got - 2010.05.20 13:47:28.
