data_PCOD9574063
_publ_section_title
;
Structure prediction by ZEFSAII (Michael W. Deem and Ramdas Pophale) SiO2 
 PCOD9574063
Probable space group: I 41/A C D
;
_chemical_formula_sum "Si O2"
_cell_formula_units_Z 160
_cell_length_a 22.548638
_cell_length_b 22.548638
_cell_length_c 16.093362
_cell_angle_alpha 90.000000
_cell_angle_beta 90.000000
_cell_angle_gamma 90.000000
_cell_volume 8182.526286
_symmetry_space_group_name_H-M "I 41/A C D"
_symmetry_group_IT_number 142
_space_group.IT_coordinate_system_code '2'
_symmetry_cell_setting 'tetragonal'
loop_
_space_group_symop_operation_xyz
x,y,z
1/4-y,3/4+x,1/4+z
-x,1/2-y,z
1/4+y,1/4-x,3/4+z
x,-y,1/2-z
1/2-x,y,-z
3/4+y,1/4+x,1/4-z
1/4-y,1/4-x,1/4-z
-x,-y,-z
3/4+y,1/4-x,3/4-z
x,1/2+y,-z
3/4-y,3/4+x,1/4-z
-x,y,1/2+z
1/2+x,-y,z
1/4-y,3/4-x,3/4+z
3/4+y,3/4+x,3/4+z
1/2+x,1/2+y,1/2+z
3/4-y,1/4+x,3/4+z
1/2-x,-y,1/2+z
3/4+y,3/4-x,1/4+z
1/2+x,1/2-y,-z
-x,1/2+y,1/2-z
1/4+y,3/4+x,3/4-z
3/4-y,3/4-x,3/4-z
1/2-x,1/2-y,1/2-z
1/4+y,3/4-x,1/4-z
1/2+x,y,1/2-z
1/4-y,1/4+x,3/4-z
1/2-x,1/2+y,z
x,1/2-y,1/2+z
3/4-y,1/4-x,1/4+z
1/4+y,1/4+x,1/4+z
loop_
_atom_site_type_symbol
_atom_site_label
_atom_site_fract_x
_atom_site_fract_y
_atom_site_fract_z
Si Si1 0.125456 0.938654 0.302310
Si Si2 0.178501 0.236169 0.341591
Si Si3 0.500000 0.250000 0.238593
Si Si4 0.687480 0.751374 0.644173
Si Si5 0.428680 0.821321 0.125000
Si Si6 0.913706 0.850924 0.664803
O O1 0.173058 0.923058 0.375000
O O2 0.060213 0.935506 0.344135
O O3 0.120973 0.884340 0.238043
O O4 0.133982 0.000000 0.250000
O O5 0.245725 0.226748 0.367034
O O6 0.177162 0.236531 0.241401
O O7 0.151147 0.299099 0.368580
O O8 0.136697 0.186195 0.381374
O O9 0.455063 0.213719 0.296257
O O10 0.460052 0.299696 0.193261
O O11 0.638899 0.799935 0.618133
#
# Coordination Sequence:
#
# PCOD9574063 Si02
#       6
#    32  32  16  32  16  32
#     4  12  23  44  71  98 130 182 237 292 340 414
#     4  11  24  38  60  95 136 171 216 278 344 410
#     4  11  20  33  58  96 127 159 216 282 349 405
#     4  11  23  41  62  93 133 179 219 279 346 414
#     4  11  20  36  60  90 130 170 216 278 346 417
#     4  12  22  38  62  97 135 170 223 277 346 416
#
# _framework density 19.553864000000001
#
# number of rings (size 3 to 8) (size 9 to 14) (size 15 to 20)
#    0.000    0.600    8.000    1.200    0.000    0.000 
#    0.000    0.000    2.200    0.000    0.000    0.000 
#    0.000    0.000    0.000    0.000    0.000    0.000 
#
# Total GULP energy -446611.622209 kJ/mol
# GULP energy per Si atom -5582.645278 kJ/mol
# Density = 1.950936 g / cm^3
# Si number density = 19.553864 Si / 1000 Ang^3
#
#
#
# Elastic Constant Matrix: (Units=GPa)
#
#
# Indices 1 2 3 4 5 6 
#
# 1 151.4096 70.0216 30.7658 0.0000 0.0000 0.0000
# 2 70.0216 151.4108 30.7658 0.0000 0.0000 0.0000
# 3 30.7658 30.7658 42.8509 0.0000 0.0000 0.0000
# 4 0.0000 0.0000 0.0000 34.6158 0.0000 0.0000
# 5 0.0000 0.0000 0.0000 0.0000 34.6170 0.0000
# 6 0.0000 0.0000 0.0000 0.0000 0.0000 24.4091
#
#
#
# Elastic Compliance Matrix: (Units=1/GPa)
#
#
# Indices 1 2 3 4 5 6 
#
# 1 0.008964 -0.003323 -0.004051 0.000000 0.000000 0.000000
# 2 -0.003323 0.008964 -0.004051 0.000000 0.000000 0.000000
# 3 -0.004051 -0.004051 0.029153 0.000000 0.000000 0.000000
# 4 0.000000 0.000000 0.000000 0.028889 0.000000 0.000000
# 5 0.000000 0.000000 0.000000 0.000000 0.028888 0.000000
# 6 0.000000 0.000000 0.000000 0.000000 0.000000 0.040968
#
#
# Mechanical properties :
#
#
# Convention : Reuss Voigt Hill
#
# Bulk Modulus (GPa) = 41.26404 67.64195 54.45300
# Shear Modulus (GPa) = 28.28834 33.00290 30.64562
#
# Velocity S-wave (km/s) = 3.80766 4.11273 3.96313
# Velocity P-wave (km/s) = 6.36236 7.56442 6.98928
#
# Compressibility (1/GPa) = 0.02423417
#
# Stress axis : x y z
#
# Youngs Moduli (GPa) = 111.55460 111.55556 34.30173
#
# Poissons Ratio (x) = 0.37065 0.13894
# Poissons Ratio (y) = 0.37065 0.13894
# Poissons Ratio (z) = 0.45186 0.45186
#
# Static dielectric constant tensor:
#      x y z
#    x 1.686510 0.000000 0.000000 
#    y 0.000000 1.686500 0.000000 
#    z 0.000000 0.000000 1.756700 
# 
# From -- ./inp_files/7462.got.cif
#   From: 2010.05.17/outbox.cif.g08.bks.cpg/sg142_4_cif.got.tgz:7462.got - 2010.05.20 13:39:18.
