data_PCOD9574801
_publ_section_title
;
Structure prediction by ZEFSAII (Michael W. Deem and Ramdas Pophale) SiO2 
 PCOD9574801
Probable space group: R 3
;
_chemical_formula_sum "Si O2"
_cell_formula_units_Z 42
_cell_length_a 11.853951
_cell_length_b 11.853951
_cell_length_c 15.364503
_cell_angle_alpha 90.000000
_cell_angle_beta 90.000000
_cell_angle_gamma 120.000000
_cell_volume 1869.714963
_symmetry_space_group_name_H-M "R 3"
_symmetry_group_IT_number 146
_symmetry_cell_setting 'hexagonal'
loop_
_space_group_symop_operation_xyz
x,y,z
-y,x-y,z
-x+y,-x,z
2/3+x,1/3+y,1/3+z
2/3-y,1/3+x-y,1/3+z
2/3-x+y,1/3-x,1/3+z
1/3+x,2/3+y,2/3+z
1/3-y,2/3+x-y,2/3+z
1/3-x+y,2/3-x,2/3+z
loop_
_atom_site_type_symbol
_atom_site_label
_atom_site_fract_x
_atom_site_fract_y
_atom_site_fract_z
Si Si1 0.333335 0.666668 0.187875
Si Si2 0.000000 0.000000 0.729169
Si Si3 0.983315 0.257572 0.292654
Si Si4 0.407620 0.323529 0.584289
Si Si5 0.559702 0.608967 0.141639
Si Si6 0.352971 0.420015 0.412845
O O1 0.333334 0.666667 0.291684
O O2 0.463935 0.667324 0.158241
O O3 0.051987 0.902276 0.755561
O O4 0.115281 0.259481 0.262639
O O5 0.975912 0.355102 0.224670
O O6 0.989648 0.304506 0.390973
O O7 0.868293 0.110454 0.291168
O O8 0.414580 0.368210 0.484325
O O9 0.287052 0.306567 0.645312
O O10 0.468733 0.463439 0.109857
#
# Coordination Sequence:
#
# PCOD9574801 Si02
#       6
#     3   3   9   9   9   9
#     4  12  21  39  66  93 121 167 220 264 309 375
#     4  12  24  42  66  93 127 167 214 267 318 378
#     4  11  22  39  60  90 123 164 209 261 313 375
#     4  11  23  40  62  89 124 162 209 259 316 375
#     4  11  22  38  62  90 123 163 210 262 313 369
#     4  11  24  42  64  93 126 165 208 261 319 380
#
# _framework density 22.463317
#
# number of rings (size 3 to 8) (size 9 to 14) (size 15 to 20)
#    0.000    0.857    0.000   10.714    0.000    1.714 
#    0.000    2.143    0.000    0.000    0.000    0.000 
#    0.000    0.000    0.000    0.000    0.000    0.000 
#
# Total GULP energy -78253.415906 kJ/mol
# GULP energy per Si atom -5589.529708 kJ/mol
# Density = 2.241219 g / cm^3
# Si number density = 22.463317 Si / 1000 Ang^3
#
#
#
# Elastic Constant Matrix: (Units=GPa)
#
#
# Indices 1 2 3 4 5 6 
#
# 1 60.0524 -3.1746 7.8501 2.2603 -4.0054 -0.0005
# 2 -3.1746 60.0520 7.8501 -2.2604 4.0053 0.0001
# 3 7.8501 7.8501 88.4015 0.0000 -0.0001 -0.0001
# 4 2.2603 -2.2604 0.0000 36.4928 -0.0001 4.0053
# 5 -4.0054 4.0053 -0.0001 -0.0001 36.4929 2.2601
# 6 -0.0005 0.0001 -0.0001 4.0053 2.2601 31.6130
#
#
#
# Elastic Compliance Matrix: (Units=1/GPa)
#
#
# Indices 1 2 3 4 5 6 
#
# 1 0.017067 0.000956 -0.001600 -0.000998 0.001768 0.000000
# 2 0.000956 0.017068 -0.001600 0.000998 -0.001768 0.000000
# 3 -0.001600 -0.001600 0.011596 0.000000 0.000000 0.000000
# 4 -0.000998 0.000998 0.000000 0.027914 0.000000 -0.003537
# 5 0.001768 -0.001768 0.000000 0.000000 0.027914 -0.001996
# 6 0.000000 0.000000 0.000000 -0.003537 -0.001996 0.032223
#
#
# Mechanical properties :
#
#
# Convention : Reuss Voigt Hill
#
# Bulk Modulus (GPa) = 24.24764 25.95080 25.09922
# Shear Modulus (GPa) = 32.89032 33.98508 33.43770
#
# Velocity S-wave (km/s) = 3.83061 3.89384 3.86235
# Velocity P-wave (km/s) = 5.51203 5.63858 5.57567
#
# Compressibility (1/GPa) = 0.04124113
#
# Stress axis : x y z
#
# Youngs Moduli (GPa) = 58.59126 58.59087 86.23463
#
# Poissons Ratio (x) = -0.05601 0.13802
# Poissons Ratio (y) = -0.05601 0.13802
# Poissons Ratio (z) = 0.09377 0.09377
#
# Static dielectric constant tensor:
#      x y z
#    x 1.839480 0.000000 0.000000 
#    y 0.000000 1.839480 0.000000 
#    z 0.000000 0.000000 1.926950 
# 
# From -- ./inp_files/1659.got.cif
#   From: 2010.05.17/outbox.cif.g08.bks.cpg/sg146_cif.got.tgz:1659.got - 2010.05.20 13:48:23.
