data_PCOD9574818
_publ_section_title
;
Structure prediction by ZEFSAII (Michael W. Deem and Ramdas Pophale) SiO2 
 PCOD9574818
Probable space group: R 3
;
_chemical_formula_sum "Si O2"
_cell_formula_units_Z 60
_cell_length_a 14.325111
_cell_length_b 14.325111
_cell_length_c 14.349961
_cell_angle_alpha 90.000000
_cell_angle_beta 90.000000
_cell_angle_gamma 120.000000
_cell_volume 2550.218219
_symmetry_space_group_name_H-M "R 3"
_symmetry_group_IT_number 146
_symmetry_cell_setting 'hexagonal'
loop_
_space_group_symop_operation_xyz
x,y,z
-y,x-y,z
-x+y,-x,z
2/3+x,1/3+y,1/3+z
2/3-y,1/3+x-y,1/3+z
2/3-x+y,1/3-x,1/3+z
1/3+x,2/3+y,2/3+z
1/3-y,2/3+x-y,2/3+z
1/3-x+y,2/3-x,2/3+z
loop_
_atom_site_type_symbol
_atom_site_label
_atom_site_fract_x
_atom_site_fract_y
_atom_site_fract_z
Si Si1 0.333334 0.666668 0.666176
Si Si2 0.000000 0.000000 0.220559
Si Si3 0.268759 0.339828 0.069470
Si Si4 0.830663 0.684457 0.089813
Si Si5 0.502982 0.012007 0.104578
Si Si6 0.392988 0.889365 0.856330
Si Si7 0.499691 0.877641 0.561550
Si Si8 0.668300 0.592551 0.933978
O O1 0.333334 0.666667 0.775765
O O2 0.419348 0.782390 0.627236
O O3 0.062208 0.126143 0.242739
O O4 0.291254 0.242585 0.092121
O O5 0.381784 0.449542 0.080191
O O6 0.170492 0.312715 0.141040
O O7 0.233316 0.314232 0.962078
O O8 0.824826 0.789420 0.114488
O O9 0.771392 0.581850 0.157737
O O10 0.776409 0.645378 0.991567
O O11 0.389287 0.941753 0.162051
O O12 0.599992 0.098191 0.171234
O O13 0.495699 0.075924 0.011360
O O14 0.349380 0.948087 0.923454
#
# Coordination Sequence:
#
# PCOD9574818 Si02
#       8
#     3   3   9   9   9   9   9   9
#     4  12  21  36  75 114 148 182 259 342 399 447
#     4  12  24  42  69 117 151 194 259 336 411 480
#     4  11  25  44  77 116 154 204 272 342 410 491
#     4  11  24  43  71 108 149 205 257 328 406 484
#     4  11  27  46  73 113 157 218 270 334 409 505
#     4  12  25  42  73 108 157 202 253 337 411 483
#     4  11  24  42  75 112 156 195 273 332 411 479
#     4  12  26  47  73 108 158 214 267 327 421 497
#
# _framework density 23.527397000000001
#
# number of rings (size 3 to 8) (size 9 to 14) (size 15 to 20)
#    0.000    0.600    6.000    0.900    6.300    0.000 
#    0.000    1.500    0.000    2.400    0.000    0.000 
#    0.000    0.000    0.000    0.000    0.000    0.000 
#
# Total GULP energy -111340.671075 kJ/mol
# GULP energy per Si atom -5567.033554 kJ/mol
# Density = 2.347385 g / cm^3
# Si number density = 23.527397 Si / 1000 Ang^3
#
#
#
# Elastic Constant Matrix: (Units=GPa)
#
#
# Indices 1 2 3 4 5 6 
#
# 1 104.5358 27.0608 23.8343 -7.6974 1.5038 0.0000
# 2 27.0608 104.5363 23.8342 7.6972 -1.5037 0.0001
# 3 23.8343 23.8342 74.2109 -0.0002 -0.0001 0.0001
# 4 -7.6974 7.6972 -0.0002 34.9688 0.0002 -1.5039
# 5 1.5038 -1.5037 -0.0001 0.0002 34.9688 -7.6971
# 6 0.0000 0.0001 0.0001 -1.5039 -7.6971 38.7375
#
#
#
# Elastic Compliance Matrix: (Units=1/GPa)
#
#
# Indices 1 2 3 4 5 6 
#
# 1 0.011060 -0.002461 -0.002762 0.002976 -0.000581 0.000000
# 2 -0.002461 0.011060 -0.002762 -0.002976 0.000581 0.000000
# 3 -0.002762 -0.002762 0.015249 0.000000 0.000000 0.000000
# 4 0.002976 -0.002976 0.000000 0.029957 0.000000 0.001163
# 5 -0.000581 0.000581 0.000000 0.000000 0.029957 0.005952
# 6 0.000000 0.000000 0.000000 0.001163 0.005952 0.027043
#
#
# Mechanical properties :
#
#
# Convention : Reuss Voigt Hill
#
# Bulk Modulus (GPa) = 46.72784 48.08238 47.40511
# Shear Modulus (GPa) = 33.91445 35.63861 34.77653
#
# Velocity S-wave (km/s) = 3.80081 3.89623 3.84882
# Velocity P-wave (km/s) = 6.25825 6.38137 6.32011
#
# Compressibility (1/GPa) = 0.02140052
#
# Stress axis : x y z
#
# Youngs Moduli (GPa) = 90.41268 90.41330 65.57739
#
# Poissons Ratio (x) = 0.22250 0.18112
# Poissons Ratio (y) = 0.22250 0.18111
# Poissons Ratio (z) = 0.24971 0.24971
#
# Static dielectric constant tensor:
#      x y z
#    x 1.959780 0.000000 0.000000 
#    y 0.000000 1.959780 0.000000 
#    z 0.000000 0.000000 2.029680 
# 
# From -- ./inp_files/1556.got.cif
#   From: 2010.05.17/outbox.cif.g08.bks.cpg/sg146_cif.got.tgz:1556.got - 2010.05.20 13:48:23.
