data_PCOD9574878
_publ_section_title
;
Structure prediction by ZEFSAII (Michael W. Deem and Ramdas Pophale) SiO2 
 PCOD9574878
Probable space group: P -3
;
_chemical_formula_sum "Si O2"
_cell_formula_units_Z 48
_cell_length_a 17.886820
_cell_length_b 17.886820
_cell_length_c 8.865720
_cell_angle_alpha 90.000000
_cell_angle_beta 90.000000
_cell_angle_gamma 120.000000
_cell_volume 2456.466897
_symmetry_space_group_name_H-M "P -3"
_symmetry_group_IT_number 147
_symmetry_cell_setting 'hexagonal'
loop_
_space_group_symop_operation_xyz
x,y,z
-y,x-y,z
-x+y,-x,z
-x,-y,-z
y,-x+y,-z
x-y,x,-z
loop_
_atom_site_type_symbol
_atom_site_label
_atom_site_fract_x
_atom_site_fract_y
_atom_site_fract_z
Si Si1 0.650263 0.670256 0.596280
Si Si2 0.169493 0.164872 0.431056
Si Si3 0.172253 0.160671 0.065953
Si Si4 0.364030 0.520940 0.849588
Si Si5 0.636607 0.704176 0.032134
Si Si6 0.455869 0.069501 0.846924
Si Si7 0.179977 0.472220 0.799773
Si Si8 0.974726 0.568417 0.707659
O O1 0.740240 0.747563 0.535755
O O2 0.667744 0.610406 0.712852
O O3 0.596880 0.708606 0.682824
O O4 0.585036 0.610579 0.467683
O O5 0.087844 0.169327 0.497976
O O6 0.165685 0.158731 0.247922
O O7 0.263272 0.240159 0.008675
O O8 0.094030 0.167931 0.994063
O O9 0.280685 0.515098 0.774263
O O10 0.449238 0.611881 0.823607
O O11 0.377865 0.450248 0.764544
O O12 0.354448 0.499394 0.029261
O O13 0.597650 0.609473 0.952724
O O14 0.585319 0.744223 0.950885
O O15 0.611216 0.684945 0.205127
O O16 0.530947 0.059384 0.766141
#
# Coordination Sequence:
#
# PCOD9574878 Si02
#       8
#     6   6   6   6   6   6   6   6
#     4  11  25  40  66 101 134 163 226 270 330 394
#     4  12  28  49  68  95 140 178 214 266 342 400
#     4  12  27  46  71  98 129 174 228 275 328 396
#     4  11  22  38  69  88 132 173 220 263 338 380
#     4  10  21  38  65  97 128 157 227 273 311 381
#     4  10  19  42  63  95 123 171 214 273 318 385
#     4  11  22  42  59  98 130 171 217 274 317 408
#     4  11  21  39  68  94 128 175 209 274 333 374
#
# _framework density 19.540258999999999
#
# number of rings (size 3 to 8) (size 9 to 14) (size 15 to 20)
#    0.000    1.000    6.250    2.375    8.750    0.000 
#    0.000    0.000    0.000    0.000    0.000    0.000 
#    0.000    0.000    0.000    0.000    0.000    0.000 
#
# Total GULP energy -267662.175250 kJ/mol
# GULP energy per Si atom -5576.295318 kJ/mol
# Density = 1.949578 g / cm^3
# Si number density = 19.540259 Si / 1000 Ang^3
#
#
#
# Elastic Constant Matrix: (Units=GPa)
#
#
# Indices 1 2 3 4 5 6 
#
# 1 77.3143 38.3755 7.8486 2.0523 -0.6992 0.0000
# 2 38.3755 77.3143 7.8486 -2.0523 0.6992 0.0000
# 3 7.8486 7.8486 39.4356 0.0000 0.0000 0.0000
# 4 2.0523 -2.0523 0.0000 21.4443 0.0000 0.6992
# 5 -0.6992 0.6992 0.0000 0.0000 21.4443 2.0523
# 6 0.0000 0.0000 0.0000 0.6992 2.0523 19.4694
#
#
#
# Elastic Compliance Matrix: (Units=1/GPa)
#
#
# Indices 1 2 3 4 5 6 
#
# 1 0.017429 -0.008545 -0.001768 -0.002486 0.000847 0.000000
# 2 -0.008545 0.017429 -0.001768 0.002486 -0.000847 0.000000
# 3 -0.001768 -0.001768 0.026062 0.000000 0.000000 0.000000
# 4 -0.002486 0.002486 0.000000 0.047164 0.000000 -0.001694
# 5 0.000847 -0.000847 0.000000 0.000000 0.047164 -0.004972
# 6 0.000000 0.000000 0.000000 -0.001694 -0.004972 0.051948
#
#
# Mechanical properties :
#
#
# Convention : Reuss Voigt Hill
#
# Bulk Modulus (GPa) = 27.20592 33.57884 30.39238
# Shear Modulus (GPa) = 20.52475 21.80433 21.16454
#
# Velocity S-wave (km/s) = 3.24448 3.34408 3.29466
# Velocity P-wave (km/s) = 5.29044 5.66853 5.48275
#
# Compressibility (1/GPa) = 0.03675671
#
# Stress axis : x y z
#
# Youngs Moduli (GPa) = 57.37648 57.37648 38.37064
#
# Poissons Ratio (x) = 0.49028 0.06784
# Poissons Ratio (y) = 0.49028 0.06784
# Poissons Ratio (z) = 0.10145 0.10145
#
# Static dielectric constant tensor:
#      x y z
#    x 1.698810 0.000000 0.000000 
#    y 0.000000 1.698810 0.000000 
#    z 0.000000 0.000000 1.729090 
# 
# From -- ./inp_files/685.got.cif
#   From: 2010.05.17/outbox.cif.g08.bks.cpg/sg147_cif.got.tgz:685.got - 2010.05.20 13:49:32.
