data_PCOD9574014
_publ_section_title
;
Structure prediction by ZEFSAII (Michael W. Deem and Ramdas Pophale) SiO2 
 PCOD9574014
Probable space group: I 41/A C D
;
_chemical_formula_sum "Si O2"
_cell_formula_units_Z 136
_cell_length_a 22.810099
_cell_length_b 22.810099
_cell_length_c 12.400267
_cell_angle_alpha 90.000000
_cell_angle_beta 90.000000
_cell_angle_gamma 90.000000
_cell_volume 6451.866563
_symmetry_space_group_name_H-M "I 41/A C D"
_symmetry_group_IT_number 142
_space_group.IT_coordinate_system_code '2'
_symmetry_cell_setting 'tetragonal'
loop_
_space_group_symop_operation_xyz
x,y,z
1/4-y,3/4+x,1/4+z
-x,1/2-y,z
1/4+y,1/4-x,3/4+z
x,-y,1/2-z
1/2-x,y,-z
3/4+y,1/4+x,1/4-z
1/4-y,1/4-x,1/4-z
-x,-y,-z
3/4+y,1/4-x,3/4-z
x,1/2+y,-z
3/4-y,3/4+x,1/4-z
-x,y,1/2+z
1/2+x,-y,z
1/4-y,3/4-x,3/4+z
3/4+y,3/4+x,3/4+z
1/2+x,1/2+y,1/2+z
3/4-y,1/4+x,3/4+z
1/2-x,-y,1/2+z
3/4+y,3/4-x,1/4+z
1/2+x,1/2-y,-z
-x,1/2+y,1/2-z
1/4+y,3/4+x,3/4-z
3/4-y,3/4-x,3/4-z
1/2-x,1/2-y,1/2-z
1/4+y,3/4-x,1/4-z
1/2+x,y,1/2-z
1/4-y,1/4+x,3/4-z
1/2-x,1/2+y,z
x,1/2-y,1/2+z
3/4-y,1/4-x,1/4+z
1/4+y,1/4+x,1/4+z
loop_
_atom_site_type_symbol
_atom_site_label
_atom_site_fract_x
_atom_site_fract_y
_atom_site_fract_z
Si Si1 0.000000 0.250000 0.375000
Si Si2 0.390411 0.433714 0.291640
Si Si3 0.892432 0.175487 0.870967
Si Si4 0.311112 0.137377 0.436291
Si Si5 0.497920 0.935455 0.547198
O O1 0.040291 0.302003 0.328151
O O2 0.377720 0.500000 0.250000
O O3 0.341046 0.408955 0.375000
O O4 0.400848 0.383202 0.201519
O O5 0.450973 0.435438 0.356860
O O6 0.858379 0.221715 0.792904
O O7 0.854701 0.153755 0.969009
O O8 0.250000 0.136755 0.500000
O O9 0.327458 0.077458 0.375000
O O10 0.321710 0.187971 0.347488
O O11 0.500000 0.000000 0.500000
#
# Coordination Sequence:
#
# PCOD9574014 Si02
#       5
#     8  32  32  32  32
#     4  12  24  40  70 104 144 170 212 304 362 408
#     4  10  24  43  72 100 137 189 242 288 358 423
#     4  11  25  45  68 108 145 187 238 302 362 437
#     4  12  26  44  72 106 143 191 246 301 367 432
#     4  11  23  43  74 100 135 191 247 291 357 437
#
# _framework density 21.079172
#
# number of rings (size 3 to 8) (size 9 to 14) (size 15 to 20)
#    0.000    0.941    2.353    3.529    6.588    0.000 
#    0.000   14.118    0.000    0.000    0.000    0.000 
#    0.000    0.000    0.000    0.000    0.000    0.000 
#
# Total GULP energy -379170.412725 kJ/mol
# GULP energy per Si atom -5576.035481 kJ/mol
# Density = 2.103119 g / cm^3
# Si number density = 21.079172 Si / 1000 Ang^3
#
#
#
# Elastic Constant Matrix: (Units=GPa)
#
#
# Indices 1 2 3 4 5 6 
#
# 1 23.2913 146.6749 40.0059 0.0000 0.0000 0.0000
# 2 146.6749 23.2950 40.0042 0.0000 0.0000 0.0000
# 3 40.0059 40.0042 90.1520 0.0000 0.0000 0.0000
# 4 0.0000 0.0000 0.0000 26.9250 0.0000 0.0000
# 5 0.0000 0.0000 0.0000 0.0000 26.9258 0.0000
# 6 0.0000 0.0000 0.0000 0.0000 0.0000 23.0243
#
#
#
# Elastic Compliance Matrix: (Units=1/GPa)
#
#
# Indices 1 2 3 4 5 6 
#
# 1 -0.000334 0.007771 -0.003300 0.000000 0.000000 0.000000
# 2 0.007771 -0.000334 -0.003300 0.000000 0.000000 0.000000
# 3 -0.003300 -0.003300 0.014021 0.000000 0.000000 0.000000
# 4 0.000000 0.000000 0.000000 0.037140 0.000000 0.000000
# 5 0.000000 0.000000 0.000000 0.000000 0.037139 0.000000
# 6 0.000000 0.000000 0.000000 0.000000 0.000000 0.043432
#
#
# Mechanical properties :
#
#
# Convention : Reuss Voigt Hill
#
# Bulk Modulus (GPa) = 63.71636 65.56760 64.64198
# Shear Modulus (GPa) = 37.32588 9.37857 23.35223
#
# Velocity S-wave (km/s) = 4.21259 2.11160 3.33203
# Velocity P-wave (km/s) = 7.34534 6.09246 6.74804
#
# Compressibility (1/GPa) = 0.01569456
#
# Stress axis : x y z
#
# Youngs Moduli (GPa) = -2992.78646 -2995.59462 71.32018
#
# Poissons Ratio (x) = 23.27861 0.23536
# Poissons Ratio (y) = 23.25679 0.23538
# Poissons Ratio (z) = -9.87625 -9.88639
#
# Static dielectric constant tensor:
#      x y z
#    x 1.757330 0.000000 0.000000 
#    y 0.000000 1.757340 0.000000 
#    z 0.000000 0.000000 1.610340 
# 
# From -- ./inp_files/3596.got.cif
#   From: 2010.05.17/outbox.cif.g08.bks.cpg/sg142_2_cif.got.tgz:3596.got - 2010.05.20 13:39:18.
