data_PCOD9574749
_publ_section_title
;
Structure prediction by ZEFSAII (Michael W. Deem and Ramdas Pophale) SiO2 
 PCOD9574749
Probable space group: R 3
;
_chemical_formula_sum "Si O2"
_cell_formula_units_Z 51
_cell_length_a 10.709455
_cell_length_b 10.709455
_cell_length_c 22.731081
_cell_angle_alpha 90.000000
_cell_angle_beta 90.000000
_cell_angle_gamma 120.000000
_cell_volume 2257.799964
_symmetry_space_group_name_H-M "R 3"
_symmetry_group_IT_number 146
_symmetry_cell_setting 'hexagonal'
loop_
_space_group_symop_operation_xyz
x,y,z
-y,x-y,z
-x+y,-x,z
2/3+x,1/3+y,1/3+z
2/3-y,1/3+x-y,1/3+z
2/3-x+y,1/3-x,1/3+z
1/3+x,2/3+y,2/3+z
1/3-y,2/3+x-y,2/3+z
1/3-x+y,2/3-x,2/3+z
loop_
_atom_site_type_symbol
_atom_site_label
_atom_site_fract_x
_atom_site_fract_y
_atom_site_fract_z
Si Si1 0.401163 0.942023 0.792570
Si Si2 0.340620 0.829247 0.415969
Si Si3 0.666668 0.333334 0.240661
Si Si4 0.641035 0.067176 0.881959
Si Si5 0.195091 0.857244 0.901195
Si Si6 0.666667 0.333334 0.384129
Si Si7 0.546100 0.635872 0.282820
O O1 0.306971 0.013238 0.770745
O O2 0.303507 0.865283 0.850352
O O3 0.388821 0.825216 0.745152
O O4 0.564097 0.037120 0.818009
O O5 0.202446 0.673723 0.432106
O O6 0.380188 0.865815 0.347291
O O7 0.761687 0.261872 0.220374
O O8 0.666668 0.333334 0.313054
O O9 0.805156 0.176708 0.900409
O O10 0.561018 0.130116 0.919847
O O11 0.607784 0.916321 0.909540
O O12 0.296399 0.954984 0.953217
#
# Coordination Sequence:
#
# PCOD9574749 Si02
#       7
#     9   9   3   9   9   3   9
#     4  11  25  41  66  97 141 181 234 291 366 402
#     4  10  22  42  71 102 139 183 237 292 352 428
#     4  12  24  39  72  99 135 168 252 285 349 407
#     4  11  22  42  65 103 135 180 235 297 339 429
#     4  11  24  39  67 101 132 180 238 289 336 428
#     4  12  24  45  60  99 144 189 222 303 358 425
#     4  11  21  42  73  99 138 185 234 289 362 415
#
# _framework density 22.588360000000002
#
# number of rings (size 3 to 8) (size 9 to 14) (size 15 to 20)
#    0.353    0.706    5.294    1.412    2.471    0.000 
#    1.059    0.000    0.000    0.000    0.000    0.000 
#    0.000    0.000    0.000    0.000    0.000    0.000 
#
# Total GULP energy -94654.410769 kJ/mol
# GULP energy per Si atom -5567.906516 kJ/mol
# Density = 2.253695 g / cm^3
# Si number density = 22.588360 Si / 1000 Ang^3
#
#
#
# Elastic Constant Matrix: (Units=GPa)
#
#
# Indices 1 2 3 4 5 6 
#
# 1 88.6037 8.5376 32.6950 -2.1073 -6.4202 -0.0002
# 2 8.5376 88.6046 32.6950 2.1075 6.4202 -0.0001
# 3 32.6950 32.6950 108.1829 0.0000 0.0001 -0.0001
# 4 -2.1073 2.1075 0.0000 24.3880 0.0000 6.4203
# 5 -6.4202 6.4202 0.0001 0.0000 24.3881 -2.1075
# 6 -0.0002 -0.0001 -0.0001 6.4203 -2.1075 40.0331
#
#
#
# Elastic Compliance Matrix: (Units=1/GPa)
#
#
# Indices 1 2 3 4 5 6 
#
# 1 0.013013 -0.000090 -0.003906 0.001132 0.003449 0.000000
# 2 -0.000090 0.013013 -0.003906 -0.001132 -0.003449 0.000000
# 3 -0.003906 -0.003906 0.011604 0.000000 0.000000 0.000000
# 4 0.001132 -0.001132 0.000000 0.043016 0.000000 -0.006899
# 5 0.003449 -0.003449 0.000000 0.000000 0.043015 0.002264
# 6 0.000000 0.000000 0.000000 -0.006899 0.002264 0.026205
#
#
# Mechanical properties :
#
#
# Convention : Reuss Voigt Hill
#
# Bulk Modulus (GPa) = 45.81220 48.13849 46.97534
# Shear Modulus (GPa) = 28.91115 31.85941 30.38528
#
# Velocity S-wave (km/s) = 3.58147 3.75965 3.67164
# Velocity P-wave (km/s) = 6.11784 6.34067 6.23025
#
# Compressibility (1/GPa) = 0.02182825
#
# Stress axis : x y z
#
# Youngs Moduli (GPa) = 76.84681 76.84770 86.17468
#
# Poissons Ratio (x) = 0.00688 0.33657
# Poissons Ratio (y) = 0.00688 0.33657
# Poissons Ratio (z) = 0.30014 0.30014
#
# Static dielectric constant tensor:
#      x y z
#    x 1.922400 0.000000 0.000000 
#    y 0.000000 1.922390 0.000000 
#    z 0.000000 0.000000 1.840570 
# 
# From -- ./inp_files/2119.got.cif
#   From: 2010.05.17/outbox.cif.g08.bks.cpg/sg146_cif.got.tgz:2119.got - 2010.05.20 13:48:23.
