data_PCOD9574507
_publ_section_title
;
Structure prediction by ZEFSAII (Michael W. Deem and Ramdas Pophale) SiO2 
 PCOD9574507
Probable space group: P 31
;
_chemical_formula_sum "Si O2"
_cell_formula_units_Z 15
_cell_length_a 8.454968
_cell_length_b 8.454968
_cell_length_c 10.157042
_cell_angle_alpha 90.000000
_cell_angle_beta 90.000000
_cell_angle_gamma 120.000000
_cell_volume 628.813441
_symmetry_space_group_name_H-M "P 31"
_symmetry_group_IT_number 144
_symmetry_cell_setting 'hexagonal'
loop_
_space_group_symop_operation_xyz
x,y,z
-y,x-y,1/3+z
-x+y,-x,2/3+z
loop_
_atom_site_type_symbol
_atom_site_label
_atom_site_fract_x
_atom_site_fract_y
_atom_site_fract_z
Si Si1 0.243997 0.061947 0.974710
Si Si2 0.460663 0.400649 0.606807
Si Si3 0.556013 0.500120 0.310047
Si Si4 0.856126 0.111390 0.589214
Si Si5 0.160272 0.332057 0.806364
O O1 0.453559 0.124198 0.965755
O O2 0.199167 0.206617 0.906773
O O3 0.194788 0.022610 0.127140
O O4 0.107966 0.867104 0.912039
O O5 0.455028 0.442253 0.451669
O O6 0.426347 0.199482 0.643036
O O7 0.327490 0.429314 0.704013
O O8 0.461836 0.303674 0.240229
O O9 0.538700 0.651422 0.226799
O O10 0.984463 0.204136 0.714385
#
# Coordination Sequence:
#
# PCOD9574507 Si02
#       5
#     3   3   3   3   3
#     4  12  25  46  77 108 151 206 255 319 400 475
#     4  12  25  49  79 113 155 205 266 327 403 475
#     4  12  25  49  79 113 155 205 266 327 403 475
#     4  12  25  46  77 108 151 206 255 319 400 475
#     4  12  26  50  76 114 160 206 262 330 402 482
#
# _framework density 23.854451999999998
#
# number of rings (size 3 to 8) (size 9 to 14) (size 15 to 20)
#    0.000    0.000    6.000    4.800    0.000    0.000 
#   10.800    0.000    0.000    0.000    0.000    0.000 
#    0.000    0.000    0.000    0.000    0.000    0.000 
#
# Total GULP energy -83804.360625 kJ/mol
# GULP energy per Si atom -5586.957375 kJ/mol
# Density = 2.380016 g / cm^3
# Si number density = 23.854452 Si / 1000 Ang^3
#
#
#
# Elastic Constant Matrix: (Units=GPa)
#
#
# Indices 1 2 3 4 5 6 
#
# 1 81.4148 9.5925 34.0076 5.8130 -5.9980 0.0000
# 2 9.5925 81.4148 34.0076 -5.8130 5.9980 0.0000
# 3 34.0076 34.0076 132.7979 0.0000 0.0000 0.0000
# 4 5.8130 -5.8130 0.0000 23.8340 0.0000 5.9980
# 5 -5.9980 5.9980 0.0000 0.0000 23.8340 5.8130
# 6 0.0000 0.0000 0.0000 5.9980 5.8130 35.9111
#
#
#
# Elastic Compliance Matrix: (Units=1/GPa)
#
#
# Indices 1 2 3 4 5 6 
#
# 1 0.014374 -0.000785 -0.003480 -0.003697 0.003815 0.000000
# 2 -0.000785 0.014374 -0.003480 0.003697 -0.003815 0.000000
# 3 -0.003480 -0.003480 0.009313 0.000000 0.000000 0.000000
# 4 -0.003697 0.003697 0.000000 0.045680 0.000000 -0.007630
# 5 0.003815 -0.003815 0.000000 0.000000 0.045680 -0.007394
# 6 0.000000 0.000000 0.000000 -0.007630 -0.007394 0.030318
#
#
# Mechanical properties :
#
#
# Convention : Reuss Voigt Hill
#
# Bulk Modulus (GPa) = 44.30532 50.09365 47.19949
# Shear Modulus (GPa) = 27.35948 31.25050 29.30499
#
# Velocity S-wave (km/s) = 3.39032 3.62339 3.50879
# Velocity P-wave (km/s) = 5.82573 6.20891 6.02037
#
# Compressibility (1/GPa) = 0.02257065
#
# Stress axis : x y z
#
# Youngs Moduli (GPa) = 69.57059 69.57059 107.38201
#
# Poissons Ratio (x) = 0.05461 0.37368
# Poissons Ratio (y) = 0.05461 0.37368
# Poissons Ratio (z) = 0.24210 0.24210
#
# Static dielectric constant tensor:
#      x y z
#    x 1.911060 0.000000 0.000000 
#    y 0.000000 1.911060 0.000000 
#    z 0.000000 0.000000 2.008230 
# 
# From -- ./inp_files/224.got.cif
#   From: 2010.05.17/outbox.cif.g08.bks.cpg/sg144_cif.got.tgz:224.got - 2010.05.20 13:46:34.
