data_PCOD9574150
_publ_section_title
;
Structure prediction by ZEFSAII (Michael W. Deem and Ramdas Pophale) SiO2 
 PCOD9574150
Probable space group: I 41/A C D
;
_chemical_formula_sum "Si O2"
_cell_formula_units_Z 96
_cell_length_a 21.048259
_cell_length_b 21.048259
_cell_length_c 10.594105
_cell_angle_alpha 90.000000
_cell_angle_beta 90.000000
_cell_angle_gamma 90.000000
_cell_volume 4693.497936
_symmetry_space_group_name_H-M "I 41/A C D"
_symmetry_group_IT_number 142
_space_group.IT_coordinate_system_code '2'
_symmetry_cell_setting 'tetragonal'
loop_
_space_group_symop_operation_xyz
x,y,z
1/4-y,3/4+x,1/4+z
-x,1/2-y,z
1/4+y,1/4-x,3/4+z
x,-y,1/2-z
1/2-x,y,-z
3/4+y,1/4+x,1/4-z
1/4-y,1/4-x,1/4-z
-x,-y,-z
3/4+y,1/4-x,3/4-z
x,1/2+y,-z
3/4-y,3/4+x,1/4-z
-x,y,1/2+z
1/2+x,-y,z
1/4-y,3/4-x,3/4+z
3/4+y,3/4+x,3/4+z
1/2+x,1/2+y,1/2+z
3/4-y,1/4+x,3/4+z
1/2-x,-y,1/2+z
3/4+y,3/4-x,1/4+z
1/2+x,1/2-y,-z
-x,1/2+y,1/2-z
1/4+y,3/4+x,3/4-z
3/4-y,3/4-x,3/4-z
1/2-x,1/2-y,1/2-z
1/4+y,3/4-x,1/4-z
1/2+x,y,1/2-z
1/4-y,1/4+x,3/4-z
1/2-x,1/2+y,z
x,1/2-y,1/2+z
3/4-y,1/4-x,1/4+z
1/4+y,1/4+x,1/4+z
loop_
_atom_site_type_symbol
_atom_site_label
_atom_site_fract_x
_atom_site_fract_y
_atom_site_fract_z
Si Si1 0.374894 0.811863 0.741591
Si Si2 0.856980 0.491931 0.107767
Si Si3 0.131795 0.835350 0.740728
O O1 0.422871 0.827130 0.625000
O O2 0.313596 0.855187 0.712884
O O3 0.404421 0.834161 0.873747
O O4 0.353422 0.739320 0.751224
O O5 0.883133 0.500000 0.250000
O O6 0.785778 0.464223 0.125000
O O7 0.870483 0.557319 0.037940
O O8 0.103642 0.853642 0.875000
#
# Coordination Sequence:
#
# PCOD9574150 Si02
#       3
#    32  32  32
#     4  11  24  47  70 102 147 185 223 290 349 415
#     4  11  23  47  72  94 138 185 230 296 354 403
#     4  12  26  43  73 108 137 185 238 281 351 425
#
# _framework density 20.45383
#
# number of rings (size 3 to 8) (size 9 to 14) (size 15 to 20)
#    0.000    0.667    6.667    3.000    0.000    6.667 
#    0.000    0.000    0.000    0.000    0.000    0.000 
#    0.000    0.000    0.000    0.000    0.000    0.000 
#
# Total GULP energy -268184.346353 kJ/mol
# GULP energy per Si atom -5587.173882 kJ/mol
# Density = 2.040728 g / cm^3
# Si number density = 20.453830 Si / 1000 Ang^3
#
#
#
# Elastic Constant Matrix: (Units=GPa)
#
#
# Indices 1 2 3 4 5 6 
#
# 1 14.1552 100.3239 25.3570 0.0000 0.0000 0.0000
# 2 100.3239 14.1487 25.3588 0.0000 0.0000 0.0000
# 3 25.3570 25.3588 162.1116 0.0000 0.0000 0.0000
# 4 0.0000 0.0000 0.0000 7.9457 0.0000 0.0000
# 5 0.0000 0.0000 0.0000 0.0000 7.9502 0.0000
# 6 0.0000 0.0000 0.0000 0.0000 0.0000 10.3214
#
#
#
# Elastic Compliance Matrix: (Units=1/GPa)
#
#
# Indices 1 2 3 4 5 6 
#
# 1 -0.001109 0.010495 -0.001468 0.000000 0.000000 0.000000
# 2 0.010495 -0.001110 -0.001468 0.000000 0.000000 0.000000
# 3 -0.001468 -0.001468 0.006628 0.000000 0.000000 0.000000
# 4 0.000000 0.000000 0.000000 0.125855 0.000000 0.000000
# 5 0.000000 0.000000 0.000000 0.000000 0.125782 0.000000
# 6 0.000000 0.000000 0.000000 0.000000 0.000000 0.096886
#
#
# Mechanical properties :
#
#
# Convention : Reuss Voigt Hill
#
# Bulk Modulus (GPa) = 51.21103 54.72165 52.96634
# Shear Modulus (GPa) = 14.52124 7.86853 11.19488
#
# Velocity S-wave (km/s) = 2.66738 1.96350 2.34203
# Velocity P-wave (km/s) = 5.88033 5.65263 5.76761
#
# Compressibility (1/GPa) = 0.01952704
#
# Stress axis : x y z
#
# Youngs Moduli (GPa) = -901.69591 -901.07419 150.87744
#
# Poissons Ratio (x) = 9.45705 0.22153
# Poissons Ratio (y) = 9.46357 0.22149
# Poissons Ratio (z) = -1.32395 -1.32281
#
# Static dielectric constant tensor:
#      x y z
#    x 1.724090 0.000000 0.000000 
#    y 0.000000 1.724090 0.000000 
#    z 0.000000 0.000000 1.729610 
# 
# From -- ./inp_files/1603.got.cif
#   From: 2010.05.17/outbox.cif.g08.bks.cpg/sg142_1_cif.got.tgz:1603.got - 2010.05.20 13:39:18.
