data_PCOD9574196
_publ_section_title
;
Structure prediction by ZEFSAII (Michael W. Deem and Ramdas Pophale) SiO2 
 PCOD9574196
Probable space group: I 41/A C D
;
_chemical_formula_sum "Si O2"
_cell_formula_units_Z 72
_cell_length_a 18.983475
_cell_length_b 18.983475
_cell_length_c 7.922763
_cell_angle_alpha 90.000000
_cell_angle_beta 90.000000
_cell_angle_gamma 90.000000
_cell_volume 2855.144507
_symmetry_space_group_name_H-M "I 41/A C D"
_symmetry_group_IT_number 142
_space_group.IT_coordinate_system_code '2'
_symmetry_cell_setting 'tetragonal'
loop_
_space_group_symop_operation_xyz
x,y,z
1/4-y,3/4+x,1/4+z
-x,1/2-y,z
1/4+y,1/4-x,3/4+z
x,-y,1/2-z
1/2-x,y,-z
3/4+y,1/4+x,1/4-z
1/4-y,1/4-x,1/4-z
-x,-y,-z
3/4+y,1/4-x,3/4-z
x,1/2+y,-z
3/4-y,3/4+x,1/4-z
-x,y,1/2+z
1/2+x,-y,z
1/4-y,3/4-x,3/4+z
3/4+y,3/4+x,3/4+z
1/2+x,1/2+y,1/2+z
3/4-y,1/4+x,3/4+z
1/2-x,-y,1/2+z
3/4+y,3/4-x,1/4+z
1/2+x,1/2-y,-z
-x,1/2+y,1/2-z
1/4+y,3/4+x,3/4-z
3/4-y,3/4-x,3/4-z
1/2-x,1/2-y,1/2-z
1/4+y,3/4-x,1/4-z
1/2+x,y,1/2-z
1/4-y,1/4+x,3/4-z
1/2-x,1/2+y,z
x,1/2-y,1/2+z
3/4-y,1/4-x,1/4+z
1/4+y,1/4+x,1/4+z
loop_
_atom_site_type_symbol
_atom_site_label
_atom_site_fract_x
_atom_site_fract_y
_atom_site_fract_z
Si Si1 0.500000 0.250000 0.125000
Si Si2 0.933419 0.899030 0.258318
Si Si3 0.079354 0.055171 0.101176
O O1 0.570664 0.212399 0.048412
O O2 0.866918 0.883083 0.375000
O O3 0.998287 0.928195 0.364437
O O4 0.915693 0.949530 0.101335
O O5 0.125639 0.124361 0.125000
O O6 0.100051 0.000000 0.250000
#
# Coordination Sequence:
#
# PCOD9574196 Si02
#       3
#     8  32  32
#     4  12  18  32  66  96 154 172 214 304 394 440
#     4  12  21  37  66 103 141 180 227 299 389 442
#     4  12  24  41  63  96 137 187 241 297 354 436
#
# _framework density 25.217635999999999
#
# number of rings (size 3 to 8) (size 9 to 14) (size 15 to 20)
#    0.000    0.000    8.889    2.000    0.000    0.000 
#    0.000    0.000    0.000   10.667    0.000    0.000 
#    0.000    0.000    0.000    0.000    0.000    0.000 
#
# Total GULP energy -200921.241375 kJ/mol
# GULP energy per Si atom -5581.145594 kJ/mol
# Density = 2.516024 g / cm^3
# Si number density = 25.217636 Si / 1000 Ang^3
#
#
#
# Elastic Constant Matrix: (Units=GPa)
#
#
# Indices 1 2 3 4 5 6 
#
# 1 91.6800 42.9928 55.6633 0.0000 0.0000 0.0000
# 2 42.9928 91.6797 55.6655 0.0000 0.0000 0.0000
# 3 55.6633 55.6655 225.6463 0.0000 0.0000 0.0000
# 4 0.0000 0.0000 0.0000 29.8900 0.0000 0.0000
# 5 0.0000 0.0000 0.0000 0.0000 29.8951 0.0000
# 6 0.0000 0.0000 0.0000 0.0000 0.0000 38.0466
#
#
#
# Elastic Compliance Matrix: (Units=1/GPa)
#
#
# Indices 1 2 3 4 5 6 
#
# 1 0.014933 -0.005606 -0.002301 0.000000 0.000000 0.000000
# 2 -0.005606 0.014934 -0.002301 0.000000 0.000000 0.000000
# 3 -0.002301 -0.002301 0.005567 0.000000 0.000000 0.000000
# 4 0.000000 0.000000 0.000000 0.033456 0.000000 0.000000
# 5 0.000000 0.000000 0.000000 0.000000 0.033450 0.000000
# 6 0.000000 0.000000 0.000000 0.000000 0.000000 0.026284
#
#
# Mechanical properties :
#
#
# Convention : Reuss Voigt Hill
#
# Bulk Modulus (GPa) = 66.58640 79.73882 73.16261
# Shear Modulus (GPa) = 32.45793 36.54530 34.50161
#
# Velocity S-wave (km/s) = 3.59153 3.81096 3.70287
# Velocity P-wave (km/s) = 6.60763 7.14517 6.88165
#
# Compressibility (1/GPa) = 0.01501808
#
# Stress axis : x y z
#
# Youngs Moduli (GPa) = 66.96434 66.96315 179.63068
#
# Poissons Ratio (x) = 0.37539 0.41331
# Poissons Ratio (y) = 0.37539 0.41335
# Poissons Ratio (z) = 0.15408 0.15409
#
# Static dielectric constant tensor:
#      x y z
#    x 1.997180 0.000000 0.000000 
#    y 0.000000 1.997190 0.000000 
#    z 0.000000 0.000000 2.212880 
# 
# From -- ./inp_files/1377.got.cif
#   From: 2010.05.17/outbox.cif.g08.bks.cpg/sg142_1_cif.got.tgz:1377.got - 2010.05.20 13:39:18.
