data_PCOD9574932
_publ_section_title
;
Structure prediction by ZEFSAII (Michael W. Deem and Ramdas Pophale) SiO2 
 PCOD9574932
Probable space group: P -3
;
_chemical_formula_sum "Si O2"
_cell_formula_units_Z 18
_cell_length_a 11.151949
_cell_length_b 11.151949
_cell_length_c 7.858172
_cell_angle_alpha 90.000000
_cell_angle_beta 90.000000
_cell_angle_gamma 120.000000
_cell_volume 846.357236
_symmetry_space_group_name_H-M "P -3"
_symmetry_group_IT_number 147
_symmetry_cell_setting 'hexagonal'
loop_
_space_group_symop_operation_xyz
x,y,z
-y,x-y,z
-x+y,-x,z
-x,-y,-z
y,-x+y,-z
x-y,x,-z
loop_
_atom_site_type_symbol
_atom_site_label
_atom_site_fract_x
_atom_site_fract_y
_atom_site_fract_z
Si Si1 0.312517 0.063911 0.805255
Si Si2 0.486249 0.827155 0.500000
Si Si3 0.936089 0.248606 0.194744
O O1 0.429843 0.096808 0.667468
O O2 0.267349 0.179800 0.782690
O O3 0.179800 0.912451 0.782690
O O4 0.362237 0.074069 1.000000
O O5 0.328493 0.793011 0.500000
O O6 0.570157 0.903192 0.667468
#
# Coordination Sequence:
#
# PCOD9574932 Si02
#       3
#     6   6   6
#     4  10  21  38  62  89 114 143 184 238 294 340
#     4  10  24  40  54  80 120 156 196 228 266 330
#     4  10  21  38  62  89 114 143 184 238 294 340
#
# _framework density 21.267613999999998
#
# number of rings (size 3 to 8) (size 9 to 14) (size 15 to 20)
#    0.667    1.333    0.000    2.667    0.000   10.667 
#    0.000   10.000    0.000    0.000    0.000    0.000 
#    0.000    0.000    0.000    0.000    0.000    0.000 
#
# Total GULP energy -100644.255898 kJ/mol
# GULP energy per Si atom -5591.347550 kJ/mol
# Density = 2.121921 g / cm^3
# Si number density = 21.267614 Si / 1000 Ang^3
#
#
#
# Elastic Constant Matrix: (Units=GPa)
#
#
# Indices 1 2 3 4 5 6 
#
# 1 91.7418 11.4955 58.6401 -0.0001 0.0000 0.0000
# 2 11.4955 91.7418 58.6401 0.0001 0.0000 0.0000
# 3 58.6401 58.6401 124.0276 0.0000 0.0000 0.0000
# 4 -0.0001 0.0001 0.0000 -14.0195 0.0000 0.0000
# 5 0.0000 0.0000 0.0000 0.0000 -14.0195 -0.0001
# 6 0.0000 0.0000 0.0000 0.0000 -0.0001 40.1232
#
#
#
# Elastic Compliance Matrix: (Units=1/GPa)
#
#
# Indices 1 2 3 4 5 6 
#
# 1 0.016694 0.004232 -0.009894 0.000000 0.000000 0.000000
# 2 0.004232 0.016694 -0.009894 0.000000 0.000000 0.000000
# 3 -0.009894 -0.009894 0.017418 0.000000 0.000000 0.000000
# 4 0.000000 0.000000 0.000000 -0.071329 0.000000 0.000000
# 5 0.000000 0.000000 0.000000 0.000000 -0.071329 0.000000
# 6 0.000000 0.000000 0.000000 0.000000 0.000000 0.024923
#
#
# Mechanical properties :
#
#
# Convention : Reuss Voigt Hill
#
# Bulk Modulus (GPa) = 50.77398 62.78472 56.77935
# Shear Modulus (GPa) = -170.91694 14.33256 -78.29219
#
# Velocity S-wave (km/s) = -8.97437 2.59880 -6.07394
# Velocity P-wave (km/s) = 9.13565 6.21212 4.73654
#
# Compressibility (1/GPa) = 0.01969513
#
# Stress axis : x y z
#
# Youngs Moduli (GPa) = 59.90245 59.90245 57.41110
#
# Poissons Ratio (x) = -0.25352 0.56801
# Poissons Ratio (y) = -0.25352 0.56801
# Poissons Ratio (z) = 0.59266 0.59266
#
# Static dielectric constant tensor:
#      x y z
#    x 1.751970 0.000000 0.000000 
#    y 0.000000 1.751970 0.000000 
#    z 0.000000 0.000000 1.732160 
# 
# From -- ./inp_files/331.got.cif
#   From: 2010.05.17/outbox.cif.g08.bks.cpg/sg147_cif.got.tgz:331.got - 2010.05.20 13:49:32.
