data_PCOD9574092
_publ_section_title
;
Structure prediction by ZEFSAII (Michael W. Deem and Ramdas Pophale) SiO2 
 PCOD9574092
Probable space group: I 41/A C D
;
_chemical_formula_sum "Si O2"
_cell_formula_units_Z 160
_cell_length_a 24.650995
_cell_length_b 24.650995
_cell_length_c 11.338909
_cell_angle_alpha 90.000000
_cell_angle_beta 90.000000
_cell_angle_gamma 90.000000
_cell_volume 6890.332458
_symmetry_space_group_name_H-M "I 41/A C D"
_symmetry_group_IT_number 142
_space_group.IT_coordinate_system_code '2'
_symmetry_cell_setting 'tetragonal'
loop_
_space_group_symop_operation_xyz
x,y,z
1/4-y,3/4+x,1/4+z
-x,1/2-y,z
1/4+y,1/4-x,3/4+z
x,-y,1/2-z
1/2-x,y,-z
3/4+y,1/4+x,1/4-z
1/4-y,1/4-x,1/4-z
-x,-y,-z
3/4+y,1/4-x,3/4-z
x,1/2+y,-z
3/4-y,3/4+x,1/4-z
-x,y,1/2+z
1/2+x,-y,z
1/4-y,3/4-x,3/4+z
3/4+y,3/4+x,3/4+z
1/2+x,1/2+y,1/2+z
3/4-y,1/4+x,3/4+z
1/2-x,-y,1/2+z
3/4+y,3/4-x,1/4+z
1/2+x,1/2-y,-z
-x,1/2+y,1/2-z
1/4+y,3/4+x,3/4-z
3/4-y,3/4-x,3/4-z
1/2-x,1/2-y,1/2-z
1/4+y,3/4-x,1/4-z
1/2+x,y,1/2-z
1/4-y,1/4+x,3/4-z
1/2-x,1/2+y,z
x,1/2-y,1/2+z
3/4-y,1/4-x,1/4+z
1/4+y,1/4+x,1/4+z
loop_
_atom_site_type_symbol
_atom_site_label
_atom_site_fract_x
_atom_site_fract_y
_atom_site_fract_z
Si Si1 0.421698 0.777243 0.844162
Si Si2 0.798347 0.941385 0.239656
Si Si3 0.080953 0.494556 0.890239
Si Si4 0.346192 0.842247 0.017876
Si Si5 0.327571 0.258578 0.796325
O O1 0.476299 0.810723 0.825089
O O2 0.389827 0.755307 0.730564
O O3 0.381725 0.814140 0.918986
O O4 0.814397 0.935604 0.375000
O O5 0.764559 0.892066 0.188327
O O6 0.860820 0.937400 0.196709
O O7 0.770605 0.000000 0.250000
O O8 0.082858 0.500000 0.750000
O O9 0.045030 0.443918 0.936964
O O10 0.047498 0.544984 0.942581
O O11 0.385007 0.864994 0.125000
O O12 0.314535 0.795335 0.088931
#
# Coordination Sequence:
#
# PCOD9574092 Si02
#       5
#    32  32  32  32  32
#     4  11  23  38  63  99 138 182 227 289 354 422
#     4  11  25  46  75 102 134 192 238 297 373 443
#     4  11  24  45  73 108 142 182 249 312 362 437
#     4  11  21  43  67  96 142 180 237 287 351 455
#     4  11  23  43  71 106 139 192 238 297 371 437
#
# _framework density 23.220941
#
# number of rings (size 3 to 8) (size 9 to 14) (size 15 to 20)
#    0.000    1.000    6.000    1.200    2.800    2.400 
#    0.000    0.000    4.400    0.000    0.000    0.000 
#    0.000    0.000    0.000    0.000    0.000    0.000 
#
# Total GULP energy -445903.051295 kJ/mol
# GULP energy per Si atom -5573.788141 kJ/mol
# Density = 2.316809 g / cm^3
# Si number density = 23.220941 Si / 1000 Ang^3
#
#
#
# Elastic Constant Matrix: (Units=GPa)
#
#
# Indices 1 2 3 4 5 6 
#
# 1 103.6159 32.8007 4.9057 0.0000 0.0000 0.0000
# 2 32.8007 103.6166 4.9060 0.0000 0.0000 0.0000
# 3 4.9057 4.9060 57.4131 0.0000 0.0000 0.0000
# 4 0.0000 0.0000 0.0000 21.4511 0.0000 0.0000
# 5 0.0000 0.0000 0.0000 0.0000 21.4510 0.0000
# 6 0.0000 0.0000 0.0000 0.0000 0.0000 43.7898
#
#
#
# Elastic Compliance Matrix: (Units=1/GPa)
#
#
# Indices 1 2 3 4 5 6 
#
# 1 0.010749 -0.003373 -0.000630 0.000000 0.000000 0.000000
# 2 -0.003373 0.010748 -0.000630 0.000000 0.000000 0.000000
# 3 -0.000630 -0.000630 0.017525 0.000000 0.000000 0.000000
# 4 0.000000 0.000000 0.000000 0.046618 0.000000 0.000000
# 5 0.000000 0.000000 0.000000 0.000000 0.046618 0.000000
# 6 0.000000 0.000000 0.000000 0.000000 0.000000 0.022836
#
#
# Mechanical properties :
#
#
# Convention : Reuss Voigt Hill
#
# Bulk Modulus (GPa) = 33.60674 38.87450 36.24062
# Shear Modulus (GPa) = 28.68958 32.14059 30.41509
#
# Velocity S-wave (km/s) = 3.51879 3.72441 3.62306
# Velocity P-wave (km/s) = 5.56895 5.93907 5.75698
#
# Compressibility (1/GPa) = 0.02975593
#
# Stress axis : x y z
#
# Youngs Moduli (GPa) = 93.03600 93.03655 57.06021
#
# Poissons Ratio (x) = 0.31378 0.03596
# Poissons Ratio (y) = 0.31378 0.03596
# Poissons Ratio (z) = 0.05863 0.05864
#
# Static dielectric constant tensor:
#      x y z
#    x 1.973630 0.000000 0.000000 
#    y 0.000000 1.973620 0.000000 
#    z 0.000000 0.000000 1.776210 
# 
# From -- ./inp_files/3867.got.cif
#   From: 2010.05.17/outbox.cif.g08.bks.cpg/sg142_2_cif.got.tgz:3867.got - 2010.05.20 13:39:18.
