data_PCOD9574118
_publ_section_title
;
Structure prediction by ZEFSAII (Michael W. Deem and Ramdas Pophale) SiO2 
 PCOD9574118
Probable space group: I 41/A C D
;
_chemical_formula_sum "Si O2"
_cell_formula_units_Z 96
_cell_length_a 14.337629
_cell_length_b 14.337629
_cell_length_c 16.997495
_cell_angle_alpha 90.000000
_cell_angle_beta 90.000000
_cell_angle_gamma 90.000000
_cell_volume 3494.134344
_symmetry_space_group_name_H-M "I 41/A C D"
_symmetry_group_IT_number 142
_space_group.IT_coordinate_system_code '2'
_symmetry_cell_setting 'tetragonal'
loop_
_space_group_symop_operation_xyz
x,y,z
1/4-y,3/4+x,1/4+z
-x,1/2-y,z
1/4+y,1/4-x,3/4+z
x,-y,1/2-z
1/2-x,y,-z
3/4+y,1/4+x,1/4-z
1/4-y,1/4-x,1/4-z
-x,-y,-z
3/4+y,1/4-x,3/4-z
x,1/2+y,-z
3/4-y,3/4+x,1/4-z
-x,y,1/2+z
1/2+x,-y,z
1/4-y,3/4-x,3/4+z
3/4+y,3/4+x,3/4+z
1/2+x,1/2+y,1/2+z
3/4-y,1/4+x,3/4+z
1/2-x,-y,1/2+z
3/4+y,3/4-x,1/4+z
1/2+x,1/2-y,-z
-x,1/2+y,1/2-z
1/4+y,3/4+x,3/4-z
3/4-y,3/4-x,3/4-z
1/2-x,1/2-y,1/2-z
1/4+y,3/4-x,1/4-z
1/2+x,y,1/2-z
1/4-y,1/4+x,3/4-z
1/2-x,1/2+y,z
x,1/2-y,1/2+z
3/4-y,1/4-x,1/4+z
1/4+y,1/4+x,1/4+z
loop_
_atom_site_type_symbol
_atom_site_label
_atom_site_fract_x
_atom_site_fract_y
_atom_site_fract_z
Si Si1 0.835132 0.131703 0.902423
Si Si2 0.032943 0.383879 0.193508
Si Si3 0.182066 0.895200 0.274996
O O1 0.728231 0.158872 0.924608
O O2 0.831320 0.154519 0.809749
O O3 0.892065 0.191160 0.966785
O O4 0.870330 0.025547 0.922292
O O5 0.066903 0.316903 0.125000
O O6 0.922569 0.395669 0.191988
O O7 0.202916 0.000000 0.250000
#
# Coordination Sequence:
#
# PCOD9574118 Si02
#       3
#    32  32  32
#     4  11  22  42  73 111 149 196 263 314 381 476
#     4  11  22  43  76 110 151 198 258 320 385 461
#     4  12  22  40  77 111 145 204 256 314 393 452
#
# _framework density 27.474615
#
# number of rings (size 3 to 8) (size 9 to 14) (size 15 to 20)
#    0.000    0.667   10.000    1.000    0.000    0.000 
#    0.000   10.000    7.333    5.000    0.000    0.000 
#    0.000    0.000    0.000    0.000    0.000    0.000 
#
# Total GULP energy -267952.218155 kJ/mol
# GULP energy per Si atom -5582.337878 kJ/mol
# Density = 2.741208 g / cm^3
# Si number density = 27.474615 Si / 1000 Ang^3
#
#
#
# Elastic Constant Matrix: (Units=GPa)
#
#
# Indices 1 2 3 4 5 6 
#
# 1 162.0189 49.0409 47.1463 0.0000 0.0000 0.0000
# 2 49.0409 162.0189 47.1463 0.0000 0.0000 0.0000
# 3 47.1463 47.1463 123.6301 0.0000 0.0000 0.0000
# 4 0.0000 0.0000 0.0000 -195.8317 -0.0001 0.0000
# 5 0.0000 0.0000 0.0000 -0.0001 -195.8317 0.0000
# 6 0.0000 0.0000 0.0000 0.0000 0.0000 36.4075
#
#
#
# Elastic Compliance Matrix: (Units=1/GPa)
#
#
# Indices 1 2 3 4 5 6 
#
# 1 0.007281 -0.001570 -0.002178 0.000000 0.000000 0.000000
# 2 -0.001570 0.007281 -0.002178 0.000000 0.000000 0.000000
# 3 -0.002178 -0.002178 0.009750 0.000000 0.000000 0.000000
# 4 0.000000 0.000000 0.000000 -0.005106 0.000000 0.000000
# 5 0.000000 0.000000 0.000000 0.000000 -0.005106 0.000000
# 6 0.000000 0.000000 0.000000 0.000000 0.000000 0.027467
#
#
# Mechanical properties :
#
#
# Convention : Reuss Voigt Hill
#
# Bulk Modulus (GPa) = 80.25587 81.59278 80.92432
# Shear Modulus (GPa) = 86.84895 -50.76224 18.04336
#
# Velocity S-wave (km/s) = 5.62843 -4.30304 2.56545
# Velocity P-wave (km/s) = 8.45655 2.25250 6.18818
#
# Compressibility (1/GPa) = 0.01246015
#
# Stress axis : x y z
#
# Youngs Moduli (GPa) = 137.34131 137.34131 102.56714
#
# Poissons Ratio (x) = 0.21565 0.22338
# Poissons Ratio (y) = 0.21565 0.22338
# Poissons Ratio (z) = 0.29911 0.29911
#
# Static dielectric constant tensor:
#      x y z
#    x 2.159850 0.000000 0.000000 
#    y 0.000000 2.159850 0.000000 
#    z 0.000000 0.000000 2.443550 
# 
# From -- ./inp_files/8404.got.cif
#   From: 2010.05.17/outbox.cif.g08.bks.cpg/sg142_5_cif.got.tgz:8404.got - 2010.05.20 13:39:18.
