data_PCOD9574840
_publ_section_title
;
Structure prediction by ZEFSAII (Michael W. Deem and Ramdas Pophale) SiO2 
 PCOD9574840
Probable space group: R 3
;
_chemical_formula_sum "Si O2"
_cell_formula_units_Z 24
_cell_length_a 11.980714
_cell_length_b 11.980714
_cell_length_c 7.336697
_cell_angle_alpha 90.000000
_cell_angle_beta 90.000000
_cell_angle_gamma 120.000000
_cell_volume 912.003735
_symmetry_space_group_name_H-M "R 3"
_symmetry_group_IT_number 146
_symmetry_cell_setting 'hexagonal'
loop_
_space_group_symop_operation_xyz
x,y,z
-y,x-y,z
-x+y,-x,z
2/3+x,1/3+y,1/3+z
2/3-y,1/3+x-y,1/3+z
2/3-x+y,1/3-x,1/3+z
1/3+x,2/3+y,2/3+z
1/3-y,2/3+x-y,2/3+z
1/3-x+y,2/3-x,2/3+z
loop_
_atom_site_type_symbol
_atom_site_label
_atom_site_fract_x
_atom_site_fract_y
_atom_site_fract_z
Si Si1 0.072727 0.645455 0.260680
Si Si2 0.333334 0.666666 0.781895
Si Si3 0.978786 0.239393 0.072795
Si Si4 0.000000 0.000000 0.551586
O O1 0.026033 0.723966 0.385475
O O2 0.223967 0.697934 0.281337
O O3 0.999999 0.500001 0.333404
O O4 0.364599 0.807299 0.718808
O O5 0.333334 0.666667 0.000074
O O6 0.973967 0.276036 0.281332
#
# Coordination Sequence:
#
# PCOD9574840 Si02
#       4
#     9   3   9   3
#     4  12  27  49  77 109 148 194 244 301 365 433
#     4  12  27  49  77 109 148 194 244 301 365 433
#     4  12  27  49  77 109 148 194 244 301 365 433
#     4  12  27  49  77 109 148 194 244 301 365 433
#
# _framework density 26.31568
#
# number of rings (size 3 to 8) (size 9 to 14) (size 15 to 20)
#    0.000    0.000    0.000    9.000    0.000   12.000 
#    0.000   15.000    0.000    0.000    0.000    0.000 
#    0.000    0.000    0.000    0.000    0.000    0.000 
#
# Total GULP energy -45001.268868 kJ/mol
# GULP energy per Si atom -5625.158608 kJ/mol
# Density = 2.625578 g / cm^3
# Si number density = 26.315680 Si / 1000 Ang^3
#
#
#
# Elastic Constant Matrix: (Units=GPa)
#
#
# Indices 1 2 3 4 5 6 
#
# 1 119.8953 30.1385 28.5906 2.1895 0.0001 -0.0003
# 2 30.1385 119.8944 28.5903 -2.1893 -0.0004 -0.0002
# 3 28.5906 28.5903 121.4449 0.0000 0.0001 0.0001
# 4 2.1895 -2.1893 0.0000 43.3300 -0.0001 -0.0004
# 5 0.0001 -0.0004 0.0001 -0.0001 43.3300 2.1895
# 6 -0.0003 -0.0002 0.0001 -0.0004 2.1895 44.8780
#
#
#
# Elastic Compliance Matrix: (Units=1/GPa)
#
#
# Indices 1 2 3 4 5 6 
#
# 1 0.009245 -0.001923 -0.001724 -0.000564 0.000000 0.000000
# 2 -0.001923 0.009246 -0.001724 0.000564 0.000000 0.000000
# 3 -0.001724 -0.001724 0.009046 0.000000 0.000000 0.000000
# 4 -0.000564 0.000564 0.000000 0.023136 0.000000 0.000000
# 5 0.000000 0.000000 0.000000 0.000000 0.023136 -0.001129
# 6 0.000000 0.000000 0.000000 0.000000 -0.001129 0.022338
#
#
# Mechanical properties :
#
#
# Convention : Reuss Voigt Hill
#
# Bulk Modulus (GPa) = 59.54148 59.54148 59.54148
# Shear Modulus (GPa) = 44.44996 44.56860 44.50928
#
# Velocity S-wave (km/s) = 4.11433 4.11982 4.11708
# Velocity P-wave (km/s) = 6.72646 6.73094 6.72870
#
# Compressibility (1/GPa) = 0.01679502
#
# Stress axis : x y z
#
# Youngs Moduli (GPa) = 108.16131 108.16060 110.54852
#
# Poissons Ratio (x) = 0.20803 0.19056
# Poissons Ratio (y) = 0.20803 0.19056
# Poissons Ratio (z) = 0.18645 0.18644
#
# Static dielectric constant tensor:
#      x y z
#    x 1.993380 0.000000 0.000000 
#    y 0.000000 1.993390 0.000000 
#    z 0.000000 0.000000 1.993390 
# 
# From -- ./inp_files/76.got.cif
#   From: 2010.05.17/outbox.cif.g08.bks.cpg/sg146_cif.got.tgz:76.got - 2010.05.20 13:48:23.
