data_PCOD9574853
_publ_section_title
;
Structure prediction by ZEFSAII (Michael W. Deem and Ramdas Pophale) SiO2 
 PCOD9574853
Probable space group: P -3
;
_chemical_formula_sum "Si O2"
_cell_formula_units_Z 36
_cell_length_a 16.856950
_cell_length_b 16.856950
_cell_length_c 9.618083
_cell_angle_alpha 90.000000
_cell_angle_beta 90.000000
_cell_angle_gamma 120.000000
_cell_volume 2366.884957
_symmetry_space_group_name_H-M "P -3"
_symmetry_group_IT_number 147
_symmetry_cell_setting 'hexagonal'
loop_
_space_group_symop_operation_xyz
x,y,z
-y,x-y,z
-x+y,-x,z
-x,-y,-z
y,-x+y,-z
x-y,x,-z
loop_
_atom_site_type_symbol
_atom_site_label
_atom_site_fract_x
_atom_site_fract_y
_atom_site_fract_z
Si Si1 0.997957 0.395588 0.298897
Si Si2 0.134606 0.494955 0.549410
Si Si3 0.322913 0.841160 0.117957
Si Si4 0.656366 0.509600 0.804854
Si Si5 0.691783 0.528419 0.484064
Si Si6 0.945693 0.534101 0.160435
O O1 0.056446 0.456010 0.431467
O O2 0.076576 0.396980 0.202266
O O3 0.911255 0.311872 0.374114
O O4 0.960860 0.449397 0.203498
O O5 0.216262 0.476147 0.517260
O O6 0.172599 0.603623 0.557519
O O7 0.091404 0.449007 0.696239
O O8 0.403013 0.827370 0.188641
O O9 0.227713 0.747659 0.127998
O O10 0.360203 0.876624 0.963862
O O11 0.674891 0.541775 0.644775
O O12 0.614685 0.567055 0.875729
#
# Coordination Sequence:
#
# PCOD9574853 Si02
#       6
#     6   6   6   6   6   6
#     4  10  18  33  48  66  91 128 158 197 246 279
#     4  11  19  31  49  70  90 127 166 200 237 273
#     4  11  22  31  51  69  95 127 168 195 245 284
#     4  11  18  33  49  67  92 127 162 205 231 277
#     4  11  18  30  51  68  92 123 170 203 226 274
#     4  10  21  34  45  67 100 125 153 205 248 287
#
# _framework density 15.209864
#
# number of rings (size 3 to 8) (size 9 to 14) (size 15 to 20)
#    0.000    1.333    6.667    3.667    0.000    4.000 
#    0.000    0.000    0.000    0.000    0.000    0.000 
#    0.000    0.000    0.000   20.000    0.000    0.000 
#
# Total GULP energy -200505.084169 kJ/mol
# GULP energy per Si atom -5569.585671 kJ/mol
# Density = 1.517525 g / cm^3
# Si number density = 15.209864 Si / 1000 Ang^3
#
#
#
# Elastic Constant Matrix: (Units=GPa)
#
#
# Indices 1 2 3 4 5 6 
#
# 1 51.5573 13.1151 18.5263 0.6074 5.4601 0.0000
# 2 13.1151 51.5573 18.5263 -0.6074 -5.4601 0.0000
# 3 18.5263 18.5263 95.0546 0.0000 0.0000 0.0000
# 4 0.6074 -0.6074 0.0000 23.4813 0.0000 -5.4601
# 5 5.4601 -5.4601 0.0000 0.0000 23.4813 0.6074
# 6 0.0000 0.0000 0.0000 -5.4601 0.6074 19.2211
#
#
#
# Elastic Compliance Matrix: (Units=1/GPa)
#
#
# Indices 1 2 3 4 5 6 
#
# 1 0.022642 -0.005236 -0.003392 -0.000721 -0.006482 0.000000
# 2 -0.005236 0.022642 -0.003392 0.000721 0.006482 0.000000
# 3 -0.003392 -0.003392 0.011843 0.000000 0.000000 0.000000
# 4 -0.000721 0.000721 0.000000 0.045639 0.000000 0.012965
# 5 -0.006482 0.006482 0.000000 0.000000 0.045639 -0.001442
# 6 0.000000 0.000000 0.000000 0.012965 -0.001442 0.055754
#
#
# Mechanical properties :
#
#
# Convention : Reuss Voigt Hill
#
# Bulk Modulus (GPa) = 30.22509 33.16718 31.69613
# Shear Modulus (GPa) = 20.90057 23.10353 22.00205
#
# Velocity S-wave (km/s) = 3.71097 3.90164 3.80750
# Velocity P-wave (km/s) = 6.18683 6.49236 6.34144
#
# Compressibility (1/GPa) = 0.03308509
#
# Stress axis : x y z
#
# Youngs Moduli (GPa) = 44.16626 44.16626 84.44038
#
# Poissons Ratio (x) = 0.23123 0.28646
# Poissons Ratio (y) = 0.23123 0.28646
# Poissons Ratio (z) = 0.14983 0.14983
#
# Static dielectric constant tensor:
#      x y z
#    x 1.507720 0.000000 0.000000 
#    y 0.000000 1.507720 0.000000 
#    z 0.000000 0.000000 1.557900 
# 
# From -- ./inp_files/583.got.cif
#   From: 2010.05.17/outbox.cif.g08.bks.cpg/sg147_cif.got.tgz:583.got - 2010.05.20 13:49:32.
