data_PCOD9574665
_publ_section_title
;
Structure prediction by ZEFSAII (Michael W. Deem and Ramdas Pophale) SiO2 
 PCOD9574665
Probable space group: R 3
;
_chemical_formula_sum "Si O2"
_cell_formula_units_Z 60
_cell_length_a 11.675456
_cell_length_b 11.675456
_cell_length_c 20.664255
_cell_angle_alpha 90.000000
_cell_angle_beta 90.000000
_cell_angle_gamma 120.000000
_cell_volume 2439.484635
_symmetry_space_group_name_H-M "R 3"
_symmetry_group_IT_number 146
_symmetry_cell_setting 'hexagonal'
loop_
_space_group_symop_operation_xyz
x,y,z
-y,x-y,z
-x+y,-x,z
2/3+x,1/3+y,1/3+z
2/3-y,1/3+x-y,1/3+z
2/3-x+y,1/3-x,1/3+z
1/3+x,2/3+y,2/3+z
1/3-y,2/3+x-y,2/3+z
1/3-x+y,2/3-x,2/3+z
loop_
_atom_site_type_symbol
_atom_site_label
_atom_site_fract_x
_atom_site_fract_y
_atom_site_fract_z
Si Si1 0.699583 0.942952 0.364810
Si Si2 0.054879 0.273310 0.544670
Si Si3 0.609660 0.725244 0.031596
Si Si4 0.000000 0.000000 0.752201
Si Si5 0.060317 0.495553 0.366384
Si Si6 0.276663 0.365802 0.209057
Si Si7 0.153219 0.860185 0.895547
Si Si8 0.000000 0.000000 0.906209
O O1 0.746286 0.836865 0.378717
O O2 0.572104 0.951467 0.386786
O O3 0.666209 0.924568 0.287003
O O4 0.823091 0.080874 0.388601
O O5 0.076736 0.267103 0.622246
O O6 0.170066 0.247952 0.520640
O O7 0.078879 0.416786 0.525308
O O8 0.903611 0.171978 0.526850
O O9 0.740871 0.722813 0.053283
O O10 0.618171 0.755155 0.954247
O O11 0.873064 0.870790 0.724625
O O12 0.000000 0.000000 0.828583
O O13 0.300816 0.244400 0.190897
O O14 0.041169 0.890762 0.925002
#
# Coordination Sequence:
#
# PCOD9574665 Si02
#       8
#     9   9   9   3   9   9   9   3
#     4  10  18  29  49  81 117 141 173 222 302 348
#     4  10  17  30  51  79 113 139 167 240 287 339
#     4  10  19  31  52  83 121 146 169 239 298 352
#     4  12  21  36  66  75 111 156 204 237 258 342
#     4  10  18  34  52  86 109 140 193 233 283 332
#     4  10  17  28  47  74 107 142 171 215 285 339
#     4  10  20  33  49  75 114 143 183 229 280 338
#     4  12  24  39  54  81 114 159 198 231 273 336
#
# _framework density 24.595358000000001
#
# number of rings (size 3 to 8) (size 9 to 14) (size 15 to 20)
#    0.000    1.800    6.000    1.500    2.100    0.000 
#    1.800    0.000    0.000    1.800    0.000    0.000 
#    0.000    0.000    0.000    0.000    0.000    0.000 
#
# Total GULP energy -111562.435420 kJ/mol
# GULP energy per Si atom -5578.121771 kJ/mol
# Density = 2.453938 g / cm^3
# Si number density = 24.595358 Si / 1000 Ang^3
#
#
#
# Elastic Constant Matrix: (Units=GPa)
#
#
# Indices 1 2 3 4 5 6 
#
# 1 195.2312 105.3848 1.8333 1.4046 2.7725 0.0000
# 2 105.3848 195.2312 1.8333 -1.4046 -2.7725 0.0000
# 3 1.8333 1.8333 83.8612 0.0000 0.0000 0.0000
# 4 1.4046 -1.4046 0.0000 4.3322 0.0000 -2.7725
# 5 2.7725 -2.7725 0.0000 0.0000 4.3322 1.4046
# 6 0.0000 0.0000 0.0000 -2.7725 1.4046 44.9232
#
#
#
# Elastic Compliance Matrix: (Units=1/GPa)
#
#
# Indices 1 2 3 4 5 6 
#
# 1 0.007519 -0.004192 -0.000073 -0.003797 -0.007495 0.000000
# 2 -0.004192 0.007519 -0.000073 0.003797 0.007495 0.000000
# 3 -0.000073 -0.000073 0.011928 0.000000 0.000000 0.000000
# 4 -0.003797 0.003797 0.000000 0.242887 0.000000 0.014990
# 5 -0.007495 0.007495 0.000000 0.000000 0.242887 -0.007594
# 6 0.000000 0.000000 0.000000 0.014990 -0.007594 0.023423
#
#
# Mechanical properties :
#
#
# Convention : Reuss Voigt Hill
#
# Bulk Modulus (GPa) = 54.67033 76.93627 65.80330
# Shear Modulus (GPa) = 9.07547 35.06899 22.07223
#
# Velocity S-wave (km/s) = 1.92300 3.78012 2.99894
# Velocity P-wave (km/s) = 5.21601 7.09938 6.22928
#
# Compressibility (1/GPa) = 0.01829146
#
# Stress axis : x y z
#
# Youngs Moduli (GPa) = 132.98961 132.98961 83.83886
#
# Poissons Ratio (x) = 0.55749 0.00610
# Poissons Ratio (y) = 0.55749 0.00610
# Poissons Ratio (z) = 0.00967 0.00967
#
# Static dielectric constant tensor:
#      x y z
#    x 1.977150 0.000000 0.000000 
#    y 0.000000 1.977150 0.000000 
#    z 0.000000 0.000000 2.078840 
# 
# From -- ./inp_files/2276.got.cif
#   From: 2010.05.17/outbox.cif.g08.bks.cpg/sg146_cif.got.tgz:2276.got - 2010.05.20 13:48:23.
