data_PCOD9574783
_publ_section_title
;
Structure prediction by ZEFSAII (Michael W. Deem and Ramdas Pophale) SiO2 
 PCOD9574783
Probable space group: R 3
;
_chemical_formula_sum "Si O2"
_cell_formula_units_Z 36
_cell_length_a 15.475136
_cell_length_b 15.475136
_cell_length_c 6.721073
_cell_angle_alpha 90.000000
_cell_angle_beta 90.000000
_cell_angle_gamma 120.000000
_cell_volume 1393.921103
_symmetry_space_group_name_H-M "R 3"
_symmetry_group_IT_number 146
_symmetry_cell_setting 'hexagonal'
loop_
_space_group_symop_operation_xyz
x,y,z
-y,x-y,z
-x+y,-x,z
2/3+x,1/3+y,1/3+z
2/3-y,1/3+x-y,1/3+z
2/3-x+y,1/3-x,1/3+z
1/3+x,2/3+y,2/3+z
1/3-y,2/3+x-y,2/3+z
1/3-x+y,2/3-x,2/3+z
loop_
_atom_site_type_symbol
_atom_site_label
_atom_site_fract_x
_atom_site_fract_y
_atom_site_fract_z
Si Si1 0.243781 0.320439 0.611140
Si Si2 0.993791 0.449760 0.586784
Si Si3 0.550915 0.237168 0.247774
Si Si4 0.141558 0.909296 0.283952
O O1 0.283670 0.278692 0.784594
O O2 0.201203 0.379348 0.741924
O O3 0.151497 0.240393 0.477637
O O4 0.107700 0.483352 0.520701
O O5 0.016695 0.512847 0.790431
O O6 0.919883 0.336062 0.641158
O O7 0.648745 0.233894 0.183285
O O8 0.534269 0.242599 0.485710
#
# Coordination Sequence:
#
# PCOD9574783 Si02
#       4
#     9   9   9   9
#     4  12  28  49  79 121 165 220 283 351 415 497
#     4  10  25  44  78 120 162 212 274 345 420 491
#     4   8  20  44  74 110 163 208 266 331 398 498
#     4  10  25  45  77 117 164 212 275 341 411 498
#
# _framework density 25.826425
#
# number of rings (size 3 to 8) (size 9 to 14) (size 15 to 20)
#    2.000    0.000    0.000    1.500    7.000    2.000 
#    0.000    5.000    0.000    0.000    0.000    0.000 
#    0.000    0.000    0.000    0.000    0.000    0.000 
#
# Total GULP energy -66853.056851 kJ/mol
# GULP energy per Si atom -5571.088071 kJ/mol
# Density = 2.576764 g / cm^3
# Si number density = 25.826425 Si / 1000 Ang^3
#
#
#
# Elastic Constant Matrix: (Units=GPa)
#
#
# Indices 1 2 3 4 5 6 
#
# 1 129.6971 61.4799 47.2048 4.8406 1.1905 0.0002
# 2 61.4799 129.6961 47.2031 -4.8405 -1.1897 0.0000
# 3 47.2048 47.2031 161.2028 0.0004 0.0017 -0.0002
# 4 4.8406 -4.8405 0.0004 42.9959 0.0001 -1.1896
# 5 1.1905 -1.1897 0.0017 0.0001 42.9963 4.8404
# 6 0.0002 0.0000 -0.0002 -1.1896 4.8404 34.1081
#
#
#
# Elastic Compliance Matrix: (Units=1/GPa)
#
#
# Indices 1 2 3 4 5 6 
#
# 1 0.010513 -0.004398 -0.001791 -0.001679 -0.000413 0.000000
# 2 -0.004398 0.010513 -0.001791 0.001679 0.000413 0.000000
# 3 -0.001791 -0.001791 0.007252 0.000000 0.000000 0.000000
# 4 -0.001679 0.001679 0.000000 0.023659 0.000000 0.000825
# 5 -0.000413 0.000413 0.000000 0.000000 0.023659 -0.003357
# 6 0.000000 0.000000 0.000000 0.000825 -0.003357 0.029824
#
#
# Mechanical properties :
#
#
# Convention : Reuss Voigt Hill
#
# Bulk Modulus (GPa) = 81.17150 81.37464 81.27307
# Shear Modulus (GPa) = 39.84510 41.66729 40.75620
#
# Velocity S-wave (km/s) = 3.93212 4.02102 3.97682
# Velocity P-wave (km/s) = 7.21895 7.28936 7.25424
#
# Compressibility (1/GPa) = 0.01231960
#
# Stress axis : x y z
#
# Youngs Moduli (GPa) = 95.11659 95.11656 137.89224
#
# Poissons Ratio (x) = 0.41836 0.24692
# Poissons Ratio (y) = 0.41836 0.24690
# Poissons Ratio (z) = 0.17032 0.17031
#
# Static dielectric constant tensor:
#      x y z
#    x 2.115430 0.000000 0.000000 
#    y 0.000000 2.115430 0.000000 
#    z 0.000000 0.000000 2.037910 
# 
# From -- ./inp_files/289.got.cif
#   From: 2010.05.17/outbox.cif.g08.bks.cpg/sg146_cif.got.tgz:289.got - 2010.05.20 13:48:23.
