data_PCOD9574820
_publ_section_title
;
Structure prediction by ZEFSAII (Michael W. Deem and Ramdas Pophale) SiO2 
 PCOD9574820
Probable space group: R 3
;
_chemical_formula_sum "Si O2"
_cell_formula_units_Z 42
_cell_length_a 18.030872
_cell_length_b 18.030872
_cell_length_c 6.980330
_cell_angle_alpha 90.000000
_cell_angle_beta 90.000000
_cell_angle_gamma 120.000000
_cell_volume 1965.350652
_symmetry_space_group_name_H-M "R 3"
_symmetry_group_IT_number 146
_symmetry_cell_setting 'hexagonal'
loop_
_space_group_symop_operation_xyz
x,y,z
-y,x-y,z
-x+y,-x,z
2/3+x,1/3+y,1/3+z
2/3-y,1/3+x-y,1/3+z
2/3-x+y,1/3-x,1/3+z
1/3+x,2/3+y,2/3+z
1/3-y,2/3+x-y,2/3+z
1/3-x+y,2/3-x,2/3+z
loop_
_atom_site_type_symbol
_atom_site_label
_atom_site_fract_x
_atom_site_fract_y
_atom_site_fract_z
Si Si1 0.331727 0.837924 0.881920
Si Si2 0.360764 0.405457 0.571068
Si Si3 0.563643 0.417754 0.162273
Si Si4 0.000000 0.000000 0.764413
Si Si5 0.333333 0.666667 0.894746
Si Si6 0.311661 0.141352 0.485226
O O1 0.280548 0.805933 0.680349
O O2 0.344975 0.758934 0.948266
O O3 0.418106 0.926534 0.847709
O O4 0.275868 0.856685 0.032455
O O5 0.288077 0.327009 0.693235
O O6 0.333401 0.477406 0.563986
O O7 0.322358 0.220220 0.357802
O O8 0.621398 0.387534 0.048269
O O9 0.533049 0.467182 0.022171
O O10 0.000000 0.000000 0.996571
#
# Coordination Sequence:
#
# PCOD9574820 Si02
#       6
#     9   9   9   3   3   9
#     4  11  26  45  69 100 141 181 240 290 355 426
#     4  12  23  44  71 102 139 181 234 289 353 422
#     4  11  24  46  72  98 138 185 237 293 349 426
#     4   9  21  46  71  97 130 185 235 289 347 418
#     4   9  21  49  74  91 133 194 238 289 338 427
#     4  12  27  42  71 104 139 184 226 296 366 421
#
# _framework density 21.370232999999999
#
# number of rings (size 3 to 8) (size 9 to 14) (size 15 to 20)
#    0.000    0.857    4.286    3.857    3.000    1.714 
#    3.857    0.000    0.000    0.000    0.000    0.000 
#    0.000    0.000    0.000    0.000    0.000    0.000 
#
# Total GULP energy -78288.389681 kJ/mol
# GULP energy per Si atom -5592.027834 kJ/mol
# Density = 2.132159 g / cm^3
# Si number density = 21.370233 Si / 1000 Ang^3
#
#
#
# Elastic Constant Matrix: (Units=GPa)
#
#
# Indices 1 2 3 4 5 6 
#
# 1 110.1531 34.6030 20.5112 -5.7451 -6.1160 0.0022
# 2 34.6030 110.1469 20.5078 5.7471 6.1197 0.0007
# 3 20.5112 20.5078 80.4690 0.0036 0.0093 0.0047
# 4 -5.7451 5.7471 0.0036 15.1711 0.0014 6.1201
# 5 -6.1160 6.1197 0.0093 0.0014 15.1747 -5.7436
# 6 0.0022 0.0007 0.0047 6.1201 -5.7436 37.7741
#
#
#
# Elastic Compliance Matrix: (Units=1/GPa)
#
#
# Indices 1 2 3 4 5 6 
#
# 1 0.011269 -0.003823 -0.001899 0.005716 0.006083 -0.000001
# 2 -0.003823 0.011269 -0.001897 -0.005716 -0.006083 0.000001
# 3 -0.001899 -0.001897 0.013395 -0.000003 -0.000010 -0.000003
# 4 0.005716 -0.005716 -0.000003 0.075158 -0.000008 -0.012178
# 5 0.006083 -0.006083 -0.000010 -0.000008 0.075129 0.011424
# 6 -0.000001 0.000001 -0.000003 -0.012178 0.011424 0.030183
#
#
# Mechanical properties :
#
#
# Convention : Reuss Voigt Hill
#
# Bulk Modulus (GPa) = 48.31971 50.22367 49.27169
# Shear Modulus (GPa) = 20.96109 28.63377 24.79743
#
# Velocity S-wave (km/s) = 3.13526 3.66442 3.41012
# Velocity P-wave (km/s) = 5.98049 6.43869 6.21382
#
# Compressibility (1/GPa) = 0.02069549
#
# Stress axis : x y z
#
# Youngs Moduli (GPa) = 88.74194 88.73856 74.65712
#
# Poissons Ratio (x) = 0.33922 0.14178
# Poissons Ratio (y) = 0.33924 0.14160
# Poissons Ratio (z) = 0.16852 0.16830
#
# Static dielectric constant tensor:
#      x y z
#    x 1.764380 0.000000 0.000000 
#    y 0.000000 1.764380 -0.000010 
#    z 0.000000 -0.000010 1.770900 
# 
# From -- ./inp_files/646.got.cif
#   From: 2010.05.17/outbox.cif.g08.bks.cpg/sg146_cif.got.tgz:646.got - 2010.05.20 13:48:23.
