data_PCOD9574697
_publ_section_title
;
Structure prediction by ZEFSAII (Michael W. Deem and Ramdas Pophale) SiO2 
 PCOD9574697
Probable space group: R 3
;
_chemical_formula_sum "Si O2"
_cell_formula_units_Z 51
_cell_length_a 18.079464
_cell_length_b 18.079464
_cell_length_c 9.868871
_cell_angle_alpha 90.000000
_cell_angle_beta 90.000000
_cell_angle_gamma 120.000000
_cell_volume 2793.632057
_symmetry_space_group_name_H-M "R 3"
_symmetry_group_IT_number 146
_symmetry_cell_setting 'hexagonal'
loop_
_space_group_symop_operation_xyz
x,y,z
-y,x-y,z
-x+y,-x,z
2/3+x,1/3+y,1/3+z
2/3-y,1/3+x-y,1/3+z
2/3-x+y,1/3-x,1/3+z
1/3+x,2/3+y,2/3+z
1/3-y,2/3+x-y,2/3+z
1/3-x+y,2/3-x,2/3+z
loop_
_atom_site_type_symbol
_atom_site_label
_atom_site_fract_x
_atom_site_fract_y
_atom_site_fract_z
Si Si1 0.099362 0.771904 0.394860
Si Si2 0.161878 0.078092 0.748275
Si Si3 0.000000 0.000000 0.567792
Si Si4 0.429791 0.427519 0.376809
Si Si5 0.000000 0.000000 0.248738
Si Si6 0.482844 0.299863 0.499240
Si Si7 0.137719 0.565650 0.552723
O O1 0.188687 0.776815 0.358475
O O2 0.109655 0.792892 0.555056
O O3 0.069711 0.822428 0.295452
O O4 0.030148 0.671201 0.387334
O O5 0.125558 0.128566 0.837996
O O6 0.157697 0.002311 0.837793
O O7 0.094223 0.035147 0.627863
O O8 0.000000 0.000000 0.409477
O O9 0.475609 0.376922 0.429524
O O10 0.454065 0.506971 0.473558
O O11 0.004458 0.917607 0.200972
O O12 0.456507 0.231013 0.378868
#
# Coordination Sequence:
#
# PCOD9574697 Si02
#       7
#     9   9   3   9   3   9   9
#     4  11  22  37  64  92 122 157 205 259 307 364
#     4   9  19  37  63  86 123 164 207 239 308 375
#     4   9  21  37  56  94 123 166 200 256 300 373
#     4  11  21  37  63  94 118 161 206 255 304 364
#     4  12  30  37  62  94 132 160 206 268 315 358
#     4  12  23  40  62  93 125 157 208 263 311 359
#     4  10  20  37  64  89 119 163 206 250 305 371
#
# _framework density 18.255804999999999
#
# number of rings (size 3 to 8) (size 9 to 14) (size 15 to 20)
#    0.000    1.412    5.294    1.412    7.412    0.000 
#    0.000    0.000    3.882    0.000    0.000    0.000 
#    0.000    0.000    0.000    0.000    0.000    0.000 
#
# Total GULP energy -94869.535481 kJ/mol
# GULP energy per Si atom -5580.560911 kJ/mol
# Density = 1.821425 g / cm^3
# Si number density = 18.255805 Si / 1000 Ang^3
#
#
#
# Elastic Constant Matrix: (Units=GPa)
#
#
# Indices 1 2 3 4 5 6 
#
# 1 88.1854 54.9667 40.3745 -1.5108 -1.9414 0.0000
# 2 54.9667 88.1854 40.3745 1.5108 1.9414 0.0000
# 3 40.3745 40.3745 140.0210 0.0000 0.0000 0.0000
# 4 -1.5108 1.5108 0.0000 20.2768 0.0000 1.9414
# 5 -1.9414 1.9414 0.0000 0.0000 20.2768 -1.5108
# 6 0.0000 0.0000 0.0000 1.9414 -1.5108 16.6094
#
#
#
# Elastic Compliance Matrix: (Units=1/GPa)
#
#
# Indices 1 2 3 4 5 6 
#
# 1 0.019498 -0.011156 -0.002406 0.002284 0.002935 0.000000
# 2 -0.011156 0.019498 -0.002406 -0.002284 -0.002935 0.000000
# 3 -0.002406 -0.002406 0.008529 0.000000 0.000000 0.000000
# 4 0.002284 -0.002284 0.000000 0.050220 0.000000 -0.005870
# 5 0.002935 -0.002935 0.000000 0.000000 0.050220 0.004568
# 6 0.000000 0.000000 0.000000 -0.005870 0.004568 0.061309
#
#
# Mechanical properties :
#
#
# Convention : Reuss Voigt Hill
#
# Bulk Modulus (GPa) = 64.13584 65.31369 64.72477
# Shear Modulus (GPa) = 20.29175 23.47765 21.88470
#
# Velocity S-wave (km/s) = 3.33757 3.59003 3.46610
# Velocity P-wave (km/s) = 7.07534 7.28279 7.17982
#
# Compressibility (1/GPa) = 0.01559191
#
# Stress axis : x y z
#
# Youngs Moduli (GPa) = 51.28623 51.28623 117.24653
#
# Poissons Ratio (x) = 0.57215 0.28204
# Poissons Ratio (y) = 0.57215 0.28204
# Poissons Ratio (z) = 0.12337 0.12337
#
# Static dielectric constant tensor:
#      x y z
#    x 1.626160 0.000000 0.000000 
#    y 0.000000 1.626160 0.000000 
#    z 0.000000 0.000000 1.663940 
# 
# From -- ./inp_files/686.got.cif
#   From: 2010.05.17/outbox.cif.g08.bks.cpg/sg146_cif.got.tgz:686.got - 2010.05.20 13:48:23.
