data_PCOD9574917
_publ_section_title
;
Structure prediction by ZEFSAII (Michael W. Deem and Ramdas Pophale) SiO2 
 PCOD9574917
Probable space group: P -3
;
_chemical_formula_sum "Si O2"
_cell_formula_units_Z 36
_cell_length_a 8.956884
_cell_length_b 8.956884
_cell_length_c 28.331558
_cell_angle_alpha 90.000000
_cell_angle_beta 90.000000
_cell_angle_gamma 120.000000
_cell_volume 1968.407399
_symmetry_space_group_name_H-M "P -3"
_symmetry_group_IT_number 147
_symmetry_cell_setting 'hexagonal'
loop_
_space_group_symop_operation_xyz
x,y,z
-y,x-y,z
-x+y,-x,z
-x,-y,-z
y,-x+y,-z
x-y,x,-z
loop_
_atom_site_type_symbol
_atom_site_label
_atom_site_fract_x
_atom_site_fract_y
_atom_site_fract_z
Si Si1 0.334386 0.333322 0.519555
Si Si2 0.351482 0.995791 0.759732
Si Si3 0.539626 0.431348 0.047674
Si Si4 0.002647 0.197574 0.381923
Si Si5 0.514312 0.112454 0.858476
Si Si6 0.997253 0.679318 0.723825
O O1 0.500000 0.500000 0.500000
O O2 0.166632 0.333072 0.500596
O O3 0.316393 0.312558 0.576114
O O4 0.167047 0.832009 0.748542
O O5 0.415920 0.999680 0.813240
O O6 0.343058 0.167881 0.748388
O O7 0.501058 0.997428 0.727974
O O8 0.481387 0.228909 0.048862
O O9 0.454217 0.465168 0.092786
O O10 0.500000 0.500000 0.000000
O O11 0.003595 0.268129 0.330332
O O12 0.161985 0.159849 0.386587
O O13 0.722829 0.208203 0.856180
#
# Coordination Sequence:
#
# PCOD9574917 Si02
#       6
#     6   6   6   6   6   6
#     4  12  24  43  69 100 131 172 217 276 336 408
#     4  12  24  43  64 104 136 184 224 289 329 420
#     4  10  22  37  64  95 126 173 225 282 339 409
#     4  10  20  42  71  93 128 179 217 274 345 396
#     4  10  21  40  65  92 133 176 221 279 345 393
#     4  12  24  42  68  97 138 177 232 269 351 394
#
# _framework density 18.288895
#
# number of rings (size 3 to 8) (size 9 to 14) (size 15 to 20)
#    1.000    0.000    5.000    2.500    2.333    2.667 
#    0.000    0.000    0.000    6.000    0.000    0.000 
#    0.000    0.000    0.000    0.000    0.000    0.000 
#
# Total GULP energy -200789.044932 kJ/mol
# GULP energy per Si atom -5577.473470 kJ/mol
# Density = 1.824727 g / cm^3
# Si number density = 18.288895 Si / 1000 Ang^3
#
#
#
# Elastic Constant Matrix: (Units=GPa)
#
#
# Indices 1 2 3 4 5 6 
#
# 1 118.6275 56.4337 53.8039 3.9031 -0.3120 0.0000
# 2 56.4337 118.6275 53.8039 -3.9031 0.3120 0.0000
# 3 53.8039 53.8039 192.2380 0.0000 0.0000 0.0000
# 4 3.9031 -3.9031 0.0000 39.2884 0.0000 0.3120
# 5 -0.3120 0.3120 0.0000 0.0000 39.2884 3.9031
# 6 0.0000 0.0000 0.0000 0.3120 3.9031 31.0969
#
#
#
# Elastic Compliance Matrix: (Units=1/GPa)
#
#
# Indices 1 2 3 4 5 6 
#
# 1 0.011591 -0.004692 -0.001931 -0.001618 0.000129 0.000000
# 2 -0.004692 0.011591 -0.001931 0.001618 -0.000129 0.000000
# 3 -0.001931 -0.001931 0.006283 0.000000 0.000000 0.000000
# 4 -0.001618 0.001618 0.000000 0.025776 0.000000 -0.000259
# 5 0.000129 -0.000129 0.000000 0.000000 0.025776 -0.003235
# 6 0.000000 0.000000 0.000000 -0.000259 -0.003235 0.032566
#
#
# Mechanical properties :
#
#
# Convention : Reuss Voigt Hill
#
# Bulk Modulus (GPa) = 80.92348 84.17513 82.54930
# Shear Modulus (GPa) = 37.08904 39.63150 38.36027
#
# Velocity S-wave (km/s) = 4.50817 4.66012 4.58477
# Velocity P-wave (km/s) = 8.45231 8.66492 8.55927
#
# Compressibility (1/GPa) = 0.01235735
#
# Stress axis : x y z
#
# Youngs Moduli (GPa) = 86.27264 86.27264 159.16544
#
# Poissons Ratio (x) = 0.40479 0.30734
# Poissons Ratio (y) = 0.40479 0.30734
# Poissons Ratio (z) = 0.16659 0.16659
#
# Static dielectric constant tensor:
#      x y z
#    x 1.659500 0.000000 0.000000 
#    y 0.000000 1.659500 0.000000 
#    z 0.000000 0.000000 1.620390 
# 
# From -- ./inp_files/1117.got.cif
#   From: 2010.05.17/outbox.cif.g08.bks.cpg/sg147_cif.got.tgz:1117.got - 2010.05.20 13:49:32.
