data_PCOD9574371
_publ_section_title
;
Structure prediction by ZEFSAII (Michael W. Deem and Ramdas Pophale) SiO2 
 PCOD9574371
Probable space group: P 31
;
_chemical_formula_sum "Si O2"
_cell_formula_units_Z 24
_cell_length_a 15.106929
_cell_length_b 15.106929
_cell_length_c 5.109494
_cell_angle_alpha 90.000000
_cell_angle_beta 90.000000
_cell_angle_gamma 120.000000
_cell_volume 1009.859375
_symmetry_space_group_name_H-M "P 31"
_symmetry_group_IT_number 144
_symmetry_cell_setting 'hexagonal'
loop_
_space_group_symop_operation_xyz
x,y,z
-y,x-y,1/3+z
-x+y,-x,2/3+z
loop_
_atom_site_type_symbol
_atom_site_label
_atom_site_fract_x
_atom_site_fract_y
_atom_site_fract_z
Si Si1 0.789469 0.092755 0.247950
Si Si2 0.891483 0.572419 0.101039
Si Si3 0.441430 0.697385 0.068967
Si Si4 0.078585 0.580994 0.888260
Si Si5 0.414515 0.038126 0.260853
Si Si6 0.646462 0.862821 0.237167
Si Si7 0.734212 0.297981 0.456601
Si Si8 0.997481 0.282473 0.117142
O O1 0.750227 0.094275 0.541827
O O2 0.909920 0.169312 0.208352
O O3 0.736793 0.974628 0.158463
O O4 0.736218 0.131669 0.042675
O O5 0.796121 0.470570 0.990563
O O6 0.995201 0.566457 0.104598
O O7 0.375926 0.747883 0.171370
O O8 0.439220 0.611873 0.270008
O O9 0.558775 0.784838 0.034810
O O10 0.120022 0.693856 0.773062
O O11 0.010986 0.493886 0.674745
O O12 0.475887 0.149847 0.133493
O O13 0.360960 0.041535 0.532294
O O14 0.334594 0.978358 0.032745
O O15 0.703167 0.807596 0.358370
O O16 0.736916 0.400501 0.542268
#
# Coordination Sequence:
#
# PCOD9574371 Si02
#       8
#     3   3   3   3   3   3   3   3
#     4  11  24  46  74  99 140 185 243 300 359 433
#     4  11  24  44  67 101 140 189 236 290 358 422
#     4  10  22  41  65 104 146 187 235 291 358 441
#     4  10  23  44  66 104 142 192 237 290 362 441
#     4  12  26  46  71 100 143 192 232 286 366 436
#     4  10  25  43  72 108 141 190 241 305 367 430
#     4  12  27  40  66 105 143 188 241 302 349 428
#     4  12  25  48  75 101 141 191 243 298 361 435
#
# _framework density 23.765685000000001
#
# number of rings (size 3 to 8) (size 9 to 14) (size 15 to 20)
#    0.000    1.000    5.000    0.000    5.250    8.000 
#    0.000    0.000    8.250    0.000    0.000    0.000 
#    0.000    0.000    0.000    0.000    0.000    0.000 
#
# Total GULP energy -134183.721398 kJ/mol
# GULP energy per Si atom -5590.988392 kJ/mol
# Density = 2.371159 g / cm^3
# Si number density = 23.765685 Si / 1000 Ang^3
#
#
#
# Elastic Constant Matrix: (Units=GPa)
#
#
# Indices 1 2 3 4 5 6 
#
# 1 118.8847 48.1264 4.2438 2.8349 0.5501 0.0000
# 2 48.1264 118.8847 4.2438 -2.8349 -0.5501 0.0000
# 3 4.2438 4.2438 52.8793 0.0000 0.0000 0.0000
# 4 2.8349 -2.8349 0.0000 24.2705 0.0000 -0.5501
# 5 0.5501 -0.5501 0.0000 0.0000 24.2705 2.8349
# 6 0.0000 0.0000 0.0000 -0.5501 2.8349 35.3792
#
#
#
# Elastic Compliance Matrix: (Units=1/GPa)
#
#
# Indices 1 2 3 4 5 6 
#
# 1 0.010142 -0.004130 -0.000482 -0.001667 -0.000323 0.000000
# 2 -0.004130 0.010142 -0.000482 0.001667 0.000323 0.000000
# 3 -0.000482 -0.000482 0.018988 0.000000 0.000000 0.000000
# 4 -0.001667 0.001667 0.000000 0.041606 0.000000 0.000647
# 5 -0.000323 0.000323 0.000000 0.000000 0.041606 -0.003334
# 6 0.000000 0.000000 0.000000 0.000647 -0.003334 0.028542
#
#
# Mechanical properties :
#
#
# Convention : Reuss Voigt Hill
#
# Bulk Modulus (GPa) = 34.38464 44.87517 39.62990
# Shear Modulus (GPa) = 29.25511 32.38635 30.82073
#
# Velocity S-wave (km/s) = 3.51234 3.69553 3.60510
# Velocity P-wave (km/s) = 5.56312 6.09365 5.83442
#
# Compressibility (1/GPa) = 0.02908275
#
# Stress axis : x y z
#
# Youngs Moduli (GPa) = 98.60303 98.60303 52.66359
#
# Poissons Ratio (x) = 0.40718 0.02541
# Poissons Ratio (y) = 0.40718 0.02541
# Poissons Ratio (z) = 0.04758 0.04758
#
# Static dielectric constant tensor:
#      x y z
#    x 1.927500 0.000000 0.000000 
#    y 0.000000 1.927500 0.000000 
#    z 0.000000 0.000000 1.928270 
# 
# From -- ./inp_files/168.got.cif
#   From: 2010.05.17/outbox.cif.g08.bks.cpg/sg144_cif.got.tgz:168.got - 2010.05.20 13:46:34.
