data_PCOD9574330
_publ_section_title
;
Structure prediction by ZEFSAII (Michael W. Deem and Ramdas Pophale) SiO2 
 PCOD9574330
Probable space group: P 31
;
_chemical_formula_sum "Si O2"
_cell_formula_units_Z 18
_cell_length_a 8.119948
_cell_length_b 8.119948
_cell_length_c 13.792933
_cell_angle_alpha 90.000000
_cell_angle_beta 90.000000
_cell_angle_gamma 120.000000
_cell_volume 787.578323
_symmetry_space_group_name_H-M "P 31"
_symmetry_group_IT_number 144
_symmetry_cell_setting 'hexagonal'
loop_
_space_group_symop_operation_xyz
x,y,z
-y,x-y,1/3+z
-x+y,-x,2/3+z
loop_
_atom_site_type_symbol
_atom_site_label
_atom_site_fract_x
_atom_site_fract_y
_atom_site_fract_z
Si Si1 0.819781 0.072064 0.162020
Si Si2 0.463906 0.910268 0.472388
Si Si3 0.406526 0.530774 0.931580
Si Si4 0.871625 0.721243 0.128008
Si Si5 0.596109 0.943577 0.966727
Si Si6 0.667885 0.833759 0.623808
O O1 0.010687 0.237133 0.205936
O O2 0.648924 0.063212 0.226025
O O3 0.851440 0.890960 0.177788
O O4 0.745815 0.052824 0.052188
O O5 0.521108 0.844870 0.374081
O O6 0.276043 0.730665 0.517852
O O7 0.598663 0.958764 0.563983
O O8 0.426865 0.078103 0.438811
O O9 0.583419 0.741393 0.943099
O O10 0.940850 0.616335 0.201885
O O11 0.029455 0.820506 0.044050
O O12 0.376385 0.878110 0.991928
#
# Coordination Sequence:
#
# PCOD9574330 Si02
#       6
#     3   3   3   3   3   3
#     4  11  24  44  70 104 139 180 237 296 358 423
#     4  10  24  42  74  94 140 187 234 293 344 435
#     4  10  20  44  68  99 126 190 229 281 351 413
#     4  11  24  45  70 102 138 185 241 290 354 430
#     4  11  23  45  71 101 141 189 235 291 359 432
#     4  11  27  44  71 106 142 187 236 301 360 425
#
# _framework density 22.854869999999998
#
# number of rings (size 3 to 8) (size 9 to 14) (size 15 to 20)
#    0.000    1.333    3.333    2.000   14.000    0.000 
#    6.000    0.000    0.000    0.000    0.000    0.000 
#    0.000    0.000    0.000    0.000    0.000    0.000 
#
# Total GULP energy -100224.321151 kJ/mol
# GULP energy per Si atom -5568.017842 kJ/mol
# Density = 2.280285 g / cm^3
# Si number density = 22.854870 Si / 1000 Ang^3
#
#
#
# Elastic Constant Matrix: (Units=GPa)
#
#
# Indices 1 2 3 4 5 6 
#
# 1 73.5265 21.2834 38.0462 -7.7826 -4.3365 0.0000
# 2 21.2834 73.5265 38.0462 7.7826 4.3365 0.0000
# 3 38.0462 38.0462 125.2555 0.0000 0.0000 0.0000
# 4 -7.7826 7.7826 0.0000 27.5552 0.0000 4.3365
# 5 -4.3365 4.3365 0.0000 0.0000 27.5552 -7.7826
# 6 0.0000 0.0000 0.0000 4.3365 -7.7826 26.1215
#
#
#
# Elastic Compliance Matrix: (Units=1/GPa)
#
#
# Indices 1 2 3 4 5 6 
#
# 1 0.017731 -0.003783 -0.004237 0.006076 0.003386 0.000000
# 2 -0.003783 0.017731 -0.004237 -0.006076 -0.003386 0.000000
# 3 -0.004237 -0.004237 0.010557 0.000000 0.000000 0.000000
# 4 0.006076 -0.006076 0.000000 0.040789 0.000000 -0.006772
# 5 0.003386 -0.003386 0.000000 0.000000 0.040789 0.012153
# 6 0.000000 0.000000 0.000000 -0.006772 0.012153 0.043028
#
#
# Mechanical properties :
#
#
# Convention : Reuss Voigt Hill
#
# Bulk Modulus (GPa) = 46.49794 51.89556 49.19675
# Shear Modulus (GPa) = 24.71513 27.90855 26.31184
#
# Velocity S-wave (km/s) = 3.29202 3.49824 3.39670
# Velocity P-wave (km/s) = 5.90245 6.25082 6.07913
#
# Compressibility (1/GPa) = 0.02150633
#
# Stress axis : x y z
#
# Youngs Moduli (GPa) = 56.39942 56.39942 94.72049
#
# Poissons Ratio (x) = 0.21336 0.40129
# Poissons Ratio (y) = 0.21336 0.40129
# Poissons Ratio (z) = 0.23894 0.23894
#
# Static dielectric constant tensor:
#      x y z
#    x 1.936590 0.000000 0.000000 
#    y 0.000000 1.936590 0.000000 
#    z 0.000000 0.000000 1.909000 
# 
# From -- ./inp_files/561.got.cif
#   From: 2010.05.17/outbox.cif.g08.bks.cpg/sg144_cif.got.tgz:561.got - 2010.05.20 13:46:34.
