data_PCOD9574340
_publ_section_title
;
Structure prediction by ZEFSAII (Michael W. Deem and Ramdas Pophale) SiO2 
 PCOD9574340
Probable space group: P 31
;
_chemical_formula_sum "Si O2"
_cell_formula_units_Z 18
_cell_length_a 8.918888
_cell_length_b 8.918888
_cell_length_c 10.600787
_cell_angle_alpha 90.000000
_cell_angle_beta 90.000000
_cell_angle_gamma 120.000000
_cell_volume 730.281267
_symmetry_space_group_name_H-M "P 31"
_symmetry_group_IT_number 144
_symmetry_cell_setting 'hexagonal'
loop_
_space_group_symop_operation_xyz
x,y,z
-y,x-y,1/3+z
-x+y,-x,2/3+z
loop_
_atom_site_type_symbol
_atom_site_label
_atom_site_fract_x
_atom_site_fract_y
_atom_site_fract_z
Si Si1 0.088008 0.944998 0.039700
Si Si2 0.364893 0.871179 0.930296
Si Si3 0.228951 0.056499 0.575095
Si Si4 0.237255 0.495823 0.004961
Si Si5 0.872715 0.584844 0.718200
Si Si6 0.826320 0.494172 0.425073
O O1 0.937358 0.790408 0.118361
O O2 0.188493 0.873632 0.957470
O O3 0.254287 0.110280 0.106286
O O4 0.999274 0.043449 0.974249
O O5 0.385992 0.890952 0.780073
O O6 0.345070 0.685802 0.952994
O O7 0.506493 0.005497 0.026600
O O8 0.387403 0.182288 0.662219
O O9 0.232863 0.878888 0.567264
O O10 0.364621 0.435345 0.065841
O O11 0.847898 0.571704 0.565084
O O12 0.712682 0.406074 0.767474
#
# Coordination Sequence:
#
# PCOD9574340 Si02
#       6
#     3   3   3   3   3   3
#     4  10  21  39  64  93 129 178 227 276 344 423
#     4  11  23  42  66  98 134 177 230 287 345 418
#     4  11  21  39  65  93 128 175 223 280 346 415
#     4  11  23  42  65  96 135 177 225 286 348 418
#     4  10  23  43  65  95 137 182 230 289 352 421
#     4  11  23  43  67  97 135 179 231 292 351 421
#
# _framework density 24.648038
#
# number of rings (size 3 to 8) (size 9 to 14) (size 15 to 20)
#    0.000    1.333    0.000    8.000    0.000    2.667 
#    0.000    6.667    0.000    0.000    0.000    0.000 
#    0.000    0.000    0.000    0.000    0.000    0.000 
#
# Total GULP energy -100574.597475 kJ/mol
# GULP energy per Si atom -5587.477637 kJ/mol
# Density = 2.459194 g / cm^3
# Si number density = 24.648038 Si / 1000 Ang^3
#
#
#
# Elastic Constant Matrix: (Units=GPa)
#
#
# Indices 1 2 3 4 5 6 
#
# 1 118.8481 37.4532 10.6806 -5.0007 -9.2486 0.0000
# 2 37.4532 118.8481 10.6806 5.0007 9.2486 0.0000
# 3 10.6806 10.6806 50.3154 0.0000 0.0000 0.0000
# 4 -5.0007 5.0007 0.0000 28.0461 0.0000 9.2486
# 5 -9.2486 9.2486 0.0000 0.0000 28.0461 -5.0007
# 6 0.0000 0.0000 0.0000 9.2486 -5.0007 40.6974
#
#
#
# Elastic Compliance Matrix: (Units=1/GPa)
#
#
# Indices 1 2 3 4 5 6 
#
# 1 0.010096 -0.003507 -0.001399 0.002425 0.004486 0.000000
# 2 -0.003507 0.010096 -0.001399 -0.002425 -0.004486 0.000000
# 3 -0.001399 -0.001399 0.020468 0.000000 0.000000 0.000000
# 4 0.002425 -0.002425 0.000000 0.039479 0.000000 -0.008972
# 5 0.004486 -0.004486 0.000000 0.000000 0.039479 0.004851
# 6 0.000000 0.000000 0.000000 -0.008972 0.004851 0.027207
#
#
# Mechanical properties :
#
#
# Convention : Reuss Voigt Hill
#
# Bulk Modulus (GPa) = 35.64832 45.07117 40.35975
# Shear Modulus (GPa) = 29.62350 34.63775 32.13062
#
# Velocity S-wave (km/s) = 3.47055 3.75279 3.61443
# Velocity P-wave (km/s) = 5.52756 6.09127 5.81625
#
# Compressibility (1/GPa) = 0.02805181
#
# Stress axis : x y z
#
# Youngs Moduli (GPa) = 99.04763 99.04763 48.85574
#
# Poissons Ratio (x) = 0.34737 0.06833
# Poissons Ratio (y) = 0.34737 0.06833
# Poissons Ratio (z) = 0.13854 0.13854
#
# Static dielectric constant tensor:
#      x y z
#    x 1.964470 0.000000 0.000000 
#    y 0.000000 1.964470 0.000000 
#    z 0.000000 0.000000 2.003050 
# 
# From -- ./inp_files/518.got.cif
#   From: 2010.05.17/outbox.cif.g08.bks.cpg/sg144_cif.got.tgz:518.got - 2010.05.20 13:46:34.
