data_PCOD9574592
_publ_section_title
;
Structure prediction by ZEFSAII (Michael W. Deem and Ramdas Pophale) SiO2 
 PCOD9574592
Probable space group: P 32
;
_chemical_formula_sum "Si O2"
_cell_formula_units_Z 12
_cell_length_a 8.192482
_cell_length_b 8.192482
_cell_length_c 7.326714
_cell_angle_alpha 90.000000
_cell_angle_beta 90.000000
_cell_angle_gamma 120.000000
_cell_volume 425.863935
_symmetry_space_group_name_H-M "P 32"
_symmetry_group_IT_number 145
_symmetry_cell_setting 'hexagonal'
loop_
_space_group_symop_operation_xyz
x,y,z
-y,x-y,2/3+z
-x+y,-x,1/3+z
loop_
_atom_site_type_symbol
_atom_site_label
_atom_site_fract_x
_atom_site_fract_y
_atom_site_fract_z
Si Si1 0.187438 0.999719 0.738230
Si Si2 0.800628 0.429563 0.474367
Si Si3 0.723396 0.879899 0.673429
Si Si4 0.451119 0.805630 0.172149
O O1 0.165767 0.963899 0.522143
O O2 0.117600 0.790817 0.827687
O O3 0.411391 0.115194 0.763622
O O4 0.121475 0.129224 0.845319
O O5 0.749856 0.388820 0.687888
O O6 0.962406 0.633754 0.407013
O O7 0.563487 0.677078 0.591430
O O8 0.374725 0.622543 0.300867
#
# Coordination Sequence:
#
# PCOD9574592 Si02
#       4
#     3   3   3   3
#     4  11  24  51  87 129 175 234 308 379 460 572
#     4  10  22  46  80 124 166 224 294 374 454 546
#     4  11  24  51  87 129 175 234 308 379 460 572
#     4  12  22  48  88 122 168 246 298 356 478 554
#
# _framework density 28.17801
#
# number of rings (size 3 to 8) (size 9 to 14) (size 15 to 20)
#    0.000    1.000    5.000    0.000    0.000    0.000 
#   40.500    2.500   27.500    0.000    0.000    0.000 
#    0.000    0.000    0.000    0.000    0.000    0.000 
#
# Total GULP energy -67157.755397 kJ/mol
# GULP energy per Si atom -5596.479616 kJ/mol
# Density = 2.811388 g / cm^3
# Si number density = 28.178010 Si / 1000 Ang^3
#
#
#
# Elastic Constant Matrix: (Units=GPa)
#
#
# Indices 1 2 3 4 5 6 
#
# 1 135.9711 68.1716 60.6860 12.9950 6.9549 0.0000
# 2 68.1716 135.9711 60.6860 -12.9950 -6.9549 0.0000
# 3 60.6860 60.6860 217.9802 0.0000 0.0000 0.0000
# 4 12.9950 -12.9950 0.0000 44.5103 0.0000 -6.9549
# 5 6.9549 -6.9549 0.0000 0.0000 44.5103 12.9950
# 6 0.0000 0.0000 0.0000 -6.9549 12.9950 33.8997
#
#
#
# Elastic Compliance Matrix: (Units=1/GPa)
#
#
# Indices 1 2 3 4 5 6 
#
# 1 0.011550 -0.005680 -0.001634 -0.005030 -0.002692 0.000000
# 2 -0.005680 0.011550 -0.001634 0.005030 0.002692 0.000000
# 3 -0.001634 -0.001634 0.005498 0.000000 0.000000 0.000000
# 4 -0.005030 0.005030 0.000000 0.026245 0.000000 0.005384
# 5 -0.002692 0.002692 0.000000 0.000000 0.026245 -0.010061
# 6 0.000000 0.000000 0.000000 0.005384 -0.010061 0.034460
#
#
# Mechanical properties :
#
#
# Convention : Reuss Voigt Hill
#
# Bulk Modulus (GPa) = 93.45071 96.55664 95.00367
# Shear Modulus (GPa) = 36.49307 44.60932 40.55120
#
# Velocity S-wave (km/s) = 3.60264 3.98317 3.79767
# Velocity P-wave (km/s) = 7.10927 7.44951 7.28138
#
# Compressibility (1/GPa) = 0.01070083
#
# Stress axis : x y z
#
# Youngs Moduli (GPa) = 86.57928 86.57928 181.89965
#
# Poissons Ratio (x) = 0.49176 0.29727
# Poissons Ratio (y) = 0.49176 0.29727
# Poissons Ratio (z) = 0.14149 0.14149
#
# Static dielectric constant tensor:
#      x y z
#    x 2.231760 0.000000 0.000000 
#    y 0.000000 2.231760 0.000000 
#    z 0.000000 0.000000 2.170850 
# 
# From -- ./inp_files/231.got.cif
#   From: 2010.05.17/outbox.cif.g08.bks.cpg/sg145_cif.got.tgz:231.got - 2010.05.20 13:47:28.
