data_PCOD9574949
_publ_section_title
;
Structure prediction by ZEFSAII (Michael W. Deem and Ramdas Pophale) SiO2 
 PCOD9574949
Probable space group: P -3
;
_chemical_formula_sum "Si O2"
_cell_formula_units_Z 42
_cell_length_a 19.935985
_cell_length_b 19.935985
_cell_length_c 5.065995
_cell_angle_alpha 90.000000
_cell_angle_beta 90.000000
_cell_angle_gamma 120.000000
_cell_volume 1743.696055
_symmetry_space_group_name_H-M "P -3"
_symmetry_group_IT_number 147
_symmetry_cell_setting 'hexagonal'
loop_
_space_group_symop_operation_xyz
x,y,z
-y,x-y,z
-x+y,-x,z
-x,-y,-z
y,-x+y,-z
x-y,x,-z
loop_
_atom_site_type_symbol
_atom_site_label
_atom_site_fract_x
_atom_site_fract_y
_atom_site_fract_z
Si Si1 0.977472 0.362790 0.313430
Si Si2 0.266687 0.207469 0.939181
Si Si3 0.344819 0.495291 0.346809
Si Si4 0.110368 0.563006 0.846197
Si Si5 0.164687 0.776662 0.975888
Si Si6 0.695752 0.099365 0.300116
Si Si7 0.164326 0.148577 0.453026
O O1 0.968823 0.432857 0.189266
O O2 0.914311 0.286841 0.159248
O O3 0.050905 0.334069 0.908668
O O4 0.061450 0.381984 0.410980
O O5 0.224849 0.207285 0.670043
O O6 0.310804 0.158109 0.898845
O O7 0.201777 0.167897 0.164299
O O8 0.370820 0.537038 0.630393
O O9 0.353541 0.420020 0.405455
O O10 0.407897 0.550138 0.135449
O O11 0.264101 0.456805 0.189271
O O12 0.102926 0.482570 0.776236
O O13 0.228196 0.817376 0.743868
O O14 0.085650 0.150491 0.465651
#
# Coordination Sequence:
#
# PCOD9574949 Si02
#       7
#     6   6   6   6   6   6   6
#     4   9  20  40  66  96 143 173 227 285 348 418
#     4  10  27  40  71 105 140 176 237 304 375 429
#     4   9  20  38  64  89 138 172 220 279 347 403
#     4   9  20  40  63 100 132 178 225 281 339 418
#     4   9  22  41  63  98 142 184 226 291 367 415
#     4  10  22  41  67 105 139 185 235 288 361 435
#     4  12  27  51  73 101 137 192 251 307 370 452
#
# _framework density 24.086766999999998
#
# number of rings (size 3 to 8) (size 9 to 14) (size 15 to 20)
#    1.714    0.571    0.000    1.429    4.000    2.857 
#    7.714    1.429    0.000    4.571    0.000    0.000 
#    0.000    0.000    0.000    0.000    0.000    0.000 
#
# Total GULP energy -234390.800219 kJ/mol
# GULP energy per Si atom -5580.733339 kJ/mol
# Density = 2.403194 g / cm^3
# Si number density = 24.086767 Si / 1000 Ang^3
#
#
#
# Elastic Constant Matrix: (Units=GPa)
#
#
# Indices 1 2 3 4 5 6 
#
# 1 103.9925 29.9510 5.6403 -5.2402 6.4065 0.0000
# 2 29.9510 103.9925 5.6403 5.2402 -6.4065 0.0000
# 3 5.6403 5.6403 101.2398 0.0000 0.0000 0.0000
# 4 -5.2402 5.2402 0.0000 26.3010 0.0000 -6.4065
# 5 6.4065 -6.4065 0.0000 0.0000 26.3010 -5.2402
# 6 0.0000 0.0000 0.0000 -6.4065 -5.2402 37.0207
#
#
#
# Elastic Compliance Matrix: (Units=1/GPa)
#
#
# Indices 1 2 3 4 5 6 
#
# 1 0.011015 -0.003514 -0.000418 0.002895 -0.003539 0.000000
# 2 -0.003514 0.011015 -0.000418 -0.002895 0.003539 0.000000
# 3 -0.000418 -0.000418 0.009924 0.000000 0.000000 0.000000
# 4 0.002895 -0.002895 0.000000 0.040899 0.000000 0.007078
# 5 -0.003539 0.003539 0.000000 0.000000 0.040899 0.005789
# 6 0.000000 0.000000 0.000000 0.007078 0.005789 0.029056
#
#
# Mechanical properties :
#
#
# Convention : Reuss Voigt Hill
#
# Bulk Modulus (GPa) = 43.00231 43.52089 43.26160
# Shear Modulus (GPa) = 31.39580 35.79077 33.59328
#
# Velocity S-wave (km/s) = 3.61424 3.85893 3.73859
# Velocity P-wave (km/s) = 5.94212 6.16139 6.05275
#
# Compressibility (1/GPa) = 0.02325456
#
# Stress axis : x y z
#
# Youngs Moduli (GPa) = 90.78903 90.78903 100.76479
#
# Poissons Ratio (x) = 0.31899 0.04211
# Poissons Ratio (y) = 0.31899 0.04211
# Poissons Ratio (z) = 0.03794 0.03794
#
# Static dielectric constant tensor:
#      x y z
#    x 2.000330 0.000000 0.000000 
#    y 0.000000 2.000330 0.000000 
#    z 0.000000 0.000000 1.969560 
# 
# From -- ./inp_files/238.got.cif
#   From: 2010.05.17/outbox.cif.g08.bks.cpg/sg147_cif.got.tgz:238.got - 2010.05.20 13:49:32.
