data_PCOD9574133
_publ_section_title
;
Structure prediction by ZEFSAII (Michael W. Deem and Ramdas Pophale) SiO2 
 PCOD9574133
Probable space group: I 41/A C D
;
_chemical_formula_sum "Si O2"
_cell_formula_units_Z 176
_cell_length_a 22.537711
_cell_length_b 22.537711
_cell_length_c 16.078746
_cell_angle_alpha 90.000000
_cell_angle_beta 90.000000
_cell_angle_gamma 90.000000
_cell_volume 8167.173580
_symmetry_space_group_name_H-M "I 41/A C D"
_symmetry_group_IT_number 142
_space_group.IT_coordinate_system_code '2'
_symmetry_cell_setting 'tetragonal'
loop_
_space_group_symop_operation_xyz
x,y,z
1/4-y,3/4+x,1/4+z
-x,1/2-y,z
1/4+y,1/4-x,3/4+z
x,-y,1/2-z
1/2-x,y,-z
3/4+y,1/4+x,1/4-z
1/4-y,1/4-x,1/4-z
-x,-y,-z
3/4+y,1/4-x,3/4-z
x,1/2+y,-z
3/4-y,3/4+x,1/4-z
-x,y,1/2+z
1/2+x,-y,z
1/4-y,3/4-x,3/4+z
3/4+y,3/4+x,3/4+z
1/2+x,1/2+y,1/2+z
3/4-y,1/4+x,3/4+z
1/2-x,-y,1/2+z
3/4+y,3/4-x,1/4+z
1/2+x,1/2-y,-z
-x,1/2+y,1/2-z
1/4+y,3/4+x,3/4-z
3/4-y,3/4-x,3/4-z
1/2-x,1/2-y,1/2-z
1/4+y,3/4-x,1/4-z
1/2+x,y,1/2-z
1/4-y,1/4+x,3/4-z
1/2-x,1/2+y,z
x,1/2-y,1/2+z
3/4-y,1/4-x,1/4+z
1/4+y,1/4+x,1/4+z
loop_
_atom_site_type_symbol
_atom_site_label
_atom_site_fract_x
_atom_site_fract_y
_atom_site_fract_z
Si Si1 0.852902 0.804015 0.353627
Si Si2 0.720569 0.202799 0.411538
Si Si3 0.161874 0.726206 0.163981
Si Si4 0.347463 0.004238 0.349994
Si Si5 0.866806 0.641022 0.183447
Si Si6 0.640830 0.890830 0.125000
O O1 0.913998 0.836003 0.375000
O O2 0.837690 0.743223 0.401570
O O3 0.854013 0.792243 0.256364
O O4 0.799825 0.850140 0.374183
O O5 0.750000 0.212491 0.500000
O O6 0.767179 0.225856 0.344649
O O7 0.705881 0.133878 0.396479
O O8 0.138007 0.792003 0.149828
O O9 0.138556 0.676311 0.101243
O O10 0.286059 0.036059 0.375000
O O11 0.349839 0.000000 0.250000
O O12 0.358029 0.941663 0.396644
O O13 0.868840 0.640125 0.284231
#
# Coordination Sequence:
#
# PCOD9574133 Si02
#       6
#    32  32  32  32  32  16
#     4  11  23  41  75 105 134 186 243 295 357 434
#     4  12  24  46  71 104 144 195 235 299 372 440
#     4  12  26  46  75 103 143 193 242 300 364 438
#     4  11  24  46  71 106 146 184 244 295 357 433
#     4  12  26  48  75 107 148 194 244 300 369 441
#     4  12  26  46  71 110 148 190 248 296 376 445
#
# _framework density 21.549682000000001
#
# number of rings (size 3 to 8) (size 9 to 14) (size 15 to 20)
#    0.000    0.364    5.455    4.364    2.545    0.364 
#    6.545    0.455    0.000    0.000    0.000    0.000 
#    0.000    0.000    0.000    0.000    0.000    0.000 
#
# Total GULP energy -491725.266039 kJ/mol
# GULP energy per Si atom -5587.787114 kJ/mol
# Density = 2.150063 g / cm^3
# Si number density = 21.549682 Si / 1000 Ang^3
#
#
#
# Elastic Constant Matrix: (Units=GPa)
#
#
# Indices 1 2 3 4 5 6 
#
# 1 84.8444 59.2771 41.6604 0.0000 0.0000 0.0000
# 2 59.2771 84.8481 41.6596 0.0000 0.0000 0.0000
# 3 41.6604 41.6596 125.7722 0.0000 0.0000 0.0000
# 4 0.0000 0.0000 0.0000 -53.8771 0.0000 0.0000
# 5 0.0000 0.0000 0.0000 0.0000 -53.4580 0.0000
# 6 0.0000 0.0000 0.0000 0.0000 0.0000 45.3696
#
#
#
# Elastic Compliance Matrix: (Units=1/GPa)
#
#
# Indices 1 2 3 4 5 6 
#
# 1 0.023846 -0.015264 -0.002843 0.000000 0.000000 0.000000
# 2 -0.015264 0.023845 -0.002842 0.000000 0.000000 0.000000
# 3 -0.002843 -0.002842 0.009834 0.000000 0.000000 0.000000
# 4 0.000000 0.000000 0.000000 -0.018561 0.000000 0.000000
# 5 0.000000 0.000000 0.000000 0.000000 -0.018706 0.000000
# 6 0.000000 0.000000 0.000000 0.000000 0.000000 0.022041
#
#
# Mechanical properties :
#
#
# Convention : Reuss Voigt Hill
#
# Bulk Modulus (GPa) = 63.99050 64.51766 64.25408
# Shear Modulus (GPa) = 55.92412 -2.20191 26.86110
#
# Velocity S-wave (km/s) = 5.09976 -1.01193 3.53437
# Velocity P-wave (km/s) = 8.02718 5.35151 6.82182
#
# Compressibility (1/GPa) = 0.01562732
#
# Stress axis : x y z
#
# Youngs Moduli (GPa) = 41.93495 41.93750 101.68791
#
# Poissons Ratio (x) = 0.64013 0.28910
# Poissons Ratio (y) = 0.64009 0.28902
# Poissons Ratio (z) = 0.11922 0.11920
#
# Static dielectric constant tensor:
#      x y z
#    x 1.813320 0.000000 0.000000 
#    y 0.000000 1.813320 0.000000 
#    z 0.000000 0.000000 1.792730 
# 
# From -- ./inp_files/5558.got.cif
#   From: 2010.05.17/outbox.cif.g08.bks.cpg/sg142_3_cif.got.tgz:5558.got - 2010.05.20 13:39:18.
