data_PCOD9574398
_publ_section_title
;
Structure prediction by ZEFSAII (Michael W. Deem and Ramdas Pophale) SiO2 
 PCOD9574398
Probable space group: P 31
;
_chemical_formula_sum "Si O2"
_cell_formula_units_Z 24
_cell_length_a 8.549840
_cell_length_b 8.549840
_cell_length_c 18.410806
_cell_angle_alpha 90.000000
_cell_angle_beta 90.000000
_cell_angle_gamma 120.000000
_cell_volume 1165.519136
_symmetry_space_group_name_H-M "P 31"
_symmetry_group_IT_number 144
_symmetry_cell_setting 'hexagonal'
loop_
_space_group_symop_operation_xyz
x,y,z
-y,x-y,1/3+z
-x+y,-x,2/3+z
loop_
_atom_site_type_symbol
_atom_site_label
_atom_site_fract_x
_atom_site_fract_y
_atom_site_fract_z
Si Si1 0.054630 0.045195 0.922340
Si Si2 0.989569 0.684502 0.305731
Si Si3 0.388115 0.690097 0.621373
Si Si4 0.010006 0.640056 0.675727
Si Si5 0.511860 0.998543 0.501343
Si Si6 0.062192 0.190740 0.779103
Si Si7 0.724719 0.389624 0.962246
Si Si8 0.249802 0.276002 0.353117
O O1 0.194017 0.184051 0.980716
O O2 0.131743 0.113512 0.842817
O O3 0.869477 0.050364 0.925741
O O4 0.013459 0.849321 0.946539
O O5 0.807065 0.496848 0.315913
O O6 0.140179 0.648476 0.271141
O O7 0.067090 0.794927 0.380490
O O8 0.204796 0.675242 0.650512
O O9 0.460164 0.827950 0.553853
O O10 0.544207 0.781162 0.682974
O O11 0.994373 0.613712 0.762327
O O12 0.854499 0.457464 0.638184
O O13 0.320108 0.971810 0.474708
O O14 0.617654 0.178799 0.550123
O O15 0.872339 0.030285 0.748630
O O16 0.873586 0.541498 0.014936
#
# Coordination Sequence:
#
# PCOD9574398 Si02
#       8
#     3   3   3   3   3   3   3   3
#     4  11  23  43  67  97 133 171 218 275 324 390
#     4  11  23  41  67  97 134 172 218 273 322 389
#     4  11  23  42  66  96 134 173 219 271 321 388
#     4  12  23  43  69  96 134 172 217 273 323 389
#     4  11  23  45  67  97 132 173 218 268 332 382
#     4  11  21  44  69  96 131 172 218 270 336 382
#     4  11  23  42  66  95 135 170 217 271 321 388
#     4  10  23  42  65  94 133 171 217 273 321 388
#
# _framework density 20.59168
#
# number of rings (size 3 to 8) (size 9 to 14) (size 15 to 20)
#    0.000    1.000    5.000    2.250    0.000    6.000 
#    0.000    0.000    0.000    0.000    0.000    0.000 
#    0.000    0.000    0.000    0.000    0.000    0.000 
#
# Total GULP energy -134131.987069 kJ/mol
# GULP energy per Si atom -5588.832795 kJ/mol
# Density = 2.054481 g / cm^3
# Si number density = 20.591680 Si / 1000 Ang^3
#
#
#
# Elastic Constant Matrix: (Units=GPa)
#
#
# Indices 1 2 3 4 5 6 
#
# 1 103.8057 18.1895 38.8419 2.3718 -12.1050 0.0000
# 2 18.1895 103.8057 38.8419 -2.3718 12.1050 0.0000
# 3 38.8419 38.8419 116.2538 0.0000 0.0000 0.0000
# 4 2.3718 -2.3718 0.0000 30.1085 0.0000 12.1050
# 5 -12.1050 12.1050 0.0000 0.0000 30.1085 2.3718
# 6 0.0000 0.0000 0.0000 12.1050 2.3718 42.8081
#
#
#
# Elastic Compliance Matrix: (Units=1/GPa)
#
#
# Indices 1 2 3 4 5 6 
#
# 1 0.011828 -0.001416 -0.003479 -0.001043 0.005324 0.000000
# 2 -0.001416 0.011828 -0.003479 0.001043 -0.005324 0.000000
# 3 -0.003479 -0.003479 0.010927 0.000000 0.000000 0.000000
# 4 -0.001043 0.001043 0.000000 0.037659 0.000000 -0.010649
# 5 0.005324 -0.005324 0.000000 0.000000 0.037659 -0.002087
# 6 0.000000 0.000000 0.000000 -0.010649 -0.002087 0.026487
#
#
# Mechanical properties :
#
#
# Convention : Reuss Voigt Hill
#
# Bulk Modulus (GPa) = 56.06754 57.29021 56.67888
# Shear Modulus (GPa) = 31.43092 35.80447 33.61770
#
# Velocity S-wave (km/s) = 3.91114 4.17440 4.04491
# Velocity P-wave (km/s) = 6.90532 7.14958 7.02851
#
# Compressibility (1/GPa) = 0.01783563
#
# Stress axis : x y z
#
# Youngs Moduli (GPa) = 84.54593 84.54593 91.52010
#
# Poissons Ratio (x) = 0.11968 0.31839
# Poissons Ratio (y) = 0.11968 0.31839
# Poissons Ratio (z) = 0.29413 0.29413
#
# Static dielectric constant tensor:
#      x y z
#    x 1.722790 0.000000 0.000000 
#    y 0.000000 1.722790 0.000000 
#    z 0.000000 0.000000 1.763230 
# 
# From -- ./inp_files/820.got.cif
#   From: 2010.05.17/outbox.cif.g08.bks.cpg/sg144_cif.got.tgz:820.got - 2010.05.20 13:46:34.
