data_PCOD9574023
_publ_section_title
;
Structure prediction by ZEFSAII (Michael W. Deem and Ramdas Pophale) SiO2 
 PCOD9574023
Probable space group: I 41/A C D
;
_chemical_formula_sum "Si O2"
_cell_formula_units_Z 176
_cell_length_a 23.130144
_cell_length_b 23.130144
_cell_length_c 14.381719
_cell_angle_alpha 90.000000
_cell_angle_beta 90.000000
_cell_angle_gamma 90.000000
_cell_volume 7694.270885
_symmetry_space_group_name_H-M "I 41/A C D"
_symmetry_group_IT_number 142
_space_group.IT_coordinate_system_code '2'
_symmetry_cell_setting 'tetragonal'
loop_
_space_group_symop_operation_xyz
x,y,z
1/4-y,3/4+x,1/4+z
-x,1/2-y,z
1/4+y,1/4-x,3/4+z
x,-y,1/2-z
1/2-x,y,-z
3/4+y,1/4+x,1/4-z
1/4-y,1/4-x,1/4-z
-x,-y,-z
3/4+y,1/4-x,3/4-z
x,1/2+y,-z
3/4-y,3/4+x,1/4-z
-x,y,1/2+z
1/2+x,-y,z
1/4-y,3/4-x,3/4+z
3/4+y,3/4+x,3/4+z
1/2+x,1/2+y,1/2+z
3/4-y,1/4+x,3/4+z
1/2-x,-y,1/2+z
3/4+y,3/4-x,1/4+z
1/2+x,1/2-y,-z
-x,1/2+y,1/2-z
1/4+y,3/4+x,3/4-z
3/4-y,3/4-x,3/4-z
1/2-x,1/2-y,1/2-z
1/4+y,3/4-x,1/4-z
1/2+x,y,1/2-z
1/4-y,1/4+x,3/4-z
1/2-x,1/2+y,z
x,1/2-y,1/2+z
3/4-y,1/4-x,1/4+z
1/4+y,1/4+x,1/4+z
loop_
_atom_site_type_symbol
_atom_site_label
_atom_site_fract_x
_atom_site_fract_y
_atom_site_fract_z
Si Si1 0.624214 0.773997 0.312835
Si Si2 0.679227 0.598214 0.424169
Si Si3 0.052352 0.603879 0.398965
Si Si4 0.460095 0.873547 0.762517
Si Si5 0.691577 0.558424 0.625000
Si Si6 0.916790 0.480554 0.854523
O O1 0.628407 0.719432 0.248972
O O2 0.601332 0.758000 0.414446
O O3 0.585613 0.820831 0.258433
O O4 0.690008 0.791037 0.336909
O O5 0.671593 0.667428 0.439006
O O6 0.662296 0.575488 0.527817
O O7 0.742575 0.576454 0.396271
O O8 0.637863 0.563084 0.353612
O O9 0.098065 0.651935 0.375000
O O10 0.084732 0.542495 0.402740
O O11 0.996603 0.605701 0.327454
O O12 0.933014 0.500000 0.750000
#
# Coordination Sequence:
#
# PCOD9574023 Si02
#       6
#    32  32  32  32  16  32
#     4  11  25  45  71  99 142 192 237 303 371 426
#     4  10  26  42  74  98 149 181 239 298 365 442
#     4  12  27  44  74 107 141 193 246 308 370 436
#     4  11  25  47  69 106 141 187 246 302 365 439
#     4  10  24  46  66 112 129 200 229 298 372 434
#     4  11  25  44  68 103 143 188 238 298 367 444
#
# _framework density 22.874161999999998
#
# number of rings (size 3 to 8) (size 9 to 14) (size 15 to 20)
#    0.000    1.091    1.818    2.182   14.000    6.182 
#    0.000    0.000    0.000    0.000    0.000    0.000 
#    0.000    0.000    0.000    0.000    0.000    0.000 
#
# Total GULP energy -490354.474110 kJ/mol
# GULP energy per Si atom -5572.209933 kJ/mol
# Density = 2.282210 g / cm^3
# Si number density = 22.874162 Si / 1000 Ang^3
#
#
#
# Elastic Constant Matrix: (Units=GPa)
#
#
# Indices 1 2 3 4 5 6 
#
# 1 85.5026 42.1276 19.2907 0.0000 0.0000 0.0000
# 2 42.1276 85.4738 19.3017 0.0000 0.0000 0.0000
# 3 19.2907 19.3017 18.7350 0.0000 0.0000 0.0000
# 4 0.0000 0.0000 0.0000 27.8699 0.0000 0.0000
# 5 0.0000 0.0000 0.0000 0.0000 27.8579 0.0000
# 6 0.0000 0.0000 0.0000 0.0000 0.0000 27.9754
#
#
#
# Elastic Compliance Matrix: (Units=1/GPa)
#
#
# Indices 1 2 3 4 5 6 
#
# 1 0.017215 -0.005841 -0.011708 0.000000 0.000000 0.000000
# 2 -0.005841 0.017228 -0.011735 0.000000 0.000000 0.000000
# 3 -0.011708 -0.011735 0.077522 0.000000 0.000000 0.000000
# 4 0.000000 0.000000 0.000000 0.035881 0.000000 0.000000
# 5 0.000000 0.000000 0.000000 0.000000 0.035896 0.000000
# 6 0.000000 0.000000 0.000000 0.000000 0.000000 0.035746
#
#
# Mechanical properties :
#
#
# Convention : Reuss Voigt Hill
#
# Bulk Modulus (GPa) = 18.72782 39.01681 28.87232
# Shear Modulus (GPa) = 16.90014 24.00673 20.45344
#
# Velocity S-wave (km/s) = 2.72109 3.24313 2.99351
# Velocity P-wave (km/s) = 4.25177 5.57836 4.95962
#
# Compressibility (1/GPa) = 0.05339649
#
# Stress axis : x y z
#
# Youngs Moduli (GPa) = 58.08931 58.04382 12.89960
#
# Poissons Ratio (x) = 0.33902 0.15103
# Poissons Ratio (y) = 0.33929 0.15138
# Poissons Ratio (z) = 0.68011 0.68117
#
# Static dielectric constant tensor:
#      x y z
#    x 1.917180 0.000000 0.000000 
#    y 0.000000 1.917180 0.000000 
#    z 0.000000 0.000000 1.860600 
# 
# From -- ./inp_files/5563.got.cif
#   From: 2010.05.17/outbox.cif.g08.bks.cpg/sg142_3_cif.got.tgz:5563.got - 2010.05.20 13:39:18.
