data_PCOD9574350
_publ_section_title
;
Structure prediction by ZEFSAII (Michael W. Deem and Ramdas Pophale) SiO2 
 PCOD9574350
Probable space group: P 31
;
_chemical_formula_sum "Si O2"
_cell_formula_units_Z 24
_cell_length_a 13.374063
_cell_length_b 13.374063
_cell_length_c 6.586703
_cell_angle_alpha 90.000000
_cell_angle_beta 90.000000
_cell_angle_gamma 120.000000
_cell_volume 1020.294257
_symmetry_space_group_name_H-M "P 31"
_symmetry_group_IT_number 144
_symmetry_cell_setting 'hexagonal'
loop_
_space_group_symop_operation_xyz
x,y,z
-y,x-y,1/3+z
-x+y,-x,2/3+z
loop_
_atom_site_type_symbol
_atom_site_label
_atom_site_fract_x
_atom_site_fract_y
_atom_site_fract_z
Si Si1 0.058469 0.184147 0.684710
Si Si2 0.724097 0.975595 0.566556
Si Si3 0.289622 0.413408 0.592403
Si Si4 0.564333 0.005330 0.275000
Si Si5 0.235979 0.601333 0.774942
Si Si6 0.820279 0.682499 0.231451
Si Si7 0.884400 0.865691 0.557291
Si Si8 0.571657 0.229628 0.439834
O O1 0.184892 0.291590 0.668590
O O2 0.064136 0.080628 0.802596
O O3 0.986878 0.234273 0.794165
O O4 0.117585 0.201664 0.168231
O O5 0.607206 0.886247 0.685803
O O6 0.679818 0.020133 0.382696
O O7 0.791346 0.072556 0.740795
O O8 0.404628 0.432915 0.706721
O O9 0.264230 0.511565 0.662264
O O10 0.457557 0.894100 0.380505
O O11 0.557631 0.118458 0.319996
O O12 0.274348 0.596518 0.004472
O O13 0.863084 0.860199 0.799524
O O14 0.742105 0.546969 0.222823
O O15 0.845430 0.742200 0.452407
O O16 0.671754 0.272044 0.607347
#
# Coordination Sequence:
#
# PCOD9574350 Si02
#       8
#     3   3   3   3   3   3   3   3
#     4  11  26  41  68 107 151 194 243 294 383 462
#     4  11  24  43  69 106 144 190 242 298 371 450
#     4  10  22  43  69 104 146 185 239 297 372 446
#     4  11  24  45  73  99 145 188 245 314 372 439
#     4  10  21  41  72 108 142 185 236 306 380 454
#     4  12  26  45  70 104 145 192 250 306 370 448
#     4  11  25  44  71 109 156 195 236 303 389 472
#     4  12  30  52  76 103 141 203 269 320 373 441
#
# _framework density 23.522627
#
# number of rings (size 3 to 8) (size 9 to 14) (size 15 to 20)
#    0.000    1.000    3.750    2.250    7.000    2.000 
#    2.250    5.000    0.000    0.000    0.000    0.000 
#    0.000    0.000    0.000    0.000    0.000    0.000 
#
# Total GULP energy -134065.253530 kJ/mol
# GULP energy per Si atom -5586.052230 kJ/mol
# Density = 2.346909 g / cm^3
# Si number density = 23.522627 Si / 1000 Ang^3
#
#
#
# Elastic Constant Matrix: (Units=GPa)
#
#
# Indices 1 2 3 4 5 6 
#
# 1 125.7193 47.0003 39.7775 -6.8291 2.7861 0.0000
# 2 47.0003 125.7193 39.7775 6.8291 -2.7861 0.0000
# 3 39.7775 39.7775 102.3166 0.0000 0.0000 0.0000
# 4 -6.8291 6.8291 0.0000 28.0112 0.0000 -2.7861
# 5 2.7861 -2.7861 0.0000 0.0000 28.0112 -6.8291
# 6 0.0000 0.0000 0.0000 -2.7861 -6.8291 39.3595
#
#
#
# Elastic Compliance Matrix: (Units=1/GPa)
#
#
# Indices 1 2 3 4 5 6 
#
# 1 0.010208 -0.003155 -0.002742 0.003258 -0.001329 0.000000
# 2 -0.003155 0.010208 -0.002742 -0.003258 0.001329 0.000000
# 3 -0.002742 -0.002742 0.011905 0.000000 0.000000 0.000000
# 4 0.003258 -0.003258 0.000000 0.037553 0.000000 0.002658
# 5 -0.001329 0.001329 0.000000 0.000000 0.037553 0.006516
# 6 0.000000 0.000000 0.000000 0.002658 0.006516 0.026726
#
#
# Mechanical properties :
#
#
# Convention : Reuss Voigt Hill
#
# Bulk Modulus (GPa) = 66.47452 67.42954 66.95203
# Shear Modulus (GPa) = 31.96030 34.22303 33.09166
#
# Velocity S-wave (km/s) = 3.69006 3.81845 3.75480
# Velocity P-wave (km/s) = 6.81737 6.94038 6.87915
#
# Compressibility (1/GPa) = 0.01504336
#
# Stress axis : x y z
#
# Youngs Moduli (GPa) = 97.96530 97.96530 83.99491
#
# Poissons Ratio (x) = 0.30909 0.23030
# Poissons Ratio (y) = 0.30909 0.23030
# Poissons Ratio (z) = 0.26861 0.26861
#
# Static dielectric constant tensor:
#      x y z
#    x 1.903000 0.000000 0.000000 
#    y 0.000000 1.903000 0.000000 
#    z 0.000000 0.000000 1.988190 
# 
# From -- ./inp_files/122.got.cif
#   From: 2010.05.17/outbox.cif.g08.bks.cpg/sg144_cif.got.tgz:122.got - 2010.05.20 13:46:34.
