data_PCOD9574272
_publ_section_title
;
Structure prediction by ZEFSAII (Michael W. Deem and Ramdas Pophale) SiO2 
 PCOD9574272
Probable space group: P 3
;
_chemical_formula_sum "Si O2"
_cell_formula_units_Z 13
_cell_length_a 10.052185
_cell_length_b 10.052185
_cell_length_c 7.238067
_cell_angle_alpha 90.000000
_cell_angle_beta 90.000000
_cell_angle_gamma 120.000000
_cell_volume 633.394337
_symmetry_space_group_name_H-M "P 3"
_symmetry_group_IT_number 143
_symmetry_cell_setting 'hexagonal'
loop_
_space_group_symop_operation_xyz
x,y,z
-y,x-y,z
-x+y,-x,z
loop_
_atom_site_type_symbol
_atom_site_label
_atom_site_fract_x
_atom_site_fract_y
_atom_site_fract_z
Si Si1 0.923483 0.256816 0.400750
Si Si2 0.666667 0.333332 0.846476
Si Si3 0.666668 0.333335 0.400535
Si Si4 0.000000 0.000000 0.846472
Si Si5 0.000000 0.000000 0.400532
Si Si6 0.923478 0.256811 0.846259
Si Si7 0.506453 0.666667 0.123503
O O1 0.927476 0.104330 0.344606
O O2 0.065515 0.398847 0.300669
O O3 0.771000 0.260813 0.344608
O O4 0.937834 0.271167 0.623505
O O5 0.666668 0.333334 0.623505
O O6 0.770992 0.260803 0.902401
O O7 0.895675 0.823146 0.902400
O O8 0.000000 0.000000 0.623502
O O9 0.065508 0.398841 0.946344
O O10 0.477064 0.810398 0.123500
#
# Coordination Sequence:
#
# PCOD9574272 Si02
#       7
#     3   1   1   1   1   3   3
#     4  10  22  41  65  93 131 165 205 262 315 372
#     4   9  21  40  68  97 124 167 211 250 320 382
#     4   9  21  40  68  97 124 167 211 250 320 382
#     4   9  21  40  68  97 124 167 211 250 320 382
#     4   9  21  40  68  97 124 167 211 250 320 382
#     4  10  22  41  65  93 131 165 205 262 315 372
#     4  10  26  40  58  94 124 164 222 250 308 382
#
# _framework density 20.524339000000001
#
# number of rings (size 3 to 8) (size 9 to 14) (size 15 to 20)
#    0.462    1.846    0.000    0.000    6.462    5.538 
#    0.000    0.000    0.000    0.000    0.000    0.000 
#    0.000    0.000    0.000    0.000    0.000    0.000 
#
# Total GULP energy -72567.852239 kJ/mol
# GULP energy per Si atom -5582.142480 kJ/mol
# Density = 2.047762 g / cm^3
# Si number density = 20.524339 Si / 1000 Ang^3
#
#
#
# Elastic Constant Matrix: (Units=GPa)
#
#
# Indices 1 2 3 4 5 6 
#
# 1 177.7862 89.0639 21.7995 -0.0004 -0.0003 -0.0006
# 2 89.0639 177.7880 21.8004 0.0003 0.0009 -0.0006
# 3 21.7995 21.8004 101.8264 0.0000 0.0001 -0.0001
# 4 -0.0004 0.0003 0.0000 20.8542 -0.0001 0.0004
# 5 -0.0003 0.0009 0.0001 -0.0001 20.8533 -0.0004
# 6 -0.0006 -0.0006 -0.0001 0.0004 -0.0004 44.3608
#
#
#
# Elastic Compliance Matrix: (Units=1/GPa)
#
#
# Indices 1 2 3 4 5 6 
#
# 1 0.007577 -0.003694 -0.000831 0.000000 0.000000 0.000000
# 2 -0.003694 0.007577 -0.000831 0.000000 0.000000 0.000000
# 3 -0.000831 -0.000831 0.010177 0.000000 0.000000 0.000000
# 4 0.000000 0.000000 0.000000 0.047952 0.000000 0.000000
# 5 0.000000 0.000000 0.000000 0.000000 0.047954 0.000000
# 6 0.000000 0.000000 0.000000 0.000000 0.000000 0.022542
#
#
# Mechanical properties :
#
#
# Convention : Reuss Voigt Hill
#
# Bulk Modulus (GPa) = 68.41046 80.30314 74.35680
# Shear Modulus (GPa) = 31.37450 38.86277 35.11863
#
# Velocity S-wave (km/s) = 3.91403 4.35615 4.14100
# Velocity P-wave (km/s) = 7.33689 8.03195 7.69227
#
# Compressibility (1/GPa) = 0.01461765
#
# Stress axis : x y z
#
# Youngs Moduli (GPa) = 131.97569 131.97675 98.26454
#
# Poissons Ratio (x) = 0.48751 0.08169
# Poissons Ratio (y) = 0.48750 0.08170
# Poissons Ratio (z) = 0.10971 0.10973
#
# Static dielectric constant tensor:
#      x y z
#    x 1.711360 0.000000 0.000000 
#    y 0.000000 1.711360 0.000000 
#    z 0.000000 0.000000 1.730430 
# 
# From -- ./inp_files/115.got.cif
#   From: 2010.05.17/outbox.cif.g08.bks.cpg/sg143_cif.got.tgz:115.got - 2010.05.20 13:46:24.
