data_PCOD9574293
_publ_section_title
;
Structure prediction by ZEFSAII (Michael W. Deem and Ramdas Pophale) SiO2 
 PCOD9574293
Probable space group: P 31
;
_chemical_formula_sum "Si O2"
_cell_formula_units_Z 15
_cell_length_a 7.842607
_cell_length_b 7.842607
_cell_length_c 13.080072
_cell_angle_alpha 90.000000
_cell_angle_beta 90.000000
_cell_angle_gamma 120.000000
_cell_volume 696.725445
_symmetry_space_group_name_H-M "P 31"
_symmetry_group_IT_number 144
_symmetry_cell_setting 'hexagonal'
loop_
_space_group_symop_operation_xyz
x,y,z
-y,x-y,1/3+z
-x+y,-x,2/3+z
loop_
_atom_site_type_symbol
_atom_site_label
_atom_site_fract_x
_atom_site_fract_y
_atom_site_fract_z
Si Si1 0.322143 0.161071 0.972040
Si Si2 0.658029 0.076854 0.896701
Si Si3 0.685071 0.710568 0.835754
Si Si4 0.418825 0.076854 0.380713
Si Si5 0.025498 0.710567 0.441660
O O1 0.465931 0.089672 0.923961
O O2 0.209192 0.177266 0.874321
O O3 0.465933 0.376259 0.020119
O O4 0.209192 0.031928 0.069759
O O5 0.775683 0.224319 0.805374
O O6 0.611887 0.862262 0.861915
O O7 0.770425 0.105029 0.005588
O O8 0.499048 0.500953 0.805374
O O9 0.770427 0.665397 0.938493
O O10 0.250376 0.862260 0.415499
#
# Coordination Sequence:
#
# PCOD9574293 Si02
#       5
#     3   3   3   3   3
#     4  10  20  38  58  78 112 150 186 230 282 336
#     4  10  19  35  58  81 109 146 187 229 277 333
#     4   9  20  37  55  81 113 147 188 230 277 335
#     4  10  19  35  58  81 109 146 187 229 277 333
#     4   9  20  37  55  81 113 147 188 230 277 335
#
# _framework density 21.529281000000001
#
# number of rings (size 3 to 8) (size 9 to 14) (size 15 to 20)
#    0.000    2.400    0.000    3.600    0.000    3.200 
#    0.000   26.000    0.000    0.000    0.000    0.000 
#    0.000    0.000    0.000    0.000    0.000    0.000 
#
# Total GULP energy -83671.319947 kJ/mol
# GULP energy per Si atom -5578.087996 kJ/mol
# Density = 2.148028 g / cm^3
# Si number density = 21.529281 Si / 1000 Ang^3
#
#
#
# Elastic Constant Matrix: (Units=GPa)
#
#
# Indices 1 2 3 4 5 6 
#
# 1 45.5630 1.2779 42.8585 0.0001 8.9615 0.0000
# 2 1.2779 45.5630 42.8585 -0.0001 -8.9615 0.0000
# 3 42.8585 42.8585 173.7088 0.0000 0.0000 0.0000
# 4 0.0001 -0.0001 0.0000 35.0031 0.0000 -8.9615
# 5 8.9615 -8.9615 0.0000 0.0000 35.0031 0.0001
# 6 0.0000 0.0000 0.0000 -8.9615 0.0001 22.1426
#
#
#
# Elastic Compliance Matrix: (Units=1/GPa)
#
#
# Indices 1 2 3 4 5 6 
#
# 1 0.032057 0.006866 -0.009603 0.000000 -0.006449 0.000000
# 2 0.006866 0.032057 -0.009603 0.000000 0.006449 0.000000
# 3 -0.009603 -0.009603 0.010495 0.000000 0.000000 0.000000
# 4 0.000000 0.000000 0.000000 0.031871 0.000000 0.012899
# 5 -0.006449 0.006449 0.000000 0.000000 0.031871 0.000000
# 6 0.000000 0.000000 0.000000 0.012899 0.000000 0.050382
#
#
# Mechanical properties :
#
#
# Convention : Reuss Voigt Hill
#
# Bulk Modulus (GPa) = 20.02910 48.75830 34.39370
# Shear Modulus (GPa) = 21.73371 30.28577 26.00974
#
# Velocity S-wave (km/s) = 3.18070 3.75470 3.47956
# Velocity P-wave (km/s) = 4.77625 6.44156 5.67037
#
# Compressibility (1/GPa) = 0.04992735
#
# Stress axis : x y z
#
# Youngs Moduli (GPa) = 31.19476 31.19476 95.27934
#
# Poissons Ratio (x) = -0.21417 0.91498
# Poissons Ratio (y) = -0.21417 0.91498
# Poissons Ratio (z) = 0.29957 0.29957
#
# Static dielectric constant tensor:
#      x y z
#    x 1.770410 0.000000 0.000000 
#    y 0.000000 1.770410 0.000000 
#    z 0.000000 0.000000 1.876830 
# 
# From -- ./inp_files/463.got.cif
#   From: 2010.05.17/outbox.cif.g08.bks.cpg/sg144_cif.got.tgz:463.got - 2010.05.20 13:46:34.
