data_PCOD9574715
_publ_section_title
;
Structure prediction by ZEFSAII (Michael W. Deem and Ramdas Pophale) SiO2 
 PCOD9574715
Probable space group: R 3
;
_chemical_formula_sum "Si O2"
_cell_formula_units_Z 63
_cell_length_a 16.879606
_cell_length_b 16.879606
_cell_length_c 12.623133
_cell_angle_alpha 90.000000
_cell_angle_beta 90.000000
_cell_angle_gamma 120.000000
_cell_volume 3114.744303
_symmetry_space_group_name_H-M "R 3"
_symmetry_group_IT_number 146
_symmetry_cell_setting 'hexagonal'
loop_
_space_group_symop_operation_xyz
x,y,z
-y,x-y,z
-x+y,-x,z
2/3+x,1/3+y,1/3+z
2/3-y,1/3+x-y,1/3+z
2/3-x+y,1/3-x,1/3+z
1/3+x,2/3+y,2/3+z
1/3-y,2/3+x-y,2/3+z
1/3-x+y,2/3-x,2/3+z
loop_
_atom_site_type_symbol
_atom_site_label
_atom_site_fract_x
_atom_site_fract_y
_atom_site_fract_z
Si Si1 0.651317 0.702387 0.191000
Si Si2 0.689268 0.822934 0.384122
Si Si3 0.581913 0.907710 0.944244
Si Si4 0.772423 0.066327 0.037188
Si Si5 0.891669 0.089394 0.846968
Si Si6 0.536573 0.539717 0.649733
Si Si7 0.431687 0.872335 0.475771
O O1 0.633900 0.750201 0.290862
O O2 0.562981 0.617940 0.133773
O O3 0.728688 0.682504 0.238415
O O4 0.693666 0.774280 0.096068
O O5 0.622693 0.844398 0.452160
O O6 0.756482 0.917670 0.324990
O O7 0.585156 0.899703 0.817009
O O8 0.590149 0.822053 0.989158
O O9 0.675943 0.000632 0.978219
O O10 0.785772 0.167113 0.063194
O O11 0.860689 0.084720 0.968014
O O12 0.991416 0.168020 0.813558
O O13 0.877242 0.994645 0.804588
O O14 0.450216 0.534480 0.592223
#
# Coordination Sequence:
#
# PCOD9574715 Si02
#       7
#     9   9   9   9   9   9   9
#     4  10  23  40  64  99 136 179 228 288 354 431
#     4  11  23  40  67  99 136 180 235 291 361 421
#     4  11  21  40  66  96 131 176 227 292 342 421
#     4  11  22  40  63  96 129 173 231 282 353 423
#     4  12  24  41  63  95 137 177 231 292 355 428
#     4  10  21  39  64  96 131 179 228 285 350 421
#     4  11  24  38  63  93 132 180 222 288 357 413
#
# _framework density 20.226379000000001
#
# number of rings (size 3 to 8) (size 9 to 14) (size 15 to 20)
#    0.000    1.143    5.714    1.143    6.000    0.000 
#    0.000    0.000    0.000    4.571    0.000    0.000 
#    0.000    0.000    0.000    0.000    0.000    0.000 
#
# Total GULP energy -116969.868129 kJ/mol
# GULP energy per Si atom -5569.993720 kJ/mol
# Density = 2.018034 g / cm^3
# Si number density = 20.226379 Si / 1000 Ang^3
#
#
#
# Elastic Constant Matrix: (Units=GPa)
#
#
# Indices 1 2 3 4 5 6 
#
# 1 79.1459 20.1629 24.5670 4.3723 -1.3420 0.0000
# 2 20.1629 79.1459 24.5670 -4.3723 1.3420 0.0000
# 3 24.5670 24.5670 100.5262 0.0000 0.0000 0.0000
# 4 4.3723 -4.3723 0.0000 25.3028 0.0000 1.3420
# 5 -1.3420 1.3420 0.0000 0.0000 25.3028 4.3723
# 6 0.0000 0.0000 0.0000 1.3420 4.3723 29.4915
#
#
#
# Elastic Compliance Matrix: (Units=1/GPa)
#
#
# Indices 1 2 3 4 5 6 
#
# 1 0.014449 -0.002994 -0.002799 -0.003014 0.000925 0.000000
# 2 -0.002994 0.014449 -0.002799 0.003014 -0.000925 0.000000
# 3 -0.002799 -0.002799 0.011316 0.000000 0.000000 0.000000
# 4 -0.003014 0.003014 0.000000 0.040661 0.000000 -0.001850
# 5 0.000925 -0.000925 0.000000 0.000000 0.040661 -0.006028
# 6 0.000000 0.000000 0.000000 -0.001850 -0.006028 0.034886
#
#
# Mechanical properties :
#
#
# Convention : Reuss Voigt Hill
#
# Bulk Modulus (GPa) = 43.42583 44.15688 43.79136
# Shear Modulus (GPa) = 27.58114 28.65416 28.11765
#
# Velocity S-wave (km/s) = 3.69673 3.76795 3.73251
# Velocity P-wave (km/s) = 6.30378 6.38817 6.34611
#
# Compressibility (1/GPa) = 0.02302777
#
# Stress axis : x y z
#
# Youngs Moduli (GPa) = 69.20992 69.20992 88.37143
#
# Poissons Ratio (x) = 0.20723 0.24738
# Poissons Ratio (y) = 0.20723 0.24738
# Poissons Ratio (z) = 0.19374 0.19374
#
# Static dielectric constant tensor:
#      x y z
#    x 1.781870 0.000000 0.000000 
#    y 0.000000 1.781870 0.000000 
#    z 0.000000 0.000000 1.731960 
# 
# From -- ./inp_files/1226.got.cif
#   From: 2010.05.17/outbox.cif.g08.bks.cpg/sg146_cif.got.tgz:1226.got - 2010.05.20 13:48:23.
