data_PCOD9574174
_publ_section_title
;
Structure prediction by ZEFSAII (Michael W. Deem and Ramdas Pophale) SiO2 
 PCOD9574174
Probable space group: I 41/A C D
;
_chemical_formula_sum "Si O2"
_cell_formula_units_Z 104
_cell_length_a 14.347259
_cell_length_b 14.347259
_cell_length_c 19.620512
_cell_angle_alpha 90.000000
_cell_angle_beta 90.000000
_cell_angle_gamma 90.000000
_cell_volume 4038.761549
_symmetry_space_group_name_H-M "I 41/A C D"
_symmetry_group_IT_number 142
_space_group.IT_coordinate_system_code '2'
_symmetry_cell_setting 'tetragonal'
loop_
_space_group_symop_operation_xyz
x,y,z
1/4-y,3/4+x,1/4+z
-x,1/2-y,z
1/4+y,1/4-x,3/4+z
x,-y,1/2-z
1/2-x,y,-z
3/4+y,1/4+x,1/4-z
1/4-y,1/4-x,1/4-z
-x,-y,-z
3/4+y,1/4-x,3/4-z
x,1/2+y,-z
3/4-y,3/4+x,1/4-z
-x,y,1/2+z
1/2+x,-y,z
1/4-y,3/4-x,3/4+z
3/4+y,3/4+x,3/4+z
1/2+x,1/2+y,1/2+z
3/4-y,1/4+x,3/4+z
1/2-x,-y,1/2+z
3/4+y,3/4-x,1/4+z
1/2+x,1/2-y,-z
-x,1/2+y,1/2-z
1/4+y,3/4+x,3/4-z
3/4-y,3/4-x,3/4-z
1/2-x,1/2-y,1/2-z
1/4+y,3/4-x,1/4-z
1/2+x,y,1/2-z
1/4-y,1/4+x,3/4-z
1/2-x,1/2+y,z
x,1/2-y,1/2+z
3/4-y,1/4-x,1/4+z
1/4+y,1/4+x,1/4+z
loop_
_atom_site_type_symbol
_atom_site_label
_atom_site_fract_x
_atom_site_fract_y
_atom_site_fract_z
Si Si1 0.827929 0.849947 0.313007
Si Si2 0.500000 0.750000 0.375000
Si Si3 0.360003 0.254891 0.506693
Si Si4 0.201328 0.137649 0.190074
O O1 0.827354 0.922647 0.375000
O O2 0.784294 0.885083 0.241963
O O3 0.787625 0.747319 0.329353
O O4 0.937056 0.840557 0.296815
O O5 0.486526 0.840688 0.328406
O O6 0.250000 0.238291 0.500000
O O7 0.379517 0.360999 0.487902
O O8 0.175443 0.074558 0.125000
#
# Coordination Sequence:
#
# PCOD9574174 Si02
#       4
#    32   8  32  32
#     4  11  24  46  80 114 156 209 265 329 398 475
#     4  12  28  48  70 108 160 208 256 322 396 476
#     4  12  28  45  72 108 154 203 258 323 390 473
#     4  11  24  46  80 114 156 209 265 329 398 475
#
# _framework density 25.750468000000001
#
# number of rings (size 3 to 8) (size 9 to 14) (size 15 to 20)
#    0.000    0.615    6.154    0.000    8.615    1.231 
#    0.000    3.077    0.000    0.000    0.000    0.000 
#    0.000    0.000    0.000    0.000    0.000    0.000 
#
# Total GULP energy -291321.095053 kJ/mol
# GULP energy per Si atom -5602.328751 kJ/mol
# Density = 2.569186 g / cm^3
# Si number density = 25.750468 Si / 1000 Ang^3
#
#
#
# Elastic Constant Matrix: (Units=GPa)
#
#
# Indices 1 2 3 4 5 6 
#
# 1 110.9909 32.5175 53.4481 0.0000 0.0000 0.0000
# 2 32.5175 110.9899 53.4469 0.0000 0.0000 0.0000
# 3 53.4481 53.4469 190.8004 0.0000 0.0000 0.0000
# 4 0.0000 0.0000 0.0000 57.0763 0.0000 0.0000
# 5 0.0000 0.0000 0.0000 0.0000 57.0764 0.0000
# 6 0.0000 0.0000 0.0000 0.0000 0.0000 30.4101
#
#
#
# Elastic Compliance Matrix: (Units=1/GPa)
#
#
# Indices 1 2 3 4 5 6 
#
# 1 0.010774 -0.001969 -0.002467 0.000000 0.000000 0.000000
# 2 -0.001969 0.010774 -0.002467 0.000000 0.000000 0.000000
# 3 -0.002467 -0.002467 0.006623 0.000000 0.000000 0.000000
# 4 0.000000 0.000000 0.000000 0.017520 0.000000 0.000000
# 5 0.000000 0.000000 0.000000 0.000000 0.017520 0.000000
# 6 0.000000 0.000000 0.000000 0.000000 0.000000 0.032884
#
#
# Mechanical properties :
#
#
# Convention : Reuss Voigt Hill
#
# Bulk Modulus (GPa) = 69.60100 76.84513 73.22307
# Shear Modulus (GPa) = 43.59580 47.13712 45.36646
#
# Velocity S-wave (km/s) = 4.11908 4.28312 4.20190
# Velocity P-wave (km/s) = 7.05054 7.37341 7.21378
#
# Compressibility (1/GPa) = 0.01436761
#
# Stress axis : x y z
#
# Youngs Moduli (GPa) = 92.81255 92.81221 150.98890
#
# Poissons Ratio (x) = 0.18273 0.37244
# Poissons Ratio (y) = 0.18273 0.37243
# Poissons Ratio (z) = 0.22894 0.22893
#
# Static dielectric constant tensor:
#      x y z
#    x 1.999760 0.000000 0.000000 
#    y 0.000000 1.999750 0.000000 
#    z 0.000000 0.000000 2.083260 
# 
# From -- ./inp_files/6733.got.cif
#   From: 2010.05.17/outbox.cif.g08.bks.cpg/sg142_4_cif.got.tgz:6733.got - 2010.05.20 13:39:18.
