data_PCOD9574319
_publ_section_title
;
Structure prediction by ZEFSAII (Michael W. Deem and Ramdas Pophale) SiO2 
 PCOD9574319
Probable space group: P 31
;
_chemical_formula_sum "Si O2"
_cell_formula_units_Z 24
_cell_length_a 7.794423
_cell_length_b 7.794423
_cell_length_c 20.964683
_cell_angle_alpha 90.000000
_cell_angle_beta 90.000000
_cell_angle_gamma 120.000000
_cell_volume 1103.028855
_symmetry_space_group_name_H-M "P 31"
_symmetry_group_IT_number 144
_symmetry_cell_setting 'hexagonal'
loop_
_space_group_symop_operation_xyz
x,y,z
-y,x-y,1/3+z
-x+y,-x,2/3+z
loop_
_atom_site_type_symbol
_atom_site_label
_atom_site_fract_x
_atom_site_fract_y
_atom_site_fract_z
Si Si1 0.019944 0.041184 0.632900
Si Si2 0.793618 0.384543 0.237846
Si Si3 0.822025 0.919793 0.761127
Si Si4 0.356813 0.043775 0.201679
Si Si5 0.277259 0.669745 0.467016
Si Si6 0.004630 0.239522 0.862115
Si Si7 0.654313 0.077426 0.035456
Si Si8 0.458737 0.007978 0.778342
O O1 0.211722 0.212359 0.668606
O O2 0.950691 0.158205 0.586164
O O3 0.089473 0.917990 0.589139
O O4 0.871391 0.918528 0.688264
O O5 0.578631 0.197921 0.222075
O O6 0.786761 0.582669 0.217697
O O7 0.862287 0.418772 0.311121
O O8 0.943609 0.385359 0.185416
O O9 0.785241 0.723704 0.798757
O O10 0.649529 0.979948 0.764788
O O11 0.987080 0.096233 0.804086
O O12 0.325075 0.823403 0.189724
O O13 0.320725 0.865419 0.502621
O O14 0.478791 0.700997 0.435399
O O15 0.098956 0.603201 0.415550
O O16 0.814406 0.278444 0.071986
#
# Coordination Sequence:
#
# PCOD9574319 Si02
#       8
#     3   3   3   3   3   3   3   3
#     4  10  20  39  62  90 125 165 212 264 327 397
#     4  10  21  42  62  90 125 169 215 262 334 393
#     4   9  18  37  61  84 120 164 212 263 325 387
#     4  10  21  39  65  86 125 167 208 269 326 388
#     4  11  21  41  60  93 127 168 213 270 336 393
#     4   9  20  37  58  85 126 160 202 272 324 382
#     4  11  21  39  64  92 126 171 212 274 330 400
#     4  10  22  40  62  88 130 166 214 272 322 400
#
# _framework density 21.758271000000001
#
# number of rings (size 3 to 8) (size 9 to 14) (size 15 to 20)
#    0.000    2.000    2.500    3.000    0.000    1.000 
#   13.500    0.000    0.000    0.000    0.000    0.000 
#    0.000    0.000    0.000    0.000    0.000    0.000 
#
# Total GULP energy -133711.978027 kJ/mol
# GULP energy per Si atom -5571.332418 kJ/mol
# Density = 2.170875 g / cm^3
# Si number density = 21.758271 Si / 1000 Ang^3
#
#
#
# Elastic Constant Matrix: (Units=GPa)
#
#
# Indices 1 2 3 4 5 6 
#
# 1 59.3041 3.4990 28.1754 -0.3099 -1.0098 0.0000
# 2 3.4990 59.3041 28.1754 0.3099 1.0098 0.0000
# 3 28.1754 28.1754 109.9007 0.0000 0.0000 0.0000
# 4 -0.3099 0.3099 0.0000 24.3449 0.0000 1.0098
# 5 -1.0098 1.0098 0.0000 0.0000 24.3449 -0.3099
# 6 0.0000 0.0000 0.0000 1.0098 -0.3099 27.9026
#
#
#
# Elastic Compliance Matrix: (Units=1/GPa)
#
#
# Indices 1 2 3 4 5 6 
#
# 1 0.019314 0.001365 -0.005302 0.000228 0.000745 0.000000
# 2 0.001365 0.019314 -0.005302 -0.000228 -0.000745 0.000000
# 3 -0.005302 -0.005302 0.011818 0.000000 0.000000 0.000000
# 4 0.000228 -0.000228 0.000000 0.041144 0.000000 -0.001489
# 5 0.000745 -0.000745 0.000000 0.000000 0.041144 0.000457
# 6 0.000000 0.000000 0.000000 -0.001489 0.000457 0.035898
#
#
# Mechanical properties :
#
#
# Convention : Reuss Voigt Hill
#
# Bulk Modulus (GPa) = 31.27902 38.68984 34.98443
# Shear Modulus (GPa) = 25.28252 26.56240 25.92246
#
# Velocity S-wave (km/s) = 3.41247 3.49778 3.45539
# Velocity P-wave (km/s) = 5.47115 5.84234 5.65979
#
# Compressibility (1/GPa) = 0.03197031
#
# Stress axis : x y z
#
# Youngs Moduli (GPa) = 51.77486 51.77486 84.62001
#
# Poissons Ratio (x) = -0.07069 0.44863
# Poissons Ratio (y) = -0.07069 0.44863
# Poissons Ratio (z) = 0.27450 0.27450
#
# Static dielectric constant tensor:
#      x y z
#    x 1.873230 0.000000 0.000000 
#    y 0.000000 1.873230 0.000000 
#    z 0.000000 0.000000 1.805350 
# 
# From -- ./inp_files/856.got.cif
#   From: 2010.05.17/outbox.cif.g08.bks.cpg/sg144_cif.got.tgz:856.got - 2010.05.20 13:46:34.
