data_PCOD9574424
_publ_section_title
;
Structure prediction by ZEFSAII (Michael W. Deem and Ramdas Pophale) SiO2 
 PCOD9574424
Probable space group: P 31
;
_chemical_formula_sum "Si O2"
_cell_formula_units_Z 12
_cell_length_a 7.880132
_cell_length_b 7.880132
_cell_length_c 8.477559
_cell_angle_alpha 90.000000
_cell_angle_beta 90.000000
_cell_angle_gamma 120.000000
_cell_volume 455.898788
_symmetry_space_group_name_H-M "P 31"
_symmetry_group_IT_number 144
_symmetry_cell_setting 'hexagonal'
loop_
_space_group_symop_operation_xyz
x,y,z
-y,x-y,1/3+z
-x+y,-x,2/3+z
loop_
_atom_site_type_symbol
_atom_site_label
_atom_site_fract_x
_atom_site_fract_y
_atom_site_fract_z
Si Si1 0.252915 0.552131 0.794180
Si Si2 0.946875 0.703158 0.860930
Si Si3 0.246335 0.142794 0.859190
Si Si4 0.623018 0.226924 0.725285
O O1 0.078601 0.600665 0.825176
O O2 0.233825 0.337863 0.820260
O O3 0.371231 0.250237 0.371768
O O4 0.397617 0.687623 0.938670
O O5 0.823994 0.664308 0.700983
O O6 0.052915 0.936357 0.860574
O O7 0.390083 0.114260 0.741148
O O8 0.665575 0.316448 0.550750
#
# Coordination Sequence:
#
# PCOD9574424 Si02
#       4
#     3   3   3   3
#     4  10  24  47  82 118 169 222 282 359 438 514
#     4  11  26  50  80 122 170 219 289 355 432 520
#     4  11  26  49  80 125 162 230 288 348 449 510
#     4  12  26  50  80 115 169 219 281 358 427 520
#
# _framework density 26.321636000000002
#
# number of rings (size 3 to 8) (size 9 to 14) (size 15 to 20)
#    0.000    1.000    2.500    3.000    7.000    4.000 
#    0.000    0.000    0.000    0.000    0.000    0.000 
#    0.000    0.000    0.000    0.000    0.000    0.000 
#
# Total GULP energy -66807.870395 kJ/mol
# GULP energy per Si atom -5567.322533 kJ/mol
# Density = 2.626173 g / cm^3
# Si number density = 26.321636 Si / 1000 Ang^3
#
#
#
# Elastic Constant Matrix: (Units=GPa)
#
#
# Indices 1 2 3 4 5 6 
#
# 1 72.9289 29.8467 50.7794 -4.5744 -2.4764 0.0000
# 2 29.8467 72.9289 50.7794 4.5744 2.4764 0.0000
# 3 50.7794 50.7794 158.5744 0.0000 0.0000 0.0000
# 4 -4.5744 4.5744 0.0000 35.9423 0.0000 2.4764
# 5 -2.4764 2.4764 0.0000 0.0000 35.9423 -4.5744
# 6 0.0000 0.0000 0.0000 2.4764 -4.5744 21.5411
#
#
#
# Elastic Compliance Matrix: (Units=1/GPa)
#
#
# Indices 1 2 3 4 5 6 
#
# 1 0.019143 -0.004909 -0.004558 0.003061 0.001657 0.000000
# 2 -0.004909 0.019143 -0.004558 -0.003061 -0.001657 0.000000
# 3 -0.004558 -0.004558 0.009225 0.000000 0.000000 0.000000
# 4 0.003061 -0.003061 0.000000 0.028830 0.000000 -0.003314
# 5 0.001657 -0.001657 0.000000 0.000000 0.028830 0.006122
# 6 0.000000 0.000000 0.000000 -0.003314 0.006122 0.048104
#
#
# Mechanical properties :
#
#
# Convention : Reuss Voigt Hill
#
# Bulk Modulus (GPa) = 51.38442 63.02703 57.20572
# Shear Modulus (GPa) = 26.62228 30.22025 28.42126
#
# Velocity S-wave (km/s) = 3.18374 3.39206 3.28955
# Velocity P-wave (km/s) = 5.75144 6.27203 6.01737
#
# Compressibility (1/GPa) = 0.01946115
#
# Stress axis : x y z
#
# Youngs Moduli (GPa) = 52.23834 52.23834 108.39619
#
# Poissons Ratio (x) = 0.25644 0.49408
# Poissons Ratio (y) = 0.25644 0.49408
# Poissons Ratio (z) = 0.23811 0.23811
#
# Static dielectric constant tensor:
#      x y z
#    x 2.347770 0.000000 0.000000 
#    y 0.000000 2.347770 0.000000 
#    z 0.000000 0.000000 2.156280 
# 
# From -- ./inp_files/206.got.cif
#   From: 2010.05.17/outbox.cif.g08.bks.cpg/sg144_cif.got.tgz:206.got - 2010.05.20 13:46:34.
