data_PCOD9574964
_publ_section_title
;
Structure prediction by ZEFSAII (Michael W. Deem and Ramdas Pophale) SiO2 
 PCOD9574964
Probable space group: P -3
;
_chemical_formula_sum "Si O2"
_cell_formula_units_Z 38
_cell_length_a 8.417689
_cell_length_b 8.417689
_cell_length_c 28.725805
_cell_angle_alpha 90.000000
_cell_angle_beta 90.000000
_cell_angle_gamma 120.000000
_cell_volume 1762.741350
_symmetry_space_group_name_H-M "P -3"
_symmetry_group_IT_number 147
_symmetry_cell_setting 'hexagonal'
loop_
_space_group_symop_operation_xyz
x,y,z
-y,x-y,z
-x+y,-x,z
-x,-y,-z
y,-x+y,-z
x-y,x,-z
loop_
_atom_site_type_symbol
_atom_site_label
_atom_site_fract_x
_atom_site_fract_y
_atom_site_fract_z
Si Si1 0.688033 0.657108 0.480416
Si Si2 0.000000 0.000000 0.944440
Si Si3 0.308952 0.343207 0.232398
Si Si4 0.684263 0.651537 0.374700
Si Si5 0.192028 0.765877 0.907436
Si Si6 0.966238 0.311578 0.662135
Si Si7 0.963151 0.310758 0.196347
O O1 0.500000 0.500000 0.500000
O O2 0.681522 0.841388 0.483198
O O3 0.721636 0.620493 0.427757
O O4 0.092731 0.875057 0.928495
O O5 0.000000 0.000000 0.000000
O O6 0.281325 0.385639 0.285027
O O7 0.517879 0.473993 0.217268
O O8 0.274154 0.138861 0.229376
O O9 0.175091 0.365461 0.196640
O O10 0.869362 0.729225 0.345376
O O11 0.522610 0.470003 0.352025
O O12 0.619225 0.800749 0.371372
O O13 0.136632 0.550164 0.918053
O O14 0.139906 0.750763 0.852869
#
# Coordination Sequence:
#
# PCOD9574964 Si02
#       7
#     6   2   6   6   6   6   6
#     4  12  25  44  67  93 114 152 205 265 331 406
#     4  12  27  48  81 117 159 213 267 330 408 477
#     4  12  23  39  63  93 132 173 230 272 329 420
#     4  12  25  44  64  87 126 160 205 264 336 410
#     4  10  23  49  72 111 156 202 263 326 390 457
#     4  12  25  42  62  92 127 172 207 260 331 406
#     4  12  23  42  65  97 134 183 230 291 344 402
#
# _framework density 21.55733
#
# number of rings (size 3 to 8) (size 9 to 14) (size 15 to 20)
#    0.316    0.000    1.579    9.000    0.000    0.632 
#    0.947    0.000    0.000    0.000    0.000    0.000 
#    0.000    0.000    0.000    0.000    0.000    0.000 
#
# Total GULP energy -212180.495433 kJ/mol
# GULP energy per Si atom -5583.697248 kJ/mol
# Density = 2.150826 g / cm^3
# Si number density = 21.557330 Si / 1000 Ang^3
#
#
#
# Elastic Constant Matrix: (Units=GPa)
#
#
# Indices 1 2 3 4 5 6 
#
# 1 102.2998 19.4622 22.2407 5.9348 2.4412 0.0000
# 2 19.4622 102.2998 22.2407 -5.9348 -2.4412 0.0000
# 3 22.2407 22.2407 97.4520 0.0000 0.0000 0.0000
# 4 5.9348 -5.9348 0.0000 23.2265 0.0000 -2.4412
# 5 2.4412 -2.4412 0.0000 0.0000 23.2265 5.9348
# 6 0.0000 0.0000 0.0000 -2.4412 5.9348 41.4188
#
#
#
# Elastic Compliance Matrix: (Units=1/GPa)
#
#
# Indices 1 2 3 4 5 6 
#
# 1 0.010786 -0.001826 -0.002045 -0.003223 -0.001326 0.000000
# 2 -0.001826 0.010786 -0.002045 0.003223 0.001326 0.000000
# 3 -0.002045 -0.002045 0.011195 0.000000 0.000000 0.000000
# 4 -0.003223 0.003223 0.000000 0.044980 0.000000 0.002651
# 5 -0.001326 0.001326 0.000000 0.000000 0.044980 -0.006445
# 6 0.000000 0.000000 0.000000 0.002651 -0.006445 0.025223
#
#
# Mechanical properties :
#
#
# Convention : Reuss Voigt Hill
#
# Bulk Modulus (GPa) = 47.76679 47.77097 47.76888
# Shear Modulus (GPa) = 29.98348 33.44825 31.71587
#
# Velocity S-wave (km/s) = 3.73349 3.94330 3.83983
# Velocity P-wave (km/s) = 6.38681 6.55293 6.47040
#
# Compressibility (1/GPa) = 0.02093505
#
# Stress axis : x y z
#
# Youngs Moduli (GPa) = 92.71531 92.71531 89.32714
#
# Poissons Ratio (x) = 0.16929 0.18266
# Poissons Ratio (y) = 0.16929 0.18266
# Poissons Ratio (z) = 0.18959 0.18959
#
# Static dielectric constant tensor:
#      x y z
#    x 1.787190 0.000000 0.000000 
#    y 0.000000 1.787190 0.000000 
#    z 0.000000 0.000000 1.720730 
# 
# From -- ./inp_files/1127.got.cif
#   From: 2010.05.17/outbox.cif.g08.bks.cpg/sg147_cif.got.tgz:1127.got - 2010.05.20 13:49:32.
