data_PCOD9574476
_publ_section_title
;
Structure prediction by ZEFSAII (Michael W. Deem and Ramdas Pophale) SiO2 
 PCOD9574476
Probable space group: P 31
;
_chemical_formula_sum "Si O2"
_cell_formula_units_Z 18
_cell_length_a 12.893887
_cell_length_b 12.893887
_cell_length_c 5.451641
_cell_angle_alpha 90.000000
_cell_angle_beta 90.000000
_cell_angle_gamma 120.000000
_cell_volume 784.920371
_symmetry_space_group_name_H-M "P 31"
_symmetry_group_IT_number 144
_symmetry_cell_setting 'hexagonal'
loop_
_space_group_symop_operation_xyz
x,y,z
-y,x-y,1/3+z
-x+y,-x,2/3+z
loop_
_atom_site_type_symbol
_atom_site_label
_atom_site_fract_x
_atom_site_fract_y
_atom_site_fract_z
Si Si1 0.323311 0.382870 0.505460
Si Si2 0.540852 0.295206 0.876527
Si Si3 0.124676 0.041172 0.028572
Si Si4 0.854760 0.144120 0.969841
Si Si5 0.260081 0.943126 0.303699
Si Si6 0.528910 0.995508 0.354809
O O1 0.309878 0.252322 0.455401
O O2 0.195671 0.368439 0.577016
O O3 0.399746 0.433355 0.757078
O O4 0.384929 0.457811 0.258214
O O5 0.627413 0.386877 0.672342
O O6 0.417367 0.194811 0.763298
O O7 0.514397 0.377593 0.058947
O O8 0.188616 0.139582 0.819818
O O9 0.009719 0.927120 0.914335
O O10 0.225962 0.009562 0.096384
O O11 0.987597 0.230648 0.868614
O O12 0.395141 0.971368 0.323991
#
# Coordination Sequence:
#
# PCOD9574476 Si02
#       6
#     3   3   3   3   3   3
#     4  11  28  51  72 113 156 194 264 331 389 461
#     4  11  25  42  71 110 155 203 254 319 381 480
#     4  12  25  44  72 117 149 199 257 323 408 474
#     4  11  26  42  76 110 153 202 252 327 395 475
#     4  12  27  47  81 103 151 207 263 326 394 485
#     4  11  29  48  74 111 150 207 258 324 393 459
#
# _framework density 22.932265000000001
#
# number of rings (size 3 to 8) (size 9 to 14) (size 15 to 20)
#    0.000    0.667    0.000    6.000   25.667    0.000 
#    3.000    0.000    0.000    0.000    0.000    0.000 
#    0.000    0.000    0.000    0.000    0.000    0.000 
#
# Total GULP energy -100637.776270 kJ/mol
# GULP energy per Si atom -5590.987571 kJ/mol
# Density = 2.288007 g / cm^3
# Si number density = 22.932265 Si / 1000 Ang^3
#
#
#
# Elastic Constant Matrix: (Units=GPa)
#
#
# Indices 1 2 3 4 5 6 
#
# 1 126.3506 48.1576 52.1161 -3.3301 -1.8828 0.0000
# 2 48.1576 126.3506 52.1161 3.3301 1.8828 0.0000
# 3 52.1161 52.1161 116.1483 0.0000 0.0000 0.0000
# 4 -3.3301 3.3301 0.0000 36.9115 0.0000 1.8828
# 5 -1.8828 1.8828 0.0000 0.0000 36.9115 -3.3301
# 6 0.0000 0.0000 0.0000 1.8828 -3.3301 39.0965
#
#
#
# Elastic Compliance Matrix: (Units=1/GPa)
#
#
# Indices 1 2 3 4 5 6 
#
# 1 0.010374 -0.002546 -0.003513 0.001166 0.000659 0.000000
# 2 -0.002546 0.010374 -0.003513 -0.001166 -0.000659 0.000000
# 3 -0.003513 -0.003513 0.011762 0.000000 0.000000 0.000000
# 4 0.001166 -0.001166 0.000000 0.027369 0.000000 -0.001318
# 5 0.000659 -0.000659 0.000000 0.000000 0.027369 0.002331
# 6 0.000000 0.000000 0.000000 -0.001318 0.002331 0.025840
#
#
# Mechanical properties :
#
#
# Convention : Reuss Voigt Hill
#
# Bulk Modulus (GPa) = 74.80399 74.84767 74.82583
# Shear Modulus (GPa) = 36.57991 37.01453 36.79722
#
# Velocity S-wave (km/s) = 3.99824 4.02192 4.01010
# Velocity P-wave (km/s) = 7.34880 7.36731 7.35806
#
# Compressibility (1/GPa) = 0.01336827
#
# Stress axis : x y z
#
# Youngs Moduli (GPa) = 96.39319 96.39319 85.01985
#
# Poissons Ratio (x) = 0.24539 0.29865
# Poissons Ratio (y) = 0.24539 0.29865
# Poissons Ratio (z) = 0.33860 0.33860
#
# Static dielectric constant tensor:
#      x y z
#    x 1.850650 0.000000 0.000000 
#    y 0.000000 1.850650 0.000000 
#    z 0.000000 0.000000 1.974580 
# 
# From -- ./inp_files/115.got.cif
#   From: 2010.05.17/outbox.cif.g08.bks.cpg/sg144_cif.got.tgz:115.got - 2010.05.20 13:46:34.
