data_PCOD9574516
_publ_section_title
;
Structure prediction by ZEFSAII (Michael W. Deem and Ramdas Pophale) SiO2 
 PCOD9574516
Probable space group: P 31
;
_chemical_formula_sum "Si O2"
_cell_formula_units_Z 9
_cell_length_a 4.775279
_cell_length_b 4.775279
_cell_length_c 16.328278
_cell_angle_alpha 90.000000
_cell_angle_beta 90.000000
_cell_angle_gamma 120.000000
_cell_volume 322.454557
_symmetry_space_group_name_H-M "P 31"
_symmetry_group_IT_number 144
_symmetry_cell_setting 'hexagonal'
loop_
_space_group_symop_operation_xyz
x,y,z
-y,x-y,1/3+z
-x+y,-x,2/3+z
loop_
_atom_site_type_symbol
_atom_site_label
_atom_site_fract_x
_atom_site_fract_y
_atom_site_fract_z
Si Si1 0.666666 0.197117 0.111960
Si Si2 0.117037 0.743829 0.226180
Si Si3 0.706540 0.922836 0.331073
O O1 0.528933 0.301943 0.035531
O O2 0.804400 0.439676 0.188389
O O3 0.969323 0.189978 0.073625
O O4 0.364010 0.887322 0.150295
O O5 0.345769 0.709046 0.293833
O O6 0.970055 0.957618 0.263420
#
# Coordination Sequence:
#
# PCOD9574516 Si02
#       3
#     3   3   3
#     4  12  26  48  76 112 152 200 254 314 380 454
#     4  12  26  47  77 112 154 202 256 316 382 454
#     4  12  26  47  77 112 154 202 256 316 382 454
#
# _framework density 27.910913999999998
#
# number of rings (size 3 to 8) (size 9 to 14) (size 15 to 20)
#    0.000    0.000    0.000   10.000    0.000    5.333 
#    0.000    0.000    0.000    0.000    0.000    0.000 
#    0.000    0.000    0.000    0.000    0.000    0.000 
#
# Total GULP energy -50474.422136 kJ/mol
# GULP energy per Si atom -5608.269126 kJ/mol
# Density = 2.784739 g / cm^3
# Si number density = 27.910914 Si / 1000 Ang^3
#
#
#
# Elastic Constant Matrix: (Units=GPa)
#
#
# Indices 1 2 3 4 5 6 
#
# 1 96.0175 24.3217 23.0177 2.7775 0.0002 0.0000
# 2 24.3217 96.0175 23.0177 -2.7775 -0.0002 0.0000
# 3 23.0177 23.0177 153.3299 0.0000 0.0000 0.0000
# 4 2.7775 -2.7775 0.0000 67.4508 0.0000 -0.0002
# 5 0.0002 -0.0002 0.0000 0.0000 67.4508 2.7775
# 6 0.0000 0.0000 0.0000 -0.0002 2.7775 35.8479
#
#
#
# Elastic Compliance Matrix: (Units=1/GPa)
#
#
# Indices 1 2 3 4 5 6 
#
# 1 0.011404 -0.002588 -0.001323 -0.000576 0.000000 0.000000
# 2 -0.002588 0.011404 -0.001323 0.000576 0.000000 0.000000
# 3 -0.001323 -0.001323 0.006919 0.000000 0.000000 0.000000
# 4 -0.000576 0.000576 0.000000 0.014873 0.000000 0.000000
# 5 0.000000 0.000000 0.000000 0.000000 0.014873 -0.001152
# 6 0.000000 0.000000 0.000000 0.000000 -0.001152 0.027985
#
#
# Mechanical properties :
#
#
# Convention : Reuss Voigt Hill
#
# Bulk Modulus (GPa) = 51.92746 54.00880 52.96813
# Shear Modulus (GPa) = 47.91645 52.48376 50.20010
#
# Velocity S-wave (km/s) = 4.14788 4.34107 4.24557
# Velocity P-wave (km/s) = 6.44864 6.67225 6.56140
#
# Compressibility (1/GPa) = 0.01925763
#
# Stress axis : x y z
#
# Youngs Moduli (GPa) = 87.68624 87.68624 144.52450
#
# Poissons Ratio (x) = 0.22695 0.19127
# Poissons Ratio (y) = 0.22695 0.19127
# Poissons Ratio (z) = 0.11605 0.11605
#
# Static dielectric constant tensor:
#      x y z
#    x 2.105670 0.000000 0.000000 
#    y 0.000000 2.105670 0.000000 
#    z 0.000000 0.000000 2.174160 
# 
# From -- ./inp_files/692.got.cif
#   From: 2010.05.17/outbox.cif.g08.bks.cpg/sg144_cif.got.tgz:692.got - 2010.05.20 13:46:34.
