data_PCOD9574786
_publ_section_title
;
Structure prediction by ZEFSAII (Michael W. Deem and Ramdas Pophale) SiO2 
 PCOD9574786
Probable space group: R 3
;
_chemical_formula_sum "Si O2"
_cell_formula_units_Z 33
_cell_length_a 10.625071
_cell_length_b 10.625071
_cell_length_c 13.408190
_cell_angle_alpha 90.000000
_cell_angle_beta 90.000000
_cell_angle_gamma 120.000000
_cell_volume 1310.884622
_symmetry_space_group_name_H-M "R 3"
_symmetry_group_IT_number 146
_symmetry_cell_setting 'hexagonal'
loop_
_space_group_symop_operation_xyz
x,y,z
-y,x-y,z
-x+y,-x,z
2/3+x,1/3+y,1/3+z
2/3-y,1/3+x-y,1/3+z
2/3-x+y,1/3-x,1/3+z
1/3+x,2/3+y,2/3+z
1/3-y,2/3+x-y,2/3+z
1/3-x+y,2/3-x,2/3+z
loop_
_atom_site_type_symbol
_atom_site_label
_atom_site_fract_x
_atom_site_fract_y
_atom_site_fract_z
Si Si1 0.000000 0.000000 0.681896
Si Si2 0.666667 0.333334 0.254147
Si Si3 0.975756 0.716587 0.174428
Si Si4 0.563143 0.648619 0.724827
Si Si5 0.477700 0.473326 0.027181
O O1 0.933937 0.834209 0.650225
O O2 0.000000 0.000000 0.802614
O O3 0.805653 0.329829 0.300224
O O4 0.001680 0.746796 0.291429
O O5 0.833571 0.701749 0.121524
O O6 0.110314 0.861271 0.129365
O O7 0.989081 0.580580 0.136466
O O8 0.690575 0.616569 0.696502
#
# Coordination Sequence:
#
# PCOD9574786 Si02
#       5
#     3   3   9   9   9
#     4  12  27  42  78 106 152 190 255 312 381 448
#     4   9  24  48  78 103 134 214 243 309 387 436
#     4  11  28  48  75 111 146 202 249 315 388 439
#     4  10  25  50  77 101 151 193 262 309 374 463
#     4  12  28  46  76 111 149 199 255 313 382 454
#
# _framework density 25.173836999999999
#
# number of rings (size 3 to 8) (size 9 to 14) (size 15 to 20)
#    0.000    1.091    2.727    0.545   19.091    0.000 
#    1.636    0.000    0.000    0.000    0.000    0.000 
#    0.000    0.000    0.000    0.000    0.000    0.000 
#
# Total GULP energy -61675.863761 kJ/mol
# GULP energy per Si atom -5606.896706 kJ/mol
# Density = 2.511654 g / cm^3
# Si number density = 25.173837 Si / 1000 Ang^3
#
#
#
# Elastic Constant Matrix: (Units=GPa)
#
#
# Indices 1 2 3 4 5 6 
#
# 1 98.4802 11.0190 17.0662 3.6941 3.0963 -0.0001
# 2 11.0190 98.4806 17.0668 -3.6940 -3.0962 0.0000
# 3 17.0662 17.0668 71.0922 0.0002 0.0002 -0.0001
# 4 3.6941 -3.6940 0.0002 32.4597 -0.0001 -3.0963
# 5 3.0963 -3.0962 0.0002 -0.0001 32.4596 3.6940
# 6 -0.0001 0.0000 -0.0001 -3.0963 3.6940 43.7307
#
#
#
# Elastic Compliance Matrix: (Units=1/GPa)
#
#
# Indices 1 2 3 4 5 6 
#
# 1 0.010748 -0.000876 -0.002370 -0.001323 -0.001109 0.000000
# 2 -0.000876 0.010747 -0.002370 0.001323 0.001109 0.000000
# 3 -0.002370 -0.002370 0.015204 0.000000 0.000000 0.000000
# 4 -0.001323 0.001323 0.000000 0.031320 0.000000 0.002218
# 5 -0.001109 0.001109 0.000000 0.000000 0.031320 -0.002646
# 6 0.000000 0.000000 0.000000 0.002218 -0.002646 0.023248
#
#
# Mechanical properties :
#
#
# Convention : Reuss Voigt Hill
#
# Bulk Modulus (GPa) = 39.26566 39.81744 39.54155
# Shear Modulus (GPa) = 35.13517 36.59007 35.86262
#
# Velocity S-wave (km/s) = 3.73996 3.81661 3.77848
# Velocity P-wave (km/s) = 5.85503 5.93914 5.89724
#
# Compressibility (1/GPa) = 0.02546754
#
# Stress axis : x y z
#
# Youngs Moduli (GPa) = 93.04483 93.04498 65.77228
#
# Poissons Ratio (x) = 0.08154 0.15586
# Poissons Ratio (y) = 0.08154 0.15586
# Poissons Ratio (z) = 0.22048 0.22049
#
# Static dielectric constant tensor:
#      x y z
#    x 1.969260 0.000000 0.000000 
#    y 0.000000 1.969260 0.000000 
#    z 0.000000 0.000000 2.003710 
# 
# From -- ./inp_files/1339.got.cif
#   From: 2010.05.17/outbox.cif.g08.bks.cpg/sg146_cif.got.tgz:1339.got - 2010.05.20 13:48:23.
