data_PCOD9574744
_publ_section_title
;
Structure prediction by ZEFSAII (Michael W. Deem and Ramdas Pophale) SiO2 
 PCOD9574744
Probable space group: R 3
;
_chemical_formula_sum "Si O2"
_cell_formula_units_Z 60
_cell_length_a 10.895153
_cell_length_b 10.895153
_cell_length_c 25.939785
_cell_angle_alpha 90.000000
_cell_angle_beta 90.000000
_cell_angle_gamma 120.000000
_cell_volume 2666.635587
_symmetry_space_group_name_H-M "R 3"
_symmetry_group_IT_number 146
_symmetry_cell_setting 'hexagonal'
loop_
_space_group_symop_operation_xyz
x,y,z
-y,x-y,z
-x+y,-x,z
2/3+x,1/3+y,1/3+z
2/3-y,1/3+x-y,1/3+z
2/3-x+y,1/3-x,1/3+z
1/3+x,2/3+y,2/3+z
1/3-y,2/3+x-y,2/3+z
1/3-x+y,2/3-x,2/3+z
loop_
_atom_site_type_symbol
_atom_site_label
_atom_site_fract_x
_atom_site_fract_y
_atom_site_fract_z
Si Si1 0.370379 0.929565 0.907690
Si Si2 0.666667 0.333334 0.838882
Si Si3 0.062675 0.710784 0.942450
Si Si4 0.136993 0.966904 0.123768
Si Si5 0.819003 0.176143 0.859182
Si Si6 0.014887 0.774606 0.696632
Si Si7 0.333334 0.666668 0.293900
Si Si8 0.763248 0.735681 0.758791
O O1 0.218866 0.839828 0.933926
O O2 0.495252 0.927697 0.938879
O O3 0.369026 0.864707 0.851397
O O4 0.394106 0.084320 0.895868
O O5 0.716213 0.219026 0.827569
O O6 0.666668 0.333334 0.900479
O O7 0.961835 0.698939 0.894391
O O8 0.998382 0.713044 0.998285
O O9 0.973363 0.855785 0.112390
O O10 0.262277 0.957518 0.095995
O O11 0.925553 0.175117 0.816439
O O12 0.011632 0.871212 0.650337
O O13 0.861589 0.701001 0.723276
O O14 0.124408 0.891713 0.736350
#
# Coordination Sequence:
#
# PCOD9574744 Si02
#       8
#     9   3   9   9   9   9   3   9
#     4  11  22  40  68 107 134 178 242 296 355 423
#     4  12  18  42  72 111 126 177 243 306 357 412
#     4  12  23  44  73  99 142 192 241 296 359 435
#     4   9  18  39  66  91 131 182 227 285 349 408
#     4  11  24  39  73 103 139 180 248 302 353 431
#     4  10  22  41  65  94 141 192 224 287 359 423
#     4   9  15  36  66  90 126 174 240 264 342 424
#     4  10  24  41  63 103 137 185 237 288 360 428
#
# _framework density 22.500261999999999
#
# number of rings (size 3 to 8) (size 9 to 14) (size 15 to 20)
#    0.300    1.200    4.500    0.600    6.300    0.000 
#    3.600    0.000    0.000    0.000    0.000    0.000 
#    0.000    0.000    0.000    0.000    0.000    0.000 
#
# Total GULP energy -111654.208599 kJ/mol
# GULP energy per Si atom -5582.710430 kJ/mol
# Density = 2.244905 g / cm^3
# Si number density = 22.500262 Si / 1000 Ang^3
#
#
#
# Elastic Constant Matrix: (Units=GPa)
#
#
# Indices 1 2 3 4 5 6 
#
# 1 74.9561 24.2249 32.2071 -10.8242 -1.8612 0.0003
# 2 24.2249 74.9565 32.2071 10.8242 1.8612 -0.0001
# 3 32.2071 32.2071 85.3762 0.0001 0.0001 0.0002
# 4 -10.8242 10.8242 0.0001 35.9108 0.0001 1.8612
# 5 -1.8612 1.8612 0.0001 0.0001 35.9106 -10.8240
# 6 0.0003 -0.0001 0.0002 1.8612 -10.8240 25.3652
#
#
#
# Elastic Compliance Matrix: (Units=1/GPa)
#
#
# Indices 1 2 3 4 5 6 
#
# 1 0.018037 -0.004683 -0.005038 0.006848 0.001177 0.000000
# 2 -0.004683 0.018037 -0.005038 -0.006848 -0.001177 0.000000
# 3 -0.005038 -0.005038 0.015514 0.000000 0.000000 0.000000
# 4 0.006848 -0.006848 0.000000 0.032097 0.000000 -0.002355
# 5 0.001177 -0.001177 0.000000 0.000000 0.032097 0.013697
# 6 0.000000 0.000000 0.000000 -0.002355 0.013697 0.045442
#
#
# Mechanical properties :
#
#
# Convention : Reuss Voigt Hill
#
# Bulk Modulus (GPa) = 45.30748 45.84078 45.57413
# Shear Modulus (GPa) = 25.23985 29.21396 27.22691
#
# Velocity S-wave (km/s) = 3.35290 3.60722 3.48238
# Velocity P-wave (km/s) = 5.93038 6.14549 6.03889
#
# Compressibility (1/GPa) = 0.02207141
#
# Stress axis : x y z
#
# Youngs Moduli (GPa) = 55.44007 55.44050 64.45893
#
# Poissons Ratio (x) = 0.25963 0.32473
# Poissons Ratio (y) = 0.25963 0.32473
# Poissons Ratio (z) = 0.27930 0.27930
#
# Static dielectric constant tensor:
#      x y z
#    x 1.864680 0.000000 0.000000 
#    y 0.000000 1.864680 0.000000 
#    z 0.000000 0.000000 1.846610 
# 
# From -- ./inp_files/2356.got.cif
#   From: 2010.05.17/outbox.cif.g08.bks.cpg/sg146_cif.got.tgz:2356.got - 2010.05.20 13:48:23.
