data_PCOD9574112
_publ_section_title
;
Structure prediction by ZEFSAII (Michael W. Deem and Ramdas Pophale) SiO2 
 PCOD9574112
Probable space group: I 41/A C D
;
_chemical_formula_sum "Si O2"
_cell_formula_units_Z 144
_cell_length_a 20.959184
_cell_length_b 20.959184
_cell_length_c 15.752848
_cell_angle_alpha 90.000000
_cell_angle_beta 90.000000
_cell_angle_gamma 90.000000
_cell_volume 6920.027545
_symmetry_space_group_name_H-M "I 41/A C D"
_symmetry_group_IT_number 142
_space_group.IT_coordinate_system_code '2'
_symmetry_cell_setting 'tetragonal'
loop_
_space_group_symop_operation_xyz
x,y,z
1/4-y,3/4+x,1/4+z
-x,1/2-y,z
1/4+y,1/4-x,3/4+z
x,-y,1/2-z
1/2-x,y,-z
3/4+y,1/4+x,1/4-z
1/4-y,1/4-x,1/4-z
-x,-y,-z
3/4+y,1/4-x,3/4-z
x,1/2+y,-z
3/4-y,3/4+x,1/4-z
-x,y,1/2+z
1/2+x,-y,z
1/4-y,3/4-x,3/4+z
3/4+y,3/4+x,3/4+z
1/2+x,1/2+y,1/2+z
3/4-y,1/4+x,3/4+z
1/2-x,-y,1/2+z
3/4+y,3/4-x,1/4+z
1/2+x,1/2-y,-z
-x,1/2+y,1/2-z
1/4+y,3/4+x,3/4-z
3/4-y,3/4-x,3/4-z
1/2-x,1/2-y,1/2-z
1/4+y,3/4-x,1/4-z
1/2+x,y,1/2-z
1/4-y,1/4+x,3/4-z
1/2-x,1/2+y,z
x,1/2-y,1/2+z
3/4-y,1/4-x,1/4+z
1/4+y,1/4+x,1/4+z
loop_
_atom_site_type_symbol
_atom_site_label
_atom_site_fract_x
_atom_site_fract_y
_atom_site_fract_z
Si Si1 0.707534 0.736453 0.578792
Si Si2 0.955933 0.579021 0.064228
Si Si3 0.116754 0.366754 0.625000
Si Si4 0.102965 0.894286 0.561259
Si Si5 0.886349 0.961971 0.392495
O O1 0.750000 0.713003 0.500000
O O2 0.757001 0.722230 0.654762
O O3 0.640712 0.703232 0.598983
O O4 0.695874 0.811326 0.570913
O O5 0.912373 0.615409 0.133959
O O6 0.025579 0.612181 0.055596
O O7 0.916832 0.569431 0.977541
O O8 0.130032 0.400159 0.534935
O O9 0.117005 0.962278 0.602619
O O10 0.819356 0.930645 0.375000
#
# Coordination Sequence:
#
# PCOD9574112 Si02
#       5
#    32  32  16  32  32
#     4  11  22  41  69  94 130 179 218 274 341 391
#     4  11  23  43  66  94 134 178 215 274 332 397
#     4  12  20  42  71 100 120 172 232 270 322 399
#     4  11  24  43  70  96 133 172 223 271 336 395
#     4  11  25  43  64  96 134 173 227 273 331 405
#
# _framework density 20.809166999999999
#
# number of rings (size 3 to 8) (size 9 to 14) (size 15 to 20)
#    0.000    0.889    6.667    1.333    6.222    0.444 
#    2.000    2.778    0.000    0.000    0.000    0.000 
#    0.000    0.000    0.000    0.000    0.000    0.000 
#
# Total GULP energy -401251.325253 kJ/mol
# GULP energy per Si atom -5572.935073 kJ/mol
# Density = 2.076180 g / cm^3
# Si number density = 20.809167 Si / 1000 Ang^3
#
#
#
# Elastic Constant Matrix: (Units=GPa)
#
#
# Indices 1 2 3 4 5 6 
#
# 1 65.5812 68.4916 18.6506 0.0000 0.0000 0.0000
# 2 68.4916 65.5745 18.6489 0.0000 0.0000 0.0000
# 3 18.6506 18.6489 77.7551 0.0000 0.0000 0.0000
# 4 0.0000 0.0000 0.0000 22.7978 0.0000 0.0000
# 5 0.0000 0.0000 0.0000 0.0000 22.8003 0.0000
# 6 0.0000 0.0000 0.0000 0.0000 0.0000 41.4664
#
#
#
# Elastic Compliance Matrix: (Units=1/GPa)
#
#
# Indices 1 2 3 4 5 6 
#
# 1 -0.167595 0.175595 -0.001915 0.000000 0.000000 0.000000
# 2 0.175595 -0.167611 -0.001919 0.000000 0.000000 0.000000
# 3 -0.001915 -0.001919 0.013780 0.000000 0.000000 0.000000
# 4 0.000000 0.000000 0.000000 0.043864 0.000000 0.000000
# 5 0.000000 0.000000 0.000000 0.000000 0.043859 0.000000
# 6 0.000000 0.000000 0.000000 0.000000 0.000000 0.024116
#
#
# Mechanical properties :
#
#
# Convention : Reuss Voigt Hill
#
# Bulk Modulus (GPa) = 45.25503 46.72144 45.98824
# Shear Modulus (GPa) = -9.16184 24.28754 7.56285
#
# Velocity S-wave (km/s) = -2.10056 3.42007 1.90847
# Velocity P-wave (km/s) = 3.98895 6.17227 5.19657
#
# Compressibility (1/GPa) = 0.02209699
#
# Stress axis : x y z
#
# Youngs Moduli (GPa) = -5.96678 -5.96621 72.56657
#
# Poissons Ratio (x) = 1.04763 0.13898
# Poissons Ratio (y) = 1.04774 0.13923
# Poissons Ratio (z) = -0.01143 -0.01145
#
# Static dielectric constant tensor:
#      x y z
#    x 1.744130 0.000000 0.000000 
#    y 0.000000 1.744130 0.000000 
#    z 0.000000 0.000000 1.839390 
# 
# From -- ./inp_files/7258.got.cif
#   From: 2010.05.17/outbox.cif.g08.bks.cpg/sg142_4_cif.got.tgz:7258.got - 2010.05.20 13:39:18.
