data_PCOD9574419
_publ_section_title
;
Structure prediction by ZEFSAII (Michael W. Deem and Ramdas Pophale) SiO2 
 PCOD9574419
Probable space group: P 31
;
_chemical_formula_sum "Si O2"
_cell_formula_units_Z 15
_cell_length_a 11.237842
_cell_length_b 11.237842
_cell_length_c 6.066219
_cell_angle_alpha 90.000000
_cell_angle_beta 90.000000
_cell_angle_gamma 120.000000
_cell_volume 663.459719
_symmetry_space_group_name_H-M "P 31"
_symmetry_group_IT_number 144
_symmetry_cell_setting 'hexagonal'
loop_
_space_group_symop_operation_xyz
x,y,z
-y,x-y,1/3+z
-x+y,-x,2/3+z
loop_
_atom_site_type_symbol
_atom_site_label
_atom_site_fract_x
_atom_site_fract_y
_atom_site_fract_z
Si Si1 0.183694 0.466454 0.222730
Si Si2 0.080936 0.592537 0.596170
Si Si3 0.925872 0.747603 0.441015
Si Si4 0.149639 0.949428 0.147788
Si Si5 0.666667 0.618153 0.185259
O O1 0.143610 0.550160 0.392067
O O2 0.330048 0.532900 0.106404
O O3 0.165394 0.333331 0.351923
O O4 0.069413 0.407250 0.033559
O O5 0.026752 0.693418 0.518590
O O6 0.955858 0.458116 0.714021
O O7 0.883496 0.810276 0.645121
O O8 0.791450 0.622525 0.323163
O O9 0.003285 0.869520 0.264115
O O10 0.263920 0.004503 0.336959
#
# Coordination Sequence:
#
# PCOD9574419 Si02
#       5
#     3   3   3   3   3
#     4  10  24  46  70 109 141 187 239 294 361 429
#     4  11  25  47  74 105 147 187 236 303 359 431
#     4  11  25  47  74 105 147 187 236 303 359 431
#     4  10  24  46  70 109 141 187 239 294 361 429
#     4  10  24  44  72 106 140 190 244 288 360 430
#
# _framework density 22.608761000000001
#
# number of rings (size 3 to 8) (size 9 to 14) (size 15 to 20)
#    0.000    1.600    2.000    0.000    5.600    3.200 
#    7.200    0.000   44.000    0.000    0.000    0.000 
#    0.000    0.000    0.000    0.000    0.000    0.000 
#
# Total GULP energy -83861.721226 kJ/mol
# GULP energy per Si atom -5590.781415 kJ/mol
# Density = 2.255730 g / cm^3
# Si number density = 22.608761 Si / 1000 Ang^3
#
#
#
# Elastic Constant Matrix: (Units=GPa)
#
#
# Indices 1 2 3 4 5 6 
#
# 1 93.4918 41.5427 59.3086 -3.6176 0.0001 0.0000
# 2 41.5427 93.4918 59.3086 3.6176 -0.0001 0.0000
# 3 59.3086 59.3086 157.2862 0.0000 0.0000 0.0000
# 4 -3.6176 3.6176 0.0000 42.0776 0.0000 -0.0001
# 5 0.0001 -0.0001 0.0000 0.0000 42.0776 -3.6176
# 6 0.0000 0.0000 0.0000 -0.0001 -3.6176 25.9746
#
#
#
# Elastic Compliance Matrix: (Units=1/GPa)
#
#
# Indices 1 2 3 4 5 6 
#
# 1 0.015278 -0.004205 -0.004175 0.001675 0.000000 0.000000
# 2 -0.004205 0.015278 -0.004175 -0.001675 0.000000 0.000000
# 3 -0.004175 -0.004175 0.009507 0.000000 0.000000 0.000000
# 4 0.001675 -0.001675 0.000000 0.024054 0.000000 0.000000
# 5 0.000000 0.000000 0.000000 0.000000 0.024054 0.003350
# 6 0.000000 0.000000 0.000000 0.000000 0.003350 0.038966
#
#
# Mechanical properties :
#
#
# Convention : Reuss Voigt Hill
#
# Bulk Modulus (GPa) = 66.88272 73.84331 70.36302
# Shear Modulus (GPa) = 31.80026 34.29994 33.05010
#
# Velocity S-wave (km/s) = 3.75446 3.89923 3.82753
# Velocity P-wave (km/s) = 6.96000 7.28041 7.12200
#
# Compressibility (1/GPa) = 0.01495155
#
# Stress axis : x y z
#
# Youngs Moduli (GPa) = 65.45308 65.45308 105.18821
#
# Poissons Ratio (x) = 0.27522 0.43921
# Poissons Ratio (y) = 0.27522 0.43921
# Poissons Ratio (z) = 0.27330 0.27330
#
# Static dielectric constant tensor:
#      x y z
#    x 1.847930 0.000000 0.000000 
#    y 0.000000 1.847930 0.000000 
#    z 0.000000 0.000000 1.854530 
# 
# From -- ./inp_files/77.got.cif
#   From: 2010.05.17/outbox.cif.g08.bks.cpg/sg144_cif.got.tgz:77.got - 2010.05.20 13:46:34.
