data_PCOD9574351
_publ_section_title
;
Structure prediction by ZEFSAII (Michael W. Deem and Ramdas Pophale) SiO2 
 PCOD9574351
Probable space group: P 31
;
_chemical_formula_sum "Si O2"
_cell_formula_units_Z 24
_cell_length_a 8.512709
_cell_length_b 8.512709
_cell_length_c 14.332463
_cell_angle_alpha 90.000000
_cell_angle_beta 90.000000
_cell_angle_gamma 120.000000
_cell_volume 899.470732
_symmetry_space_group_name_H-M "P 31"
_symmetry_group_IT_number 144
_symmetry_cell_setting 'hexagonal'
loop_
_space_group_symop_operation_xyz
x,y,z
-y,x-y,1/3+z
-x+y,-x,2/3+z
loop_
_atom_site_type_symbol
_atom_site_label
_atom_site_fract_x
_atom_site_fract_y
_atom_site_fract_z
Si Si1 0.139255 0.610049 0.718360
Si Si2 0.735019 0.888222 0.062639
Si Si3 0.540911 0.410631 0.236346
Si Si4 0.913858 0.754517 0.214314
Si Si5 0.877266 0.722366 0.719403
Si Si6 0.459502 0.946464 0.796852
Si Si7 0.165033 0.261200 0.246244
Si Si8 0.643823 0.189167 0.122241
O O1 0.144126 0.435344 0.687207
O O2 0.009198 0.531024 0.812250
O O3 0.028995 0.691997 0.667820
O O4 0.343337 0.776365 0.728292
O O5 0.839295 0.837844 0.138580
O O6 0.186784 0.155779 0.154374
O O7 0.664014 0.013927 0.110233
O O8 0.733118 0.580816 0.254146
O O9 0.582077 0.248244 0.216838
O O10 0.360298 0.335788 0.296241
O O11 0.009011 0.861805 0.306845
O O12 0.038793 0.679307 0.171566
O O13 0.828409 0.843330 0.657243
O O14 0.693487 0.526582 0.728416
O O15 0.292539 0.884823 0.870784
O O16 0.517133 0.154963 0.771217
#
# Coordination Sequence:
#
# PCOD9574351 Si02
#       8
#     3   3   3   3   3   3   3   3
#     4   8  18  38  68 103 146 193 249 313 383 456
#     4  11  22  42  71 112 155 205 260 321 388 463
#     4   7  16  37  68 106 144 190 248 317 384 453
#     4  10  21  41  72 109 156 203 261 320 386 462
#     4   9  18  37  71 116 155 198 251 316 386 460
#     4   9  18  40  69 104 147 193 247 326 395 460
#     4   9  17  35  72 113 152 197 253 315 390 463
#     4   9  18  36  67 105 147 189 243 312 394 459
#
# _framework density 26.682359999999999
#
# number of rings (size 3 to 8) (size 9 to 14) (size 15 to 20)
#    0.000    3.500    0.000    1.500    0.000    0.000 
#    0.000   16.250    0.000   63.000    0.000   22.750 
#    0.000    0.000    0.000    0.000    0.000    0.000 
#
# Total GULP energy -134067.411823 kJ/mol
# GULP energy per Si atom -5586.142159 kJ/mol
# Density = 2.662163 g / cm^3
# Si number density = 26.682360 Si / 1000 Ang^3
#
#
#
# Elastic Constant Matrix: (Units=GPa)
#
#
# Indices 1 2 3 4 5 6 
#
# 1 181.1369 74.8370 51.3053 -0.4230 0.3901 0.0000
# 2 74.8370 181.1369 51.3053 0.4230 -0.3901 0.0000
# 3 51.3053 51.3053 107.1719 0.0000 0.0000 0.0000
# 4 -0.4230 0.4230 0.0000 35.5921 0.0000 -0.3901
# 5 0.3901 -0.3901 0.0000 0.0000 35.5921 -0.4230
# 6 0.0000 0.0000 0.0000 -0.3901 -0.4230 53.1500
#
#
#
# Elastic Compliance Matrix: (Units=1/GPa)
#
#
# Indices 1 2 3 4 5 6 
#
# 1 0.007122 -0.002287 -0.002314 0.000112 -0.000103 0.000000
# 2 -0.002287 0.007122 -0.002314 -0.000112 0.000103 0.000000
# 3 -0.002314 -0.002314 0.011547 0.000000 0.000000 0.000000
# 4 0.000112 -0.000112 0.000000 0.028101 0.000000 0.000206
# 5 -0.000103 0.000103 0.000000 0.000000 0.028101 0.000224
# 6 0.000000 0.000000 0.000000 0.000206 0.000224 0.018818
#
#
# Mechanical properties :
#
#
# Convention : Reuss Voigt Hill
#
# Bulk Modulus (GPa) = 83.62515 91.59341 87.60928
# Shear Modulus (GPa) = 42.14861 44.33339 43.24100
#
# Velocity S-wave (km/s) = 3.97878 4.08060 4.03001
# Velocity P-wave (km/s) = 7.24684 7.52354 7.38648
#
# Compressibility (1/GPa) = 0.01195813
#
# Stress axis : x y z
#
# Youngs Moduli (GPa) = 140.41628 140.41628 86.60546
#
# Poissons Ratio (x) = 0.32118 0.20043
# Poissons Ratio (y) = 0.32118 0.20043
# Poissons Ratio (z) = 0.32497 0.32497
#
# Static dielectric constant tensor:
#      x y z
#    x 2.128190 0.000000 0.000000 
#    y 0.000000 2.128190 0.000000 
#    z 0.000000 0.000000 2.359820 
# 
# From -- ./inp_files/1011.got.cif
#   From: 2010.05.17/outbox.cif.g08.bks.cpg/sg144_cif.got.tgz:1011.got - 2010.05.20 13:46:34.
