data_PCOD9574019
_publ_section_title
;
Structure prediction by ZEFSAII (Michael W. Deem and Ramdas Pophale) SiO2 
 PCOD9574019
Probable space group: I 41/A C D
;
_chemical_formula_sum "Si O2"
_cell_formula_units_Z 80
_cell_length_a 10.250067
_cell_length_b 10.250067
_cell_length_c 30.949525
_cell_angle_alpha 90.000000
_cell_angle_beta 90.000000
_cell_angle_gamma 90.000000
_cell_volume 3251.676980
_symmetry_space_group_name_H-M "I 41/A C D"
_symmetry_group_IT_number 142
_space_group.IT_coordinate_system_code '2'
_symmetry_cell_setting 'tetragonal'
loop_
_space_group_symop_operation_xyz
x,y,z
1/4-y,3/4+x,1/4+z
-x,1/2-y,z
1/4+y,1/4-x,3/4+z
x,-y,1/2-z
1/2-x,y,-z
3/4+y,1/4+x,1/4-z
1/4-y,1/4-x,1/4-z
-x,-y,-z
3/4+y,1/4-x,3/4-z
x,1/2+y,-z
3/4-y,3/4+x,1/4-z
-x,y,1/2+z
1/2+x,-y,z
1/4-y,3/4-x,3/4+z
3/4+y,3/4+x,3/4+z
1/2+x,1/2+y,1/2+z
3/4-y,1/4+x,3/4+z
1/2-x,-y,1/2+z
3/4+y,3/4-x,1/4+z
1/2+x,1/2-y,-z
-x,1/2+y,1/2-z
1/4+y,3/4+x,3/4-z
3/4-y,3/4-x,3/4-z
1/2-x,1/2-y,1/2-z
1/4+y,3/4-x,1/4-z
1/2+x,y,1/2-z
1/4-y,1/4+x,3/4-z
1/2-x,1/2+y,z
x,1/2-y,1/2+z
3/4-y,1/4-x,1/4+z
1/4+y,1/4+x,1/4+z
loop_
_atom_site_type_symbol
_atom_site_label
_atom_site_fract_x
_atom_site_fract_y
_atom_site_fract_z
Si Si1 0.522441 0.000000 0.750000
Si Si2 0.681472 0.530451 0.075566
Si Si3 0.077959 0.625885 0.945320
O O1 0.617249 0.996271 0.708477
O O2 0.427733 0.877100 0.741926
O O3 0.675418 0.574583 0.125000
O O4 0.532651 0.516338 0.058790
O O5 0.784608 0.412267 0.075388
O O6 0.000000 0.750000 0.926583
#
# Coordination Sequence:
#
# PCOD9574019 Si02
#       3
#    16  32  32
#     4  10  24  44  76 114 150 212 270 344 416 498
#     4  11  26  45  80 118 159 224 281 346 424 507
#     4  10  25  46  78 108 158 211 274 344 413 497
#
# _framework density 24.602689999999999
#
# number of rings (size 3 to 8) (size 9 to 14) (size 15 to 20)
#    0.000    1.600    0.000    1.200   11.200   19.200 
#    0.000    6.000    0.000    0.000    0.000    0.000 
#    0.000    0.000    0.000    0.000    0.000    0.000 
#
# Total GULP energy -222789.431618 kJ/mol
# GULP energy per Si atom -5569.735790 kJ/mol
# Density = 2.454669 g / cm^3
# Si number density = 24.602690 Si / 1000 Ang^3
#
#
#
# Elastic Constant Matrix: (Units=GPa)
#
#
# Indices 1 2 3 4 5 6 
#
# 1 110.2483 22.8543 30.0125 0.0000 0.0000 0.0000
# 2 22.8543 110.2478 30.0124 0.0000 0.0000 0.0000
# 3 30.0125 30.0124 162.0203 0.0000 0.0000 0.0000
# 4 0.0000 0.0000 0.0000 4.5657 0.0000 0.0000
# 5 0.0000 0.0000 0.0000 0.0000 4.5780 0.0000
# 6 0.0000 0.0000 0.0000 0.0000 0.0000 77.4701
#
#
#
# Elastic Compliance Matrix: (Units=1/GPa)
#
#
# Indices 1 2 3 4 5 6 
#
# 1 0.009820 -0.001622 -0.001519 0.000000 0.000000 0.000000
# 2 -0.001622 0.009820 -0.001519 0.000000 0.000000 0.000000
# 3 -0.001519 -0.001519 0.006735 0.000000 0.000000 0.000000
# 4 0.000000 0.000000 0.000000 0.219023 0.000000 0.000000
# 5 0.000000 0.000000 0.000000 0.000000 0.218434 0.000000
# 6 0.000000 0.000000 0.000000 0.000000 0.000000 0.012908
#
#
# Mechanical properties :
#
#
# Convention : Reuss Voigt Hill
#
# Bulk Modulus (GPa) = 58.63006 60.91943 59.77474
# Shear Modulus (GPa) = 10.16788 37.29858 23.73323
#
# Velocity S-wave (km/s) = 2.03514 3.89786 3.10927
# Velocity P-wave (km/s) = 5.42263 6.71362 6.10236
#
# Compressibility (1/GPa) = 0.01705610
#
# Stress axis : x y z
#
# Youngs Moduli (GPa) = 101.83160 101.83123 148.48560
#
# Poissons Ratio (x) = 0.16520 0.22548
# Poissons Ratio (y) = 0.16520 0.22548
# Poissons Ratio (z) = 0.15464 0.15464
#
# Static dielectric constant tensor:
#      x y z
#    x 2.092800 0.000000 0.000000 
#    y 0.000000 2.092790 0.000000 
#    z 0.000000 0.000000 1.992220 
# 
# From -- ./inp_files/11854.got.cif
#   From: 2010.05.17/outbox.cif.g08.bks.cpg/sg142_6_cif.got.tgz:11854.got - 2010.05.20 13:39:18.
