data_PCOD9574807
_publ_section_title
;
Structure prediction by ZEFSAII (Michael W. Deem and Ramdas Pophale) SiO2 
 PCOD9574807
Probable space group: R 3
;
_chemical_formula_sum "Si O2"
_cell_formula_units_Z 42
_cell_length_a 15.107720
_cell_length_b 15.107720
_cell_length_c 9.666114
_cell_angle_alpha 90.000000
_cell_angle_beta 90.000000
_cell_angle_gamma 120.000000
_cell_volume 1910.646746
_symmetry_space_group_name_H-M "R 3"
_symmetry_group_IT_number 146
_symmetry_cell_setting 'hexagonal'
loop_
_space_group_symop_operation_xyz
x,y,z
-y,x-y,z
-x+y,-x,z
2/3+x,1/3+y,1/3+z
2/3-y,1/3+x-y,1/3+z
2/3-x+y,1/3-x,1/3+z
1/3+x,2/3+y,2/3+z
1/3-y,2/3+x-y,2/3+z
1/3-x+y,2/3-x,2/3+z
loop_
_atom_site_type_symbol
_atom_site_label
_atom_site_fract_x
_atom_site_fract_y
_atom_site_fract_z
Si Si1 0.112048 0.625966 0.413440
Si Si2 0.146378 0.921147 0.026720
Si Si3 0.666667 0.333334 0.049851
Si Si4 0.847243 0.173905 0.644813
Si Si5 0.229065 0.926250 0.591606
Si Si6 0.666668 0.333334 0.382512
O O1 0.108837 0.595981 0.574368
O O2 0.220658 0.646028 0.350068
O O3 0.111112 0.726996 0.369104
O O4 0.024047 0.524422 0.343696
O O5 0.157225 0.863033 0.158682
O O6 0.094456 0.984482 0.086321
O O7 0.256361 0.999038 0.954434
O O8 0.666668 0.333334 0.216492
O O9 0.853364 0.246762 0.769592
O O10 0.967457 0.210440 0.643728
#
# Coordination Sequence:
#
# PCOD9574807 Si02
#       6
#     9   9   3   9   9   3
#     4  11  22  43  71  99 144 190 241 296 367 430
#     4  11  22  45  76 100 140 190 249 301 360 437
#     4   9  15  36  70  98 124 183 238 287 340 429
#     4  12  24  43  71 111 142 189 247 299 362 436
#     4  12  22  43  72 107 143 190 241 299 365 435
#     4   9  21  42  70  95 133 186 238 284 364 429
#
# _framework density 21.982085000000001
#
# number of rings (size 3 to 8) (size 9 to 14) (size 15 to 20)
#    0.000    0.857    6.429    2.571    0.000    0.000 
#   11.571    0.000    0.000    0.000    0.000    0.000 
#    0.000    0.000    0.000    0.000    0.000    0.000 
#
# Total GULP energy -78029.588539 kJ/mol
# GULP energy per Si atom -5573.542038 kJ/mol
# Density = 2.193205 g / cm^3
# Si number density = 21.982085 Si / 1000 Ang^3
#
#
#
# Elastic Constant Matrix: (Units=GPa)
#
#
# Indices 1 2 3 4 5 6 
#
# 1 68.6420 14.6150 28.2271 0.3155 -1.5654 -0.0001
# 2 14.6150 68.6416 28.2262 -0.3155 1.5654 -0.0001
# 3 28.2271 28.2262 127.3794 0.0001 -0.0003 0.0001
# 4 0.3155 -0.3155 0.0001 29.0521 0.0002 1.5648
# 5 -1.5654 1.5654 -0.0003 0.0002 29.0526 0.3158
# 6 -0.0001 -0.0001 0.0001 1.5648 0.3158 27.0128
#
#
#
# Elastic Compliance Matrix: (Units=1/GPa)
#
#
# Indices 1 2 3 4 5 6 
#
# 1 0.016352 -0.002217 -0.003132 -0.000202 0.001001 0.000000
# 2 -0.002217 0.016352 -0.003132 0.000202 -0.001001 0.000000
# 3 -0.003132 -0.003132 0.009239 0.000000 0.000000 0.000000
# 4 -0.000202 0.000202 0.000000 0.034533 0.000000 -0.002000
# 5 0.001001 -0.001001 0.000000 0.000000 0.034533 -0.000404
# 6 0.000000 0.000000 0.000000 -0.002000 -0.000404 0.037140
#
#
# Mechanical properties :
#
#
# Convention : Reuss Voigt Hill
#
# Bulk Modulus (GPa) = 40.03268 45.19995 42.61631
# Shear Modulus (GPa) = 28.82855 29.92981 29.37918
#
# Velocity S-wave (km/s) = 3.62533 3.69393 3.65979
# Velocity P-wave (km/s) = 5.98123 6.22899 6.10636
#
# Compressibility (1/GPa) = 0.02497959
#
# Stress axis : x y z
#
# Youngs Moduli (GPa) = 61.15364 61.15365 108.24003
#
# Poissons Ratio (x) = 0.13560 0.33904
# Poissons Ratio (y) = 0.13560 0.33902
# Poissons Ratio (z) = 0.19155 0.19154
#
# Static dielectric constant tensor:
#      x y z
#    x 1.871480 0.000000 0.000000 
#    y 0.000000 1.871480 0.000000 
#    z 0.000000 0.000000 1.803350 
# 
# From -- ./inp_files/645.got.cif
#   From: 2010.05.17/outbox.cif.g08.bks.cpg/sg146_cif.got.tgz:645.got - 2010.05.20 13:48:23.
