data_PCOD9574730
_publ_section_title
;
Structure prediction by ZEFSAII (Michael W. Deem and Ramdas Pophale) SiO2 
 PCOD9574730
Probable space group: R 3
;
_chemical_formula_sum "Si O2"
_cell_formula_units_Z 54
_cell_length_a 15.639396
_cell_length_b 15.639396
_cell_length_c 9.849751
_cell_angle_alpha 90.000000
_cell_angle_beta 90.000000
_cell_angle_gamma 120.000000
_cell_volume 2086.391652
_symmetry_space_group_name_H-M "R 3"
_symmetry_group_IT_number 146
_symmetry_cell_setting 'hexagonal'
loop_
_space_group_symop_operation_xyz
x,y,z
-y,x-y,z
-x+y,-x,z
2/3+x,1/3+y,1/3+z
2/3-y,1/3+x-y,1/3+z
2/3-x+y,1/3-x,1/3+z
1/3+x,2/3+y,2/3+z
1/3-y,2/3+x-y,2/3+z
1/3-x+y,2/3-x,2/3+z
loop_
_atom_site_type_symbol
_atom_site_label
_atom_site_fract_x
_atom_site_fract_y
_atom_site_fract_z
Si Si1 0.816757 0.784780 0.477240
Si Si2 0.543401 0.968805 0.481704
Si Si3 0.544009 0.255390 0.572475
Si Si4 0.101646 0.783565 0.229421
Si Si5 0.004486 0.392772 0.372997
Si Si6 0.281537 0.174026 0.870952
O O1 0.859016 0.886404 0.396412
O O2 0.894745 0.746220 0.483370
O O3 0.714301 0.700065 0.409330
O O4 0.777160 0.784013 0.628659
O O5 0.653115 0.046857 0.532580
O O6 0.458596 0.997021 0.495283
O O7 0.552703 0.973399 0.317461
O O8 0.526506 0.865245 0.537594
O O9 0.628231 0.229017 0.536752
O O10 0.435429 0.209288 0.516161
O O11 0.128465 0.789300 0.388610
O O12 0.931481 0.404611 0.264139
#
# Coordination Sequence:
#
# PCOD9574730 Si02
#       6
#     9   9   9   9   9   9
#     4  12  23  44  68 102 141 198 245 299 373 436
#     4  10  23  38  71 102 138 183 241 299 362 435
#     4  10  25  39  65  99 141 178 244 305 360 428
#     4  12  23  41  70  99 142 194 239 301 375 437
#     4  10  23  40  65 105 141 187 248 304 354 447
#     4  10  21  42  65 107 143 186 245 302 354 441
#
# _framework density 25.882006000000001
#
# number of rings (size 3 to 8) (size 9 to 14) (size 15 to 20)
#    1.333    0.000    5.000    0.000    4.667    2.667 
#    0.000    0.000    0.000    0.000    0.000    0.000 
#    0.000    0.000    0.000    0.000    0.000    0.000 
#
# Total GULP energy -100248.893543 kJ/mol
# GULP energy per Si atom -5569.382975 kJ/mol
# Density = 2.582310 g / cm^3
# Si number density = 25.882006 Si / 1000 Ang^3
#
#
#
# Elastic Constant Matrix: (Units=GPa)
#
#
# Indices 1 2 3 4 5 6 
#
# 1 93.6130 17.4260 18.9452 -0.7443 -8.7550 0.0000
# 2 17.4260 93.6130 18.9452 0.7443 8.7550 0.0000
# 3 18.9452 18.9452 70.9772 0.0000 0.0000 0.0000
# 4 -0.7443 0.7443 0.0000 40.7593 0.0000 8.7550
# 5 -8.7550 8.7550 0.0000 0.0000 40.7593 -0.7443
# 6 0.0000 0.0000 0.0000 8.7550 -0.7443 38.0935
#
#
#
# Elastic Compliance Matrix: (Units=1/GPa)
#
#
# Indices 1 2 3 4 5 6 
#
# 1 0.011860 -0.001952 -0.002645 0.000252 0.002967 0.000000
# 2 -0.001952 0.011860 -0.002645 -0.000252 -0.002967 0.000000
# 3 -0.002645 -0.002645 0.015501 0.000000 0.000000 0.000000
# 4 0.000252 -0.000252 0.000000 0.025818 0.000000 -0.005934
# 5 0.002967 -0.002967 0.000000 0.000000 0.025818 0.000504
# 6 0.000000 0.000000 0.000000 -0.005934 0.000504 0.027625
#
#
# Mechanical properties :
#
#
# Convention : Reuss Voigt Hill
#
# Bulk Modulus (GPa) = 40.42258 40.98175 40.70217
# Shear Modulus (GPa) = 35.40782 37.44820 36.42801
#
# Velocity S-wave (km/s) = 3.70273 3.80792 3.75569
# Velocity P-wave (km/s) = 5.82513 5.93313 5.87938
#
# Compressibility (1/GPa) = 0.02473865
#
# Stress axis : x y z
#
# Youngs Moduli (GPa) = 84.31446 84.31446 64.51247
#
# Poissons Ratio (x) = 0.16459 0.17062
# Poissons Ratio (y) = 0.16459 0.17062
# Poissons Ratio (z) = 0.22299 0.22299
#
# Static dielectric constant tensor:
#      x y z
#    x 2.138990 0.000000 0.000000 
#    y 0.000000 2.138990 0.000000 
#    z 0.000000 0.000000 2.133250 
# 
# From -- ./inp_files/1194.got.cif
#   From: 2010.05.17/outbox.cif.g08.bks.cpg/sg146_cif.got.tgz:1194.got - 2010.05.20 13:48:23.
