data_PCOD9574828
_publ_section_title
;
Structure prediction by ZEFSAII (Michael W. Deem and Ramdas Pophale) SiO2 
 PCOD9574828
Probable space group: R 3
;
_chemical_formula_sum "Si O2"
_cell_formula_units_Z 60
_cell_length_a 14.452568
_cell_length_b 14.452568
_cell_length_c 14.565064
_cell_angle_alpha 90.000000
_cell_angle_beta 90.000000
_cell_angle_gamma 120.000000
_cell_volume 2634.711529
_symmetry_space_group_name_H-M "R 3"
_symmetry_group_IT_number 146
_symmetry_cell_setting 'hexagonal'
loop_
_space_group_symop_operation_xyz
x,y,z
-y,x-y,z
-x+y,-x,z
2/3+x,1/3+y,1/3+z
2/3-y,1/3+x-y,1/3+z
2/3-x+y,1/3-x,1/3+z
1/3+x,2/3+y,2/3+z
1/3-y,2/3+x-y,2/3+z
1/3-x+y,2/3-x,2/3+z
loop_
_atom_site_type_symbol
_atom_site_label
_atom_site_fract_x
_atom_site_fract_y
_atom_site_fract_z
Si Si1 0.115655 0.348713 0.792340
Si Si2 0.562355 0.866086 0.677476
Si Si3 0.333334 0.666668 0.395768
Si Si4 0.262875 0.817202 0.182062
Si Si5 0.737720 0.914419 0.522040
Si Si6 0.000000 0.000000 0.949606
Si Si7 0.183238 0.426684 0.376249
Si Si8 0.010510 0.448565 0.673828
O O1 0.238601 0.386674 0.771461
O O2 0.098437 0.427773 0.724145
O O3 0.022193 0.234065 0.757509
O O4 0.096491 0.346316 0.901001
O O5 0.657122 0.896371 0.605000
O O6 0.450158 0.760276 0.648616
O O7 0.526272 0.953667 0.680441
O O8 0.333334 0.666667 0.506122
O O9 0.288298 0.543812 0.365266
O O10 0.161265 0.701132 0.169937
O O11 0.384032 0.854776 0.209149
O O12 0.230873 0.854941 0.275526
O O13 0.280650 0.865241 0.080402
O O14 0.655616 0.852470 0.439389
#
# Coordination Sequence:
#
# PCOD9574828 Si02
#       8
#     9   9   3   9   9   3   9   9
#     4  12  25  50  74 108 153 208 256 327 397 474
#     4  12  26  46  75 117 154 200 259 331 388 481
#     4  12  24  39  78 118 149 196 264 336 393 454
#     4  12  28  48  71 106 149 203 255 320 395 483
#     4  12  27  47  76 108 154 203 264 322 395 487
#     4  12  21  45  72 118 149 190 255 318 402 448
#     4  12  25  45  76 108 152 202 260 325 396 469
#     4  12  28  46  76 109 154 204 263 321 404 468
#
# _framework density 22.772891000000001
#
# number of rings (size 3 to 8) (size 9 to 14) (size 15 to 20)
#    0.000    0.000    6.000    3.900    4.200    0.000 
#    0.000    0.000    0.000    0.000    0.000    0.000 
#    0.000    0.000    0.000    0.000    0.000    0.000 
#
# Total GULP energy -111617.538439 kJ/mol
# GULP energy per Si atom -5580.876922 kJ/mol
# Density = 2.272106 g / cm^3
# Si number density = 22.772891 Si / 1000 Ang^3
#
#
#
# Elastic Constant Matrix: (Units=GPa)
#
#
# Indices 1 2 3 4 5 6 
#
# 1 80.8610 23.5760 11.1971 -3.5166 0.1183 0.0003
# 2 23.5760 80.8602 11.1967 3.5164 -0.1183 0.0001
# 3 11.1971 11.1967 172.9846 0.0001 -0.0001 0.0002
# 4 -3.5166 3.5164 0.0001 29.1401 0.0000 -0.1183
# 5 0.1183 -0.1183 -0.0001 0.0000 29.1400 -3.5167
# 6 0.0003 0.0001 0.0002 -0.1183 -3.5167 28.6423
#
#
#
# Elastic Compliance Matrix: (Units=1/GPa)
#
#
# Indices 1 2 3 4 5 6 
#
# 1 0.013715 -0.004005 -0.000629 0.002138 -0.000072 0.000000
# 2 -0.004005 0.013715 -0.000628 -0.002138 0.000072 0.000000
# 3 -0.000629 -0.000628 0.005862 0.000000 0.000000 0.000000
# 4 0.002138 -0.002138 0.000000 0.034834 0.000000 0.000144
# 5 -0.000072 0.000072 0.000000 0.000000 0.034834 0.004277
# 6 0.000000 0.000000 0.000000 0.000144 0.004277 0.035439
#
#
# Mechanical properties :
#
#
# Convention : Reuss Voigt Hill
#
# Bulk Modulus (GPa) = 43.92106 47.40505 45.66305
# Shear Modulus (GPa) = 31.94660 36.63356 34.29008
#
# Velocity S-wave (km/s) = 3.74951 4.01515 3.88460
# Velocity P-wave (km/s) = 6.17037 6.50821 6.34154
#
# Compressibility (1/GPa) = 0.02276812
#
# Stress axis : x y z
#
# Youngs Moduli (GPa) = 72.91461 72.91391 170.58373
#
# Poissons Ratio (x) = 0.29200 0.10721
# Poissons Ratio (y) = 0.29201 0.10721
# Poissons Ratio (z) = 0.04583 0.04583
#
# Static dielectric constant tensor:
#      x y z
#    x 1.982050 0.000000 0.000000 
#    y 0.000000 1.982050 0.000000 
#    z 0.000000 0.000000 1.867870 
# 
# From -- ./inp_files/1566.got.cif
#   From: 2010.05.17/outbox.cif.g08.bks.cpg/sg146_cif.got.tgz:1566.got - 2010.05.20 13:48:23.
