data_PCOD9574583
_publ_section_title
;
Structure prediction by ZEFSAII (Michael W. Deem and Ramdas Pophale) SiO2 
 PCOD9574583
Probable space group: P 32
;
_chemical_formula_sum "Si O2"
_cell_formula_units_Z 24
_cell_length_a 9.076919
_cell_length_b 9.076919
_cell_length_c 15.463507
_cell_angle_alpha 90.000000
_cell_angle_beta 90.000000
_cell_angle_gamma 120.000000
_cell_volume 1103.355710
_symmetry_space_group_name_H-M "P 32"
_symmetry_group_IT_number 145
_symmetry_cell_setting 'hexagonal'
loop_
_space_group_symop_operation_xyz
x,y,z
-y,x-y,2/3+z
-x+y,-x,1/3+z
loop_
_atom_site_type_symbol
_atom_site_label
_atom_site_fract_x
_atom_site_fract_y
_atom_site_fract_z
Si Si1 0.148796 0.993404 0.067890
Si Si2 0.368637 0.674502 0.813824
Si Si3 0.978479 0.665700 0.510479
Si Si4 0.064410 0.739726 0.223250
Si Si5 0.713755 0.450792 0.222609
Si Si6 0.833048 0.411890 0.032920
Si Si7 0.855376 0.790215 0.664221
Si Si8 0.272826 0.469785 0.643907
O O1 0.195957 0.902019 0.992935
O O2 0.071967 0.846620 0.139816
O O3 0.304040 0.163845 0.109879
O O4 0.003135 0.038789 0.048031
O O5 0.555629 0.837129 0.807373
O O6 0.373886 0.519602 0.862396
O O7 0.287248 0.603052 0.719426
O O8 0.255920 0.713423 0.881088
O O9 0.898500 0.472082 0.541726
O O10 0.974553 0.773615 0.592242
O O11 0.874395 0.623964 0.255683
O O12 0.182677 0.890455 0.287639
O O13 0.772857 0.437504 0.125842
O O14 0.679429 0.303820 0.291114
O O15 0.009857 0.570894 0.000254
O O16 0.855479 0.246672 0.042647
#
# Coordination Sequence:
#
# PCOD9574583 Si02
#       8
#     3   3   3   3   3   3   3   3
#     4  10  22  42  68  90 143 181 230 286 356 421
#     4  11  23  45  72 101 138 183 237 287 360 429
#     4  10  25  42  64 102 136 181 232 290 354 422
#     4  10  22  43  67  98 138 181 227 294 349 428
#     4  11  25  42  69 104 142 180 241 290 358 424
#     4  11  23  46  70 103 138 190 236 295 360 421
#     4  10  22  43  67  94 138 183 227 289 360 414
#     4  11  24  45  71 104 139 187 234 295 361 421
#
# _framework density 21.751823999999999
#
# number of rings (size 3 to 8) (size 9 to 14) (size 15 to 20)
#    0.000    1.500    3.750    0.750    5.250    2.000 
#    4.500    0.000    0.000    0.000    0.000    0.000 
#    0.000    0.000    0.000    0.000    0.000    0.000 
#
# Total GULP energy -134019.575545 kJ/mol
# GULP energy per Si atom -5584.148981 kJ/mol
# Density = 2.170232 g / cm^3
# Si number density = 21.751824 Si / 1000 Ang^3
#
#
#
# Elastic Constant Matrix: (Units=GPa)
#
#
# Indices 1 2 3 4 5 6 
#
# 1 66.0373 5.3951 -14.4879 -2.1343 3.9925 0.0000
# 2 5.3951 66.0373 -14.4879 2.1343 -3.9925 0.0000
# 3 -14.4879 -14.4879 44.2085 0.0000 0.0000 0.0000
# 4 -2.1343 2.1343 0.0000 32.0173 0.0000 -3.9925
# 5 3.9925 -3.9925 0.0000 0.0000 32.0173 -2.1343
# 6 0.0000 0.0000 0.0000 -3.9925 -2.1343 30.3211
#
#
#
# Elastic Compliance Matrix: (Units=1/GPa)
#
#
# Indices 1 2 3 4 5 6 
#
# 1 0.016496 -0.000350 0.005291 0.001123 -0.002101 0.000000
# 2 -0.000350 0.016496 0.005291 -0.001123 0.002101 0.000000
# 3 0.005291 0.005291 0.026088 0.000000 0.000000 0.000000
# 4 0.001123 -0.001123 0.000000 0.031907 0.000000 0.004201
# 5 -0.002101 0.002101 0.000000 0.000000 0.031907 0.002246
# 6 0.000000 0.000000 0.000000 0.004201 0.002246 0.033692
#
#
# Mechanical properties :
#
#
# Convention : Reuss Voigt Hill
#
# Bulk Modulus (GPa) = 12.57167 14.34687 13.45927
# Shear Modulus (GPa) = 30.74371 32.19538 31.46955
#
# Velocity S-wave (km/s) = 3.76358 3.85141 3.80775
# Velocity P-wave (km/s) = 4.96771 5.13691 5.05302
#
# Compressibility (1/GPa) = 0.07954394
#
# Stress axis : x y z
#
# Youngs Moduli (GPa) = 60.62193 60.62193 38.33161
#
# Poissons Ratio (x) = 0.02123 -0.20282
# Poissons Ratio (y) = 0.02123 -0.20282
# Poissons Ratio (z) = -0.32076 -0.32076
#
# Static dielectric constant tensor:
#      x y z
#    x 1.799910 0.000000 0.000000 
#    y 0.000000 1.799910 0.000000 
#    z 0.000000 0.000000 1.826810 
# 
# From -- ./inp_files/851.got.cif
#   From: 2010.05.17/outbox.cif.g08.bks.cpg/sg145_cif.got.tgz:851.got - 2010.05.20 13:47:28.
