data_PCOD9574385
_publ_section_title
;
Structure prediction by ZEFSAII (Michael W. Deem and Ramdas Pophale) SiO2 
 PCOD9574385
Probable space group: P 31
;
_chemical_formula_sum "Si O2"
_cell_formula_units_Z 24
_cell_length_a 9.214195
_cell_length_b 9.214195
_cell_length_c 13.530530
_cell_angle_alpha 90.000000
_cell_angle_beta 90.000000
_cell_angle_gamma 120.000000
_cell_volume 994.856034
_symmetry_space_group_name_H-M "P 31"
_symmetry_group_IT_number 144
_symmetry_cell_setting 'hexagonal'
loop_
_space_group_symop_operation_xyz
x,y,z
-y,x-y,1/3+z
-x+y,-x,2/3+z
loop_
_atom_site_type_symbol
_atom_site_label
_atom_site_fract_x
_atom_site_fract_y
_atom_site_fract_z
Si Si1 0.848798 0.374031 0.394110
Si Si2 0.410903 0.926021 0.745063
Si Si3 0.876405 0.676916 0.487019
Si Si4 0.798183 0.829393 0.667948
Si Si5 0.327837 0.508075 0.220663
Si Si6 0.482631 0.083476 0.421683
Si Si7 0.706896 0.089547 0.875805
Si Si8 0.129400 0.922466 0.340969
O O1 0.853832 0.493805 0.481532
O O2 0.656335 0.233424 0.383452
O O3 0.902104 0.489452 0.294633
O O4 0.970483 0.297329 0.409155
O O5 0.382949 0.839650 0.639388
O O6 0.352146 0.784963 0.830267
O O7 0.333326 0.048305 0.761658
O O8 0.605694 0.037776 0.773010
O O9 0.875139 0.750414 0.592196
O O10 0.048854 0.794867 0.432000
O O11 0.660138 0.851652 0.608266
O O12 0.941546 0.013619 0.694622
O O13 0.424265 0.476672 0.133144
O O14 0.418023 0.144708 0.516399
O O15 0.328687 0.007228 0.345490
O O16 0.768580 0.964230 0.913698
#
# Coordination Sequence:
#
# PCOD9574385 Si02
#       8
#     3   3   3   3   3   3   3   3
#     4  11  22  44  75 101 139 193 253 289 373 459
#     4  11  23  46  73 102 144 199 239 305 378 433
#     4  10  22  44  70  98 146 190 235 304 373 432
#     4  11  24  44  68 109 142 190 242 311 371 431
#     4  11  26  44  73 100 150 187 248 303 368 444
#     4  12  26  45  74 107 141 198 247 301 375 448
#     4  11  23  48  71 103 147 193 241 304 374 440
#     4  11  26  43  72 108 147 190 243 307 376 439
#
# _framework density 24.124095000000001
#
# number of rings (size 3 to 8) (size 9 to 14) (size 15 to 20)
#    0.000    1.000    3.750    3.000    7.000    0.000 
#    0.000    0.000    0.000    0.000    0.000    0.000 
#    0.000    0.000    0.000    0.000    0.000    0.000 
#
# Total GULP energy -134228.657189 kJ/mol
# GULP energy per Si atom -5592.860716 kJ/mol
# Density = 2.406919 g / cm^3
# Si number density = 24.124095 Si / 1000 Ang^3
#
#
#
# Elastic Constant Matrix: (Units=GPa)
#
#
# Indices 1 2 3 4 5 6 
#
# 1 113.6878 52.2387 10.6263 -9.1223 1.2826 0.0000
# 2 52.2387 113.6878 10.6263 9.1223 -1.2826 0.0000
# 3 10.6263 10.6263 45.6462 0.0000 0.0000 0.0000
# 4 -9.1223 9.1223 0.0000 16.4814 0.0000 -1.2826
# 5 1.2826 -1.2826 0.0000 0.0000 16.4814 -9.1223
# 6 0.0000 0.0000 0.0000 -1.2826 -9.1223 30.7246
#
#
#
# Elastic Compliance Matrix: (Units=1/GPa)
#
#
# Indices 1 2 3 4 5 6 
#
# 1 0.012881 -0.006669 -0.001446 0.010821 -0.001521 0.000000
# 2 -0.006669 0.012881 -0.001446 -0.010821 0.001521 0.000000
# 3 -0.001446 -0.001446 0.022581 0.000000 0.000000 0.000000
# 4 0.010821 -0.010821 0.000000 0.072889 0.000000 0.003043
# 5 -0.001521 0.001521 0.000000 0.000000 0.072889 0.021641
# 6 0.000000 0.000000 0.000000 0.003043 0.021641 0.039100
#
#
# Mechanical properties :
#
#
# Convention : Reuss Voigt Hill
#
# Bulk Modulus (GPa) = 34.22268 46.66716 40.44492
# Shear Modulus (GPa) = 19.07790 26.03953 22.55871
#
# Velocity S-wave (km/s) = 2.81521 3.28899 3.06128
# Velocity P-wave (km/s) = 4.97836 5.81462 5.41267
#
# Compressibility (1/GPa) = 0.02922039
#
# Stress axis : x y z
#
# Youngs Moduli (GPa) = 77.63431 77.63431 44.28517
#
# Poissons Ratio (x) = 0.51774 0.06404
# Poissons Ratio (y) = 0.51774 0.06404
# Poissons Ratio (z) = 0.11227 0.11227
#
# Static dielectric constant tensor:
#      x y z
#    x 1.931990 0.000000 0.000000 
#    y 0.000000 1.931990 0.000000 
#    z 0.000000 0.000000 2.000580 
# 
# From -- ./inp_files/849.got.cif
#   From: 2010.05.17/outbox.cif.g08.bks.cpg/sg144_cif.got.tgz:849.got - 2010.05.20 13:46:34.
