data_PCOD9574042
_publ_section_title
;
Structure prediction by ZEFSAII (Michael W. Deem and Ramdas Pophale) SiO2 
 PCOD9574042
Probable space group: I 41/A C D
;
_chemical_formula_sum "Si O2"
_cell_formula_units_Z 168
_cell_length_a 22.575696
_cell_length_b 22.575696
_cell_length_c 15.817766
_cell_angle_alpha 90.000000
_cell_angle_beta 90.000000
_cell_angle_gamma 90.000000
_cell_volume 8061.715044
_symmetry_space_group_name_H-M "I 41/A C D"
_symmetry_group_IT_number 142
_space_group.IT_coordinate_system_code '2'
_symmetry_cell_setting 'tetragonal'
loop_
_space_group_symop_operation_xyz
x,y,z
1/4-y,3/4+x,1/4+z
-x,1/2-y,z
1/4+y,1/4-x,3/4+z
x,-y,1/2-z
1/2-x,y,-z
3/4+y,1/4+x,1/4-z
1/4-y,1/4-x,1/4-z
-x,-y,-z
3/4+y,1/4-x,3/4-z
x,1/2+y,-z
3/4-y,3/4+x,1/4-z
-x,y,1/2+z
1/2+x,-y,z
1/4-y,3/4-x,3/4+z
3/4+y,3/4+x,3/4+z
1/2+x,1/2+y,1/2+z
3/4-y,1/4+x,3/4+z
1/2-x,-y,1/2+z
3/4+y,3/4-x,1/4+z
1/2+x,1/2-y,-z
-x,1/2+y,1/2-z
1/4+y,3/4+x,3/4-z
3/4-y,3/4-x,3/4-z
1/2-x,1/2-y,1/2-z
1/4+y,3/4-x,1/4-z
1/2+x,y,1/2-z
1/4-y,1/4+x,3/4-z
1/2-x,1/2+y,z
x,1/2-y,1/2+z
3/4-y,1/4-x,1/4+z
1/4+y,1/4+x,1/4+z
loop_
_atom_site_type_symbol
_atom_site_label
_atom_site_fract_x
_atom_site_fract_y
_atom_site_fract_z
Si Si1 0.500000 0.750000 0.375000
Si Si2 0.857767 0.605285 0.279789
Si Si3 0.316287 0.433714 0.875000
Si Si4 0.480537 0.933171 0.489574
Si Si5 0.250000 0.520640 0.000000
Si Si6 0.645925 0.195277 0.897998
Si Si7 0.479265 0.379275 0.188464
O O1 0.480398 0.692259 0.321431
O O2 0.873844 0.623844 0.375000
O O3 0.823335 0.660139 0.238703
O O4 0.816924 0.547643 0.286841
O O5 0.916557 0.597650 0.223725
O O6 0.292102 0.475530 0.948908
O O7 0.311222 0.362724 0.890833
O O8 0.507027 0.905545 0.575111
O O9 0.506971 0.905235 0.404035
O O10 0.500000 0.000000 0.500000
O O11 0.582654 0.167347 0.875000
O O12 0.647331 0.222568 0.991118
#
# Coordination Sequence:
#
# PCOD9574042 Si02
#       7
#     8  32  16  32  16  32  32
#     4  12  24  48  74 116 148 198 240 304 386 460
#     4  12  27  47  75 109 150 205 253 309 386 446
#     4  10  26  44  78 101 146 199 246 318 370 456
#     4  12  27  47  73 110 150 194 250 317 366 453
#     4  12  26  50  70 108 150 202 260 304 376 462
#     4  10  25  47  70 109 143 187 248 306 375 445
#     4  12  26  46  79 108 152 197 245 315 385 454
#
# _framework density 20.839238999999999
#
# number of rings (size 3 to 8) (size 9 to 14) (size 15 to 20)
#    0.571    0.000    4.762    2.286    2.667    5.333 
#    0.000    0.000    0.000    0.000    0.000    0.000 
#    0.000    0.000    0.000    0.000    0.000    0.000 
#
# Total GULP energy -468585.252740 kJ/mol
# GULP energy per Si atom -5578.395866 kJ/mol
# Density = 2.079181 g / cm^3
# Si number density = 20.839239 Si / 1000 Ang^3
#
#
#
# Elastic Constant Matrix: (Units=GPa)
#
#
# Indices 1 2 3 4 5 6 
#
# 1 105.9182 54.6991 38.3890 0.0000 0.0000 0.0000
# 2 54.6991 105.9126 38.3847 0.0000 0.0000 0.0000
# 3 38.3890 38.3847 97.4330 0.0000 0.0000 0.0000
# 4 0.0000 0.0000 0.0000 -383.6761 0.0000 0.0000
# 5 0.0000 0.0000 0.0000 0.0000 -383.0701 0.0000
# 6 0.0000 0.0000 0.0000 0.0000 0.0000 40.8112
#
#
#
# Elastic Compliance Matrix: (Units=1/GPa)
#
#
# Indices 1 2 3 4 5 6 
#
# 1 0.013598 -0.005927 -0.003022 0.000000 0.000000 0.000000
# 2 -0.005927 0.013598 -0.003022 0.000000 0.000000 0.000000
# 3 -0.003022 -0.003022 0.012645 0.000000 0.000000 0.000000
# 4 0.000000 0.000000 0.000000 -0.002606 0.000000 0.000000
# 5 0.000000 0.000000 0.000000 0.000000 -0.002610 0.000000
# 6 0.000000 0.000000 0.000000 0.000000 0.000000 0.024503
#
#
# Mechanical properties :
#
#
# Convention : Reuss Voigt Hill
#
# Bulk Modulus (GPa) = 62.90227 63.57881 63.24054
# Shear Modulus (GPa) = 56.58112 -133.33427 -38.37657
#
# Velocity S-wave (km/s) = 5.21634 -8.00757 -4.29599
# Velocity P-wave (km/s) = 8.15661 7.41077 2.40944
#
# Compressibility (1/GPa) = 0.01589768
#
# Stress axis : x y z
#
# Youngs Moduli (GPa) = 73.54201 73.54019 79.08404
#
# Poissons Ratio (x) = 0.43589 0.23903
# Poissons Ratio (y) = 0.43590 0.23897
# Poissons Ratio (z) = 0.22228 0.22222
#
# Static dielectric constant tensor:
#      x y z
#    x 1.715390 0.000000 0.000000 
#    y 0.000000 1.715560 0.000000 
#    z 0.000000 0.000000 1.712240 
# 
# From -- ./inp_files/5619.got.cif
#   From: 2010.05.17/outbox.cif.g08.bks.cpg/sg142_3_cif.got.tgz:5619.got - 2010.05.20 13:39:18.
