data_PCOD9574040
_publ_section_title
;
Structure prediction by ZEFSAII (Michael W. Deem and Ramdas Pophale) SiO2 
 PCOD9574040
Probable space group: I 41/A C D
;
_chemical_formula_sum "Si O2"
_cell_formula_units_Z 160
_cell_length_a 22.681919
_cell_length_b 22.681919
_cell_length_c 14.536145
_cell_angle_alpha 90.000000
_cell_angle_beta 90.000000
_cell_angle_gamma 90.000000
_cell_volume 7478.402516
_symmetry_space_group_name_H-M "I 41/A C D"
_symmetry_group_IT_number 142
_space_group.IT_coordinate_system_code '2'
_symmetry_cell_setting 'tetragonal'
loop_
_space_group_symop_operation_xyz
x,y,z
1/4-y,3/4+x,1/4+z
-x,1/2-y,z
1/4+y,1/4-x,3/4+z
x,-y,1/2-z
1/2-x,y,-z
3/4+y,1/4+x,1/4-z
1/4-y,1/4-x,1/4-z
-x,-y,-z
3/4+y,1/4-x,3/4-z
x,1/2+y,-z
3/4-y,3/4+x,1/4-z
-x,y,1/2+z
1/2+x,-y,z
1/4-y,3/4-x,3/4+z
3/4+y,3/4+x,3/4+z
1/2+x,1/2+y,1/2+z
3/4-y,1/4+x,3/4+z
1/2-x,-y,1/2+z
3/4+y,3/4-x,1/4+z
1/2+x,1/2-y,-z
-x,1/2+y,1/2-z
1/4+y,3/4+x,3/4-z
3/4-y,3/4-x,3/4-z
1/2-x,1/2-y,1/2-z
1/4+y,3/4-x,1/4-z
1/2+x,y,1/2-z
1/4-y,1/4+x,3/4-z
1/2-x,1/2+y,z
x,1/2-y,1/2+z
3/4-y,1/4-x,1/4+z
1/4+y,1/4+x,1/4+z
loop_
_atom_site_type_symbol
_atom_site_label
_atom_site_fract_x
_atom_site_fract_y
_atom_site_fract_z
Si Si1 0.937276 0.467806 0.485689
Si Si2 0.943331 0.292600 0.020480
Si Si3 0.862855 0.763428 0.622760
Si Si4 0.118376 0.979011 0.648136
Si Si5 0.663403 0.010582 0.147129
O O1 0.901409 0.467145 0.581287
O O2 0.891228 0.500573 0.419972
O O3 0.000000 0.500000 0.500000
O O4 0.956232 0.410242 0.429099
O O5 0.934564 0.315437 0.125000
O O6 0.000000 0.250000 0.022742
O O7 0.890790 0.256001 0.973846
O O8 0.957229 0.342091 0.944605
O O9 0.812547 0.811002 0.602416
O O10 0.174323 0.941597 0.613113
O O11 0.132573 0.000000 0.750000
O O12 0.642610 0.000000 0.250000
O O13 0.715393 0.965393 0.125000
#
# Coordination Sequence:
#
# PCOD9574040 Si02
#       5
#    32  32  32  32  32
#     4  10  25  45  66 105 141 181 238 302 365 442
#     4  11  23  42  70 103 140 188 246 297 367 449
#     4  11  22  47  68 104 150 185 244 313 367 445
#     4  11  26  44  71 105 141 190 244 305 368 433
#     4  12  24  47  75 102 142 191 247 300 361 446
#
# _framework density 21.394943000000001
#
# number of rings (size 3 to 8) (size 9 to 14) (size 15 to 20)
#    0.000    1.000    4.000    1.800    2.800    3.200 
#   10.800    0.000    0.000    0.000    0.000    0.000 
#    0.000    0.000    0.000    0.000    0.000    0.000 
#
# Total GULP energy -446808.684326 kJ/mol
# GULP energy per Si atom -5585.108554 kJ/mol
# Density = 2.134625 g / cm^3
# Si number density = 21.394943 Si / 1000 Ang^3
#
#
#
# Elastic Constant Matrix: (Units=GPa)
#
#
# Indices 1 2 3 4 5 6 
#
# 1 76.9851 23.9934 30.5395 0.0000 0.0000 0.0000
# 2 23.9934 76.9851 30.5394 0.0000 0.0000 0.0000
# 3 30.5395 30.5394 151.8453 0.0000 0.0000 0.0000
# 4 0.0000 0.0000 0.0000 7.2144 0.0000 0.0000
# 5 0.0000 0.0000 0.0000 0.0000 7.2161 0.0000
# 6 0.0000 0.0000 0.0000 0.0000 0.0000 22.1872
#
#
#
# Elastic Compliance Matrix: (Units=1/GPa)
#
#
# Indices 1 2 3 4 5 6 
#
# 1 0.015073 -0.003798 -0.002268 0.000000 0.000000 0.000000
# 2 -0.003798 0.015073 -0.002268 0.000000 0.000000 0.000000
# 3 -0.002268 -0.002268 0.007498 0.000000 0.000000 0.000000
# 4 0.000000 0.000000 0.000000 0.138612 0.000000 0.000000
# 5 0.000000 0.000000 0.000000 0.000000 0.138578 0.000000
# 6 0.000000 0.000000 0.000000 0.000000 0.000000 0.045071
#
#
# Mechanical properties :
#
#
# Convention : Reuss Voigt Hill
#
# Bulk Modulus (GPa) = 47.67171 52.88446 50.27808
# Shear Modulus (GPa) = 13.03565 22.03975 17.53770
#
# Velocity S-wave (km/s) = 2.47105 3.21306 2.86617
# Velocity P-wave (km/s) = 5.52011 6.20781 5.87403
#
# Compressibility (1/GPa) = 0.02097680
#
# Stress axis : x y z
#
# Youngs Moduli (GPa) = 66.34468 66.34471 133.37298
#
# Poissons Ratio (x) = 0.25198 0.30244
# Poissons Ratio (y) = 0.25198 0.30243
# Poissons Ratio (z) = 0.15044 0.15044
#
# Static dielectric constant tensor:
#      x y z
#    x 2.056380 0.000000 0.000000 
#    y 0.000000 2.055900 0.000000 
#    z 0.000000 0.000000 1.810320 
# 
# From -- ./inp_files/5446.got.cif
#   From: 2010.05.17/outbox.cif.g08.bks.cpg/sg142_3_cif.got.tgz:5446.got - 2010.05.20 13:39:18.
