data_PCOD9574829
_publ_section_title
;
Structure prediction by ZEFSAII (Michael W. Deem and Ramdas Pophale) SiO2 
 PCOD9574829
Probable space group: R 3
;
_chemical_formula_sum "Si O2"
_cell_formula_units_Z 72
_cell_length_a 14.449700
_cell_length_b 14.449700
_cell_length_c 19.509453
_cell_angle_alpha 90.000000
_cell_angle_beta 90.000000
_cell_angle_gamma 120.000000
_cell_volume 3527.714138
_symmetry_space_group_name_H-M "R 3"
_symmetry_group_IT_number 146
_symmetry_cell_setting 'hexagonal'
loop_
_space_group_symop_operation_xyz
x,y,z
-y,x-y,z
-x+y,-x,z
2/3+x,1/3+y,1/3+z
2/3-y,1/3+x-y,1/3+z
2/3-x+y,1/3-x,1/3+z
1/3+x,2/3+y,2/3+z
1/3-y,2/3+x-y,2/3+z
1/3-x+y,2/3-x,2/3+z
loop_
_atom_site_type_symbol
_atom_site_label
_atom_site_fract_x
_atom_site_fract_y
_atom_site_fract_z
Si Si1 0.800572 0.554954 0.505580
Si Si2 0.504050 0.506316 0.630760
Si Si3 0.323990 0.064824 0.008701
Si Si4 0.997734 0.504050 0.977737
Si Si5 0.912285 0.133905 0.436251
Si Si6 0.151154 0.246080 0.459490
Si Si7 0.515513 0.087253 0.482340
Si Si8 0.009344 0.601842 0.266463
O O1 0.802949 0.575099 0.587367
O O2 0.833332 0.666666 0.470915
O O3 0.883475 0.521237 0.478599
O O4 0.679716 0.478415 0.483938
O O5 0.544028 0.626236 0.656993
O O6 0.561182 0.469615 0.687796
O O7 0.556291 0.521809 0.556400
O O8 0.377770 0.420084 0.621587
O O9 0.420085 0.042313 0.986911
O O10 0.333333 0.166666 0.970915
O O11 0.317481 0.087220 0.089158
O O12 0.917791 0.544028 0.951504
O O13 0.034483 0.556293 0.052097
O O14 0.028906 0.216808 0.463231
O O15 0.867968 0.013050 0.457893
O O16 0.230261 0.317481 0.519340
#
# Coordination Sequence:
#
# PCOD9574829 Si02
#       8
#     9   9   9   9   9   9   9   9
#     4  12  22  43  68 104 144 180 237 303 362 434
#     4  12  24  47  70 106 141 187 246 305 364 439
#     4  12  28  46  74 101 151 194 245 303 377 447
#     4  12  24  47  70 106 141 187 246 305 364 439
#     4  12  22  43  68 104 144 180 237 303 362 434
#     4  12  24  41  73 104 140 189 235 303 373 432
#     4  12  24  41  73 104 140 189 235 303 373 432
#     4  12  28  46  74 101 151 194 245 303 377 447
#
# _framework density 20.409815999999999
#
# number of rings (size 3 to 8) (size 9 to 14) (size 15 to 20)
#    0.000    0.000    7.500    2.000    3.500    0.000 
#    1.500    2.500    0.000    1.500    0.000    0.000 
#    0.000    0.000    0.000    0.000    0.000    0.000 
#
# Total GULP energy -133970.300416 kJ/mol
# GULP energy per Si atom -5582.095851 kJ/mol
# Density = 2.036336 g / cm^3
# Si number density = 20.409816 Si / 1000 Ang^3
#
#
#
# Elastic Constant Matrix: (Units=GPa)
#
#
# Indices 1 2 3 4 5 6 
#
# 1 113.3591 35.1420 34.2087 6.4633 -4.2771 0.0000
# 2 35.1420 113.3591 34.2087 -6.4633 4.2771 0.0000
# 3 34.2087 34.2087 106.4956 0.0000 0.0000 0.0000
# 4 6.4633 -6.4633 0.0000 34.6307 0.0000 4.2771
# 5 -4.2771 4.2771 0.0000 0.0000 34.6307 6.4633
# 6 0.0000 0.0000 0.0000 4.2771 6.4633 39.1085
#
#
#
# Elastic Compliance Matrix: (Units=1/GPa)
#
#
# Indices 1 2 3 4 5 6 
#
# 1 0.010641 -0.002737 -0.002539 -0.002497 0.001652 0.000000
# 2 -0.002737 0.010641 -0.002539 0.002497 -0.001652 0.000000
# 3 -0.002539 -0.002539 0.011021 0.000000 0.000000 0.000000
# 4 -0.002497 0.002497 0.000000 0.030216 0.000000 -0.003305
# 5 0.001652 -0.001652 0.000000 0.000000 0.030216 -0.004994
# 6 0.000000 0.000000 0.000000 -0.003305 -0.004994 0.026757
#
#
# Mechanical properties :
#
#
# Convention : Reuss Voigt Hill
#
# Bulk Modulus (GPa) = 59.97685 60.03698 60.00691
# Shear Modulus (GPa) = 35.54173 36.98428 36.26300
#
# Velocity S-wave (km/s) = 4.17754 4.26147 4.21972
# Velocity P-wave (km/s) = 7.26080 7.32756 7.29426
#
# Compressibility (1/GPa) = 0.01667310
#
# Stress axis : x y z
#
# Youngs Moduli (GPa) = 93.97651 93.97651 90.73497
#
# Poissons Ratio (x) = 0.25724 0.23036
# Poissons Ratio (y) = 0.25724 0.23036
# Poissons Ratio (z) = 0.23859 0.23859
#
# Static dielectric constant tensor:
#      x y z
#    x 1.770490 0.000000 0.000000 
#    y 0.000000 1.770490 0.000000 
#    z 0.000000 0.000000 1.778540 
# 
# From -- ./inp_files/1780.got.cif
#   From: 2010.05.17/outbox.cif.g08.bks.cpg/sg146_cif.got.tgz:1780.got - 2010.05.20 13:48:23.
