data_PCOD9574722
_publ_section_title
;
Structure prediction by ZEFSAII (Michael W. Deem and Ramdas Pophale) SiO2 
 PCOD9574722
Probable space group: R 3
;
_chemical_formula_sum "Si O2"
_cell_formula_units_Z 60
_cell_length_a 14.701534
_cell_length_b 14.701534
_cell_length_c 13.600646
_cell_angle_alpha 90.000000
_cell_angle_beta 90.000000
_cell_angle_gamma 120.000000
_cell_volume 2545.748367
_symmetry_space_group_name_H-M "R 3"
_symmetry_group_IT_number 146
_symmetry_cell_setting 'hexagonal'
loop_
_space_group_symop_operation_xyz
x,y,z
-y,x-y,z
-x+y,-x,z
2/3+x,1/3+y,1/3+z
2/3-y,1/3+x-y,1/3+z
2/3-x+y,1/3-x,1/3+z
1/3+x,2/3+y,2/3+z
1/3-y,2/3+x-y,2/3+z
1/3-x+y,2/3-x,2/3+z
loop_
_atom_site_type_symbol
_atom_site_label
_atom_site_fract_x
_atom_site_fract_y
_atom_site_fract_z
Si Si1 0.787449 0.843216 0.299840
Si Si2 0.357941 0.311517 0.571975
Si Si3 0.509105 0.357788 0.041711
Si Si4 0.468484 0.500820 0.155519
Si Si5 0.666666 0.333333 0.904632
Si Si6 0.333334 0.666666 0.000556
Si Si7 0.396423 0.175226 0.186207
Si Si8 0.291123 0.932655 0.659654
O O1 0.745387 0.906920 0.236015
O O2 0.783577 0.872266 0.413584
O O3 0.910603 0.889145 0.288371
O O4 0.703222 0.721323 0.301087
O O5 0.276598 0.265258 0.663293
O O6 0.266270 0.286544 0.495041
O O7 0.438431 0.435635 0.563664
O O8 0.585510 0.364581 0.954792
O O9 0.544408 0.462656 0.105621
O O10 0.485328 0.266096 0.118175
O O11 0.521858 0.554761 0.257340
O O12 0.666668 0.333334 0.786649
O O13 0.442873 0.139661 0.276688
O O14 0.325195 0.082484 0.105711
#
# Coordination Sequence:
#
# PCOD9574722 Si02
#       8
#     9   9   9   9   3   3   9   9
#     4  11  25  43  68  98 146 184 239 308 368 442
#     4  10  22  43  68  94 140 187 231 304 376 437
#     4  10  22  41  67 103 142 179 242 311 383 437
#     4  10  21  40  67 101 132 183 241 295 369 450
#     4  12  24  36  69 102 142 176 238 321 378 423
#     4  12  27  42  63 102 145 188 247 294 378 447
#     4  11  24  43  68 100 145 192 247 302 366 457
#     4  12  23  44  70 102 140 191 251 299 370 447
#
# _framework density 23.568707
#
# number of rings (size 3 to 8) (size 9 to 14) (size 15 to 20)
#    0.000    1.200    3.000    2.700    2.100    1.200 
#    8.100    0.000    0.000    0.000    0.000    0.000 
#    0.000    0.000    0.000    0.000    0.000    0.000 
#
# Total GULP energy -111433.514520 kJ/mol
# GULP energy per Si atom -5571.675726 kJ/mol
# Density = 2.351506 g / cm^3
# Si number density = 23.568707 Si / 1000 Ang^3
#
#
#
# Elastic Constant Matrix: (Units=GPa)
#
#
# Indices 1 2 3 4 5 6 
#
# 1 83.7652 31.2671 22.5647 2.7534 -2.7346 -0.0001
# 2 31.2671 83.7658 22.5642 -2.7533 2.7343 0.0000
# 3 22.5647 22.5642 71.1537 -0.0002 0.0000 -0.0001
# 4 2.7534 -2.7533 -0.0002 36.2480 0.0000 2.7346
# 5 -2.7346 2.7343 0.0000 0.0000 36.2484 2.7532
# 6 -0.0001 0.0000 -0.0001 2.7346 2.7532 26.2490
#
#
#
# Elastic Compliance Matrix: (Units=1/GPa)
#
#
# Indices 1 2 3 4 5 6 
#
# 1 0.014642 -0.004713 -0.003149 -0.001470 0.001460 0.000000
# 2 -0.004713 0.014641 -0.003148 0.001470 -0.001460 0.000000
# 3 -0.003149 -0.003148 0.016051 0.000000 0.000000 0.000000
# 4 -0.001470 0.001470 0.000000 0.028031 0.000000 -0.002920
# 5 0.001460 -0.001460 0.000000 0.000000 0.028031 -0.002940
# 6 0.000000 0.000000 0.000000 -0.002920 -0.002940 0.038709
#
#
# Mechanical properties :
#
#
# Convention : Reuss Voigt Hill
#
# Bulk Modulus (GPa) = 42.89318 43.49742 43.19530
# Shear Modulus (GPa) = 29.42958 30.56831 29.99895
#
# Velocity S-wave (km/s) = 3.53749 3.60528 3.57154
# Velocity P-wave (km/s) = 5.90964 5.98551 5.94770
#
# Compressibility (1/GPa) = 0.02331373
#
# Stress axis : x y z
#
# Youngs Moduli (GPa) = 68.29875 68.29965 62.30135
#
# Poissons Ratio (x) = 0.32190 0.19616
# Poissons Ratio (y) = 0.32190 0.19615
# Poissons Ratio (z) = 0.21505 0.21504
#
# Static dielectric constant tensor:
#      x y z
#    x 1.981930 0.000000 0.000000 
#    y 0.000000 1.981930 0.000000 
#    z 0.000000 0.000000 2.011190 
# 
# From -- ./inp_files/1559.got.cif
#   From: 2010.05.17/outbox.cif.g08.bks.cpg/sg146_cif.got.tgz:1559.got - 2010.05.20 13:48:23.
