data_PCOD9574279
_publ_section_title
;
Structure prediction by ZEFSAII (Michael W. Deem and Ramdas Pophale) SiO2 
 PCOD9574279
Probable space group: P 3
;
_chemical_formula_sum "Si O2"
_cell_formula_units_Z 13
_cell_length_a 9.602078
_cell_length_b 9.602078
_cell_length_c 8.595914
_cell_angle_alpha 90.000000
_cell_angle_beta 90.000000
_cell_angle_gamma 120.000000
_cell_volume 686.361876
_symmetry_space_group_name_H-M "P 3"
_symmetry_group_IT_number 143
_symmetry_cell_setting 'hexagonal'
loop_
_space_group_symop_operation_xyz
x,y,z
-y,x-y,z
-x+y,-x,z
loop_
_atom_site_type_symbol
_atom_site_label
_atom_site_fract_x
_atom_site_fract_y
_atom_site_fract_z
Si Si1 0.000000 0.000000 0.152655
Si Si2 0.607613 0.579217 0.695912
Si Si3 0.832826 0.666348 0.986889
Si Si4 0.666669 0.333335 0.523559
Si Si5 0.058618 0.753949 0.695409
Si Si6 0.000000 0.000000 0.522559
Si Si7 0.666666 0.333335 0.153644
O O1 0.000000 0.000000 0.338277
O O2 0.872495 0.821787 0.089358
O O3 0.679948 0.596601 0.869778
O O4 0.690685 0.500142 0.593149
O O5 0.421649 0.452684 0.667603
O O6 0.636313 0.755276 0.668684
O O7 0.984944 0.735379 0.868847
O O8 0.793788 0.511656 0.090269
O O9 0.666668 0.333334 0.339279
O O10 0.976160 0.833235 0.592085
#
# Coordination Sequence:
#
# PCOD9574279 Si02
#       7
#     1   3   3   1   3   1   1
#     4  12  28  41  67 108 142 188 232 312 361 407
#     4  12  23  43  69 100 130 185 236 285 344 440
#     4  12  22  44  68  98 138 180 248 282 352 424
#     4  12  25  44  70 102 142 182 241 291 367 422
#     4  12  23  43  69 100 130 185 236 285 344 440
#     4  12  25  44  70 102 142 182 241 291 367 422
#     4  12  28  41  67 108 142 188 232 312 361 407
#
# _framework density 18.940446999999999
#
# number of rings (size 3 to 8) (size 9 to 14) (size 15 to 20)
#    0.000    0.000    9.231    0.462    6.462    0.000 
#    0.000    0.000    0.000    0.000    0.000    0.000 
#    0.000    0.000    0.000    0.000    0.000    0.000 
#
# Total GULP energy -72484.777630 kJ/mol
# GULP energy per Si atom -5575.752125 kJ/mol
# Density = 1.889734 g / cm^3
# Si number density = 18.940447 Si / 1000 Ang^3
#
#
#
# Elastic Constant Matrix: (Units=GPa)
#
#
# Indices 1 2 3 4 5 6 
#
# 1 147.9979 70.9588 62.9830 0.0306 0.2505 0.0000
# 2 70.9588 147.9983 62.9830 -0.0314 -0.2499 -0.0004
# 3 62.9830 62.9830 134.3568 0.0003 0.0003 -0.0001
# 4 0.0306 -0.0314 0.0003 10.0012 0.0000 -0.2504
# 5 0.2505 -0.2499 0.0003 0.0000 10.0006 0.0306
# 6 0.0000 -0.0004 -0.0001 -0.2504 0.0306 38.5196
#
#
#
# Elastic Compliance Matrix: (Units=1/GPa)
#
#
# Indices 1 2 3 4 5 6 
#
# 1 0.009618 -0.003364 -0.002932 -0.000040 -0.000325 0.000000
# 2 -0.003364 0.009618 -0.002932 0.000041 0.000325 0.000000
# 3 -0.002932 -0.002932 0.010191 -0.000001 0.000000 0.000000
# 4 -0.000040 0.000041 -0.000001 0.100005 0.000000 0.000650
# 5 -0.000325 0.000325 0.000000 0.000000 0.100010 -0.000079
# 6 0.000000 0.000000 0.000000 0.000650 -0.000079 0.025965
#
#
# Mechanical properties :
#
#
# Convention : Reuss Voigt Hill
#
# Bulk Modulus (GPa) = 91.13755 91.57805 91.35780
# Shear Modulus (GPa) = 18.01671 27.26616 22.64143
#
# Velocity S-wave (km/s) = 3.08755 3.79829 3.46121
# Velocity P-wave (km/s) = 7.80596 8.22748 8.01949
#
# Compressibility (1/GPa) = 0.01097243
#
# Stress axis : x y z
#
# Youngs Moduli (GPa) = 103.97071 103.97105 98.12264
#
# Poissons Ratio (x) = 0.34981 0.28765
# Poissons Ratio (y) = 0.34980 0.28765
# Poissons Ratio (z) = 0.30479 0.30479
#
# Static dielectric constant tensor:
#      x y z
#    x 1.705710 0.000000 0.000000 
#    y 0.000000 1.705710 0.000000 
#    z 0.000000 0.000000 1.634590 
# 
# From -- ./inp_files/120.got.cif
#   From: 2010.05.17/outbox.cif.g08.bks.cpg/sg143_cif.got.tgz:120.got - 2010.05.20 13:46:24.
