data_PCOD9574202
_publ_section_title
;
Structure prediction by ZEFSAII (Michael W. Deem and Ramdas Pophale) SiO2 
 PCOD9574202
Probable space group: I 41/A C D
;
_chemical_formula_sum "Si O2"
_cell_formula_units_Z 128
_cell_length_a 19.968124
_cell_length_b 19.968124
_cell_length_c 15.387166
_cell_angle_alpha 90.000000
_cell_angle_beta 90.000000
_cell_angle_gamma 90.000000
_cell_volume 6135.262782
_symmetry_space_group_name_H-M "I 41/A C D"
_symmetry_group_IT_number 142
_space_group.IT_coordinate_system_code '2'
_symmetry_cell_setting 'tetragonal'
loop_
_space_group_symop_operation_xyz
x,y,z
1/4-y,3/4+x,1/4+z
-x,1/2-y,z
1/4+y,1/4-x,3/4+z
x,-y,1/2-z
1/2-x,y,-z
3/4+y,1/4+x,1/4-z
1/4-y,1/4-x,1/4-z
-x,-y,-z
3/4+y,1/4-x,3/4-z
x,1/2+y,-z
3/4-y,3/4+x,1/4-z
-x,y,1/2+z
1/2+x,-y,z
1/4-y,3/4-x,3/4+z
3/4+y,3/4+x,3/4+z
1/2+x,1/2+y,1/2+z
3/4-y,1/4+x,3/4+z
1/2-x,-y,1/2+z
3/4+y,3/4-x,1/4+z
1/2+x,1/2-y,-z
-x,1/2+y,1/2-z
1/4+y,3/4+x,3/4-z
3/4-y,3/4-x,3/4-z
1/2-x,1/2-y,1/2-z
1/4+y,3/4-x,1/4-z
1/2+x,y,1/2-z
1/4-y,1/4+x,3/4-z
1/2-x,1/2+y,z
x,1/2-y,1/2+z
3/4-y,1/4-x,1/4+z
1/4+y,1/4+x,1/4+z
loop_
_atom_site_type_symbol
_atom_site_label
_atom_site_fract_x
_atom_site_fract_y
_atom_site_fract_z
Si Si1 0.109961 0.359961 0.625000
Si Si2 0.072943 0.222302 0.278309
Si Si3 0.543958 0.499505 0.911186
Si Si4 0.250000 0.808354 0.000000
Si Si5 0.114894 0.139162 0.806488
O O1 0.085191 0.317969 0.542657
O O2 0.184049 0.340082 0.652352
O O3 0.105488 0.188903 0.363840
O O4 0.107742 0.292061 0.250123
O O5 0.000000 0.250000 0.291952
O O6 0.490394 0.498368 0.833286
O O7 0.595522 0.561762 0.905512
O O8 0.500000 0.500000 0.000000
O O9 0.318662 0.851763 0.990420
#
# Coordination Sequence:
#
# PCOD9574202 Si02
#       5
#    16  32  32  16  32
#     4  12  25  40  68 104 136 190 236 299 360 430
#     4  12  21  40  70 100 135 179 248 301 347 421
#     4  12  25  45  67 103 148 182 241 303 352 434
#     4  12  26  44  74 102 140 196 230 296 382 418
#     4  12  22  44  68 100 141 189 233 298 363 429
#
# _framework density 20.863002000000002
#
# number of rings (size 3 to 8) (size 9 to 14) (size 15 to 20)
#    0.000    0.000    7.500    3.375    0.000    1.000 
#    0.000    6.250    0.000    0.000    0.000    0.000 
#    0.000    0.000    0.000    0.000    0.000    0.000 
#
# Total GULP energy -356864.433794 kJ/mol
# GULP energy per Si atom -5576.006778 kJ/mol
# Density = 2.081552 g / cm^3
# Si number density = 20.863002 Si / 1000 Ang^3
#
#
#
# Elastic Constant Matrix: (Units=GPa)
#
#
# Indices 1 2 3 4 5 6 
#
# 1 151.0251 91.6116 42.3205 0.0000 0.0000 0.0000
# 2 91.6116 151.0251 42.3205 0.0000 0.0000 0.0000
# 3 42.3205 42.3205 106.5879 0.0000 0.0000 0.0000
# 4 0.0000 0.0000 0.0000 29.2097 0.0000 0.0000
# 5 0.0000 0.0000 0.0000 0.0000 29.2097 0.0000
# 6 0.0000 0.0000 0.0000 0.0000 0.0000 41.3113
#
#
#
# Elastic Compliance Matrix: (Units=1/GPa)
#
#
# Indices 1 2 3 4 5 6 
#
# 1 0.010808 -0.006024 -0.001899 0.000000 0.000000 0.000000
# 2 -0.006024 0.010808 -0.001899 0.000000 0.000000 0.000000
# 3 -0.001899 -0.001899 0.010890 0.000000 0.000000 0.000000
# 4 0.000000 0.000000 0.000000 0.034235 0.000000 0.000000
# 5 0.000000 0.000000 0.000000 0.000000 0.034235 0.000000
# 6 0.000000 0.000000 0.000000 0.000000 0.000000 0.024206
#
#
# Mechanical properties :
#
#
# Convention : Reuss Voigt Hill
#
# Bulk Modulus (GPa) = 77.75817 84.57148 81.16482
# Shear Modulus (GPa) = 33.53133 35.43850 34.48491
#
# Velocity S-wave (km/s) = 4.01336 4.12591 4.07003
# Velocity P-wave (km/s) = 7.66993 7.95752 7.81505
#
# Compressibility (1/GPa) = 0.01286038
#
# Stress axis : x y z
#
# Youngs Moduli (GPa) = 92.52750 92.52750 91.82490
#
# Poissons Ratio (x) = 0.55735 0.17442
# Poissons Ratio (y) = 0.55735 0.17442
# Poissons Ratio (z) = 0.17575 0.17575
#
# Static dielectric constant tensor:
#      x y z
#    x 1.829330 0.000000 0.000000 
#    y 0.000000 1.829330 0.000000 
#    z 0.000000 0.000000 2.550150 
# 
# From -- ./inp_files/5124.got.cif
#   From: 2010.05.17/outbox.cif.g08.bks.cpg/sg142_3_cif.got.tgz:5124.got - 2010.05.20 13:39:18.
