data_PCOD9574890
_publ_section_title
;
Structure prediction by ZEFSAII (Michael W. Deem and Ramdas Pophale) SiO2 
 PCOD9574890
Probable space group: P -3
;
_chemical_formula_sum "Si O2"
_cell_formula_units_Z 48
_cell_length_a 12.932252
_cell_length_b 12.932252
_cell_length_c 20.877836
_cell_angle_alpha 90.000000
_cell_angle_beta 90.000000
_cell_angle_gamma 120.000000
_cell_volume 3023.879153
_symmetry_space_group_name_H-M "P -3"
_symmetry_group_IT_number 147
_symmetry_cell_setting 'hexagonal'
loop_
_space_group_symop_operation_xyz
x,y,z
-y,x-y,z
-x+y,-x,z
-x,-y,-z
y,-x+y,-z
x-y,x,-z
loop_
_atom_site_type_symbol
_atom_site_label
_atom_site_fract_x
_atom_site_fract_y
_atom_site_fract_z
Si Si1 0.666476 0.578449 0.701680
Si Si2 0.754800 0.000494 0.180830
Si Si3 0.754799 0.754305 0.180830
Si Si4 0.421062 0.333451 0.060419
Si Si5 0.421551 0.333524 0.701680
Si Si6 0.332769 0.421171 0.443027
Si Si7 0.333451 0.421062 0.939581
Si Si8 0.332769 0.911599 0.443027
O O1 0.696436 0.677520 0.755258
O O2 0.541174 0.458826 0.713960
O O3 0.774437 0.548874 0.703204
O O4 0.664326 0.621589 0.629305
O O5 0.757993 0.878996 0.169244
O O6 0.887518 0.112482 0.187853
O O7 0.693411 0.029610 0.121841
O O8 0.677519 0.696436 0.244742
O O9 0.693411 0.663802 0.121841
O O10 0.551013 0.448987 0.071258
O O11 0.431507 0.215754 0.048650
O O12 0.362742 0.362742 0.000000
O O13 0.378411 0.335674 0.629305
O O14 0.211520 0.423040 0.450654
O O15 0.445034 0.554967 0.446997
O O16 0.347686 0.347686 0.500000
#
# Coordination Sequence:
#
# PCOD9574890 Si02
#       8
#     6   6   6   6   6   6   6   6
#     4   9  17  30  48  69  91 117 151 191 233 273
#     4  10  20  33  49  69  94 124 156 189 226 270
#     4  10  20  33  49  69  94 124 156 189 226 270
#     4  10  20  34  52  73  97 124 154 189 228 270
#     4   9  17  30  48  69  91 117 151 191 233 273
#     4   9  17  29  46  67  91 119 151 188 229 273
#     4  10  20  34  52  73  97 124 154 189 228 270
#     4   9  17  29  46  67  91 119 151 188 229 273
#
# _framework density 15.873649
#
# number of rings (size 3 to 8) (size 9 to 14) (size 15 to 20)
#    0.000    2.500    0.000    2.500    0.000    3.000 
#    0.000    0.000    0.000   12.750    0.000    0.000 
#    0.000    0.000    0.000    0.000    0.000    0.000 
#
# Total GULP energy -267592.162498 kJ/mol
# GULP energy per Si atom -5574.836719 kJ/mol
# Density = 1.583752 g / cm^3
# Si number density = 15.873649 Si / 1000 Ang^3
#
#
#
# Elastic Constant Matrix: (Units=GPa)
#
#
# Indices 1 2 3 4 5 6 
#
# 1 101.8146 70.7777 84.4508 4.4166 -0.0001 0.0000
# 2 70.7777 101.8146 84.4508 -4.4166 0.0001 0.0000
# 3 84.4508 84.4508 134.4846 0.0000 0.0000 0.0000
# 4 4.4166 -4.4166 0.0000 26.1028 0.0000 0.0001
# 5 -0.0001 0.0001 0.0000 0.0000 26.1028 4.4166
# 6 0.0000 0.0000 0.0000 0.0001 4.4166 15.5185
#
#
#
# Elastic Compliance Matrix: (Units=1/GPa)
#
#
# Indices 1 2 3 4 5 6 
#
# 1 0.024440 -0.009409 -0.009439 -0.005727 0.000000 0.000000
# 2 -0.009409 0.024440 -0.009439 0.005727 0.000000 0.000000
# 3 -0.009439 -0.009439 0.019290 0.000000 0.000000 0.000000
# 4 -0.005727 0.005727 0.000000 0.040248 0.000000 0.000000
# 5 0.000000 0.000000 0.000000 0.000000 0.040248 -0.011455
# 6 0.000000 0.000000 0.000000 0.000000 -0.011455 0.067699
#
#
# Mechanical properties :
#
#
# Convention : Reuss Voigt Hill
#
# Bulk Modulus (GPa) = 86.23051 90.83027 88.53039
# Shear Modulus (GPa) = 18.06316 20.10712 19.08514
#
# Velocity S-wave (km/s) = 3.37699 3.56293 3.47120
# Velocity P-wave (km/s) = 8.34544 8.61806 8.48285
#
# Compressibility (1/GPa) = 0.01159682
#
# Stress axis : x y z
#
# Youngs Moduli (GPa) = 40.91592 40.91592 51.83969
#
# Poissons Ratio (x) = 0.38499 0.48931
# Poissons Ratio (y) = 0.38499 0.48931
# Poissons Ratio (z) = 0.38620 0.38620
#
# Static dielectric constant tensor:
#      x y z
#    x 1.502030 0.000000 0.000000 
#    y 0.000000 1.502030 0.000000 
#    z 0.000000 0.000000 1.529530 
# 
# From -- ./inp_files/1087.got.cif
#   From: 2010.05.17/outbox.cif.g08.bks.cpg/sg147_cif.got.tgz:1087.got - 2010.05.20 13:49:32.
