data_PCOD9574310
_publ_section_title
;
Structure prediction by ZEFSAII (Michael W. Deem and Ramdas Pophale) SiO2 
 PCOD9574310
Probable space group: P 31
;
_chemical_formula_sum "Si O2"
_cell_formula_units_Z 24
_cell_length_a 8.715278
_cell_length_b 8.715278
_cell_length_c 17.691507
_cell_angle_alpha 90.000000
_cell_angle_beta 90.000000
_cell_angle_gamma 120.000000
_cell_volume 1163.745326
_symmetry_space_group_name_H-M "P 31"
_symmetry_group_IT_number 144
_symmetry_cell_setting 'hexagonal'
loop_
_space_group_symop_operation_xyz
x,y,z
-y,x-y,1/3+z
-x+y,-x,2/3+z
loop_
_atom_site_type_symbol
_atom_site_label
_atom_site_fract_x
_atom_site_fract_y
_atom_site_fract_z
Si Si1 1.000000 0.260919 0.830170
Si Si2 0.541175 0.620841 0.435276
Si Si3 0.822334 0.374989 0.961071
Si Si4 0.894442 0.695403 0.489318
Si Si5 0.636714 1.000000 0.996837
Si Si6 0.374990 0.822335 0.365936
Si Si7 0.695403 0.894442 0.837689
Si Si8 0.458825 0.079666 0.225064
O O1 0.151477 0.221943 0.861625
O O2 0.075645 0.408454 0.764760
O O3 0.924354 0.332808 0.895580
O O4 0.848522 0.070465 0.798715
O O5 0.566766 0.505460 0.370108
O O6 0.710420 0.693932 0.490437
O O7 0.515582 0.770634 0.395217
O O8 0.360875 0.492906 0.479300
O O9 0.644589 0.183827 0.977216
O O10 0.770633 0.515581 0.931789
O O11 0.951160 0.717059 0.401367
O O12 0.867970 0.507094 0.514373
O O13 0.717058 0.951160 0.925639
O O14 0.460763 0.816172 0.016457
O O15 0.433235 0.938694 0.290232
O O16 0.693932 0.710421 0.836569
#
# Coordination Sequence:
#
# PCOD9574310 Si02
#       8
#     3   3   3   3   3   3   3   3
#     4  10  20  38  60  86 122 152 194 250 300 354
#     4  11  22  38  60  85 117 157 201 243 302 361
#     4  10  21  38  60  86 118 159 201 250 299 356
#     4  10  20  36  58  85 116 155 195 246 299 359
#     4   8  18  36  56  78 112 154 196 238 292 342
#     4  10  21  38  60  86 118 159 201 250 299 356
#     4  10  20  36  58  85 116 155 195 246 299 359
#     4  11  22  38  60  85 117 157 201 243 302 361
#
# _framework density 20.623068
#
# number of rings (size 3 to 8) (size 9 to 14) (size 15 to 20)
#    0.000    2.000    0.000    4.500    0.000    3.000 
#    0.000    2.500    0.000    6.000    0.000    0.000 
#    0.000    0.000    0.000    0.000    0.000    0.000 
#
# Total GULP energy -133826.525588 kJ/mol
# GULP energy per Si atom -5576.105233 kJ/mol
# Density = 2.057613 g / cm^3
# Si number density = 20.623068 Si / 1000 Ang^3
#
#
#
# Elastic Constant Matrix: (Units=GPa)
#
#
# Indices 1 2 3 4 5 6 
#
# 1 89.1068 38.5538 17.8566 -8.5122 0.0000 0.0000
# 2 38.5538 89.1068 17.8566 8.5122 0.0000 0.0000
# 3 17.8566 17.8566 55.2840 0.0000 0.0000 0.0000
# 4 -8.5122 8.5122 0.0000 26.4762 0.0000 0.0000
# 5 0.0000 0.0000 0.0000 0.0000 26.4762 -8.5122
# 6 0.0000 0.0000 0.0000 0.0000 -8.5122 25.2765
#
#
#
# Elastic Compliance Matrix: (Units=1/GPa)
#
#
# Indices 1 2 3 4 5 6 
#
# 1 0.015397 -0.006786 -0.002781 0.007132 0.000000 0.000000
# 2 -0.006786 0.015397 -0.002781 -0.007132 0.000000 0.000000
# 3 -0.002781 -0.002781 0.019885 0.000000 0.000000 0.000000
# 4 0.007132 -0.007132 0.000000 0.042356 0.000000 0.000000
# 5 0.000000 0.000000 0.000000 0.000000 0.042356 0.014264
# 6 0.000000 0.000000 0.000000 0.000000 0.014264 0.044366
#
#
# Mechanical properties :
#
#
# Convention : Reuss Voigt Hill
#
# Bulk Modulus (GPa) = 38.48794 42.44796 40.46795
# Shear Modulus (GPa) = 23.46152 26.26116 24.86134
#
# Velocity S-wave (km/s) = 3.37654 3.57233 3.47581
# Velocity P-wave (km/s) = 5.82275 6.13537 5.98111
#
# Compressibility (1/GPa) = 0.02598217
#
# Stress axis : x y z
#
# Youngs Moduli (GPa) = 64.94697 64.94697 50.28861
#
# Poissons Ratio (x) = 0.44072 0.13988
# Poissons Ratio (y) = 0.44072 0.13988
# Poissons Ratio (z) = 0.18065 0.18065
#
# Static dielectric constant tensor:
#      x y z
#    x 1.773710 0.000000 0.000000 
#    y 0.000000 1.773710 0.000000 
#    z 0.000000 0.000000 1.748450 
# 
# From -- ./inp_files/797.got.cif
#   From: 2010.05.17/outbox.cif.g08.bks.cpg/sg144_cif.got.tgz:797.got - 2010.05.20 13:46:34.
