data_PCOD9574775
_publ_section_title
;
Structure prediction by ZEFSAII (Michael W. Deem and Ramdas Pophale) SiO2 
 PCOD9574775
Probable space group: R 3
;
_chemical_formula_sum "Si O2"
_cell_formula_units_Z 33
_cell_length_a 12.532667
_cell_length_b 12.532667
_cell_length_c 9.309546
_cell_angle_alpha 90.000000
_cell_angle_beta 90.000000
_cell_angle_gamma 120.000000
_cell_volume 1266.327781
_symmetry_space_group_name_H-M "R 3"
_symmetry_group_IT_number 146
_symmetry_cell_setting 'hexagonal'
loop_
_space_group_symop_operation_xyz
x,y,z
-y,x-y,z
-x+y,-x,z
2/3+x,1/3+y,1/3+z
2/3-y,1/3+x-y,1/3+z
2/3-x+y,1/3-x,1/3+z
1/3+x,2/3+y,2/3+z
1/3-y,2/3+x-y,2/3+z
1/3-x+y,2/3-x,2/3+z
loop_
_atom_site_type_symbol
_atom_site_label
_atom_site_fract_x
_atom_site_fract_y
_atom_site_fract_z
Si Si1 0.374025 0.026145 0.658730
Si Si2 0.333334 0.666668 0.159785
Si Si3 0.357003 0.471386 0.670639
Si Si4 0.000000 0.000000 0.830091
Si Si5 0.857224 0.547509 0.648689
O O1 0.408371 0.166866 0.645739
O O2 0.319011 0.003926 0.824457
O O3 0.461159 0.966169 0.673035
O O4 0.333334 0.666667 0.328177
O O5 0.464813 0.772649 0.099482
O O6 0.316084 0.538336 0.557702
O O7 0.337071 0.334014 0.658905
O O8 0.307112 0.484094 0.824253
#
# Coordination Sequence:
#
# PCOD9574775 Si02
#       5
#     9   3   9   3   9
#     4  10  24  44  76 113 162 215 274 349 423 501
#     4  12  25  50  82 114 160 224 286 345 421 497
#     4  11  26  47  78 117 162 215 279 342 423 503
#     4  12  31  47  82 126 169 221 274 357 421 518
#     4  11  24  48  76 114 159 219 271 349 414 497
#
# _framework density 26.059602999999999
#
# number of rings (size 3 to 8) (size 9 to 14) (size 15 to 20)
#    0.000    1.091    2.727    1.636    7.636    4.364 
#    0.000    0.000    0.000    0.000    0.000    0.000 
#    0.000    0.000    0.000    0.000    0.000    0.000 
#
# Total GULP energy -61267.402546 kJ/mol
# GULP energy per Si atom -5569.763868 kJ/mol
# Density = 2.600029 g / cm^3
# Si number density = 26.059603 Si / 1000 Ang^3
#
#
#
# Elastic Constant Matrix: (Units=GPa)
#
#
# Indices 1 2 3 4 5 6 
#
# 1 81.7062 39.3198 43.2805 2.0104 1.7666 0.0000
# 2 39.3198 81.7060 43.2803 -2.0107 -1.7665 0.0003
# 3 43.2805 43.2803 273.9606 -0.0001 -0.0001 0.0000
# 4 2.0104 -2.0107 -0.0001 29.8226 0.0001 -1.7667
# 5 1.7666 -1.7665 -0.0001 0.0001 29.8225 2.0105
# 6 0.0000 0.0003 0.0000 -1.7667 2.0105 21.1932
#
#
#
# Elastic Compliance Matrix: (Units=1/GPa)
#
#
# Indices 1 2 3 4 5 6 
#
# 1 0.016589 -0.007274 -0.001472 -0.001609 -0.001414 0.000000
# 2 -0.007274 0.016589 -0.001472 0.001609 0.001414 0.000000
# 3 -0.001472 -0.001472 0.004115 0.000000 0.000000 0.000000
# 4 -0.001609 0.001609 0.000000 0.033916 0.000000 0.002827
# 5 -0.001414 0.001414 0.000000 0.000000 0.033916 -0.003217
# 6 0.000000 0.000000 0.000000 0.002827 -0.003217 0.047726
#
#
# Mechanical properties :
#
#
# Convention : Reuss Voigt Hill
#
# Bulk Modulus (GPa) = 59.31509 76.57044 67.94277
# Shear Modulus (GPa) = 27.94775 36.93380 32.44077
#
# Velocity S-wave (km/s) = 3.27839 3.76876 3.53210
# Velocity P-wave (km/s) = 6.09436 6.95591 6.53934
#
# Compressibility (1/GPa) = 0.01685912
#
# Stress axis : x y z
#
# Youngs Moduli (GPa) = 60.28060 60.28049 243.00532
#
# Poissons Ratio (x) = 0.43847 0.35762
# Poissons Ratio (y) = 0.43847 0.35761
# Poissons Ratio (z) = 0.08871 0.08871
#
# Static dielectric constant tensor:
#      x y z
#    x 2.216950 0.000000 0.000000 
#    y 0.000000 2.216960 0.000000 
#    z 0.000000 0.000000 2.197190 
# 
# From -- ./inp_files/540.got.cif
#   From: 2010.05.17/outbox.cif.g08.bks.cpg/sg146_cif.got.tgz:540.got - 2010.05.20 13:48:23.
