data_PCOD9574617
_publ_section_title
;
Structure prediction by ZEFSAII (Michael W. Deem and Ramdas Pophale) SiO2 
 PCOD9574617
Probable space group: P 32
;
_chemical_formula_sum "Si O2"
_cell_formula_units_Z 12
_cell_length_a 7.311571
_cell_length_b 7.311571
_cell_length_c 9.106176
_cell_angle_alpha 90.000000
_cell_angle_beta 90.000000
_cell_angle_gamma 120.000000
_cell_volume 421.587839
_symmetry_space_group_name_H-M "P 32"
_symmetry_group_IT_number 145
_symmetry_cell_setting 'hexagonal'
loop_
_space_group_symop_operation_xyz
x,y,z
-y,x-y,2/3+z
-x+y,-x,1/3+z
loop_
_atom_site_type_symbol
_atom_site_label
_atom_site_fract_x
_atom_site_fract_y
_atom_site_fract_z
Si Si1 0.547043 0.675513 0.446720
Si Si2 0.411562 0.238818 0.558194
Si Si3 0.681696 0.900760 0.958757
Si Si4 0.357108 0.267107 0.970581
O O1 0.511542 0.003316 0.233849
O O2 0.329351 0.558738 0.353104
O O3 0.721919 0.693619 0.328546
O O4 0.310132 0.206253 0.396406
O O5 0.611305 0.211498 0.586868
O O6 0.231514 0.032281 0.640363
O O7 0.246870 0.345973 0.855096
O O8 0.680924 0.979935 0.796376
#
# Coordination Sequence:
#
# PCOD9574617 Si02
#       4
#     3   3   3   3
#     4  10  27  53  91 137 182 254 306 389 479 565
#     4  10  26  52  89 128 188 240 318 380 468 568
#     4  10  25  51  88 136 172 254 308 386 472 545
#     4  12  24  54  92 133 188 244 316 381 481 564
#
# _framework density 28.463819000000001
#
# number of rings (size 3 to 8) (size 9 to 14) (size 15 to 20)
#    1.500    0.000    0.000    3.000    7.000    0.000 
#    0.000   30.000    0.000    0.000    0.000    0.000 
#    0.000    0.000    0.000    0.000    0.000    0.000 
#
# Total GULP energy -67189.469747 kJ/mol
# GULP energy per Si atom -5599.122479 kJ/mol
# Density = 2.839903 g / cm^3
# Si number density = 28.463819 Si / 1000 Ang^3
#
#
#
# Elastic Constant Matrix: (Units=GPa)
#
#
# Indices 1 2 3 4 5 6 
#
# 1 147.3856 30.9944 46.2132 -0.2312 17.1418 0.0000
# 2 30.9944 147.3856 46.2132 0.2312 -17.1418 0.0000
# 3 46.2132 46.2132 120.7029 0.0000 0.0000 0.0000
# 4 -0.2312 0.2312 0.0000 58.0986 0.0000 -17.1418
# 5 17.1418 -17.1418 0.0000 0.0000 58.0986 -0.2312
# 6 0.0000 0.0000 0.0000 -17.1418 -0.2312 58.1956
#
#
#
# Elastic Compliance Matrix: (Units=1/GPa)
#
#
# Indices 1 2 3 4 5 6 
#
# 1 0.008201 -0.001208 -0.002678 0.000037 -0.002776 0.000000
# 2 -0.001208 0.008201 -0.002678 -0.000037 0.002776 0.000000
# 3 -0.002678 -0.002678 0.010335 0.000000 0.000000 0.000000
# 4 0.000037 -0.000037 0.000000 0.018851 0.000000 0.005553
# 5 -0.002776 0.002776 0.000000 0.000000 0.018851 0.000075
# 6 0.000000 0.000000 0.000000 0.005553 0.000075 0.018819
#
#
# Mechanical properties :
#
#
# Convention : Reuss Voigt Hill
#
# Bulk Modulus (GPa) = 73.46630 73.59061 73.52845
# Shear Modulus (GPa) = 49.54307 54.34879 51.94593
#
# Velocity S-wave (km/s) = 4.17653 4.37441 4.27661
# Velocity P-wave (km/s) = 7.00888 7.17106 7.09043
#
# Compressibility (1/GPa) = 0.01361168
#
# Stress axis : x y z
#
# Youngs Moduli (GPa) = 121.92905 121.92905 96.75782
#
# Poissons Ratio (x) = 0.14731 0.25907
# Poissons Ratio (y) = 0.14731 0.25907
# Poissons Ratio (z) = 0.32647 0.32647
#
# Static dielectric constant tensor:
#      x y z
#    x 2.207850 0.000000 0.000000 
#    y 0.000000 2.207850 0.000000 
#    z 0.000000 0.000000 2.264010 
# 
# From -- ./inp_files/228.got.cif
#   From: 2010.05.17/outbox.cif.g08.bks.cpg/sg145_cif.got.tgz:228.got - 2010.05.20 13:47:28.
