data_PCOD9574611
_publ_section_title
;
Structure prediction by ZEFSAII (Michael W. Deem and Ramdas Pophale) SiO2 
 PCOD9574611
Probable space group: P 32
;
_chemical_formula_sum "Si O2"
_cell_formula_units_Z 18
_cell_length_a 11.922786
_cell_length_b 11.922786
_cell_length_c 5.175360
_cell_angle_alpha 90.000000
_cell_angle_beta 90.000000
_cell_angle_gamma 120.000000
_cell_volume 637.128004
_symmetry_space_group_name_H-M "P 32"
_symmetry_group_IT_number 145
_symmetry_cell_setting 'hexagonal'
loop_
_space_group_symop_operation_xyz
x,y,z
-y,x-y,2/3+z
-x+y,-x,1/3+z
loop_
_atom_site_type_symbol
_atom_site_label
_atom_site_fract_x
_atom_site_fract_y
_atom_site_fract_z
Si Si1 0.551570 0.204559 0.377100
Si Si2 0.503233 0.504579 0.111723
Si Si3 0.167848 0.788424 0.385489
Si Si4 0.875852 0.991387 0.907049
Si Si5 0.190044 0.594757 0.885074
Si Si6 0.291801 0.035757 0.053388
O O1 0.659694 0.236886 0.159881
O O2 0.554996 0.425155 0.946054
O O3 0.366784 0.012983 0.821056
O O4 0.361623 0.450329 0.973391
O O5 0.445396 0.502682 0.404038
O O6 0.409016 0.122146 0.253703
O O7 0.093569 0.816845 0.609844
O O8 0.314966 0.823173 0.435930
O O9 0.192340 0.895607 0.172561
O O10 0.930489 0.900328 0.806024
O O11 0.894429 0.101471 0.698448
O O12 0.296367 0.733454 0.989982
#
# Coordination Sequence:
#
# PCOD9574611 Si02
#       6
#     3   3   3   3   3   3
#     4  12  29  51  75 113 153 200 256 322 385 464
#     4  11  26  44  77 112 154 198 244 316 386 457
#     4  10  24  45  72 111 147 197 248 308 379 452
#     4  10  24  51  72 104 149 195 256 307 367 451
#     4  11  23  44  71 109 156 193 250 309 379 448
#     4  10  26  49  77 113 147 203 258 310 392 454
#
# _framework density 28.251781999999999
#
# number of rings (size 3 to 8) (size 9 to 14) (size 15 to 20)
#    0.000    1.333    1.667    1.000   14.000    2.667 
#   12.000    0.000    0.000    0.000    0.000    0.000 
#    0.000    0.000    0.000    0.000    0.000    0.000 
#
# Total GULP energy -100477.642578 kJ/mol
# GULP energy per Si atom -5582.091254 kJ/mol
# Density = 2.818748 g / cm^3
# Si number density = 28.251782 Si / 1000 Ang^3
#
#
#
# Elastic Constant Matrix: (Units=GPa)
#
#
# Indices 1 2 3 4 5 6 
#
# 1 161.0492 54.8401 48.2217 11.1127 0.0874 0.0000
# 2 54.8401 161.0492 48.2217 -11.1127 -0.0874 0.0000
# 3 48.2217 48.2217 115.7418 0.0000 0.0000 0.0000
# 4 11.1127 -11.1127 0.0000 43.6350 0.0000 -0.0874
# 5 0.0874 -0.0874 0.0000 0.0000 43.6350 11.1127
# 6 0.0000 0.0000 0.0000 -0.0874 11.1127 53.1046
#
#
#
# Elastic Compliance Matrix: (Units=1/GPa)
#
#
# Indices 1 2 3 4 5 6 
#
# 1 0.007818 -0.002127 -0.002371 -0.002533 -0.000020 0.000000
# 2 -0.002127 0.007818 -0.002371 0.002533 0.000020 0.000000
# 3 -0.002371 -0.002371 0.010616 0.000000 0.000000 0.000000
# 4 -0.002533 0.002533 0.000000 0.024208 0.000000 0.000040
# 5 -0.000020 0.000020 0.000000 0.000000 0.024208 -0.005066
# 6 0.000000 0.000000 0.000000 0.000040 -0.005066 0.019891
#
#
# Mechanical properties :
#
#
# Convention : Reuss Voigt Hill
#
# Bulk Modulus (GPa) = 79.91301 82.26746 81.09023
# Shear Modulus (GPa) = 44.45694 47.17872 45.81783
#
# Velocity S-wave (km/s) = 3.97116 4.09092 4.03149
# Velocity P-wave (km/s) = 7.02668 7.17613 7.10180
#
# Compressibility (1/GPa) = 0.01251361
#
# Stress axis : x y z
#
# Youngs Moduli (GPa) = 127.90420 127.90420 94.19992
#
# Poissons Ratio (x) = 0.27206 0.22336
# Poissons Ratio (y) = 0.27206 0.22336
# Poissons Ratio (z) = 0.30328 0.30328
#
# Static dielectric constant tensor:
#      x y z
#    x 2.270460 0.000000 0.000000 
#    y 0.000000 2.270460 0.000000 
#    z 0.000000 0.000000 2.421550 
# 
# From -- ./inp_files/316.got.cif
#   From: 2010.05.17/outbox.cif.g08.bks.cpg/sg145_cif.got.tgz:316.got - 2010.05.20 13:47:28.
