data_PCOD9574883
_publ_section_title
;
Structure prediction by ZEFSAII (Michael W. Deem and Ramdas Pophale) SiO2 
 PCOD9574883
Probable space group: P -3
;
_chemical_formula_sum "Si O2"
_cell_formula_units_Z 42
_cell_length_a 13.021387
_cell_length_b 13.021387
_cell_length_c 18.107054
_cell_angle_alpha 90.000000
_cell_angle_beta 90.000000
_cell_angle_gamma 120.000000
_cell_volume 2658.844394
_symmetry_space_group_name_H-M "P -3"
_symmetry_group_IT_number 147
_symmetry_cell_setting 'hexagonal'
loop_
_space_group_symop_operation_xyz
x,y,z
-y,x-y,z
-x+y,-x,z
-x,-y,-z
y,-x+y,-z
x-y,x,-z
loop_
_atom_site_type_symbol
_atom_site_label
_atom_site_fract_x
_atom_site_fract_y
_atom_site_fract_z
Si Si1 0.908947 0.576021 0.801517
Si Si2 0.575036 0.908635 0.369432
Si Si3 0.333568 0.422746 0.932055
Si Si4 1.000000 0.243944 0.500000
Si Si5 0.089178 0.422746 0.932055
Si Si6 0.666401 0.091365 0.630569
Si Si7 0.576021 0.908947 0.198483
O O1 0.942843 0.610855 0.715995
O O2 0.879353 0.439677 0.808728
O O3 0.791997 0.583993 0.818385
O O4 0.015202 0.651341 0.857570
O O5 0.458621 0.917242 0.384302
O O6 0.545343 0.772672 0.376327
O O7 0.610855 0.942843 0.284005
O O8 0.676948 0.983622 0.427967
O O9 0.207960 0.415921 0.937338
O O10 0.440805 0.559195 0.933204
O O11 0.358363 0.358363 0.000000
O O12 0.116328 0.232655 0.506737
O O13 0.016378 0.323052 0.427966
O O14 0.015203 0.363862 0.857570
#
# Coordination Sequence:
#
# PCOD9574883 Si02
#       7
#     6   6   6   6   6   6   6
#     4   9  17  30  50  74  97 121 150 187 231 278
#     4   9  17  30  49  72  95 119 150 191 237 280
#     4  10  20  33  50  71  95 123 154 190 230 272
#     4  10  20  32  46  64  90 126 164 198 230 270
#     4  10  20  33  50  71  95 123 154 190 230 272
#     4   9  17  30  49  72  95 119 150 191 237 280
#     4   9  17  30  50  74  97 121 150 187 231 278
#
# _framework density 15.796336
#
# number of rings (size 3 to 8) (size 9 to 14) (size 15 to 20)
#    0.000    2.571    0.000    2.286    0.000    3.429 
#    0.000    2.857    0.000    5.714    0.000    0.000 
#    0.000    0.000    0.000    0.000    0.000    0.000 
#
# Total GULP energy -234183.357386 kJ/mol
# GULP energy per Si atom -5575.794223 kJ/mol
# Density = 1.576038 g / cm^3
# Si number density = 15.796336 Si / 1000 Ang^3
#
#
#
# Elastic Constant Matrix: (Units=GPa)
#
#
# Indices 1 2 3 4 5 6 
#
# 1 112.0647 76.5931 82.5460 -1.2193 0.0000 0.0000
# 2 76.5931 112.0647 82.5460 1.2193 0.0000 0.0000
# 3 82.5460 82.5460 113.8629 0.0000 0.0000 0.0000
# 4 -1.2193 1.2193 0.0000 21.6730 0.0000 0.0000
# 5 0.0000 0.0000 0.0000 0.0000 21.6730 -1.2193
# 6 0.0000 0.0000 0.0000 0.0000 -1.2193 17.7358
#
#
#
# Elastic Compliance Matrix: (Units=1/GPa)
#
#
# Indices 1 2 3 4 5 6 
#
# 1 0.021400 -0.006901 -0.010511 0.001592 0.000000 0.000000
# 2 -0.006901 0.021400 -0.010511 -0.001592 0.000000 0.000000
# 3 -0.010511 -0.010511 0.024022 0.000000 0.000000 0.000000
# 4 0.001592 -0.001592 0.000000 0.046319 0.000000 0.000000
# 5 0.000000 0.000000 0.000000 0.000000 0.046319 0.003184
# 6 0.000000 0.000000 0.000000 0.000000 0.003184 0.056602
#
#
# Mechanical properties :
#
#
# Convention : Reuss Voigt Hill
#
# Bulk Modulus (GPa) = 91.10761 91.26249 91.18505
# Shear Modulus (GPa) = 18.14438 18.63685 18.39061
#
# Velocity S-wave (km/s) = 3.39284 3.43858 3.41579
# Velocity P-wave (km/s) = 8.55279 8.58283 8.56782
#
# Compressibility (1/GPa) = 0.01097603
#
# Stress axis : x y z
#
# Youngs Moduli (GPa) = 46.72946 46.72946 41.62789
#
# Poissons Ratio (x) = 0.32249 0.43754
# Poissons Ratio (y) = 0.32249 0.43754
# Poissons Ratio (z) = 0.49117 0.49117
#
# Static dielectric constant tensor:
#      x y z
#    x 1.497070 0.000000 0.000000 
#    y 0.000000 1.497070 0.000000 
#    z 0.000000 0.000000 1.536520 
# 
# From -- ./inp_files/1020.got.cif
#   From: 2010.05.17/outbox.cif.g08.bks.cpg/sg147_cif.got.tgz:1020.got - 2010.05.20 13:49:32.
