data_PCOD9574739
_publ_section_title
;
Structure prediction by ZEFSAII (Michael W. Deem and Ramdas Pophale) SiO2 
 PCOD9574739
Probable space group: R 3
;
_chemical_formula_sum "Si O2"
_cell_formula_units_Z 42
_cell_length_a 12.290973
_cell_length_b 12.290973
_cell_length_c 16.169629
_cell_angle_alpha 90.000000
_cell_angle_beta 90.000000
_cell_angle_gamma 120.000000
_cell_volume 2115.452199
_symmetry_space_group_name_H-M "R 3"
_symmetry_group_IT_number 146
_symmetry_cell_setting 'hexagonal'
loop_
_space_group_symop_operation_xyz
x,y,z
-y,x-y,z
-x+y,-x,z
2/3+x,1/3+y,1/3+z
2/3-y,1/3+x-y,1/3+z
2/3-x+y,1/3-x,1/3+z
1/3+x,2/3+y,2/3+z
1/3-y,2/3+x-y,2/3+z
1/3-x+y,2/3-x,2/3+z
loop_
_atom_site_type_symbol
_atom_site_label
_atom_site_fract_x
_atom_site_fract_y
_atom_site_fract_z
Si Si1 0.584601 0.937067 0.454530
Si Si2 0.461205 0.114353 0.171502
Si Si3 0.333333 0.666667 0.614183
Si Si4 0.447686 0.127871 0.584307
Si Si5 0.000000 0.000000 0.141626
Si Si6 0.980868 0.729600 0.301277
O O1 0.441548 0.907528 0.448496
O O2 0.785858 0.329020 0.511995
O O3 0.588874 0.808385 0.458869
O O4 0.666666 0.018643 0.377903
O O5 0.547475 0.209830 0.243814
O O6 0.333333 0.005268 0.211238
O O7 0.702505 0.035837 0.211237
O O8 0.333334 0.666667 0.711238
O O9 0.534020 0.092472 0.640646
O O10 0.411125 0.219510 0.630273
#
# Coordination Sequence:
#
# PCOD9574739 Si02
#       6
#     9   9   3   9   3   9
#     4  10  22  39  58  84 117 150 190 237 282 337
#     4   9  20  36  55  81 113 149 189 236 284 335
#     4   9  18  33  54  81 109 143 193 243 282 330
#     4   9  20  36  55  81 113 149 189 236 284 335
#     4   9  18  33  54  81 109 143 193 243 282 330
#     4  10  22  39  58  84 117 150 190 237 282 337
#
# _framework density 19.853909999999999
#
# number of rings (size 3 to 8) (size 9 to 14) (size 15 to 20)
#    0.000    2.571    0.000    0.857    0.000   20.571 
#    0.000    0.000    0.000    0.857    0.000    0.000 
#    0.000    0.000    0.000    0.000    0.000    0.000 
#
# Total GULP energy -78171.784355 kJ/mol
# GULP energy per Si atom -5583.698883 kJ/mol
# Density = 1.980872 g / cm^3
# Si number density = 19.853910 Si / 1000 Ang^3
#
#
#
# Elastic Constant Matrix: (Units=GPa)
#
#
# Indices 1 2 3 4 5 6 
#
# 1 60.2988 12.7792 10.9522 -13.9447 0.0000 -0.0002
# 2 12.7792 60.2988 10.9525 13.9447 0.0002 0.0001
# 3 10.9522 10.9525 93.4163 0.0000 0.0001 0.0001
# 4 -13.9447 13.9447 0.0000 15.3602 0.0000 0.0002
# 5 0.0000 0.0002 0.0001 0.0000 15.3602 -13.9447
# 6 -0.0002 0.0001 0.0001 0.0002 -13.9447 23.7599
#
#
#
# Elastic Compliance Matrix: (Units=1/GPa)
#
#
# Indices 1 2 3 4 5 6 
#
# 1 0.029613 -0.015431 -0.001663 0.040893 0.000001 0.000000
# 2 -0.015431 0.029613 -0.001663 -0.040893 -0.000001 -0.000001
# 3 -0.001663 -0.001663 0.011095 0.000000 0.000000 0.000000
# 4 0.040893 -0.040893 0.000000 0.139353 0.000001 0.000000
# 5 0.000001 -0.000001 0.000000 0.000001 0.139354 0.081787
# 6 0.000000 -0.000001 0.000000 0.000000 0.081787 0.090088
#
#
# Mechanical properties :
#
#
# Convention : Reuss Voigt Hill
#
# Bulk Modulus (GPa) = 30.48003 31.48687 30.98345
# Shear Modulus (GPa) = 10.25502 22.85139 16.55320
#
# Velocity S-wave (km/s) = 2.27518 3.39629 2.89061
# Velocity P-wave (km/s) = 4.72096 5.59226 5.17498
#
# Compressibility (1/GPa) = 0.03280836
#
# Stress axis : x y z
#
# Youngs Moduli (GPa) = 33.76843 33.76844 90.13336
#
# Poissons Ratio (x) = 0.52108 0.14986
# Poissons Ratio (y) = 0.52108 0.14988
# Poissons Ratio (z) = 0.05615 0.05615
#
# Static dielectric constant tensor:
#      x y z
#    x 1.732890 0.000000 0.000000 
#    y 0.000000 1.732890 0.000000 
#    z 0.000000 0.000000 1.684370 
# 
# From -- ./inp_files/1665.got.cif
#   From: 2010.05.17/outbox.cif.g08.bks.cpg/sg146_cif.got.tgz:1665.got - 2010.05.20 13:48:23.
