data_PCOD9574757
_publ_section_title
;
Structure prediction by ZEFSAII (Michael W. Deem and Ramdas Pophale) SiO2 
 PCOD9574757
Probable space group: R 3
;
_chemical_formula_sum "Si O2"
_cell_formula_units_Z 60
_cell_length_a 15.176472
_cell_length_b 15.176472
_cell_length_c 14.076262
_cell_angle_alpha 90.000000
_cell_angle_beta 90.000000
_cell_angle_gamma 120.000000
_cell_volume 2807.757677
_symmetry_space_group_name_H-M "R 3"
_symmetry_group_IT_number 146
_symmetry_cell_setting 'hexagonal'
loop_
_space_group_symop_operation_xyz
x,y,z
-y,x-y,z
-x+y,-x,z
2/3+x,1/3+y,1/3+z
2/3-y,1/3+x-y,1/3+z
2/3-x+y,1/3-x,1/3+z
1/3+x,2/3+y,2/3+z
1/3-y,2/3+x-y,2/3+z
1/3-x+y,2/3-x,2/3+z
loop_
_atom_site_type_symbol
_atom_site_label
_atom_site_fract_x
_atom_site_fract_y
_atom_site_fract_z
Si Si1 0.466152 0.395830 0.736540
Si Si2 0.333335 0.666668 0.770984
Si Si3 0.959011 0.784029 0.082328
Si Si4 0.207583 0.052501 0.895927
Si Si5 0.666666 0.333333 0.207967
Si Si6 0.037945 0.492222 0.089386
Si Si7 0.778341 0.696469 0.546689
Si Si8 0.802526 0.710236 0.231547
O O1 0.374532 0.419367 0.718797
O O2 0.436021 0.278323 0.731773
O O3 0.503834 0.444974 0.840590
O O4 0.553534 0.465181 0.660111
O O5 0.333432 0.562912 0.796608
O O6 0.333334 0.666667 0.656170
O O7 0.878912 0.705256 0.157010
O O8 0.898174 0.787426 0.991235
O O9 0.278448 0.138696 0.822811
O O10 0.232928 0.964015 0.918012
O O11 0.097466 0.994359 0.847871
O O12 0.090020 0.444762 0.158727
O O13 0.987476 0.426092 0.993830
O O14 0.686667 0.583773 0.517396
#
# Coordination Sequence:
#
# PCOD9574757 Si02
#       8
#     9   3   9   9   3   9   9   9
#     4  12  25  44  72 108 138 183 246 309 362 436
#     4   9  18  39  60  99 130 173 205 315 360 402
#     4  11  23  37  68 100 136 167 240 299 361 429
#     4  10  23  39  64  97 135 186 227 302 364 435
#     4   9  18  39  60  87 130 161 238 282 357 417
#     4  11  27  45  73 101 147 192 241 303 371 453
#     4  11  24  52  68 102 143 197 240 294 383 445
#     4  11  22  41  71  96 135 191 229 294 362 437
#
# _framework density 21.369364999999998
#
# number of rings (size 3 to 8) (size 9 to 14) (size 15 to 20)
#    0.000    1.200    1.500    5.400   12.600    0.000 
#    3.600    0.000    0.000    0.000    0.000    0.000 
#    0.000    0.000    0.000    0.000    0.000    0.000 
#
# Total GULP energy -111413.142360 kJ/mol
# GULP energy per Si atom -5570.657118 kJ/mol
# Density = 2.132073 g / cm^3
# Si number density = 21.369365 Si / 1000 Ang^3
#
#
#
# Elastic Constant Matrix: (Units=GPa)
#
#
# Indices 1 2 3 4 5 6 
#
# 1 101.5621 38.8047 25.4961 1.7812 -0.5571 0.0002
# 2 38.8047 101.5625 25.4966 -1.7811 0.5574 0.0000
# 3 25.4961 25.4966 61.6455 0.0002 0.0002 -0.0003
# 4 1.7812 -1.7811 0.0002 28.0685 0.0000 0.5571
# 5 -0.5571 0.5574 0.0002 0.0000 28.0679 1.7815
# 6 0.0002 0.0000 -0.0003 0.5571 1.7815 31.3790
#
#
#
# Elastic Compliance Matrix: (Units=1/GPa)
#
#
# Indices 1 2 3 4 5 6 
#
# 1 0.012191 -0.003807 -0.003467 -0.001015 0.000318 0.000000
# 2 -0.003807 0.012191 -0.003468 0.001015 -0.000318 0.000000
# 3 -0.003467 -0.003468 0.019090 0.000000 0.000000 0.000000
# 4 -0.001015 0.001015 0.000000 0.035769 0.000000 -0.000635
# 5 0.000318 -0.000318 0.000000 0.000000 0.035769 -0.002031
# 6 0.000000 0.000000 0.000000 -0.000635 -0.002031 0.031995
#
#
# Mechanical properties :
#
#
# Convention : Reuss Voigt Hill
#
# Bulk Modulus (GPa) = 45.47996 49.37386 47.42691
# Shear Modulus (GPa) = 28.43855 29.16792 28.80323
#
# Velocity S-wave (km/s) = 3.65198 3.69852 3.67532
# Velocity P-wave (km/s) = 6.25393 6.43381 6.34450
#
# Compressibility (1/GPa) = 0.02198771
#
# Stress axis : x y z
#
# Youngs Moduli (GPa) = 82.02949 82.02950 52.38311
#
# Poissons Ratio (x) = 0.31227 0.18164
# Poissons Ratio (y) = 0.31227 0.18164
# Poissons Ratio (z) = 0.28444 0.28445
#
# Static dielectric constant tensor:
#      x y z
#    x 1.852730 0.000000 0.000000 
#    y 0.000000 1.852720 0.000000 
#    z 0.000000 0.000000 1.793500 
# 
# From -- ./inp_files/1551.got.cif
#   From: 2010.05.17/outbox.cif.g08.bks.cpg/sg146_cif.got.tgz:1551.got - 2010.05.20 13:48:23.
