data_PCOD9574468
_publ_section_title
;
Structure prediction by ZEFSAII (Michael W. Deem and Ramdas Pophale) SiO2 
 PCOD9574468
Probable space group: P 31
;
_chemical_formula_sum "Si O2"
_cell_formula_units_Z 24
_cell_length_a 14.191697
_cell_length_b 14.191697
_cell_length_c 6.639974
_cell_angle_alpha 90.000000
_cell_angle_beta 90.000000
_cell_angle_gamma 120.000000
_cell_volume 1158.152292
_symmetry_space_group_name_H-M "P 31"
_symmetry_group_IT_number 144
_symmetry_cell_setting 'hexagonal'
loop_
_space_group_symop_operation_xyz
x,y,z
-y,x-y,1/3+z
-x+y,-x,2/3+z
loop_
_atom_site_type_symbol
_atom_site_label
_atom_site_fract_x
_atom_site_fract_y
_atom_site_fract_z
Si Si1 0.370707 0.436728 0.451730
Si Si2 0.674287 0.783245 0.133452
Si Si3 0.719099 0.438845 0.310821
Si Si4 0.229057 0.260138 0.135295
Si Si5 0.436046 0.726316 0.976035
Si Si6 0.625846 0.053938 0.192387
Si Si7 0.465036 0.043940 0.511713
Si Si8 0.919339 0.902452 0.975480
O O1 0.273138 0.341413 0.326008
O O2 0.361866 0.544042 0.477051
O O3 0.370171 0.397090 0.676204
O O4 0.485314 0.473332 0.345329
O O5 0.704285 0.866727 0.319744
O O6 0.640792 0.663106 0.206544
O O7 0.559830 0.753593 0.022311
O O8 0.788335 0.834902 0.007740
O O9 0.634627 0.368055 0.481628
O O10 0.829524 0.512014 0.425770
O O11 0.670248 0.502045 0.193516
O O12 0.166106 0.133593 0.195913
O O13 0.339565 0.292518 0.015380
O O14 0.356645 0.616511 0.850416
O O15 0.514203 0.026284 0.304740
O O16 0.952716 0.012225 0.849642
#
# Coordination Sequence:
#
# PCOD9574468 Si02
#       8
#     3   3   3   3   3   3   3   3
#     4  11  24  45  73 101 148 189 235 304 364 437
#     4  12  27  48  73 109 145 188 253 301 360 439
#     4  12  24  42  70 101 146 190 236 299 360 431
#     4  11  27  47  74 106 142 188 248 303 368 433
#     4  12  27  47  76 105 152 192 237 299 375 440
#     4  11  24  46  70 105 146 188 240 295 368 437
#     4  11  26  42  69 107 141 188 247 294 363 437
#     4  12  27  51  75 104 144 191 244 309 370 428
#
# _framework density 20.722664999999999
#
# number of rings (size 3 to 8) (size 9 to 14) (size 15 to 20)
#    0.000    0.500    5.000    2.250    7.000    2.000 
#    4.500    0.000    0.000    0.000    0.000    0.000 
#    0.000    0.000    0.000    0.000    0.000    0.000 
#
# Total GULP energy -134028.201820 kJ/mol
# GULP energy per Si atom -5584.508409 kJ/mol
# Density = 2.067550 g / cm^3
# Si number density = 20.722665 Si / 1000 Ang^3
#
#
#
# Elastic Constant Matrix: (Units=GPa)
#
#
# Indices 1 2 3 4 5 6 
#
# 1 146.2604 -1.1222 27.1535 -7.6473 -14.0454 0.0000
# 2 -1.1222 146.2604 27.1535 7.6473 14.0454 0.0000
# 3 27.1535 27.1535 87.6097 0.0000 0.0000 0.0000
# 4 -7.6473 7.6473 0.0000 37.9021 0.0000 14.0454
# 5 -14.0454 14.0454 0.0000 0.0000 37.9021 -7.6473
# 6 0.0000 0.0000 0.0000 14.0454 -7.6473 73.6913
#
#
#
# Elastic Compliance Matrix: (Units=1/GPa)
#
#
# Indices 1 2 3 4 5 6 
#
# 1 0.007631 0.000162 -0.002416 0.001507 0.002768 0.000000
# 2 0.000162 0.007631 -0.002416 -0.001507 -0.002768 0.000000
# 3 -0.002416 -0.002416 0.012912 0.000000 0.000000 0.000000
# 4 0.001507 -0.001507 0.000000 0.029043 0.000000 -0.005536
# 5 0.002768 -0.002768 0.000000 0.000000 0.029043 0.003014
# 6 0.000000 0.000000 0.000000 -0.005536 0.003014 0.014938
#
#
# Mechanical properties :
#
#
# Convention : Reuss Voigt Hill
#
# Bulk Modulus (GPa) = 53.08725 54.05555 53.57140
# Shear Modulus (GPa) = 42.80260 51.69549 47.24905
#
# Velocity S-wave (km/s) = 4.54970 5.00005 4.78018
# Velocity P-wave (km/s) = 7.29886 7.71206 7.50830
#
# Compressibility (1/GPa) = 0.01883691
#
# Stress axis : x y z
#
# Youngs Moduli (GPa) = 131.03743 131.03743 77.44959
#
# Poissons Ratio (x) = -0.02128 0.18709
# Poissons Ratio (y) = -0.02128 0.18709
# Poissons Ratio (z) = 0.31653 0.31653
#
# Static dielectric constant tensor:
#      x y z
#    x 1.695580 0.000000 0.000000 
#    y 0.000000 1.695580 0.000000 
#    z 0.000000 0.000000 1.737810 
# 
# From -- ./inp_files/169.got.cif
#   From: 2010.05.17/outbox.cif.g08.bks.cpg/sg144_cif.got.tgz:169.got - 2010.05.20 13:46:34.
