data_PCOD9574435
_publ_section_title
;
Structure prediction by ZEFSAII (Michael W. Deem and Ramdas Pophale) SiO2 
 PCOD9574435
Probable space group: P 31
;
_chemical_formula_sum "Si O2"
_cell_formula_units_Z 18
_cell_length_a 9.535644
_cell_length_b 9.535644
_cell_length_c 11.505332
_cell_angle_alpha 90.000000
_cell_angle_beta 90.000000
_cell_angle_gamma 120.000000
_cell_volume 906.003436
_symmetry_space_group_name_H-M "P 31"
_symmetry_group_IT_number 144
_symmetry_cell_setting 'hexagonal'
loop_
_space_group_symop_operation_xyz
x,y,z
-y,x-y,1/3+z
-x+y,-x,2/3+z
loop_
_atom_site_type_symbol
_atom_site_label
_atom_site_fract_x
_atom_site_fract_y
_atom_site_fract_z
Si Si1 0.233583 0.464975 0.189370
Si Si2 0.898521 0.428067 0.142371
Si Si3 0.973700 0.751191 0.011425
Si Si4 0.512678 0.417722 0.748783
Si Si5 0.247708 0.708581 0.370273
Si Si6 0.244308 0.957493 0.197416
O O1 0.237147 0.306875 0.226338
O O2 0.237904 0.549072 0.313208
O O3 0.386308 0.594140 0.115894
O O4 0.067068 0.427642 0.127642
O O5 0.905126 0.571492 0.064523
O O6 0.743097 0.253318 0.122103
O O7 0.894641 0.471295 0.276588
O O8 0.099067 0.879396 0.104429
O O9 0.833402 0.783778 0.970065
O O10 0.351333 0.430499 0.770879
O O11 0.657589 0.582327 0.804198
O O12 0.256337 0.812623 0.259027
#
# Coordination Sequence:
#
# PCOD9574435 Si02
#       6
#     3   3   3   3   3   3
#     4  11  20  43  73  90 126 179 221 272 341 404
#     4  11  22  40  68  96 134 171 219 285 338 396
#     4  12  25  45  66 100 143 179 227 288 341 407
#     4  11  22  40  68  96 134 171 219 285 338 396
#     4  11  20  43  73  90 126 179 221 272 341 404
#     4  12  25  45  66 100 143 179 227 288 341 407
#
# _framework density 19.867476
#
# number of rings (size 3 to 8) (size 9 to 14) (size 15 to 20)
#    0.000    0.667   10.000    1.000    0.000    5.333 
#    0.000    0.000    0.000    0.000    0.000    0.000 
#    0.000    0.000    0.000    0.000    0.000    0.000 
#
# Total GULP energy -100507.194854 kJ/mol
# GULP energy per Si atom -5583.733047 kJ/mol
# Density = 1.982226 g / cm^3
# Si number density = 19.867476 Si / 1000 Ang^3
#
#
#
# Elastic Constant Matrix: (Units=GPa)
#
#
# Indices 1 2 3 4 5 6 
#
# 1 75.3601 23.7108 23.4103 1.1088 4.0479 0.0000
# 2 23.7108 75.3601 23.4103 -1.1088 -4.0479 0.0000
# 3 23.4103 23.4103 56.4978 0.0000 0.0000 0.0000
# 4 1.1088 -1.1088 0.0000 35.5465 0.0000 -4.0479
# 5 4.0479 -4.0479 0.0000 0.0000 35.5465 1.1088
# 6 0.0000 0.0000 0.0000 -4.0479 1.1088 25.8246
#
#
#
# Elastic Compliance Matrix: (Units=1/GPa)
#
#
# Indices 1 2 3 4 5 6 
#
# 1 0.016146 -0.003594 -0.005201 -0.000616 -0.002248 0.000000
# 2 -0.003594 0.016146 -0.005201 0.000616 0.002248 0.000000
# 3 -0.005201 -0.005201 0.022010 0.000000 0.000000 0.000000
# 4 -0.000616 0.000616 0.000000 0.028683 0.000000 0.004496
# 5 -0.002248 0.002248 0.000000 0.000000 0.028683 -0.001231
# 6 0.000000 0.000000 0.000000 0.004496 -0.001231 0.039480
#
#
# Mechanical properties :
#
#
# Convention : Reuss Voigt Hill
#
# Bulk Modulus (GPa) = 38.00882 38.69788 38.35335
# Shear Modulus (GPa) = 26.60860 28.49595 27.55228
#
# Velocity S-wave (km/s) = 3.66362 3.79133 3.72802
# Velocity P-wave (km/s) = 6.08842 6.21979 6.15446
#
# Compressibility (1/GPa) = 0.02630968
#
# Stress axis : x y z
#
# Youngs Moduli (GPa) = 61.93513 61.93513 45.43412
#
# Poissons Ratio (x) = 0.22261 0.23630
# Poissons Ratio (y) = 0.22261 0.23630
# Poissons Ratio (z) = 0.32212 0.32212
#
# Static dielectric constant tensor:
#      x y z
#    x 1.701000 0.000000 0.000000 
#    y 0.000000 1.701000 0.000000 
#    z 0.000000 0.000000 1.702260 
# 
# From -- ./inp_files/495.got.cif
#   From: 2010.05.17/outbox.cif.g08.bks.cpg/sg144_cif.got.tgz:495.got - 2010.05.20 13:46:34.
