data_PCOD9574037
_publ_section_title
;
Structure prediction by ZEFSAII (Michael W. Deem and Ramdas Pophale) SiO2 
 PCOD9574037
Probable space group: I 41/A C D
;
_chemical_formula_sum "Si O2"
_cell_formula_units_Z 176
_cell_length_a 21.750778
_cell_length_b 21.750778
_cell_length_c 15.856184
_cell_angle_alpha 90.000000
_cell_angle_beta 90.000000
_cell_angle_gamma 90.000000
_cell_volume 7501.502674
_symmetry_space_group_name_H-M "I 41/A C D"
_symmetry_group_IT_number 142
_space_group.IT_coordinate_system_code '2'
_symmetry_cell_setting 'tetragonal'
loop_
_space_group_symop_operation_xyz
x,y,z
1/4-y,3/4+x,1/4+z
-x,1/2-y,z
1/4+y,1/4-x,3/4+z
x,-y,1/2-z
1/2-x,y,-z
3/4+y,1/4+x,1/4-z
1/4-y,1/4-x,1/4-z
-x,-y,-z
3/4+y,1/4-x,3/4-z
x,1/2+y,-z
3/4-y,3/4+x,1/4-z
-x,y,1/2+z
1/2+x,-y,z
1/4-y,3/4-x,3/4+z
3/4+y,3/4+x,3/4+z
1/2+x,1/2+y,1/2+z
3/4-y,1/4+x,3/4+z
1/2-x,-y,1/2+z
3/4+y,3/4-x,1/4+z
1/2+x,1/2-y,-z
-x,1/2+y,1/2-z
1/4+y,3/4+x,3/4-z
3/4-y,3/4-x,3/4-z
1/2-x,1/2-y,1/2-z
1/4+y,3/4-x,1/4-z
1/2+x,y,1/2-z
1/4-y,1/4+x,3/4-z
1/2-x,1/2+y,z
x,1/2-y,1/2+z
3/4-y,1/4-x,1/4+z
1/4+y,1/4+x,1/4+z
loop_
_atom_site_type_symbol
_atom_site_label
_atom_site_fract_x
_atom_site_fract_y
_atom_site_fract_z
Si Si1 0.354210 0.027565 0.443016
Si Si2 0.516178 0.011963 0.902284
Si Si3 0.573148 0.796744 0.913433
Si Si4 0.813693 0.500000 0.250000
Si Si5 0.000483 0.152389 0.155589
Si Si6 0.692162 0.149956 0.627938
O O1 0.317269 0.067269 0.375000
O O2 0.411813 0.998867 0.393366
O O3 0.383309 0.062408 0.523358
O O4 0.308496 0.979786 0.487231
O O5 0.503819 0.082440 0.875522
O O6 0.468475 0.966644 0.858505
O O7 0.500000 0.000000 0.000000
O O8 0.573005 0.746195 0.837619
O O9 0.623211 0.849927 0.906713
O O10 0.590913 0.757020 0.994478
O O11 0.856898 0.508555 0.168835
O O12 0.942053 0.192053 0.125000
O O13 0.061876 0.188125 0.125000
#
# Coordination Sequence:
#
# PCOD9574037 Si02
#       6
#    32  32  32  16  32  32
#     4  11  25  46  77 106 147 199 261 317 388 469
#     4  10  25  41  69 109 144 191 251 313 384 459
#     4  11  26  43  72 110 149 196 248 318 396 471
#     4  12  26  50  70 106 144 210 252 316 386 470
#     4  11  24  43  74 102 145 196 246 306 389 459
#     4  11  26  46  72 106 150 192 255 319 395 465
#
# _framework density 23.461964999999999
#
# number of rings (size 3 to 8) (size 9 to 14) (size 15 to 20)
#    0.000    1.091    0.000    5.455   15.273    4.364 
#    0.000    2.727    0.000    0.000    0.000    0.000 
#    0.000    0.000    0.000    0.000    0.000    0.000 
#
# Total GULP energy -491674.657049 kJ/mol
# GULP energy per Si atom -5587.212012 kJ/mol
# Density = 2.340856 g / cm^3
# Si number density = 23.461965 Si / 1000 Ang^3
#
#
#
# Elastic Constant Matrix: (Units=GPa)
#
#
# Indices 1 2 3 4 5 6 
#
# 1 121.5973 50.5771 32.9788 0.0000 0.0000 0.0000
# 2 50.5771 121.5976 32.9781 0.0000 0.0000 0.0000
# 3 32.9788 32.9781 110.8037 0.0000 0.0000 0.0000
# 4 0.0000 0.0000 0.0000 20.0932 0.0000 0.0000
# 5 0.0000 0.0000 0.0000 0.0000 20.0927 0.0000
# 6 0.0000 0.0000 0.0000 0.0000 0.0000 17.1695
#
#
#
# Elastic Compliance Matrix: (Units=1/GPa)
#
#
# Indices 1 2 3 4 5 6 
#
# 1 0.010318 -0.003762 -0.001951 0.000000 0.000000 0.000000
# 2 -0.003762 0.010318 -0.001951 0.000000 0.000000 0.000000
# 3 -0.001951 -0.001951 0.010186 0.000000 0.000000 0.000000
# 4 0.000000 0.000000 0.000000 0.049768 0.000000 0.000000
# 5 0.000000 0.000000 0.000000 0.000000 0.049769 0.000000
# 6 0.000000 0.000000 0.000000 0.000000 0.000000 0.058243
#
#
# Mechanical properties :
#
#
# Convention : Reuss Voigt Hill
#
# Bulk Modulus (GPa) = 64.54554 65.22962 64.88758
# Shear Modulus (GPa) = 23.91245 27.30207 25.60726
#
# Velocity S-wave (km/s) = 3.19596 3.41497 3.30727
# Velocity P-wave (km/s) = 6.41789 6.58878 6.50389
#
# Compressibility (1/GPa) = 0.01549294
#
# Stress axis : x y z
#
# Youngs Moduli (GPa) = 96.91788 96.91852 98.17029
#
# Poissons Ratio (x) = 0.36465 0.19155
# Poissons Ratio (y) = 0.36465 0.19154
# Poissons Ratio (z) = 0.18910 0.18909
#
# Static dielectric constant tensor:
#      x y z
#    x 1.900190 0.000000 0.000000 
#    y 0.000000 1.900190 0.000000 
#    z 0.000000 0.000000 1.911700 
# 
# From -- ./inp_files/5543.got.cif
#   From: 2010.05.17/outbox.cif.g08.bks.cpg/sg142_3_cif.got.tgz:5543.got - 2010.05.20 13:39:18.
