data_PCOD9574094
_publ_section_title
;
Structure prediction by ZEFSAII (Michael W. Deem and Ramdas Pophale) SiO2 
 PCOD9574094
Probable space group: I 41/A C D
;
_chemical_formula_sum "Si O2"
_cell_formula_units_Z 120
_cell_length_a 20.507193
_cell_length_b 20.507193
_cell_length_c 14.440589
_cell_angle_alpha 90.000000
_cell_angle_beta 90.000000
_cell_angle_gamma 90.000000
_cell_volume 6072.916992
_symmetry_space_group_name_H-M "I 41/A C D"
_symmetry_group_IT_number 142
_space_group.IT_coordinate_system_code '2'
_symmetry_cell_setting 'tetragonal'
loop_
_space_group_symop_operation_xyz
x,y,z
1/4-y,3/4+x,1/4+z
-x,1/2-y,z
1/4+y,1/4-x,3/4+z
x,-y,1/2-z
1/2-x,y,-z
3/4+y,1/4+x,1/4-z
1/4-y,1/4-x,1/4-z
-x,-y,-z
3/4+y,1/4-x,3/4-z
x,1/2+y,-z
3/4-y,3/4+x,1/4-z
-x,y,1/2+z
1/2+x,-y,z
1/4-y,3/4-x,3/4+z
3/4+y,3/4+x,3/4+z
1/2+x,1/2+y,1/2+z
3/4-y,1/4+x,3/4+z
1/2-x,-y,1/2+z
3/4+y,3/4-x,1/4+z
1/2+x,1/2-y,-z
-x,1/2+y,1/2-z
1/4+y,3/4+x,3/4-z
3/4-y,3/4-x,3/4-z
1/2-x,1/2-y,1/2-z
1/4+y,3/4-x,1/4-z
1/2+x,y,1/2-z
1/4-y,1/4+x,3/4-z
1/2-x,1/2+y,z
x,1/2-y,1/2+z
3/4-y,1/4-x,1/4+z
1/4+y,1/4+x,1/4+z
loop_
_atom_site_type_symbol
_atom_site_label
_atom_site_fract_x
_atom_site_fract_y
_atom_site_fract_z
Si Si1 0.000000 0.250000 0.375000
Si Si2 0.904610 0.726565 0.956975
Si Si3 0.673722 0.046071 0.531302
Si Si4 0.383750 0.633750 0.125000
Si Si5 0.348297 0.423443 0.737608
O O1 0.059707 0.242617 0.446201
O O2 0.951895 0.701895 0.875000
O O3 0.875325 0.793830 0.917458
O O4 0.860566 0.663672 0.978366
O O5 0.750000 0.046963 0.500000
O O6 0.630698 0.081734 0.454863
O O7 0.665144 0.083301 0.627843
O O8 0.654202 0.969692 0.537242
O O9 0.356715 0.500000 0.750000
#
# Coordination Sequence:
#
# PCOD9574094 Si02
#       5
#     8  32  32  16  32
#     4  12  22  48  68  86 136 192 222 292 352 406
#     4  12  25  45  67  97 139 184 234 283 349 418
#     4  11  21  44  73 103 142 178 224 289 357 416
#     4  12  23  44  70 100 140 180 234 287 340 424
#     4  11  23  43  70 102 139 179 227 285 355 417
#
# _framework density 19.759861000000001
#
# number of rings (size 3 to 8) (size 9 to 14) (size 15 to 20)
#    0.000    0.533    5.333    5.600    0.000    1.067 
#    4.800    2.667    0.000    0.000    0.000    0.000 
#    0.000    0.000    0.000    0.000    0.000    0.000 
#
# Total GULP energy -335114.240363 kJ/mol
# GULP energy per Si atom -5585.237339 kJ/mol
# Density = 1.971489 g / cm^3
# Si number density = 19.759861 Si / 1000 Ang^3
#
#
#
# Elastic Constant Matrix: (Units=GPa)
#
#
# Indices 1 2 3 4 5 6 
#
# 1 99.3336 89.3081 40.5522 0.0000 0.0000 0.0000
# 2 89.3081 99.3336 40.5522 0.0000 0.0000 0.0000
# 3 40.5522 40.5522 134.0657 0.0000 0.0000 0.0000
# 4 0.0000 0.0000 0.0000 37.7194 0.0000 0.0000
# 5 0.0000 0.0000 0.0000 0.0000 37.7194 0.0000
# 6 0.0000 0.0000 0.0000 0.0000 0.0000 44.9281
#
#
#
# Elastic Compliance Matrix: (Units=1/GPa)
#
#
# Indices 1 2 3 4 5 6 
#
# 1 0.052920 -0.046826 -0.001843 0.000000 0.000000 0.000000
# 2 -0.046826 0.052920 -0.001843 0.000000 0.000000 0.000000
# 3 -0.001843 -0.001843 0.008574 0.000000 0.000000 0.000000
# 4 0.000000 0.000000 0.000000 0.026512 0.000000 0.000000
# 5 0.000000 0.000000 0.000000 0.000000 0.026512 0.000000
# 6 0.000000 0.000000 0.000000 0.000000 0.000000 0.022258
#
#
# Mechanical properties :
#
#
# Convention : Reuss Voigt Hill
#
# Bulk Modulus (GPa) = 74.69142 74.83979 74.76561
# Shear Modulus (GPa) = 16.93873 34.89474 25.91674
#
# Velocity S-wave (km/s) = 2.93102 4.20687 3.62551
# Velocity P-wave (km/s) = 7.02397 7.84563 7.44614
#
# Compressibility (1/GPa) = 0.01338842
#
# Stress axis : x y z
#
# Youngs Moduli (GPa) = 18.89662 18.89662 116.63075
#
# Poissons Ratio (x) = 0.88485 0.21497
# Poissons Ratio (y) = 0.88485 0.21497
# Poissons Ratio (z) = 0.03483 0.03483
#
# Static dielectric constant tensor:
#      x y z
#    x 1.693570 0.000000 0.000000 
#    y 0.000000 1.693570 0.000000 
#    z 0.000000 0.000000 1.774500 
# 
# From -- ./inp_files/5048.got.cif
#   From: 2010.05.17/outbox.cif.g08.bks.cpg/sg142_3_cif.got.tgz:5048.got - 2010.05.20 13:39:18.
