data_PCOD9574603
_publ_section_title
;
Structure prediction by ZEFSAII (Michael W. Deem and Ramdas Pophale) SiO2 
 PCOD9574603
Probable space group: P 32
;
_chemical_formula_sum "Si O2"
_cell_formula_units_Z 21
_cell_length_a 9.163956
_cell_length_b 9.163956
_cell_length_c 11.615293
_cell_angle_alpha 90.000000
_cell_angle_beta 90.000000
_cell_angle_gamma 120.000000
_cell_volume 844.747260
_symmetry_space_group_name_H-M "P 32"
_symmetry_group_IT_number 145
_symmetry_cell_setting 'hexagonal'
loop_
_space_group_symop_operation_xyz
x,y,z
-y,x-y,2/3+z
-x+y,-x,1/3+z
loop_
_atom_site_type_symbol
_atom_site_label
_atom_site_fract_x
_atom_site_fract_y
_atom_site_fract_z
Si Si1 0.470665 0.570847 0.979220
Si Si2 0.235774 0.275555 0.145765
Si Si3 0.932288 0.334613 0.101033
Si Si4 0.201114 0.010957 0.987803
Si Si5 0.853436 0.732790 0.065501
Si Si6 0.906251 0.502994 0.898491
Si Si7 0.417201 0.534534 0.347747
O O1 0.501117 0.542827 0.847920
O O2 0.387364 0.686049 0.993903
O O3 0.356596 0.406531 0.049717
O O4 0.659652 0.672898 0.034051
O O5 0.047164 0.247232 0.125718
O O6 0.327543 0.370122 0.263618
O O7 0.239209 0.112014 0.106547
O O8 0.742492 0.242416 0.154001
O O9 0.915324 0.355356 0.965888
O O10 0.238763 0.111539 0.868130
O O11 0.326464 0.934804 0.985987
O O12 0.999888 0.890825 0.997235
O O13 0.887151 0.592118 0.012027
O O14 0.061388 0.590196 0.811014
#
# Coordination Sequence:
#
# PCOD9574603 Si02
#       7
#     3   3   3   3   3   3   3
#     4  10  23  50  76 105 153 194 249 310 380 453
#     4  11  26  47  75 111 154 195 256 311 383 455
#     4  10  26  45  74 109 151 205 254 314 375 451
#     4  12  28  47  78 111 153 197 258 308 388 454
#     4  11  26  47  78 111 149 198 251 319 375 455
#     4  11  26  46  73 111 155 197 255 313 381 448
#     4  11  27  46  76 108 149 202 247 313 376 454
#
# _framework density 24.859507000000001
#
# number of rings (size 3 to 8) (size 9 to 14) (size 15 to 20)
#    0.000    1.143    1.429    1.714   14.000    4.571 
#    0.000    0.000    0.000    0.000    0.000    0.000 
#    0.000    0.000    0.000    0.000    0.000    0.000 
#
# Total GULP energy -117232.719047 kJ/mol
# GULP energy per Si atom -5582.510431 kJ/mol
# Density = 2.480293 g / cm^3
# Si number density = 24.859507 Si / 1000 Ang^3
#
#
#
# Elastic Constant Matrix: (Units=GPa)
#
#
# Indices 1 2 3 4 5 6 
#
# 1 60.5852 49.6333 63.1119 -16.1912 2.9815 0.0000
# 2 49.6333 60.5852 63.1119 16.1912 -2.9815 0.0000
# 3 63.1119 63.1119 112.9035 0.0000 0.0000 0.0000
# 4 -16.1912 16.1912 0.0000 32.0462 0.0000 -2.9815
# 5 2.9815 -2.9815 0.0000 0.0000 32.0462 -16.1912
# 6 0.0000 0.0000 0.0000 -2.9815 -16.1912 5.4759
#
#
#
# Elastic Compliance Matrix: (Units=1/GPa)
#
#
# Indices 1 2 3 4 5 6 
#
# 1 -0.071230 0.096443 -0.014094 -0.084716 0.015600 0.000000
# 2 0.096443 -0.071230 -0.014094 0.084716 -0.015600 0.000000
# 3 -0.014094 -0.014094 0.024614 0.000000 0.000000 0.000000
# 4 -0.084716 0.084716 0.000000 -0.057303 0.000000 -0.031200
# 5 0.015600 -0.015600 0.000000 0.000000 -0.057303 -0.169432
# 6 0.000000 0.000000 0.000000 -0.031200 -0.169432 -0.335346
#
#
# Mechanical properties :
#
#
# Convention : Reuss Voigt Hill
#
# Bulk Modulus (GPa) = 53.57675 65.08757 59.33216
# Shear Modulus (GPa) = -7.16246 17.79479 5.31616
#
# Velocity S-wave (km/s) = -1.69924 2.67837 1.46394
# Velocity P-wave (km/s) = 4.21292 5.98364 5.17458
#
# Compressibility (1/GPa) = 0.01866481
#
# Stress axis : x y z
#
# Youngs Moduli (GPa) = -14.03911 -14.03911 40.62691
#
# Poissons Ratio (x) = 1.35398 0.57261
# Poissons Ratio (y) = 1.35398 0.57261
# Poissons Ratio (z) = -0.19787 -0.19787
#
# Static dielectric constant tensor:
#      x y z
#    x 2.062150 0.000000 0.000000 
#    y 0.000000 2.062150 0.000000 
#    z 0.000000 0.000000 1.963690 
# 
# From -- ./inp_files/625.got.cif
#   From: 2010.05.17/outbox.cif.g08.bks.cpg/sg145_cif.got.tgz:625.got - 2010.05.20 13:47:28.
