data_PCOD9574046
_publ_section_title
;
Structure prediction by ZEFSAII (Michael W. Deem and Ramdas Pophale) SiO2 
 PCOD9574046
Probable space group: I 41/A C D
;
_chemical_formula_sum "Si O2"
_cell_formula_units_Z 216
_cell_length_a 30.256897
_cell_length_b 30.256897
_cell_length_c 11.879567
_cell_angle_alpha 90.000000
_cell_angle_beta 90.000000
_cell_angle_gamma 90.000000
_cell_volume 10875.503812
_symmetry_space_group_name_H-M "I 41/A C D"
_symmetry_group_IT_number 142
_space_group.IT_coordinate_system_code '2'
_symmetry_cell_setting 'tetragonal'
loop_
_space_group_symop_operation_xyz
x,y,z
1/4-y,3/4+x,1/4+z
-x,1/2-y,z
1/4+y,1/4-x,3/4+z
x,-y,1/2-z
1/2-x,y,-z
3/4+y,1/4+x,1/4-z
1/4-y,1/4-x,1/4-z
-x,-y,-z
3/4+y,1/4-x,3/4-z
x,1/2+y,-z
3/4-y,3/4+x,1/4-z
-x,y,1/2+z
1/2+x,-y,z
1/4-y,3/4-x,3/4+z
3/4+y,3/4+x,3/4+z
1/2+x,1/2+y,1/2+z
3/4-y,1/4+x,3/4+z
1/2-x,-y,1/2+z
3/4+y,3/4-x,1/4+z
1/2+x,1/2-y,-z
-x,1/2+y,1/2-z
1/4+y,3/4+x,3/4-z
3/4-y,3/4-x,3/4-z
1/2-x,1/2-y,1/2-z
1/4+y,3/4-x,1/4-z
1/2+x,y,1/2-z
1/4-y,1/4+x,3/4-z
1/2-x,1/2+y,z
x,1/2-y,1/2+z
3/4-y,1/4-x,1/4+z
1/4+y,1/4+x,1/4+z
loop_
_atom_site_type_symbol
_atom_site_label
_atom_site_fract_x
_atom_site_fract_y
_atom_site_fract_z
Si Si1 0.544798 0.176875 0.988927
Si Si2 0.220880 0.000000 0.250000
Si Si3 0.500000 0.250000 0.125000
Si Si4 0.353437 0.179758 0.089595
Si Si5 0.519735 0.980559 0.368078
Si Si6 0.299398 0.313482 0.209695
Si Si7 0.341995 0.581263 0.993642
Si Si8 0.882983 0.293918 0.148700
O O1 0.572852 0.177149 0.875000
O O2 0.498934 0.157471 0.943112
O O3 0.534423 0.224454 0.044613
O O4 0.564362 0.146928 0.086657
O O5 0.244201 0.005800 0.125000
O O6 0.192133 0.044583 0.266395
O O7 0.312897 0.203094 0.151802
O O8 0.344229 0.128057 0.070091
O O9 0.358069 0.206356 0.971367
O O10 0.468264 0.964732 0.356887
O O11 0.534431 0.000000 0.250000
O O12 0.537563 0.018353 0.451484
O O13 0.298922 0.366946 0.209150
O O14 0.348958 0.306008 0.253222
O O15 0.344967 0.594967 0.125000
O O16 0.918926 0.331074 0.125000
#
# Coordination Sequence:
#
# PCOD9574046 Si02
#       8
#    32  16   8  32  32  32  32  32
#     4  12  26  42  60  94 131 176 226 280 335 397
#     4  10  26  48  76 110 140 180 234 292 360 440
#     4  12  26  44  64  86 128 188 230 268 324 394
#     4  12  23  38  68  93 127 171 223 278 332 403
#     4  11  23  39  63  93 128 174 215 268 335 409
#     4  11  22  40  61  95 128 163 222 273 333 395
#     4  11  22  41  71 100 129 176 229 284 339 412
#     4  12  21  38  61  89 126 167 219 271 321 386
#
# _framework density 19.861148
#
# number of rings (size 3 to 8) (size 9 to 14) (size 15 to 20)
#    0.000    0.593    5.926    2.889    5.185    1.185 
#    1.333    0.741    0.000    0.000    0.000    0.000 
#    0.000    0.000    0.000    0.000    0.000    0.000 
#
# Total GULP energy -601821.228460 kJ/mol
# GULP energy per Si atom -5572.418782 kJ/mol
# Density = 1.981594 g / cm^3
# Si number density = 19.861148 Si / 1000 Ang^3
#
#
#
# Elastic Constant Matrix: (Units=GPa)
#
#
# Indices 1 2 3 4 5 6 
#
# 1 90.4101 39.5841 8.3193 0.0000 0.0000 0.0000
# 2 39.5841 90.4118 8.3191 0.0000 0.0000 0.0000
# 3 8.3193 8.3191 51.2024 0.0000 0.0000 0.0000
# 4 0.0000 0.0000 0.0000 7.2960 0.0000 0.0000
# 5 0.0000 0.0000 0.0000 0.0000 7.2979 0.0000
# 6 0.0000 0.0000 0.0000 0.0000 0.0000 25.4768
#
#
#
# Elastic Compliance Matrix: (Units=1/GPa)
#
#
# Indices 1 2 3 4 5 6 
#
# 1 0.013765 -0.005909 -0.001276 0.000000 0.000000 0.000000
# 2 -0.005909 0.013765 -0.001276 0.000000 0.000000 0.000000
# 3 -0.001276 -0.001276 0.019945 0.000000 0.000000 0.000000
# 4 0.000000 0.000000 0.000000 0.137062 0.000000 0.000000
# 5 0.000000 0.000000 0.000000 0.000000 0.137026 0.000000
# 6 0.000000 0.000000 0.000000 0.000000 0.000000 0.039251
#
#
# Mechanical properties :
#
#
# Convention : Reuss Voigt Hill
#
# Bulk Modulus (GPa) = 32.73173 38.27437 35.50305
# Shear Modulus (GPa) = 12.88912 19.73424 16.31168
#
# Velocity S-wave (km/s) = 2.55024 3.15558 2.86892
# Velocity P-wave (km/s) = 5.01873 5.70874 5.37482
#
# Compressibility (1/GPa) = 0.03055139
#
# Stress axis : x y z
#
# Youngs Moduli (GPa) = 72.64576 72.64715 50.13762
#
# Poissons Ratio (x) = 0.42930 0.06400
# Poissons Ratio (y) = 0.42929 0.06399
# Poissons Ratio (z) = 0.09273 0.09272
#
# Static dielectric constant tensor:
#      x y z
#    x 1.743600 0.000000 0.000000 
#    y 0.000000 1.743580 0.000000 
#    z 0.000000 0.000000 1.859140 
# 
# From -- ./inp_files/4235.got.cif
#   From: 2010.05.17/outbox.cif.g08.bks.cpg/sg142_3_cif.got.tgz:4235.got - 2010.05.20 13:39:18.
