data_PCOD9574870
_publ_section_title
;
Structure prediction by ZEFSAII (Michael W. Deem and Ramdas Pophale) SiO2 
 PCOD9574870
Probable space group: P -3
;
_chemical_formula_sum "Si O2"
_cell_formula_units_Z 48
_cell_length_a 14.154885
_cell_length_b 14.154885
_cell_length_c 15.893463
_cell_angle_alpha 90.000000
_cell_angle_beta 90.000000
_cell_angle_gamma 120.000000
_cell_volume 2757.794223
_symmetry_space_group_name_H-M "P -3"
_symmetry_group_IT_number 147
_symmetry_cell_setting 'hexagonal'
loop_
_space_group_symop_operation_xyz
x,y,z
-y,x-y,z
-x+y,-x,z
-x,-y,-z
y,-x+y,-z
x-y,x,-z
loop_
_atom_site_type_symbol
_atom_site_label
_atom_site_fract_x
_atom_site_fract_y
_atom_site_fract_z
Si Si1 0.413623 0.235588 0.656541
Si Si2 0.462409 0.873531 0.403502
Si Si3 0.126469 0.588878 0.596498
Si Si4 0.259815 0.165832 0.814293
Si Si5 0.907705 0.744129 1.000000
Si Si6 0.079646 0.255341 0.500000
Si Si7 0.235589 0.821965 0.656541
Si Si8 0.906017 0.740185 0.185707
O O1 0.447246 0.143885 0.642286
O O2 0.527017 0.347490 0.643865
O O3 0.351010 0.220815 0.743047
O O4 0.332317 0.224423 0.581257
O O5 0.450291 0.832385 0.500000
O O6 0.499999 1.000000 0.407489
O O7 0.143886 0.696640 0.642286
O O8 0.179526 0.527017 0.643865
O O9 0.310795 0.198643 0.908513
O O10 0.168745 0.202817 0.805608
O O11 0.202817 0.034072 0.805608
O O12 0.835768 0.802148 0.000000
O O13 0.887848 0.689205 0.091487
O O14 0.160499 0.205984 0.500000
O O15 0.107894 0.332317 0.581258
O O16 0.220815 0.869805 0.743047
#
# Coordination Sequence:
#
# PCOD9574870 Si02
#       8
#     6   6   6   6   6   6   6   6
#     4  12  23  36  56  76 103 138 182 231 274 309
#     4  11  21  36  53  71  97 134 179 223 262 312
#     4  11  21  36  53  71  97 134 179 223 262 312
#     4  10  19  33  54  84 117 149 178 212 262 328
#     4   8  15  28  50  78 112 148 182 212 249 312
#     4  12  23  36  52  78 112 144 169 204 264 338
#     4  12  23  36  56  76 103 138 182 231 274 309
#     4  10  19  33  54  84 117 149 178 212 262 328
#
# _framework density 17.405214999999998
#
# number of rings (size 3 to 8) (size 9 to 14) (size 15 to 20)
#    0.000    1.250    2.500    5.500    0.000    2.000 
#    0.000    2.500    0.000    1.500    0.000    7.000 
#    0.000    0.000    0.000    0.000    0.000    0.000 
#
# Total GULP energy -267931.820714 kJ/mol
# GULP energy per Si atom -5581.912932 kJ/mol
# Density = 1.736560 g / cm^3
# Si number density = 17.405215 Si / 1000 Ang^3
#
#
#
# Elastic Constant Matrix: (Units=GPa)
#
#
# Indices 1 2 3 4 5 6 
#
# 1 61.5617 -15.0856 21.6602 -0.0001 -0.0001 0.0000
# 2 -15.0856 61.5617 21.6602 0.0001 0.0001 0.0000
# 3 21.6602 21.6602 151.8926 0.0000 0.0000 0.0000
# 4 -0.0001 0.0001 0.0000 1.0916 0.0000 0.0001
# 5 -0.0001 0.0001 0.0000 0.0000 1.0916 -0.0001
# 6 0.0000 0.0000 0.0000 0.0001 -0.0001 38.3237
#
#
#
# Elastic Compliance Matrix: (Units=1/GPa)
#
#
# Indices 1 2 3 4 5 6 
#
# 1 0.018931 0.005884 -0.003539 0.000001 0.000001 0.000000
# 2 0.005884 0.018931 -0.003539 -0.000001 -0.000001 0.000000
# 3 -0.003539 -0.003539 0.007593 0.000000 0.000000 0.000000
# 4 0.000001 -0.000001 0.000000 0.916127 0.000000 -0.000003
# 5 0.000001 -0.000001 0.000000 0.000000 0.916127 0.000003
# 6 0.000000 0.000000 0.000000 -0.000003 0.000003 0.026094
#
#
# Mechanical properties :
#
#
# Convention : Reuss Voigt Hill
#
# Bulk Modulus (GPa) = 23.21915 36.83170 30.02543
# Shear Modulus (GPa) = 2.60343 24.55345 13.57844
#
# Velocity S-wave (km/s) = 1.22435 3.76000 2.79612
# Velocity P-wave (km/s) = 3.92020 6.32909 5.26428
#
# Compressibility (1/GPa) = 0.04306790
#
# Stress axis : x y z
#
# Youngs Moduli (GPa) = 52.82401 52.82401 131.70316
#
# Poissons Ratio (x) = -0.31082 0.46605
# Poissons Ratio (y) = -0.31082 0.46605
# Poissons Ratio (z) = 0.18692 0.18692
#
# Static dielectric constant tensor:
#      x y z
#    x 1.616320 0.000000 0.000000 
#    y 0.000000 1.616320 0.000000 
#    z 0.000000 0.000000 1.606980 
# 
# From -- ./inp_files/986.got.cif
#   From: 2010.05.17/outbox.cif.g08.bks.cpg/sg147_cif.got.tgz:986.got - 2010.05.20 13:49:32.
