data_PCOD9574904
_publ_section_title
;
Structure prediction by ZEFSAII (Michael W. Deem and Ramdas Pophale) SiO2 
 PCOD9574904
Probable space group: P -3
;
_chemical_formula_sum "Si O2"
_cell_formula_units_Z 48
_cell_length_a 11.646580
_cell_length_b 11.646580
_cell_length_c 21.285161
_cell_angle_alpha 90.000000
_cell_angle_beta 90.000000
_cell_angle_gamma 120.000000
_cell_volume 2500.370691
_symmetry_space_group_name_H-M "P -3"
_symmetry_group_IT_number 147
_symmetry_cell_setting 'hexagonal'
loop_
_space_group_symop_operation_xyz
x,y,z
-y,x-y,z
-x+y,-x,z
-x,-y,-z
y,-x+y,-z
x-y,x,-z
loop_
_atom_site_type_symbol
_atom_site_label
_atom_site_fract_x
_atom_site_fract_y
_atom_site_fract_z
Si Si1 0.755297 0.053371 0.103148
Si Si2 0.024719 0.279088 0.756411
Si Si3 0.819411 0.485582 0.998541
Si Si4 0.271653 0.999435 0.502185
Si Si5 0.283273 0.252397 0.751676
Si Si6 0.942786 0.341768 0.372588
Si Si7 0.756107 0.057355 0.893624
Si Si8 0.927194 0.593478 0.369791
O O1 0.697189 0.031244 0.173937
O O2 0.909590 0.173011 0.099173
O O3 0.745385 0.910996 0.091073
O O4 0.677923 0.101097 0.057478
O O5 0.161623 0.279192 0.753069
O O6 0.006973 0.354064 0.697874
O O7 0.904313 0.130621 0.748715
O O8 0.665881 0.456123 0.998766
O O9 0.899515 0.574055 0.939121
O O10 0.345224 0.008670 0.567499
O O11 0.128160 0.870453 0.504130
O O12 0.342486 0.988484 0.439476
O O13 0.360416 0.326757 0.688359
O O14 0.347555 0.284377 0.821087
O O15 0.888284 0.442505 0.371653
O O16 0.814387 0.196407 0.370822
#
# Coordination Sequence:
#
# PCOD9574904 Si02
#       8
#     6   6   6   6   6   6   6   6
#     4  10  20  37  61  90 110 145 187 248 298 345
#     4   9  18  34  56  85 112 140 182 233 294 331
#     4  10  24  42  53  81 116 158 193 223 281 351
#     4  10  20  34  58  84 114 142 184 234 293 339
#     4   9  18  34  56  85 111 142 181 233 292 337
#     4  10  20  35  53  79 113 153 193 229 271 326
#     4  10  20  37  62  87 114 142 189 245 303 340
#     4  10  20  35  51  79 110 152 192 228 270 329
#
# _framework density 19.197154000000001
#
# number of rings (size 3 to 8) (size 9 to 14) (size 15 to 20)
#    0.250    2.000    0.000    2.750    0.000    4.000 
#   11.250    3.750    0.000    5.500    0.000    0.000 
#    0.000    0.000    0.000    0.000    0.000    0.000 
#
# Total GULP energy -267214.571520 kJ/mol
# GULP energy per Si atom -5566.970240 kJ/mol
# Density = 1.915346 g / cm^3
# Si number density = 19.197154 Si / 1000 Ang^3
#
#
#
# Elastic Constant Matrix: (Units=GPa)
#
#
# Indices 1 2 3 4 5 6 
#
# 1 49.0381 -11.4342 38.4303 -1.7961 3.5456 0.0000
# 2 -11.4342 49.0381 38.4303 1.7961 -3.5456 0.0000
# 3 38.4303 38.4303 157.9861 0.0000 0.0000 0.0000
# 4 -1.7961 1.7961 0.0000 -21.7832 0.0000 -3.5456
# 5 3.5456 -3.5456 0.0000 0.0000 -21.7832 -1.7961
# 6 0.0000 0.0000 0.0000 -3.5456 -1.7961 30.2361
#
#
#
# Elastic Compliance Matrix: (Units=1/GPa)
#
#
# Indices 1 2 3 4 5 6 
#
# 1 0.034519 0.018370 -0.012865 -0.001332 0.002629 0.000000
# 2 0.018370 0.034519 -0.012865 0.001332 -0.002629 0.000000
# 3 -0.012865 -0.012865 0.012589 0.000000 0.000000 0.000000
# 4 -0.001332 0.001332 0.000000 -0.044832 0.000000 -0.005257
# 5 0.002629 -0.002629 0.000000 0.000000 -0.044832 -0.002663
# 6 0.000000 0.000000 0.000000 -0.005257 -0.002663 0.032298
#
#
# Mechanical properties :
#
#
# Convention : Reuss Voigt Hill
#
# Bulk Modulus (GPa) = 14.94651 42.99057 28.96854
# Shear Modulus (GPa) = 81.58629 10.04301 45.81465
#
# Velocity S-wave (km/s) = 6.52621 2.28973 4.89052
# Velocity P-wave (km/s) = 8.03687 5.42525 6.85655
#
# Compressibility (1/GPa) = 0.06690527
#
# Stress axis : x y z
#
# Youngs Moduli (GPa) = 28.96957 28.96957 79.43676
#
# Poissons Ratio (x) = -0.53217 1.02197
# Poissons Ratio (y) = -0.53217 1.02197
# Poissons Ratio (z) = 0.37270 0.37270
#
# Static dielectric constant tensor:
#      x y z
#    x 1.642390 0.000000 0.000000 
#    y 0.000000 1.642390 0.000000 
#    z 0.000000 0.000000 1.746430 
# 
# From -- ./inp_files/1075.got.cif
#   From: 2010.05.17/outbox.cif.g08.bks.cpg/sg147_cif.got.tgz:1075.got - 2010.05.20 13:49:32.
