data_PCOD9574056
_publ_section_title
;
Structure prediction by ZEFSAII (Michael W. Deem and Ramdas Pophale) SiO2 
 PCOD9574056
Probable space group: I 41/A C D
;
_chemical_formula_sum "Si O2"
_cell_formula_units_Z 160
_cell_length_a 22.583118
_cell_length_b 22.583118
_cell_length_c 14.849020
_cell_angle_alpha 90.000000
_cell_angle_beta 90.000000
_cell_angle_gamma 90.000000
_cell_volume 7572.958899
_symmetry_space_group_name_H-M "I 41/A C D"
_symmetry_group_IT_number 142
_space_group.IT_coordinate_system_code '2'
_symmetry_cell_setting 'tetragonal'
loop_
_space_group_symop_operation_xyz
x,y,z
1/4-y,3/4+x,1/4+z
-x,1/2-y,z
1/4+y,1/4-x,3/4+z
x,-y,1/2-z
1/2-x,y,-z
3/4+y,1/4+x,1/4-z
1/4-y,1/4-x,1/4-z
-x,-y,-z
3/4+y,1/4-x,3/4-z
x,1/2+y,-z
3/4-y,3/4+x,1/4-z
-x,y,1/2+z
1/2+x,-y,z
1/4-y,3/4-x,3/4+z
3/4+y,3/4+x,3/4+z
1/2+x,1/2+y,1/2+z
3/4-y,1/4+x,3/4+z
1/2-x,-y,1/2+z
3/4+y,3/4-x,1/4+z
1/2+x,1/2-y,-z
-x,1/2+y,1/2-z
1/4+y,3/4+x,3/4-z
3/4-y,3/4-x,3/4-z
1/2-x,1/2-y,1/2-z
1/4+y,3/4-x,1/4-z
1/2+x,y,1/2-z
1/4-y,1/4+x,3/4-z
1/2-x,1/2+y,z
x,1/2-y,1/2+z
3/4-y,1/4-x,1/4+z
1/4+y,1/4+x,1/4+z
loop_
_atom_site_type_symbol
_atom_site_label
_atom_site_fract_x
_atom_site_fract_y
_atom_site_fract_z
Si Si1 0.762599 0.632254 0.710596
Si Si2 0.196988 0.786140 0.560356
Si Si3 0.668363 0.485083 0.151087
Si Si4 0.373863 0.135379 0.783804
Si Si5 0.026286 0.341759 0.380839
O O1 0.784025 0.692031 0.660427
O O2 0.754858 0.625488 0.819657
O O3 0.805062 0.581044 0.668435
O O4 0.693510 0.623715 0.687716
O O5 0.250000 0.763764 0.500000
O O6 0.170766 0.843597 0.509102
O O7 0.144283 0.739307 0.564014
O O8 0.644256 0.500000 0.250000
O O9 0.725986 0.524015 0.125000
O O10 0.405426 0.155426 0.875000
O O11 0.380170 0.186818 0.711246
O O12 0.064157 0.287248 0.342071
#
# Coordination Sequence:
#
# PCOD9574056 Si02
#       5
#    32  32  32  32  32
#     4  11  19  33  58  92 134 169 214 263 316 385
#     4  11  22  37  65  97 130 166 217 273 330 384
#     4   9  19  31  52  82 132 185 215 243 306 391
#     4  11  21  37  67  97 124 172 224 273 321 393
#     4   9  22  46  68  86 125 172 220 280 338 384
#
# _framework density 21.127804999999999
#
# number of rings (size 3 to 8) (size 9 to 14) (size 15 to 20)
#    0.000    1.800    4.000    0.600    0.000    0.800 
#    0.000    9.000    8.800    2.400    0.000    0.000 
#    0.000    0.000    0.000    0.000    0.000    0.000 
#
# Total GULP energy -445534.915749 kJ/mol
# GULP energy per Si atom -5569.186447 kJ/mol
# Density = 2.107972 g / cm^3
# Si number density = 21.127805 Si / 1000 Ang^3
#
#
#
# Elastic Constant Matrix: (Units=GPa)
#
#
# Indices 1 2 3 4 5 6 
#
# 1 38.9191 20.5824 4.7041 0.0000 0.0000 0.0000
# 2 20.5824 38.9180 4.7032 0.0000 0.0000 0.0000
# 3 4.7041 4.7032 108.9634 0.0000 0.0000 0.0000
# 4 0.0000 0.0000 0.0000 15.6318 0.0000 0.0000
# 5 0.0000 0.0000 0.0000 0.0000 15.6325 0.0000
# 6 0.0000 0.0000 0.0000 0.0000 0.0000 8.8723
#
#
#
# Elastic Compliance Matrix: (Units=1/GPa)
#
#
# Indices 1 2 3 4 5 6 
#
# 1 0.035729 -0.018808 -0.000731 0.000000 0.000000 0.000000
# 2 -0.018808 0.035730 -0.000730 0.000000 0.000000 0.000000
# 3 -0.000731 -0.000730 0.009240 0.000000 0.000000 0.000000
# 4 0.000000 0.000000 0.000000 0.063972 0.000000 0.000000
# 5 0.000000 0.000000 0.000000 0.000000 0.063969 0.000000
# 6 0.000000 0.000000 0.000000 0.000000 0.000000 0.112710
#
#
# Mechanical properties :
#
#
# Convention : Reuss Voigt Hill
#
# Bulk Modulus (GPa) = 24.89886 27.41996 26.15941
# Shear Modulus (GPa) = 13.32356 18.48139 15.90248
#
# Velocity S-wave (km/s) = 2.51393 2.96081 2.74648
# Velocity P-wave (km/s) = 4.49855 4.96939 4.73982
#
# Compressibility (1/GPa) = 0.04016249
#
# Stress axis : x y z
#
# Youngs Moduli (GPa) = 27.98850 27.98772 108.21974
#
# Poissons Ratio (x) = 0.52638 0.07907
# Poissons Ratio (y) = 0.52639 0.07903
# Poissons Ratio (z) = 0.02045 0.02044
#
# Static dielectric constant tensor:
#      x y z
#    x 1.770670 0.000000 0.000000 
#    y 0.000000 1.770670 0.000000 
#    z 0.000000 0.000000 1.951130 
# 
# From -- ./inp_files/5430.got.cif
#   From: 2010.05.17/outbox.cif.g08.bks.cpg/sg142_3_cif.got.tgz:5430.got - 2010.05.20 13:39:18.
