data_PCOD9574941
_publ_section_title
;
Structure prediction by ZEFSAII (Michael W. Deem and Ramdas Pophale) SiO2 
 PCOD9574941
Probable space group: P -3
;
_chemical_formula_sum "Si O2"
_cell_formula_units_Z 18
_cell_length_a 11.425296
_cell_length_b 11.425296
_cell_length_c 7.444514
_cell_angle_alpha 90.000000
_cell_angle_beta 90.000000
_cell_angle_gamma 120.000000
_cell_volume 841.592591
_symmetry_space_group_name_H-M "P -3"
_symmetry_group_IT_number 147
_symmetry_cell_setting 'hexagonal'
loop_
_space_group_symop_operation_xyz
x,y,z
-y,x-y,z
-x+y,-x,z
-x,-y,-z
y,-x+y,-z
x-y,x,-z
loop_
_atom_site_type_symbol
_atom_site_label
_atom_site_fract_x
_atom_site_fract_y
_atom_site_fract_z
Si Si1 0.658345 0.173856 0.617705
Si Si2 0.407266 0.064367 0.111485
Si Si3 0.094590 0.419128 0.777603
O O1 0.787443 0.326235 0.619498
O O2 0.651963 0.097369 0.433670
O O3 0.648158 0.075250 0.777310
O O4 0.369021 0.168601 0.192183
O O5 0.569563 0.135281 0.135999
O O6 0.360872 0.031949 0.905904
#
# Coordination Sequence:
#
# PCOD9574941 Si02
#       3
#     6   6   6
#     4  10  22  37  63  97 131 157 206 262 323 377
#     4  11  24  38  65  92 133 168 207 262 317 378
#     4  11  23  39  59  94 130 167 206 256 315 376
#
# _framework density 21.388023
#
# number of rings (size 3 to 8) (size 9 to 14) (size 15 to 20)
#    0.667    0.667    3.333    1.667    9.333    0.000 
#    0.000    0.000    0.000    0.667    0.000    2.333 
#    0.000    0.000    0.000    0.000    0.000    0.000 
#
# Total GULP energy -100333.938409 kJ/mol
# GULP energy per Si atom -5574.107689 kJ/mol
# Density = 2.133934 g / cm^3
# Si number density = 21.388023 Si / 1000 Ang^3
#
#
#
# Elastic Constant Matrix: (Units=GPa)
#
#
# Indices 1 2 3 4 5 6 
#
# 1 76.3737 29.9397 51.2091 6.0834 -4.7758 0.0000
# 2 29.9397 76.3737 51.2091 -6.0834 4.7758 0.0000
# 3 51.2091 51.2091 180.2591 0.0000 0.0000 0.0000
# 4 6.0834 -6.0834 0.0000 27.9855 0.0000 4.7758
# 5 -4.7758 4.7758 0.0000 0.0000 27.9855 6.0834
# 6 0.0000 0.0000 0.0000 4.7758 6.0834 23.2170
#
#
#
# Elastic Compliance Matrix: (Units=1/GPa)
#
#
# Indices 1 2 3 4 5 6 
#
# 1 0.018335 -0.005385 -0.003679 -0.005156 0.004048 0.000000
# 2 -0.005385 0.018335 -0.003679 0.005156 -0.004048 0.000000
# 3 -0.003679 -0.003679 0.007638 0.000000 0.000000 0.000000
# 4 -0.005156 0.005156 0.000000 0.039356 0.000000 -0.008096
# 5 0.004048 -0.004048 0.000000 0.000000 0.039356 -0.010312
# 6 0.000000 0.000000 0.000000 -0.008096 -0.010312 0.047439
#
#
# Mechanical properties :
#
#
# Convention : Reuss Voigt Hill
#
# Bulk Modulus (GPa) = 53.12776 66.41361 59.77068
# Shear Modulus (GPa) = 24.72571 29.21416 26.96994
#
# Velocity S-wave (km/s) = 3.40377 3.69983 3.55489
# Velocity P-wave (km/s) = 6.35149 7.02644 6.69747
#
# Compressibility (1/GPa) = 0.01882255
#
# Stress axis : x y z
#
# Youngs Moduli (GPa) = 54.54047 54.54047 130.92625
#
# Poissons Ratio (x) = 0.29368 0.48168
# Poissons Ratio (y) = 0.29368 0.48168
# Poissons Ratio (z) = 0.20066 0.20066
#
# Static dielectric constant tensor:
#      x y z
#    x 1.811060 0.000000 0.000000 
#    y 0.000000 1.811060 0.000000 
#    z 0.000000 0.000000 1.807960 
# 
# From -- ./inp_files/381.got.cif
#   From: 2010.05.17/outbox.cif.g08.bks.cpg/sg147_cif.got.tgz:381.got - 2010.05.20 13:49:32.
