data_PCOD9574664
_publ_section_title
;
Structure prediction by ZEFSAII (Michael W. Deem and Ramdas Pophale) SiO2 
 PCOD9574664
Probable space group: R 3
;
_chemical_formula_sum "Si O2"
_cell_formula_units_Z 51
_cell_length_a 16.459879
_cell_length_b 16.459879
_cell_length_c 9.515151
_cell_angle_alpha 90.000000
_cell_angle_beta 90.000000
_cell_angle_gamma 120.000000
_cell_volume 2232.541769
_symmetry_space_group_name_H-M "R 3"
_symmetry_group_IT_number 146
_symmetry_cell_setting 'hexagonal'
loop_
_space_group_symop_operation_xyz
x,y,z
-y,x-y,z
-x+y,-x,z
2/3+x,1/3+y,1/3+z
2/3-y,1/3+x-y,1/3+z
2/3-x+y,1/3-x,1/3+z
1/3+x,2/3+y,2/3+z
1/3-y,2/3+x-y,2/3+z
1/3-x+y,2/3-x,2/3+z
loop_
_atom_site_type_symbol
_atom_site_label
_atom_site_fract_x
_atom_site_fract_y
_atom_site_fract_z
Si Si1 0.906327 0.784647 0.930990
Si Si2 0.333334 0.666667 0.214355
Si Si3 0.043068 0.609272 0.407309
Si Si4 0.999100 0.449077 0.014499
Si Si5 0.666668 0.333334 0.227368
Si Si6 0.008354 0.768528 0.425430
Si Si7 0.956241 0.150239 0.425561
O O1 0.819293 0.729830 0.822801
O O2 0.000645 0.793769 0.853123
O O3 0.934975 0.892719 0.948294
O O4 0.876132 0.707308 0.055710
O O5 0.333334 0.666667 0.386226
O O6 0.340505 0.760969 0.149190
O O7 0.097371 0.634349 0.256693
O O8 0.983122 0.661905 0.419786
O O9 0.048666 0.561575 0.009597
O O10 0.090208 0.438955 0.002745
O O11 0.925385 0.400900 0.894429
O O12 0.929427 0.786970 0.367265
#
# Coordination Sequence:
#
# PCOD9574664 Si02
#       7
#     9   3   9   9   3   9   9
#     4  10  20  35  57  85 111 149 197 236 299 349
#     4  12  21  33  63  90 112 149 196 255 282 330
#     4   8  17  33  55  81 106 147 191 236 281 364
#     4  10  22  34  58  89 120 148 193 254 298 345
#     4  12  21  33  57  87 115 140 193 243 294 333
#     4  10  16  34  58  82 108 152 201 232 296 349
#     4  12  21  38  58  92 122 151 199 252 294 352
#
# _framework density 22.843917000000001
#
# number of rings (size 3 to 8) (size 9 to 14) (size 15 to 20)
#    0.000    2.118    7.059    0.000    2.471    0.000 
#    3.176    0.000    0.000    0.000    0.000    0.000 
#    0.000    0.000    0.000    0.000    0.000    0.000 
#
# Total GULP energy -94693.060584 kJ/mol
# GULP energy per Si atom -5570.180034 kJ/mol
# Density = 2.279192 g / cm^3
# Si number density = 22.843917 Si / 1000 Ang^3
#
#
#
# Elastic Constant Matrix: (Units=GPa)
#
#
# Indices 1 2 3 4 5 6 
#
# 1 56.8388 42.6673 -8.7506 20.2015 -3.0302 -0.0001
# 2 42.6673 56.8396 -8.7507 -20.2011 3.0301 -0.0007
# 3 -8.7506 -8.7507 26.4753 0.0000 -0.0003 0.0003
# 4 20.2015 -20.2011 0.0000 12.2499 -0.0002 3.0303
# 5 -3.0302 3.0301 -0.0003 -0.0002 12.2494 20.2017
# 6 -0.0001 -0.0007 0.0003 3.0303 20.2017 7.0861
#
#
#
# Elastic Compliance Matrix: (Units=1/GPa)
#
#
# Indices 1 2 3 4 5 6 
#
# 1 -0.003932 0.014602 0.003527 0.030565 -0.004584 0.000000
# 2 0.014602 -0.003932 0.003527 -0.030564 0.004585 0.000000
# 3 0.003527 0.003527 0.040102 0.000000 -0.000001 0.000001
# 4 0.030565 -0.030564 0.000000 -0.021442 -0.000001 0.009169
# 5 -0.004584 0.004585 -0.000001 -0.000001 -0.021441 0.061126
# 6 0.000000 0.000000 0.000001 0.009169 0.061126 -0.037064
#
#
# Mechanical properties :
#
#
# Convention : Reuss Voigt Hill
#
# Bulk Modulus (GPa) = 13.23653 21.16507 17.20080
# Shear Modulus (GPa) = -75.94581 13.98292 -30.98144
#
# Velocity S-wave (km/s) = -5.77215 2.47676 -3.68669
# Velocity P-wave (km/s) = 6.21423 4.17904 3.25210
#
# Compressibility (1/GPa) = 0.07554848
#
# Stress axis : x y z
#
# Youngs Moduli (GPa) = -254.30577 -254.32940 24.93625
#
# Poissons Ratio (x) = 3.71371 -0.08794
# Poissons Ratio (y) = 3.71336 -0.08794
# Poissons Ratio (z) = 0.89683 0.89694
#
# Static dielectric constant tensor:
#      x y z
#    x 1.910370 0.000000 0.000000 
#    y 0.000000 1.910380 0.000000 
#    z 0.000000 0.000000 1.930200 
# 
# From -- ./inp_files/1158.got.cif
#   From: 2010.05.17/outbox.cif.g08.bks.cpg/sg146_cif.got.tgz:1158.got - 2010.05.20 13:48:23.
