data_PCOD9574563
_publ_section_title
;
Structure prediction by ZEFSAII (Michael W. Deem and Ramdas Pophale) SiO2 
 PCOD9574563
Probable space group: P 32
;
_chemical_formula_sum "Si O2"
_cell_formula_units_Z 18
_cell_length_a 9.345682
_cell_length_b 9.345682
_cell_length_c 9.561812
_cell_angle_alpha 90.000000
_cell_angle_beta 90.000000
_cell_angle_gamma 120.000000
_cell_volume 723.257309
_symmetry_space_group_name_H-M "P 32"
_symmetry_group_IT_number 145
_symmetry_cell_setting 'hexagonal'
loop_
_space_group_symop_operation_xyz
x,y,z
-y,x-y,2/3+z
-x+y,-x,1/3+z
loop_
_atom_site_type_symbol
_atom_site_label
_atom_site_fract_x
_atom_site_fract_y
_atom_site_fract_z
Si Si1 0.902642 0.616696 0.555480
Si Si2 0.115093 0.477958 0.063080
Si Si3 0.081120 0.174009 0.891222
Si Si4 0.209039 0.919858 0.951622
Si Si5 0.143926 0.530791 0.384301
Si Si6 0.556708 0.459450 0.472350
O O1 0.903041 0.858930 0.249155
O O2 0.037080 0.592881 0.471816
O O3 0.896489 0.585264 0.721261
O O4 0.909500 0.791544 0.535598
O O5 0.078577 0.472372 0.227502
O O6 0.303558 0.625036 0.039858
O O7 0.109485 0.310990 0.006640
O O8 0.737050 0.272702 0.836498
O O9 0.177063 0.273628 0.751161
O O10 0.386731 0.009170 0.030405
O O11 0.240881 0.850281 0.809537
O O12 0.996851 0.495241 0.952128
#
# Coordination Sequence:
#
# PCOD9574563 Si02
#       6
#     3   3   3   3   3   3
#     4   9  20  39  67  98 139 179 226 279 343 412
#     4  10  23  41  64  96 139 179 230 282 342 409
#     4  10  21  44  67 102 140 175 220 290 347 412
#     4   9  21  40  67  94 131 176 226 279 345 409
#     4  11  23  43  66  96 131 185 234 287 344 411
#     4   9  20  41  65 100 138 180 228 285 339 411
#
# _framework density 24.887408000000001
#
# number of rings (size 3 to 8) (size 9 to 14) (size 15 to 20)
#    0.000    2.667    0.000    2.000    0.000    9.333 
#    0.000   16.667    0.000    0.000    0.000    0.000 
#    0.000    0.000    0.000    0.833    0.000    0.000 
#
# Total GULP energy -100494.213593 kJ/mol
# GULP energy per Si atom -5583.011866 kJ/mol
# Density = 2.483076 g / cm^3
# Si number density = 24.887408 Si / 1000 Ang^3
#
#
#
# Elastic Constant Matrix: (Units=GPa)
#
#
# Indices 1 2 3 4 5 6 
#
# 1 73.1432 21.5144 16.0233 -8.5240 -1.9405 0.0000
# 2 21.5144 73.1432 16.0233 8.5240 1.9405 0.0000
# 3 16.0233 16.0233 142.1638 0.0000 0.0000 0.0000
# 4 -8.5240 8.5240 0.0000 28.9169 0.0000 1.9405
# 5 -1.9405 1.9405 0.0000 0.0000 28.9169 -8.5240
# 6 0.0000 0.0000 0.0000 1.9405 -8.5240 25.8144
#
#
#
# Elastic Compliance Matrix: (Units=1/GPa)
#
#
# Indices 1 2 3 4 5 6 
#
# 1 0.016281 -0.005297 -0.001238 0.006361 0.001448 0.000000
# 2 -0.005297 0.016281 -0.001238 -0.006361 -0.001448 0.000000
# 3 -0.001238 -0.001238 0.007313 0.000000 0.000000 0.000000
# 4 0.006361 -0.006361 0.000000 0.038526 0.000000 -0.002896
# 5 0.001448 -0.001448 0.000000 0.000000 0.038526 0.012721
# 6 0.000000 0.000000 0.000000 -0.002896 0.012721 0.043156
#
#
# Mechanical properties :
#
#
# Convention : Reuss Voigt Hill
#
# Bulk Modulus (GPa) = 41.10422 43.95246 42.52834
# Shear Modulus (GPa) = 27.21245 32.38894 29.80069
#
# Velocity S-wave (km/s) = 3.31028 3.61143 3.46413
# Velocity P-wave (km/s) = 5.58234 5.92358 5.75549
#
# Compressibility (1/GPa) = 0.02432840
#
# Stress axis : x y z
#
# Youngs Moduli (GPa) = 61.42185 61.42185 136.73912
#
# Poissons Ratio (x) = 0.32537 0.16928
# Poissons Ratio (y) = 0.32537 0.16928
# Poissons Ratio (z) = 0.07604 0.07604
#
# Static dielectric constant tensor:
#      x y z
#    x 2.079390 0.000000 0.000000 
#    y 0.000000 2.079390 0.000000 
#    z 0.000000 0.000000 2.038070 
# 
# From -- ./inp_files/312.got.cif
#   From: 2010.05.17/outbox.cif.g08.bks.cpg/sg145_cif.got.tgz:312.got - 2010.05.20 13:47:28.
