data_PCOD9574966
_publ_section_title
;
Structure prediction by ZEFSAII (Michael W. Deem and Ramdas Pophale) SiO2 
 PCOD9574966
Probable space group: P -3
;
_chemical_formula_sum "Si O2"
_cell_formula_units_Z 24
_cell_length_a 14.608791
_cell_length_b 14.608791
_cell_length_c 5.291503
_cell_angle_alpha 90.000000
_cell_angle_beta 90.000000
_cell_angle_gamma 120.000000
_cell_volume 977.998593
_symmetry_space_group_name_H-M "P -3"
_symmetry_group_IT_number 147
_symmetry_cell_setting 'hexagonal'
loop_
_space_group_symop_operation_xyz
x,y,z
-y,x-y,z
-x+y,-x,z
-x,-y,-z
y,-x+y,-z
x-y,x,-z
loop_
_atom_site_type_symbol
_atom_site_label
_atom_site_fract_x
_atom_site_fract_y
_atom_site_fract_z
Si Si1 0.465752 0.358747 0.460342
Si Si2 0.764734 0.934125 0.062686
Si Si3 0.804198 0.417233 0.963286
Si Si4 0.357790 0.106488 0.435579
O O1 0.533413 0.407897 0.208327
O O2 0.431825 0.233746 0.451230
O O3 0.366128 0.376513 0.480277
O O4 0.536918 0.403414 0.707898
O O5 0.729282 0.909664 0.352099
O O6 0.802694 0.855877 0.964499
O O7 0.676717 0.918868 0.857160
O O8 0.709428 0.445572 0.966989
#
# Coordination Sequence:
#
# PCOD9574966 Si02
#       4
#     6   6   6   6
#     4  12  22  44  66 101 132 177 214 268 318 396
#     4  12  21  38  54  88 131 184 228 266 297 368
#     4  10  24  46  74  91 126 169 212 276 358 400
#     4  12  24  38  64  96 140 170 220 262 326 371
#
# _framework density 24.539914
#
# number of rings (size 3 to 8) (size 9 to 14) (size 15 to 20)
#    0.500    0.000    5.000    4.750    0.000    0.000 
#    0.000   10.000    0.000    0.000    0.000    0.000 
#    0.000    0.000    0.000    0.000    0.000    0.000 
#
# Total GULP energy -134325.152409 kJ/mol
# GULP energy per Si atom -5596.881350 kJ/mol
# Density = 2.448406 g / cm^3
# Si number density = 24.539914 Si / 1000 Ang^3
#
#
#
# Elastic Constant Matrix: (Units=GPa)
#
#
# Indices 1 2 3 4 5 6 
#
# 1 127.7537 -32.1139 30.4622 15.3427 -5.2296 0.0000
# 2 -32.1139 127.7537 30.4622 -15.3427 5.2296 0.0000
# 3 30.4622 30.4622 124.1937 0.0000 0.0000 0.0000
# 4 15.3427 -15.3427 0.0000 17.0230 0.0000 5.2296
# 5 -5.2296 5.2296 0.0000 0.0000 17.0230 15.3427
# 6 0.0000 0.0000 0.0000 5.2296 15.3427 79.9338
#
#
#
# Elastic Compliance Matrix: (Units=1/GPa)
#
#
# Indices 1 2 3 4 5 6 
#
# 1 0.010072 0.002320 -0.003040 -0.006987 0.002382 0.000000
# 2 0.002320 0.010072 -0.003040 0.006987 -0.002382 0.000000
# 3 -0.003040 -0.003040 0.009543 0.000000 0.000000 0.000000
# 4 -0.006987 0.006987 0.000000 0.072802 0.000000 -0.004763
# 5 0.002382 -0.002382 0.000000 0.000000 0.072802 -0.013974
# 6 0.000000 0.000000 0.000000 -0.004763 -0.013974 0.015504
#
#
# Mechanical properties :
#
#
# Convention : Reuss Voigt Hill
#
# Bulk Modulus (GPa) = 45.10775 48.59134 46.84954
# Shear Modulus (GPa) = 24.30696 46.18868 35.24782
#
# Velocity S-wave (km/s) = 3.15065 4.34312 3.79403
# Velocity P-wave (km/s) = 5.62643 6.70777 6.19076
#
# Compressibility (1/GPa) = 0.02216914
#
# Stress axis : x y z
#
# Youngs Moduli (GPa) = 99.28411 99.28411 104.78870
#
# Poissons Ratio (x) = -0.23034 0.31851
# Poissons Ratio (y) = -0.23034 0.31851
# Poissons Ratio (z) = 0.30178 0.30178
#
# Static dielectric constant tensor:
#      x y z
#    x 1.946850 0.000000 0.000000 
#    y 0.000000 1.946850 0.000000 
#    z 0.000000 0.000000 1.854320 
# 
# From -- ./inp_files/115.got.cif
#   From: 2010.05.17/outbox.cif.g08.bks.cpg/sg147_cif.got.tgz:115.got - 2010.05.20 13:49:32.
