data_PCOD9574880
_publ_section_title
;
Structure prediction by ZEFSAII (Michael W. Deem and Ramdas Pophale) SiO2 
 PCOD9574880
Probable space group: P -3
;
_chemical_formula_sum "Si O2"
_cell_formula_units_Z 42
_cell_length_a 13.034829
_cell_length_b 13.034829
_cell_length_c 18.531616
_cell_angle_alpha 90.000000
_cell_angle_beta 90.000000
_cell_angle_gamma 120.000000
_cell_volume 2726.808257
_symmetry_space_group_name_H-M "P -3"
_symmetry_group_IT_number 147
_symmetry_cell_setting 'hexagonal'
loop_
_space_group_symop_operation_xyz
x,y,z
-y,x-y,z
-x+y,-x,z
-x,-y,-z
y,-x+y,-z
x-y,x,-z
loop_
_atom_site_type_symbol
_atom_site_label
_atom_site_fract_x
_atom_site_fract_y
_atom_site_fract_z
Si Si1 0.577266 0.666430 0.710543
Si Si2 0.000062 0.754342 0.841488
Si Si3 0.758563 0.999633 0.416003
Si Si4 0.245658 0.999938 0.841488
Si Si5 0.243986 0.000000 0.000000
Si Si6 0.758563 0.758930 0.416003
Si Si7 0.666430 0.577266 0.289457
O O1 0.652996 0.682409 0.638501
O O2 0.661596 0.684830 0.778647
O O3 0.457123 0.542877 0.712694
O O4 0.552140 0.776070 0.712032
O O5 0.876533 0.753066 0.832095
O O6 0.110171 0.889829 0.838668
O O7 0.023233 0.684830 0.778647
O O8 0.002536 0.704554 0.921609
O O9 0.749383 0.874692 0.399481
O O10 0.726770 0.000000 0.500000
O O11 0.894566 0.105434 0.407639
O O12 0.295446 0.997464 0.921609
O O13 0.115262 0.884738 0.002539
O O14 0.682409 0.652996 0.361499
#
# Coordination Sequence:
#
# PCOD9574880 Si02
#       7
#     6   6   6   6   6   6   6
#     4  10  20  32  45  61  85 120 159 193 219 247
#     4   9  16  27  46  71  95 116 140 177 227 278
#     4   9  17  30  50  75  98 116 136 171 223 277
#     4   9  16  27  46  71  95 116 140 177 227 278
#     4   8  13  22  39  66  96 118 136 166 218 280
#     4   9  17  30  50  75  98 116 136 171 223 277
#     4  10  20  32  45  61  85 120 159 193 219 247
#
# _framework density 15.402621999999999
#
# number of rings (size 3 to 8) (size 9 to 14) (size 15 to 20)
#    0.000    2.857    0.000    1.857    0.000    4.000 
#    0.000    3.571    0.000    4.571    0.000    0.000 
#    0.000    0.000    0.000    0.000    0.000    0.000 
#
# Total GULP energy -233823.386917 kJ/mol
# GULP energy per Si atom -5567.223498 kJ/mol
# Density = 1.536757 g / cm^3
# Si number density = 15.402622 Si / 1000 Ang^3
#
#
#
# Elastic Constant Matrix: (Units=GPa)
#
#
# Indices 1 2 3 4 5 6 
#
# 1 88.6872 47.1066 72.7038 0.0189 0.0000 0.0000
# 2 47.1066 88.6872 72.7038 -0.0189 0.0000 0.0000
# 3 72.7038 72.7038 129.2856 0.0000 0.0000 0.0000
# 4 0.0189 -0.0189 0.0000 13.7860 0.0000 0.0000
# 5 0.0000 0.0000 0.0000 0.0000 13.7860 0.0189
# 6 0.0000 0.0000 0.0000 0.0000 0.0189 20.7903
#
#
#
# Elastic Compliance Matrix: (Units=1/GPa)
#
#
# Indices 1 2 3 4 5 6 
#
# 1 0.021280 -0.002770 -0.010409 -0.000033 0.000000 0.000000
# 2 -0.002770 0.021280 -0.010409 0.000033 0.000000 0.000000
# 3 -0.010409 -0.010409 0.019442 0.000000 0.000000 0.000000
# 4 -0.000033 0.000033 0.000000 0.072537 0.000000 0.000000
# 5 0.000000 0.000000 0.000000 0.000000 0.072537 -0.000066
# 6 0.000000 0.000000 0.000000 0.000000 -0.000066 0.048099
#
#
# Mechanical properties :
#
#
# Convention : Reuss Voigt Hill
#
# Bulk Modulus (GPa) = 67.45065 76.85426 72.15245
# Shear Modulus (GPa) = 16.27103 17.28220 16.77661
#
# Velocity S-wave (km/s) = 3.25373 3.35330 3.30389
# Velocity P-wave (km/s) = 7.61593 8.06214 7.84221
#
# Compressibility (1/GPa) = 0.01482565
#
# Stress axis : x y z
#
# Youngs Moduli (GPa) = 46.99245 46.99245 51.43473
#
# Poissons Ratio (x) = 0.13016 0.53540
# Poissons Ratio (y) = 0.13016 0.53540
# Poissons Ratio (z) = 0.48916 0.48916
#
# Static dielectric constant tensor:
#      x y z
#    x 1.478230 0.000000 0.000000 
#    y 0.000000 1.478230 0.000000 
#    z 0.000000 0.000000 1.564820 
# 
# From -- ./inp_files/1030.got.cif
#   From: 2010.05.17/outbox.cif.g08.bks.cpg/sg147_cif.got.tgz:1030.got - 2010.05.20 13:49:32.
