data_PCOD9574985
_publ_section_title
;
Structure prediction by ZEFSAII (Michael W. Deem and Ramdas Pophale) SiO2 
 PCOD9574985
Probable space group: P -3
;
_chemical_formula_sum "Si O2"
_cell_formula_units_Z 18
_cell_length_a 11.158894
_cell_length_b 11.158894
_cell_length_c 7.978890
_cell_angle_alpha 90.000000
_cell_angle_beta 90.000000
_cell_angle_gamma 120.000000
_cell_volume 860.429742
_symmetry_space_group_name_H-M "P -3"
_symmetry_group_IT_number 147
_symmetry_cell_setting 'hexagonal'
loop_
_space_group_symop_operation_xyz
x,y,z
-y,x-y,z
-x+y,-x,z
-x,-y,-z
y,-x+y,-z
x-y,x,-z
loop_
_atom_site_type_symbol
_atom_site_label
_atom_site_fract_x
_atom_site_fract_y
_atom_site_fract_z
Si Si1 0.821307 0.326918 0.811401
Si Si2 0.494389 0.821307 0.811403
Si Si3 0.751370 0.687945 0.499999
O O1 0.797649 0.458502 0.796675
O O2 0.908470 0.314800 0.663841
O O3 0.870172 0.324711 0.999999
O O4 0.339147 0.797649 0.796677
O O5 0.593671 0.908470 0.663843
O O6 0.732670 0.820166 0.500000
#
# Coordination Sequence:
#
# PCOD9574985 Si02
#       3
#     6   6   6
#     4   8  18  39  63  91 113 132 179 246 306 342
#     4   8  18  39  63  91 113 132 179 246 306 342
#     4  12  25  38  54  80 119 164 198 222 260 330
#
# _framework density 20.919777
#
# number of rings (size 3 to 8) (size 9 to 14) (size 15 to 20)
#    1.333    1.333    0.000    2.333    0.000    8.000 
#    0.000    6.667    0.000    4.000    0.000    0.000 
#    0.000    0.000    0.000    0.000    0.000    0.000 
#
# Total GULP energy -100495.830780 kJ/mol
# GULP energy per Si atom -5583.101710 kJ/mol
# Density = 2.087216 g / cm^3
# Si number density = 20.919777 Si / 1000 Ang^3
#
#
#
# Elastic Constant Matrix: (Units=GPa)
#
#
# Indices 1 2 3 4 5 6 
#
# 1 71.6796 24.5406 56.0156 -0.0001 -0.0001 0.0000
# 2 24.5406 71.6796 56.0156 0.0001 0.0001 0.0000
# 3 56.0156 56.0156 159.8207 0.0000 0.0000 0.0000
# 4 -0.0001 0.0001 0.0000 -2.4895 0.0000 0.0001
# 5 -0.0001 0.0001 0.0000 0.0000 -2.4895 -0.0001
# 6 0.0000 0.0000 0.0000 0.0001 -0.0001 23.5695
#
#
#
# Elastic Compliance Matrix: (Units=1/GPa)
#
#
# Indices 1 2 3 4 5 6 
#
# 1 0.019386 -0.001828 -0.006154 -0.000001 -0.000001 0.000000
# 2 -0.001828 0.019386 -0.006154 0.000001 0.000001 0.000000
# 3 -0.006154 -0.006154 0.010571 0.000000 0.000000 0.000000
# 4 -0.000001 0.000001 0.000000 -0.401694 0.000000 0.000002
# 5 -0.000001 0.000001 0.000000 0.000000 -0.401694 -0.000002
# 6 0.000000 0.000000 0.000000 0.000002 -0.000002 0.042428
#
#
# Mechanical properties :
#
#
# Convention : Reuss Voigt Hill
#
# Bulk Modulus (GPa) = 47.45839 64.03595 55.74717
# Shear Modulus (GPa) = -7.39293 14.82531 3.71619
#
# Velocity S-wave (km/s) = -1.88192 2.66498 1.33426
# Velocity P-wave (km/s) = 4.24417 6.33610 5.39255
#
# Compressibility (1/GPa) = 0.02107109
#
# Stress axis : x y z
#
# Youngs Moduli (GPa) = 51.58387 51.58387 94.60052
#
# Poissons Ratio (x) = 0.09429 0.58216
# Poissons Ratio (y) = 0.09429 0.58216
# Poissons Ratio (z) = 0.31744 0.31744
#
# Static dielectric constant tensor:
#      x y z
#    x 1.760140 0.000000 0.000000 
#    y 0.000000 1.760140 0.000000 
#    z 0.000000 0.000000 1.707940 
# 
# From -- ./inp_files/352.got.cif
#   From: 2010.05.17/outbox.cif.g08.bks.cpg/sg147_cif.got.tgz:352.got - 2010.05.20 13:49:32.
