data_PCOD9574132
_publ_section_title
;
Structure prediction by ZEFSAII (Michael W. Deem and Ramdas Pophale) SiO2 
 PCOD9574132
Probable space group: I 41/A C D
;
_chemical_formula_sum "Si O2"
_cell_formula_units_Z 160
_cell_length_a 19.172559
_cell_length_b 19.172559
_cell_length_c 19.958521
_cell_angle_alpha 90.000000
_cell_angle_beta 90.000000
_cell_angle_gamma 90.000000
_cell_volume 7336.493230
_symmetry_space_group_name_H-M "I 41/A C D"
_symmetry_group_IT_number 142
_space_group.IT_coordinate_system_code '2'
_symmetry_cell_setting 'tetragonal'
loop_
_space_group_symop_operation_xyz
x,y,z
1/4-y,3/4+x,1/4+z
-x,1/2-y,z
1/4+y,1/4-x,3/4+z
x,-y,1/2-z
1/2-x,y,-z
3/4+y,1/4+x,1/4-z
1/4-y,1/4-x,1/4-z
-x,-y,-z
3/4+y,1/4-x,3/4-z
x,1/2+y,-z
3/4-y,3/4+x,1/4-z
-x,y,1/2+z
1/2+x,-y,z
1/4-y,3/4-x,3/4+z
3/4+y,3/4+x,3/4+z
1/2+x,1/2+y,1/2+z
3/4-y,1/4+x,3/4+z
1/2-x,-y,1/2+z
3/4+y,3/4-x,1/4+z
1/2+x,1/2-y,-z
-x,1/2+y,1/2-z
1/4+y,3/4+x,3/4-z
3/4-y,3/4-x,3/4-z
1/2-x,1/2-y,1/2-z
1/4+y,3/4-x,1/4-z
1/2+x,y,1/2-z
1/4-y,1/4+x,3/4-z
1/2-x,1/2+y,z
x,1/2-y,1/2+z
3/4-y,1/4-x,1/4+z
1/4+y,1/4+x,1/4+z
loop_
_atom_site_type_symbol
_atom_site_label
_atom_site_fract_x
_atom_site_fract_y
_atom_site_fract_z
Si Si1 0.609930 0.310199 0.939638
Si Si2 0.432316 0.172347 0.658210
Si Si3 0.641743 0.421888 0.184059
Si Si4 0.082294 0.578714 0.322773
Si Si5 0.795464 0.560817 0.300509
O O1 0.559911 0.309911 0.875000
O O2 0.668237 0.251786 0.922263
O O3 0.638473 0.389211 0.945594
O O4 0.578995 0.299615 0.013564
O O5 0.501442 0.157351 0.615047
O O6 0.372917 0.119494 0.632743
O O7 0.594690 0.397302 0.246191
O O8 0.617782 0.502092 0.171342
O O9 0.718796 0.411355 0.214851
O O10 0.119637 0.630364 0.375000
O O11 0.813304 0.500000 0.250000
O O12 0.782462 0.532462 0.375000
#
# Coordination Sequence:
#
# PCOD9574132 Si02
#       5
#    32  32  32  32  32
#     4  11  27  45  69 103 143 191 237 297 364 435
#     4  11  25  45  69 100 140 191 237 296 363 439
#     4  11  24  44  70 107 137 190 240 303 365 428
#     4  11  25  44  71 105 142 189 241 298 362 440
#     4  11  23  41  70 101 140 182 231 298 362 423
#
# _framework density 21.808786000000001
#
# number of rings (size 3 to 8) (size 9 to 14) (size 15 to 20)
#    0.000    1.000    4.000    1.800    8.400    3.600 
#    0.000    2.000    0.000    0.000    0.000    0.000 
#    0.000    0.000    0.000    0.000    0.000    0.000 
#
# Total GULP energy -446311.758412 kJ/mol
# GULP energy per Si atom -5578.896980 kJ/mol
# Density = 2.175915 g / cm^3
# Si number density = 21.808786 Si / 1000 Ang^3
#
#
#
# Elastic Constant Matrix: (Units=GPa)
#
#
# Indices 1 2 3 4 5 6 
#
# 1 -15.5663 152.1515 23.1825 0.0000 0.0000 0.0000
# 2 152.1515 -15.5563 23.1798 0.0000 0.0000 0.0000
# 3 23.1825 23.1798 142.4055 0.0000 0.0000 0.0000
# 4 0.0000 0.0000 0.0000 26.5330 0.0000 0.0000
# 5 0.0000 0.0000 0.0000 0.0000 26.5327 0.0000
# 6 0.0000 0.0000 0.0000 0.0000 0.0000 28.4045
#
#
#
# Elastic Compliance Matrix: (Units=1/GPa)
#
#
# Indices 1 2 3 4 5 6 
#
# 1 0.000893 0.006856 -0.001261 0.000000 0.000000 0.000000
# 2 0.006856 0.000894 -0.001262 0.000000 0.000000 0.000000
# 3 -0.001261 -0.001262 0.007433 0.000000 0.000000 0.000000
# 4 0.000000 0.000000 0.000000 0.037689 0.000000 0.000000
# 5 0.000000 0.000000 0.000000 0.000000 0.037689 0.000000
# 6 0.000000 0.000000 0.000000 0.000000 0.000000 0.035206
#
#
# Mechanical properties :
#
#
# Convention : Reuss Voigt Hill
#
# Bulk Modulus (GPa) = 55.91046 56.47893 56.19469
# Shear Modulus (GPa) = 42.69876 10.47865 26.58870
#
# Velocity S-wave (km/s) = 4.42958 2.19436 3.49546
# Velocity P-wave (km/s) = 7.20097 5.68980 6.48952
#
# Compressibility (1/GPa) = 0.01788574
#
# Stress axis : x y z
#
# Youngs Moduli (GPa) = 1119.65309 1119.02749 134.53723
#
# Poissons Ratio (x) = -7.67201 0.16970
# Poissons Ratio (y) = -7.67630 0.16973
# Poissons Ratio (z) = 1.41229 1.41171
#
# Static dielectric constant tensor:
#      x y z
#    x 1.896430 0.000000 0.000000 
#    y 0.000000 1.896430 0.000000 
#    z 0.000000 0.000000 1.679520 
# 
# From -- ./inp_files/7388.got.cif
#   From: 2010.05.17/outbox.cif.g08.bks.cpg/sg142_4_cif.got.tgz:7388.got - 2010.05.20 13:39:18.
