data_PCOD9574482
_publ_section_title
;
Structure prediction by ZEFSAII (Michael W. Deem and Ramdas Pophale) SiO2 
 PCOD9574482
Probable space group: P 31
;
_chemical_formula_sum "Si O2"
_cell_formula_units_Z 18
_cell_length_a 9.224660
_cell_length_b 9.224660
_cell_length_c 9.767829
_cell_angle_alpha 90.000000
_cell_angle_beta 90.000000
_cell_angle_gamma 120.000000
_cell_volume 719.829127
_symmetry_space_group_name_H-M "P 31"
_symmetry_group_IT_number 144
_symmetry_cell_setting 'hexagonal'
loop_
_space_group_symop_operation_xyz
x,y,z
-y,x-y,1/3+z
-x+y,-x,2/3+z
loop_
_atom_site_type_symbol
_atom_site_label
_atom_site_fract_x
_atom_site_fract_y
_atom_site_fract_z
Si Si1 0.139312 0.653907 0.620900
Si Si2 0.814619 0.829636 0.782491
Si Si3 0.866767 0.405369 0.111133
Si Si4 0.500484 0.345173 0.150868
Si Si5 0.775888 0.819356 0.472155
Si Si6 0.130979 0.690934 0.304105
O O1 0.184549 0.816799 0.710492
O O2 0.105198 0.680818 0.465884
O O3 0.277057 0.596564 0.618807
O O4 0.973302 0.515786 0.699328
O O5 0.809719 0.653161 0.804293
O O6 0.742521 0.827295 0.632801
O O7 0.713759 0.864361 0.896880
O O8 0.012753 0.962181 0.777656
O O9 0.678423 0.357693 0.138945
O O10 0.882220 0.239904 0.109586
O O11 0.991186 0.527386 0.226829
O O12 0.918818 0.499234 0.965932
#
# Coordination Sequence:
#
# PCOD9574482 Si02
#       6
#     3   3   3   3   3   3
#     4  11  25  47  75 113 154 201 256 318 382 457
#     4  11  26  49  76 113 154 197 252 319 382 452
#     4  12  26  48  77 110 150 202 253 313 382 465
#     4  11  26  48  74 112 157 203 253 309 388 469
#     4  11  26  47  75 109 152 197 250 313 379 447
#     4  12  25  47  79 113 149 198 258 320 379 450
#
# _framework density 25.005932999999999
#
# number of rings (size 3 to 8) (size 9 to 14) (size 15 to 20)
#    0.000    0.667    0.000    7.000    0.000   10.667 
#    0.000    0.000    0.000    2.000    0.000    0.000 
#    0.000    0.000    0.000    0.000    0.000    0.000 
#
# Total GULP energy -101037.602264 kJ/mol
# GULP energy per Si atom -5613.200126 kJ/mol
# Density = 2.494902 g / cm^3
# Si number density = 25.005933 Si / 1000 Ang^3
#
#
#
# Elastic Constant Matrix: (Units=GPa)
#
#
# Indices 1 2 3 4 5 6 
#
# 1 84.0815 15.4303 51.9014 1.5827 -3.9589 0.0000
# 2 15.4303 84.0815 51.9014 -1.5827 3.9589 0.0000
# 3 51.9014 51.9014 242.4081 0.0000 0.0000 0.0000
# 4 1.5827 -1.5827 0.0000 37.4786 0.0000 3.9589
# 5 -3.9589 3.9589 0.0000 0.0000 37.4786 1.5827
# 6 0.0000 0.0000 0.0000 3.9589 1.5827 34.3256
#
#
#
# Elastic Compliance Matrix: (Units=1/GPa)
#
#
# Indices 1 2 3 4 5 6 
#
# 1 0.013857 -0.000918 -0.002770 -0.000624 0.001561 0.000000
# 2 -0.000918 0.013857 -0.002770 0.000624 -0.001561 0.000000
# 3 -0.002770 -0.002770 0.005312 0.000000 0.000000 0.000000
# 4 -0.000624 0.000624 0.000000 0.027064 0.000000 -0.003121
# 5 0.001561 -0.001561 0.000000 0.000000 0.027064 -0.001248
# 6 0.000000 0.000000 0.000000 -0.003121 -0.001248 0.029550
#
#
# Mechanical properties :
#
#
# Convention : Reuss Voigt Hill
#
# Bulk Modulus (GPa) = 49.73144 72.11522 60.92333
# Shear Modulus (GPa) = 36.67714 41.27909 38.97811
#
# Velocity S-wave (km/s) = 3.83396 4.06738 3.95239
# Velocity P-wave (km/s) = 6.28729 7.13862 6.72644
#
# Compressibility (1/GPa) = 0.02010800
#
# Stress axis : x y z
#
# Youngs Moduli (GPa) = 72.16575 72.16575 188.26871
#
# Poissons Ratio (x) = 0.06626 0.52156
# Poissons Ratio (y) = 0.06626 0.52156
# Poissons Ratio (z) = 0.19992 0.19992
#
# Static dielectric constant tensor:
#      x y z
#    x 1.984820 0.000000 0.000000 
#    y 0.000000 1.984820 0.000000 
#    z 0.000000 0.000000 1.937340 
# 
# From -- ./inp_files/266.got.cif
#   From: 2010.05.17/outbox.cif.g08.bks.cpg/sg144_cif.got.tgz:266.got - 2010.05.20 13:46:34.
