data_PCOD9574191
_publ_section_title
;
Structure prediction by ZEFSAII (Michael W. Deem and Ramdas Pophale) SiO2 
 PCOD9574191
Probable space group: I 41/A C D
;
_chemical_formula_sum "Si O2"
_cell_formula_units_Z 88
_cell_length_a 12.559495
_cell_length_b 12.559495
_cell_length_c 23.285848
_cell_angle_alpha 90.000000
_cell_angle_beta 90.000000
_cell_angle_gamma 90.000000
_cell_volume 3673.130962
_symmetry_space_group_name_H-M "I 41/A C D"
_symmetry_group_IT_number 142
_space_group.IT_coordinate_system_code '2'
_symmetry_cell_setting 'tetragonal'
loop_
_space_group_symop_operation_xyz
x,y,z
1/4-y,3/4+x,1/4+z
-x,1/2-y,z
1/4+y,1/4-x,3/4+z
x,-y,1/2-z
1/2-x,y,-z
3/4+y,1/4+x,1/4-z
1/4-y,1/4-x,1/4-z
-x,-y,-z
3/4+y,1/4-x,3/4-z
x,1/2+y,-z
3/4-y,3/4+x,1/4-z
-x,y,1/2+z
1/2+x,-y,z
1/4-y,3/4-x,3/4+z
3/4+y,3/4+x,3/4+z
1/2+x,1/2+y,1/2+z
3/4-y,1/4+x,3/4+z
1/2-x,-y,1/2+z
3/4+y,3/4-x,1/4+z
1/2+x,1/2-y,-z
-x,1/2+y,1/2-z
1/4+y,3/4+x,3/4-z
3/4-y,3/4-x,3/4-z
1/2-x,1/2-y,1/2-z
1/4+y,3/4-x,1/4-z
1/2+x,y,1/2-z
1/4-y,1/4+x,3/4-z
1/2-x,1/2+y,z
x,1/2-y,1/2+z
3/4-y,1/4-x,1/4+z
1/4+y,1/4+x,1/4+z
loop_
_atom_site_type_symbol
_atom_site_label
_atom_site_fract_x
_atom_site_fract_y
_atom_site_fract_z
Si Si1 0.500000 0.250000 0.125000
Si Si2 0.162689 0.148628 0.299685
Si Si3 0.165657 0.344039 0.566616
Si Si4 0.125998 0.875998 0.875000
O O1 0.490480 0.149184 0.083151
O O2 0.157629 0.155103 0.230569
O O3 0.272251 0.127173 0.332667
O O4 0.091371 0.041082 0.304017
O O5 0.158467 0.408467 0.625000
O O6 0.126601 0.226683 0.583372
#
# Coordination Sequence:
#
# PCOD9574191 Si02
#       4
#     8  32  32  16
#     4  12  24  48  66 112 144 204 236 302 364 436
#     4  11  26  45  74 103 149 190 245 295 359 436
#     4  11  26  46  71 109 140 191 244 292 363 432
#     4  12  25  48  72 109 146 188 240 304 362 427
#
# _framework density 23.957764000000001
#
# number of rings (size 3 to 8) (size 9 to 14) (size 15 to 20)
#    0.000    0.727    5.455    0.545    5.091   10.182 
#    0.000    0.000    0.000    0.000    0.000    0.000 
#    0.000    0.000    0.000    0.000    0.000    0.000 
#
# Total GULP energy -245856.987881 kJ/mol
# GULP energy per Si atom -5587.658815 kJ/mol
# Density = 2.390324 g / cm^3
# Si number density = 23.957764 Si / 1000 Ang^3
#
#
#
# Elastic Constant Matrix: (Units=GPa)
#
#
# Indices 1 2 3 4 5 6 
#
# 1 85.9396 -4.3903 20.0572 0.0000 0.0000 0.0000
# 2 -4.3903 85.9396 20.0572 0.0000 0.0000 0.0000
# 3 20.0572 20.0572 176.3958 0.0000 0.0000 0.0000
# 4 0.0000 0.0000 0.0000 38.7385 0.0000 0.0000
# 5 0.0000 0.0000 0.0000 0.0000 38.7385 0.0000
# 6 0.0000 0.0000 0.0000 0.0000 0.0000 29.6024
#
#
#
# Elastic Compliance Matrix: (Units=1/GPa)
#
#
# Indices 1 2 3 4 5 6 
#
# 1 0.012030 0.000959 -0.001477 0.000000 0.000000 0.000000
# 2 0.000959 0.012030 -0.001477 0.000000 0.000000 0.000000
# 3 -0.001477 -0.001477 0.006005 0.000000 0.000000 0.000000
# 4 0.000000 0.000000 0.000000 0.025814 0.000000 0.000000
# 5 0.000000 0.000000 0.000000 0.000000 0.025814 0.000000
# 6 0.000000 0.000000 0.000000 0.000000 0.000000 0.033781
#
#
# Mechanical properties :
#
#
# Convention : Reuss Voigt Hill
#
# Bulk Modulus (GPa) = 38.35051 46.63593 42.49322
# Shear Modulus (GPa) = 39.01531 42.25259 40.63395
#
# Velocity S-wave (km/s) = 4.03985 4.20411 4.12280
# Velocity P-wave (km/s) = 6.14840 6.56310 6.35913
#
# Compressibility (1/GPa) = 0.02607527
#
# Stress axis : x y z
#
# Youngs Moduli (GPa) = 83.12706 83.12706 166.52962
#
# Poissons Ratio (x) = -0.07974 0.24595
# Poissons Ratio (y) = -0.07974 0.24595
# Poissons Ratio (z) = 0.12277 0.12277
#
# Static dielectric constant tensor:
#      x y z
#    x 1.959930 0.000000 0.000000 
#    y 0.000000 1.959930 0.000000 
#    z 0.000000 0.000000 2.131250 
# 
# From -- ./inp_files/8268.got.cif
#   From: 2010.05.17/outbox.cif.g08.bks.cpg/sg142_5_cif.got.tgz:8268.got - 2010.05.20 13:39:18.
