data_PCOD9574379
_publ_section_title
;
Structure prediction by ZEFSAII (Michael W. Deem and Ramdas Pophale) SiO2 
 PCOD9574379
Probable space group: P 31
;
_chemical_formula_sum "Si O2"
_cell_formula_units_Z 21
_cell_length_a 9.508823
_cell_length_b 9.508823
_cell_length_c 10.464308
_cell_angle_alpha 90.000000
_cell_angle_beta 90.000000
_cell_angle_gamma 120.000000
_cell_volume 819.397571
_symmetry_space_group_name_H-M "P 31"
_symmetry_group_IT_number 144
_symmetry_cell_setting 'hexagonal'
loop_
_space_group_symop_operation_xyz
x,y,z
-y,x-y,1/3+z
-x+y,-x,2/3+z
loop_
_atom_site_type_symbol
_atom_site_label
_atom_site_fract_x
_atom_site_fract_y
_atom_site_fract_z
Si Si1 0.592949 0.245599 0.878610
Si Si2 0.225786 0.469816 0.623354
Si Si3 0.028201 0.904846 0.389411
Si Si4 0.157820 0.195090 0.223660
Si Si5 0.415998 0.104454 0.139012
Si Si6 0.902734 0.279022 0.960515
Si Si7 0.205751 0.515234 0.105458
O O1 0.639280 0.431463 0.897872
O O2 0.769550 0.262622 0.858733
O O3 0.477704 0.181371 0.756489
O O4 0.492492 0.137585 0.998543
O O5 0.181026 0.317123 0.715510
O O6 0.379614 0.534726 0.528635
O O7 0.251320 0.620232 0.709058
O O8 0.076727 0.407046 0.524442
O O9 0.884936 0.794768 0.287995
O O10 0.136397 0.094722 0.352609
O O11 0.910885 0.885630 0.504602
O O12 0.286562 0.165929 0.145177
O O13 0.205914 0.379206 0.199019
O O14 0.082828 0.426586 0.986976
#
# Coordination Sequence:
#
# PCOD9574379 Si02
#       7
#     3   3   3   3   3   3   3
#     4  10  22  42  73 101 147 178 242 284 365 421
#     4  11  26  44  70 106 143 191 235 304 353 422
#     4  10  24  46  70 102 138 191 236 296 357 418
#     4  10  24  45  69 101 138 186 241 289 356 426
#     4  10  23  44  71 105 139 190 232 296 354 426
#     4  10  23  43  70 106 137 193 228 298 353 424
#     4  11  26  42  71 103 144 187 240 297 358 421
#
# _framework density 25.628588000000001
#
# number of rings (size 3 to 8) (size 9 to 14) (size 15 to 20)
#    0.000    1.714    0.000    1.714   12.000    3.429 
#   18.000    0.000    0.000    0.000    0.000    0.000 
#    0.000    0.000    0.000    0.000    0.000    0.000 
#
# Total GULP energy -117421.669510 kJ/mol
# GULP energy per Si atom -5591.508072 kJ/mol
# Density = 2.557026 g / cm^3
# Si number density = 25.628588 Si / 1000 Ang^3
#
#
#
# Elastic Constant Matrix: (Units=GPa)
#
#
# Indices 1 2 3 4 5 6 
#
# 1 115.3348 24.2446 12.1262 16.4840 4.6582 0.0000
# 2 24.2446 115.3348 12.1262 -16.4840 -4.6582 0.0000
# 3 12.1262 12.1262 85.4230 0.0000 0.0000 0.0000
# 4 16.4840 -16.4840 0.0000 7.4590 0.0000 -4.6582
# 5 4.6582 -4.6582 0.0000 0.0000 7.4590 16.4840
# 6 0.0000 0.0000 0.0000 -4.6582 16.4840 45.5451
#
#
#
# Elastic Compliance Matrix: (Units=1/GPa)
#
#
# Indices 1 2 3 4 5 6 
#
# 1 0.043948 -0.036602 -0.001043 -0.178012 -0.050304 0.000000
# 2 -0.036602 0.043948 -0.001043 0.178012 0.050304 0.000000
# 3 -0.001043 -0.001043 0.012002 0.000000 0.000000 0.000000
# 4 -0.178012 0.178012 0.000000 0.983688 0.000000 0.100607
# 5 -0.050304 0.050304 0.000000 0.000000 0.983688 -0.356023
# 6 0.000000 0.000000 0.000000 0.100607 -0.356023 0.161100
#
#
# Mechanical properties :
#
#
# Convention : Reuss Voigt Hill
#
# Bulk Modulus (GPa) = 44.39972 45.89850 45.14911
# Shear Modulus (GPa) = 2.16145 29.93232 16.04689
#
# Velocity S-wave (km/s) = 0.91935 3.42120 2.50498
# Velocity P-wave (km/s) = 4.29987 5.79259 5.10113
#
# Compressibility (1/GPa) = 0.02252266
#
# Stress axis : x y z
#
# Youngs Moduli (GPa) = 22.75424 22.75424 83.31607
#
# Poissons Ratio (x) = 0.83286 0.08688
# Poissons Ratio (y) = 0.83286 0.08688
# Poissons Ratio (z) = 0.02373 0.02373
#
# Static dielectric constant tensor:
#      x y z
#    x 2.028700 0.000000 0.000000 
#    y 0.000000 2.028700 0.000000 
#    z 0.000000 0.000000 2.099940 
# 
# From -- ./inp_files/605.got.cif
#   From: 2010.05.17/outbox.cif.g08.bks.cpg/sg144_cif.got.tgz:605.got - 2010.05.20 13:46:34.
