data_PCOD9574124
_publ_section_title
;
Structure prediction by ZEFSAII (Michael W. Deem and Ramdas Pophale) SiO2 
 PCOD9574124
Probable space group: I 41/A C D
;
_chemical_formula_sum "Si O2"
_cell_formula_units_Z 240
_cell_length_a 19.955536
_cell_length_b 19.955536
_cell_length_c 27.708791
_cell_angle_alpha 90.000000
_cell_angle_beta 90.000000
_cell_angle_gamma 90.000000
_cell_volume 11034.289434
_symmetry_space_group_name_H-M "I 41/A C D"
_symmetry_group_IT_number 142
_space_group.IT_coordinate_system_code '2'
_symmetry_cell_setting 'tetragonal'
loop_
_space_group_symop_operation_xyz
x,y,z
1/4-y,3/4+x,1/4+z
-x,1/2-y,z
1/4+y,1/4-x,3/4+z
x,-y,1/2-z
1/2-x,y,-z
3/4+y,1/4+x,1/4-z
1/4-y,1/4-x,1/4-z
-x,-y,-z
3/4+y,1/4-x,3/4-z
x,1/2+y,-z
3/4-y,3/4+x,1/4-z
-x,y,1/2+z
1/2+x,-y,z
1/4-y,3/4-x,3/4+z
3/4+y,3/4+x,3/4+z
1/2+x,1/2+y,1/2+z
3/4-y,1/4+x,3/4+z
1/2-x,-y,1/2+z
3/4+y,3/4-x,1/4+z
1/2+x,1/2-y,-z
-x,1/2+y,1/2-z
1/4+y,3/4+x,3/4-z
3/4-y,3/4-x,3/4-z
1/2-x,1/2-y,1/2-z
1/4+y,3/4-x,1/4-z
1/2+x,y,1/2-z
1/4-y,1/4+x,3/4-z
1/2-x,1/2+y,z
x,1/2-y,1/2+z
3/4-y,1/4-x,1/4+z
1/4+y,1/4+x,1/4+z
loop_
_atom_site_type_symbol
_atom_site_label
_atom_site_fract_x
_atom_site_fract_y
_atom_site_fract_z
Si Si1 0.380506 0.320145 0.203799
Si Si2 0.921079 0.171079 0.625000
Si Si3 0.882796 0.952116 0.402257
Si Si4 0.388704 0.776076 0.208145
Si Si5 0.986076 0.880446 0.244329
Si Si6 0.683152 0.792223 0.397918
Si Si7 0.706662 0.952866 0.956837
Si Si8 0.281988 0.182345 0.929543
O O1 0.369089 0.263200 0.243307
O O2 0.456721 0.340767 0.214724
O O3 0.365319 0.298006 0.148671
O O4 0.334412 0.385109 0.215911
O O5 0.920667 0.225571 0.668325
O O6 0.928283 0.096815 0.646313
O O7 0.865483 0.884518 0.375000
O O8 0.939204 0.929280 0.439407
O O9 0.910292 0.005682 0.365347
O O10 0.816747 0.985356 0.424407
O O11 0.443409 0.832529 0.221385
O O12 0.939738 0.905623 0.200559
O O13 0.025125 0.937651 0.274986
O O14 0.719463 0.720684 0.405544
O O15 0.754661 0.892020 0.939754
O O16 0.750000 0.982204 0.000000
#
# Coordination Sequence:
#
# PCOD9574124 Si02
#       8
#    32  16  32  32  32  32  32  32
#     4  11  25  44  69 108 140 188 238 297 365 436
#     4  12  26  45  76 112 140 194 246 305 374 428
#     4  11  27  46  67 101 143 185 234 300 361 424
#     4  12  27  45  70 110 148 188 239 306 370 444
#     4  12  25  43  75 106 146 193 240 303 377 447
#     4  11  25  45  73 100 148 190 236 298 366 446
#     4  11  22  45  71  96 136 185 242 293 345 433
#     4  12  23  46  74 105 139 191 248 298 356 443
#
# _framework density 21.750381999999998
#
# number of rings (size 3 to 8) (size 9 to 14) (size 15 to 20)
#    0.000    0.533    5.333    1.600    2.800    3.733 
#    2.400    0.000    0.000    0.000    0.000    0.000 
#    0.000    0.000    0.000    0.000    0.000    0.000 
#
# Total GULP energy -670088.776049 kJ/mol
# GULP energy per Si atom -5584.073134 kJ/mol
# Density = 2.170088 g / cm^3
# Si number density = 21.750382 Si / 1000 Ang^3
#
#
#
# Elastic Constant Matrix: (Units=GPa)
#
#
# Indices 1 2 3 4 5 6 
#
# 1 68.5592 22.7558 37.2116 0.0000 0.0000 0.0000
# 2 22.7558 68.5600 37.2092 0.0000 0.0000 0.0000
# 3 37.2116 37.2092 97.0130 0.0000 0.0000 0.0000
# 4 0.0000 0.0000 0.0000 25.5089 0.0000 0.0000
# 5 0.0000 0.0000 0.0000 0.0000 25.5094 0.0000
# 6 0.0000 0.0000 0.0000 0.0000 0.0000 33.3651
#
#
#
# Elastic Compliance Matrix: (Units=1/GPa)
#
#
# Indices 1 2 3 4 5 6 
#
# 1 0.018882 -0.002951 -0.006111 0.000000 0.000000 0.000000
# 2 -0.002951 0.018881 -0.006110 0.000000 0.000000 0.000000
# 3 -0.006111 -0.006110 0.014995 0.000000 0.000000 0.000000
# 4 0.000000 0.000000 0.000000 0.039202 0.000000 0.000000
# 5 0.000000 0.000000 0.000000 0.000000 0.039201 0.000000
# 6 0.000000 0.000000 0.000000 0.000000 0.000000 0.029971
#
#
# Mechanical properties :
#
#
# Convention : Reuss Voigt Hill
#
# Bulk Modulus (GPa) = 44.61218 47.60949 46.11084
# Shear Modulus (GPa) = 25.13212 26.00705 25.56959
#
# Velocity S-wave (km/s) = 3.40292 3.46165 3.43241
# Velocity P-wave (km/s) = 5.99961 6.15743 6.07903
#
# Compressibility (1/GPa) = 0.02241540
#
# Stress axis : x y z
#
# Youngs Moduli (GPa) = 52.96014 52.96272 66.68699
#
# Poissons Ratio (x) = 0.15627 0.40752
# Poissons Ratio (y) = 0.15626 0.40746
# Poissons Ratio (z) = 0.32364 0.32361
#
# Static dielectric constant tensor:
#      x y z
#    x 1.820330 0.000000 0.000000 
#    y 0.000000 1.820330 0.000000 
#    z 0.000000 0.000000 1.916570 
# 
# From -- ./inp_files/11684.got.cif
#   From: 2010.05.17/outbox.cif.g08.bks.cpg/sg142_6_cif.got.tgz:11684.got - 2010.05.20 13:39:18.
