data_PCOD9574264
_publ_section_title
;
Structure prediction by ZEFSAII (Michael W. Deem and Ramdas Pophale) SiO2 
 PCOD9574264
Probable space group: I 41/A C D
;
_chemical_formula_sum "Si O2"
_cell_formula_units_Z 56
_cell_length_a 15.000000
_cell_length_b 15.000000
_cell_length_c 27.000000
_cell_angle_alpha 90.000000
_cell_angle_beta 90.000000
_cell_angle_gamma 90.000000
_cell_volume 6075.000000
_symmetry_space_group_name_H-M "I 41/A C D"
_symmetry_group_IT_number 142
_space_group.IT_coordinate_system_code '2'
_symmetry_cell_setting 'tetragonal'
loop_
_space_group_symop_operation_xyz
x,y,z
1/4-y,3/4+x,1/4+z
-x,1/2-y,z
1/4+y,1/4-x,3/4+z
x,-y,1/2-z
1/2-x,y,-z
3/4+y,1/4+x,1/4-z
1/4-y,1/4-x,1/4-z
-x,-y,-z
3/4+y,1/4-x,3/4-z
x,1/2+y,-z
3/4-y,3/4+x,1/4-z
-x,y,1/2+z
1/2+x,-y,z
1/4-y,3/4-x,3/4+z
3/4+y,3/4+x,3/4+z
1/2+x,1/2+y,1/2+z
3/4-y,1/4+x,3/4+z
1/2-x,-y,1/2+z
3/4+y,3/4-x,1/4+z
1/2+x,1/2-y,-z
-x,1/2+y,1/2-z
1/4+y,3/4+x,3/4-z
3/4-y,3/4-x,3/4-z
1/2-x,1/2-y,1/2-z
1/4+y,3/4-x,1/4-z
1/2+x,y,1/2-z
1/4-y,1/4+x,3/4-z
1/2-x,1/2+y,z
x,1/2-y,1/2+z
3/4-y,1/4-x,1/4+z
1/4+y,1/4+x,1/4+z
loop_
_atom_site_type_symbol
_atom_site_label
_atom_site_fract_x
_atom_site_fract_y
_atom_site_fract_z
Si Si1 0.124255 0.018790 0.350972
Si Si2 0.444406 0.656692 0.512019
Si Si3 0.250000 0.242475 0.000000
Si Si4 0.458851 0.032794 0.071938
O O1 0.074540 0.996642 0.298086
O O2 0.176656 0.114152 0.342454
O O3 0.039295 0.026543 0.388081
O O4 0.194414 0.944414 0.375000
O O5 0.500000 0.750000 0.524743
O O6 0.342136 0.695082 0.500758
O O7 0.499773 0.605577 0.467681
O O8 0.441827 0.569558 0.550200
#
# Coordination Sequence:
#
# PCOD9574264 Si02
#       4
#    32  32  16  32
#     4  12  28  47  73 111 144 194 247 304 369 443
#     4  11  24  48  74 107 146 190 244 302 367 443
#     4  12  26  46  78 102 152 200 236 308 372 434
#     4  11  27  46  74 107 144 190 246 303 366 448
#
# _framework density 9.2181069999999998
#
# number of rings (size 3 to 8) (size 9 to 14) (size 15 to 20)
#    0.000    0.571    2.857    3.429   12.000    0.000 
#    0.000    2.857    0.000    0.000    0.000    0.000 
#    0.000    0.000    0.000    0.000    0.000    0.000 
#
# Total GULP energy -311751.954679 kJ/mol
# GULP energy per Si atom -5566.999191 kJ/mol
# Density = 0.919713 g / cm^3
# Si number density = 9.218107 Si / 1000 Ang^3
#
#
#
# Elastic Constant Matrix: (Units=GPa)
#
#
# Indices 1 2 3 4 5 6 
#
# 1 198.7611 81.3330 63.1865 0.0000 0.0000 0.0000
# 2 81.3330 198.7611 63.1865 0.0000 0.0000 0.0000
# 3 63.1865 63.1865 122.1792 0.0000 0.0000 0.0000
# 4 0.0000 0.0000 0.0000 44.8694 0.0000 0.0000
# 5 0.0000 0.0000 0.0000 0.0000 44.8694 0.0000
# 6 0.0000 0.0000 0.0000 0.0000 0.0000 68.6131
#
#
#
# Elastic Compliance Matrix: (Units=1/GPa)
#
#
# Indices 1 2 3 4 5 6 
#
# 1 0.006586 -0.001930 -0.002408 0.000000 0.000000 0.000000
# 2 -0.001930 0.006586 -0.002408 0.000000 0.000000 0.000000
# 3 -0.002408 -0.002408 0.010676 0.000000 0.000000 0.000000
# 4 0.000000 0.000000 0.000000 0.022287 0.000000 0.000000
# 5 0.000000 0.000000 0.000000 0.000000 0.022287 0.000000
# 6 0.000000 0.000000 0.000000 0.000000 0.000000 0.014574
#
#
# Mechanical properties :
#
#
# Convention : Reuss Voigt Hill
#
# Bulk Modulus (GPa) = 96.56230 103.90150 100.23190
# Shear Modulus (GPa) = 50.02952 52.47009 51.24980
#
# Velocity S-wave (km/s) = 5.21493 5.34061 5.27814
# Velocity P-wave (km/s) = 9.42076 9.72158 9.57235
#
# Compressibility (1/GPa) = 0.01035601
#
# Stress axis : x y z
#
# Youngs Moduli (GPa) = 151.82953 151.82953 93.67071
#
# Poissons Ratio (x) = 0.29296 0.22559
# Poissons Ratio (y) = 0.29296 0.22559
# Poissons Ratio (z) = 0.36566 0.36566
#
# Static dielectric constant tensor:
#      x y z
#    x 1.648690 0.000000 0.000000 
#    y 0.000000 1.648690 0.000000 
#    z 0.000000 0.000000 1.711350 
# 
# From -- ./inp_files/11073.got.cif
#   From: 2010.05.17/outbox.ucp.g08.bks.cvg/sg142_6_cif.got.tgz:11073.got - 2010.06.11 11:43:53.
