data_PCOD9574459
_publ_section_title
;
Structure prediction by ZEFSAII (Michael W. Deem and Ramdas Pophale) SiO2 
 PCOD9574459
Probable space group: P 31
;
_chemical_formula_sum "Si O2"
_cell_formula_units_Z 21
_cell_length_a 8.440820
_cell_length_b 8.440820
_cell_length_c 14.888495
_cell_angle_alpha 90.000000
_cell_angle_beta 90.000000
_cell_angle_gamma 120.000000
_cell_volume 918.651332
_symmetry_space_group_name_H-M "P 31"
_symmetry_group_IT_number 144
_symmetry_cell_setting 'hexagonal'
loop_
_space_group_symop_operation_xyz
x,y,z
-y,x-y,1/3+z
-x+y,-x,2/3+z
loop_
_atom_site_type_symbol
_atom_site_label
_atom_site_fract_x
_atom_site_fract_y
_atom_site_fract_z
Si Si1 0.446699 0.758649 0.260560
Si Si2 0.814648 0.011979 0.695721
Si Si3 0.802788 0.850290 0.357839
Si Si4 0.531644 0.221619 0.445753
Si Si5 0.465359 0.636016 0.736689
Si Si6 0.641265 0.942869 0.511731
Si Si7 0.819153 0.496202 0.311262
O O1 0.657497 0.845704 0.286714
O O2 0.420250 0.857161 0.174627
O O3 0.324845 0.717238 0.351046
O O4 0.372393 0.553997 0.223944
O O5 0.620911 0.848803 0.732180
O O6 0.958068 0.943152 0.700112
O O7 0.876560 0.196197 0.751020
O O8 0.784378 0.039785 0.591669
O O9 0.855330 0.699154 0.331256
O O10 0.699225 0.821809 0.452513
O O11 0.617221 0.090499 0.454898
O O12 0.640503 0.365678 0.368560
O O13 0.547856 0.319187 0.540539
O O14 0.524215 0.511099 0.680422
#
# Coordination Sequence:
#
# PCOD9574459 Si02
#       7
#     3   3   3   3   3   3   3
#     4  11  23  47  71 106 145 190 245 303 372 442
#     4  11  27  47  76 105 148 189 253 305 373 449
#     4  12  27  46  74 110 146 191 246 311 370 448
#     4  12  25  53  70 107 146 200 245 311 379 444
#     4  11  25  46  72 108 142 199 241 304 373 449
#     4  11  25  47  74 105 145 193 243 310 368 444
#     4  12  28  44  77 105 150 196 245 308 375 448
#
# _framework density 22.859601000000001
#
# number of rings (size 3 to 8) (size 9 to 14) (size 15 to 20)
#    0.000    0.571    4.286    2.571   10.000    1.143 
#    5.143    0.000    0.000    0.000    0.000    0.000 
#    0.000    0.000    0.000    0.000    0.000    0.000 
#
# Total GULP energy -117548.486325 kJ/mol
# GULP energy per Si atom -5597.546968 kJ/mol
# Density = 2.280757 g / cm^3
# Si number density = 22.859601 Si / 1000 Ang^3
#
#
#
# Elastic Constant Matrix: (Units=GPa)
#
#
# Indices 1 2 3 4 5 6 
#
# 1 54.3606 -5.0282 11.3391 -0.1227 1.7645 0.0000
# 2 -5.0282 54.3606 11.3391 0.1227 -1.7645 0.0000
# 3 11.3391 11.3391 100.1875 0.0000 0.0000 0.0000
# 4 -0.1227 0.1227 0.0000 24.7266 0.0000 -1.7645
# 5 1.7645 -1.7645 0.0000 0.0000 24.7266 -0.1227
# 6 0.0000 0.0000 0.0000 -1.7645 -0.1227 29.6944
#
#
#
# Elastic Compliance Matrix: (Units=1/GPa)
#
#
# Indices 1 2 3 4 5 6 
#
# 1 0.019147 0.002236 -0.002420 0.000084 -0.001207 0.000000
# 2 0.002236 0.019147 -0.002420 -0.000084 0.001207 0.000000
# 3 -0.002420 -0.002420 0.010529 0.000000 0.000000 0.000000
# 4 0.000084 -0.000084 0.000000 0.040615 0.000000 0.002413
# 5 -0.001207 0.001207 0.000000 0.000000 0.040615 0.000168
# 6 0.000000 0.000000 0.000000 0.002413 0.000168 0.033820
#
#
# Mechanical properties :
#
#
# Convention : Reuss Voigt Hill
#
# Bulk Modulus (GPa) = 22.92788 27.13428 25.03108
# Shear Modulus (GPa) = 27.23020 28.58009 27.90515
#
# Velocity S-wave (km/s) = 3.45511 3.53972 3.49767
# Velocity P-wave (km/s) = 5.09595 5.34807 5.22353
#
# Compressibility (1/GPa) = 0.04361503
#
# Stress axis : x y z
#
# Youngs Moduli (GPa) = 52.22827 52.22827 94.97491
#
# Poissons Ratio (x) = -0.11681 0.22985
# Poissons Ratio (y) = -0.11681 0.22985
# Poissons Ratio (z) = 0.12640 0.12640
#
# Static dielectric constant tensor:
#      x y z
#    x 1.834480 0.000000 0.000000 
#    y 0.000000 1.834480 0.000000 
#    z 0.000000 0.000000 1.870120 
# 
# From -- ./inp_files/602.got.cif
#   From: 2010.05.17/outbox.cif.g08.bks.cpg/sg144_cif.got.tgz:602.got - 2010.05.20 13:46:34.
