data_PCOD9574208
_publ_section_title
;
Structure prediction by ZEFSAII (Michael W. Deem and Ramdas Pophale) SiO2 
 PCOD9574208
Probable space group: I 41/A C D
;
_chemical_formula_sum "Si O2"
_cell_formula_units_Z 96
_cell_length_a 14.334224
_cell_length_b 14.334224
_cell_length_c 19.005964
_cell_angle_alpha 90.000000
_cell_angle_beta 90.000000
_cell_angle_gamma 90.000000
_cell_volume 3905.154999
_symmetry_space_group_name_H-M "I 41/A C D"
_symmetry_group_IT_number 142
_space_group.IT_coordinate_system_code '2'
_symmetry_cell_setting 'tetragonal'
loop_
_space_group_symop_operation_xyz
x,y,z
1/4-y,3/4+x,1/4+z
-x,1/2-y,z
1/4+y,1/4-x,3/4+z
x,-y,1/2-z
1/2-x,y,-z
3/4+y,1/4+x,1/4-z
1/4-y,1/4-x,1/4-z
-x,-y,-z
3/4+y,1/4-x,3/4-z
x,1/2+y,-z
3/4-y,3/4+x,1/4-z
-x,y,1/2+z
1/2+x,-y,z
1/4-y,3/4-x,3/4+z
3/4+y,3/4+x,3/4+z
1/2+x,1/2+y,1/2+z
3/4-y,1/4+x,3/4+z
1/2-x,-y,1/2+z
3/4+y,3/4-x,1/4+z
1/2+x,1/2-y,-z
-x,1/2+y,1/2-z
1/4+y,3/4+x,3/4-z
3/4-y,3/4-x,3/4-z
1/2-x,1/2-y,1/2-z
1/4+y,3/4-x,1/4-z
1/2+x,y,1/2-z
1/4-y,1/4+x,3/4-z
1/2-x,1/2+y,z
x,1/2-y,1/2+z
3/4-y,1/4-x,1/4+z
1/4+y,1/4+x,1/4+z
loop_
_atom_site_type_symbol
_atom_site_label
_atom_site_fract_x
_atom_site_fract_y
_atom_site_fract_z
Si Si1 0.676420 0.877526 0.282926
Si Si2 0.726850 0.748867 0.895661
Si Si3 0.342275 0.000000 0.250000
Si Si4 0.609953 0.140048 0.375000
O O1 0.591178 0.932327 0.320045
O O2 0.685753 0.777618 0.319896
O O3 0.661766 0.876280 0.199211
O O4 0.773625 0.931152 0.291446
O O5 0.702501 0.661540 0.944791
O O6 0.839919 0.761751 0.893587
#
# Coordination Sequence:
#
# PCOD9574208 Si02
#       4
#    32  32  16  16
#     4  12  26  48  84 114 167 214 273 337 412 487
#     4  12  26  47  82 121 161 218 274 332 408 492
#     4  12  22  48  80 120 156 222 270 328 412 490
#     4  12  22  50  69 122 160 201 270 340 388 488
#
# _framework density 24.582892000000001
#
# number of rings (size 3 to 8) (size 9 to 14) (size 15 to 20)
#    0.000    0.000    6.667    4.000    0.000    0.667 
#    0.000    3.333    0.000    0.000    0.000    0.000 
#    0.000    0.000    0.000    0.000    0.000    0.000 
#
# Total GULP energy -267825.247229 kJ/mol
# GULP energy per Si atom -5579.692651 kJ/mol
# Density = 2.452694 g / cm^3
# Si number density = 24.582892 Si / 1000 Ang^3
#
#
#
# Elastic Constant Matrix: (Units=GPa)
#
#
# Indices 1 2 3 4 5 6 
#
# 1 128.3438 51.0719 47.6677 0.0000 0.0000 0.0000
# 2 51.0719 128.3438 47.6676 0.0000 0.0000 0.0000
# 3 47.6677 47.6676 168.7084 0.0000 0.0000 0.0000
# 4 0.0000 0.0000 0.0000 41.5934 0.0000 0.0000
# 5 0.0000 0.0000 0.0000 0.0000 41.5930 0.0000
# 6 0.0000 0.0000 0.0000 0.0000 0.0000 26.2255
#
#
#
# Elastic Compliance Matrix: (Units=1/GPa)
#
#
# Indices 1 2 3 4 5 6 
#
# 1 0.009750 -0.003192 -0.001853 0.000000 0.000000 0.000000
# 2 -0.003192 0.009750 -0.001853 0.000000 0.000000 0.000000
# 3 -0.001853 -0.001853 0.006975 0.000000 0.000000 0.000000
# 4 0.000000 0.000000 0.000000 0.024042 0.000000 0.000000
# 5 0.000000 0.000000 0.000000 0.000000 0.024042 0.000000
# 6 0.000000 0.000000 0.000000 0.000000 0.000000 0.038131
#
#
# Mechanical properties :
#
#
# Convention : Reuss Voigt Hill
#
# Bulk Modulus (GPa) = 78.87043 79.80117 79.33580
# Shear Modulus (GPa) = 38.25230 40.48163 39.36696
#
# Velocity S-wave (km/s) = 3.94896 4.06241 4.00609
# Velocity P-wave (km/s) = 7.27637 7.38490 7.33083
#
# Compressibility (1/GPa) = 0.01267902
#
# Stress axis : x y z
#
# Youngs Moduli (GPa) = 102.56622 102.56633 143.37944
#
# Poissons Ratio (x) = 0.32734 0.26568
# Poissons Ratio (y) = 0.32734 0.26568
# Poissons Ratio (z) = 0.19006 0.19006
#
# Static dielectric constant tensor:
#      x y z
#    x 1.971630 0.000000 0.000000 
#    y 0.000000 1.971620 0.000000 
#    z 0.000000 0.000000 1.983400 
# 
# From -- ./inp_files/8449.got.cif
#   From: 2010.05.17/outbox.cif.g08.bks.cpg/sg142_5_cif.got.tgz:8449.got - 2010.05.20 13:39:18.
