data_PCOD9574197
_publ_section_title
;
Structure prediction by ZEFSAII (Michael W. Deem and Ramdas Pophale) SiO2 
 PCOD9574197
Probable space group: I 41/A C D
;
_chemical_formula_sum "Si O2"
_cell_formula_units_Z 240
_cell_length_a 27.438018
_cell_length_b 27.438018
_cell_length_c 16.850271
_cell_angle_alpha 90.000000
_cell_angle_beta 90.000000
_cell_angle_gamma 90.000000
_cell_volume 12685.639436
_symmetry_space_group_name_H-M "I 41/A C D"
_symmetry_group_IT_number 142
_space_group.IT_coordinate_system_code '2'
_symmetry_cell_setting 'tetragonal'
loop_
_space_group_symop_operation_xyz
x,y,z
1/4-y,3/4+x,1/4+z
-x,1/2-y,z
1/4+y,1/4-x,3/4+z
x,-y,1/2-z
1/2-x,y,-z
3/4+y,1/4+x,1/4-z
1/4-y,1/4-x,1/4-z
-x,-y,-z
3/4+y,1/4-x,3/4-z
x,1/2+y,-z
3/4-y,3/4+x,1/4-z
-x,y,1/2+z
1/2+x,-y,z
1/4-y,3/4-x,3/4+z
3/4+y,3/4+x,3/4+z
1/2+x,1/2+y,1/2+z
3/4-y,1/4+x,3/4+z
1/2-x,-y,1/2+z
3/4+y,3/4-x,1/4+z
1/2+x,1/2-y,-z
-x,1/2+y,1/2-z
1/4+y,3/4+x,3/4-z
3/4-y,3/4-x,3/4-z
1/2-x,1/2-y,1/2-z
1/4+y,3/4-x,1/4-z
1/2+x,y,1/2-z
1/4-y,1/4+x,3/4-z
1/2-x,1/2+y,z
x,1/2-y,1/2+z
3/4-y,1/4-x,1/4+z
1/4+y,1/4+x,1/4+z
loop_
_atom_site_type_symbol
_atom_site_label
_atom_site_fract_x
_atom_site_fract_y
_atom_site_fract_z
Si Si1 0.802023 0.811769 0.162737
Si Si2 0.439476 0.555534 0.094293
Si Si3 0.950048 0.718929 0.511974
Si Si4 0.590129 0.659872 0.625000
Si Si5 0.944549 0.444954 0.906808
Si Si6 0.406514 0.653308 0.393319
Si Si7 0.697059 0.306510 0.351289
Si Si8 0.099814 0.307389 0.054600
O O1 0.748761 0.826709 0.131738
O O2 0.807360 0.753337 0.153357
O O3 0.847459 0.836517 0.119779
O O4 0.804145 0.821130 0.258119
O O5 0.418095 0.602493 0.137639
O O6 0.497839 0.556278 0.102809
O O7 0.430156 0.558929 0.999571
O O8 0.945134 0.675993 0.447141
O O9 0.937751 0.693112 0.594700
O O10 0.906047 0.755001 0.486056
O O11 0.000000 0.750000 0.511146
O O12 0.921896 0.398320 0.865177
O O13 0.929871 0.497927 0.872842
O O14 0.418028 0.656966 0.485985
O O15 0.651683 0.321415 0.406782
O O16 0.061075 0.311075 0.125000
#
# Coordination Sequence:
#
# PCOD9574197 Si02
#       8
#    32  32  32  16  32  32  32  32
#     4   9  19  37  57  84 116 155 192 250 306 349
#     4   9  18  35  62  82 113 151 201 246 298 355
#     4  12  28  38  53  85 130 168 196 239 288 365
#     4  12  19  40  64  86 112 160 208 240 300 374
#     4   9  19  36  59  83 114 152 195 246 302 353
#     4  12  24  38  57  85 120 157 200 246 305 353
#     4   9  18  38  59  82 110 153 201 247 289 354
#     4  12  24  38  57  84 118 161 202 236 280 362
#
# _framework density 18.919031
#
# number of rings (size 3 to 8) (size 9 to 14) (size 15 to 20)
#    0.000    1.600    4.000    3.400    3.733    0.533 
#    0.000    0.667    0.000    0.000    1.733    0.000 
#    0.000    0.000    0.000    0.000    0.000    0.000 
#
# Total GULP energy -669397.630577 kJ/mol
# GULP energy per Si atom -5578.313588 kJ/mol
# Density = 1.887597 g / cm^3
# Si number density = 18.919031 Si / 1000 Ang^3
#
#
#
# Elastic Constant Matrix: (Units=GPa)
#
#
# Indices 1 2 3 4 5 6 
#
# 1 106.5025 33.6627 24.7102 0.0000 0.0000 0.0000
# 2 33.6627 106.5016 24.7102 0.0000 0.0000 0.0000
# 3 24.7102 24.7102 60.1453 0.0000 0.0000 0.0000
# 4 0.0000 0.0000 0.0000 18.3016 0.0000 0.0000
# 5 0.0000 0.0000 0.0000 0.0000 18.3017 0.0000
# 6 0.0000 0.0000 0.0000 0.0000 0.0000 17.0808
#
#
#
# Elastic Compliance Matrix: (Units=1/GPa)
#
#
# Indices 1 2 3 4 5 6 
#
# 1 0.011036 -0.002693 -0.003428 0.000000 0.000000 0.000000
# 2 -0.002693 0.011036 -0.003428 0.000000 0.000000 0.000000
# 3 -0.003428 -0.003428 0.019443 0.000000 0.000000 0.000000
# 4 0.000000 0.000000 0.000000 0.054640 0.000000 0.000000
# 5 0.000000 0.000000 0.000000 0.000000 0.054640 0.000000
# 6 0.000000 0.000000 0.000000 0.000000 0.000000 0.058545
#
#
# Mechanical properties :
#
#
# Convention : Reuss Voigt Hill
#
# Bulk Modulus (GPa) = 44.60651 48.81284 46.70967
# Shear Modulus (GPa) = 21.19462 23.40790 22.30126
#
# Velocity S-wave (km/s) = 3.35069 3.52130 3.43705
# Velocity P-wave (km/s) = 6.21275 6.51073 6.36349
#
# Compressibility (1/GPa) = 0.02241825
#
# Stress axis : x y z
#
# Youngs Moduli (GPa) = 90.61351 90.61262 51.43274
#
# Poissons Ratio (x) = 0.24401 0.17629
# Poissons Ratio (y) = 0.24402 0.17630
# Poissons Ratio (z) = 0.31059 0.31059
#
# Static dielectric constant tensor:
#      x y z
#    x 1.689320 0.000000 0.000000 
#    y 0.000000 1.689320 0.000000 
#    z 0.000000 0.000000 1.715260 
# 
# From -- ./inp_files/7811.got.cif
#   From: 2010.05.17/outbox.cif.g08.bks.cpg/sg142_4_cif.got.tgz:7811.got - 2010.05.20 13:39:18.
