data_PCOD9574595
_publ_section_title
;
Structure prediction by ZEFSAII (Michael W. Deem and Ramdas Pophale) SiO2 
 PCOD9574595
Probable space group: P 32
;
_chemical_formula_sum "Si O2"
_cell_formula_units_Z 24
_cell_length_a 12.719040
_cell_length_b 12.719040
_cell_length_c 8.056031
_cell_angle_alpha 90.000000
_cell_angle_beta 90.000000
_cell_angle_gamma 120.000000
_cell_volume 1128.652965
_symmetry_space_group_name_H-M "P 32"
_symmetry_group_IT_number 145
_symmetry_cell_setting 'hexagonal'
loop_
_space_group_symop_operation_xyz
x,y,z
-y,x-y,2/3+z
-x+y,-x,1/3+z
loop_
_atom_site_type_symbol
_atom_site_label
_atom_site_fract_x
_atom_site_fract_y
_atom_site_fract_z
Si Si1 0.851840 0.769861 0.412210
Si Si2 0.597871 0.642432 0.584897
Si Si3 0.851576 0.199181 0.404690
Si Si4 0.073234 0.415225 0.296311
Si Si5 0.621966 0.023553 0.249961
Si Si6 0.245650 0.305508 0.251814
Si Si7 0.318620 0.460592 0.918069
Si Si8 0.080014 0.059311 0.614798
O O1 0.730640 0.697339 0.513835
O O2 0.849479 0.690368 0.256833
O O3 0.973037 0.802308 0.513659
O O4 0.843715 0.884908 0.342690
O O5 0.611355 0.630876 0.779499
O O6 0.508451 0.507788 0.523769
O O7 0.543594 0.733455 0.563368
O O8 0.954170 0.340603 0.408689
O O9 0.721698 0.154775 0.321689
O O10 0.902854 0.121737 0.306166
O O11 0.152204 0.349358 0.309050
O O12 0.151367 0.561521 0.295831
O O13 0.590830 0.933544 0.411787
O O14 0.676292 0.998035 0.084669
O O15 0.305549 0.384678 0.085276
O O16 0.039752 0.041859 0.424154
#
# Coordination Sequence:
#
# PCOD9574595 Si02
#       8
#     3   3   3   3   3   3   3   3
#     4  11  23  40  67  96 136 170 218 284 332 397
#     4  10  24  43  69  95 135 177 222 278 337 401
#     4  11  23  40  65  95 137 173 220 275 325 400
#     4  10  24  41  68  98 136 177 220 277 331 404
#     4  11  24  41  67  94 135 177 225 271 332 404
#     4  11  24  40  69 100 135 174 224 273 338 401
#     4  10  23  46  64 100 140 172 223 278 335 401
#     4  10  23  35  59  94 130 168 204 258 332 390
#
# _framework density 21.264286999999999
#
# number of rings (size 3 to 8) (size 9 to 14) (size 15 to 20)
#    0.000    1.500    1.250    2.250   15.750    3.000 
#    0.000    0.000    8.250    0.000    0.000    0.000 
#    0.000    0.000    0.000    0.000    0.000    0.000 
#
# Total GULP energy -133758.780941 kJ/mol
# GULP energy per Si atom -5573.282539 kJ/mol
# Density = 2.121589 g / cm^3
# Si number density = 21.264287 Si / 1000 Ang^3
#
#
#
# Elastic Constant Matrix: (Units=GPa)
#
#
# Indices 1 2 3 4 5 6 
#
# 1 48.9215 57.4552 3.4795 -53.3013 -1.8711 0.0000
# 2 57.4552 48.9215 3.4795 53.3013 1.8711 0.0000
# 3 3.4795 3.4795 67.6851 0.0000 0.0000 0.0000
# 4 -53.3013 53.3013 0.0000 -67.4018 0.0000 1.8711
# 5 -1.8711 1.8711 0.0000 0.0000 -67.4018 -53.3013
# 6 0.0000 0.0000 0.0000 1.8711 -53.3013 -4.2668
#
#
#
# Elastic Compliance Matrix: (Units=1/GPa)
#
#
# Indices 1 2 3 4 5 6 
#
# 1 0.011306 -0.001874 -0.000485 -0.010423 -0.000366 0.000000
# 2 -0.001874 0.011306 -0.000485 0.010423 0.000366 0.000000
# 3 -0.000485 -0.000485 0.014824 0.000000 0.000000 0.000000
# 4 -0.010423 0.010423 0.000000 0.001669 0.000000 0.000732
# 5 -0.000366 0.000366 0.000000 0.000000 0.001669 -0.020846
# 6 0.000000 0.000000 0.000000 0.000732 -0.020846 0.026360
#
#
# Mechanical properties :
#
#
# Convention : Reuss Voigt Hill
#
# Bulk Modulus (GPa) = 31.49690 32.70628 32.10159
# Shear Modulus (GPa) = 59.94852 -21.07315 19.43769
#
# Velocity S-wave (km/s) = 5.31538 -3.15145 3.02669
# Velocity P-wave (km/s) = 7.24675 1.47379 5.22912
#
# Compressibility (1/GPa) = 0.03174916
#
# Stress axis : x y z
#
# Youngs Moduli (GPa) = 88.44687 88.44687 67.45744
#
# Poissons Ratio (x) = 0.16574 0.03271
# Poissons Ratio (y) = 0.16574 0.03271
# Poissons Ratio (z) = 0.04289 0.04289
#
# Static dielectric constant tensor:
#      x y z
#    x 1.866240 0.000000 0.000000 
#    y 0.000000 1.866240 0.000000 
#    z 0.000000 0.000000 1.757610 
# 
# From -- ./inp_files/446.got.cif
#   From: 2010.05.17/outbox.cif.g08.bks.cpg/sg145_cif.got.tgz:446.got - 2010.05.20 13:47:28.
