data_PCOD9574906
_publ_section_title
;
Structure prediction by ZEFSAII (Michael W. Deem and Ramdas Pophale) SiO2 
 PCOD9574906
Probable space group: P -3
;
_chemical_formula_sum "Si O2"
_cell_formula_units_Z 34
_cell_length_a 16.118151
_cell_length_b 16.118151
_cell_length_c 9.335064
_cell_angle_alpha 90.000000
_cell_angle_beta 90.000000
_cell_angle_gamma 120.000000
_cell_volume 2100.285681
_symmetry_space_group_name_H-M "P -3"
_symmetry_group_IT_number 147
_symmetry_cell_setting 'hexagonal'
loop_
_space_group_symop_operation_xyz
x,y,z
-y,x-y,z
-x+y,-x,z
-x,-y,-z
y,-x+y,-z
x-y,x,-z
loop_
_atom_site_type_symbol
_atom_site_label
_atom_site_fract_x
_atom_site_fract_y
_atom_site_fract_z
Si Si1 0.391025 0.114654 0.602413
Si Si2 0.633988 0.506003 0.894784
Si Si3 0.431226 0.866701 0.576928
Si Si4 0.333334 0.666668 0.043829
Si Si5 0.010784 0.583002 0.824387
Si Si6 0.333334 0.666668 0.701559
Si Si7 0.931532 0.634600 0.574058
O O1 0.420420 0.107335 0.765200
O O2 0.488120 0.140743 0.514207
O O3 0.364456 0.197483 0.581253
O O4 0.309341 0.014568 0.534690
O O5 0.673008 0.431830 0.905759
O O6 0.519105 0.441211 0.870512
O O7 0.639001 0.560228 0.042458
O O8 0.351509 0.765915 0.638262
O O9 0.378877 0.908586 0.481410
O O10 0.484924 0.929623 0.714770
O O11 0.333334 0.666667 0.871598
O O12 0.975236 0.643198 0.732172
#
# Coordination Sequence:
#
# PCOD9574906 Si02
#       7
#     6   6   6   2   6   2   6
#     4  11  22  36  58  81 109 143 189 231 280 330
#     4  11  21  33  51  75 110 152 184 232 263 321
#     4  11  19  35  53  76 108 149 183 227 268 324
#     4  12  24  31  47  79 114 148 203 220 276 325
#     4  10  20  35  49  70 112 147 185 225 271 313
#     4  12  21  31  50  82 108 154 191 220 267 322
#     4  11  21  38  55  82 108 145 189 231 281 329
#
# _framework density 16.188272999999999
#
# number of rings (size 3 to 8) (size 9 to 14) (size 15 to 20)
#    0.000    1.059    7.059    2.118    0.000    0.000 
#    0.000    1.765    0.000    0.353    0.000    0.000 
#    0.000    1.412    0.000    0.000    0.000    0.000 
#
# Total GULP energy -189693.743604 kJ/mol
# GULP energy per Si atom -5579.227753 kJ/mol
# Density = 1.615143 g / cm^3
# Si number density = 16.188273 Si / 1000 Ang^3
#
#
#
# Elastic Constant Matrix: (Units=GPa)
#
#
# Indices 1 2 3 4 5 6 
#
# 1 83.1838 33.0520 38.3067 -2.4314 -1.7411 0.0000
# 2 33.0520 83.1833 38.3070 2.4314 1.7406 0.0000
# 3 38.3067 38.3070 102.6488 -0.0005 0.0001 0.0002
# 4 -2.4314 2.4314 -0.0005 14.4991 0.0000 1.7411
# 5 -1.7411 1.7406 0.0001 0.0000 14.5000 -2.4314
# 6 0.0000 0.0000 0.0002 1.7411 -2.4314 25.0655
#
#
#
# Elastic Compliance Matrix: (Units=1/GPa)
#
#
# Indices 1 2 3 4 5 6 
#
# 1 0.015930 -0.004520 -0.004258 0.003429 0.002455 0.000000
# 2 -0.004520 0.015930 -0.004258 -0.003430 -0.002455 0.000000
# 3 -0.004258 -0.004258 0.012920 0.000000 0.000000 0.000000
# 4 0.003429 -0.003430 0.000000 0.070710 0.000000 -0.004912
# 5 0.002455 -0.002455 0.000000 0.000000 0.070705 0.006859
# 6 0.000000 0.000000 0.000000 -0.004912 0.006859 0.040902
#
#
# Mechanical properties :
#
#
# Convention : Reuss Voigt Hill
#
# Bulk Modulus (GPa) = 53.45396 54.26081 53.85738
# Shear Modulus (GPa) = 19.27483 21.43627 20.35555
#
# Velocity S-wave (km/s) = 3.45435 3.64288 3.54987
# Velocity P-wave (km/s) = 7.00013 7.16139 7.08122
#
# Compressibility (1/GPa) = 0.01870769
#
# Stress axis : x y z
#
# Youngs Moduli (GPa) = 62.77418 62.77348 77.39984
#
# Poissons Ratio (x) = 0.28377 0.32956
# Poissons Ratio (y) = 0.28377 0.32957
# Poissons Ratio (z) = 0.26728 0.26729
#
# Static dielectric constant tensor:
#      x y z
#    x 1.540110 0.000000 0.000000 
#    y 0.000000 1.540110 0.000000 
#    z 0.000000 0.000000 1.569510 
# 
# From -- ./inp_files/567.got.cif
#   From: 2010.05.17/outbox.cif.g08.bks.cpg/sg147_cif.got.tgz:567.got - 2010.05.20 13:49:32.
