data_PCOD9574147
_publ_section_title
;
Structure prediction by ZEFSAII (Michael W. Deem and Ramdas Pophale) SiO2 
 PCOD9574147
Probable space group: I 41/A C D
;
_chemical_formula_sum "Si O2"
_cell_formula_units_Z 160
_cell_length_a 20.484605
_cell_length_b 20.484605
_cell_length_c 18.786853
_cell_angle_alpha 90.000000
_cell_angle_beta 90.000000
_cell_angle_gamma 90.000000
_cell_volume 7883.321258
_symmetry_space_group_name_H-M "I 41/A C D"
_symmetry_group_IT_number 142
_space_group.IT_coordinate_system_code '2'
_symmetry_cell_setting 'tetragonal'
loop_
_space_group_symop_operation_xyz
x,y,z
1/4-y,3/4+x,1/4+z
-x,1/2-y,z
1/4+y,1/4-x,3/4+z
x,-y,1/2-z
1/2-x,y,-z
3/4+y,1/4+x,1/4-z
1/4-y,1/4-x,1/4-z
-x,-y,-z
3/4+y,1/4-x,3/4-z
x,1/2+y,-z
3/4-y,3/4+x,1/4-z
-x,y,1/2+z
1/2+x,-y,z
1/4-y,3/4-x,3/4+z
3/4+y,3/4+x,3/4+z
1/2+x,1/2+y,1/2+z
3/4-y,1/4+x,3/4+z
1/2-x,-y,1/2+z
3/4+y,3/4-x,1/4+z
1/2+x,1/2-y,-z
-x,1/2+y,1/2-z
1/4+y,3/4+x,3/4-z
3/4-y,3/4-x,3/4-z
1/2-x,1/2-y,1/2-z
1/4+y,3/4-x,1/4-z
1/2+x,y,1/2-z
1/4-y,1/4+x,3/4-z
1/2-x,1/2+y,z
x,1/2-y,1/2+z
3/4-y,1/4-x,1/4+z
1/4+y,1/4+x,1/4+z
loop_
_atom_site_type_symbol
_atom_site_label
_atom_site_fract_x
_atom_site_fract_y
_atom_site_fract_z
Si Si1 0.580603 0.691299 0.841309
Si Si2 0.200643 0.634087 0.582643
Si Si3 0.568950 0.870150 0.198224
Si Si4 0.242601 0.992601 0.375000
Si Si5 0.863684 0.500000 0.250000
Si Si6 0.836577 0.174617 0.074953
O O1 0.514068 0.663527 0.876598
O O2 0.642450 0.648583 0.863826
O O3 0.575457 0.687649 0.756107
O O4 0.232147 0.562458 0.587686
O O5 0.261276 0.681807 0.598990
O O6 0.171299 0.647141 0.504907
O O7 0.607749 0.857749 0.125000
O O8 0.493760 0.878651 0.178039
O O9 0.591856 0.935710 0.239851
O O10 0.243758 0.934818 0.432615
O O11 0.875579 0.125579 0.125000
#
# Coordination Sequence:
#
# PCOD9574147 Si02
#       6
#    32  32  32  16  16  32
#     4  11  25  46  73 107 147 198 243 307 379 455
#     4  11  23  45  72 103 139 194 241 305 369 440
#     4  12  27  46  73 107 148 197 245 309 382 446
#     4  12  24  42  78 100 142 188 252 298 372 440
#     4  12  24  46  66 108 148 190 236 314 376 430
#     4  11  25  44  71 105 143 187 244 308 366 448
#
# _framework density 20.296014
#
# number of rings (size 3 to 8) (size 9 to 14) (size 15 to 20)
#    0.000    0.600    6.000    2.400    2.800    0.400 
#    0.000    1.000    0.000    0.000    0.000    0.000 
#    0.000    0.000    0.000    0.000    0.000    0.000 
#
# Total GULP energy -446837.532849 kJ/mol
# GULP energy per Si atom -5585.469161 kJ/mol
# Density = 2.024982 g / cm^3
# Si number density = 20.296014 Si / 1000 Ang^3
#
#
#
# Elastic Constant Matrix: (Units=GPa)
#
#
# Indices 1 2 3 4 5 6 
#
# 1 89.3907 17.1991 47.4148 0.0000 0.0000 0.0000
# 2 17.1991 89.3907 47.4148 0.0000 0.0000 0.0000
# 3 47.4148 47.4148 114.6789 0.0000 0.0000 0.0000
# 4 0.0000 0.0000 0.0000 24.4683 0.0000 0.0000
# 5 0.0000 0.0000 0.0000 0.0000 24.4683 0.0000
# 6 0.0000 0.0000 0.0000 0.0000 0.0000 25.4105
#
#
#
# Elastic Compliance Matrix: (Units=1/GPa)
#
#
# Indices 1 2 3 4 5 6 
#
# 1 0.014346 0.000494 -0.006136 0.000000 0.000000 0.000000
# 2 0.000494 0.014346 -0.006136 0.000000 0.000000 0.000000
# 3 -0.006136 -0.006136 0.013794 0.000000 0.000000 0.000000
# 4 0.000000 0.000000 0.000000 0.040869 0.000000 0.000000
# 5 0.000000 0.000000 0.000000 0.000000 0.040869 0.000000
# 6 0.000000 0.000000 0.000000 0.000000 0.000000 0.039354
#
#
# Mechanical properties :
#
#
# Convention : Reuss Voigt Hill
#
# Bulk Modulus (GPa) = 52.82222 57.50200 55.16211
# Shear Modulus (GPa) = 25.84715 26.96486 26.40601
#
# Velocity S-wave (km/s) = 3.57250 3.64892 3.61091
# Velocity P-wave (km/s) = 6.56501 6.79309 6.68002
#
# Compressibility (1/GPa) = 0.01893143
#
# Stress axis : x y z
#
# Youngs Moduli (GPa) = 69.70386 69.70386 72.49544
#
# Poissons Ratio (x) = -0.03446 0.44483
# Poissons Ratio (y) = -0.03446 0.44483
# Poissons Ratio (z) = 0.42771 0.42771
#
# Static dielectric constant tensor:
#      x y z
#    x 1.731720 0.000000 0.000000 
#    y 0.000000 1.731720 0.000000 
#    z 0.000000 0.000000 1.735800 
# 
# From -- ./inp_files/7432.got.cif
#   From: 2010.05.17/outbox.cif.g08.bks.cpg/sg142_4_cif.got.tgz:7432.got - 2010.05.20 13:39:18.
