data_PCOD9574316
_publ_section_title
;
Structure prediction by ZEFSAII (Michael W. Deem and Ramdas Pophale) SiO2 
 PCOD9574316
Probable space group: P 31
;
_chemical_formula_sum "Si O2"
_cell_formula_units_Z 18
_cell_length_a 9.114692
_cell_length_b 9.114692
_cell_length_c 10.660104
_cell_angle_alpha 90.000000
_cell_angle_beta 90.000000
_cell_angle_gamma 120.000000
_cell_volume 766.965924
_symmetry_space_group_name_H-M "P 31"
_symmetry_group_IT_number 144
_symmetry_cell_setting 'hexagonal'
loop_
_space_group_symop_operation_xyz
x,y,z
-y,x-y,1/3+z
-x+y,-x,2/3+z
loop_
_atom_site_type_symbol
_atom_site_label
_atom_site_fract_x
_atom_site_fract_y
_atom_site_fract_z
Si Si1 0.816439 0.138025 0.138570
Si Si2 0.523743 0.610113 0.367204
Si Si3 0.953914 0.948143 0.249572
Si Si4 0.472176 0.640257 0.086006
Si Si5 0.736266 0.909979 0.700139
Si Si6 0.032636 0.475965 0.475981
O O1 0.948847 0.335681 0.123685
O O2 0.815157 0.010415 0.246244
O O3 0.632810 0.121183 0.131168
O O4 0.891085 0.069444 0.028653
O O5 0.556915 0.630459 0.216144
O O6 0.487341 0.756834 0.415433
O O7 0.353794 0.429294 0.373841
O O8 0.119265 0.138654 0.248783
O O9 0.975931 0.847610 0.137109
O O10 0.474789 0.818168 0.089931
O O11 0.543428 0.614916 0.955168
O O12 0.668876 0.712593 0.732626
#
# Coordination Sequence:
#
# PCOD9574316 Si02
#       6
#     3   3   3   3   3   3
#     4  11  22  37  62  94 128 164 210 271 326 376
#     4  10  20  37  63  92 122 159 209 264 318 379
#     4  10  22  40  60  86 124 170 212 254 316 392
#     4   9  18  35  62  90 120 164 206 247 316 402
#     4  10  22  40  62  86 120 168 214 252 310 386
#     4  10  20  37  63  92 122 159 209 264 318 379
#
# _framework density 23.469103
#
# number of rings (size 3 to 8) (size 9 to 14) (size 15 to 20)
#    0.000    2.000    0.000    4.000    0.000    6.667 
#    0.000    3.333    0.000   12.000    0.000    0.000 
#    0.000    0.000    0.000    0.000    0.000    0.000 
#
# Total GULP energy -100301.327549 kJ/mol
# GULP energy per Si atom -5572.295975 kJ/mol
# Density = 2.341569 g / cm^3
# Si number density = 23.469103 Si / 1000 Ang^3
#
#
#
# Elastic Constant Matrix: (Units=GPa)
#
#
# Indices 1 2 3 4 5 6 
#
# 1 68.0440 -6.1236 14.2527 -1.3132 7.7077 0.0000
# 2 -6.1236 68.0440 14.2527 1.3132 -7.7077 0.0000
# 3 14.2527 14.2527 79.1847 0.0000 0.0000 0.0000
# 4 -1.3132 1.3132 0.0000 20.3295 0.0000 -7.7077
# 5 7.7077 -7.7077 0.0000 0.0000 20.3295 -1.3132
# 6 0.0000 0.0000 0.0000 -7.7077 -1.3132 37.0838
#
#
#
# Elastic Compliance Matrix: (Units=1/GPa)
#
#
# Indices 1 2 3 4 5 6 
#
# 1 0.016141 0.001468 -0.003169 0.000948 -0.005563 0.000000
# 2 0.001468 0.016141 -0.003169 -0.000948 0.005563 0.000000
# 3 -0.003169 -0.003169 0.013770 0.000000 0.000000 0.000000
# 4 0.000948 -0.000948 0.000000 0.053530 0.000000 0.011126
# 5 -0.005563 0.005563 0.000000 0.000000 0.053530 0.001896
# 6 0.000000 0.000000 0.000000 0.011126 0.001896 0.029346
#
#
# Mechanical properties :
#
#
# Convention : Reuss Voigt Hill
#
# Bulk Modulus (GPa) = 27.54102 28.89293 28.21697
# Shear Modulus (GPa) = 24.47348 28.40795 26.44072
#
# Velocity S-wave (km/s) = 3.23274 3.48291 3.36015
# Velocity P-wave (km/s) = 5.06899 5.33966 5.20608
#
# Compressibility (1/GPa) = 0.03630948
#
# Stress axis : x y z
#
# Youngs Moduli (GPa) = 61.95466 61.95466 72.62338
#
# Poissons Ratio (x) = -0.09095 0.23018
# Poissons Ratio (y) = -0.09095 0.23018
# Poissons Ratio (z) = 0.19636 0.19636
#
# Static dielectric constant tensor:
#      x y z
#    x 1.930230 0.000000 0.000000 
#    y 0.000000 1.930230 0.000000 
#    z 0.000000 0.000000 2.126410 
# 
# From -- ./inp_files/503.got.cif
#   From: 2010.05.17/outbox.cif.g08.bks.cpg/sg144_cif.got.tgz:503.got - 2010.05.20 13:46:34.
