data_PCOD9574107
_publ_section_title
;
Structure prediction by ZEFSAII (Michael W. Deem and Ramdas Pophale) SiO2 
 PCOD9574107
Probable space group: I 41/A C D
;
_chemical_formula_sum "Si O2"
_cell_formula_units_Z 176
_cell_length_a 24.124738
_cell_length_b 24.124738
_cell_length_c 15.200213
_cell_angle_alpha 90.000000
_cell_angle_beta 90.000000
_cell_angle_gamma 90.000000
_cell_volume 8846.569317
_symmetry_space_group_name_H-M "I 41/A C D"
_symmetry_group_IT_number 142
_space_group.IT_coordinate_system_code '2'
_symmetry_cell_setting 'tetragonal'
loop_
_space_group_symop_operation_xyz
x,y,z
1/4-y,3/4+x,1/4+z
-x,1/2-y,z
1/4+y,1/4-x,3/4+z
x,-y,1/2-z
1/2-x,y,-z
3/4+y,1/4+x,1/4-z
1/4-y,1/4-x,1/4-z
-x,-y,-z
3/4+y,1/4-x,3/4-z
x,1/2+y,-z
3/4-y,3/4+x,1/4-z
-x,y,1/2+z
1/2+x,-y,z
1/4-y,3/4-x,3/4+z
3/4+y,3/4+x,3/4+z
1/2+x,1/2+y,1/2+z
3/4-y,1/4+x,3/4+z
1/2-x,-y,1/2+z
3/4+y,3/4-x,1/4+z
1/2+x,1/2-y,-z
-x,1/2+y,1/2-z
1/4+y,3/4+x,3/4-z
3/4-y,3/4-x,3/4-z
1/2-x,1/2-y,1/2-z
1/4+y,3/4-x,1/4-z
1/2+x,y,1/2-z
1/4-y,1/4+x,3/4-z
1/2-x,1/2+y,z
x,1/2-y,1/2+z
3/4-y,1/4-x,1/4+z
1/4+y,1/4+x,1/4+z
loop_
_atom_site_type_symbol
_atom_site_label
_atom_site_fract_x
_atom_site_fract_y
_atom_site_fract_z
Si Si1 0.905094 0.844907 0.375000
Si Si2 0.767165 0.060470 0.215997
Si Si3 0.446984 0.366694 0.199381
Si Si4 0.933303 0.752219 0.230591
Si Si5 0.838289 0.600580 0.122758
Si Si6 0.948561 0.933451 0.253834
O O1 0.915112 0.797798 0.301296
O O2 0.916199 0.905763 0.335664
O O3 0.799647 0.049647 0.125000
O O4 0.712880 0.093929 0.188959
O O5 0.806677 0.083128 0.292726
O O6 0.748754 0.000000 0.250000
O O7 0.476963 0.342298 0.111521
O O8 0.420810 0.312625 0.246991
O O9 0.396726 0.405091 0.169770
O O10 0.493094 0.401505 0.250375
O O11 0.000000 0.750000 0.229639
O O12 0.834491 0.661147 0.079064
O O13 0.952630 0.000000 0.250000
#
# Coordination Sequence:
#
# PCOD9574107 Si02
#       6
#    16  32  32  32  32  32
#     4  12  25  40  72  94 124 170 224 272 304 392
#     4   9  20  39  66  91 117 164 225 264 300 381
#     4  12  22  41  65  92 135 170 202 272 322 390
#     4  12  19  39  68  95 117 163 226 253 309 373
#     4  11  22  40  68  89 126 169 215 261 321 381
#     4  12  27  41  61  99 136 163 210 272 330 380
#
# _framework density 19.894718000000001
#
# number of rings (size 3 to 8) (size 9 to 14) (size 15 to 20)
#    0.000    0.727    7.273    1.909    3.818    0.727 
#    3.273    1.818    0.000    0.000    0.000    0.000 
#    0.000    0.000    0.000    0.000    0.000    0.000 
#
# Total GULP energy -491410.551925 kJ/mol
# GULP energy per Si atom -5584.210817 kJ/mol
# Density = 1.984944 g / cm^3
# Si number density = 19.894718 Si / 1000 Ang^3
#
#
#
# Elastic Constant Matrix: (Units=GPa)
#
#
# Indices 1 2 3 4 5 6 
#
# 1 95.8687 23.1334 13.4007 0.0000 0.0000 0.0000
# 2 23.1334 95.8697 13.4007 0.0000 0.0000 0.0000
# 3 13.4007 13.4007 36.6180 0.0000 0.0000 0.0000
# 4 0.0000 0.0000 0.0000 25.8542 0.0000 0.0000
# 5 0.0000 0.0000 0.0000 0.0000 25.8533 0.0000
# 6 0.0000 0.0000 0.0000 0.0000 0.0000 31.0027
#
#
#
# Elastic Compliance Matrix: (Units=1/GPa)
#
#
# Indices 1 2 3 4 5 6 
#
# 1 0.011453 -0.002295 -0.003351 0.000000 0.000000 0.000000
# 2 -0.002295 0.011453 -0.003351 0.000000 0.000000 0.000000
# 3 -0.003351 -0.003351 0.029762 0.000000 0.000000 0.000000
# 4 0.000000 0.000000 0.000000 0.038678 0.000000 0.000000
# 5 0.000000 0.000000 0.000000 0.000000 0.038680 0.000000
# 6 0.000000 0.000000 0.000000 0.000000 0.000000 0.032255
#
#
# Mechanical properties :
#
#
# Convention : Reuss Voigt Hill
#
# Bulk Modulus (GPa) = 28.84159 36.46954 32.65556
# Shear Modulus (GPa) = 26.06400 28.43680 27.25040
#
# Velocity S-wave (km/s) = 3.62345 3.78480 3.70500
# Velocity P-wave (km/s) = 5.65990 6.12133 5.89513
#
# Compressibility (1/GPa) = 0.03467215
#
# Stress axis : x y z
#
# Youngs Moduli (GPa) = 87.31155 87.31243 33.59990
#
# Poissons Ratio (x) = 0.20040 0.11261
# Poissons Ratio (y) = 0.20040 0.11261
# Poissons Ratio (z) = 0.29262 0.29262
#
# Static dielectric constant tensor:
#      x y z
#    x 1.724060 0.000000 0.000000 
#    y 0.000000 1.724060 0.000000 
#    z 0.000000 0.000000 1.716820 
# 
# From -- ./inp_files/5551.got.cif
#   From: 2010.05.17/outbox.cif.g08.bks.cpg/sg142_3_cif.got.tgz:5551.got - 2010.05.20 13:39:18.
