data_PCOD9574690
_publ_section_title
;
Structure prediction by ZEFSAII (Michael W. Deem and Ramdas Pophale) SiO2 
 PCOD9574690
Probable space group: R 3
;
_chemical_formula_sum "Si O2"
_cell_formula_units_Z 51
_cell_length_a 17.138404
_cell_length_b 17.138404
_cell_length_c 7.944089
_cell_angle_alpha 90.000000
_cell_angle_beta 90.000000
_cell_angle_gamma 120.000000
_cell_volume 2020.763482
_symmetry_space_group_name_H-M "R 3"
_symmetry_group_IT_number 146
_symmetry_cell_setting 'hexagonal'
loop_
_space_group_symop_operation_xyz
x,y,z
-y,x-y,z
-x+y,-x,z
2/3+x,1/3+y,1/3+z
2/3-y,1/3+x-y,1/3+z
2/3-x+y,1/3-x,1/3+z
1/3+x,2/3+y,2/3+z
1/3-y,2/3+x-y,2/3+z
1/3-x+y,2/3-x,2/3+z
loop_
_atom_site_type_symbol
_atom_site_label
_atom_site_fract_x
_atom_site_fract_y
_atom_site_fract_z
Si Si1 0.465743 0.182979 0.581130
Si Si2 0.000000 0.000000 0.702882
Si Si3 0.947342 0.445372 0.773275
Si Si4 0.000000 0.000000 0.290603
Si Si5 0.184410 0.002916 0.771858
Si Si6 0.811564 0.650939 0.914182
Si Si7 0.045877 0.667121 0.115525
O O1 0.480577 0.098678 0.615531
O O2 0.388718 0.163294 0.446201
O O3 0.563897 0.269777 0.562766
O O4 0.418340 0.185957 0.755748
O O5 0.989695 0.084361 0.765525
O O6 0.000000 0.000000 0.496862
O O7 0.910339 0.513829 0.802224
O O8 0.912271 0.382566 0.938144
O O9 0.259358 0.064120 0.907463
O O10 0.157589 0.899897 0.744060
O O11 0.912097 0.674342 0.876251
O O12 0.011325 0.715125 0.247731
#
# Coordination Sequence:
#
# PCOD9574690 Si02
#       7
#     9   3   9   3   9   9   9
#     4  10  20  34  64  93 137 176 239 294 352 428
#     4  12  18  30  60  93 118 182 241 295 350 439
#     4  10  20  38  62  97 137 180 237 294 348 437
#     4  12  18  30  60  93 118 182 241 295 350 439
#     4  10  20  34  64  93 137 176 239 294 352 428
#     4  10  20  38  62  97 137 180 237 294 348 437
#     4  12  24  42  70 100 146 184 244 290 364 430
#
# _framework density 25.237988000000001
#
# number of rings (size 3 to 8) (size 9 to 14) (size 15 to 20)
#    0.000    1.412    7.059    2.118    0.000    0.000 
#    0.000   10.588    0.000    0.000    0.000    0.000 
#    0.000    0.000    0.000    0.000    0.000    0.000 
#
# Total GULP energy -94834.410865 kJ/mol
# GULP energy per Si atom -5578.494757 kJ/mol
# Density = 2.518055 g / cm^3
# Si number density = 25.237988 Si / 1000 Ang^3
#
#
#
# Elastic Constant Matrix: (Units=GPa)
#
#
# Indices 1 2 3 4 5 6 
#
# 1 111.6577 35.3302 12.9702 5.8443 3.9652 -0.0001
# 2 35.3302 111.6579 12.9709 -5.8444 -3.9654 0.0000
# 3 12.9702 12.9709 108.7767 -0.0005 -0.0004 0.0001
# 4 5.8443 -5.8444 -0.0005 6.0706 -0.0003 -3.9656
# 5 3.9652 -3.9654 -0.0004 -0.0003 6.0705 5.8444
# 6 -0.0001 0.0000 0.0001 -3.9656 5.8444 38.1639
#
#
#
# Elastic Compliance Matrix: (Units=1/GPa)
#
#
# Indices 1 2 3 4 5 6 
#
# 1 0.011823 -0.004873 -0.000829 -0.016075 -0.010907 0.000000
# 2 -0.004873 0.011823 -0.000829 0.016075 0.010907 0.000000
# 3 -0.000829 -0.000829 0.009391 0.000001 0.000001 0.000000
# 4 -0.016075 0.016075 0.000001 0.209927 0.000013 0.021811
# 5 -0.010907 0.010907 0.000001 0.000013 0.209932 -0.032148
# 6 0.000000 0.000000 0.000000 0.021811 -0.032148 0.033392
#
#
# Mechanical properties :
#
#
# Convention : Reuss Voigt Hill
#
# Bulk Modulus (GPa) = 50.06218 50.51500 50.28859
# Shear Modulus (GPa) = 9.88127 28.11571 18.99849
#
# Velocity S-wave (km/s) = 1.98084 3.34132 2.74665
# Velocity P-wave (km/s) = 5.01106 5.91141 5.47976
#
# Compressibility (1/GPa) = 0.01997516
#
# Stress axis : x y z
#
# Youngs Moduli (GPa) = 84.58151 84.58149 106.48754
#
# Poissons Ratio (x) = 0.41220 0.08825
# Poissons Ratio (y) = 0.41220 0.08824
# Poissons Ratio (z) = 0.07009 0.07009
#
# Static dielectric constant tensor:
#      x y z
#    x 2.111590 0.000000 0.000000 
#    y 0.000000 2.111590 0.000000 
#    z 0.000000 0.000000 2.060310 
# 
# From -- ./inp_files/660.got.cif
#   From: 2010.05.17/outbox.cif.g08.bks.cpg/sg146_cif.got.tgz:660.got - 2010.05.20 13:48:23.
