data_PCOD9574731
_publ_section_title
;
Structure prediction by ZEFSAII (Michael W. Deem and Ramdas Pophale) SiO2 
 PCOD9574731
Probable space group: R 3
;
_chemical_formula_sum "Si O2"
_cell_formula_units_Z 45
_cell_length_a 11.156220
_cell_length_b 11.156220
_cell_length_c 18.856005
_cell_angle_alpha 90.000000
_cell_angle_beta 90.000000
_cell_angle_gamma 120.000000
_cell_volume 2032.424663
_symmetry_space_group_name_H-M "R 3"
_symmetry_group_IT_number 146
_symmetry_cell_setting 'hexagonal'
loop_
_space_group_symop_operation_xyz
x,y,z
-y,x-y,z
-x+y,-x,z
2/3+x,1/3+y,1/3+z
2/3-y,1/3+x-y,1/3+z
2/3-x+y,1/3-x,1/3+z
1/3+x,2/3+y,2/3+z
1/3-y,2/3+x-y,2/3+z
1/3-x+y,2/3-x,2/3+z
loop_
_atom_site_type_symbol
_atom_site_label
_atom_site_fract_x
_atom_site_fract_y
_atom_site_fract_z
Si Si1 0.367669 0.831075 0.333400
Si Si2 0.093147 0.363015 0.043884
Si Si3 0.890576 0.602907 0.484160
Si Si4 0.288213 0.888148 0.885051
Si Si5 0.108599 0.268668 0.509072
O O1 0.220295 0.695834 0.354291
O O2 0.387098 0.847779 0.248269
O O3 0.373705 0.967590 0.364039
O O4 0.153816 0.272348 0.077077
O O5 0.115575 0.270383 0.207332
O O6 0.154759 0.408329 0.966062
O O7 0.898278 0.467778 0.499690
O O8 0.795171 0.813272 0.437572
O O9 0.039542 0.737401 0.494761
O O10 0.272831 0.019439 0.862360
#
# Coordination Sequence:
#
# PCOD9574731 Si02
#       5
#     9   9   9   9   9
#     4   9  19  39  68 101 141 178 233 300 339 414
#     4  10  22  39  67 106 132 190 237 276 368 405
#     4  11  24  46  69 101 146 184 242 296 348 433
#     4  10  24  46  65 107 144 184 231 300 355 415
#     4  10  21  42  69  99 135 180 245 286 350 421
#
# _framework density 22.141041999999999
#
# number of rings (size 3 to 8) (size 9 to 14) (size 15 to 20)
#    0.400    1.600    0.000    4.000    2.800    3.200 
#   25.200    0.000    0.000    0.000    0.000    0.000 
#    0.000    0.000    0.000    0.000    0.000    0.000 
#
# Total GULP energy -83606.415879 kJ/mol
# GULP energy per Si atom -5573.761059 kJ/mol
# Density = 2.209065 g / cm^3
# Si number density = 22.141042 Si / 1000 Ang^3
#
#
#
# Elastic Constant Matrix: (Units=GPa)
#
#
# Indices 1 2 3 4 5 6 
#
# 1 95.0948 35.6502 34.5709 -12.2463 -6.1618 0.0000
# 2 35.6502 95.0948 34.5709 12.2463 6.1618 0.0000
# 3 34.5709 34.5709 127.5440 0.0000 0.0000 0.0000
# 4 -12.2463 12.2463 0.0000 25.4765 0.0000 6.1618
# 5 -6.1618 6.1618 0.0000 0.0000 25.4765 -12.2463
# 6 0.0000 0.0000 0.0000 6.1618 -12.2463 29.7223
#
#
#
# Elastic Compliance Matrix: (Units=1/GPa)
#
#
# Indices 1 2 3 4 5 6 
#
# 1 0.015652 -0.006724 -0.002420 0.010756 0.005412 0.000000
# 2 -0.006724 0.015652 -0.002420 -0.010756 -0.005412 0.000000
# 3 -0.002420 -0.002420 0.009152 0.000000 0.000000 0.000000
# 4 0.010756 -0.010756 0.000000 0.052210 0.000000 -0.010824
# 5 0.005412 -0.005412 0.000000 0.000000 0.052210 0.021512
# 6 0.000000 0.000000 0.000000 -0.010824 0.021512 0.044752
#
#
# Mechanical properties :
#
#
# Convention : Reuss Voigt Hill
#
# Bulk Modulus (GPa) = 57.70745 58.59084 58.14915
# Shear Modulus (GPa) = 22.87973 30.33114 26.60544
#
# Velocity S-wave (km/s) = 3.21808 3.70524 3.47022
# Velocity P-wave (km/s) = 6.31888 6.69515 6.50973
#
# Compressibility (1/GPa) = 0.01732878
#
# Stress axis : x y z
#
# Youngs Moduli (GPa) = 63.88886 63.88886 109.26189
#
# Poissons Ratio (x) = 0.42958 0.26441
# Poissons Ratio (y) = 0.42958 0.26441
# Poissons Ratio (z) = 0.15461 0.15461
#
# Static dielectric constant tensor:
#      x y z
#    x 1.853440 0.000000 0.000000 
#    y 0.000000 1.853440 0.000000 
#    z 0.000000 0.000000 1.846680 
# 
# From -- ./inp_files/1700.got.cif
#   From: 2010.05.17/outbox.cif.g08.bks.cpg/sg146_cif.got.tgz:1700.got - 2010.05.20 13:48:23.
