data_PCOD9574391
_publ_section_title
;
Structure prediction by ZEFSAII (Michael W. Deem and Ramdas Pophale) SiO2 
 PCOD9574391
Probable space group: P 31
;
_chemical_formula_sum "Si O2"
_cell_formula_units_Z 9
_cell_length_a 7.527225
_cell_length_b 7.527225
_cell_length_c 8.104984
_cell_angle_alpha 90.000000
_cell_angle_beta 90.000000
_cell_angle_gamma 120.000000
_cell_volume 397.697251
_symmetry_space_group_name_H-M "P 31"
_symmetry_group_IT_number 144
_symmetry_cell_setting 'hexagonal'
loop_
_space_group_symop_operation_xyz
x,y,z
-y,x-y,1/3+z
-x+y,-x,2/3+z
loop_
_atom_site_type_symbol
_atom_site_label
_atom_site_fract_x
_atom_site_fract_y
_atom_site_fract_z
Si Si1 0.878129 0.230708 0.747910
Si Si2 0.778656 0.592500 0.730789
Si Si3 0.020181 0.685730 0.403418
O O1 0.781373 0.378573 0.743892
O O2 0.830925 0.123352 0.568547
O O3 0.123210 0.368494 0.759150
O O4 0.786406 0.079793 0.901189
O O5 0.893083 0.690929 0.562123
O O6 0.541049 0.532430 0.730838
#
# Coordination Sequence:
#
# PCOD9574391 Si02
#       3
#     3   3   3
#     4  11  22  40  70 100 135 192 229 280 362 408
#     4  10  22  48  66  96 152 178 228 310 336 408
#     4  11  22  40  70 100 135 192 229 280 362 408
#
# _framework density 22.630278000000001
#
# number of rings (size 3 to 8) (size 9 to 14) (size 15 to 20)
#    0.000    1.333    6.667    0.000    4.667    0.000 
#    0.000   26.667    0.000    0.000    0.000    0.000 
#    0.000    0.000    0.000    0.000    0.000    0.000 
#
# Total GULP energy -50281.445420 kJ/mol
# GULP energy per Si atom -5586.827269 kJ/mol
# Density = 2.257877 g / cm^3
# Si number density = 22.630278 Si / 1000 Ang^3
#
#
#
# Elastic Constant Matrix: (Units=GPa)
#
#
# Indices 1 2 3 4 5 6 
#
# 1 40.7063 -6.6063 5.9021 -7.2575 11.3019 0.0000
# 2 -6.6063 40.7063 5.9021 7.2575 -11.3019 0.0000
# 3 5.9021 5.9021 214.5834 0.0000 0.0000 0.0000
# 4 -7.2575 7.2575 0.0000 -1.2271 0.0000 -11.3019
# 5 11.3019 -11.3019 0.0000 0.0000 -1.2271 -7.2575
# 6 0.0000 0.0000 0.0000 -11.3019 -7.2575 23.6563
#
#
#
# Elastic Compliance Matrix: (Units=1/GPa)
#
#
# Indices 1 2 3 4 5 6 
#
# 1 0.016269 0.013339 -0.000814 -0.017327 0.026982 0.000000
# 2 0.013339 0.016269 -0.000814 0.017327 -0.026982 0.000000
# 3 -0.000814 -0.000814 0.004705 0.000000 0.000000 0.000000
# 4 -0.017327 0.017327 0.000000 -0.112954 0.000000 -0.053964
# 5 0.026982 -0.026982 0.000000 0.000000 -0.112954 -0.034653
# 6 0.000000 0.000000 0.000000 -0.053964 -0.034653 0.005859
#
#
# Mechanical properties :
#
#
# Convention : Reuss Voigt Hill
#
# Bulk Modulus (GPa) = 16.48466 34.04351 25.26409
# Shear Modulus (GPa) = -26.88093 23.62695 -1.62699
#
# Velocity S-wave (km/s) = -3.45023 3.23467 -0.84882
# Velocity P-wave (km/s) = 2.92779 5.38765 3.19803
#
# Compressibility (1/GPa) = 0.06066246
#
# Stress axis : x y z
#
# Youngs Moduli (GPa) = 61.46842 61.46842 212.54028
#
# Poissons Ratio (x) = -0.81992 0.17308
# Poissons Ratio (y) = -0.81992 0.17308
# Poissons Ratio (z) = 0.05006 0.05006
#
# Static dielectric constant tensor:
#      x y z
#    x 1.814570 0.000000 0.000000 
#    y 0.000000 1.814570 0.000000 
#    z 0.000000 0.000000 1.892330 
# 
# From -- ./inp_files/43.got.cif
#   From: 2010.05.17/outbox.cif.g08.bks.cpg/sg144_cif.got.tgz:43.got - 2010.05.20 13:46:34.
