data_PCOD9574959
_publ_section_title
;
Structure prediction by ZEFSAII (Michael W. Deem and Ramdas Pophale) SiO2 
 PCOD9574959
Probable space group: P -3
;
_chemical_formula_sum "Si O2"
_cell_formula_units_Z 30
_cell_length_a 14.904596
_cell_length_b 14.904596
_cell_length_c 7.655361
_cell_angle_alpha 90.000000
_cell_angle_beta 90.000000
_cell_angle_gamma 120.000000
_cell_volume 1472.776088
_symmetry_space_group_name_H-M "P -3"
_symmetry_group_IT_number 147
_symmetry_cell_setting 'hexagonal'
loop_
_space_group_symop_operation_xyz
x,y,z
-y,x-y,z
-x+y,-x,z
-x,-y,-z
y,-x+y,-z
x-y,x,-z
loop_
_atom_site_type_symbol
_atom_site_label
_atom_site_fract_x
_atom_site_fract_y
_atom_site_fract_z
Si Si1 0.813277 0.569967 0.066110
Si Si2 0.256861 0.896901 0.312909
Si Si3 0.550748 0.117144 0.567992
Si Si4 0.413396 0.531326 0.029944
Si Si5 0.621297 0.860417 0.598499
O O1 0.840247 0.620559 0.256659
O O2 0.874509 0.631903 0.894041
O O3 0.695123 0.543091 0.055310
O O4 0.817500 0.464402 0.046819
O O5 0.331730 0.855740 0.394565
O O6 0.154366 0.826896 0.423408
O O7 0.312316 0.019340 0.345702
O O8 0.521336 0.130528 0.764301
O O9 0.496827 0.163623 0.443422
O O10 0.500000 0.000000 0.500000
O O11 0.500000 0.500000 0.000000
#
# Coordination Sequence:
#
# PCOD9574959 Si02
#       5
#     6   6   6   6   6
#     4  11  23  37  57  91 124 168 214 260 327 377
#     4  10  23  41  60  93 126 164 216 265 313 387
#     4   9  19  37  58  87 123 161 207 253 310 375
#     4  11  22  38  59  86 131 166 211 268 312 384
#     4  11  23  39  66  89 126 171 212 266 321 381
#
# _framework density 20.369693999999999
#
# number of rings (size 3 to 8) (size 9 to 14) (size 15 to 20)
#    0.000    1.600    2.000    4.000    8.400    1.600 
#    1.200    0.000    0.000    0.400    0.000    1.400 
#    0.000    0.000    0.000    0.000    0.000    0.000 
#
# Total GULP energy -167168.688470 kJ/mol
# GULP energy per Si atom -5572.289616 kJ/mol
# Density = 2.032333 g / cm^3
# Si number density = 20.369694 Si / 1000 Ang^3
#
#
#
# Elastic Constant Matrix: (Units=GPa)
#
#
# Indices 1 2 3 4 5 6 
#
# 1 51.4966 7.8746 24.3790 -0.8286 -2.9619 0.0000
# 2 7.8746 51.4966 24.3790 0.8286 2.9619 0.0000
# 3 24.3790 24.3790 119.0114 0.0000 0.0000 0.0000
# 4 -0.8286 0.8286 0.0000 31.6272 0.0000 2.9619
# 5 -2.9619 2.9619 0.0000 0.0000 31.6272 -0.8286
# 6 0.0000 0.0000 0.0000 2.9619 -0.8286 21.8110
#
#
#
# Elastic Compliance Matrix: (Units=1/GPa)
#
#
# Indices 1 2 3 4 5 6 
#
# 1 0.021746 -0.001497 -0.004148 0.000609 0.002177 0.000000
# 2 -0.001497 0.021746 -0.004148 -0.000609 -0.002177 0.000000
# 3 -0.004148 -0.004148 0.010102 0.000000 0.000000 0.000000
# 4 0.000609 -0.000609 0.000000 0.032058 0.000000 -0.004353
# 5 0.002177 -0.002177 0.000000 0.000000 0.032058 0.001218
# 6 0.000000 0.000000 0.000000 -0.004353 0.001218 0.046486
#
#
# Mechanical properties :
#
#
# Convention : Reuss Voigt Hill
#
# Bulk Modulus (GPa) = 29.40383 37.25218 33.32800
# Shear Modulus (GPa) = 25.62550 28.03792 26.83171
#
# Velocity S-wave (km/s) = 3.55071 3.71408 3.63331
# Velocity P-wave (km/s) = 5.59253 6.05973 5.83081
#
# Compressibility (1/GPa) = 0.03400918
#
# Stress axis : x y z
#
# Youngs Moduli (GPa) = 45.98478 45.98478 98.99046
#
# Poissons Ratio (x) = 0.06882 0.41062
# Poissons Ratio (y) = 0.06882 0.41062
# Poissons Ratio (z) = 0.19075 0.19075
#
# Static dielectric constant tensor:
#      x y z
#    x 1.691110 0.000000 0.000000 
#    y 0.000000 1.691110 0.000000 
#    z 0.000000 0.000000 1.831890 
# 
# From -- ./inp_files/502.got.cif
#   From: 2010.05.17/outbox.cif.g08.bks.cpg/sg147_cif.got.tgz:502.got - 2010.05.20 13:49:32.
