data_PCOD9574599
_publ_section_title
;
Structure prediction by ZEFSAII (Michael W. Deem and Ramdas Pophale) SiO2 
 PCOD9574599
Probable space group: P 32
;
_chemical_formula_sum "Si O2"
_cell_formula_units_Z 24
_cell_length_a 8.954894
_cell_length_b 8.954894
_cell_length_c 17.020571
_cell_angle_alpha 90.000000
_cell_angle_beta 90.000000
_cell_angle_gamma 120.000000
_cell_volume 1182.022262
_symmetry_space_group_name_H-M "P 32"
_symmetry_group_IT_number 145
_symmetry_cell_setting 'hexagonal'
loop_
_space_group_symop_operation_xyz
x,y,z
-y,x-y,2/3+z
-x+y,-x,1/3+z
loop_
_atom_site_type_symbol
_atom_site_label
_atom_site_fract_x
_atom_site_fract_y
_atom_site_fract_z
Si Si1 0.935204 0.573794 0.768110
Si Si2 0.717125 0.681712 0.658620
Si Si3 0.778052 0.859105 0.177115
Si Si4 0.316831 0.366302 0.067379
Si Si5 0.578658 0.333099 0.589830
Si Si6 0.319971 0.001463 0.688844
Si Si7 0.041960 0.858165 0.557819
Si Si8 0.408125 0.101629 0.982238
O O1 0.836503 0.655861 0.721732
O O2 0.796848 0.449791 0.831884
O O3 0.985339 0.464354 0.710325
O O4 0.090189 0.727564 0.815379
O O5 0.578277 0.492641 0.631780
O O6 0.845795 0.772114 0.586360
O O7 0.641961 0.796570 0.690293
O O8 0.796252 0.762038 0.100377
O O9 0.720925 0.736979 0.253074
O O10 0.952372 0.038691 0.194925
O O11 0.489340 0.547485 0.052787
O O12 0.257324 0.314992 0.156998
O O13 0.345544 0.215836 0.030425
O O14 0.434277 0.164264 0.633183
O O15 0.760205 0.342029 0.603736
O O16 0.164040 0.876520 0.631369
#
# Coordination Sequence:
#
# PCOD9574599 Si02
#       8
#     3   3   3   3   3   3   3   3
#     4  11  22  44  69  94 133 182 224 277 343 403
#     4  11  22  41  68  98 125 176 223 271 332 408
#     4  12  24  42  71  97 138 180 237 276 339 411
#     4  11  23  44  69  99 135 172 232 284 340 408
#     4  10  23  43  67  97 139 173 227 270 345 411
#     4  11  25  43  66 103 134 185 224 285 350 404
#     4  12  22  45  70  94 136 178 230 276 341 414
#     4  10  25  40  70 102 132 182 231 277 348 415
#
# _framework density 20.304188
#
# number of rings (size 3 to 8) (size 9 to 14) (size 15 to 20)
#    0.000    1.000    5.000    0.750    8.750    0.000 
#    4.500    0.000    0.000    0.000    0.000    0.000 
#    0.000    0.000    0.000    0.000    0.000    0.000 
#
# Total GULP energy -134083.805654 kJ/mol
# GULP energy per Si atom -5586.825236 kJ/mol
# Density = 2.025797 g / cm^3
# Si number density = 20.304188 Si / 1000 Ang^3
#
#
#
# Elastic Constant Matrix: (Units=GPa)
#
#
# Indices 1 2 3 4 5 6 
#
# 1 50.5484 25.2899 44.2989 -4.4258 -2.4021 0.0000
# 2 25.2899 50.5484 44.2989 4.4258 2.4021 0.0000
# 3 44.2989 44.2989 112.5465 0.0000 0.0000 0.0000
# 4 -4.4258 4.4258 0.0000 42.1599 0.0000 2.4021
# 5 -2.4021 2.4021 0.0000 0.0000 42.1599 -4.4258
# 6 0.0000 0.0000 0.0000 2.4021 -4.4258 12.6293
#
#
#
# Elastic Compliance Matrix: (Units=1/GPa)
#
#
# Indices 1 2 3 4 5 6 
#
# 1 0.032991 -0.008580 -0.009608 0.004364 0.002369 0.000000
# 2 -0.008580 0.032991 -0.009608 -0.004364 -0.002369 0.000000
# 3 -0.009608 -0.009608 0.016449 0.000000 0.000000 0.000000
# 4 0.004364 -0.004364 0.000000 0.024905 0.000000 -0.004737
# 5 0.002369 -0.002369 0.000000 0.000000 0.024905 0.008728
# 6 0.000000 0.000000 0.000000 -0.004737 0.008728 0.083141
#
#
# Mechanical properties :
#
#
# Convention : Reuss Voigt Hill
#
# Bulk Modulus (GPa) = 37.26125 49.04653 43.15389
# Shear Modulus (GPa) = 17.86225 26.04018 21.95122
#
# Velocity S-wave (km/s) = 2.96925 3.58509 3.29160
# Velocity P-wave (km/s) = 5.49059 6.43004 5.97880
#
# Compressibility (1/GPa) = 0.02683754
#
# Stress axis : x y z
#
# Youngs Moduli (GPa) = 30.31170 30.31170 60.79446
#
# Poissons Ratio (x) = 0.26007 0.58412
# Poissons Ratio (y) = 0.26007 0.58412
# Poissons Ratio (z) = 0.29124 0.29124
#
# Static dielectric constant tensor:
#      x y z
#    x 1.725160 0.000000 0.000000 
#    y 0.000000 1.725160 0.000000 
#    z 0.000000 0.000000 1.758180 
# 
# From -- ./inp_files/863.got.cif
#   From: 2010.05.17/outbox.cif.g08.bks.cpg/sg145_cif.got.tgz:863.got - 2010.05.20 13:47:28.
