data_PCOD9574777
_publ_section_title
;
Structure prediction by ZEFSAII (Michael W. Deem and Ramdas Pophale) SiO2 
 PCOD9574777
Probable space group: R 3
;
_chemical_formula_sum "Si O2"
_cell_formula_units_Z 60
_cell_length_a 15.785599
_cell_length_b 15.785599
_cell_length_c 11.574812
_cell_angle_alpha 90.000000
_cell_angle_beta 90.000000
_cell_angle_gamma 120.000000
_cell_volume 2497.852044
_symmetry_space_group_name_H-M "R 3"
_symmetry_group_IT_number 146
_symmetry_cell_setting 'hexagonal'
loop_
_space_group_symop_operation_xyz
x,y,z
-y,x-y,z
-x+y,-x,z
2/3+x,1/3+y,1/3+z
2/3-y,1/3+x-y,1/3+z
2/3-x+y,1/3-x,1/3+z
1/3+x,2/3+y,2/3+z
1/3-y,2/3+x-y,2/3+z
1/3-x+y,2/3-x,2/3+z
loop_
_atom_site_type_symbol
_atom_site_label
_atom_site_fract_x
_atom_site_fract_y
_atom_site_fract_z
Si Si1 0.787422 0.937180 0.222300
Si Si2 0.428088 0.060075 0.551707
Si Si3 0.273355 0.176717 0.408670
Si Si4 0.570449 0.542167 0.295253
Si Si5 0.124168 0.068315 0.844849
Si Si6 0.324209 0.808731 0.262503
Si Si7 0.666668 0.333334 0.787447
Si Si8 0.333333 0.666666 0.847834
O O1 0.704443 0.928042 0.134335
O O2 0.893370 0.985248 0.157863
O O3 0.791762 0.997151 0.337263
O O4 0.834730 0.255558 0.973013
O O5 0.491904 0.039055 0.641191
O O6 0.464366 0.071664 0.421496
O O7 0.431212 0.160531 0.586651
O O8 0.323156 0.963237 0.554995
O O9 0.226189 0.095554 0.511014
O O10 0.544254 0.441790 0.232574
O O11 0.056971 0.951630 0.876818
O O12 0.135539 0.060320 0.707588
O O13 0.378400 0.771319 0.177384
O O14 0.666668 0.333334 0.653852
#
# Coordination Sequence:
#
# PCOD9574777 Si02
#       8
#     9   9   9   9   9   9   3   3
#     4  12  25  49  81 120 158 209 277 334 410 487
#     4  12  24  46  78 113 153 212 274 330 398 493
#     4  12  28  47  81 116 163 208 277 345 409 487
#     4  12  24  45  80 116 159 216 270 338 412 486
#     4  10  24  47  73 117 166 207 264 339 412 484
#     4  12  22  43  79 113 152 219 272 330 403 491
#     4  12  21  42  78 115 152 214 285 327 394 497
#     4  12  24  45  90 112 155 229 273 339 400 497
#
# _framework density 24.020638000000002
#
# number of rings (size 3 to 8) (size 9 to 14) (size 15 to 20)
#    0.300    0.000    9.000    0.000    0.000    2.400 
#    0.000    3.000    3.300    0.000    0.000    0.000 
#    0.000    0.000    0.000    0.000    0.000    0.000 
#
# Total GULP energy -111694.491232 kJ/mol
# GULP energy per Si atom -5584.724562 kJ/mol
# Density = 2.396597 g / cm^3
# Si number density = 24.020638 Si / 1000 Ang^3
#
#
#
# Elastic Constant Matrix: (Units=GPa)
#
#
# Indices 1 2 3 4 5 6 
#
# 1 84.7302 29.2013 20.4821 -3.1142 5.1668 0.0001
# 2 29.2013 84.7303 20.4820 3.1145 -5.1663 -0.0004
# 3 20.4821 20.4820 95.5476 0.0000 0.0000 0.0000
# 4 -3.1142 3.1145 0.0000 38.1764 0.0001 -5.1664
# 5 5.1668 -5.1663 0.0000 0.0001 38.1764 -3.1140
# 6 0.0001 -0.0004 0.0000 -5.1664 -3.1140 27.7648
#
#
#
# Elastic Compliance Matrix: (Units=1/GPa)
#
#
# Indices 1 2 3 4 5 6 
#
# 1 0.014080 -0.004569 -0.002039 0.001521 -0.002524 0.000000
# 2 -0.004569 0.014080 -0.002039 -0.001521 0.002524 0.000000
# 3 -0.002039 -0.002039 0.011340 0.000000 0.000000 0.000000
# 4 0.001521 -0.001521 0.000000 0.027125 0.000000 0.005047
# 5 -0.002524 0.002524 0.000000 0.000000 0.027125 0.003042
# 6 0.000000 0.000000 0.000000 0.005047 0.003042 0.037297
#
#
# Mechanical properties :
#
#
# Convention : Reuss Voigt Hill
#
# Bulk Modulus (GPa) = 45.03324 45.03763 45.03544
# Shear Modulus (GPa) = 32.10426 33.81304 32.95865
#
# Velocity S-wave (km/s) = 3.65982 3.75596 3.70820
# Velocity P-wave (km/s) = 6.05372 6.13187 6.09292
#
# Compressibility (1/GPa) = 0.02220582
#
# Stress axis : x y z
#
# Youngs Moduli (GPa) = 71.02483 71.02503 88.18332
#
# Poissons Ratio (x) = 0.32454 0.17978
# Poissons Ratio (y) = 0.32454 0.17977
# Poissons Ratio (z) = 0.14480 0.14479
#
# Static dielectric constant tensor:
#      x y z
#    x 2.083990 0.000000 0.000000 
#    y 0.000000 2.083980 0.000000 
#    z 0.000000 0.000000 1.848070 
# 
# From -- ./inp_files/1268.got.cif
#   From: 2010.05.17/outbox.cif.g08.bks.cpg/sg146_cif.got.tgz:1268.got - 2010.05.20 13:48:23.
