data_PCOD9574167
_publ_section_title
;
Structure prediction by ZEFSAII (Michael W. Deem and Ramdas Pophale) SiO2 
 PCOD9574167
Probable space group: I 41/A C D
;
_chemical_formula_sum "Si O2"
_cell_formula_units_Z 168
_cell_length_a 21.446122
_cell_length_b 21.446122
_cell_length_c 18.705272
_cell_angle_alpha 90.000000
_cell_angle_beta 90.000000
_cell_angle_gamma 90.000000
_cell_volume 8603.230767
_symmetry_space_group_name_H-M "I 41/A C D"
_symmetry_group_IT_number 142
_space_group.IT_coordinate_system_code '2'
_symmetry_cell_setting 'tetragonal'
loop_
_space_group_symop_operation_xyz
x,y,z
1/4-y,3/4+x,1/4+z
-x,1/2-y,z
1/4+y,1/4-x,3/4+z
x,-y,1/2-z
1/2-x,y,-z
3/4+y,1/4+x,1/4-z
1/4-y,1/4-x,1/4-z
-x,-y,-z
3/4+y,1/4-x,3/4-z
x,1/2+y,-z
3/4-y,3/4+x,1/4-z
-x,y,1/2+z
1/2+x,-y,z
1/4-y,3/4-x,3/4+z
3/4+y,3/4+x,3/4+z
1/2+x,1/2+y,1/2+z
3/4-y,1/4+x,3/4+z
1/2-x,-y,1/2+z
3/4+y,3/4-x,1/4+z
1/2+x,1/2-y,-z
-x,1/2+y,1/2-z
1/4+y,3/4+x,3/4-z
3/4-y,3/4-x,3/4-z
1/2-x,1/2-y,1/2-z
1/4+y,3/4-x,1/4-z
1/2+x,y,1/2-z
1/4-y,1/4+x,3/4-z
1/2-x,1/2+y,z
x,1/2-y,1/2+z
3/4-y,1/4-x,1/4+z
1/4+y,1/4+x,1/4+z
loop_
_atom_site_type_symbol
_atom_site_label
_atom_site_fract_x
_atom_site_fract_y
_atom_site_fract_z
Si Si1 0.500000 0.750000 0.875000
Si Si2 0.085987 0.136701 0.422063
Si Si3 0.932973 0.023582 0.331308
Si Si4 0.750000 0.517397 0.000000
Si Si5 0.762334 0.825973 0.084027
Si Si6 0.320567 0.626277 0.688415
Si Si7 0.189285 0.560716 0.875000
O O1 0.560176 0.782670 0.835954
O O2 0.152692 0.171316 0.420316
O O3 0.089420 0.083030 0.360656
O O4 0.083341 0.097192 0.496244
O O5 0.003455 0.004952 0.348608
O O6 0.922654 0.000000 0.250000
O O7 0.895113 0.991720 0.395725
O O8 0.692603 0.556734 0.030827
O O9 0.779113 0.473146 0.058752
O O10 0.711149 0.868162 0.123703
O O11 0.750000 0.836067 0.000000
O O12 0.371078 0.621078 0.625000
#
# Coordination Sequence:
#
# PCOD9574167 Si02
#       7
#     8  32  32  16  32  32  16
#     4  12  28  52  70  92 132 204 252 266 340 428
#     4  12  24  47  72  97 139 186 236 284 341 430
#     4  11  24  45  68  97 135 181 226 283 350 413
#     4  12  22  36  64 100 134 168 210 272 360 426
#     4  11  25  42  67  98 138 180 225 293 354 412
#     4  12  23  39  69 104 131 171 226 288 350 415
#     4  12  22  40  60 104 137 173 218 284 364 408
#
# _framework density 19.527547999999999
#
# number of rings (size 3 to 8) (size 9 to 14) (size 15 to 20)
#    0.000    0.381    7.619    2.286    0.000    0.762 
#    3.429    0.476    0.000    0.000    0.000    0.000 
#    0.000    0.000    0.000    0.000    0.000    0.000 
#
# Total GULP energy -468480.265285 kJ/mol
# GULP energy per Si atom -5577.146015 kJ/mol
# Density = 1.948310 g / cm^3
# Si number density = 19.527548 Si / 1000 Ang^3
#
#
#
# Elastic Constant Matrix: (Units=GPa)
#
#
# Indices 1 2 3 4 5 6 
#
# 1 120.3947 26.8482 37.4447 0.0000 0.0000 0.0000
# 2 26.8482 120.3957 37.4457 0.0000 0.0000 0.0000
# 3 37.4447 37.4457 107.2443 0.0000 0.0000 0.0000
# 4 0.0000 0.0000 0.0000 30.3745 0.0000 0.0000
# 5 0.0000 0.0000 0.0000 0.0000 30.3748 0.0000
# 6 0.0000 0.0000 0.0000 0.0000 0.0000 32.3184
#
#
#
# Elastic Compliance Matrix: (Units=1/GPa)
#
#
# Indices 1 2 3 4 5 6 
#
# 1 0.009474 -0.001216 -0.002883 0.000000 0.000000 0.000000
# 2 -0.001216 0.009474 -0.002883 0.000000 0.000000 0.000000
# 3 -0.002883 -0.002883 0.011338 0.000000 0.000000 0.000000
# 4 0.000000 0.000000 0.000000 0.032922 0.000000 0.000000
# 5 0.000000 0.000000 0.000000 0.000000 0.032922 0.000000
# 6 0.000000 0.000000 0.000000 0.000000 0.000000 0.030942
#
#
# Mechanical properties :
#
#
# Convention : Reuss Voigt Hill
#
# Bulk Modulus (GPa) = 61.27226 61.27910 61.27568
# Shear Modulus (GPa) = 34.13490 35.03328 34.58409
#
# Velocity S-wave (km/s) = 4.18549 4.24021 4.21294
# Velocity P-wave (km/s) = 7.40292 7.44456 7.42377
#
# Compressibility (1/GPa) = 0.01632060
#
# Stress axis : x y z
#
# Youngs Moduli (GPa) = 105.55296 105.55322 88.19902
#
# Poissons Ratio (x) = 0.12834 0.25430
# Poissons Ratio (y) = 0.12834 0.25431
# Poissons Ratio (z) = 0.30434 0.30435
#
# Static dielectric constant tensor:
#      x y z
#    x 1.719830 0.000000 0.000000 
#    y 0.000000 1.719830 0.000000 
#    z 0.000000 0.000000 1.696260 
# 
# From -- ./inp_files/9122.got.cif
#   From: 2010.05.17/outbox.cif.g08.bks.cpg/sg142_5_cif.got.tgz:9122.got - 2010.05.20 13:39:18.
