data_PCOD9574352
_publ_section_title
;
Structure prediction by ZEFSAII (Michael W. Deem and Ramdas Pophale) SiO2 
 PCOD9574352
Probable space group: P 31
;
_chemical_formula_sum "Si O2"
_cell_formula_units_Z 21
_cell_length_a 7.629488
_cell_length_b 7.629488
_cell_length_c 20.374266
_cell_angle_alpha 90.000000
_cell_angle_beta 90.000000
_cell_angle_gamma 120.000000
_cell_volume 1027.077918
_symmetry_space_group_name_H-M "P 31"
_symmetry_group_IT_number 144
_symmetry_cell_setting 'hexagonal'
loop_
_space_group_symop_operation_xyz
x,y,z
-y,x-y,1/3+z
-x+y,-x,2/3+z
loop_
_atom_site_type_symbol
_atom_site_label
_atom_site_fract_x
_atom_site_fract_y
_atom_site_fract_z
Si Si1 0.584827 0.163379 0.748250
Si Si2 0.356774 0.552242 0.014543
Si Si3 0.149259 0.000439 0.722866
Si Si4 0.029774 0.618354 0.955151
Si Si5 0.047801 0.227275 0.620895
Si Si6 0.165349 0.170785 0.479254
Si Si7 0.455561 0.008254 0.477583
O O1 0.355426 0.093861 0.765492
O O2 0.421828 0.755446 0.651740
O O3 0.647694 0.001365 0.774570
O O4 0.769674 0.370114 0.776955
O O5 0.862400 0.443163 0.002837
O O6 0.563264 0.625086 0.975133
O O7 0.183171 0.317448 0.012905
O O8 0.422247 0.583396 0.090879
O O9 0.166725 0.176258 0.675470
O O10 0.952766 0.921181 0.768348
O O11 0.963783 0.786047 0.958205
O O12 0.015264 0.551968 0.880075
O O13 0.127095 0.240951 0.548082
O O14 0.250846 0.016065 0.489875
#
# Coordination Sequence:
#
# PCOD9574352 Si02
#       7
#     3   3   3   3   3   3   3
#     4   9  21  43  70 101 143 179 236 302 343 431
#     4  11  24  43  73 102 145 188 239 298 360 428
#     4  11  22  45  71 101 144 185 237 297 359 424
#     4  11  22  44  71 105 145 183 246 297 351 439
#     4  12  23  47  69 105 147 186 240 300 356 437
#     4  10  21  41  72  97 145 187 231 301 355 419
#     4  10  21  47  68 103 147 184 241 299 356 432
#
# _framework density 20.446355000000001
#
# number of rings (size 3 to 8) (size 9 to 14) (size 15 to 20)
#    0.857    0.571    4.286    2.571    0.000    3.429 
#    7.714    1.429    0.000    0.000    0.000    0.000 
#    0.000    0.000    0.000    0.000    0.000    0.000 
#
# Total GULP energy -117003.725053 kJ/mol
# GULP energy per Si atom -5571.605955 kJ/mol
# Density = 2.039982 g / cm^3
# Si number density = 20.446355 Si / 1000 Ang^3
#
#
#
# Elastic Constant Matrix: (Units=GPa)
#
#
# Indices 1 2 3 4 5 6 
#
# 1 91.2213 31.0730 36.5758 2.0318 7.1959 0.0000
# 2 31.0730 91.2213 36.5758 -2.0318 -7.1959 0.0000
# 3 36.5758 36.5758 132.9810 0.0000 0.0000 0.0000
# 4 2.0318 -2.0318 0.0000 26.3209 0.0000 -7.1959
# 5 7.1959 -7.1959 0.0000 0.0000 26.3209 2.0318
# 6 0.0000 0.0000 0.0000 -7.1959 2.0318 30.0741
#
#
#
# Elastic Compliance Matrix: (Units=1/GPa)
#
#
# Indices 1 2 3 4 5 6 
#
# 1 0.013838 -0.004051 -0.002692 -0.001381 -0.004891 0.000000
# 2 -0.004051 0.013838 -0.002692 0.001381 0.004891 0.000000
# 3 -0.002692 -0.002692 0.009001 0.000000 0.000000 0.000000
# 4 -0.001381 0.001381 0.000000 0.040880 0.000000 0.009781
# 5 -0.004891 0.004891 0.000000 0.000000 0.040880 -0.002762
# 6 0.000000 0.000000 0.000000 0.009781 -0.002762 0.035778
#
#
# Mechanical properties :
#
#
# Convention : Reuss Voigt Hill
#
# Bulk Modulus (GPa) = 56.15651 58.20809 57.18230
# Shear Modulus (GPa) = 27.92974 30.62310 29.27642
#
# Velocity S-wave (km/s) = 3.69995 3.87425 3.78810
# Velocity P-wave (km/s) = 6.76593 6.96732 6.86736
#
# Compressibility (1/GPa) = 0.01780738
#
# Stress axis : x y z
#
# Youngs Moduli (GPa) = 72.26400 72.26400 111.10274
#
# Poissons Ratio (x) = 0.29274 0.29908
# Poissons Ratio (y) = 0.29274 0.29908
# Poissons Ratio (z) = 0.19453 0.19453
#
# Static dielectric constant tensor:
#      x y z
#    x 1.765960 0.000000 0.000000 
#    y 0.000000 1.765960 0.000000 
#    z 0.000000 0.000000 1.740890 
# 
# From -- ./inp_files/933.got.cif
#   From: 2010.05.17/outbox.cif.g08.bks.cpg/sg144_cif.got.tgz:933.got - 2010.05.20 13:46:34.
