data_PCOD9574684
_publ_section_title
;
Structure prediction by ZEFSAII (Michael W. Deem and Ramdas Pophale) SiO2 
 PCOD9574684
Probable space group: R 3
;
_chemical_formula_sum "Si O2"
_cell_formula_units_Z 51
_cell_length_a 15.966774
_cell_length_b 15.966774
_cell_length_c 11.743927
_cell_angle_alpha 90.000000
_cell_angle_beta 90.000000
_cell_angle_gamma 120.000000
_cell_volume 2592.855601
_symmetry_space_group_name_H-M "R 3"
_symmetry_group_IT_number 146
_symmetry_cell_setting 'hexagonal'
loop_
_space_group_symop_operation_xyz
x,y,z
-y,x-y,z
-x+y,-x,z
2/3+x,1/3+y,1/3+z
2/3-y,1/3+x-y,1/3+z
2/3-x+y,1/3-x,1/3+z
1/3+x,2/3+y,2/3+z
1/3-y,2/3+x-y,2/3+z
1/3-x+y,2/3-x,2/3+z
loop_
_atom_site_type_symbol
_atom_site_label
_atom_site_fract_x
_atom_site_fract_y
_atom_site_fract_z
Si Si1 0.000000 0.000000 0.445475
Si Si2 0.821834 0.296942 0.891673
Si Si3 0.069508 0.752162 0.946081
Si Si4 0.206369 0.865950 0.361390
Si Si5 0.420395 0.302790 0.040240
Si Si6 0.737497 0.185001 0.503486
Si Si7 0.666668 0.333334 0.504307
O O1 0.910232 0.898974 0.490831
O O2 0.000000 0.000000 0.309048
O O3 0.870491 0.257166 0.803390
O O4 0.903989 0.362889 0.980972
O O5 0.736291 0.209450 0.961038
O O6 0.074809 0.810380 0.832978
O O7 0.112656 0.684415 0.904940
O O8 0.957283 0.679465 0.978161
O O9 0.104887 0.812673 0.062228
O O10 0.140492 0.751404 0.384231
O O11 0.157291 0.894716 0.260132
O O12 0.703975 0.260418 0.467443
#
# Coordination Sequence:
#
# PCOD9574684 Si02
#       7
#     3   9   9   9   9   9   3
#     4  12  24  39  73  95 133 168 222 277 329 394
#     4  12  24  44  66 101 133 173 224 278 334 395
#     4   9  20  40  66  90 124 175 220 268 328 405
#     4  11  24  41  66  98 130 173 220 276 330 399
#     4  10  19  40  67  91 127 173 223 264 331 399
#     4  10  23  40  67  93 126 174 225 268 332 398
#     4  12  24  42  61  98 133 168 216 277 332 394
#
# _framework density 19.669433000000001
#
# number of rings (size 3 to 8) (size 9 to 14) (size 15 to 20)
#    0.000    1.412    5.294    0.000    4.941    0.000 
#   12.706    0.000    0.000    0.000    0.000    0.000 
#    0.000    0.000    0.000    0.000    0.000    0.000 
#
# Total GULP energy -94831.424399 kJ/mol
# GULP energy per Si atom -5578.319082 kJ/mol
# Density = 1.962466 g / cm^3
# Si number density = 19.669433 Si / 1000 Ang^3
#
#
#
# Elastic Constant Matrix: (Units=GPa)
#
#
# Indices 1 2 3 4 5 6 
#
# 1 42.7840 1.9919 6.9358 0.8664 -1.6721 -0.0004
# 2 1.9919 42.7850 6.9363 -0.8664 1.6720 -0.0001
# 3 6.9358 6.9363 80.2699 0.0002 0.0000 -0.0006
# 4 0.8664 -0.8664 0.0002 22.3056 0.0000 1.6719
# 5 -1.6721 1.6720 0.0000 0.0000 22.3058 0.8663
# 6 -0.0004 -0.0001 -0.0006 1.6719 0.8663 20.3963
#
#
#
# Elastic Compliance Matrix: (Units=1/GPa)
#
#
# Indices 1 2 3 4 5 6 
#
# 1 0.023827 -0.000880 -0.001983 -0.000960 0.001852 0.000000
# 2 -0.000880 0.023827 -0.001983 0.000960 -0.001852 0.000000
# 3 -0.001983 -0.001983 0.012801 0.000000 0.000000 0.000000
# 4 -0.000960 0.000960 0.000000 0.045184 0.000000 -0.003704
# 5 0.001852 -0.001852 0.000000 0.000000 0.045184 -0.001919
# 6 0.000000 0.000000 0.000000 -0.003704 -0.001919 0.049414
#
#
# Mechanical properties :
#
#
# Convention : Reuss Voigt Hill
#
# Bulk Modulus (GPa) = 19.69894 21.95188 20.82541
# Shear Modulus (GPa) = 22.04114 22.99986 22.52050
#
# Velocity S-wave (km/s) = 3.35114 3.42324 3.38738
# Velocity P-wave (km/s) = 5.00102 5.17778 5.09017
#
# Compressibility (1/GPa) = 0.05076415
#
# Stress axis : x y z
#
# Youngs Moduli (GPa) = 41.96847 41.96932 78.12103
#
# Poissons Ratio (x) = 0.03692 0.15490
# Poissons Ratio (y) = 0.03692 0.15491
# Poissons Ratio (z) = 0.08322 0.08322
#
# Static dielectric constant tensor:
#      x y z
#    x 1.692720 0.000000 0.000000 
#    y 0.000000 1.692710 0.000000 
#    z 0.000000 0.000000 1.695450 
# 
# From -- ./inp_files/1148.got.cif
#   From: 2010.05.17/outbox.cif.g08.bks.cpg/sg146_cif.got.tgz:1148.got - 2010.05.20 13:48:23.
