data_PCOD9574624
_publ_section_title
;
Structure prediction by ZEFSAII (Michael W. Deem and Ramdas Pophale) SiO2 
 PCOD9574624
Probable space group: P 32
;
_chemical_formula_sum "Si O2"
_cell_formula_units_Z 18
_cell_length_a 12.295341
_cell_length_b 12.295341
_cell_length_c 6.331486
_cell_angle_alpha 90.000000
_cell_angle_beta 90.000000
_cell_angle_gamma 120.000000
_cell_volume 828.929200
_symmetry_space_group_name_H-M "P 32"
_symmetry_group_IT_number 145
_symmetry_cell_setting 'hexagonal'
loop_
_space_group_symop_operation_xyz
x,y,z
-y,x-y,2/3+z
-x+y,-x,1/3+z
loop_
_atom_site_type_symbol
_atom_site_label
_atom_site_fract_x
_atom_site_fract_y
_atom_site_fract_z
Si Si1 0.237327 0.952191 0.654650
Si Si2 0.713942 0.988648 0.834864
Si Si3 0.581571 0.221802 0.608913
Si Si4 0.901969 0.027811 0.518658
Si Si5 0.386028 0.107136 0.266369
Si Si6 0.469187 0.992510 0.886500
O O1 0.095279 0.840642 0.655413
O O2 0.227030 0.069845 0.739896
O O3 0.294401 0.992822 0.419296
O O4 0.327349 0.920128 0.794375
O O5 0.759840 0.962575 0.608684
O O6 0.812899 0.137151 0.850411
O O7 0.570216 0.945793 0.901699
O O8 0.710891 0.286331 0.485958
O O9 0.489030 0.209090 0.424309
O O10 0.539848 0.086052 0.691317
O O11 0.008120 0.070440 0.703429
O O12 0.450995 0.059150 0.095433
#
# Coordination Sequence:
#
# PCOD9574624 Si02
#       6
#     3   3   3   3   3   3
#     4  11  25  44  66 103 142 184 246 308 367 445
#     4  12  23  43  72  99 140 193 236 313 372 428
#     4  11  21  36  62  96 135 177 221 278 345 429
#     4  12  23  42  72 110 144 183 246 316 382 435
#     4  11  23  44  65  98 140 178 243 300 355 441
#     4  11  25  43  63  96 141 185 238 293 363 444
#
# _framework density 21.714763000000001
#
# number of rings (size 3 to 8) (size 9 to 14) (size 15 to 20)
#    0.000    0.667    3.333    6.000    2.333    0.000 
#    6.000    1.667    0.000    0.000    0.000    0.000 
#    0.000    0.000    0.000    0.000    0.000    0.000 
#
# Total GULP energy -100212.728895 kJ/mol
# GULP energy per Si atom -5567.373827 kJ/mol
# Density = 2.166534 g / cm^3
# Si number density = 21.714763 Si / 1000 Ang^3
#
#
#
# Elastic Constant Matrix: (Units=GPa)
#
#
# Indices 1 2 3 4 5 6 
#
# 1 79.3409 10.4880 25.0007 0.0319 -8.0301 0.0000
# 2 10.4880 79.3409 25.0007 -0.0319 8.0301 0.0000
# 3 25.0007 25.0007 92.1566 0.0000 0.0000 0.0000
# 4 0.0319 -0.0319 0.0000 29.5902 0.0000 8.0301
# 5 -8.0301 8.0301 0.0000 0.0000 29.5902 0.0319
# 6 0.0000 0.0000 0.0000 8.0301 0.0319 34.4265
#
#
#
# Elastic Compliance Matrix: (Units=1/GPa)
#
#
# Indices 1 2 3 4 5 6 
#
# 1 0.014309 -0.001196 -0.003557 -0.000017 0.004208 0.000000
# 2 -0.001196 0.014309 -0.003557 0.000017 -0.004208 0.000000
# 3 -0.003557 -0.003557 0.012781 0.000000 0.000000 0.000000
# 4 -0.000017 0.000017 0.000000 0.036079 0.000000 -0.008416
# 5 0.004208 -0.004208 0.000000 0.000000 0.036079 -0.000033
# 6 0.000000 0.000000 0.000000 -0.008416 -0.000033 0.031010
#
#
# Mechanical properties :
#
#
# Convention : Reuss Voigt Hill
#
# Bulk Modulus (GPa) = 40.35998 41.31303 40.83650
# Shear Modulus (GPa) = 29.50771 31.41131 30.45951
#
# Velocity S-wave (km/s) = 3.69030 3.80747 3.74934
# Velocity P-wave (km/s) = 6.06502 6.19643 6.13108
#
# Compressibility (1/GPa) = 0.02477702
#
# Stress axis : x y z
#
# Youngs Moduli (GPa) = 69.88732 69.88732 78.24053
#
# Poissons Ratio (x) = 0.08362 0.27831
# Poissons Ratio (y) = 0.08362 0.27831
# Poissons Ratio (z) = 0.24860 0.24860
#
# Static dielectric constant tensor:
#      x y z
#    x 1.940800 0.000000 0.000000 
#    y 0.000000 1.940800 0.000000 
#    z 0.000000 0.000000 1.913910 
# 
# From -- ./inp_files/118.got.cif
#   From: 2010.05.17/outbox.cif.g08.bks.cpg/sg145_cif.got.tgz:118.got - 2010.05.20 13:47:28.
