data_PCOD9574126
_publ_section_title
;
Structure prediction by ZEFSAII (Michael W. Deem and Ramdas Pophale) SiO2 
 PCOD9574126
Probable space group: I 41/A C D
;
_chemical_formula_sum "Si O2"
_cell_formula_units_Z 88
_cell_length_a 15.310924
_cell_length_b 15.310924
_cell_length_c 14.343291
_cell_angle_alpha 90.000000
_cell_angle_beta 90.000000
_cell_angle_gamma 90.000000
_cell_volume 3362.417297
_symmetry_space_group_name_H-M "I 41/A C D"
_symmetry_group_IT_number 142
_space_group.IT_coordinate_system_code '2'
_symmetry_cell_setting 'tetragonal'
loop_
_space_group_symop_operation_xyz
x,y,z
1/4-y,3/4+x,1/4+z
-x,1/2-y,z
1/4+y,1/4-x,3/4+z
x,-y,1/2-z
1/2-x,y,-z
3/4+y,1/4+x,1/4-z
1/4-y,1/4-x,1/4-z
-x,-y,-z
3/4+y,1/4-x,3/4-z
x,1/2+y,-z
3/4-y,3/4+x,1/4-z
-x,y,1/2+z
1/2+x,-y,z
1/4-y,3/4-x,3/4+z
3/4+y,3/4+x,3/4+z
1/2+x,1/2+y,1/2+z
3/4-y,1/4+x,3/4+z
1/2-x,-y,1/2+z
3/4+y,3/4-x,1/4+z
1/2+x,1/2-y,-z
-x,1/2+y,1/2-z
1/4+y,3/4+x,3/4-z
3/4-y,3/4-x,3/4-z
1/2-x,1/2-y,1/2-z
1/4+y,3/4-x,1/4-z
1/2+x,y,1/2-z
1/4-y,1/4+x,3/4-z
1/2-x,1/2+y,z
x,1/2-y,1/2+z
3/4-y,1/4-x,1/4+z
1/4+y,1/4+x,1/4+z
loop_
_atom_site_type_symbol
_atom_site_label
_atom_site_fract_x
_atom_site_fract_y
_atom_site_fract_z
Si Si1 0.101722 0.148279 0.125000
Si Si2 0.500000 0.750000 0.875000
Si Si3 0.393039 0.356962 0.875000
Si Si4 0.820557 0.690353 0.200508
Si Si5 0.250000 0.630208 0.500000
O O1 0.116610 0.252507 0.110981
O O2 0.151444 0.120409 0.219548
O O3 0.586795 0.739584 0.814521
O O4 0.341877 0.404868 0.959966
O O5 0.750000 0.750000 0.250000
O O6 0.786897 0.671429 0.096500
#
# Coordination Sequence:
#
# PCOD9574126 Si02
#       5
#    16   8  16  32  16
#     4  11  22  48  79 110 158 229 276 348 432 515
#     4  12  28  50  88 116 166 240 272 358 448 500
#     4  11  24  46  81 112 170 221 288 353 432 510
#     4  12  26  46  83 125 165 222 301 351 428 529
#     4  12  26  46  74 126 168 218 288 366 420 516
#
# _framework density 26.171645999999999
#
# number of rings (size 3 to 8) (size 9 to 14) (size 15 to 20)
#    0.000    0.364    3.636    6.545    0.000    0.000 
#    0.000    1.818    0.000    0.000    0.000    0.000 
#    0.000    0.000    0.000    0.000    0.000    0.000 
#
# Total GULP energy -245153.133463 kJ/mol
# GULP energy per Si atom -5571.662124 kJ/mol
# Density = 2.611208 g / cm^3
# Si number density = 26.171646 Si / 1000 Ang^3
#
#
#
# Elastic Constant Matrix: (Units=GPa)
#
#
# Indices 1 2 3 4 5 6 
#
# 1 137.8512 -4.8563 69.2382 0.0000 0.0000 0.0000
# 2 -4.8563 137.8506 69.2381 0.0000 0.0000 0.0000
# 3 69.2382 69.2381 273.7794 0.0000 0.0000 0.0000
# 4 0.0000 0.0000 0.0000 70.8491 0.0000 0.0000
# 5 0.0000 0.0000 0.0000 0.0000 70.8493 0.0000
# 6 0.0000 0.0000 0.0000 0.0000 0.0000 11.8824
#
#
#
# Elastic Compliance Matrix: (Units=1/GPa)
#
#
# Indices 1 2 3 4 5 6 
#
# 1 0.008607 0.001600 -0.002581 0.000000 0.000000 0.000000
# 2 0.001600 0.008607 -0.002581 0.000000 0.000000 0.000000
# 3 -0.002581 -0.002581 0.004958 0.000000 0.000000 0.000000
# 4 0.000000 0.000000 0.000000 0.014115 0.000000 0.000000
# 5 0.000000 0.000000 0.000000 0.000000 0.014114 0.000000
# 6 0.000000 0.000000 0.000000 0.000000 0.000000 0.084158
#
#
# Mechanical properties :
#
#
# Convention : Reuss Voigt Hill
#
# Bulk Modulus (GPa) = 66.46009 90.74681 78.60345
# Shear Modulus (GPa) = 34.08303 58.44025 46.26164
#
# Velocity S-wave (km/s) = 3.61264 4.73055 4.20887
# Velocity P-wave (km/s) = 6.54604 8.03657 7.32929
#
# Compressibility (1/GPa) = 0.01504663
#
# Stress axis : x y z
#
# Youngs Moduli (GPa) = 116.18404 116.18344 201.68745
#
# Poissons Ratio (x) = -0.18586 0.52061
# Poissons Ratio (y) = -0.18586 0.52061
# Poissons Ratio (z) = 0.29990 0.29990
#
# Static dielectric constant tensor:
#      x y z
#    x 2.180120 0.000000 0.000000 
#    y 0.000000 2.180120 0.000000 
#    z 0.000000 0.000000 2.176700 
# 
# From -- ./inp_files/4825.got.cif
#   From: 2010.05.17/outbox.cif.g08.bks.cpg/sg142_3_cif.got.tgz:4825.got - 2010.05.20 13:39:18.
