data_PCOD9574051
_publ_section_title
;
Structure prediction by ZEFSAII (Michael W. Deem and Ramdas Pophale) SiO2 
 PCOD9574051
Probable space group: I 41/A C D
;
_chemical_formula_sum "Si O2"
_cell_formula_units_Z 128
_cell_length_a 16.365979
_cell_length_b 16.365979
_cell_length_c 18.400101
_cell_angle_alpha 90.000000
_cell_angle_beta 90.000000
_cell_angle_gamma 90.000000
_cell_volume 4928.379995
_symmetry_space_group_name_H-M "I 41/A C D"
_symmetry_group_IT_number 142
_space_group.IT_coordinate_system_code '2'
_symmetry_cell_setting 'tetragonal'
loop_
_space_group_symop_operation_xyz
x,y,z
1/4-y,3/4+x,1/4+z
-x,1/2-y,z
1/4+y,1/4-x,3/4+z
x,-y,1/2-z
1/2-x,y,-z
3/4+y,1/4+x,1/4-z
1/4-y,1/4-x,1/4-z
-x,-y,-z
3/4+y,1/4-x,3/4-z
x,1/2+y,-z
3/4-y,3/4+x,1/4-z
-x,y,1/2+z
1/2+x,-y,z
1/4-y,3/4-x,3/4+z
3/4+y,3/4+x,3/4+z
1/2+x,1/2+y,1/2+z
3/4-y,1/4+x,3/4+z
1/2-x,-y,1/2+z
3/4+y,3/4-x,1/4+z
1/2+x,1/2-y,-z
-x,1/2+y,1/2-z
1/4+y,3/4+x,3/4-z
3/4-y,3/4-x,3/4-z
1/2-x,1/2-y,1/2-z
1/4+y,3/4-x,1/4-z
1/2+x,y,1/2-z
1/4-y,1/4+x,3/4-z
1/2-x,1/2+y,z
x,1/2-y,1/2+z
3/4-y,1/4-x,1/4+z
1/4+y,1/4+x,1/4+z
loop_
_atom_site_type_symbol
_atom_site_label
_atom_site_fract_x
_atom_site_fract_y
_atom_site_fract_z
Si Si1 0.460422 0.329512 0.003171
Si Si2 0.592034 0.609370 0.391431
Si Si3 0.421062 0.445550 0.822355
Si Si4 0.772543 0.640600 0.418780
O O1 0.500000 0.250000 0.968325
O O2 0.536794 0.378362 0.036957
O O3 0.405396 0.300068 0.072626
O O4 0.393744 0.364750 0.947668
O O5 0.605589 0.513212 0.380571
O O6 0.682203 0.647903 0.386058
O O7 0.405447 0.500000 0.750000
O O8 0.519544 0.438037 0.828749
O O9 0.750000 0.611715 0.500000
O O10 0.828743 0.578743 0.375000
#
# Coordination Sequence:
#
# PCOD9574051 Si02
#       4
#    32  32  32  32
#     4  11  17  31  66 104 135 182 239 303 362 449
#     4  11  18  37  66 101 137 188 245 296 374 461
#     4   9  20  35  62 100 139 182 244 300 364 450
#     4  11  24  43  67  97 146 193 240 310 383 448
#
# _framework density 25.972024000000001
#
# number of rings (size 3 to 8) (size 9 to 14) (size 15 to 20)
#    0.000    1.500    5.000    3.000    0.000    3.000 
#    0.000    1.250    5.500    1.500    0.000    0.000 
#    0.000    0.000    0.000    0.000    0.000    0.000 
#
# Total GULP energy -357672.902403 kJ/mol
# GULP energy per Si atom -5588.639100 kJ/mol
# Density = 2.591291 g / cm^3
# Si number density = 25.972024 Si / 1000 Ang^3
#
#
#
# Elastic Constant Matrix: (Units=GPa)
#
#
# Indices 1 2 3 4 5 6 
#
# 1 101.9889 42.6242 9.6559 0.0000 0.0000 0.0000
# 2 42.6242 101.9889 9.6559 0.0000 0.0000 0.0000
# 3 9.6559 9.6559 31.0805 0.0000 0.0000 0.0000
# 4 0.0000 0.0000 0.0000 20.9658 0.0000 0.0000
# 5 0.0000 0.0000 0.0000 0.0000 20.9658 0.0000
# 6 0.0000 0.0000 0.0000 0.0000 0.0000 27.8640
#
#
#
# Elastic Compliance Matrix: (Units=1/GPa)
#
#
# Indices 1 2 3 4 5 6 
#
# 1 0.012030 -0.004815 -0.002241 0.000000 0.000000 0.000000
# 2 -0.004815 0.012030 -0.002241 0.000000 0.000000 0.000000
# 3 -0.002241 -0.002241 0.033567 0.000000 0.000000 0.000000
# 4 0.000000 0.000000 0.000000 0.047697 0.000000 0.000000
# 5 0.000000 0.000000 0.000000 0.000000 0.047697 0.000000
# 6 0.000000 0.000000 0.000000 0.000000 0.000000 0.035889
#
#
# Mechanical properties :
#
#
# Convention : Reuss Voigt Hill
#
# Bulk Modulus (GPa) = 25.62095 39.88114 32.75105
# Shear Modulus (GPa) = 22.67425 25.50062 24.08744
#
# Velocity S-wave (km/s) = 2.95791 3.13685 3.04869
# Velocity P-wave (km/s) = 4.64240 5.33934 5.00302
#
# Compressibility (1/GPa) = 0.03903055
#
# Stress axis : x y z
#
# Youngs Moduli (GPa) = 83.12776 83.12776 29.79107
#
# Poissons Ratio (x) = 0.40029 0.06677
# Poissons Ratio (y) = 0.40029 0.06677
# Poissons Ratio (z) = 0.18631 0.18631
#
# Static dielectric constant tensor:
#      x y z
#    x 2.226350 0.000000 0.000000 
#    y 0.000000 2.226350 0.000000 
#    z 0.000000 0.000000 2.426850 
# 
# From -- ./inp_files/9979.got.cif
#   From: 2010.05.17/outbox.cif.g08.bks.cpg/sg142_5_cif.got.tgz:9979.got - 2010.05.20 13:39:18.
