data_PCOD9574136
_publ_section_title
;
Structure prediction by ZEFSAII (Michael W. Deem and Ramdas Pophale) SiO2 
 PCOD9574136
Probable space group: I 41/A C D
;
_chemical_formula_sum "Si O2"
_cell_formula_units_Z 136
_cell_length_a 24.665789
_cell_length_b 24.665789
_cell_length_c 11.159662
_cell_angle_alpha 90.000000
_cell_angle_beta 90.000000
_cell_angle_gamma 90.000000
_cell_volume 6789.551161
_symmetry_space_group_name_H-M "I 41/A C D"
_symmetry_group_IT_number 142
_space_group.IT_coordinate_system_code '2'
_symmetry_cell_setting 'tetragonal'
loop_
_space_group_symop_operation_xyz
x,y,z
1/4-y,3/4+x,1/4+z
-x,1/2-y,z
1/4+y,1/4-x,3/4+z
x,-y,1/2-z
1/2-x,y,-z
3/4+y,1/4+x,1/4-z
1/4-y,1/4-x,1/4-z
-x,-y,-z
3/4+y,1/4-x,3/4-z
x,1/2+y,-z
3/4-y,3/4+x,1/4-z
-x,y,1/2+z
1/2+x,-y,z
1/4-y,3/4-x,3/4+z
3/4+y,3/4+x,3/4+z
1/2+x,1/2+y,1/2+z
3/4-y,1/4+x,3/4+z
1/2-x,-y,1/2+z
3/4+y,3/4-x,1/4+z
1/2+x,1/2-y,-z
-x,1/2+y,1/2-z
1/4+y,3/4+x,3/4-z
3/4-y,3/4-x,3/4-z
1/2-x,1/2-y,1/2-z
1/4+y,3/4-x,1/4-z
1/2+x,y,1/2-z
1/4-y,1/4+x,3/4-z
1/2-x,1/2+y,z
x,1/2-y,1/2+z
3/4-y,1/4-x,1/4+z
1/4+y,1/4+x,1/4+z
loop_
_atom_site_type_symbol
_atom_site_label
_atom_site_fract_x
_atom_site_fract_y
_atom_site_fract_z
Si Si1 0.000000 0.250000 0.375000
Si Si2 0.429556 0.436948 0.156308
Si Si3 0.911723 0.173549 0.986157
Si Si4 0.204926 0.134016 0.151470
Si Si5 0.449382 0.955712 0.351452
O O1 0.965187 0.209058 0.295422
O O2 0.421112 0.380792 0.090322
O O3 0.382910 0.480601 0.123936
O O4 0.425341 0.431453 0.300120
O O5 0.486914 0.463173 0.117977
O O6 0.854029 0.198229 0.953620
O O7 0.910942 0.160942 0.125000
O O8 0.170550 0.079451 0.125000
O O9 0.202061 0.159627 0.284055
O O10 0.434111 0.000000 0.250000
#
# Coordination Sequence:
#
# PCOD9574136 Si02
#       5
#     8  32  32  32  32
#     4  12  26  44  64 102 148 198 216 284 350 428
#     4  11  24  42  68  98 133 183 226 288 344 419
#     4  12  26  43  66 103 146 181 232 282 352 418
#     4  11  23  43  70  96 131 176 234 284 352 414
#     4  12  24  41  69 100 134 180 234 286 342 414
#
# _framework density 20.03078
#
# number of rings (size 3 to 8) (size 9 to 14) (size 15 to 20)
#    0.000    0.471    7.059    2.471    3.294    0.000 
#    4.235    0.000    5.176    0.000    0.000    0.000 
#    0.000    0.000    0.000    0.000    0.000    0.000 
#
# Total GULP energy -379691.253328 kJ/mol
# GULP energy per Si atom -5583.694902 kJ/mol
# Density = 1.998519 g / cm^3
# Si number density = 20.030780 Si / 1000 Ang^3
#
#
#
# Elastic Constant Matrix: (Units=GPa)
#
#
# Indices 1 2 3 4 5 6 
#
# 1 124.3404 52.9842 47.2626 0.0000 0.0000 0.0000
# 2 52.9842 124.3416 47.2613 0.0000 0.0000 0.0000
# 3 47.2626 47.2613 96.2835 0.0000 0.0000 0.0000
# 4 0.0000 0.0000 0.0000 42.4013 0.0000 0.0000
# 5 0.0000 0.0000 0.0000 0.0000 42.4010 0.0000
# 6 0.0000 0.0000 0.0000 0.0000 0.0000 46.3586
#
#
#
# Elastic Compliance Matrix: (Units=1/GPa)
#
#
# Indices 1 2 3 4 5 6 
#
# 1 0.010826 -0.003188 -0.003749 0.000000 0.000000 0.000000
# 2 -0.003188 0.010826 -0.003749 0.000000 0.000000 0.000000
# 3 -0.003749 -0.003749 0.014067 0.000000 0.000000 0.000000
# 4 0.000000 0.000000 0.000000 0.023584 0.000000 0.000000
# 5 0.000000 0.000000 0.000000 0.000000 0.023584 0.000000
# 6 0.000000 0.000000 0.000000 0.000000 0.000000 0.021571
#
#
# Mechanical properties :
#
#
# Convention : Reuss Voigt Hill
#
# Bulk Modulus (GPa) = 69.70692 71.10908 70.40800
# Shear Modulus (GPa) = 38.28111 39.39601 38.83856
#
# Velocity S-wave (km/s) = 4.37637 4.43964 4.40812
# Velocity P-wave (km/s) = 7.77253 7.86496 7.81888
#
# Compressibility (1/GPa) = 0.01434578
#
# Stress axis : x y z
#
# Youngs Moduli (GPa) = 92.36943 92.37172 71.09032
#
# Poissons Ratio (x) = 0.29449 0.26654
# Poissons Ratio (y) = 0.29448 0.26652
# Poissons Ratio (z) = 0.34632 0.34630
#
# Static dielectric constant tensor:
#      x y z
#    x 1.701590 0.000000 0.000000 
#    y 0.000000 1.701590 0.000000 
#    z 0.000000 0.000000 1.743940 
# 
# From -- ./inp_files/3598.got.cif
#   From: 2010.05.17/outbox.cif.g08.bks.cpg/sg142_2_cif.got.tgz:3598.got - 2010.05.20 13:39:18.
