data_PCOD9574729
_publ_section_title
;
Structure prediction by ZEFSAII (Michael W. Deem and Ramdas Pophale) SiO2 
 PCOD9574729
Probable space group: R 3
;
_chemical_formula_sum "Si O2"
_cell_formula_units_Z 51
_cell_length_a 16.266142
_cell_length_b 16.266142
_cell_length_c 10.988663
_cell_angle_alpha 90.000000
_cell_angle_beta 90.000000
_cell_angle_gamma 120.000000
_cell_volume 2517.935523
_symmetry_space_group_name_H-M "R 3"
_symmetry_group_IT_number 146
_symmetry_cell_setting 'hexagonal'
loop_
_space_group_symop_operation_xyz
x,y,z
-y,x-y,z
-x+y,-x,z
2/3+x,1/3+y,1/3+z
2/3-y,1/3+x-y,1/3+z
2/3-x+y,1/3-x,1/3+z
1/3+x,2/3+y,2/3+z
1/3-y,2/3+x-y,2/3+z
1/3-x+y,2/3-x,2/3+z
loop_
_atom_site_type_symbol
_atom_site_label
_atom_site_fract_x
_atom_site_fract_y
_atom_site_fract_z
Si Si1 0.085605 0.181538 0.768450
Si Si2 0.333334 0.666668 0.117605
Si Si3 0.842319 0.412862 0.943566
Si Si4 0.133952 0.793207 0.083092
Si Si5 0.606535 0.857300 0.812501
Si Si6 0.815551 0.315301 0.369834
Si Si7 0.000000 0.000000 0.169796
O O1 0.123796 0.118855 0.700548
O O2 0.177540 0.282690 0.789142
O O3 0.003994 0.182112 0.684897
O O4 0.035455 0.145470 0.898943
O O5 0.434840 0.692751 0.169207
O O6 0.333334 0.666667 0.977015
O O7 0.933795 0.492966 0.874561
O O8 0.183490 0.906740 0.061105
O O9 0.021230 0.753612 0.097067
O O10 0.152590 0.749213 0.960335
O O11 0.553097 0.756596 0.741807
O O12 0.724377 0.285264 0.453756
#
# Coordination Sequence:
#
# PCOD9574729 Si02
#       7
#     9   3   9   9   9   9   3
#     4  10  23  42  67  92 132 172 229 266 334 407
#     4   9  21  37  62  91 123 168 220 263 337 399
#     4  10  21  42  64  95 128 176 217 280 329 402
#     4  11  24  42  67  99 137 172 223 276 347 399
#     4  11  24  43  63 102 132 174 221 281 336 404
#     4  11  23  39  67  93 125 174 221 268 330 406
#     4  12  18  37  62  88 117 168 217 260 319 387
#
# _framework density 20.25469
#
# number of rings (size 3 to 8) (size 9 to 14) (size 15 to 20)
#    0.000    1.412    1.765    3.529    2.471    2.824 
#    3.176    0.000    0.000    0.000    0.000    0.000 
#    0.000    0.000    0.000    0.000    0.000    0.000 
#
# Total GULP energy -94834.211340 kJ/mol
# GULP energy per Si atom -5578.483020 kJ/mol
# Density = 2.020859 g / cm^3
# Si number density = 20.254690 Si / 1000 Ang^3
#
#
#
# Elastic Constant Matrix: (Units=GPa)
#
#
# Indices 1 2 3 4 5 6 
#
# 1 60.4252 10.2224 40.9951 -9.3698 0.1428 -0.0003
# 2 10.2224 60.4254 40.9947 9.3699 -0.1421 -0.0003
# 3 40.9951 40.9947 164.2874 0.0001 0.0003 -0.0001
# 4 -9.3698 9.3699 0.0001 30.6613 -0.0001 -0.1423
# 5 0.1428 -0.1421 0.0003 -0.0001 30.6615 -9.3697
# 6 -0.0003 -0.0003 -0.0001 -0.1423 -9.3697 25.1012
#
#
#
# Elastic Compliance Matrix: (Units=1/GPa)
#
#
# Indices 1 2 3 4 5 6 
#
# 1 0.021205 -0.001280 -0.004972 0.006871 -0.000105 0.000000
# 2 -0.001280 0.021205 -0.004972 -0.006871 0.000104 0.000000
# 3 -0.004972 -0.004972 0.008568 0.000000 0.000000 0.000000
# 4 0.006871 -0.006871 0.000000 0.036815 0.000000 0.000209
# 5 -0.000105 0.000104 0.000000 0.000000 0.036814 0.013742
# 6 0.000000 0.000000 0.000000 0.000209 0.013742 0.044969
#
#
# Mechanical properties :
#
#
# Convention : Reuss Voigt Hill
#
# Bulk Modulus (GPa) = 35.05040 52.17360 43.61200
# Shear Modulus (GPa) = 24.80973 30.14652 27.47813
#
# Velocity S-wave (km/s) = 3.50364 3.86213 3.68724
# Velocity P-wave (km/s) = 5.80601 6.76038 6.30129
#
# Compressibility (1/GPa) = 0.02853034
#
# Stress axis : x y z
#
# Youngs Moduli (GPa) = 47.15909 47.15952 116.71093
#
# Poissons Ratio (x) = 0.06036 0.58028
# Poissons Ratio (y) = 0.06036 0.58027
# Poissons Ratio (z) = 0.23447 0.23447
#
# Static dielectric constant tensor:
#      x y z
#    x 1.749830 0.000000 0.000000 
#    y 0.000000 1.749840 0.000000 
#    z 0.000000 0.000000 1.730590 
# 
# From -- ./inp_files/1150.got.cif
#   From: 2010.05.17/outbox.cif.g08.bks.cpg/sg146_cif.got.tgz:1150.got - 2010.05.20 13:48:23.
