data_PCOD9574427
_publ_section_title
;
Structure prediction by ZEFSAII (Michael W. Deem and Ramdas Pophale) SiO2 
 PCOD9574427
Probable space group: P 31
;
_chemical_formula_sum "Si O2"
_cell_formula_units_Z 24
_cell_length_a 14.213928
_cell_length_b 14.213928
_cell_length_c 5.296023
_cell_angle_alpha 90.000000
_cell_angle_beta 90.000000
_cell_angle_gamma 120.000000
_cell_volume 926.635036
_symmetry_space_group_name_H-M "P 31"
_symmetry_group_IT_number 144
_symmetry_cell_setting 'hexagonal'
loop_
_space_group_symop_operation_xyz
x,y,z
-y,x-y,1/3+z
-x+y,-x,2/3+z
loop_
_atom_site_type_symbol
_atom_site_label
_atom_site_fract_x
_atom_site_fract_y
_atom_site_fract_z
Si Si1 0.586823 0.556407 0.763190
Si Si2 0.803742 0.008742 0.637319
Si Si3 0.818330 0.168912 0.991295
Si Si4 0.385616 0.369386 0.983026
Si Si5 0.226638 0.004918 0.021251
Si Si6 0.549901 0.250784 0.290878
Si Si7 0.420804 0.854409 0.727272
Si Si8 0.199000 0.701192 0.545166
O O1 0.668989 0.682822 0.833581
O O2 0.648229 0.488391 0.740018
O O3 0.511887 0.542804 0.524249
O O4 0.776035 0.562386 0.104048
O O5 0.825717 0.063325 0.909320
O O6 0.692497 0.004627 0.554005
O O7 0.904141 0.106232 0.478084
O O8 0.788618 0.889117 0.631836
O O9 0.719819 0.125686 0.186125
O O10 0.935377 0.240014 0.114857
O O11 0.497294 0.483987 0.976934
O O12 0.303540 0.390957 0.810994
O O13 0.632596 0.246905 0.493509
O O14 0.303571 0.812417 0.604675
O O15 0.477414 0.829517 0.494066
O O16 0.422827 0.786556 0.977767
#
# Coordination Sequence:
#
# PCOD9574427 Si02
#       8
#     3   3   3   3   3   3   3   3
#     4  11  25  48  69 118 151 203 265 335 403 493
#     4  11  25  49  75 107 158 204 266 335 405 489
#     4  11  26  47  75 112 149 205 267 331 410 495
#     4  10  25  44  71 106 155 200 255 331 414 479
#     4  11  27  47  76 114 147 205 274 327 410 484
#     4  12  27  48  80 110 161 211 262 331 419 503
#     4  11  24  43  74 108 159 204 281 332 406 493
#     4  11  23  44  70 107 148 216 256 334 405 484
#
# _framework density 25.900167
#
# number of rings (size 3 to 8) (size 9 to 14) (size 15 to 20)
#    0.000    1.000    1.250    3.750   10.500    3.000 
#    4.500    0.000    0.000    0.000    0.000    0.000 
#    0.000    0.000    0.000    0.000    0.000    0.000 
#
# Total GULP energy -133944.893758 kJ/mol
# GULP energy per Si atom -5581.037240 kJ/mol
# Density = 2.584122 g / cm^3
# Si number density = 25.900167 Si / 1000 Ang^3
#
#
#
# Elastic Constant Matrix: (Units=GPa)
#
#
# Indices 1 2 3 4 5 6 
#
# 1 148.4275 47.5213 59.5782 0.5435 1.2583 0.0000
# 2 47.5213 148.4275 59.5782 -0.5435 -1.2583 0.0000
# 3 59.5782 59.5782 114.1957 0.0000 0.0000 0.0000
# 4 0.5435 -0.5435 0.0000 40.2696 0.0000 -1.2583
# 5 1.2583 -1.2583 0.0000 0.0000 40.2696 0.5435
# 6 0.0000 0.0000 0.0000 -1.2583 0.5435 50.4531
#
#
#
# Elastic Compliance Matrix: (Units=1/GPa)
#
#
# Indices 1 2 3 4 5 6 
#
# 1 0.008697 -0.001222 -0.003900 -0.000134 -0.000310 0.000000
# 2 -0.001222 0.008697 -0.003900 0.000134 0.000310 0.000000
# 3 -0.003900 -0.003900 0.012826 0.000000 0.000000 0.000000
# 4 -0.000134 0.000134 0.000000 0.024856 0.000000 0.000620
# 5 -0.000310 0.000310 0.000000 0.000000 0.024856 -0.000268
# 6 0.000000 0.000000 0.000000 0.000620 -0.000268 0.019839
#
#
# Mechanical properties :
#
#
# Convention : Reuss Voigt Hill
#
# Bulk Modulus (GPa) = 82.12439 82.71179 82.41809
# Shear Modulus (GPa) = 41.02639 42.48998 41.75818
#
# Velocity S-wave (km/s) = 3.98429 4.05474 4.01967
# Velocity P-wave (km/s) = 7.27619 7.34339 7.30987
#
# Compressibility (1/GPa) = 0.01217665
#
# Stress axis : x y z
#
# Youngs Moduli (GPa) = 114.98093 114.98093 77.96613
#
# Poissons Ratio (x) = 0.14054 0.30405
# Poissons Ratio (y) = 0.14054 0.30405
# Poissons Ratio (z) = 0.44840 0.44840
#
# Static dielectric constant tensor:
#      x y z
#    x 2.173080 0.000000 0.000000 
#    y 0.000000 2.173080 0.000000 
#    z 0.000000 0.000000 2.093210 
# 
# From -- ./inp_files/151.got.cif
#   From: 2010.05.17/outbox.cif.g08.bks.cpg/sg144_cif.got.tgz:151.got - 2010.05.20 13:46:34.
