data_PCOD9574530
_publ_section_title
;
Structure prediction by ZEFSAII (Michael W. Deem and Ramdas Pophale) SiO2 
 PCOD9574530
Probable space group: P 32
;
_chemical_formula_sum "Si O2"
_cell_formula_units_Z 21
_cell_length_a 10.706778
_cell_length_b 10.706778
_cell_length_c 7.344066
_cell_angle_alpha 90.000000
_cell_angle_beta 90.000000
_cell_angle_gamma 120.000000
_cell_volume 729.096139
_symmetry_space_group_name_H-M "P 32"
_symmetry_group_IT_number 145
_symmetry_cell_setting 'hexagonal'
loop_
_space_group_symop_operation_xyz
x,y,z
-y,x-y,2/3+z
-x+y,-x,1/3+z
loop_
_atom_site_type_symbol
_atom_site_label
_atom_site_fract_x
_atom_site_fract_y
_atom_site_fract_z
Si Si1 0.966858 0.459438 0.267750
Si Si2 0.141412 0.903098 0.892593
Si Si3 0.751754 0.297584 0.733111
Si Si4 0.211107 0.206207 0.050260
Si Si5 0.889448 0.158581 0.096783
Si Si6 0.068427 0.470153 0.683602
Si Si7 0.224309 0.448540 0.226173
O O1 0.857594 0.524053 0.284598
O O2 0.887974 0.296668 0.179617
O O3 0.001632 0.443834 0.478594
O O4 0.124188 0.514485 0.173029
O O5 0.181249 0.868998 0.694048
O O6 0.974276 0.788706 0.903110
O O7 0.232716 0.867038 0.033243
O O8 0.189644 0.069204 0.929420
O O9 0.726777 0.391111 0.582828
O O10 0.919639 0.397411 0.791158
O O11 0.288302 0.186367 0.232903
O O12 0.269832 0.380272 0.061964
O O13 0.041612 0.164668 0.058745
O O14 0.185275 0.636745 0.681873
#
# Coordination Sequence:
#
# PCOD9574530 Si02
#       7
#     3   3   3   3   3   3   3
#     4   9  21  40  65  91 135 173 225 281 348 410
#     4  10  21  35  63  90 132 167 226 275 336 412
#     4  10  23  40  67 103 133 176 232 299 351 416
#     4  10  19  32  61  93 129 163 222 275 348 400
#     4  10  19  35  61  98 131 167 213 284 343 404
#     4  10  22  40  65  95 136 183 226 282 355 424
#     4   9  21  40  62  92 132 187 218 280 355 422
#
# _framework density 28.802785
#
# number of rings (size 3 to 8) (size 9 to 14) (size 15 to 20)
#    0.000    2.286    1.429    0.857    8.000    0.000 
#    0.000    0.000   12.571    5.143    0.000    0.000 
#    0.000    0.000    0.000    0.000    0.000    0.000 
#
# Total GULP energy -116982.095628 kJ/mol
# GULP energy per Si atom -5570.575982 kJ/mol
# Density = 2.873723 g / cm^3
# Si number density = 28.802785 Si / 1000 Ang^3
#
#
#
# Elastic Constant Matrix: (Units=GPa)
#
#
# Indices 1 2 3 4 5 6 
#
# 1 115.3693 39.0439 15.7656 17.0599 6.8493 0.0000
# 2 39.0439 115.3693 15.7656 -17.0599 -6.8493 0.0000
# 3 15.7656 15.7656 99.1835 0.0000 0.0000 0.0000
# 4 17.0599 -17.0599 0.0000 38.4627 0.0000 -6.8493
# 5 6.8493 -6.8493 0.0000 0.0000 38.4627 17.0599
# 6 0.0000 0.0000 0.0000 -6.8493 17.0599 38.1627
#
#
#
# Elastic Compliance Matrix: (Units=1/GPa)
#
#
# Indices 1 2 3 4 5 6 
#
# 1 0.011857 -0.005164 -0.001064 -0.007549 -0.003031 0.000000
# 2 -0.005164 0.011857 -0.001064 0.007549 0.003031 0.000000
# 3 -0.001064 -0.001064 0.010421 0.000000 0.000000 0.000000
# 4 -0.007549 0.007549 0.000000 0.033776 0.000000 0.006062
# 5 -0.003031 0.003031 0.000000 0.000000 0.033776 -0.015099
# 6 0.000000 0.000000 0.000000 0.006062 -0.015099 0.034041
#
#
# Mechanical properties :
#
#
# Convention : Reuss Voigt Hill
#
# Bulk Modulus (GPa) = 51.14681 52.34140 51.74411
# Shear Modulus (GPa) = 31.88227 40.30743 36.09485
#
# Velocity S-wave (km/s) = 3.33064 3.74495 3.54386
# Velocity P-wave (km/s) = 5.70851 6.07547 5.89485
#
# Compressibility (1/GPa) = 0.01955156
#
# Stress axis : x y z
#
# Youngs Moduli (GPa) = 84.33854 84.33854 95.96419
#
# Poissons Ratio (x) = 0.43549 0.10210
# Poissons Ratio (y) = 0.43549 0.10210
# Poissons Ratio (z) = 0.08973 0.08973
#
# Static dielectric constant tensor:
#      x y z
#    x 2.498540 0.000000 0.000000 
#    y 0.000000 2.498540 0.000000 
#    z 0.000000 0.000000 2.409900 
# 
# From -- ./inp_files/365.got.cif
#   From: 2010.05.17/outbox.cif.g08.bks.cpg/sg145_cif.got.tgz:365.got - 2010.05.20 13:47:28.
