data_PCOD9574408
_publ_section_title
;
Structure prediction by ZEFSAII (Michael W. Deem and Ramdas Pophale) SiO2 
 PCOD9574408
Probable space group: P 31
;
_chemical_formula_sum "Si O2"
_cell_formula_units_Z 24
_cell_length_a 14.977552
_cell_length_b 14.977552
_cell_length_c 5.663608
_cell_angle_alpha 90.000000
_cell_angle_beta 90.000000
_cell_angle_gamma 120.000000
_cell_volume 1100.285755
_symmetry_space_group_name_H-M "P 31"
_symmetry_group_IT_number 144
_symmetry_cell_setting 'hexagonal'
loop_
_space_group_symop_operation_xyz
x,y,z
-y,x-y,1/3+z
-x+y,-x,2/3+z
loop_
_atom_site_type_symbol
_atom_site_label
_atom_site_fract_x
_atom_site_fract_y
_atom_site_fract_z
Si Si1 0.227701 0.594045 0.517230
Si Si2 0.005360 0.679061 0.251124
Si Si3 0.530843 0.071319 0.748947
Si Si4 0.858741 0.187958 0.673389
Si Si5 0.710545 0.278045 0.632612
Si Si6 0.611976 0.810979 0.651469
Si Si7 0.304287 0.033579 0.841445
Si Si8 0.032892 0.604436 0.680147
O O1 0.294320 0.591741 0.735408
O O2 0.211716 0.499910 0.353336
O O3 0.118819 0.580544 0.578811
O O4 0.002101 0.570944 0.196527
O O5 0.924904 0.689818 0.084276
O O6 0.120223 0.775706 0.224288
O O7 0.973580 0.649101 0.522465
O O8 0.620860 0.187642 0.793312
O O9 0.421190 0.052247 0.828952
O O10 0.542810 0.043895 0.479253
O O11 0.804663 0.257894 0.650518
O O12 0.912203 0.204052 0.414943
O O13 0.929005 0.221122 0.912453
O O14 0.738096 0.389565 0.722721
O O15 0.685880 0.773510 0.545586
O O16 0.599307 0.893741 0.500549
#
# Coordination Sequence:
#
# PCOD9574408 Si02
#       8
#     3   3   3   3   3   3   3   3
#     4  12  23  37  59  99 147 184 230 271 337 414
#     4  10  24  45  69  96 137 184 231 287 360 414
#     4  10  24  39  62  99 134 182 227 286 334 413
#     4  11  28  46  70 100 140 181 233 298 349 414
#     4  11  22  38  63  92 136 180 230 270 343 409
#     4  11  26  40  68 100 135 188 230 288 349 423
#     4  12  27  47  69 105 138 182 239 291 352 410
#     4  11  24  40  68  97 141 185 232 283 342 423
#
# _framework density 21.812512999999999
#
# number of rings (size 3 to 8) (size 9 to 14) (size 15 to 20)
#    0.000    1.000    3.750    1.500   14.000    1.000 
#    0.000    0.000    0.000    1.500    0.000    0.000 
#    0.000    0.000    0.000    0.000    0.000    0.000 
#
# Total GULP energy -133696.459408 kJ/mol
# GULP energy per Si atom -5570.685809 kJ/mol
# Density = 2.176287 g / cm^3
# Si number density = 21.812513 Si / 1000 Ang^3
#
#
#
# Elastic Constant Matrix: (Units=GPa)
#
#
# Indices 1 2 3 4 5 6 
#
# 1 83.2062 35.8873 38.2755 0.8582 2.5337 0.0000
# 2 35.8873 83.2062 38.2755 -0.8582 -2.5337 0.0000
# 3 38.2755 38.2755 81.6044 0.0000 0.0000 0.0000
# 4 0.8582 -0.8582 0.0000 36.5198 0.0000 -2.5337
# 5 2.5337 -2.5337 0.0000 0.0000 36.5198 0.8582
# 6 0.0000 0.0000 0.0000 -2.5337 0.8582 23.6595
#
#
#
# Elastic Compliance Matrix: (Units=1/GPa)
#
#
# Indices 1 2 3 4 5 6 
#
# 1 0.016665 -0.004644 -0.005638 -0.000501 -0.001478 0.000000
# 2 -0.004644 0.016665 -0.005638 0.000501 0.001478 0.000000
# 3 -0.005638 -0.005638 0.017543 0.000000 0.000000 0.000000
# 4 -0.000501 0.000501 0.000000 0.027611 0.000000 0.002957
# 5 -0.001478 0.001478 0.000000 0.000000 0.027611 -0.001002
# 6 0.000000 0.000000 0.000000 0.002957 -0.001002 0.042619
#
#
# Mechanical properties :
#
#
# Convention : Reuss Voigt Hill
#
# Bulk Modulus (GPa) = 52.54266 52.54372 52.54319
# Shear Modulus (GPa) = 26.75207 28.37838 27.56522
#
# Velocity S-wave (km/s) = 3.50588 3.61087 3.55876
# Velocity P-wave (km/s) = 6.36623 6.44404 6.40525
#
# Compressibility (1/GPa) = 0.01903215
#
# Stress axis : x y z
#
# Youngs Moduli (GPa) = 60.00491 60.00491 57.00165
#
# Poissons Ratio (x) = 0.27869 0.32139
# Poissons Ratio (y) = 0.27869 0.32139
# Poissons Ratio (z) = 0.33832 0.33832
#
# Static dielectric constant tensor:
#      x y z
#    x 1.789960 0.000000 0.000000 
#    y 0.000000 1.789960 0.000000 
#    z 0.000000 0.000000 2.280830 
# 
# From -- ./inp_files/147.got.cif
#   From: 2010.05.17/outbox.cif.g08.bks.cpg/sg144_cif.got.tgz:147.got - 2010.05.20 13:46:34.
