data_PCOD9574751
_publ_section_title
;
Structure prediction by ZEFSAII (Michael W. Deem and Ramdas Pophale) SiO2 
 PCOD9574751
Probable space group: R 3
;
_chemical_formula_sum "Si O2"
_cell_formula_units_Z 45
_cell_length_a 21.010356
_cell_length_b 21.010356
_cell_length_c 5.216254
_cell_angle_alpha 90.000000
_cell_angle_beta 90.000000
_cell_angle_gamma 120.000000
_cell_volume 1994.142479
_symmetry_space_group_name_H-M "R 3"
_symmetry_group_IT_number 146
_symmetry_cell_setting 'hexagonal'
loop_
_space_group_symop_operation_xyz
x,y,z
-y,x-y,z
-x+y,-x,z
2/3+x,1/3+y,1/3+z
2/3-y,1/3+x-y,1/3+z
2/3-x+y,1/3-x,1/3+z
1/3+x,2/3+y,2/3+z
1/3-y,2/3+x-y,2/3+z
1/3-x+y,2/3-x,2/3+z
loop_
_atom_site_type_symbol
_atom_site_label
_atom_site_fract_x
_atom_site_fract_y
_atom_site_fract_z
Si Si1 0.325148 0.546389 0.810970
Si Si2 0.752825 0.979555 0.883029
Si Si3 0.097909 0.210056 0.485331
Si Si4 0.904354 0.848844 0.641606
Si Si5 0.980162 0.529298 0.933599
O O1 0.315231 0.465470 0.764033
O O2 0.287843 0.555817 0.556656
O O3 0.409603 0.584103 0.900789
O O4 0.285189 0.554321 0.057057
O O5 0.787433 0.949193 0.668573
O O6 0.746834 0.046752 0.768410
O O7 0.684863 0.909349 0.011019
O O8 0.137947 0.293350 0.388350
O O9 0.021882 0.170918 0.636810
O O10 0.886731 0.764855 0.608391
#
# Coordination Sequence:
#
# PCOD9574751 Si02
#       5
#     9   9   9   9   9
#     4  10  22  46  66  96 138 181 234 293 350 420
#     4  10  23  44  69 109 138 190 236 301 365 424
#     4  11  24  45  73 105 142 190 241 294 364 433
#     4  11  25  45  69 101 147 186 236 293 358 432
#     4  10  24  44  69 107 147 187 241 301 365 429
#
# _framework density 22.566092000000001
#
# number of rings (size 3 to 8) (size 9 to 14) (size 15 to 20)
#    0.000    1.600    4.000    0.000   11.200    1.600 
#    1.200    4.000    0.000    0.000    0.000    0.000 
#    0.000    0.000    0.000    0.000    0.000    0.000 
#
# Total GULP energy -83617.868836 kJ/mol
# GULP energy per Si atom -5574.524589 kJ/mol
# Density = 2.251473 g / cm^3
# Si number density = 22.566092 Si / 1000 Ang^3
#
#
#
# Elastic Constant Matrix: (Units=GPa)
#
#
# Indices 1 2 3 4 5 6 
#
# 1 101.0253 23.7507 30.3453 -5.2945 4.0159 0.0595
# 2 23.7507 100.7652 30.1929 5.4308 -3.7018 0.0110
# 3 30.3453 30.1929 144.9597 0.1907 0.3327 0.0743
# 4 -5.2945 5.4308 0.1907 28.9985 0.1286 -3.7452
# 5 4.0159 -3.7018 0.3327 0.1286 29.1450 -5.3191
# 6 0.0595 0.0110 0.0743 -3.7452 -5.3191 38.6025
#
#
#
# Elastic Compliance Matrix: (Units=1/GPa)
#
#
# Indices 1 2 3 4 5 6 
#
# 1 0.011199 -0.002281 -0.001868 0.002489 -0.001827 -0.000023
# 2 -0.002281 0.011220 -0.001860 -0.002513 0.001772 0.000004
# 3 -0.001868 -0.001860 0.007677 -0.000046 -0.000071 -0.000026
# 4 0.002489 -0.002513 -0.000046 0.035856 -0.000190 0.003449
# 5 -0.001827 0.001772 -0.000071 -0.000190 0.035684 0.004901
# 6 -0.000023 0.000004 -0.000026 0.003449 0.004901 0.026915
#
#
# Mechanical properties :
#
#
# Convention : Reuss Voigt Hill
#
# Bulk Modulus (GPa) = 55.31940 57.25866 56.28903
# Shear Modulus (GPa) = 34.10727 36.84661 35.47694
#
# Velocity S-wave (km/s) = 3.89194 4.04521 3.96932
# Velocity P-wave (km/s) = 6.69058 6.87366 6.78274
#
# Compressibility (1/GPa) = 0.01807684
#
# Stress axis : x y z
#
# Youngs Moduli (GPa) = 89.29311 89.12954 130.25508
#
# Poissons Ratio (x) = 0.20331 0.24336
# Poissons Ratio (y) = 0.20369 0.24229
# Poissons Ratio (z) = 0.16683 0.16579
#
# Static dielectric constant tensor:
#      x y z
#    x 1.869060 -0.000040 -0.000150 
#    y -0.000040 1.869110 0.000000 
#    z -0.000150 0.000000 1.963860 
# 
# From -- ./inp_files/265.got.cif
#   From: 2010.05.17/outbox.cif.g08.bks.cpg/sg146_cif.got.tgz:265.got - 2010.05.20 13:48:23.
