data_PCOD9574329
_publ_section_title
;
Structure prediction by ZEFSAII (Michael W. Deem and Ramdas Pophale) SiO2 
 PCOD9574329
Probable space group: P 31
;
_chemical_formula_sum "Si O2"
_cell_formula_units_Z 24
_cell_length_a 14.989675
_cell_length_b 14.989675
_cell_length_c 5.368662
_cell_angle_alpha 90.000000
_cell_angle_beta 90.000000
_cell_angle_gamma 120.000000
_cell_volume 1044.674822
_symmetry_space_group_name_H-M "P 31"
_symmetry_group_IT_number 144
_symmetry_cell_setting 'hexagonal'
loop_
_space_group_symop_operation_xyz
x,y,z
-y,x-y,1/3+z
-x+y,-x,2/3+z
loop_
_atom_site_type_symbol
_atom_site_label
_atom_site_fract_x
_atom_site_fract_y
_atom_site_fract_z
Si Si1 0.313900 0.422484 0.546560
Si Si2 0.550098 0.461638 0.953945
Si Si3 0.724966 0.443269 0.154449
Si Si4 0.102386 0.315322 0.307097
Si Si5 0.887316 0.934454 0.879166
Si Si6 0.027384 0.781136 0.597421
Si Si7 0.715359 0.098805 0.584110
Si Si8 0.528873 0.562652 0.459123
O O1 0.201023 0.398690 0.467412
O O2 0.295186 0.357530 0.800300
O O3 0.343937 0.358960 0.356092
O O4 0.410604 0.537074 0.508278
O O5 0.532734 0.492006 0.682268
O O6 0.657921 0.465381 0.956094
O O7 0.470707 0.347326 0.046678
O O8 0.544466 0.531582 0.179915
O O9 0.646889 0.391828 0.384925
O O10 0.825582 0.556376 0.146694
O O11 0.037835 0.212065 0.469672
O O12 0.053542 0.378259 0.188726
O O13 0.145100 0.270874 0.095691
O O14 0.837015 0.983248 0.062547
O O15 0.980029 0.925252 0.000228
O O16 0.923745 0.715784 0.758275
#
# Coordination Sequence:
#
# PCOD9574329 Si02
#       8
#     3   3   3   3   3   3   3   3
#     4   9  20  40  69  91 135 171 220 282 349 416
#     4  10  23  41  64  95 138 181 220 284 342 405
#     4  10  23  37  60  89 134 177 229 281 332 400
#     4  10  24  43  69 100 133 186 229 292 364 424
#     4  11  24  46  68  94 137 185 235 304 364 427
#     4  10  20  42  68  94 129 175 229 281 355 418
#     4   9  19  40  63  94 127 180 223 278 346 409
#     4  11  23  45  67  99 139 177 227 284 348 425
#
# _framework density 22.973655000000001
#
# number of rings (size 3 to 8) (size 9 to 14) (size 15 to 20)
#    0.000    2.000    1.250    0.750    8.750    0.000 
#   11.250    1.250    0.000    0.000    0.000    0.000 
#    0.000    0.000    0.000    0.000    0.000    0.000 
#
# Total GULP energy -133733.710825 kJ/mol
# GULP energy per Si atom -5572.237951 kJ/mol
# Density = 2.292137 g / cm^3
# Si number density = 22.973655 Si / 1000 Ang^3
#
#
#
# Elastic Constant Matrix: (Units=GPa)
#
#
# Indices 1 2 3 4 5 6 
#
# 1 81.4055 28.1267 18.6011 -5.3552 2.2730 0.0000
# 2 28.1267 81.4055 18.6011 5.3552 -2.2730 0.0000
# 3 18.6011 18.6011 87.1555 0.0000 0.0000 0.0000
# 4 -5.3552 5.3552 0.0000 30.0829 0.0000 -2.2730
# 5 2.2730 -2.2730 0.0000 0.0000 30.0829 -5.3552
# 6 0.0000 0.0000 0.0000 -2.2730 -5.3552 26.6394
#
#
#
# Elastic Compliance Matrix: (Units=1/GPa)
#
#
# Indices 1 2 3 4 5 6 
#
# 1 0.014720 -0.004877 -0.002101 0.003489 -0.001481 0.000000
# 2 -0.004877 0.014720 -0.002101 -0.003489 0.001481 0.000000
# 3 -0.002101 -0.002101 0.012370 0.000000 0.000000 0.000000
# 4 0.003489 -0.003489 0.000000 0.034707 0.000000 0.002961
# 5 -0.001481 0.001481 0.000000 0.000000 0.034707 0.006977
# 6 0.000000 0.000000 0.000000 0.002961 0.006977 0.039194
#
#
# Mechanical properties :
#
#
# Convention : Reuss Voigt Hill
#
# Bulk Modulus (GPa) = 42.27646 42.29159 42.28402
# Shear Modulus (GPa) = 28.33504 29.67020 29.00262
#
# Velocity S-wave (km/s) = 3.51575 3.59763 3.55692
# Velocity P-wave (km/s) = 5.90955 5.97544 5.94259
#
# Compressibility (1/GPa) = 0.02365383
#
# Stress axis : x y z
#
# Youngs Moduli (GPa) = 67.93467 67.93467 80.83770
#
# Poissons Ratio (x) = 0.33130 0.16982
# Poissons Ratio (y) = 0.33130 0.16982
# Poissons Ratio (z) = 0.14272 0.14272
#
# Static dielectric constant tensor:
#      x y z
#    x 1.914960 0.000000 0.000000 
#    y 0.000000 1.914960 0.000000 
#    z 0.000000 0.000000 1.960920 
# 
# From -- ./inp_files/120.got.cif
#   From: 2010.05.17/outbox.cif.g08.bks.cpg/sg144_cif.got.tgz:120.got - 2010.05.20 13:46:34.
