data_PCOD9574307
_publ_section_title
;
Structure prediction by ZEFSAII (Michael W. Deem and Ramdas Pophale) SiO2 
 PCOD9574307
Probable space group: P 31
;
_chemical_formula_sum "Si O2"
_cell_formula_units_Z 12
_cell_length_a 8.857783
_cell_length_b 8.857783
_cell_length_c 9.979023
_cell_angle_alpha 90.000000
_cell_angle_beta 90.000000
_cell_angle_gamma 120.000000
_cell_volume 678.060942
_symmetry_space_group_name_H-M "P 31"
_symmetry_group_IT_number 144
_symmetry_cell_setting 'hexagonal'
loop_
_space_group_symop_operation_xyz
x,y,z
-y,x-y,1/3+z
-x+y,-x,2/3+z
loop_
_atom_site_type_symbol
_atom_site_label
_atom_site_fract_x
_atom_site_fract_y
_atom_site_fract_z
Si Si1 0.791338 0.664199 0.341850
Si Si2 0.508957 0.508957 0.573958
Si Si3 0.208662 0.872862 0.139399
Si Si4 0.842127 0.842127 0.073958
O O1 0.642184 0.582765 0.451157
O O2 0.847959 0.527404 0.290536
O O3 0.748543 0.740112 0.209125
O O4 0.966910 0.828575 0.402340
O O5 0.320555 0.472596 0.524046
O O6 0.582765 0.642184 0.696759
O O7 0.033090 0.861665 0.078909
O O8 0.251458 0.991569 0.272124
#
# Coordination Sequence:
#
# PCOD9574307 Si02
#       4
#     3   3   3   3
#     4  10  20  36  55  79 106 138 176 216 258 309
#     4  10  22  36  54  80 108 134 174 222 262 302
#     4  10  20  36  55  79 106 138 176 216 258 309
#     4   8  18  36  56  74 104 148 178 196 254 334
#
# _framework density 17.697526
#
# number of rings (size 3 to 8) (size 9 to 14) (size 15 to 20)
#    0.000    3.000    0.000    3.000    0.000    8.000 
#    0.000    0.000    0.000    0.000    0.000    0.000 
#    0.000    0.000    0.000    0.000    0.000    0.000 
#
# Total GULP energy -66911.302603 kJ/mol
# GULP energy per Si atom -5575.941884 kJ/mol
# Density = 1.765725 g / cm^3
# Si number density = 17.697526 Si / 1000 Ang^3
#
#
#
# Elastic Constant Matrix: (Units=GPa)
#
#
# Indices 1 2 3 4 5 6 
#
# 1 75.5801 31.6574 80.1821 -9.6513 0.0000 0.0000
# 2 31.6574 75.5801 80.1821 9.6513 0.0000 0.0000
# 3 80.1821 80.1821 196.5059 0.0000 0.0000 0.0000
# 4 -9.6513 9.6513 0.0000 35.0843 0.0000 0.0000
# 5 0.0000 0.0000 0.0000 0.0000 35.0843 -9.6513
# 6 0.0000 0.0000 0.0000 0.0000 -9.6513 21.9614
#
#
#
# Elastic Compliance Matrix: (Units=1/GPa)
#
#
# Indices 1 2 3 4 5 6 
#
# 1 0.024910 -0.000988 -0.009761 0.007124 0.000000 0.000000
# 2 -0.000988 0.024910 -0.009761 -0.007124 0.000000 0.000000
# 3 -0.009761 -0.009761 0.013055 0.000000 0.000000 0.000000
# 4 0.007124 -0.007124 0.000000 0.032422 0.000000 0.000000
# 5 0.000000 0.000000 0.000000 0.000000 0.032422 0.014249
# 6 0.000000 0.000000 0.000000 0.000000 0.014249 0.051796
#
#
# Mechanical properties :
#
#
# Convention : Reuss Voigt Hill
#
# Bulk Modulus (GPa) = 45.75771 81.30103 63.52937
# Shear Modulus (GPa) = 21.94706 28.80232 25.37469
#
# Velocity S-wave (km/s) = 3.52535 4.03858 3.79066
# Velocity P-wave (km/s) = 6.51785 8.23321 7.42523
#
# Compressibility (1/GPa) = 0.02185424
#
# Stress axis : x y z
#
# Youngs Moduli (GPa) = 40.14448 40.14448 76.60068
#
# Poissons Ratio (x) = 0.03967 0.74771
# Poissons Ratio (y) = 0.03967 0.74771
# Poissons Ratio (z) = 0.39185 0.39185
#
# Static dielectric constant tensor:
#      x y z
#    x 1.598830 0.000000 0.000000 
#    y 0.000000 1.598830 0.000000 
#    z 0.000000 0.000000 1.606180 
# 
# From -- ./inp_files/197.got.cif
#   From: 2010.05.17/outbox.cif.g08.bks.cpg/sg144_cif.got.tgz:197.got - 2010.05.20 13:46:34.
