data_PCOD9574868
_publ_section_title
;
Structure prediction by ZEFSAII (Michael W. Deem and Ramdas Pophale) SiO2 
 PCOD9574868
Probable space group: P -3
;
_chemical_formula_sum "Si O2"
_cell_formula_units_Z 34
_cell_length_a 13.412398
_cell_length_b 13.412398
_cell_length_c 12.579115
_cell_angle_alpha 90.000000
_cell_angle_beta 90.000000
_cell_angle_gamma 120.000000
_cell_volume 1959.718009
_symmetry_space_group_name_H-M "P -3"
_symmetry_group_IT_number 147
_symmetry_cell_setting 'hexagonal'
loop_
_space_group_symop_operation_xyz
x,y,z
-y,x-y,z
-x+y,-x,z
-x,-y,-z
y,-x+y,-z
x-y,x,-z
loop_
_atom_site_type_symbol
_atom_site_label
_atom_site_fract_x
_atom_site_fract_y
_atom_site_fract_z
Si Si1 0.865483 0.134521 0.499997
Si Si2 0.133675 0.710099 0.305582
Si Si3 0.333333 0.666666 0.628106
Si Si4 0.135379 0.865547 0.125488
Si Si5 0.423577 0.289901 0.305579
Si Si6 0.666667 0.333334 0.628105
Si Si7 0.269833 0.134454 0.125485
O O1 0.855432 0.204552 0.598836
O O2 0.795454 0.144571 0.401157
O O3 0.000002 0.190286 0.473736
O O4 0.163326 0.785082 0.198398
O O5 0.218330 0.662267 0.330107
O O6 0.999999 0.611622 0.300334
O O7 0.443938 0.662268 0.669894
O O8 0.333334 0.666667 0.500001
O O9 1.000000 0.822044 0.144001
O O10 0.212006 0.000001 0.152592
O O11 0.148582 0.851418 0.000001
O O12 0.378246 0.214920 0.198393
#
# Coordination Sequence:
#
# PCOD9574868 Si02
#       7
#     6   6   2   6   6   2   6
#     4  10  19  32  52  80 113 144 176 222 278 328
#     4  10  22  37  55  81 110 141 185 233 277 327
#     4  12  24  42  61  80 103 147 192 232 281 343
#     4   9  17  32  56  86 119 153 187 225 273 330
#     4  10  22  37  55  81 110 141 185 233 277 327
#     4  12  24  42  61  80 103 147 192 232 281 343
#     4   9  17  32  56  86 119 153 187 225 273 330
#
# _framework density 17.349433999999999
#
# number of rings (size 3 to 8) (size 9 to 14) (size 15 to 20)
#    0.000    2.118    1.765    1.588    0.000    4.941 
#    0.000    5.294    0.000    6.353    0.000    0.000 
#    0.000    0.000    0.000    0.000    0.000    0.000 
#
# Total GULP energy -189780.428739 kJ/mol
# GULP energy per Si atom -5581.777316 kJ/mol
# Density = 1.730995 g / cm^3
# Si number density = 17.349434 Si / 1000 Ang^3
#
#
#
# Elastic Constant Matrix: (Units=GPa)
#
#
# Indices 1 2 3 4 5 6 
#
# 1 89.4408 52.4887 35.6440 0.0005 5.6033 0.0000
# 2 52.4887 89.4392 35.6432 -0.0003 -5.6028 -0.0001
# 3 35.6440 35.6432 62.9497 0.0000 -0.0004 0.0000
# 4 0.0005 -0.0003 0.0000 17.4887 -0.0002 -5.6036
# 5 5.6033 -5.6028 -0.0004 -0.0002 17.4898 0.0002
# 6 0.0000 -0.0001 0.0000 -5.6036 0.0002 18.4752
#
#
#
# Elastic Compliance Matrix: (Units=1/GPa)
#
#
# Indices 1 2 3 4 5 6 
#
# 1 0.019910 -0.010064 -0.005575 -0.000001 -0.009603 0.000000
# 2 -0.010064 0.019910 -0.005575 0.000001 0.009603 0.000000
# 3 -0.005575 -0.005575 0.022199 0.000000 0.000001 0.000000
# 4 -0.000001 0.000001 0.000000 0.063335 0.000001 0.019210
# 5 -0.009603 0.009603 0.000001 0.000001 0.063329 0.000000
# 6 0.000000 0.000000 0.000000 0.019210 0.000000 0.059953
#
#
# Mechanical properties :
#
#
# Convention : Reuss Voigt Hill
#
# Bulk Modulus (GPa) = 51.04389 54.37572 52.70981
# Shear Modulus (GPa) = 16.80128 18.56098 17.68113
#
# Velocity S-wave (km/s) = 3.11530 3.27438 3.19583
# Velocity P-wave (km/s) = 6.51345 6.76054 6.63815
#
# Compressibility (1/GPa) = 0.01959098
#
# Stress axis : x y z
#
# Youngs Moduli (GPa) = 50.22490 50.22487 45.04680
#
# Poissons Ratio (x) = 0.50549 0.25115
# Poissons Ratio (y) = 0.50549 0.25113
# Poissons Ratio (z) = 0.28002 0.27999
#
# Static dielectric constant tensor:
#      x y z
#    x 1.564840 0.000000 0.000000 
#    y 0.000000 1.564840 0.000000 
#    z 0.000000 0.000000 1.589830 
# 
# From -- ./inp_files/949.got.cif
#   From: 2010.05.17/outbox.cif.g08.bks.cpg/sg147_cif.got.tgz:949.got - 2010.05.20 13:49:32.
