data_PCOD9574948
_publ_section_title
;
Structure prediction by ZEFSAII (Michael W. Deem and Ramdas Pophale) SiO2 
 PCOD9574948
Probable space group: P -3
;
_chemical_formula_sum "Si O2"
_cell_formula_units_Z 34
_cell_length_a 13.911780
_cell_length_b 13.911780
_cell_length_c 9.759187
_cell_angle_alpha 90.000000
_cell_angle_beta 90.000000
_cell_angle_gamma 120.000000
_cell_volume 1635.722674
_symmetry_space_group_name_H-M "P -3"
_symmetry_group_IT_number 147
_symmetry_cell_setting 'hexagonal'
loop_
_space_group_symop_operation_xyz
x,y,z
-y,x-y,z
-x+y,-x,z
-x,-y,-z
y,-x+y,-z
x-y,x,-z
loop_
_atom_site_type_symbol
_atom_site_label
_atom_site_fract_x
_atom_site_fract_y
_atom_site_fract_z
Si Si1 0.190461 0.253111 0.019036
Si Si2 0.245382 0.462924 0.162663
Si Si3 0.333335 0.666668 0.979580
Si Si4 0.666668 0.333334 0.350308
Si Si5 0.235664 0.774665 0.462943
Si Si6 0.998744 0.414953 0.112632
Si Si7 0.395987 0.413267 0.586925
O O1 0.224984 0.337611 0.149233
O O2 0.212672 0.149419 0.023661
O O3 0.283789 0.343198 0.918581
O O4 0.317791 0.552850 0.046451
O O5 0.285755 0.508294 0.315557
O O6 0.125901 0.448589 0.134442
O O7 0.333334 0.666667 0.814575
O O8 0.692322 0.244592 0.423219
O O9 0.297255 0.902886 0.422681
O O10 0.114957 0.717779 0.528076
O O11 0.955308 0.421168 0.261378
O O12 0.000000 0.500000 0.000000
O O13 0.500000 0.500000 0.500000
#
# Coordination Sequence:
#
# PCOD9574948 Si02
#       7
#     6   6   2   2   6   6   6
#     4  10  22  41  66  96 130 173 224 275 326 384
#     4  10  23  39  62  90 130 177 208 264 342 391
#     4  12  25  38  64  99 133 176 205 282 343 380
#     4  12  25  38  64  99 130 161 229 273 316 413
#     4  11  24  44  62  96 132 174 220 263 336 396
#     4  10  23  40  62  96 131 163 219 268 329 397
#     4  11  25  41  67  93 130 177 215 272 326 391
#
# _framework density 20.785920000000001
#
# number of rings (size 3 to 8) (size 9 to 14) (size 15 to 20)
#    0.000    1.412    1.765    2.294    9.882    1.412 
#    0.000    0.000    0.000    0.353    0.000    0.000 
#    0.000    0.000    0.000    0.000    0.000    0.000 
#
# Total GULP energy -189507.121576 kJ/mol
# GULP energy per Si atom -5573.738870 kJ/mol
# Density = 2.073861 g / cm^3
# Si number density = 20.785920 Si / 1000 Ang^3
#
#
#
# Elastic Constant Matrix: (Units=GPa)
#
#
# Indices 1 2 3 4 5 6 
#
# 1 119.3724 46.8557 50.4664 -3.0575 5.1903 0.0001
# 2 46.8557 119.3732 50.4662 3.0577 -5.1900 0.0001
# 3 50.4664 50.4662 176.4094 0.0002 0.0000 0.0004
# 4 -3.0575 3.0577 0.0002 24.1759 0.0001 -5.1901
# 5 5.1903 -5.1900 0.0000 0.0001 24.1758 -3.0575
# 6 0.0001 0.0001 0.0004 -5.1901 -3.0575 36.2585
#
#
#
# Elastic Compliance Matrix: (Units=1/GPa)
#
#
# Indices 1 2 3 4 5 6 
#
# 1 0.010833 -0.003552 -0.002083 0.001819 -0.003088 0.000000
# 2 -0.003552 0.010833 -0.002083 -0.001819 0.003088 0.000000
# 3 -0.002083 -0.002083 0.006860 0.000000 0.000000 0.000000
# 4 0.001819 -0.001819 0.000000 0.043150 0.000000 0.006177
# 5 -0.003088 0.003088 0.000000 0.000000 0.043150 0.003639
# 6 0.000000 0.000000 0.000000 0.006177 0.003639 0.028771
#
#
# Mechanical properties :
#
#
# Convention : Reuss Voigt Hill
#
# Bulk Modulus (GPa) = 76.39326 78.97018 77.68172
# Shear Modulus (GPa) = 30.60058 34.74649 32.67353
#
# Velocity S-wave (km/s) = 3.84106 4.09300 3.96903
# Velocity P-wave (km/s) = 7.51690 7.77248 7.64576
#
# Compressibility (1/GPa) = 0.01309016
#
# Stress axis : x y z
#
# Youngs Moduli (GPa) = 92.31101 92.31184 145.76671
#
# Poissons Ratio (x) = 0.32793 0.30360
# Poissons Ratio (y) = 0.32793 0.30359
# Poissons Ratio (z) = 0.19226 0.19226
#
# Static dielectric constant tensor:
#      x y z
#    x 1.808340 0.000000 0.000000 
#    y 0.000000 1.808340 0.000000 
#    z 0.000000 0.000000 1.814540 
# 
# From -- ./inp_files/562.got.cif
#   From: 2010.05.17/outbox.cif.g08.bks.cpg/sg147_cif.got.tgz:562.got - 2010.05.20 13:49:32.
