data_PCOD9574290
_publ_section_title
;
Structure prediction by ZEFSAII (Michael W. Deem and Ramdas Pophale) SiO2 
 PCOD9574290
Probable space group: P 31
;
_chemical_formula_sum "Si O2"
_cell_formula_units_Z 21
_cell_length_a 9.371739
_cell_length_b 9.371739
_cell_length_c 11.620554
_cell_angle_alpha 90.000000
_cell_angle_beta 90.000000
_cell_angle_gamma 120.000000
_cell_volume 883.889216
_symmetry_space_group_name_H-M "P 31"
_symmetry_group_IT_number 144
_symmetry_cell_setting 'hexagonal'
loop_
_space_group_symop_operation_xyz
x,y,z
-y,x-y,1/3+z
-x+y,-x,2/3+z
loop_
_atom_site_type_symbol
_atom_site_label
_atom_site_fract_x
_atom_site_fract_y
_atom_site_fract_z
Si Si1 0.454587 0.416258 0.931440
Si Si2 0.336295 0.366802 0.680893
Si Si3 0.161755 0.775746 0.114914
Si Si4 0.749039 0.209891 0.707872
Si Si5 0.679990 0.642744 0.607617
Si Si6 0.401325 0.105290 0.620044
Si Si7 0.524016 0.737763 0.400515
O O1 0.378892 0.432368 0.809879
O O2 0.389827 0.220379 0.933785
O O3 0.653673 0.510902 0.944834
O O4 0.373222 0.465880 0.035136
O O5 0.219470 0.383358 0.587580
O O6 0.513043 0.467592 0.617105
O O7 0.291732 0.178080 0.670807
O O8 0.235241 0.656740 0.081685
O O9 0.976996 0.691429 0.058891
O O10 0.260657 0.951060 0.056661
O O11 0.564445 0.177626 0.697434
O O12 0.836339 0.294849 0.825685
O O13 0.634741 0.735509 0.507577
O O14 0.306407 0.910599 0.627337
#
# Coordination Sequence:
#
# PCOD9574290 Si02
#       7
#     3   3   3   3   3   3   3
#     4  12  24  41  71 103 130 170 233 280 328 401
#     4  10  21  42  68  93 134 177 220 269 340 401
#     4   9  23  45  68  93 139 179 216 271 346 397
#     4  10  21  36  73  95 122 176 229 269 317 412
#     4  11  23  44  70  99 133 174 226 280 330 402
#     4  10  18  41  62  97 128 170 216 274 332 389
#     4  10  24  41  64  94 138 172 212 275 337 392
#
# _framework density 23.758634000000001
#
# number of rings (size 3 to 8) (size 9 to 14) (size 15 to 20)
#    0.000    1.714    2.857    1.714    4.000    2.286 
#    7.714    0.000    0.000    0.000    0.000    0.000 
#    0.000    0.000    0.000    0.000    0.000    0.000 
#
# Total GULP energy -117249.587536 kJ/mol
# GULP energy per Si atom -5583.313692 kJ/mol
# Density = 2.370456 g / cm^3
# Si number density = 23.758634 Si / 1000 Ang^3
#
#
#
# Elastic Constant Matrix: (Units=GPa)
#
#
# Indices 1 2 3 4 5 6 
#
# 1 95.6504 34.3387 30.4572 12.9253 -3.2799 0.0000
# 2 34.3387 95.6504 30.4572 -12.9253 3.2799 0.0000
# 3 30.4572 30.4572 111.1136 0.0000 0.0000 0.0000
# 4 12.9253 -12.9253 0.0000 27.2037 0.0000 3.2799
# 5 -3.2799 3.2799 0.0000 0.0000 27.2037 12.9253
# 6 0.0000 0.0000 0.0000 3.2799 12.9253 30.6558
#
#
#
# Elastic Compliance Matrix: (Units=1/GPa)
#
#
# Indices 1 2 3 4 5 6 
#
# 1 0.014779 -0.005952 -0.002419 -0.009850 0.002499 0.000000
# 2 -0.005952 0.014779 -0.002419 0.009850 -0.002499 0.000000
# 3 -0.002419 -0.002419 0.010326 0.000000 0.000000 0.000000
# 4 -0.009850 0.009850 0.000000 0.046722 0.000000 -0.004999
# 5 0.002499 -0.002499 0.000000 0.000000 0.046722 -0.019699
# 6 0.000000 0.000000 0.000000 -0.004999 -0.019699 0.041461
#
#
# Mechanical properties :
#
#
# Convention : Reuss Voigt Hill
#
# Bulk Modulus (GPa) = 54.63958 54.76896 54.70427
# Shear Modulus (GPa) = 24.69496 30.82340 27.75918
#
# Velocity S-wave (km/s) = 3.22749 3.60579 3.42187
# Velocity P-wave (km/s) = 6.07755 6.35908 6.21991
#
# Compressibility (1/GPa) = 0.01830175
#
# Stress axis : x y z
#
# Youngs Moduli (GPa) = 67.66555 67.66555 96.84101
#
# Poissons Ratio (x) = 0.40273 0.23431
# Poissons Ratio (y) = 0.40273 0.23431
# Poissons Ratio (z) = 0.16372 0.16372
#
# Static dielectric constant tensor:
#      x y z
#    x 1.914740 0.000000 0.000000 
#    y 0.000000 1.914740 0.000000 
#    z 0.000000 0.000000 1.997070 
# 
# From -- ./inp_files/612.got.cif
#   From: 2010.05.17/outbox.cif.g08.bks.cpg/sg144_cif.got.tgz:612.got - 2010.05.20 13:46:34.
