data_PCOD9574434
_publ_section_title
;
Structure prediction by ZEFSAII (Michael W. Deem and Ramdas Pophale) SiO2 
 PCOD9574434
Probable space group: P 31
;
_chemical_formula_sum "Si O2"
_cell_formula_units_Z 21
_cell_length_a 9.163526
_cell_length_b 9.163526
_cell_length_c 12.159930
_cell_angle_alpha 90.000000
_cell_angle_beta 90.000000
_cell_angle_gamma 120.000000
_cell_volume 884.274170
_symmetry_space_group_name_H-M "P 31"
_symmetry_group_IT_number 144
_symmetry_cell_setting 'hexagonal'
loop_
_space_group_symop_operation_xyz
x,y,z
-y,x-y,1/3+z
-x+y,-x,2/3+z
loop_
_atom_site_type_symbol
_atom_site_label
_atom_site_fract_x
_atom_site_fract_y
_atom_site_fract_z
Si Si1 0.611133 0.688836 0.355010
Si Si2 0.847284 0.282278 0.208162
Si Si3 0.640611 0.515643 0.950816
Si Si4 0.074094 0.099662 0.888025
Si Si5 0.538176 0.646651 0.737259
Si Si6 0.804011 0.017279 0.697542
Si Si7 0.429196 0.600949 0.121583
O O1 0.639344 0.556401 0.422953
O O2 0.789980 0.841457 0.314855
O O3 0.497858 0.628560 0.245361
O O4 0.533749 0.767507 0.439486
O O5 0.672532 0.257256 0.249658
O O6 0.986743 0.394934 0.298720
O O7 0.818434 0.091741 0.199996
O O8 0.607551 0.599285 0.844385
O O9 0.830904 0.614200 0.989882
O O10 0.530639 0.537598 0.046552
O O11 0.947763 0.082447 0.791753
O O12 0.026165 0.916657 0.931074
O O13 0.336187 0.562483 0.745866
O O14 0.635093 0.850490 0.734070
#
# Coordination Sequence:
#
# PCOD9574434 Si02
#       7
#     3   3   3   3   3   3   3
#     4  12  24  44  78 117 156 210 274 327 408 480
#     4  11  26  46  73 112 164 206 262 339 407 480
#     4  12  25  49  78 115 159 210 275 341 408 481
#     4  11  20  39  73 111 145 206 266 315 386 493
#     4  11  26  49  75 114 165 208 266 339 407 485
#     4  11  23  43  74 113 156 207 266 324 406 481
#     4  12  24  46  81 116 153 213 273 337 396 492
#
# _framework density 23.748290999999998
#
# number of rings (size 3 to 8) (size 9 to 14) (size 15 to 20)
#    0.000    0.571    7.143    0.857    0.000    0.000 
#    5.143    0.000    0.000    0.000    0.000    0.000 
#    0.000    0.000    0.000    0.000    0.000    0.000 
#
# Total GULP energy -117686.519735 kJ/mol
# GULP energy per Si atom -5604.119987 kJ/mol
# Density = 2.369424 g / cm^3
# Si number density = 23.748291 Si / 1000 Ang^3
#
#
#
# Elastic Constant Matrix: (Units=GPa)
#
#
# Indices 1 2 3 4 5 6 
#
# 1 110.6457 49.4235 58.4721 -9.0473 3.0664 0.0000
# 2 49.4235 110.6457 58.4721 9.0473 -3.0664 0.0000
# 3 58.4721 58.4721 127.1388 0.0000 0.0000 0.0000
# 4 -9.0473 9.0473 0.0000 37.3923 0.0000 -3.0664
# 5 3.0664 -3.0664 0.0000 0.0000 37.3923 -9.0473
# 6 0.0000 0.0000 0.0000 -3.0664 -9.0473 30.6111
#
#
#
# Elastic Compliance Matrix: (Units=1/GPa)
#
#
# Indices 1 2 3 4 5 6 
#
# 1 0.013579 -0.004170 -0.004327 0.004294 -0.001456 0.000000
# 2 -0.004170 0.013579 -0.004327 -0.004294 0.001456 0.000000
# 3 -0.004327 -0.004327 0.011846 0.000000 0.000000 0.000000
# 4 0.004294 -0.004294 0.000000 0.029060 0.000000 0.002911
# 5 -0.001456 0.001456 0.000000 0.000000 0.029060 0.008589
# 6 0.000000 0.000000 0.000000 0.002911 0.008589 0.035498
#
#
# Mechanical properties :
#
#
# Convention : Reuss Voigt Hill
#
# Bulk Modulus (GPa) = 74.88172 75.68508 75.28340
# Shear Modulus (GPa) = 30.72722 33.21664 31.97193
#
# Velocity S-wave (km/s) = 3.60094 3.74397 3.67315
# Velocity P-wave (km/s) = 6.99206 7.11538 7.05399
#
# Compressibility (1/GPa) = 0.01335439
#
# Stress axis : x y z
#
# Youngs Moduli (GPa) = 73.64414 73.64414 84.41996
#
# Poissons Ratio (x) = 0.30711 0.36529
# Poissons Ratio (y) = 0.30711 0.36529
# Poissons Ratio (z) = 0.31866 0.31866
#
# Static dielectric constant tensor:
#      x y z
#    x 1.899620 0.000000 0.000000 
#    y 0.000000 1.899620 0.000000 
#    z 0.000000 0.000000 1.872320 
# 
# From -- ./inp_files/614.got.cif
#   From: 2010.05.17/outbox.cif.g08.bks.cpg/sg144_cif.got.tgz:614.got - 2010.05.20 13:46:34.
