data_PCOD9574034
_publ_section_title
;
Structure prediction by ZEFSAII (Michael W. Deem and Ramdas Pophale) SiO2 
 PCOD9574034
Probable space group: I 41/A C D
;
_chemical_formula_sum "Si O2"
_cell_formula_units_Z 160
_cell_length_a 28.151138
_cell_length_b 28.151138
_cell_length_c 8.843560
_cell_angle_alpha 90.000000
_cell_angle_beta 90.000000
_cell_angle_gamma 90.000000
_cell_volume 7008.402537
_symmetry_space_group_name_H-M "I 41/A C D"
_symmetry_group_IT_number 142
_space_group.IT_coordinate_system_code '2'
_symmetry_cell_setting 'tetragonal'
loop_
_space_group_symop_operation_xyz
x,y,z
1/4-y,3/4+x,1/4+z
-x,1/2-y,z
1/4+y,1/4-x,3/4+z
x,-y,1/2-z
1/2-x,y,-z
3/4+y,1/4+x,1/4-z
1/4-y,1/4-x,1/4-z
-x,-y,-z
3/4+y,1/4-x,3/4-z
x,1/2+y,-z
3/4-y,3/4+x,1/4-z
-x,y,1/2+z
1/2+x,-y,z
1/4-y,3/4-x,3/4+z
3/4+y,3/4+x,3/4+z
1/2+x,1/2+y,1/2+z
3/4-y,1/4+x,3/4+z
1/2-x,-y,1/2+z
3/4+y,3/4-x,1/4+z
1/2+x,1/2-y,-z
-x,1/2+y,1/2-z
1/4+y,3/4+x,3/4-z
3/4-y,3/4-x,3/4-z
1/2-x,1/2-y,1/2-z
1/4+y,3/4-x,1/4-z
1/2+x,y,1/2-z
1/4-y,1/4+x,3/4-z
1/2-x,1/2+y,z
x,1/2-y,1/2+z
3/4-y,1/4-x,1/4+z
1/4+y,1/4+x,1/4+z
loop_
_atom_site_type_symbol
_atom_site_label
_atom_site_fract_x
_atom_site_fract_y
_atom_site_fract_z
Si Si1 0.393083 0.356918 0.875000
Si Si2 0.712540 0.962540 0.625000
Si Si3 0.802024 0.624716 0.679387
Si Si4 0.942461 0.717693 0.037958
Si Si5 0.561241 0.961074 0.046674
Si Si6 0.518417 0.000000 0.750000
Si Si7 0.352354 0.897647 0.625000
O O1 0.347399 0.354225 0.767530
O O2 0.437277 0.353387 0.757193
O O3 0.750000 0.970037 0.500000
O O4 0.661949 0.968190 0.549608
O O5 0.759645 0.661243 0.656489
O O6 0.820025 0.597928 0.527089
O O7 0.939378 0.770472 0.104123
O O8 0.967076 0.717076 0.875000
O O9 0.594654 0.915158 0.075627
O O10 0.514047 0.964226 0.149245
O O11 0.548180 0.969810 0.871638
#
# Coordination Sequence:
#
# PCOD9574034 Si02
#       7
#    16  16  32  32  32  16  16
#     4   9  24  39  58 100 140 190 242 311 389 460
#     4  11  26  43  72 109 146 197 236 295 368 434
#     4  11  24  46  67 104 152 193 245 311 370 441
#     4   9  17  36  62  91 128 180 245 323 384 453
#     4  11  24  47  77 109 147 206 244 310 371 458
#     4  10  24  48  74 110 154 204 246 296 388 450
#     4  12  24  45  80 109 142 195 262 308 363 443
#
# _framework density 22.829739
#
# number of rings (size 3 to 8) (size 9 to 14) (size 15 to 20)
#    0.600    1.000    2.000    2.400    7.000    3.200 
#    7.200    0.000    0.000    0.000    0.000    0.000 
#    0.000    2.400    0.000    0.000    0.000    0.000 
#
# Total GULP energy -446010.036342 kJ/mol
# GULP energy per Si atom -5575.125454 kJ/mol
# Density = 2.277778 g / cm^3
# Si number density = 22.829739 Si / 1000 Ang^3
#
#
#
# Elastic Constant Matrix: (Units=GPa)
#
#
# Indices 1 2 3 4 5 6 
#
# 1 180.0517 -57.3670 45.8806 0.0000 0.0000 0.0000
# 2 -57.3670 180.0446 45.8838 0.0000 0.0000 0.0000
# 3 45.8806 45.8838 176.3677 0.0000 0.0000 0.0000
# 4 0.0000 0.0000 0.0000 64.1962 0.0000 0.0000
# 5 0.0000 0.0000 0.0000 0.0000 64.1954 0.0000
# 6 0.0000 0.0000 0.0000 0.0000 0.0000 112.8797
#
#
#
# Elastic Compliance Matrix: (Units=1/GPa)
#
#
# Indices 1 2 3 4 5 6 
#
# 1 0.007166 0.002954 -0.002633 0.000000 0.000000 0.000000
# 2 0.002954 0.007166 -0.002633 0.000000 0.000000 0.000000
# 3 -0.002633 -0.002633 0.007040 0.000000 0.000000 0.000000
# 4 0.000000 0.000000 0.000000 0.015577 0.000000 0.000000
# 5 0.000000 0.000000 0.000000 0.000000 0.015577 0.000000
# 6 0.000000 0.000000 0.000000 0.000000 0.000000 0.008859
#
#
# Mechanical properties :
#
#
# Convention : Reuss Voigt Hill
#
# Bulk Modulus (GPa) = 59.70321 67.25096 63.47708
# Shear Modulus (GPa) = 69.83993 81.72537 75.78265
#
# Velocity S-wave (km/s) = 5.53697 5.98961 5.76774
# Velocity P-wave (km/s) = 8.19059 8.79520 8.49827
#
# Compressibility (1/GPa) = 0.01674952
#
# Stress axis : x y z
#
# Youngs Moduli (GPa) = 139.54550 139.53827 142.04819
#
# Poissons Ratio (x) = -0.41223 0.37398
# Poissons Ratio (y) = -0.41226 0.37401
# Poissons Ratio (z) = 0.36739 0.36740
#
# Static dielectric constant tensor:
#      x y z
#    x 1.824210 0.000000 0.000000 
#    y 0.000000 1.824210 0.000000 
#    z 0.000000 0.000000 1.761240 
# 
# From -- ./inp_files/2273.got.cif
#   From: 2010.05.17/outbox.cif.g08.bks.cpg/sg142_2_cif.got.tgz:2273.got - 2010.05.20 13:39:18.
