data_PCOD9574584
_publ_section_title
;
Structure prediction by ZEFSAII (Michael W. Deem and Ramdas Pophale) SiO2 
 PCOD9574584
Probable space group: P 32
;
_chemical_formula_sum "Si O2"
_cell_formula_units_Z 24
_cell_length_a 7.902745
_cell_length_b 7.902745
_cell_length_c 19.522095
_cell_angle_alpha 90.000000
_cell_angle_beta 90.000000
_cell_angle_gamma 120.000000
_cell_volume 1055.876176
_symmetry_space_group_name_H-M "P 32"
_symmetry_group_IT_number 145
_symmetry_cell_setting 'hexagonal'
loop_
_space_group_symop_operation_xyz
x,y,z
-y,x-y,2/3+z
-x+y,-x,1/3+z
loop_
_atom_site_type_symbol
_atom_site_label
_atom_site_fract_x
_atom_site_fract_y
_atom_site_fract_z
Si Si1 0.554075 0.156727 0.470250
Si Si2 0.018650 0.520081 0.764853
Si Si3 0.110196 0.953803 0.516224
Si Si4 0.237544 0.875338 0.851098
Si Si5 0.669749 0.181779 0.618530
Si Si6 0.403076 0.394697 0.283050
Si Si7 0.782820 0.660362 0.046619
Si Si8 0.169764 0.033868 0.046573
O O1 0.577956 0.370146 0.455003
O O2 0.659276 0.141369 0.538481
O O3 0.652379 0.116796 0.405813
O O4 0.329011 0.025514 0.490143
O O5 0.147136 0.653375 0.826035
O O6 0.051282 0.647014 0.695753
O O7 0.065130 0.357715 0.739366
O O8 0.034829 0.784036 0.572599
O O9 0.985947 0.860792 0.448104
O O10 0.099432 0.149185 0.534953
O O11 0.396179 0.916861 0.909665
O O12 0.329476 0.003317 0.782068
O O13 0.769342 0.417870 0.622494
O O14 0.460043 0.090356 0.654112
O O15 0.804088 0.116076 0.659214
O O16 0.956094 0.869437 0.023851
#
# Coordination Sequence:
#
# PCOD9574584 Si02
#       8
#     3   3   3   3   3   3   3   3
#     4  11  22  43  67  97 135 179 227 284 356 410
#     4  10  23  43  66 100 139 177 229 291 350 424
#     4  10  24  42  67 100 137 179 230 291 348 427
#     4  10  23  43  68  97 139 181 230 289 351 429
#     4  11  23  43  71  95 135 187 226 284 360 417
#     4  11  21  43  71  94 136 184 231 280 362 414
#     4  11  22  42  67  96 135 178 229 288 347 428
#     4  10  22  43  65  97 138 179 226 289 352 419
#
# _framework density 22.729935000000001
#
# number of rings (size 3 to 8) (size 9 to 14) (size 15 to 20)
#    0.000    1.500    3.750    1.500    3.500    4.000 
#    9.000    0.000    0.000    0.000    0.000    0.000 
#    0.000    0.000    0.000    0.000    0.000    0.000 
#
# Total GULP energy -134099.917870 kJ/mol
# GULP energy per Si atom -5587.496578 kJ/mol
# Density = 2.267820 g / cm^3
# Si number density = 22.729935 Si / 1000 Ang^3
#
#
#
# Elastic Constant Matrix: (Units=GPa)
#
#
# Indices 1 2 3 4 5 6 
#
# 1 64.0011 32.6921 30.8328 -1.4140 -10.6595 0.0000
# 2 32.6921 64.0011 30.8328 1.4140 10.6595 0.0000
# 3 30.8328 30.8328 122.2023 0.0000 0.0000 0.0000
# 4 -1.4140 1.4140 0.0000 36.3177 0.0000 10.6595
# 5 -10.6595 10.6595 0.0000 0.0000 36.3177 -1.4140
# 6 0.0000 0.0000 0.0000 10.6595 -1.4140 15.6545
#
#
#
# Elastic Compliance Matrix: (Units=1/GPa)
#
#
# Indices 1 2 3 4 5 6 
#
# 1 0.026209 -0.013884 -0.003110 0.001561 0.011768 0.000000
# 2 -0.013884 0.026209 -0.003110 -0.001561 -0.011768 0.000000
# 3 -0.003110 -0.003110 0.009752 0.000000 0.000000 0.000000
# 4 0.001561 -0.001561 0.000000 0.034564 0.000000 -0.023535
# 5 0.011768 -0.011768 0.000000 0.000000 0.034564 0.003122
# 6 0.000000 0.000000 0.000000 -0.023535 0.003122 0.080187
#
#
# Mechanical properties :
#
#
# Convention : Reuss Voigt Hill
#
# Bulk Modulus (GPa) = 45.52954 48.76889 47.14922
# Shear Modulus (GPa) = 19.30386 28.04776 23.67581
#
# Velocity S-wave (km/s) = 2.91739 3.51658 3.23090
# Velocity P-wave (km/s) = 5.60556 6.16367 5.89123
#
# Compressibility (1/GPa) = 0.02196376
#
# Stress axis : x y z
#
# Youngs Moduli (GPa) = 38.15420 38.15420 102.53879
#
# Poissons Ratio (x) = 0.52974 0.31887
# Poissons Ratio (y) = 0.52974 0.31887
# Poissons Ratio (z) = 0.11865 0.11865
#
# Static dielectric constant tensor:
#      x y z
#    x 1.916170 0.000000 0.000000 
#    y 0.000000 1.916170 0.000000 
#    z 0.000000 0.000000 1.834860 
# 
# From -- ./inp_files/869.got.cif
#   From: 2010.05.17/outbox.cif.g08.bks.cpg/sg145_cif.got.tgz:869.got - 2010.05.20 13:47:28.
