data_PCOD9574127
_publ_section_title
;
Structure prediction by ZEFSAII (Michael W. Deem and Ramdas Pophale) SiO2 
 PCOD9574127
Probable space group: I 41/A C D
;
_chemical_formula_sum "Si O2"
_cell_formula_units_Z 192
_cell_length_a 17.152055
_cell_length_b 17.152055
_cell_length_c 32.450052
_cell_angle_alpha 90.000000
_cell_angle_beta 90.000000
_cell_angle_gamma 90.000000
_cell_volume 9546.577847
_symmetry_space_group_name_H-M "I 41/A C D"
_symmetry_group_IT_number 142
_space_group.IT_coordinate_system_code '2'
_symmetry_cell_setting 'tetragonal'
loop_
_space_group_symop_operation_xyz
x,y,z
1/4-y,3/4+x,1/4+z
-x,1/2-y,z
1/4+y,1/4-x,3/4+z
x,-y,1/2-z
1/2-x,y,-z
3/4+y,1/4+x,1/4-z
1/4-y,1/4-x,1/4-z
-x,-y,-z
3/4+y,1/4-x,3/4-z
x,1/2+y,-z
3/4-y,3/4+x,1/4-z
-x,y,1/2+z
1/2+x,-y,z
1/4-y,3/4-x,3/4+z
3/4+y,3/4+x,3/4+z
1/2+x,1/2+y,1/2+z
3/4-y,1/4+x,3/4+z
1/2-x,-y,1/2+z
3/4+y,3/4-x,1/4+z
1/2+x,1/2-y,-z
-x,1/2+y,1/2-z
1/4+y,3/4+x,3/4-z
3/4-y,3/4-x,3/4-z
1/2-x,1/2-y,1/2-z
1/4+y,3/4-x,1/4-z
1/2+x,y,1/2-z
1/4-y,1/4+x,3/4-z
1/2-x,1/2+y,z
x,1/2-y,1/2+z
3/4-y,1/4-x,1/4+z
1/4+y,1/4+x,1/4+z
loop_
_atom_site_type_symbol
_atom_site_label
_atom_site_fract_x
_atom_site_fract_y
_atom_site_fract_z
Si Si1 0.382477 0.766388 0.657076
Si Si2 0.986371 0.581747 0.222879
Si Si3 0.933952 0.641245 0.137717
Si Si4 0.232446 0.899801 0.047812
Si Si5 0.356086 0.004763 0.905623
Si Si6 0.500000 0.750000 0.520521
Si Si7 0.350238 0.899763 0.125000
O O1 0.442089 0.807912 0.625000
O O2 0.315338 0.827377 0.664280
O O3 0.426465 0.746613 0.698945
O O4 0.344165 0.690146 0.637979
O O5 0.967776 0.500000 0.250000
O O6 0.066109 0.559653 0.198853
O O7 0.932017 0.609960 0.184976
O O8 0.997158 0.664377 0.247926
O O9 0.898864 0.727796 0.130636
O O10 0.887723 0.574948 0.113594
O O11 0.296414 0.908817 0.084356
O O12 0.182396 0.977231 0.052752
O O13 0.250000 0.897303 0.000000
O O14 0.295662 0.045662 0.875000
#
# Coordination Sequence:
#
# PCOD9574127 Si02
#       7
#    32  32  32  32  32  16  16
#     4  11  23  39  69  97 136 173 236 287 355 419
#     4  11  25  42  73 103 144 184 241 303 367 432
#     4  11  23  45  74 100 136 191 243 293 355 438
#     4  11  24  44  70  99 140 185 237 286 363 435
#     4  11  25  43  68 102 139 181 232 290 356 433
#     4  12  23  46  65 110 138 184 238 306 353 437
#     4  12  21  46  72 102 130 195 228 300 360 432
#
# _framework density 20.111919
#
# number of rings (size 3 to 8) (size 9 to 14) (size 15 to 20)
#    0.000    0.833    4.167    4.000    4.667    0.000 
#    3.000    3.333    0.000    0.000    0.000    0.000 
#    0.000    0.000    0.000    0.000    0.000    0.000 
#
# Total GULP energy -534461.738405 kJ/mol
# GULP energy per Si atom -5567.309775 kJ/mol
# Density = 2.006614 g / cm^3
# Si number density = 20.111919 Si / 1000 Ang^3
#
#
#
# Elastic Constant Matrix: (Units=GPa)
#
#
# Indices 1 2 3 4 5 6 
#
# 1 89.2395 28.9099 29.7491 0.0000 0.0000 0.0000
# 2 28.9099 89.2394 29.7487 0.0000 0.0000 0.0000
# 3 29.7491 29.7487 100.3726 0.0000 0.0000 0.0000
# 4 0.0000 0.0000 0.0000 33.4335 0.0000 0.0000
# 5 0.0000 0.0000 0.0000 0.0000 33.4342 0.0000
# 6 0.0000 0.0000 0.0000 0.0000 0.0000 35.6389
#
#
#
# Elastic Compliance Matrix: (Units=1/GPa)
#
#
# Indices 1 2 3 4 5 6 
#
# 1 0.013262 -0.003313 -0.002949 0.000000 0.000000 0.000000
# 2 -0.003313 0.013262 -0.002949 0.000000 0.000000 0.000000
# 3 -0.002949 -0.002949 0.011711 0.000000 0.000000 0.000000
# 4 0.000000 0.000000 0.000000 0.029910 0.000000 0.000000
# 5 0.000000 0.000000 0.000000 0.000000 0.029910 0.000000
# 6 0.000000 0.000000 0.000000 0.000000 0.000000 0.028059
#
#
# Mechanical properties :
#
#
# Convention : Reuss Voigt Hill
#
# Bulk Modulus (GPa) = 50.47032 50.62966 50.54999
# Shear Modulus (GPa) = 33.08191 33.19757 33.13974
#
# Velocity S-wave (km/s) = 4.06012 4.06722 4.06367
# Velocity P-wave (km/s) = 6.86503 6.87640 6.87072
#
# Compressibility (1/GPa) = 0.01981362
#
# Stress axis : x y z
#
# Youngs Moduli (GPa) = 75.40234 75.40241 85.39165
#
# Poissons Ratio (x) = 0.24984 0.25179
# Poissons Ratio (y) = 0.24984 0.25179
# Poissons Ratio (z) = 0.22234 0.22233
#
# Static dielectric constant tensor:
#      x y z
#    x 1.746360 0.000000 0.000000 
#    y 0.000000 1.746360 0.000000 
#    z 0.000000 0.000000 1.887380 
# 
# From -- ./inp_files/12618.got.cif
#   From: 2010.05.17/outbox.cif.g08.bks.cpg/sg142_7_cif.got.tgz:12618.got - 2010.05.20 13:39:18.
