data_PCOD9574466
_publ_section_title
;
Structure prediction by ZEFSAII (Michael W. Deem and Ramdas Pophale) SiO2 
 PCOD9574466
Probable space group: P 31
;
_chemical_formula_sum "Si O2"
_cell_formula_units_Z 18
_cell_length_a 11.612859
_cell_length_b 11.612859
_cell_length_c 6.604097
_cell_angle_alpha 90.000000
_cell_angle_beta 90.000000
_cell_angle_gamma 120.000000
_cell_volume 771.298312
_symmetry_space_group_name_H-M "P 31"
_symmetry_group_IT_number 144
_symmetry_cell_setting 'hexagonal'
loop_
_space_group_symop_operation_xyz
x,y,z
-y,x-y,1/3+z
-x+y,-x,2/3+z
loop_
_atom_site_type_symbol
_atom_site_label
_atom_site_fract_x
_atom_site_fract_y
_atom_site_fract_z
Si Si1 0.021642 0.254705 0.927070
Si Si2 0.240634 0.199506 0.876660
Si Si3 0.679905 0.128253 0.545760
Si Si4 0.417793 0.444603 0.598960
Si Si5 0.928062 0.373131 0.592311
Si Si6 0.434109 0.660973 0.322951
O O1 0.090065 0.165494 0.893936
O O2 0.132842 0.405910 0.990908
O O3 0.968001 0.278763 0.714219
O O4 0.907084 0.175185 0.094639
O O5 0.310075 0.335654 0.746144
O O6 0.307545 0.238996 0.097741
O O7 0.776464 0.284299 0.520562
O O8 0.543252 0.071818 0.427667
O O9 0.641274 0.092741 0.777740
O O10 0.539594 0.549775 0.736250
O O11 0.374844 0.527291 0.456964
O O12 0.383629 0.750765 0.436159
#
# Coordination Sequence:
#
# PCOD9574466 Si02
#       6
#     3   3   3   3   3   3
#     4  12  26  50  72 108 148 202 252 307 378 442
#     4  11  27  48  70 104 153 196 253 300 376 453
#     4  11  24  45  70 105 143 191 237 312 372 447
#     4  11  24  46  71 109 146 190 241 314 377 448
#     4  11  26  41  74 106 145 187 247 307 374 446
#     4  12  27  46  77 110 145 192 246 318 375 438
#
# _framework density 23.337273
#
# number of rings (size 3 to 8) (size 9 to 14) (size 15 to 20)
#    0.000    0.667    3.333    3.000    9.333    1.333 
#    6.000    0.000    0.000    0.000    0.000    0.000 
#    0.000    0.000    0.000    0.000    0.000    0.000 
#
# Total GULP energy -100621.759660 kJ/mol
# GULP energy per Si atom -5590.097759 kJ/mol
# Density = 2.328416 g / cm^3
# Si number density = 23.337273 Si / 1000 Ang^3
#
#
#
# Elastic Constant Matrix: (Units=GPa)
#
#
# Indices 1 2 3 4 5 6 
#
# 1 86.3703 19.3862 24.0043 -0.3085 -5.9156 0.0000
# 2 19.3862 86.3703 24.0043 0.3085 5.9156 0.0000
# 3 24.0043 24.0043 97.9103 0.0000 0.0000 0.0000
# 4 -0.3085 0.3085 0.0000 32.3567 0.0000 5.9156
# 5 -5.9156 5.9156 0.0000 0.0000 32.3567 -0.3085
# 6 0.0000 0.0000 0.0000 5.9156 -0.3085 33.4920
#
#
#
# Elastic Compliance Matrix: (Units=1/GPa)
#
#
# Indices 1 2 3 4 5 6 
#
# 1 0.013034 -0.002394 -0.002609 0.000147 0.002821 0.000000
# 2 -0.002394 0.013034 -0.002609 -0.000147 -0.002821 0.000000
# 3 -0.002609 -0.002609 0.011492 0.000000 0.000000 0.000000
# 4 0.000147 -0.000147 0.000000 0.031940 0.000000 -0.005641
# 5 0.002821 -0.002821 0.000000 0.000000 0.031940 0.000294
# 6 0.000000 0.000000 0.000000 -0.005641 0.000294 0.030857
#
#
# Mechanical properties :
#
#
# Convention : Reuss Voigt Hill
#
# Bulk Modulus (GPa) = 44.76668 45.04893 44.90780
# Shear Modulus (GPa) = 32.26513 33.19147 32.72830
#
# Velocity S-wave (km/s) = 3.72231 3.77537 3.74893
# Velocity P-wave (km/s) = 6.13989 6.19273 6.16636
#
# Compressibility (1/GPa) = 0.02233804
#
# Stress axis : x y z
#
# Youngs Moduli (GPa) = 76.72144 76.72144 87.01339
#
# Poissons Ratio (x) = 0.18370 0.22698
# Poissons Ratio (y) = 0.18370 0.22698
# Poissons Ratio (z) = 0.20013 0.20013
#
# Static dielectric constant tensor:
#      x y z
#    x 1.895910 0.000000 0.000000 
#    y 0.000000 1.895910 0.000000 
#    z 0.000000 0.000000 1.899250 
# 
# From -- ./inp_files/112.got.cif
#   From: 2010.05.17/outbox.cif.g08.bks.cpg/sg144_cif.got.tgz:112.got - 2010.05.20 13:46:34.
