data_PCOD9574464
_publ_section_title
;
Structure prediction by ZEFSAII (Michael W. Deem and Ramdas Pophale) SiO2 
 PCOD9574464
Probable space group: P 31
;
_chemical_formula_sum "Si O2"
_cell_formula_units_Z 18
_cell_length_a 8.822362
_cell_length_b 8.822362
_cell_length_c 10.624798
_cell_angle_alpha 90.000000
_cell_angle_beta 90.000000
_cell_angle_gamma 120.000000
_cell_volume 716.178141
_symmetry_space_group_name_H-M "P 31"
_symmetry_group_IT_number 144
_symmetry_cell_setting 'hexagonal'
loop_
_space_group_symop_operation_xyz
x,y,z
-y,x-y,1/3+z
-x+y,-x,2/3+z
loop_
_atom_site_type_symbol
_atom_site_label
_atom_site_fract_x
_atom_site_fract_y
_atom_site_fract_z
Si Si1 0.149211 0.506383 0.897720
Si Si2 0.427961 0.601783 0.720092
Si Si3 0.989646 0.141968 0.029617
Si Si4 0.792016 0.837045 0.840922
Si Si5 0.706211 0.159826 0.184377
Si Si6 0.689724 0.182215 0.482562
O O1 0.225085 0.499610 0.763744
O O2 0.968624 0.498924 0.888548
O O3 0.296640 0.703127 0.935960
O O4 0.117496 0.335200 0.973677
O O5 0.599784 0.764552 0.784438
O O6 0.466434 0.446130 0.757023
O O7 0.885037 0.172669 0.141436
O O8 0.087216 0.040905 0.076649
O O9 0.849406 0.001598 0.932290
O O10 0.790956 0.658742 0.882451
O O11 0.682735 0.132633 0.334820
O O12 0.681189 0.324919 0.159396
#
# Coordination Sequence:
#
# PCOD9574464 Si02
#       6
#     3   3   3   3   3   3
#     4  12  25  43  70 103 143 191 243 301 367 435
#     4  11  24  42  67  98 140 188 239 295 360 436
#     4  12  25  43  70 103 143 191 243 301 367 435
#     4  11  24  42  67  98 140 188 239 295 360 436
#     4  11  25  47  71 103 143 189 244 306 371 441
#     4  11  25  47  71 103 143 189 244 306 371 441
#
# _framework density 25.133412
#
# number of rings (size 3 to 8) (size 9 to 14) (size 15 to 20)
#    0.000    0.667    0.000    8.000    0.000   12.000 
#    0.000    0.000    0.000    0.000    0.000    0.000 
#    0.000    0.000    0.000    0.000    0.000    0.000 
#
# Total GULP energy -100390.785692 kJ/mol
# GULP energy per Si atom -5577.265872 kJ/mol
# Density = 2.507621 g / cm^3
# Si number density = 25.133412 Si / 1000 Ang^3
#
#
#
# Elastic Constant Matrix: (Units=GPa)
#
#
# Indices 1 2 3 4 5 6 
#
# 1 86.8602 11.3733 6.5872 -3.8045 7.5845 0.0000
# 2 11.3733 86.8602 6.5872 3.8045 -7.5845 0.0000
# 3 6.5872 6.5872 41.4323 0.0000 0.0000 0.0000
# 4 -3.8045 3.8045 0.0000 25.8167 0.0000 -7.5845
# 5 7.5845 -7.5845 0.0000 0.0000 25.8167 -3.8045
# 6 0.0000 0.0000 0.0000 -7.5845 -3.8045 37.7435
#
#
#
# Elastic Compliance Matrix: (Units=1/GPa)
#
#
# Indices 1 2 3 4 5 6 
#
# 1 0.012353 -0.001951 -0.001654 0.002108 -0.004202 0.000000
# 2 -0.001951 0.012353 -0.001654 -0.002108 0.004202 0.000000
# 3 -0.001654 -0.001654 0.024662 0.000000 0.000000 0.000000
# 4 0.002108 -0.002108 0.000000 0.041825 0.000000 0.008405
# 5 -0.004202 0.004202 0.000000 0.000000 0.041825 0.004216
# 6 0.000000 0.000000 0.000000 0.008405 0.004216 0.028609
#
#
# Mechanical properties :
#
#
# Convention : Reuss Voigt Hill
#
# Bulk Modulus (GPa) = 25.74007 29.36091 27.55049
# Shear Modulus (GPa) = 27.01337 30.58238 28.79788
#
# Velocity S-wave (km/s) = 3.28197 3.49205 3.38864
# Velocity P-wave (km/s) = 4.96240 5.28835 5.12796
#
# Compressibility (1/GPa) = 0.03884993
#
# Stress axis : x y z
#
# Youngs Moduli (GPa) = 80.95241 80.95241 40.54886
#
# Poissons Ratio (x) = 0.15796 0.06706
# Poissons Ratio (y) = 0.15796 0.06706
# Poissons Ratio (z) = 0.13387 0.13387
#
# Static dielectric constant tensor:
#      x y z
#    x 2.080900 0.000000 0.000000 
#    y 0.000000 2.080900 0.000000 
#    z 0.000000 0.000000 2.167400 
# 
# From -- ./inp_files/560.got.cif
#   From: 2010.05.17/outbox.cif.g08.bks.cpg/sg144_cif.got.tgz:560.got - 2010.05.20 13:46:34.
