data_PCOD9574598
_publ_section_title
;
Structure prediction by ZEFSAII (Michael W. Deem and Ramdas Pophale) SiO2 
 PCOD9574598
Probable space group: P 32
;
_chemical_formula_sum "Si O2"
_cell_formula_units_Z 24
_cell_length_a 14.363694
_cell_length_b 14.363694
_cell_length_c 5.577075
_cell_angle_alpha 90.000000
_cell_angle_beta 90.000000
_cell_angle_gamma 120.000000
_cell_volume 996.481879
_symmetry_space_group_name_H-M "P 32"
_symmetry_group_IT_number 145
_symmetry_cell_setting 'hexagonal'
loop_
_space_group_symop_operation_xyz
x,y,z
-y,x-y,2/3+z
-x+y,-x,1/3+z
loop_
_atom_site_type_symbol
_atom_site_label
_atom_site_fract_x
_atom_site_fract_y
_atom_site_fract_z
Si Si1 0.900832 0.108787 0.134340
Si Si2 0.595260 0.841377 0.747217
Si Si3 0.259293 0.560817 0.719957
Si Si4 0.411184 0.161585 0.779072
Si Si5 0.278865 0.924485 0.825983
Si Si6 0.090839 0.897287 0.123042
Si Si7 0.596667 0.367671 0.291801
Si Si8 0.365173 0.294964 0.179439
O O1 0.880855 0.204218 0.230486
O O2 0.882700 0.026085 0.347500
O O3 0.801001 0.055214 0.952011
O O4 0.008652 0.143005 0.986410
O O5 0.483408 0.780715 0.608872
O O6 0.696698 0.896260 0.564214
O O7 0.606428 0.949196 0.855429
O O8 0.615465 0.759940 0.911156
O O9 0.338829 0.593958 0.495729
O O10 0.148974 0.457357 0.653239
O O11 0.538666 0.206292 0.762538
O O12 0.373164 0.043855 0.884288
O O13 0.389525 0.243439 0.940916
O O14 0.174856 0.932577 0.904581
O O15 0.670074 0.410184 0.524009
O O16 0.474983 0.337348 0.328281
#
# Coordination Sequence:
#
# PCOD9574598 Si02
#       8
#     3   3   3   3   3   3   3   3
#     4  12  23  44  72 100 145 192 232 292 354 430
#     4  11  23  44  69 102 142 179 235 294 355 432
#     4  11  26  47  69 100 139 185 236 303 356 428
#     4  11  23  42  69  98 139 186 233 287 363 422
#     4  11  23  44  69 102 142 179 235 294 355 432
#     4  11  24  42  71 104 142 188 235 287 350 432
#     4  10  23  43  64  98 132 177 235 292 342 414
#     4  11  23  42  69  98 139 186 233 287 363 422
#
# _framework density 24.084735999999999
#
# number of rings (size 3 to 8) (size 9 to 14) (size 15 to 20)
#    0.000    1.000    5.000    1.500    0.000    3.000 
#    0.000    8.750    0.000    0.000    0.000    0.000 
#    0.000    0.000    0.000    0.000    0.000    0.000 
#
# Total GULP energy -133909.653080 kJ/mol
# GULP energy per Si atom -5579.568878 kJ/mol
# Density = 2.402992 g / cm^3
# Si number density = 24.084736 Si / 1000 Ang^3
#
#
#
# Elastic Constant Matrix: (Units=GPa)
#
#
# Indices 1 2 3 4 5 6 
#
# 1 96.8170 17.5884 7.3083 1.1733 -1.1278 0.0000
# 2 17.5884 96.8170 7.3083 -1.1733 1.1278 0.0000
# 3 7.3083 7.3083 51.5223 0.0000 0.0000 0.0000
# 4 1.1733 -1.1733 0.0000 40.2212 0.0000 1.1278
# 5 -1.1278 1.1278 0.0000 0.0000 40.2212 1.1733
# 6 0.0000 0.0000 0.0000 1.1278 1.1733 39.6143
#
#
#
# Elastic Compliance Matrix: (Units=1/GPa)
#
#
# Indices 1 2 3 4 5 6 
#
# 1 0.010772 -0.001870 -0.001263 -0.000369 0.000355 0.000000
# 2 -0.001870 0.010772 -0.001263 0.000369 -0.000355 0.000000
# 3 -0.001263 -0.001263 0.019767 0.000000 0.000000 0.000000
# 4 -0.000369 0.000369 0.000000 0.024904 0.000000 -0.000709
# 5 0.000355 -0.000355 0.000000 0.000000 0.024904 -0.000738
# 6 0.000000 0.000000 0.000000 -0.000709 -0.000738 0.025285
#
#
# Mechanical properties :
#
#
# Convention : Reuss Voigt Hill
#
# Bulk Modulus (GPa) = 30.74968 34.39626 32.57297
# Shear Modulus (GPa) = 36.75465 38.20810 37.48137
#
# Velocity S-wave (km/s) = 3.91071 3.98729 3.94919
# Velocity P-wave (km/s) = 5.76078 5.95905 5.86076
#
# Compressibility (1/GPa) = 0.03252066
#
# Stress axis : x y z
#
# Youngs Moduli (GPa) = 92.82943 92.82943 50.58853
#
# Poissons Ratio (x) = 0.17362 0.06388
# Poissons Ratio (y) = 0.17362 0.06388
# Poissons Ratio (z) = 0.11722 0.11722
#
# Static dielectric constant tensor:
#      x y z
#    x 2.014420 0.000000 0.000000 
#    y 0.000000 2.014420 0.000000 
#    z 0.000000 0.000000 2.124010 
# 
# From -- ./inp_files/145.got.cif
#   From: 2010.05.17/outbox.cif.g08.bks.cpg/sg145_cif.got.tgz:145.got - 2010.05.20 13:47:28.
