data_PCOD9574973
_publ_section_title
;
Structure prediction by ZEFSAII (Michael W. Deem and Ramdas Pophale) SiO2 
 PCOD9574973
Probable space group: P -3
;
_chemical_formula_sum "Si O2"
_cell_formula_units_Z 40
_cell_length_a 19.682811
_cell_length_b 19.682811
_cell_length_c 8.732289
_cell_angle_alpha 90.000000
_cell_angle_beta 90.000000
_cell_angle_gamma 120.000000
_cell_volume 2929.766284
_symmetry_space_group_name_H-M "P -3"
_symmetry_group_IT_number 147
_symmetry_cell_setting 'hexagonal'
loop_
_space_group_symop_operation_xyz
x,y,z
-y,x-y,z
-x+y,-x,z
-x,-y,-z
y,-x+y,-z
x-y,x,-z
loop_
_atom_site_type_symbol
_atom_site_label
_atom_site_fract_x
_atom_site_fract_y
_atom_site_fract_z
Si Si1 0.757253 0.242746 0.183235
Si Si2 0.910083 0.376317 0.315498
Si Si3 0.910084 0.533767 0.684502
Si Si4 0.333334 0.666667 0.186010
Si Si5 0.466233 0.376317 0.315498
Si Si6 0.089917 0.623683 0.315497
Si Si7 0.333334 0.666668 0.813984
Si Si8 0.757253 0.242746 0.816768
O O1 0.845055 0.294980 0.244928
O O2 0.705020 0.154943 0.244926
O O3 0.711667 0.288327 0.236520
O O4 0.758033 0.241966 0.000001
O O5 0.894906 0.447453 0.268049
O O6 0.904987 0.371765 0.500001
O O7 0.999999 0.405207 0.272754
O O8 0.904988 0.533224 0.500000
O O9 0.894906 0.447454 0.731952
O O10 0.845057 0.550077 0.755073
O O11 0.288332 0.711672 0.236515
O O12 0.333334 0.666667 0.999997
O O13 0.405207 0.405208 0.272752
O O14 0.154945 0.705019 0.244926
#
# Coordination Sequence:
#
# PCOD9574973 Si02
#       8
#     6   6   6   2   6   6   2   6
#     4  11  19  29  43  60  84 109 139 176 214 256
#     4   9  18  31  44  59  80 107 141 177 211 248
#     4   9  18  31  44  59  80 107 141 177 211 248
#     4   9  18  27  34  56  85 108 136 170 208 249
#     4   9  18  31  44  59  80 107 141 177 211 248
#     4   9  18  31  44  59  80 107 141 177 211 248
#     4   9  18  27  34  56  85 108 136 170 208 249
#     4  11  19  29  43  60  84 109 139 176 214 256
#
# _framework density 13.652965999999999
#
# number of rings (size 3 to 8) (size 9 to 14) (size 15 to 20)
#    0.000    2.400    3.000    2.700    0.000    1.200 
#    0.000    3.000    0.000    0.000    0.000    0.000 
#    0.000    0.000    0.000    0.900    0.000   17.400 
#
# Total GULP energy -222974.691677 kJ/mol
# GULP energy per Si atom -5574.367292 kJ/mol
# Density = 1.362189 g / cm^3
# Si number density = 13.652966 Si / 1000 Ang^3
#
#
#
# Elastic Constant Matrix: (Units=GPa)
#
#
# Indices 1 2 3 4 5 6 
#
# 1 98.3392 48.4653 28.5912 0.0000 0.0001 0.0002
# 2 48.4653 98.3385 28.5913 0.0000 -0.0001 0.0001
# 3 28.5912 28.5913 23.0506 0.0000 0.0000 0.0000
# 4 0.0000 0.0000 0.0000 16.2402 0.0001 -0.0001
# 5 0.0001 -0.0001 0.0000 0.0001 16.2404 0.0000
# 6 0.0002 0.0001 0.0000 -0.0001 0.0000 24.9370
#
#
#
# Elastic Compliance Matrix: (Units=1/GPa)
#
#
# Indices 1 2 3 4 5 6 
#
# 1 0.016615 -0.003436 -0.016347 0.000000 0.000000 0.000000
# 2 -0.003436 0.016615 -0.016347 0.000000 0.000000 0.000000
# 3 -0.016347 -0.016347 0.083935 0.000000 0.000000 0.000000
# 4 0.000000 0.000000 0.000000 0.061576 0.000000 0.000000
# 5 0.000000 0.000000 0.000000 0.000000 0.061575 0.000000
# 6 0.000000 0.000000 0.000000 0.000000 0.000000 0.040101
#
#
# Mechanical properties :
#
#
# Convention : Reuss Voigt Hill
#
# Bulk Modulus (GPa) = 22.26894 47.89155 35.08024
# Shear Modulus (GPa) = 13.60008 19.08890 16.34449
#
# Velocity S-wave (km/s) = 3.15957 3.74324 3.46372
# Velocity P-wave (km/s) = 5.44579 7.33733 6.46115
#
# Compressibility (1/GPa) = 0.04490560
#
# Stress axis : x y z
#
# Youngs Moduli (GPa) = 60.18712 60.18629 11.91393
#
# Poissons Ratio (x) = 0.20678 0.19476
# Poissons Ratio (y) = 0.20679 0.19476
# Poissons Ratio (z) = 0.98387 0.98388
#
# Static dielectric constant tensor:
#      x y z
#    x 1.442990 0.000000 0.000000 
#    y 0.000000 1.442990 0.000000 
#    z 0.000000 0.000000 1.455370 
# 
# From -- ./inp_files/646.got.cif
#   From: 2010.05.17/outbox.cif.g08.bks.cpg/sg147_cif.got.tgz:646.got - 2010.05.20 13:49:32.
