data_PCOD9574492
_publ_section_title
;
Structure prediction by ZEFSAII (Michael W. Deem and Ramdas Pophale) SiO2 
 PCOD9574492
Probable space group: P 31
;
_chemical_formula_sum "Si O2"
_cell_formula_units_Z 21
_cell_length_a 10.871316
_cell_length_b 10.871316
_cell_length_c 9.161096
_cell_angle_alpha 90.000000
_cell_angle_beta 90.000000
_cell_angle_gamma 120.000000
_cell_volume 937.653341
_symmetry_space_group_name_H-M "P 31"
_symmetry_group_IT_number 144
_symmetry_cell_setting 'hexagonal'
loop_
_space_group_symop_operation_xyz
x,y,z
-y,x-y,1/3+z
-x+y,-x,2/3+z
loop_
_atom_site_type_symbol
_atom_site_label
_atom_site_fract_x
_atom_site_fract_y
_atom_site_fract_z
Si Si1 0.132192 0.161137 0.512930
Si Si2 0.504750 0.329987 0.249453
Si Si3 0.076528 0.334258 0.267015
Si Si4 0.431074 0.244284 0.552911
Si Si5 0.939497 0.470077 0.471888
Si Si6 0.296401 0.369428 0.047999
Si Si7 0.970883 0.848065 0.496691
O O1 0.126399 0.264372 0.394991
O O2 0.270387 0.143341 0.501691
O O3 0.151131 0.203262 0.682355
O O4 0.996160 0.006681 0.505979
O O5 0.487309 0.353130 0.418836
O O6 0.646404 0.472559 0.209054
O O7 0.521797 0.192850 0.211479
O O8 0.374882 0.316193 0.157994
O O9 0.204080 0.415222 0.149644
O O10 0.020411 0.422826 0.357130
O O11 0.946254 0.198722 0.184458
O O12 0.457342 0.327028 0.705142
O O13 0.043624 0.580386 0.595192
O O14 0.185229 0.233943 0.956860
#
# Coordination Sequence:
#
# PCOD9574492 Si02
#       7
#     3   3   3   3   3   3   3
#     4  12  25  41  69 106 142 183 235 297 360 425
#     4  12  24  40  68 107 145 182 233 298 361 422
#     4  12  26  44  70 103 146 189 238 297 358 431
#     4  12  25  41  69 106 142 183 235 297 360 425
#     4  12  26  44  70 103 146 189 238 297 358 431
#     4  12  24  46  68 104 148 188 234 294 360 426
#     4  12  24  40  68 107 145 182 233 298 361 422
#
# _framework density 22.396338
#
# number of rings (size 3 to 8) (size 9 to 14) (size 15 to 20)
#    0.000    0.000   10.000    0.000    4.000    0.000 
#    0.000    0.000    3.143    0.000    0.000    0.000 
#    0.000    0.000    0.000    0.000    0.000    0.000 
#
# Total GULP energy -117161.820938 kJ/mol
# GULP energy per Si atom -5579.134330 kJ/mol
# Density = 2.234536 g / cm^3
# Si number density = 22.396338 Si / 1000 Ang^3
#
#
#
# Elastic Constant Matrix: (Units=GPa)
#
#
# Indices 1 2 3 4 5 6 
#
# 1 69.8909 30.2261 21.9384 3.5726 0.1954 0.0000
# 2 30.2261 69.8909 21.9384 -3.5726 -0.1954 0.0000
# 3 21.9384 21.9384 117.3350 0.0000 0.0000 0.0000
# 4 3.5726 -3.5726 0.0000 41.0768 0.0000 -0.1954
# 5 0.1954 -0.1954 0.0000 0.0000 41.0768 3.5726
# 6 0.0000 0.0000 0.0000 -0.1954 3.5726 19.8324
#
#
#
# Elastic Compliance Matrix: (Units=1/GPa)
#
#
# Indices 1 2 3 4 5 6 
#
# 1 0.018247 -0.007367 -0.002034 -0.002228 -0.000122 0.000000
# 2 -0.007367 0.018247 -0.002034 0.002228 0.000122 0.000000
# 3 -0.002034 -0.002034 0.009283 0.000000 0.000000 0.000000
# 4 -0.002228 0.002228 0.000000 0.024733 0.000000 0.000244
# 5 -0.000122 0.000122 0.000000 0.000000 0.024733 -0.004455
# 6 0.000000 0.000000 0.000000 0.000244 -0.004455 0.051228
#
#
# Mechanical properties :
#
#
# Convention : Reuss Voigt Hill
#
# Bulk Modulus (GPa) = 43.65660 45.03584 44.34622
# Shear Modulus (GPa) = 28.25221 32.59812 30.42517
#
# Velocity S-wave (km/s) = 3.55557 3.81926 3.68977
# Velocity P-wave (km/s) = 6.03250 6.29295 6.16410
#
# Compressibility (1/GPa) = 0.02290605
#
# Stress axis : x y z
#
# Youngs Moduli (GPa) = 54.80413 54.80413 107.72036
#
# Poissons Ratio (x) = 0.40374 0.21913
# Poissons Ratio (y) = 0.40374 0.21913
# Poissons Ratio (z) = 0.11148 0.11148
#
# Static dielectric constant tensor:
#      x y z
#    x 1.884200 0.000000 0.000000 
#    y 0.000000 1.884200 0.000000 
#    z 0.000000 0.000000 1.920470 
# 
# From -- ./inp_files/343.got.cif
#   From: 2010.05.17/outbox.cif.g08.bks.cpg/sg144_cif.got.tgz:343.got - 2010.05.20 13:46:34.
