data_PCOD9574559
_publ_section_title
;
Structure prediction by ZEFSAII (Michael W. Deem and Ramdas Pophale) SiO2 
 PCOD9574559
Probable space group: P 32
;
_chemical_formula_sum "Si O2"
_cell_formula_units_Z 24
_cell_length_a 13.941526
_cell_length_b 13.941526
_cell_length_c 6.776328
_cell_angle_alpha 90.000000
_cell_angle_beta 90.000000
_cell_angle_gamma 120.000000
_cell_volume 1140.632330
_symmetry_space_group_name_H-M "P 32"
_symmetry_group_IT_number 145
_symmetry_cell_setting 'hexagonal'
loop_
_space_group_symop_operation_xyz
x,y,z
-y,x-y,2/3+z
-x+y,-x,1/3+z
loop_
_atom_site_type_symbol
_atom_site_label
_atom_site_fract_x
_atom_site_fract_y
_atom_site_fract_z
Si Si1 0.693486 0.429613 0.752700
Si Si2 0.917355 0.980421 0.813037
Si Si3 0.110582 0.752956 0.915670
Si Si4 0.041389 0.222805 0.834737
Si Si5 0.410617 0.493181 0.934979
Si Si6 0.590017 0.576944 0.624890
Si Si7 0.949869 0.559365 0.648535
Si Si8 0.417687 0.681489 0.187818
O O1 0.613266 0.318145 0.631731
O O2 0.643422 0.509738 0.726483
O O3 0.818047 0.498769 0.668321
O O4 0.807486 0.889053 0.706954
O O5 0.013310 0.964989 0.704992
O O6 0.165834 0.062246 0.109849
O O7 0.125999 0.866496 0.999367
O O8 0.091312 0.679424 0.112485
O O9 0.228052 0.773682 0.833745
O O10 0.014940 0.679506 0.757690
O O11 0.013305 0.318108 0.879086
O O12 0.436635 0.421878 0.089641
O O13 0.383233 0.568142 0.075683
O O14 0.510774 0.578021 0.794796
O O15 0.515034 0.502326 0.442941
O O16 0.381822 0.651327 0.413039
#
# Coordination Sequence:
#
# PCOD9574559 Si02
#       8
#     3   3   3   3   3   3   3   3
#     4  10  21  41  67  89 126 166 205 272 336 384
#     4   8  20  45  64  86 128 167 214 274 325 388
#     4  11  24  38  58  91 126 160 217 260 312 389
#     4  10  22  42  64  92 129 173 215 279 320 391
#     4  11  23  39  58  87 123 163 205 256 314 383
#     4  10  23  40  61  95 125 157 221 263 316 403
#     4  10  22  41  60  91 127 160 214 266 317 393
#     4  12  23  38  60  85 126 170 201 250 322 379
#
# _framework density 21.040962
#
# number of rings (size 3 to 8) (size 9 to 14) (size 15 to 20)
#    0.750    1.000    2.500    1.500    3.500    2.000 
#    6.750    2.500    0.000    0.000    0.000    0.000 
#    0.000    0.000    0.000    0.000    0.000    0.000 
#
# Total GULP energy -133853.198360 kJ/mol
# GULP energy per Si atom -5577.216598 kJ/mol
# Density = 2.099307 g / cm^3
# Si number density = 21.040962 Si / 1000 Ang^3
#
#
#
# Elastic Constant Matrix: (Units=GPa)
#
#
# Indices 1 2 3 4 5 6 
#
# 1 43.5949 14.1397 10.7879 -2.5281 5.4864 0.0000
# 2 14.1397 43.5949 10.7879 2.5281 -5.4864 0.0000
# 3 10.7879 10.7879 61.3114 0.0000 0.0000 0.0000
# 4 -2.5281 2.5281 0.0000 30.2708 0.0000 -5.4864
# 5 5.4864 -5.4864 0.0000 0.0000 30.2708 -2.5281
# 6 0.0000 0.0000 0.0000 -5.4864 -2.5281 14.7276
#
#
#
# Elastic Compliance Matrix: (Units=1/GPa)
#
#
# Indices 1 2 3 4 5 6 
#
# 1 0.027758 -0.009218 -0.003262 0.003088 -0.006702 0.000000
# 2 -0.009218 0.027758 -0.003262 -0.003088 0.006702 0.000000
# 3 -0.003262 -0.003262 0.017458 0.000000 0.000000 0.000000
# 4 0.003088 -0.003088 0.000000 0.035980 0.000000 0.013403
# 5 -0.006702 0.006702 0.000000 0.000000 0.035980 0.006176
# 6 0.000000 0.000000 0.000000 0.013403 0.006176 0.073953
#
#
# Mechanical properties :
#
#
# Convention : Reuss Voigt Hill
#
# Bulk Modulus (GPa) = 24.10273 24.43693 24.26983
# Shear Modulus (GPa) = 18.92485 22.57288 20.74886
#
# Velocity S-wave (km/s) = 3.00230 3.27893 3.14366
# Velocity P-wave (km/s) = 4.84752 5.09650 4.97357
#
# Compressibility (1/GPa) = 0.04148908
#
# Stress axis : x y z
#
# Youngs Moduli (GPa) = 36.02553 36.02553 57.27989
#
# Poissons Ratio (x) = 0.33210 0.18685
# Poissons Ratio (y) = 0.33210 0.18685
# Poissons Ratio (z) = 0.11752 0.11752
#
# Static dielectric constant tensor:
#      x y z
#    x 1.771190 0.000000 0.000000 
#    y 0.000000 1.771190 0.000000 
#    z 0.000000 0.000000 1.750080 
# 
# From -- ./inp_files/161.got.cif
#   From: 2010.05.17/outbox.cif.g08.bks.cpg/sg145_cif.got.tgz:161.got - 2010.05.20 13:47:28.
