data_PCOD9574057
_publ_section_title
;
Structure prediction by ZEFSAII (Michael W. Deem and Ramdas Pophale) SiO2 
 PCOD9574057
Probable space group: I 41/A C D
;
_chemical_formula_sum "Si O2"
_cell_formula_units_Z 176
_cell_length_a 17.784215
_cell_length_b 17.784215
_cell_length_c 26.121588
_cell_angle_alpha 90.000000
_cell_angle_beta 90.000000
_cell_angle_gamma 90.000000
_cell_volume 8261.691529
_symmetry_space_group_name_H-M "I 41/A C D"
_symmetry_group_IT_number 142
_space_group.IT_coordinate_system_code '2'
_symmetry_cell_setting 'tetragonal'
loop_
_space_group_symop_operation_xyz
x,y,z
1/4-y,3/4+x,1/4+z
-x,1/2-y,z
1/4+y,1/4-x,3/4+z
x,-y,1/2-z
1/2-x,y,-z
3/4+y,1/4+x,1/4-z
1/4-y,1/4-x,1/4-z
-x,-y,-z
3/4+y,1/4-x,3/4-z
x,1/2+y,-z
3/4-y,3/4+x,1/4-z
-x,y,1/2+z
1/2+x,-y,z
1/4-y,3/4-x,3/4+z
3/4+y,3/4+x,3/4+z
1/2+x,1/2+y,1/2+z
3/4-y,1/4+x,3/4+z
1/2-x,-y,1/2+z
3/4+y,3/4-x,1/4+z
1/2+x,1/2-y,-z
-x,1/2+y,1/2-z
1/4+y,3/4+x,3/4-z
3/4-y,3/4-x,3/4-z
1/2-x,1/2-y,1/2-z
1/4+y,3/4-x,1/4-z
1/2+x,y,1/2-z
1/4-y,1/4+x,3/4-z
1/2-x,1/2+y,z
x,1/2-y,1/2+z
3/4-y,1/4-x,1/4+z
1/4+y,1/4+x,1/4+z
loop_
_atom_site_type_symbol
_atom_site_label
_atom_site_fract_x
_atom_site_fract_y
_atom_site_fract_z
Si Si1 0.180798 0.382747 0.675714
Si Si2 0.519652 0.837395 0.209224
Si Si3 0.827989 0.137304 0.017125
Si Si4 0.253420 0.000000 0.750000
Si Si5 0.561226 0.680988 0.819717
Si Si6 0.940509 0.912870 0.574883
O O1 0.182590 0.432590 0.625000
O O2 0.096998 0.351660 0.680766
O O3 0.198136 0.438734 0.721764
O O4 0.248371 0.323062 0.672495
O O5 0.500000 0.750000 0.208000
O O6 0.443912 0.881225 0.194794
O O7 0.535786 0.860207 0.268488
O O8 0.750000 0.175591 0.000000
O O9 0.882394 0.118650 0.968305
O O10 0.703562 0.056235 0.964540
O O11 0.500000 0.750000 0.824696
O O12 0.638390 0.725617 0.809155
O O13 0.568493 0.628448 0.869603
#
# Coordination Sequence:
#
# PCOD9574057 Si02
#       6
#    32  32  32  16  32  32
#     4  11  27  43  62  98 138 175 228 281 346 421
#     4  11  23  41  67  97 133 183 222 270 348 420
#     4   9  19  38  64  87 131 173 219 271 343 404
#     4   8  22  44  64  92 130 170 224 286 340 392
#     4  11  19  35  68 101 130 166 227 286 339 403
#     4  11  19  39  63 101 130 160 232 294 330 403
#
# _framework density 21.303142999999999
#
# number of rings (size 3 to 8) (size 9 to 14) (size 15 to 20)
#    0.545    1.091    5.455    0.000    3.818    2.545 
#    0.000    0.000    0.000    0.000    0.000    0.000 
#    0.000    0.000    0.000    0.000    0.000    0.000 
#
# Total GULP energy -490108.745371 kJ/mol
# GULP energy per Si atom -5569.417561 kJ/mol
# Density = 2.125466 g / cm^3
# Si number density = 21.303143 Si / 1000 Ang^3
#
#
#
# Elastic Constant Matrix: (Units=GPa)
#
#
# Indices 1 2 3 4 5 6 
#
# 1 90.8643 34.5857 12.1319 0.0000 0.0000 0.0000
# 2 34.5857 90.8643 12.1319 0.0000 0.0000 0.0000
# 3 12.1319 12.1319 30.2192 0.0000 0.0000 0.0000
# 4 0.0000 0.0000 0.0000 8.4300 0.0000 0.0000
# 5 0.0000 0.0000 0.0000 0.0000 8.4300 0.0000
# 6 0.0000 0.0000 0.0000 0.0000 0.0000 35.0628
#
#
#
# Elastic Compliance Matrix: (Units=1/GPa)
#
#
# Indices 1 2 3 4 5 6 
#
# 1 0.013206 -0.004563 -0.003470 0.000000 0.000000 0.000000
# 2 -0.004563 0.013206 -0.003470 0.000000 0.000000 0.000000
# 3 -0.003470 -0.003470 0.035877 0.000000 0.000000 0.000000
# 4 0.000000 0.000000 0.000000 0.118625 0.000000 0.000000
# 5 0.000000 0.000000 0.000000 0.000000 0.118625 0.000000
# 6 0.000000 0.000000 0.000000 0.000000 0.000000 0.028520
#
#
# Mechanical properties :
#
#
# Convention : Reuss Voigt Hill
#
# Bulk Modulus (GPa) = 25.45584 36.62742 31.04163
# Shear Modulus (GPa) = 13.73035 20.59112 17.16073
#
# Velocity S-wave (km/s) = 2.54150 3.11235 2.84130
# Velocity P-wave (km/s) = 4.53735 5.49058 5.03657
#
# Compressibility (1/GPa) = 0.03928372
#
# Stress axis : x y z
#
# Youngs Moduli (GPa) = 75.72576 75.72576 27.87277
#
# Poissons Ratio (x) = 0.34555 0.09671
# Poissons Ratio (y) = 0.34555 0.09671
# Poissons Ratio (z) = 0.26274 0.26274
#
# Static dielectric constant tensor:
#      x y z
#    x 1.829920 0.000000 0.000000 
#    y 0.000000 1.829920 0.000000 
#    z 0.000000 0.000000 1.824470 
# 
# From -- ./inp_files/12556.got.cif
#   From: 2010.05.17/outbox.cif.g08.bks.cpg/sg142_7_cif.got.tgz:12556.got - 2010.05.20 13:39:18.
