data_PCOD9574962
_publ_section_title
;
Structure prediction by ZEFSAII (Michael W. Deem and Ramdas Pophale) SiO2 
 PCOD9574962
Probable space group: P -3
;
_chemical_formula_sum "Si O2"
_cell_formula_units_Z 30
_cell_length_a 13.136182
_cell_length_b 13.136182
_cell_length_c 8.528148
_cell_angle_alpha 90.000000
_cell_angle_beta 90.000000
_cell_angle_gamma 120.000000
_cell_volume 1274.452560
_symmetry_space_group_name_H-M "P -3"
_symmetry_group_IT_number 147
_symmetry_cell_setting 'hexagonal'
loop_
_space_group_symop_operation_xyz
x,y,z
-y,x-y,z
-x+y,-x,z
-x,-y,-z
y,-x+y,-z
x-y,x,-z
loop_
_atom_site_type_symbol
_atom_site_label
_atom_site_fract_x
_atom_site_fract_y
_atom_site_fract_z
Si Si1 0.190458 0.000145 0.098429
Si Si2 0.485252 0.720739 0.529032
Si Si3 0.460260 0.333561 0.126950
Si Si4 0.890025 0.321109 0.004721
Si Si5 0.141895 0.888459 0.420555
O O1 0.126440 0.929776 0.250336
O O2 0.199194 0.122431 0.053204
O O3 0.325137 0.036223 0.125084
O O4 0.413762 0.791370 0.503556
O O5 0.604930 0.778738 0.430780
O O6 0.523051 0.716730 0.709391
O O7 0.578571 0.446979 0.069545
O O8 0.437813 0.234693 0.995758
O O9 0.368137 0.381889 0.134907
O O10 0.011872 0.802639 0.486066
#
# Coordination Sequence:
#
# PCOD9574962 Si02
#       5
#     6   6   6   6   6
#     4  12  26  48  74 108 150 203 251 316 393 457
#     4  10  23  48  78 110 155 205 257 321 400 468
#     4  11  21  40  67 108 146 201 253 310 378 454
#     4  11  22  38  70  99 150 196 257 304 375 454
#     4  12  28  48  81 119 157 202 267 328 389 472
#
# _framework density 23.539518999999999
#
# number of rings (size 3 to 8) (size 9 to 14) (size 15 to 20)
#    0.400    0.400    4.000    3.200    2.800    0.800 
#    0.000    0.000    0.000    0.000    0.000    0.000 
#    0.000    0.000    0.000    0.000    0.000    0.000 
#
# Total GULP energy -167230.273698 kJ/mol
# GULP energy per Si atom -5574.342457 kJ/mol
# Density = 2.348594 g / cm^3
# Si number density = 23.539519 Si / 1000 Ang^3
#
#
#
# Elastic Constant Matrix: (Units=GPa)
#
#
# Indices 1 2 3 4 5 6 
#
# 1 152.3476 73.7757 46.8372 -0.3136 -4.9526 0.0000
# 2 73.7757 152.3476 46.8372 0.3136 4.9526 0.0000
# 3 46.8372 46.8372 76.1295 0.0000 0.0000 0.0000
# 4 -0.3136 0.3136 0.0000 12.3871 0.0000 4.9526
# 5 -4.9526 4.9526 0.0000 0.0000 12.3871 -0.3136
# 6 0.0000 0.0000 0.0000 4.9526 -0.3136 39.2860
#
#
#
# Elastic Compliance Matrix: (Units=1/GPa)
#
#
# Indices 1 2 3 4 5 6 
#
# 1 0.009670 -0.003735 -0.003651 0.000339 0.005360 0.000000
# 2 -0.003735 0.009670 -0.003651 -0.000339 -0.005360 0.000000
# 3 -0.003651 -0.003651 0.017628 0.000000 0.000000 0.000000
# 4 0.000339 -0.000339 0.000000 0.085032 0.000000 -0.010720
# 5 0.005360 -0.005360 0.000000 0.000000 0.085032 0.000679
# 6 0.000000 0.000000 0.000000 -0.010720 0.000679 0.026811
#
#
# Mechanical properties :
#
#
# Convention : Reuss Voigt Hill
#
# Bulk Modulus (GPa) = 67.14635 79.52499 73.33567
# Shear Modulus (GPa) = 19.16552 27.03701 23.10126
#
# Velocity S-wave (km/s) = 2.85649 3.39275 3.13610
# Velocity P-wave (km/s) = 6.28222 7.01460 6.65848
#
# Compressibility (1/GPa) = 0.01489284
#
# Stress axis : x y z
#
# Youngs Moduli (GPa) = 103.40947 103.40947 56.72659
#
# Poissons Ratio (x) = 0.38626 0.20713
# Poissons Ratio (y) = 0.38626 0.20713
# Poissons Ratio (z) = 0.37759 0.37759
#
# Static dielectric constant tensor:
#      x y z
#    x 1.954820 0.000000 0.000000 
#    y 0.000000 1.954820 0.000000 
#    z 0.000000 0.000000 1.916120 
# 
# From -- ./inp_files/522.got.cif
#   From: 2010.05.17/outbox.cif.g08.bks.cpg/sg147_cif.got.tgz:522.got - 2010.05.20 13:49:32.
