data_PCOD9574750
_publ_section_title
;
Structure prediction by ZEFSAII (Michael W. Deem and Ramdas Pophale) SiO2 
 PCOD9574750
Probable space group: R 3
;
_chemical_formula_sum "Si O2"
_cell_formula_units_Z 45
_cell_length_a 10.131394
_cell_length_b 10.131394
_cell_length_c 21.814254
_cell_angle_alpha 90.000000
_cell_angle_beta 90.000000
_cell_angle_gamma 120.000000
_cell_volume 1939.141082
_symmetry_space_group_name_H-M "R 3"
_symmetry_group_IT_number 146
_symmetry_cell_setting 'hexagonal'
loop_
_space_group_symop_operation_xyz
x,y,z
-y,x-y,z
-x+y,-x,z
2/3+x,1/3+y,1/3+z
2/3-y,1/3+x-y,1/3+z
2/3-x+y,1/3-x,1/3+z
1/3+x,2/3+y,2/3+z
1/3-y,2/3+x-y,2/3+z
1/3-x+y,2/3-x,2/3+z
loop_
_atom_site_type_symbol
_atom_site_label
_atom_site_fract_x
_atom_site_fract_y
_atom_site_fract_z
Si Si1 0.512605 0.512605 0.112870
Si Si2 0.739017 0.650616 0.009728
Si Si3 0.707658 0.935692 0.048822
Si Si4 0.602359 0.040991 0.510251
Si Si5 0.594316 0.578266 0.882678
O O1 0.457558 0.367162 0.157681
O O2 0.367162 0.457558 0.068059
O O3 0.548757 0.654723 0.156271
O O4 0.916223 0.706803 0.007021
O O5 0.654723 0.548757 0.069469
O O6 0.713898 0.794521 0.021401
O O7 0.666667 0.572559 0.946203
O O8 0.801927 0.000000 0.112870
O O9 0.952769 0.413957 0.537673
O O10 0.750444 0.123914 0.552053
#
# Coordination Sequence:
#
# PCOD9574750 Si02
#       5
#     9   9   9   9   9
#     4  10  22  44  66  96 140 172 222 278 340 394
#     4  12  25  45  72 105 132 178 235 281 334 408
#     4  10  23  45  73  93 138 181 223 274 344 402
#     4  10  23  45  73  93 138 181 223 274 344 402
#     4  12  25  45  72 105 132 178 235 281 334 408
#
# _framework density 23.206150999999998
#
# number of rings (size 3 to 8) (size 9 to 14) (size 15 to 20)
#    1.200    0.000    4.000    0.800    5.600    0.000 
#   19.200    0.000    0.000    0.000    0.000    0.000 
#    0.000    0.000    0.000    0.000    0.000    0.000 
#
# Total GULP energy -83799.854999 kJ/mol
# GULP energy per Si atom -5586.657000 kJ/mol
# Density = 2.315333 g / cm^3
# Si number density = 23.206151 Si / 1000 Ang^3
#
#
#
# Elastic Constant Matrix: (Units=GPa)
#
#
# Indices 1 2 3 4 5 6 
#
# 1 82.7423 41.5387 5.9654 4.6916 0.0000 0.0000
# 2 41.5387 82.7423 5.9654 -4.6916 0.0000 0.0000
# 3 5.9654 5.9654 68.2004 0.0000 0.0000 0.0000
# 4 4.6916 -4.6916 0.0000 30.2461 0.0000 0.0000
# 5 0.0000 0.0000 0.0000 0.0000 30.2461 4.6916
# 6 0.0000 0.0000 0.0000 0.0000 4.6916 20.6018
#
#
#
# Elastic Compliance Matrix: (Units=1/GPa)
#
#
# Indices 1 2 3 4 5 6 
#
# 1 0.016636 -0.008522 -0.000710 -0.003902 0.000000 0.000000
# 2 -0.008522 0.016636 -0.000710 0.003902 0.000000 0.000000
# 3 -0.000710 -0.000710 0.014787 0.000000 0.000000 0.000000
# 4 -0.003902 0.003902 0.000000 0.034273 0.000000 0.000000
# 5 0.000000 0.000000 0.000000 0.000000 0.034273 -0.007805
# 6 0.000000 0.000000 0.000000 0.000000 -0.007805 0.050317
#
#
# Mechanical properties :
#
#
# Convention : Reuss Voigt Hill
#
# Bulk Modulus (GPa) = 35.49040 37.84711 36.66875
# Shear Modulus (GPa) = 25.48452 28.23313 26.85883
#
# Velocity S-wave (km/s) = 3.31747 3.49180 3.40575
# Velocity P-wave (km/s) = 5.47731 5.70976 5.59474
#
# Compressibility (1/GPa) = 0.02817664
#
# Stress axis : x y z
#
# Youngs Moduli (GPa) = 60.10904 60.10904 67.62768
#
# Poissons Ratio (x) = 0.51225 0.04800
# Poissons Ratio (y) = 0.51225 0.04800
# Poissons Ratio (z) = 0.04266 0.04266
#
# Static dielectric constant tensor:
#      x y z
#    x 1.877180 0.000000 0.000000 
#    y 0.000000 1.877180 0.000000 
#    z 0.000000 0.000000 1.888020 
# 
# From -- ./inp_files/1886.got.cif
#   From: 2010.05.17/outbox.cif.g08.bks.cpg/sg146_cif.got.tgz:1886.got - 2010.05.20 13:48:23.
