data_PCOD9574695
_publ_section_title
;
Structure prediction by ZEFSAII (Michael W. Deem and Ramdas Pophale) SiO2 
 PCOD9574695
Probable space group: R 3
;
_chemical_formula_sum "Si O2"
_cell_formula_units_Z 33
_cell_length_a 13.663924
_cell_length_b 13.663924
_cell_length_c 7.745664
_cell_angle_alpha 90.000000
_cell_angle_beta 90.000000
_cell_angle_gamma 120.000000
_cell_volume 1252.391643
_symmetry_space_group_name_H-M "R 3"
_symmetry_group_IT_number 146
_symmetry_cell_setting 'hexagonal'
loop_
_space_group_symop_operation_xyz
x,y,z
-y,x-y,z
-x+y,-x,z
2/3+x,1/3+y,1/3+z
2/3-y,1/3+x-y,1/3+z
2/3-x+y,1/3-x,1/3+z
1/3+x,2/3+y,2/3+z
1/3-y,2/3+x-y,2/3+z
1/3-x+y,2/3-x,2/3+z
loop_
_atom_site_type_symbol
_atom_site_label
_atom_site_fract_x
_atom_site_fract_y
_atom_site_fract_z
Si Si1 0.666667 0.333335 0.329326
Si Si2 0.000000 0.000000 0.411626
Si Si3 0.787653 0.666664 0.870470
Si Si4 0.795118 0.580189 0.226984
Si Si5 0.246851 0.128453 0.513961
O O1 0.666668 0.333334 0.537143
O O2 0.765950 0.452724 0.259533
O O3 0.979900 0.880613 0.481417
O O4 0.767120 0.770432 0.914491
O O5 0.866612 0.701416 0.703417
O O6 0.663355 0.562894 0.826449
O O7 0.831864 0.631919 0.037526
O O8 0.874547 0.666669 0.370471
#
# Coordination Sequence:
#
# PCOD9574695 Si02
#       5
#     3   3   9   9   9
#     4  12  27  40  77 118 160 209 271 331 386 490
#     4  12  27  40  77 118 160 209 271 331 386 490
#     4  10  20  36  76  92 136 210 246 314 382 460
#     4  11  21  44  69 106 145 205 264 315 401 459
#     4  11  21  44  69 106 145 205 264 315 401 459
#
# _framework density 26.349588000000001
#
# number of rings (size 3 to 8) (size 9 to 14) (size 15 to 20)
#    0.000    1.091    5.455    3.273    0.000    8.727 
#    0.000    5.455   18.000    0.000    0.000    0.000 
#    0.000    0.000    0.000    0.000    0.000    0.000 
#
# Total GULP energy -61745.591470 kJ/mol
# GULP energy per Si atom -5613.235588 kJ/mol
# Density = 2.628961 g / cm^3
# Si number density = 26.349588 Si / 1000 Ang^3
#
#
#
# Elastic Constant Matrix: (Units=GPa)
#
#
# Indices 1 2 3 4 5 6 
#
# 1 131.5801 28.5337 61.6154 1.8033 0.0008 0.0007
# 2 28.5337 131.5805 61.6161 -1.8034 -0.0004 0.0004
# 3 61.6154 61.6161 294.3125 -0.0001 -0.0003 0.0001
# 4 1.8033 -1.8034 -0.0001 19.4271 0.0005 -0.0011
# 5 0.0008 -0.0004 -0.0003 0.0005 19.4273 1.8030
# 6 0.0007 0.0004 0.0001 -0.0011 1.8030 51.5231
#
#
#
# Elastic Compliance Matrix: (Units=1/GPa)
#
#
# Indices 1 2 3 4 5 6 
#
# 1 0.008591 -0.001145 -0.001559 -0.000904 0.000000 0.000000
# 2 -0.001145 0.008591 -0.001559 0.000904 0.000000 0.000000
# 3 -0.001559 -0.001559 0.004050 0.000000 0.000000 0.000000
# 4 -0.000904 0.000904 0.000000 0.051642 -0.000001 0.000001
# 5 0.000000 0.000000 0.000000 -0.000001 0.051642 -0.001807
# 6 0.000000 0.000000 0.000000 0.000001 -0.001807 0.019472
#
#
# Mechanical properties :
#
#
# Convention : Reuss Voigt Hill
#
# Bulk Modulus (GPa) = 78.70285 95.66706 87.18496
# Shear Modulus (GPa) = 31.89829 45.12271 38.51050
#
# Velocity S-wave (km/s) = 3.48311 4.14268 3.82713
# Velocity P-wave (km/s) = 6.79041 7.69858 7.25871
#
# Compressibility (1/GPa) = 0.01270602
#
# Stress axis : x y z
#
# Youngs Moduli (GPa) = 116.40649 116.40658 246.89007
#
# Poissons Ratio (x) = 0.13333 0.38482
# Poissons Ratio (y) = 0.13333 0.38483
# Poissons Ratio (z) = 0.18144 0.18144
#
# Static dielectric constant tensor:
#      x y z
#    x 2.018010 0.000000 0.000000 
#    y 0.000000 2.018010 0.000000 
#    z 0.000000 0.000000 1.998650 
# 
# From -- ./inp_files/545.got.cif
#   From: 2010.05.17/outbox.cif.g08.bks.cpg/sg146_cif.got.tgz:545.got - 2010.05.20 13:48:23.
