data_PCOD9574759
_publ_section_title
;
Structure prediction by ZEFSAII (Michael W. Deem and Ramdas Pophale) SiO2 
 PCOD9574759
Probable space group: R 3
;
_chemical_formula_sum "Si O2"
_cell_formula_units_Z 60
_cell_length_a 16.139762
_cell_length_b 16.139762
_cell_length_c 11.769096
_cell_angle_alpha 90.000000
_cell_angle_beta 90.000000
_cell_angle_gamma 120.000000
_cell_volume 2655.021178
_symmetry_space_group_name_H-M "R 3"
_symmetry_group_IT_number 146
_symmetry_cell_setting 'hexagonal'
loop_
_space_group_symop_operation_xyz
x,y,z
-y,x-y,z
-x+y,-x,z
2/3+x,1/3+y,1/3+z
2/3-y,1/3+x-y,1/3+z
2/3-x+y,1/3-x,1/3+z
1/3+x,2/3+y,2/3+z
1/3-y,2/3+x-y,2/3+z
1/3-x+y,2/3-x,2/3+z
loop_
_atom_site_type_symbol
_atom_site_label
_atom_site_fract_x
_atom_site_fract_y
_atom_site_fract_z
Si Si1 0.675993 0.753317 0.719450
Si Si2 0.789208 0.945291 0.853446
Si Si3 0.666668 0.333335 0.460958
Si Si4 0.469177 0.197665 0.419114
Si Si5 0.333335 0.666667 0.513054
Si Si6 0.340703 0.258213 0.720045
Si Si7 0.226302 0.391744 0.150282
Si Si8 0.041370 0.247782 0.471246
O O1 0.712181 0.840595 0.806748
O O2 0.561462 0.697804 0.701841
O O3 0.733417 0.795463 0.604598
O O4 0.695713 0.669738 0.760978
O O5 0.760793 0.023096 0.817170
O O6 0.800101 0.930973 0.986254
O O7 0.895402 0.976637 0.807348
O O8 0.561488 0.255686 0.495074
O O9 0.666668 0.333334 0.319979
O O10 0.373660 0.166229 0.486820
O O11 0.277201 0.213690 0.606401
O O12 0.423772 0.369028 0.724166
O O13 0.400346 0.205367 0.747175
O O14 0.187498 0.464636 0.124515
#
# Coordination Sequence:
#
# PCOD9574759 Si02
#       8
#     9   9   3   9   3   9   9   9
#     4  11  21  39  67  94 132 174 218 273 335 401
#     4  11  22  39  69  98 131 169 217 282 336 394
#     4   9  21  39  60  93 124 152 214 273 336 390
#     4  10  23  39  65  96 130 167 217 277 340 400
#     4   9  21  36  60  99 124 155 211 270 324 393
#     4  12  25  45  68  97 133 174 227 278 338 397
#     4  11  26  45  65  97 133 173 229 273 333 412
#     4  11  23  44  66  92 133 178 219 272 334 407
#
# _framework density 22.598690000000001
#
# number of rings (size 3 to 8) (size 9 to 14) (size 15 to 20)
#    0.000    1.200    3.000    2.700    6.300    0.000 
#    3.600    0.000    0.000    0.000    0.000    0.000 
#    0.000    0.000    0.000    0.000    0.000    0.000 
#
# Total GULP energy -111686.054336 kJ/mol
# GULP energy per Si atom -5584.302717 kJ/mol
# Density = 2.254725 g / cm^3
# Si number density = 22.598690 Si / 1000 Ang^3
#
#
#
# Elastic Constant Matrix: (Units=GPa)
#
#
# Indices 1 2 3 4 5 6 
#
# 1 101.4585 48.6391 -13.9553 -0.9294 -4.2566 -0.0001
# 2 48.6391 101.4590 -13.9563 0.9291 4.2562 -0.0003
# 3 -13.9553 -13.9563 27.1707 -0.0001 -0.0001 -0.0005
# 4 -0.9294 0.9291 -0.0001 23.1537 0.0003 4.2556
# 5 -4.2566 4.2562 -0.0001 0.0003 23.1541 -0.9291
# 6 -0.0001 -0.0003 -0.0005 4.2556 -0.9291 26.4090
#
#
#
# Elastic Compliance Matrix: (Units=1/GPa)
#
#
# Indices 1 2 3 4 5 6 
#
# 1 0.013452 -0.006086 0.003783 0.000784 0.003592 0.000000
# 2 -0.006086 0.013452 0.003784 -0.000784 -0.003592 0.000000
# 3 0.003783 0.003784 0.040691 0.000000 0.000000 0.000001
# 4 0.000784 -0.000784 0.000000 0.044573 0.000000 -0.007182
# 5 0.003592 -0.003592 0.000000 0.000000 0.044572 0.001568
# 6 0.000000 0.000000 0.000001 -0.007182 0.001568 0.039078
#
#
# Mechanical properties :
#
#
# Convention : Reuss Voigt Hill
#
# Bulk Modulus (GPa) = 14.17313 30.17146 22.17229
# Shear Modulus (GPa) = 23.10780 28.50076 25.80428
#
# Velocity S-wave (km/s) = 3.20117 3.55515 3.38279
# Velocity P-wave (km/s) = 4.46638 5.49837 5.00902
#
# Compressibility (1/GPa) = 0.07055604
#
# Stress axis : x y z
#
# Youngs Moduli (GPa) = 74.33663 74.33639 24.57554
#
# Poissons Ratio (x) = 0.45245 -0.09297
# Poissons Ratio (y) = 0.45245 -0.09299
# Poissons Ratio (z) = -0.28122 -0.28127
#
# Static dielectric constant tensor:
#      x y z
#    x 1.871540 0.000000 0.000000 
#    y 0.000000 1.871540 0.000000 
#    z 0.000000 0.000000 1.877490 
# 
# From -- ./inp_files/1550.got.cif
#   From: 2010.05.17/outbox.cif.g08.bks.cpg/sg146_cif.got.tgz:1550.got - 2010.05.20 13:48:23.
