data_PCOD9574115
_publ_section_title
;
Structure prediction by ZEFSAII (Michael W. Deem and Ramdas Pophale) SiO2 
 PCOD9574115
Probable space group: I 41/A C D
;
_chemical_formula_sum "Si O2"
_cell_formula_units_Z 160
_cell_length_a 20.577352
_cell_length_b 20.577352
_cell_length_c 17.370755
_cell_angle_alpha 90.000000
_cell_angle_beta 90.000000
_cell_angle_gamma 90.000000
_cell_volume 7355.253892
_symmetry_space_group_name_H-M "I 41/A C D"
_symmetry_group_IT_number 142
_space_group.IT_coordinate_system_code '2'
_symmetry_cell_setting 'tetragonal'
loop_
_space_group_symop_operation_xyz
x,y,z
1/4-y,3/4+x,1/4+z
-x,1/2-y,z
1/4+y,1/4-x,3/4+z
x,-y,1/2-z
1/2-x,y,-z
3/4+y,1/4+x,1/4-z
1/4-y,1/4-x,1/4-z
-x,-y,-z
3/4+y,1/4-x,3/4-z
x,1/2+y,-z
3/4-y,3/4+x,1/4-z
-x,y,1/2+z
1/2+x,-y,z
1/4-y,3/4-x,3/4+z
3/4+y,3/4+x,3/4+z
1/2+x,1/2+y,1/2+z
3/4-y,1/4+x,3/4+z
1/2-x,-y,1/2+z
3/4+y,3/4-x,1/4+z
1/2+x,1/2-y,-z
-x,1/2+y,1/2-z
1/4+y,3/4+x,3/4-z
3/4-y,3/4-x,3/4-z
1/2-x,1/2-y,1/2-z
1/4+y,3/4-x,1/4-z
1/2+x,y,1/2-z
1/4-y,1/4+x,3/4-z
1/2-x,1/2+y,z
x,1/2-y,1/2+z
3/4-y,1/4-x,1/4+z
1/4+y,1/4+x,1/4+z
loop_
_atom_site_type_symbol
_atom_site_label
_atom_site_fract_x
_atom_site_fract_y
_atom_site_fract_z
Si Si1 0.387351 0.176947 0.069683
Si Si2 0.373552 0.200850 0.811444
Si Si3 0.581248 0.186620 0.010421
Si Si4 0.990370 0.497124 0.343307
Si Si5 0.292326 0.124274 0.429963
O O1 0.415471 0.235529 0.016211
O O2 0.424469 0.165540 0.148357
O O3 0.318129 0.199444 0.102984
O O4 0.400044 0.118657 0.009939
O O5 0.421084 0.171084 0.875000
O O6 0.401717 0.269206 0.778029
O O7 0.305792 0.212140 0.856298
O O8 0.644147 0.160350 0.965631
O O9 0.987065 0.500000 0.250000
O O10 0.067814 0.500502 0.359058
O O11 0.250000 0.097736 0.500000
O O12 0.319077 0.069077 0.375000
#
# Coordination Sequence:
#
# PCOD9574115 Si02
#       5
#    32  32  32  32  32
#     4  12  25  42  63 103 147 182 235 307 364 436
#     4  12  24  39  68 101 141 192 236 297 377 437
#     4  12  24  40  65 105 144 180 230 306 370 426
#     4  11  22  42  66  99 141 184 238 293 362 437
#     4  11  22  43  71 101 136 189 247 291 353 438
#
# _framework density 21.753159
#
# number of rings (size 3 to 8) (size 9 to 14) (size 15 to 20)
#    0.000    0.400   10.000    0.600    0.000    3.200 
#    3.600    0.000    0.000    2.400    0.000    0.000 
#    0.000    0.000    0.000    0.000    0.000    0.000 
#
# Total GULP energy -446434.967908 kJ/mol
# GULP energy per Si atom -5580.437099 kJ/mol
# Density = 2.170365 g / cm^3
# Si number density = 21.753159 Si / 1000 Ang^3
#
#
#
# Elastic Constant Matrix: (Units=GPa)
#
#
# Indices 1 2 3 4 5 6 
#
# 1 84.2052 47.8563 59.1270 0.0000 0.0000 0.0000
# 2 47.8563 84.2052 59.1270 0.0000 0.0000 0.0000
# 3 59.1270 59.1270 140.2324 0.0000 0.0000 0.0000
# 4 0.0000 0.0000 0.0000 69.1348 0.0000 0.0000
# 5 0.0000 0.0000 0.0000 0.0000 69.1348 0.0000
# 6 0.0000 0.0000 0.0000 0.0000 0.0000 27.6524
#
#
#
# Elastic Compliance Matrix: (Units=1/GPa)
#
#
# Indices 1 2 3 4 5 6 
#
# 1 0.019838 -0.007673 -0.005129 0.000000 0.000000 0.000000
# 2 -0.007673 0.019838 -0.005129 0.000000 0.000000 0.000000
# 3 -0.005129 -0.005129 0.011456 0.000000 0.000000 0.000000
# 4 0.000000 0.000000 0.000000 0.014465 0.000000 0.000000
# 5 0.000000 0.000000 0.000000 0.000000 0.014465 0.000000
# 6 0.000000 0.000000 0.000000 0.000000 0.000000 0.036163
#
#
# Mechanical properties :
#
#
# Convention : Reuss Voigt Hill
#
# Bulk Modulus (GPa) = 65.48921 71.20706 68.34814
# Shear Modulus (GPa) = 31.81105 42.68655 37.24880
#
# Velocity S-wave (km/s) = 3.82824 4.43461 4.14253
# Velocity P-wave (km/s) = 7.05064 7.68285 7.37352
#
# Compressibility (1/GPa) = 0.01526969
#
# Stress axis : x y z
#
# Youngs Moduli (GPa) = 50.40781 50.40781 87.28735
#
# Poissons Ratio (x) = 0.38678 0.44772
# Poissons Ratio (y) = 0.38678 0.44772
# Poissons Ratio (z) = 0.25856 0.25856
#
# Static dielectric constant tensor:
#      x y z
#    x 1.893770 0.000000 0.000000 
#    y 0.000000 1.893770 0.000000 
#    z 0.000000 0.000000 1.822080 
# 
# From -- ./inp_files/7374.got.cif
#   From: 2010.05.17/outbox.cif.g08.bks.cpg/sg142_4_cif.got.tgz:7374.got - 2010.05.20 13:39:18.
