data_PCOD9574899
_publ_section_title
;
Structure prediction by ZEFSAII (Michael W. Deem and Ramdas Pophale) SiO2 
 PCOD9574899
Probable space group: P -3
;
_chemical_formula_sum "Si O2"
_cell_formula_units_Z 42
_cell_length_a 12.667510
_cell_length_b 12.667510
_cell_length_c 18.270508
_cell_angle_alpha 90.000000
_cell_angle_beta 90.000000
_cell_angle_gamma 120.000000
_cell_volume 2539.006228
_symmetry_space_group_name_H-M "P -3"
_symmetry_group_IT_number 147
_symmetry_cell_setting 'hexagonal'
loop_
_space_group_symop_operation_xyz
x,y,z
-y,x-y,z
-x+y,-x,z
-x,-y,-z
y,-x+y,-z
x-y,x,-z
loop_
_atom_site_type_symbol
_atom_site_label
_atom_site_fract_x
_atom_site_fract_y
_atom_site_fract_z
Si Si1 0.916988 0.332842 0.357222
Si Si2 0.748646 0.748854 0.214760
Si Si3 0.748603 0.000005 0.500004
Si Si4 0.415569 0.333274 0.928489
Si Si5 0.584146 0.667158 0.642771
Si Si6 0.748641 0.999783 0.214768
Si Si7 0.415574 0.082290 0.928482
O O1 0.978349 0.314501 0.284897
O O2 0.776698 0.223302 0.357182
O O3 0.924795 0.462397 0.358004
O O4 0.978899 0.312704 0.428698
O O5 0.668428 0.689903 0.142379
O O6 0.760476 0.880234 0.225611
O O7 0.881065 0.762122 0.206505
O O8 0.687291 0.021111 0.428711
O O9 0.880692 0.119315 0.509242
O O10 0.429018 0.214506 0.938368
O O11 0.546739 0.453253 0.918057
O O12 0.355136 0.355128 0.000007
O O13 0.663863 0.685503 0.715090
O O14 0.668411 0.978517 0.142392
#
# Coordination Sequence:
#
# PCOD9574899 Si02
#       7
#     6   6   6   6   6   6   6
#     4  10  20  34  52  74 101 133 168 206 248 295
#     4  10  20  34  53  76 102 132 166 206 251 299
#     4  10  20  34  54  78 104 134 168 208 252 298
#     4  10  20  34  52  74 101 133 169 209 253 301
#     4  10  20  34  52  74 101 133 168 206 248 295
#     4  10  20  34  53  76 102 132 166 206 251 299
#     4  10  20  34  52  74 101 133 169 209 253 301
#
# _framework density 16.541905
#
# number of rings (size 3 to 8) (size 9 to 14) (size 15 to 20)
#    0.000    2.000    0.000    4.000    0.000    0.000 
#    0.000    2.857    0.000   21.714    0.000    0.000 
#    0.000    0.000    0.000    0.000    0.000    0.000 
#
# Total GULP energy -234509.969345 kJ/mol
# GULP energy per Si atom -5583.570699 kJ/mol
# Density = 1.650426 g / cm^3
# Si number density = 16.541905 Si / 1000 Ang^3
#
#
#
# Elastic Constant Matrix: (Units=GPa)
#
#
# Indices 1 2 3 4 5 6 
#
# 1 148.0896 108.8634 109.7080 -2.9359 -0.0005 0.0000
# 2 108.8634 148.0896 109.7080 2.9359 0.0005 0.0000
# 3 109.7080 109.7080 163.1638 0.0000 0.0000 0.0000
# 4 -2.9359 2.9359 0.0000 24.0517 0.0000 0.0005
# 5 -0.0005 0.0005 0.0000 0.0000 24.0517 -2.9359
# 6 0.0000 0.0000 0.0000 0.0005 -2.9359 19.6131
#
#
#
# Elastic Compliance Matrix: (Units=1/GPa)
#
#
# Indices 1 2 3 4 5 6 
#
# 1 0.017553 -0.008414 -0.006145 0.003170 0.000001 0.000000
# 2 -0.008414 0.017553 -0.006145 -0.003170 -0.000001 0.000000
# 3 -0.006145 -0.006145 0.014392 0.000000 0.000000 0.000000
# 4 0.003170 -0.003170 0.000000 0.042351 0.000000 -0.000001
# 5 0.000001 -0.000001 0.000000 0.000000 0.042351 0.006340
# 6 0.000000 0.000000 0.000000 -0.000001 0.006340 0.051935
#
#
# Mechanical properties :
#
#
# Convention : Reuss Voigt Hill
#
# Bulk Modulus (GPa) = 123.59928 123.98912 123.79420
# Shear Modulus (GPa) = 21.71640 22.28089 21.99864
#
# Velocity S-wave (km/s) = 3.62720 3.67404 3.65070
# Velocity P-wave (km/s) = 9.61370 9.64963 9.63168
#
# Compressibility (1/GPa) = 0.00809066
#
# Stress axis : x y z
#
# Youngs Moduli (GPa) = 56.96937 56.96937 69.48248
#
# Poissons Ratio (x) = 0.47936 0.42696
# Poissons Ratio (y) = 0.47936 0.42696
# Poissons Ratio (z) = 0.35007 0.35007
#
# Static dielectric constant tensor:
#      x y z
#    x 1.523590 0.000000 0.000000 
#    y 0.000000 1.523590 0.000000 
#    z 0.000000 0.000000 1.533120 
# 
# From -- ./inp_files/1025.got.cif
#   From: 2010.05.17/outbox.cif.g08.bks.cpg/sg147_cif.got.tgz:1025.got - 2010.05.20 13:49:32.
