data_PCOD9574892
_publ_section_title
;
Structure prediction by ZEFSAII (Michael W. Deem and Ramdas Pophale) SiO2 
 PCOD9574892
Probable space group: P -3
;
_chemical_formula_sum "Si O2"
_cell_formula_units_Z 42
_cell_length_a 12.969347
_cell_length_b 12.969347
_cell_length_c 18.283215
_cell_angle_alpha 90.000000
_cell_angle_beta 90.000000
_cell_angle_gamma 120.000000
_cell_volume 2663.295886
_symmetry_space_group_name_H-M "P -3"
_symmetry_group_IT_number 147
_symmetry_cell_setting 'hexagonal'
loop_
_space_group_symop_operation_xyz
x,y,z
-y,x-y,z
-x+y,-x,z
-x,-y,-z
y,-x+y,-z
x-y,x,-z
loop_
_atom_site_type_symbol
_atom_site_label
_atom_site_fract_x
_atom_site_fract_y
_atom_site_fract_z
Si Si1 0.088673 0.421489 0.936284
Si Si2 0.667184 0.578560 0.636948
Si Si3 0.333673 0.422566 0.770178
Si Si4 0.911375 0.578560 0.636948
Si Si5 0.754740 0.000000 0.500000
Si Si6 0.088893 0.422566 0.770178
Si Si7 0.667184 0.578511 0.063716
O O1 0.045253 0.380813 0.853182
O O2 0.214045 0.428090 0.943853
O O3 0.105638 0.552819 0.943792
O O4 0.000000 0.343044 0.000000
O O5 0.779130 0.558260 0.645162
O O6 0.546138 0.453862 0.623944
O O7 0.696129 0.668778 0.569559
O O8 0.647532 0.636743 0.709636
O O9 0.363257 0.352468 0.709636
O O10 0.207377 0.414755 0.757549
O O11 0.439893 0.560107 0.766112
O O12 0.335560 0.380813 0.853182
O O13 0.972649 0.668778 0.569559
O O14 0.883462 0.116538 0.487540
#
# Coordination Sequence:
#
# PCOD9574892 Si02
#       7
#     6   6   6   6   6   6   6
#     4   9  17  29  46  68  93 121 153 190 231 274
#     4  10  20  33  49  70  97 126 154 186 228 278
#     4   9  17  30  48  69  92 119 153 192 232 273
#     4  10  20  33  49  70  97 126 154 186 228 278
#     4  10  20  34  52  72  94 122 158 198 234 268
#     4   9  17  30  48  69  92 119 153 192 232 273
#     4   9  17  29  46  68  93 121 153 190 231 274
#
# _framework density 15.769933
#
# number of rings (size 3 to 8) (size 9 to 14) (size 15 to 20)
#    0.000    2.571    0.000    2.286    0.000    3.429 
#    0.000    0.000    0.000   13.429    0.000    0.000 
#    0.000    0.000    0.000    0.000    0.000    0.000 
#
# Total GULP energy -234092.385967 kJ/mol
# GULP energy per Si atom -5573.628237 kJ/mol
# Density = 1.573404 g / cm^3
# Si number density = 15.769933 Si / 1000 Ang^3
#
#
#
# Elastic Constant Matrix: (Units=GPa)
#
#
# Indices 1 2 3 4 5 6 
#
# 1 99.1072 58.4578 81.7898 -2.8235 0.0000 0.0000
# 2 58.4578 99.1072 81.7898 2.8235 0.0000 0.0000
# 3 81.7898 81.7898 136.0452 0.0000 0.0000 0.0000
# 4 -2.8235 2.8235 0.0000 27.4182 0.0000 0.0000
# 5 0.0000 0.0000 0.0000 0.0000 27.4182 -2.8235
# 6 0.0000 0.0000 0.0000 0.0000 -2.8235 20.3247
#
#
#
# Elastic Compliance Matrix: (Units=1/GPa)
#
#
# Indices 1 2 3 4 5 6 
#
# 1 0.020922 -0.004036 -0.010152 0.002570 0.000000 0.000000
# 2 -0.004036 0.020922 -0.010152 -0.002570 0.000000 0.000000
# 3 -0.010152 -0.010152 0.019557 0.000000 0.000000 0.000000
# 4 0.002570 -0.002570 0.000000 0.037002 0.000000 0.000000
# 5 0.000000 0.000000 0.000000 0.000000 0.037002 0.005140
# 6 0.000000 0.000000 0.000000 0.000000 0.005140 0.049915
#
#
# Mechanical properties :
#
#
# Convention : Reuss Voigt Hill
#
# Bulk Modulus (GPa) = 78.60605 86.48160 82.54383
# Shear Modulus (GPa) = 20.98747 22.51368 21.75057
#
# Velocity S-wave (km/s) = 3.65204 3.78250 3.71785
# Velocity P-wave (km/s) = 8.23025 8.60436 8.41938
#
# Compressibility (1/GPa) = 0.01272167
#
# Stress axis : x y z
#
# Youngs Moduli (GPa) = 47.79729 47.79729 51.13329
#
# Poissons Ratio (x) = 0.19291 0.51909
# Poissons Ratio (y) = 0.19291 0.51909
# Poissons Ratio (z) = 0.48522 0.48522
#
# Static dielectric constant tensor:
#      x y z
#    x 1.496390 0.000000 0.000000 
#    y 0.000000 1.496390 0.000000 
#    z 0.000000 0.000000 1.530920 
# 
# From -- ./inp_files/1021.got.cif
#   From: 2010.05.17/outbox.cif.g08.bks.cpg/sg147_cif.got.tgz:1021.got - 2010.05.20 13:49:32.
