data_PCOD9574939
_publ_section_title
;
Structure prediction by ZEFSAII (Michael W. Deem and Ramdas Pophale) SiO2 
 PCOD9574939
Probable space group: P -3
;
_chemical_formula_sum "Si O2"
_cell_formula_units_Z 36
_cell_length_a 14.778049
_cell_length_b 14.778049
_cell_length_c 7.290113
_cell_angle_alpha 90.000000
_cell_angle_beta 90.000000
_cell_angle_gamma 120.000000
_cell_volume 1378.793084
_symmetry_space_group_name_H-M "P -3"
_symmetry_group_IT_number 147
_symmetry_cell_setting 'hexagonal'
loop_
_space_group_symop_operation_xyz
x,y,z
-y,x-y,z
-x+y,-x,z
-x,-y,-z
y,-x+y,-z
x-y,x,-z
loop_
_atom_site_type_symbol
_atom_site_label
_atom_site_fract_x
_atom_site_fract_y
_atom_site_fract_z
Si Si1 0.425419 0.353851 0.966571
Si Si2 0.401596 0.799118 0.436820
Si Si3 0.625442 0.479723 0.169315
Si Si4 0.642529 0.619377 0.628583
Si Si5 0.087575 0.239310 0.957283
Si Si6 0.634322 0.811027 0.616042
O O1 0.550414 0.402359 0.005531
O O2 0.374404 0.364266 0.158807
O O3 0.345458 0.232354 0.928950
O O4 0.407459 0.431174 0.837364
O O5 0.281263 0.725666 0.381676
O O6 0.404692 0.809651 0.656599
O O7 0.493996 0.912482 0.386882
O O8 0.747495 0.552985 0.224096
O O9 0.609718 0.698729 0.537539
O O10 0.751503 0.647341 0.532870
O O11 0.112620 0.264301 0.741635
O O12 0.158763 0.193034 0.022300
#
# Coordination Sequence:
#
# PCOD9574939 Si02
#       6
#     6   6   6   6   6   6
#     4  10  23  42  72 102 139 181 248 312 381 457
#     4   9  22  40  67  94 142 191 243 302 381 446
#     4  10  21  44  68 105 132 185 241 309 384 444
#     4  10  23  44  67 104 143 190 242 307 379 449
#     4  11  23  42  71 105 147 203 256 309 376 439
#     4  10  23  43  68 104 144 192 249 307 374 459
#
# _framework density 26.10979
#
# number of rings (size 3 to 8) (size 9 to 14) (size 15 to 20)
#    0.333    1.667    1.667    0.167    9.333    5.333 
#    0.000    5.000    0.000    4.333    0.000    0.000 
#    0.000    0.000    0.000    0.000    0.000    0.000 
#
# Total GULP energy -200407.811443 kJ/mol
# GULP energy per Si atom -5566.883651 kJ/mol
# Density = 2.605036 g / cm^3
# Si number density = 26.109790 Si / 1000 Ang^3
#
#
#
# Elastic Constant Matrix: (Units=GPa)
#
#
# Indices 1 2 3 4 5 6 
#
# 1 175.7359 53.0673 37.8876 -5.3851 4.4403 0.0000
# 2 53.0673 175.7359 37.8876 5.3851 -4.4403 0.0000
# 3 37.8876 37.8876 49.1864 0.0000 0.0000 0.0000
# 4 -5.3851 5.3851 0.0000 44.8182 0.0000 -4.4403
# 5 4.4403 -4.4403 0.0000 0.0000 44.8182 -5.3851
# 6 0.0000 0.0000 0.0000 -4.4403 -5.3851 61.3343
#
#
#
# Elastic Compliance Matrix: (Units=1/GPa)
#
#
# Indices 1 2 3 4 5 6 
#
# 1 0.007083 -0.001216 -0.004520 0.000997 -0.000822 0.000000
# 2 -0.001216 0.007083 -0.004520 -0.000997 0.000822 0.000000
# 3 -0.004520 -0.004520 0.027294 0.000000 0.000000 0.000000
# 4 0.000997 -0.000997 0.000000 0.022715 0.000000 0.001644
# 5 -0.000822 0.000822 0.000000 0.000000 0.022715 0.001994
# 6 0.000000 0.000000 0.000000 0.001644 0.001994 0.016598
#
#
# Mechanical properties :
#
#
# Convention : Reuss Voigt Hill
#
# Bulk Modulus (GPa) = 47.73256 73.14923 60.44089
# Shear Modulus (GPa) = 38.17338 48.31518 43.24428
#
# Velocity S-wave (km/s) = 3.82780 4.30637 4.07412
# Velocity P-wave (km/s) = 6.15283 7.26658 6.73277
#
# Compressibility (1/GPa) = 0.02095006
#
# Stress axis : x y z
#
# Youngs Moduli (GPa) = 141.17845 141.17845 36.63876
#
# Poissons Ratio (x) = 0.17166 0.16559
# Poissons Ratio (y) = 0.17166 0.16559
# Poissons Ratio (z) = 0.63806 0.63806
#
# Static dielectric constant tensor:
#      x y z
#    x 2.148430 0.000000 0.000000 
#    y 0.000000 2.148430 0.000000 
#    z 0.000000 0.000000 2.092420 
# 
# From -- ./inp_files/610.got.cif
#   From: 2010.05.17/outbox.cif.g08.bks.cpg/sg147_cif.got.tgz:610.got - 2010.05.20 13:49:32.
