data_PCOD9574247
_publ_section_title
;
Structure prediction by ZEFSAII (Michael W. Deem and Ramdas Pophale) SiO2 
 PCOD9574247
Probable space group: I 41/A C D
;
_chemical_formula_sum "Si O2"
_cell_formula_units_Z 88
_cell_length_a 24.000000
_cell_length_b 24.000000
_cell_length_c 15.000000
_cell_angle_alpha 90.000000
_cell_angle_beta 90.000000
_cell_angle_gamma 90.000000
_cell_volume 8640.000000
_symmetry_space_group_name_H-M "I 41/A C D"
_symmetry_group_IT_number 142
_space_group.IT_coordinate_system_code '2'
_symmetry_cell_setting 'tetragonal'
loop_
_space_group_symop_operation_xyz
x,y,z
1/4-y,3/4+x,1/4+z
-x,1/2-y,z
1/4+y,1/4-x,3/4+z
x,-y,1/2-z
1/2-x,y,-z
3/4+y,1/4+x,1/4-z
1/4-y,1/4-x,1/4-z
-x,-y,-z
3/4+y,1/4-x,3/4-z
x,1/2+y,-z
3/4-y,3/4+x,1/4-z
-x,y,1/2+z
1/2+x,-y,z
1/4-y,3/4-x,3/4+z
3/4+y,3/4+x,3/4+z
1/2+x,1/2+y,1/2+z
3/4-y,1/4+x,3/4+z
1/2-x,-y,1/2+z
3/4+y,3/4-x,1/4+z
1/2+x,1/2-y,-z
-x,1/2+y,1/2-z
1/4+y,3/4+x,3/4-z
3/4-y,3/4-x,3/4-z
1/2-x,1/2-y,1/2-z
1/4+y,3/4-x,1/4-z
1/2+x,y,1/2-z
1/4-y,1/4+x,3/4-z
1/2-x,1/2+y,z
x,1/2-y,1/2+z
3/4-y,1/4-x,1/4+z
1/4+y,1/4+x,1/4+z
loop_
_atom_site_type_symbol
_atom_site_label
_atom_site_fract_x
_atom_site_fract_y
_atom_site_fract_z
Si Si1 0.623220 0.743980 0.261097
Si Si2 0.660786 0.555541 0.442412
Si Si3 0.016233 0.582024 0.314185
Si Si4 0.426884 0.857875 0.809976
Si Si5 0.714689 0.535312 0.625000
Si Si6 0.950441 0.536014 0.634282
O O1 0.634366 0.724392 0.158377
O O2 0.603683 0.701639 0.339349
O O3 0.582182 0.797013 0.267118
O O4 0.679181 0.769644 0.306404
O O5 0.639902 0.618552 0.430231
O O6 0.671136 0.546278 0.546479
O O7 0.721053 0.543626 0.401590
O O8 0.610913 0.519510 0.400043
O O9 0.012435 0.518070 0.346306
O O10 0.056433 0.572202 0.226319
O O11 0.964464 0.608156 0.260593
#
# Coordination Sequence:
#
# PCOD9574247 Si02
#       6
#    32  32  32  32  16  32
#     4  10  21  39  62  92 128 171 212 274 330 387
#     4  10  23  41  61  94 134 171 215 268 321 406
#     4  10  20  37  64  96 121 172 212 270 333 376
#     4  10  23  40  63  95 129 166 225 271 330 396
#     4  10  24  40  66  96 128 185 211 250 348 390
#     4   9  21  37  60  97 129 163 222 264 326 392
#
# _framework density 10.185185000000001
#
# number of rings (size 3 to 8) (size 9 to 14) (size 15 to 20)
#    0.000    2.182    0.000    1.091    7.636    9.091 
#    0.000    8.182    0.000    6.545    0.000    0.000 
#    0.000    0.000    0.000    0.000    0.000    0.000 
#
# Total GULP energy -490034.840952 kJ/mol
# GULP energy per Si atom -5568.577738 kJ/mol
# Density = 1.016200 g / cm^3
# Si number density = 10.185185 Si / 1000 Ang^3
#
#
#
# Elastic Constant Matrix: (Units=GPa)
#
#
# Indices 1 2 3 4 5 6 
#
# 1 47.4197 23.0055 27.4548 0.0000 0.0000 0.0000
# 2 23.0055 47.4262 27.4492 0.0000 0.0000 0.0000
# 3 27.4548 27.4492 161.0112 0.0000 0.0000 0.0000
# 4 0.0000 0.0000 0.0000 29.3836 0.0000 0.0000
# 5 0.0000 0.0000 0.0000 0.0000 29.3836 0.0000
# 6 0.0000 0.0000 0.0000 0.0000 0.0000 26.0301
#
#
#
# Elastic Compliance Matrix: (Units=1/GPa)
#
#
# Indices 1 2 3 4 5 6 
#
# 1 0.028668 -0.012290 -0.002793 0.000000 0.000000 0.000000
# 2 -0.012290 0.028662 -0.002791 0.000000 0.000000 0.000000
# 3 -0.002793 -0.002791 0.007163 0.000000 0.000000 0.000000
# 4 0.000000 0.000000 0.000000 0.034033 0.000000 0.000000
# 5 0.000000 0.000000 0.000000 0.000000 0.034033 0.000000
# 6 0.000000 0.000000 0.000000 0.000000 0.000000 0.038417
#
#
# Mechanical properties :
#
#
# Convention : Reuss Voigt Hill
#
# Bulk Modulus (GPa) = 34.78790 45.74180 40.26485
# Shear Modulus (GPa) = 23.11567 28.82264 25.96915
#
# Velocity S-wave (km/s) = 3.37229 3.76564 3.57438
# Velocity P-wave (km/s) = 5.68136 6.43510 6.06994
#
# Compressibility (1/GPa) = 0.02874563
#
# Stress axis : x y z
#
# Youngs Moduli (GPa) = 34.88253 34.88934 139.61048
#
# Poissons Ratio (x) = 0.42877 0.38995
# Poissons Ratio (y) = 0.42869 0.38962
# Poissons Ratio (z) = 0.09743 0.09737
#
# Static dielectric constant tensor:
#      x y z
#    x 1.751860 0.000000 0.000000 
#    y 0.000000 1.751860 0.000000 
#    z 0.000000 0.000000 1.746380 
# 
# From -- ./inp_files/5561.got.cif
#   From: 2010.05.17/outbox.ucp.g08.bks.cvg/sg142_3_cif.got.tgz:5561.got - 2010.06.11 11:43:53.
