data_PCOD9574059
_publ_section_title
;
Structure prediction by ZEFSAII (Michael W. Deem and Ramdas Pophale) SiO2 
 PCOD9574059
Probable space group: I 41/A C D
;
_chemical_formula_sum "Si O2"
_cell_formula_units_Z 160
_cell_length_a 18.914833
_cell_length_b 18.914833
_cell_length_c 23.204491
_cell_angle_alpha 90.000000
_cell_angle_beta 90.000000
_cell_angle_gamma 90.000000
_cell_volume 8301.891801
_symmetry_space_group_name_H-M "I 41/A C D"
_symmetry_group_IT_number 142
_space_group.IT_coordinate_system_code '2'
_symmetry_cell_setting 'tetragonal'
loop_
_space_group_symop_operation_xyz
x,y,z
1/4-y,3/4+x,1/4+z
-x,1/2-y,z
1/4+y,1/4-x,3/4+z
x,-y,1/2-z
1/2-x,y,-z
3/4+y,1/4+x,1/4-z
1/4-y,1/4-x,1/4-z
-x,-y,-z
3/4+y,1/4-x,3/4-z
x,1/2+y,-z
3/4-y,3/4+x,1/4-z
-x,y,1/2+z
1/2+x,-y,z
1/4-y,3/4-x,3/4+z
3/4+y,3/4+x,3/4+z
1/2+x,1/2+y,1/2+z
3/4-y,1/4+x,3/4+z
1/2-x,-y,1/2+z
3/4+y,3/4-x,1/4+z
1/2+x,1/2-y,-z
-x,1/2+y,1/2-z
1/4+y,3/4+x,3/4-z
3/4-y,3/4-x,3/4-z
1/2-x,1/2-y,1/2-z
1/4+y,3/4-x,1/4-z
1/2+x,y,1/2-z
1/4-y,1/4+x,3/4-z
1/2-x,1/2+y,z
x,1/2-y,1/2+z
3/4-y,1/4-x,1/4+z
1/4+y,1/4+x,1/4+z
loop_
_atom_site_type_symbol
_atom_site_label
_atom_site_fract_x
_atom_site_fract_y
_atom_site_fract_z
Si Si1 0.331906 0.963253 0.366765
Si Si2 0.599166 0.406814 0.314508
Si Si3 0.083148 0.061650 0.462458
Si Si4 0.423994 0.710169 0.060120
Si Si5 0.427017 0.583032 0.973767
O O1 0.313776 0.889796 0.337617
O O2 0.372553 0.943304 0.425297
O O3 0.263144 0.013144 0.375000
O O4 0.381434 0.011388 0.324943
O O5 0.620739 0.370739 0.375000
O O6 0.645261 0.368600 0.265387
O O7 0.518080 0.387571 0.305924
O O8 0.005918 0.091831 0.448074
O O9 0.070904 0.981325 0.481233
O O10 0.500000 0.750000 0.051673
O O11 0.428424 0.678424 0.125000
O O12 0.411848 0.652349 0.010969
#
# Coordination Sequence:
#
# PCOD9574059 Si02
#       5
#    32  32  32  32  32
#     4  11  25  44  67  96 136 180 223 276 343 413
#     4  11  19  40  69  94 126 178 220 264 337 408
#     4  11  23  42  66  92 131 179 219 272 340 402
#     4  11  21  38  67 102 130 167 220 282 326 398
#     4  11  24  42  68  97 135 173 223 282 338 392
#
# _framework density 19.272715999999999
#
# number of rings (size 3 to 8) (size 9 to 14) (size 15 to 20)
#    0.000    1.000    8.000    0.600    2.800    2.400 
#    0.000    0.000    0.000    0.000    0.000    0.000 
#    0.000    0.000    0.000    0.000    0.000    0.000 
#
# Total GULP energy -446596.998467 kJ/mol
# GULP energy per Si atom -5582.462481 kJ/mol
# Density = 1.922885 g / cm^3
# Si number density = 19.272716 Si / 1000 Ang^3
#
#
#
# Elastic Constant Matrix: (Units=GPa)
#
#
# Indices 1 2 3 4 5 6 
#
# 1 85.9555 50.4305 30.3916 0.0000 0.0000 0.0000
# 2 50.4305 85.9555 30.3916 0.0000 0.0000 0.0000
# 3 30.3916 30.3916 57.9053 0.0000 0.0000 0.0000
# 4 0.0000 0.0000 0.0000 30.6508 0.0000 0.0000
# 5 0.0000 0.0000 0.0000 0.0000 30.6508 0.0000
# 6 0.0000 0.0000 0.0000 0.0000 0.0000 26.4305
#
#
#
# Elastic Compliance Matrix: (Units=1/GPa)
#
#
# Indices 1 2 3 4 5 6 
#
# 1 0.018860 -0.009289 -0.005023 0.000000 0.000000 0.000000
# 2 -0.009289 0.018860 -0.005023 0.000000 0.000000 0.000000
# 3 -0.005023 -0.005023 0.022542 0.000000 0.000000 0.000000
# 4 0.000000 0.000000 0.000000 0.032626 0.000000 0.000000
# 5 0.000000 0.000000 0.000000 0.000000 0.032626 0.000000
# 6 0.000000 0.000000 0.000000 0.000000 0.000000 0.037835
#
#
# Mechanical properties :
#
#
# Convention : Reuss Voigt Hill
#
# Bulk Modulus (GPa) = 46.31526 50.24929 48.28228
# Shear Modulus (GPa) = 23.89863 25.45328 24.67595
#
# Velocity S-wave (km/s) = 3.52522 3.63807 3.58209
# Velocity P-wave (km/s) = 6.37599 6.61640 6.49731
#
# Compressibility (1/GPa) = 0.02159116
#
# Stress axis : x y z
#
# Youngs Moduli (GPa) = 53.02227 53.02227 44.36069
#
# Poissons Ratio (x) = 0.49253 0.22283
# Poissons Ratio (y) = 0.49253 0.22283
# Poissons Ratio (z) = 0.26634 0.26634
#
# Static dielectric constant tensor:
#      x y z
#    x 1.692860 0.000000 0.000000 
#    y 0.000000 1.692860 0.000000 
#    z 0.000000 0.000000 1.661200 
# 
# From -- ./inp_files/11312.got.cif
#   From: 2010.05.17/outbox.cif.g08.bks.cpg/sg142_6_cif.got.tgz:11312.got - 2010.05.20 13:39:18.
