data_PCOD9574845
_publ_section_title
;
Structure prediction by ZEFSAII (Michael W. Deem and Ramdas Pophale) SiO2 
 PCOD9574845
Probable space group: P -3
;
_chemical_formula_sum "Si O2"
_cell_formula_units_Z 48
_cell_length_a 11.456945
_cell_length_b 11.456945
_cell_length_c 20.934769
_cell_angle_alpha 90.000000
_cell_angle_beta 90.000000
_cell_angle_gamma 120.000000
_cell_volume 2379.778087
_symmetry_space_group_name_H-M "P -3"
_symmetry_group_IT_number 147
_symmetry_cell_setting 'hexagonal'
loop_
_space_group_symop_operation_xyz
x,y,z
-y,x-y,z
-x+y,-x,z
-x,-y,-z
y,-x+y,-z
x-y,x,-z
loop_
_atom_site_type_symbol
_atom_site_label
_atom_site_fract_x
_atom_site_fract_y
_atom_site_fract_z
Si Si1 0.850953 0.009093 0.876063
Si Si2 0.969896 0.583010 0.084178
Si Si3 0.396962 0.352263 0.364794
Si Si4 0.370610 0.955793 0.773696
Si Si5 0.391759 0.104899 0.041504
Si Si6 0.609098 0.929164 0.629402
Si Si7 0.280009 0.012836 0.504135
Si Si8 0.362274 0.067885 0.233760
O O1 0.005707 0.126828 0.874919
O O2 0.762805 0.995482 0.937721
O O3 0.758399 0.002034 0.816905
O O4 0.014269 0.636217 0.155960
O O5 0.937331 0.428490 0.076555
O O6 0.830023 0.578173 0.064222
O O7 0.082913 0.674443 0.032708
O O8 0.346139 0.368437 0.294639
O O9 0.389113 0.209365 0.371192
O O10 0.554007 0.461195 0.363180
O O11 0.327999 0.361691 0.430096
O O12 0.503253 0.940703 0.775363
O O13 0.227678 0.815906 0.770595
O O14 0.655978 0.001193 0.561565
O O15 0.687972 0.993061 0.695206
O O16 0.258252 0.137514 0.492479
#
# Coordination Sequence:
#
# PCOD9574845 Si02
#       8
#     6   6   6   6   6   6   6   6
#     4  10  23  39  57  86 127 166 196 242 299 378
#     4  11  22  38  61  87 119 152 205 259 308 371
#     4   9  18  31  56  84 111 140 186 240 304 343
#     4  10  17  32  61  83 118 143 192 250 297 361
#     4  11  24  39  62  88 116 163 204 252 312 362
#     4   9  18  32  55  86 114 141 185 244 294 351
#     4  10  20  36  51  74 112 159 202 238 283 349
#     4  10  18  35  57  94 117 153 193 244 312 348
#
# _framework density 20.169948999999999
#
# number of rings (size 3 to 8) (size 9 to 14) (size 15 to 20)
#    0.250    1.750    2.500    1.250    1.750    2.000 
#    6.750    0.625    0.000    0.500    0.000    0.000 
#    1.250    0.000    0.000    0.000    0.000    0.000 
#
# Total GULP energy -267212.735400 kJ/mol
# GULP energy per Si atom -5566.931988 kJ/mol
# Density = 2.012404 g / cm^3
# Si number density = 20.169949 Si / 1000 Ang^3
#
#
#
# Elastic Constant Matrix: (Units=GPa)
#
#
# Indices 1 2 3 4 5 6 
#
# 1 50.9006 1.7475 23.8990 -0.7419 1.3625 0.0000
# 2 1.7475 50.9006 23.8990 0.7419 -1.3625 0.0000
# 3 23.8990 23.8990 192.9595 0.0000 0.0000 0.0000
# 4 -0.7419 0.7419 0.0000 28.3723 0.0000 -1.3625
# 5 1.3625 -1.3625 0.0000 0.0000 28.3723 -0.7419
# 6 0.0000 0.0000 0.0000 -1.3625 -0.7419 24.5765
#
#
#
# Elastic Compliance Matrix: (Units=1/GPa)
#
#
# Indices 1 2 3 4 5 6 
#
# 1 0.020908 0.000493 -0.002651 0.000534 -0.000980 0.000000
# 2 0.000493 0.020908 -0.002651 -0.000534 0.000980 0.000000
# 3 -0.002651 -0.002651 0.005839 0.000000 0.000000 0.000000
# 4 0.000534 -0.000534 0.000000 0.035368 0.000000 0.001961
# 5 -0.000980 0.000980 0.000000 0.000000 0.035368 0.001068
# 6 0.000000 0.000000 0.000000 0.001961 0.001068 0.040830
#
#
# Mechanical properties :
#
#
# Convention : Reuss Voigt Hill
#
# Bulk Modulus (GPa) = 26.28975 43.76129 35.02552
# Shear Modulus (GPa) = 27.54575 32.61190 30.07882
#
# Velocity S-wave (km/s) = 3.69952 4.02538 3.86588
# Velocity P-wave (km/s) = 5.59563 6.58394 6.10980
#
# Compressibility (1/GPa) = 0.03803763
#
# Stress axis : x y z
#
# Youngs Moduli (GPa) = 47.82916 47.82916 171.26220
#
# Poissons Ratio (x) = -0.02356 0.45394
# Poissons Ratio (y) = -0.02356 0.45394
# Poissons Ratio (z) = 0.12677 0.12677
#
# Static dielectric constant tensor:
#      x y z
#    x 1.699930 0.000000 0.000000 
#    y 0.000000 1.699930 0.000000 
#    z 0.000000 0.000000 1.836790 
# 
# From -- ./inp_files/1084.got.cif
#   From: 2010.05.17/outbox.cif.g08.bks.cpg/sg147_cif.got.tgz:1084.got - 2010.05.20 13:49:32.
