data_PCOD9574454
_publ_section_title
;
Structure prediction by ZEFSAII (Michael W. Deem and Ramdas Pophale) SiO2 
 PCOD9574454
Probable space group: P 31
;
_chemical_formula_sum "Si O2"
_cell_formula_units_Z 24
_cell_length_a 13.228566
_cell_length_b 13.228566
_cell_length_c 6.201693
_cell_angle_alpha 90.000000
_cell_angle_beta 90.000000
_cell_angle_gamma 120.000000
_cell_volume 939.867067
_symmetry_space_group_name_H-M "P 31"
_symmetry_group_IT_number 144
_symmetry_cell_setting 'hexagonal'
loop_
_space_group_symop_operation_xyz
x,y,z
-y,x-y,1/3+z
-x+y,-x,2/3+z
loop_
_atom_site_type_symbol
_atom_site_label
_atom_site_fract_x
_atom_site_fract_y
_atom_site_fract_z
Si Si1 0.209159 0.361116 0.635260
Si Si2 0.297486 0.187224 0.568327
Si Si3 0.035692 0.113808 0.118904
Si Si4 0.993724 0.493479 0.812054
Si Si5 0.733965 0.701702 0.902319
Si Si6 0.155490 0.766632 0.803929
Si Si7 0.741857 0.424792 0.805186
Si Si8 0.890412 0.323345 0.181834
O O1 0.290478 0.302587 0.610782
O O2 0.076906 0.254822 0.636846
O O3 0.216142 0.418463 0.394557
O O4 0.216236 0.414930 0.877741
O O5 0.403588 0.187010 0.692342
O O6 0.181716 0.071802 0.651892
O O7 0.313024 0.152199 0.326001
O O8 0.149771 0.245703 0.136643
O O9 0.970234 0.045494 0.336080
O O10 0.876393 0.495996 0.758879
O O11 0.995914 0.391681 0.671451
O O12 0.090814 0.625978 0.799695
O O13 0.971178 0.439214 0.052221
O O14 0.718584 0.683834 0.649597
O O15 0.700477 0.296639 0.714463
O O16 0.672439 0.478357 0.690812
#
# Coordination Sequence:
#
# PCOD9574454 Si02
#       8
#     3   3   3   3   3   3   3   3
#     4  12  27  46  73 112 152 198 253 315 387 460
#     4  11  23  42  68 107 149 194 247 301 387 461
#     4  12  24  42  65 106 158 207 252 315 386 471
#     4  11  27  45  72 106 146 202 258 318 385 464
#     4  11  25  47  72 107 151 201 252 320 384 467
#     4  12  28  47  73 110 153 201 260 314 379 467
#     4  12  23  41  61  97 140 185 249 317 373 446
#     4  11  25  42  72 103 147 200 255 316 387 458
#
# _framework density 25.535526000000001
#
# number of rings (size 3 to 8) (size 9 to 14) (size 15 to 20)
#    0.000    0.500    5.000    2.250    7.000    3.000 
#    0.000    0.000    0.000    1.500    0.000    0.000 
#    0.000    0.000    0.000    0.000    0.000    0.000 
#
# Total GULP energy -133777.022564 kJ/mol
# GULP energy per Si atom -5574.042607 kJ/mol
# Density = 2.547741 g / cm^3
# Si number density = 25.535526 Si / 1000 Ang^3
#
#
#
# Elastic Constant Matrix: (Units=GPa)
#
#
# Indices 1 2 3 4 5 6 
#
# 1 61.3330 3.4848 24.8043 -2.2357 0.1629 0.0000
# 2 3.4848 61.3330 24.8043 2.2357 -0.1629 0.0000
# 3 24.8043 24.8043 158.5900 0.0000 0.0000 0.0000
# 4 -2.2357 2.2357 0.0000 32.3481 0.0000 -0.1629
# 5 0.1629 -0.1629 0.0000 0.0000 32.3481 -2.2357
# 6 0.0000 0.0000 0.0000 -0.1629 -2.2357 28.9241
#
#
#
# Elastic Compliance Matrix: (Units=1/GPa)
#
#
# Indices 1 2 3 4 5 6 
#
# 1 0.017453 0.000073 -0.002741 0.001201 -0.000088 0.000000
# 2 0.000073 0.017453 -0.002741 -0.001201 0.000088 0.000000
# 3 -0.002741 -0.002741 0.007163 0.000000 0.000000 0.000000
# 4 0.001201 -0.001201 0.000000 0.031081 0.000000 0.000175
# 5 -0.000088 0.000088 0.000000 0.000000 0.031081 0.002402
# 6 0.000000 0.000000 0.000000 0.000175 0.002402 0.034760
#
#
# Mechanical properties :
#
#
# Convention : Reuss Voigt Hill
#
# Bulk Modulus (GPa) = 31.99989 43.04921 37.52455
# Shear Modulus (GPa) = 31.20607 33.93492 32.57050
#
# Velocity S-wave (km/s) = 3.49960 3.64940 3.57529
# Velocity P-wave (km/s) = 5.37478 5.88665 5.63653
#
# Compressibility (1/GPa) = 0.03125011
#
# Stress axis : x y z
#
# Youngs Moduli (GPa) = 57.29715 57.29715 139.60590
#
# Poissons Ratio (x) = -0.00418 0.38268
# Poissons Ratio (y) = -0.00418 0.38268
# Poissons Ratio (z) = 0.15706 0.15706
#
# Static dielectric constant tensor:
#      x y z
#    x 2.039190 0.000000 0.000000 
#    y 0.000000 2.039190 0.000000 
#    z 0.000000 0.000000 2.138370 
# 
# From -- ./inp_files/144.got.cif
#   From: 2010.05.17/outbox.cif.g08.bks.cpg/sg144_cif.got.tgz:144.got - 2010.05.20 13:46:34.
