data_PCOD9574402
_publ_section_title
;
Structure prediction by ZEFSAII (Michael W. Deem and Ramdas Pophale) SiO2 
 PCOD9574402
Probable space group: P 31
;
_chemical_formula_sum "Si O2"
_cell_formula_units_Z 21
_cell_length_a 9.433582
_cell_length_b 9.433582
_cell_length_c 10.506855
_cell_angle_alpha 90.000000
_cell_angle_beta 90.000000
_cell_angle_gamma 120.000000
_cell_volume 809.760575
_symmetry_space_group_name_H-M "P 31"
_symmetry_group_IT_number 144
_symmetry_cell_setting 'hexagonal'
loop_
_space_group_symop_operation_xyz
x,y,z
-y,x-y,1/3+z
-x+y,-x,2/3+z
loop_
_atom_site_type_symbol
_atom_site_label
_atom_site_fract_x
_atom_site_fract_y
_atom_site_fract_z
Si Si1 0.838923 0.808969 0.066300
Si Si2 0.427556 0.774198 0.701722
Si Si3 0.825039 0.368282 0.837512
Si Si4 0.095745 0.709790 0.769557
Si Si5 0.749832 0.538608 0.437190
Si Si6 0.102529 0.682868 0.305950
Si Si7 0.879460 0.880470 0.550160
O O1 0.766684 0.623609 0.105527
O O2 0.877191 0.932854 0.182558
O O3 0.703312 0.825413 0.984279
O O4 0.013644 0.886180 0.998755
O O5 0.248526 0.754000 0.679675
O O6 0.533477 0.834779 0.574779
O O7 0.379926 0.584952 0.720215
O O8 0.518985 0.876760 0.827081
O O9 0.635570 0.315909 0.837116
O O10 0.933872 0.535537 0.760723
O O11 0.878375 0.372651 0.984768
O O12 0.061871 0.858332 0.774392
O O13 0.779102 0.684094 0.533497
O O14 0.921276 0.598503 0.364109
#
# Coordination Sequence:
#
# PCOD9574402 Si02
#       7
#     3   3   3   3   3   3   3
#     4  11  24  47  75 106 148 197 255 307 383 453
#     4  10  23  43  76 105 147 190 251 302 379 449
#     4  12  26  49  73 110 150 195 251 314 384 448
#     4  11  24  44  74 105 144 192 245 309 373 446
#     4  11  28  46  71 108 154 195 248 318 381 448
#     4  10  23  46  73 108 143 196 245 307 375 453
#     4  11  26  45  72 106 144 201 245 313 375 457
#
# _framework density 25.933592999999998
#
# number of rings (size 3 to 8) (size 9 to 14) (size 15 to 20)
#    0.000    1.143    1.429    3.429   10.000    3.429 
#    2.571    0.000    0.000    0.000    0.000    0.000 
#    0.000    0.000    0.000    0.000    0.000    0.000 
#
# Total GULP energy -117652.423371 kJ/mol
# GULP energy per Si atom -5602.496351 kJ/mol
# Density = 2.587457 g / cm^3
# Si number density = 25.933593 Si / 1000 Ang^3
#
#
#
# Elastic Constant Matrix: (Units=GPa)
#
#
# Indices 1 2 3 4 5 6 
#
# 1 145.9931 58.8937 28.0548 -5.7408 0.2263 0.0000
# 2 58.8937 145.9931 28.0548 5.7408 -0.2263 0.0000
# 3 28.0548 28.0548 100.1489 0.0000 0.0000 0.0000
# 4 -5.7408 5.7408 0.0000 36.3652 0.0000 -0.2263
# 5 0.2263 -0.2263 0.0000 0.0000 36.3652 -5.7408
# 6 0.0000 0.0000 0.0000 -0.2263 -5.7408 43.5497
#
#
#
# Elastic Compliance Matrix: (Units=1/GPa)
#
#
# Indices 1 2 3 4 5 6 
#
# 1 0.008506 -0.003220 -0.001481 0.001851 -0.000073 0.000000
# 2 -0.003220 0.008506 -0.001481 -0.001851 0.000073 0.000000
# 3 -0.001481 -0.001481 0.010815 0.000000 0.000000 0.000000
# 4 0.001851 -0.001851 0.000000 0.028084 0.000000 0.000146
# 5 -0.000073 0.000073 0.000000 0.000000 0.028084 0.003702
# 6 0.000000 0.000000 0.000000 0.000146 0.003702 0.023451
#
#
# Mechanical properties :
#
#
# Convention : Reuss Voigt Hill
#
# Bulk Modulus (GPa) = 64.66649 69.12687 66.89668
# Shear Modulus (GPa) = 40.01175 41.73146 40.87161
#
# Velocity S-wave (km/s) = 3.93218 4.01579 3.97421
# Velocity P-wave (km/s) = 6.75319 6.94373 6.84912
#
# Compressibility (1/GPa) = 0.01546396
#
# Stress axis : x y z
#
# Youngs Moduli (GPa) = 117.56543 117.56543 92.46592
#
# Poissons Ratio (x) = 0.37852 0.13693
# Poissons Ratio (y) = 0.37852 0.13693
# Poissons Ratio (z) = 0.17410 0.17410
#
# Static dielectric constant tensor:
#      x y z
#    x 2.034260 0.000000 0.000000 
#    y 0.000000 2.034260 0.000000 
#    z 0.000000 0.000000 2.081220 
# 
# From -- ./inp_files/606.got.cif
#   From: 2010.05.17/outbox.cif.g08.bks.cpg/sg144_cif.got.tgz:606.got - 2010.05.20 13:46:34.
