data_PCOD9574084
_publ_section_title
;
Structure prediction by ZEFSAII (Michael W. Deem and Ramdas Pophale) SiO2 
 PCOD9574084
Probable space group: I 41/A C D
;
_chemical_formula_sum "Si O2"
_cell_formula_units_Z 120
_cell_length_a 20.010559
_cell_length_b 20.010559
_cell_length_c 13.171408
_cell_angle_alpha 90.000000
_cell_angle_beta 90.000000
_cell_angle_gamma 90.000000
_cell_volume 5274.127744
_symmetry_space_group_name_H-M "I 41/A C D"
_symmetry_group_IT_number 142
_space_group.IT_coordinate_system_code '2'
_symmetry_cell_setting 'tetragonal'
loop_
_space_group_symop_operation_xyz
x,y,z
1/4-y,3/4+x,1/4+z
-x,1/2-y,z
1/4+y,1/4-x,3/4+z
x,-y,1/2-z
1/2-x,y,-z
3/4+y,1/4+x,1/4-z
1/4-y,1/4-x,1/4-z
-x,-y,-z
3/4+y,1/4-x,3/4-z
x,1/2+y,-z
3/4-y,3/4+x,1/4-z
-x,y,1/2+z
1/2+x,-y,z
1/4-y,3/4-x,3/4+z
3/4+y,3/4+x,3/4+z
1/2+x,1/2+y,1/2+z
3/4-y,1/4+x,3/4+z
1/2-x,-y,1/2+z
3/4+y,3/4-x,1/4+z
1/2+x,1/2-y,-z
-x,1/2+y,1/2-z
1/4+y,3/4+x,3/4-z
3/4-y,3/4-x,3/4-z
1/2-x,1/2-y,1/2-z
1/4+y,3/4-x,1/4-z
1/2+x,y,1/2-z
1/4-y,1/4+x,3/4-z
1/2-x,1/2+y,z
x,1/2-y,1/2+z
3/4-y,1/4-x,1/4+z
1/4+y,1/4+x,1/4+z
loop_
_atom_site_type_symbol
_atom_site_label
_atom_site_fract_x
_atom_site_fract_y
_atom_site_fract_z
Si Si1 0.208625 0.059187 0.314603
Si Si2 0.500000 0.250000 0.625000
Si Si3 0.750000 0.743561 0.000000
Si Si4 0.430795 0.116872 0.641815
Si Si5 0.313445 0.838234 0.184575
O O1 0.149287 0.105342 0.357374
O O2 0.258299 0.112790 0.263338
O O3 0.175702 0.000000 0.250000
O O4 0.263601 0.013601 0.375000
O O5 0.457539 0.189330 0.674213
O O6 0.687209 0.786229 0.964100
O O7 0.774677 0.701256 0.902975
O O8 0.450666 0.099349 0.525310
O O9 0.368096 0.881905 0.125000
#
# Coordination Sequence:
#
# PCOD9574084 Si02
#       5
#    32   8  16  32  32
#     4  11  21  40  72 109 137 174 240 329 394 440
#     4  12  28  48  70 100 160 222 252 296 390 496
#     4  12  26  44  70 102 140 202 258 316 380 462
#     4  12  25  46  68 102 149 199 258 311 385 475
#     4  11  23  42  70 100 136 180 243 316 389 449
#
# _framework density 22.752578
#
# number of rings (size 3 to 8) (size 9 to 14) (size 15 to 20)
#    0.000    0.533    4.000    5.600    3.733    0.000 
#    0.000    8.667    0.000    0.000    0.000    0.000 
#    0.000    0.000    0.000    0.000    0.000    0.000 
#
# Total GULP energy -334389.091881 kJ/mol
# GULP energy per Si atom -5573.151531 kJ/mol
# Density = 2.270079 g / cm^3
# Si number density = 22.752578 Si / 1000 Ang^3
#
#
#
# Elastic Constant Matrix: (Units=GPa)
#
#
# Indices 1 2 3 4 5 6 
#
# 1 123.4148 74.5100 23.8001 0.0000 0.0000 0.0000
# 2 74.5100 123.4159 23.8000 0.0000 0.0000 0.0000
# 3 23.8001 23.8000 53.6978 0.0000 0.0000 0.0000
# 4 0.0000 0.0000 0.0000 6.2966 0.0000 0.0000
# 5 0.0000 0.0000 0.0000 0.0000 6.1636 0.0000
# 6 0.0000 0.0000 0.0000 0.0000 0.0000 38.0361
#
#
#
# Elastic Compliance Matrix: (Units=1/GPa)
#
#
# Indices 1 2 3 4 5 6 
#
# 1 0.013051 -0.007396 -0.002507 0.000000 0.000000 0.000000
# 2 -0.007396 0.013051 -0.002506 0.000000 0.000000 0.000000
# 3 -0.002507 -0.002506 0.020845 0.000000 0.000000 0.000000
# 4 0.000000 0.000000 0.000000 0.158817 0.000000 0.000000
# 5 0.000000 0.000000 0.000000 0.000000 0.162242 0.000000
# 6 0.000000 0.000000 0.000000 0.000000 0.000000 0.026291
#
#
# Mechanical properties :
#
#
# Convention : Reuss Voigt Hill
#
# Bulk Modulus (GPa) = 45.18957 60.52762 52.85860
# Shear Modulus (GPa) = 11.72355 21.99382 16.85869
#
# Velocity S-wave (km/s) = 2.27240 3.11248 2.72501
# Velocity P-wave (km/s) = 5.17586 6.29102 5.76049
#
# Compressibility (1/GPa) = 0.02212900
#
# Stress axis : x y z
#
# Youngs Moduli (GPa) = 76.61958 76.62037 47.97398
#
# Poissons Ratio (x) = 0.56670 0.12025
# Poissons Ratio (y) = 0.56669 0.12025
# Poissons Ratio (z) = 0.19205 0.19205
#
# Static dielectric constant tensor:
#      x y z
#    x 1.887560 0.000000 0.000000 
#    y 0.000000 1.887560 0.000000 
#    z 0.000000 0.000000 1.799900 
# 
# From -- ./inp_files/5069.got.cif
#   From: 2010.05.17/outbox.cif.g08.bks.cpg/sg142_3_cif.got.tgz:5069.got - 2010.05.20 13:39:18.
