data_PCOD9574138
_publ_section_title
;
Structure prediction by ZEFSAII (Michael W. Deem and Ramdas Pophale) SiO2 
 PCOD9574138
Probable space group: I 41/A C D
;
_chemical_formula_sum "Si O2"
_cell_formula_units_Z 136
_cell_length_a 16.087983
_cell_length_b 16.087983
_cell_length_c 22.007090
_cell_angle_alpha 90.000000
_cell_angle_beta 90.000000
_cell_angle_gamma 90.000000
_cell_volume 5695.945391
_symmetry_space_group_name_H-M "I 41/A C D"
_symmetry_group_IT_number 142
_space_group.IT_coordinate_system_code '2'
_symmetry_cell_setting 'tetragonal'
loop_
_space_group_symop_operation_xyz
x,y,z
1/4-y,3/4+x,1/4+z
-x,1/2-y,z
1/4+y,1/4-x,3/4+z
x,-y,1/2-z
1/2-x,y,-z
3/4+y,1/4+x,1/4-z
1/4-y,1/4-x,1/4-z
-x,-y,-z
3/4+y,1/4-x,3/4-z
x,1/2+y,-z
3/4-y,3/4+x,1/4-z
-x,y,1/2+z
1/2+x,-y,z
1/4-y,3/4-x,3/4+z
3/4+y,3/4+x,3/4+z
1/2+x,1/2+y,1/2+z
3/4-y,1/4+x,3/4+z
1/2-x,-y,1/2+z
3/4+y,3/4-x,1/4+z
1/2+x,1/2-y,-z
-x,1/2+y,1/2-z
1/4+y,3/4+x,3/4-z
3/4-y,3/4-x,3/4-z
1/2-x,1/2-y,1/2-z
1/4+y,3/4-x,1/4-z
1/2+x,y,1/2-z
1/4-y,1/4+x,3/4-z
1/2-x,1/2+y,z
x,1/2-y,1/2+z
3/4-y,1/4-x,1/4+z
1/4+y,1/4+x,1/4+z
loop_
_atom_site_type_symbol
_atom_site_label
_atom_site_fract_x
_atom_site_fract_y
_atom_site_fract_z
Si Si1 0.092152 0.591191 0.227299
Si Si2 0.362975 0.475556 0.608311
Si Si3 0.000000 0.750000 0.625000
Si Si4 0.406788 0.153491 0.727469
Si Si5 0.029136 0.382116 0.078287
O O1 0.112050 0.500000 0.250000
O O2 0.130005 0.592823 0.160744
O O3 0.131468 0.656735 0.272279
O O4 0.992946 0.604012 0.229664
O O5 0.290070 0.540070 0.625000
O O6 0.355887 0.424174 0.546275
O O7 0.449567 0.529083 0.608380
O O8 0.971142 0.679708 0.576078
O O9 0.388509 0.194213 0.793449
O O10 0.063104 0.313104 0.125000
#
# Coordination Sequence:
#
# PCOD9574138 Si02
#       5
#    32  32   8  32  32
#     4  12  23  44  66  94 141 176 227 304 349 413
#     4  11  24  45  70  98 139 190 233 286 369 433
#     4  12  20  40  74 100 124 176 228 302 340 420
#     4  12  23  42  71 104 134 179 244 287 354 430
#     4  11  23  43  73 103 143 185 233 294 357 427
#
# _framework density 23.876632000000001
#
# number of rings (size 3 to 8) (size 9 to 14) (size 15 to 20)
#    0.000    0.471    9.412    0.706    0.000    1.882 
#    4.235    0.000    0.000    0.000    0.000    0.000 
#    0.000    0.000    0.000    0.000    0.000    0.000 
#
# Total GULP energy -379851.871541 kJ/mol
# GULP energy per Si atom -5586.056934 kJ/mol
# Density = 2.382229 g / cm^3
# Si number density = 23.876632 Si / 1000 Ang^3
#
#
#
# Elastic Constant Matrix: (Units=GPa)
#
#
# Indices 1 2 3 4 5 6 
#
# 1 43.2536 -3.2161 4.8432 0.0000 0.0000 0.0000
# 2 -3.2161 43.2536 4.8432 0.0000 0.0000 0.0000
# 3 4.8432 4.8432 114.0719 0.0000 0.0000 0.0000
# 4 0.0000 0.0000 0.0000 33.8833 0.0000 0.0000
# 5 0.0000 0.0000 0.0000 0.0000 33.8833 0.0000
# 6 0.0000 0.0000 0.0000 0.0000 0.0000 20.6159
#
#
#
# Elastic Compliance Matrix: (Units=1/GPa)
#
#
# Indices 1 2 3 4 5 6 
#
# 1 0.023378 0.001858 -0.001071 0.000000 0.000000 0.000000
# 2 0.001858 0.023378 -0.001071 0.000000 0.000000 0.000000
# 3 -0.001071 -0.001071 0.008857 0.000000 0.000000 0.000000
# 4 0.000000 0.000000 0.000000 0.029513 0.000000 0.000000
# 5 0.000000 0.000000 0.000000 0.000000 0.029513 0.000000
# 6 0.000000 0.000000 0.000000 0.000000 0.000000 0.048506
#
#
# Mechanical properties :
#
#
# Convention : Reuss Voigt Hill
#
# Bulk Modulus (GPa) = 18.16757 23.72442 20.94600
# Shear Modulus (GPa) = 27.46316 30.61709 29.04013
#
# Velocity S-wave (km/s) = 3.39516 3.58481 3.49127
# Velocity P-wave (km/s) = 4.79530 5.20503 5.00436
#
# Compressibility (1/GPa) = 0.05504313
#
# Stress axis : x y z
#
# Youngs Moduli (GPa) = 42.77604 42.77604 112.90017
#
# Poissons Ratio (x) = -0.07949 0.12097
# Poissons Ratio (y) = -0.07949 0.12097
# Poissons Ratio (z) = 0.04583 0.04583
#
# Static dielectric constant tensor:
#      x y z
#    x 1.954310 0.000000 0.000000 
#    y 0.000000 1.954310 0.000000 
#    z 0.000000 0.000000 1.968000 
# 
# From -- ./inp_files/8803.got.cif
#   From: 2010.05.17/outbox.cif.g08.bks.cpg/sg142_5_cif.got.tgz:8803.got - 2010.05.20 13:39:18.
