data_PCOD9574498
_publ_section_title
;
Structure prediction by ZEFSAII (Michael W. Deem and Ramdas Pophale) SiO2 
 PCOD9574498
Probable space group: P 31
;
_chemical_formula_sum "Si O2"
_cell_formula_units_Z 18
_cell_length_a 7.945795
_cell_length_b 7.945795
_cell_length_c 12.741076
_cell_angle_alpha 90.000000
_cell_angle_beta 90.000000
_cell_angle_gamma 120.000000
_cell_volume 696.644881
_symmetry_space_group_name_H-M "P 31"
_symmetry_group_IT_number 144
_symmetry_cell_setting 'hexagonal'
loop_
_space_group_symop_operation_xyz
x,y,z
-y,x-y,1/3+z
-x+y,-x,2/3+z
loop_
_atom_site_type_symbol
_atom_site_label
_atom_site_fract_x
_atom_site_fract_y
_atom_site_fract_z
Si Si1 0.256612 0.478490 0.520460
Si Si2 0.901639 0.736418 0.839696
Si Si3 0.772217 0.175333 0.781045
Si Si4 0.192783 0.783582 0.424483
Si Si5 0.615914 0.295263 0.618096
Si Si6 0.862629 0.117173 0.262264
O O1 0.347893 0.392326 0.439944
O O2 0.302669 0.691348 0.487737
O O3 0.306695 0.474335 0.642320
O O4 0.032232 0.308911 0.507278
O O5 0.842130 0.535741 0.899968
O O6 0.961060 0.763774 0.715873
O O7 0.075119 0.922594 0.900695
O O8 0.668610 0.289752 0.737592
O O9 0.807925 0.207726 0.906546
O O10 0.986394 0.279878 0.736549
O O11 0.018596 0.743142 0.502396
O O12 0.706596 0.523448 0.595088
#
# Coordination Sequence:
#
# PCOD9574498 Si02
#       6
#     3   3   3   3   3   3
#     4  12  28  49  78 114 158 207 271 324 403 483
#     4  12  24  49  77 112 155 205 255 323 403 470
#     4  12  28  49  78 110 156 208 260 331 399 471
#     4  12  27  51  76 116 156 204 271 330 391 491
#     4  12  27  49  73 116 155 193 269 320 386 486
#     4  12  26  47  82 110 158 205 258 328 400 479
#
# _framework density 25.838131000000001
#
# number of rings (size 3 to 8) (size 9 to 14) (size 15 to 20)
#    0.000    0.000    6.667    2.000    7.000    1.333 
#    0.000    0.000    0.000    0.000    0.000    0.000 
#    0.000    0.000    0.000    0.000    0.000    0.000 
#
# Total GULP energy -100387.412638 kJ/mol
# GULP energy per Si atom -5577.078480 kJ/mol
# Density = 2.577932 g / cm^3
# Si number density = 25.838131 Si / 1000 Ang^3
#
#
#
# Elastic Constant Matrix: (Units=GPa)
#
#
# Indices 1 2 3 4 5 6 
#
# 1 81.3357 20.6152 22.9251 5.1418 -7.7936 0.0000
# 2 20.6152 81.3357 22.9251 -5.1418 7.7936 0.0000
# 3 22.9251 22.9251 134.6077 0.0000 0.0000 0.0000
# 4 5.1418 -5.1418 0.0000 45.1603 0.0000 7.7936
# 5 -7.7936 7.7936 0.0000 0.0000 45.1603 5.1418
# 6 0.0000 0.0000 0.0000 7.7936 5.1418 30.3603
#
#
#
# Elastic Compliance Matrix: (Units=1/GPa)
#
#
# Indices 1 2 3 4 5 6 
#
# 1 0.014105 -0.003482 -0.001809 -0.002002 0.003035 0.000000
# 2 -0.003482 0.014105 -0.001809 0.002002 -0.003035 0.000000
# 3 -0.001809 -0.001809 0.008045 0.000000 0.000000 0.000000
# 4 -0.002002 0.002002 0.000000 0.023647 0.000000 -0.006070
# 5 0.003035 -0.003035 0.000000 0.000000 0.023647 -0.004005
# 6 0.000000 0.000000 0.000000 -0.006070 -0.004005 0.035174
#
#
# Mechanical properties :
#
#
# Convention : Reuss Voigt Hill
#
# Bulk Modulus (GPa) = 45.34456 47.80111 46.57284
# Shear Modulus (GPa) = 35.64428 39.52378 37.58403
#
# Velocity S-wave (km/s) = 3.71822 3.91534 3.81805
# Velocity P-wave (km/s) = 6.00176 6.24342 6.12378
#
# Compressibility (1/GPa) = 0.02205336
#
# Stress axis : x y z
#
# Youngs Moduli (GPa) = 70.89840 70.89840 124.29767
#
# Poissons Ratio (x) = 0.24690 0.22486
# Poissons Ratio (y) = 0.24690 0.22486
# Poissons Ratio (z) = 0.12826 0.12826
#
# Static dielectric constant tensor:
#      x y z
#    x 2.066140 0.000000 0.000000 
#    y 0.000000 2.066140 0.000000 
#    z 0.000000 0.000000 2.238120 
# 
# From -- ./inp_files/515.got.cif
#   From: 2010.05.17/outbox.cif.g08.bks.cpg/sg144_cif.got.tgz:515.got - 2010.05.20 13:46:34.
