data_PCOD9574458
_publ_section_title
;
Structure prediction by ZEFSAII (Michael W. Deem and Ramdas Pophale) SiO2 
 PCOD9574458
Probable space group: P 31
;
_chemical_formula_sum "Si O2"
_cell_formula_units_Z 18
_cell_length_a 11.852258
_cell_length_b 11.852258
_cell_length_c 7.180889
_cell_angle_alpha 90.000000
_cell_angle_beta 90.000000
_cell_angle_gamma 120.000000
_cell_volume 873.596808
_symmetry_space_group_name_H-M "P 31"
_symmetry_group_IT_number 144
_symmetry_cell_setting 'hexagonal'
loop_
_space_group_symop_operation_xyz
x,y,z
-y,x-y,1/3+z
-x+y,-x,2/3+z
loop_
_atom_site_type_symbol
_atom_site_label
_atom_site_fract_x
_atom_site_fract_y
_atom_site_fract_z
Si Si1 0.405720 0.927308 0.210970
Si Si2 0.219489 0.393000 0.836479
Si Si3 0.816360 0.116506 0.053217
Si Si4 0.226524 0.919522 0.895822
Si Si5 0.782868 0.412637 0.517125
Si Si6 0.987267 0.888644 0.084679
O O1 0.489299 0.855210 0.200226
O O2 0.290747 0.859767 0.360621
O O3 0.504361 0.080764 0.243081
O O4 0.337914 0.916464 0.013666
O O5 0.235362 0.271647 0.768061
O O6 0.146712 0.356023 0.032063
O O7 0.724587 0.178631 0.071632
O O8 0.932452 0.191710 0.199144
O O9 0.884460 0.123540 0.855563
O O10 0.091316 0.852176 0.006087
O O11 0.702195 0.403756 0.702613
O O12 0.054106 0.998335 0.246333
#
# Coordination Sequence:
#
# PCOD9574458 Si02
#       6
#     3   3   3   3   3   3
#     4  11  27  48  74 102 144 183 242 294 355 428
#     4  11  27  48  72 109 138 188 240 294 358 426
#     4  11  23  46  68 106 142 183 243 285 357 421
#     4  12  24  44  71 102 144 186 228 301 356 413
#     4  11  26  47  70 102 142 192 243 288 351 428
#     4  12  23  39  71 107 144 182 232 302 359 418
#
# _framework density 20.604471
#
# number of rings (size 3 to 8) (size 9 to 14) (size 15 to 20)
#    0.000    0.667    5.000    2.000    4.667    0.000 
#    6.000    0.000    0.000    0.000    0.000    0.000 
#    0.000    0.000    0.000    0.000    0.000    0.000 
#
# Total GULP energy -100701.220193 kJ/mol
# GULP energy per Si atom -5594.512233 kJ/mol
# Density = 2.055757 g / cm^3
# Si number density = 20.604471 Si / 1000 Ang^3
#
#
#
# Elastic Constant Matrix: (Units=GPa)
#
#
# Indices 1 2 3 4 5 6 
#
# 1 125.0548 60.6488 66.6615 -4.6700 3.0973 0.0000
# 2 60.6488 125.0548 66.6615 4.6700 -3.0973 0.0000
# 3 66.6615 66.6615 127.5120 0.0000 0.0000 0.0000
# 4 -4.6700 4.6700 0.0000 23.1462 0.0000 -3.0973
# 5 3.0973 -3.0973 0.0000 0.0000 23.1462 -4.6700
# 6 0.0000 0.0000 0.0000 -3.0973 -4.6700 32.2030
#
#
#
# Elastic Compliance Matrix: (Units=1/GPa)
#
#
# Indices 1 2 3 4 5 6 
#
# 1 0.012415 -0.003795 -0.004507 0.003270 -0.002169 0.000000
# 2 -0.003795 0.012415 -0.004507 -0.003270 0.002169 0.000000
# 3 -0.004507 -0.004507 0.012554 0.000000 0.000000 0.000000
# 4 0.003270 -0.003270 0.000000 0.045104 0.000000 0.004338
# 5 -0.002169 0.002169 0.000000 0.000000 0.045104 0.006541
# 6 0.000000 0.000000 0.000000 0.004338 0.006541 0.032419
#
#
# Mechanical properties :
#
#
# Convention : Reuss Voigt Hill
#
# Bulk Modulus (GPa) = 84.97119 85.06277 85.01698
# Shear Modulus (GPa) = 26.37844 27.94241 27.16043
#
# Velocity S-wave (km/s) = 3.58191 3.68657 3.63462
# Velocity P-wave (km/s) = 7.64431 7.71326 7.67886
#
# Compressibility (1/GPa) = 0.01176869
#
# Stress axis : x y z
#
# Youngs Moduli (GPa) = 80.54846 80.54846 79.65344
#
# Poissons Ratio (x) = 0.30564 0.35897
# Poissons Ratio (y) = 0.30564 0.35897
# Poissons Ratio (z) = 0.36300 0.36300
#
# Static dielectric constant tensor:
#      x y z
#    x 1.747050 0.000000 0.000000 
#    y 0.000000 1.747050 0.000000 
#    z 0.000000 0.000000 1.710220 
# 
# From -- ./inp_files/94.got.cif
#   From: 2010.05.17/outbox.cif.g08.bks.cpg/sg144_cif.got.tgz:94.got - 2010.05.20 13:46:34.
