data_PCOD9574227
_publ_section_title
;
Structure prediction by ZEFSAII (Michael W. Deem and Ramdas Pophale) SiO2 
 PCOD9574227
Probable space group: I 41/A C D
;
_chemical_formula_sum "Si O2"
_cell_formula_units_Z 176
_cell_length_a 14.981682
_cell_length_b 14.981682
_cell_length_c 34.487024
_cell_angle_alpha 90.000000
_cell_angle_beta 90.000000
_cell_angle_gamma 90.000000
_cell_volume 7740.639973
_symmetry_space_group_name_H-M "I 41/A C D"
_symmetry_group_IT_number 142
_space_group.IT_coordinate_system_code '2'
_symmetry_cell_setting 'tetragonal'
loop_
_space_group_symop_operation_xyz
x,y,z
1/4-y,3/4+x,1/4+z
-x,1/2-y,z
1/4+y,1/4-x,3/4+z
x,-y,1/2-z
1/2-x,y,-z
3/4+y,1/4+x,1/4-z
1/4-y,1/4-x,1/4-z
-x,-y,-z
3/4+y,1/4-x,3/4-z
x,1/2+y,-z
3/4-y,3/4+x,1/4-z
-x,y,1/2+z
1/2+x,-y,z
1/4-y,3/4-x,3/4+z
3/4+y,3/4+x,3/4+z
1/2+x,1/2+y,1/2+z
3/4-y,1/4+x,3/4+z
1/2-x,-y,1/2+z
3/4+y,3/4-x,1/4+z
1/2+x,1/2-y,-z
-x,1/2+y,1/2-z
1/4+y,3/4+x,3/4-z
3/4-y,3/4-x,3/4-z
1/2-x,1/2-y,1/2-z
1/4+y,3/4-x,1/4-z
1/2+x,y,1/2-z
1/4-y,1/4+x,3/4-z
1/2-x,1/2+y,z
x,1/2-y,1/2+z
3/4-y,1/4-x,1/4+z
1/4+y,1/4+x,1/4+z
loop_
_atom_site_type_symbol
_atom_site_label
_atom_site_fract_x
_atom_site_fract_y
_atom_site_fract_z
Si Si1 0.551375 0.473971 0.124102
Si Si2 0.854049 0.688242 0.337535
Si Si3 0.109413 0.093840 0.322038
Si Si4 0.779917 0.035463 0.322463
Si Si5 0.466075 0.347944 0.259765
Si Si6 0.250000 0.355774 0.000000
O O1 0.532883 0.560462 0.097433
O O2 0.568761 0.389720 0.095902
O O3 0.472096 0.453274 0.154926
O O4 0.641321 0.486555 0.148171
O O5 0.910651 0.660651 0.375000
O O6 0.908370 0.669690 0.298467
O O7 0.766230 0.626891 0.335026
O O8 0.084742 0.114205 0.277767
O O9 0.829679 0.042280 0.281802
O O10 0.697157 0.967992 0.321215
O O11 0.500000 0.250000 0.248482
O O12 0.543521 0.421020 0.267028
#
# Coordination Sequence:
#
# PCOD9574227 Si02
#       6
#    32  32  32  32  32  16
#     4  12  25  45  80 112 157 209 264 322 393 474
#     4  12  25  51  76 112 159 208 266 331 392 475
#     4  12  27  49  79 116 160 208 265 325 399 474
#     4  12  24  50  80 116 152 213 265 323 399 469
#     4  12  30  51  78 119 162 207 266 328 400 474
#     4  12  26  48  80 106 158 210 254 330 398 466
#
# _framework density 22.737138000000002
#
# number of rings (size 3 to 8) (size 9 to 14) (size 15 to 20)
#    0.000    0.000    5.455    3.818    7.636    1.091 
#    3.273    0.000    0.000    0.000    0.000    0.000 
#    0.000    0.000    0.000    0.000    0.000    0.000 
#
# Total GULP energy -492620.215067 kJ/mol
# GULP energy per Si atom -5597.956989 kJ/mol
# Density = 2.268539 g / cm^3
# Si number density = 22.737138 Si / 1000 Ang^3
#
#
#
# Elastic Constant Matrix: (Units=GPa)
#
#
# Indices 1 2 3 4 5 6 
#
# 1 17.7584 94.7703 23.4559 0.0000 0.0000 0.0000
# 2 94.7703 17.7584 23.4559 0.0000 0.0000 0.0000
# 3 23.4559 23.4559 153.3343 0.0000 0.0000 0.0000
# 4 0.0000 0.0000 0.0000 34.8947 0.0000 0.0000
# 5 0.0000 0.0000 0.0000 0.0000 34.8947 0.0000
# 6 0.0000 0.0000 0.0000 0.0000 0.0000 20.9933
#
#
#
# Elastic Compliance Matrix: (Units=1/GPa)
#
#
# Indices 1 2 3 4 5 6 
#
# 1 -0.001747 0.011238 -0.001452 0.000000 0.000000 0.000000
# 2 0.011238 -0.001747 -0.001452 0.000000 0.000000 0.000000
# 3 -0.001452 -0.001452 0.006966 0.000000 0.000000 0.000000
# 4 0.000000 0.000000 0.000000 0.028658 0.000000 0.000000
# 5 0.000000 0.000000 0.000000 0.000000 0.028658 0.000000
# 6 0.000000 0.000000 0.000000 0.000000 0.000000 0.047634
#
#
# Mechanical properties :
#
#
# Convention : Reuss Voigt Hill
#
# Bulk Modulus (GPa) = 49.64796 52.46834 51.05815
# Shear Modulus (GPa) = 50.77813 21.30111 36.03962
#
# Velocity S-wave (km/s) = 4.73087 3.06411 3.98559
# Velocity P-wave (km/s) = 7.19198 5.97030 6.60943
#
# Compressibility (1/GPa) = 0.02014182
#
# Stress axis : x y z
#
# Youngs Moduli (GPa) = -572.56485 -572.56473 143.55586
#
# Poissons Ratio (x) = 6.43476 0.20844
# Poissons Ratio (y) = 6.43476 0.20844
# Poissons Ratio (z) = -0.83137 -0.83137
#
# Static dielectric constant tensor:
#      x y z
#    x 1.849950 0.000000 0.000000 
#    y 0.000000 1.849950 0.000000 
#    z 0.000000 0.000000 1.862880 
# 
# From -- ./inp_files/11418.got.cif
#   From: 2010.05.17/outbox.cif.g08.bks.cpg/sg142_6_cif.got.tgz:11418.got - 2010.05.20 13:39:18.
