data_PCOD9574855
_publ_section_title
;
Structure prediction by ZEFSAII (Michael W. Deem and Ramdas Pophale) SiO2 
 PCOD9574855
Probable space group: P -3
;
_chemical_formula_sum "Si O2"
_cell_formula_units_Z 48
_cell_length_a 11.534203
_cell_length_b 11.534203
_cell_length_c 20.524920
_cell_angle_alpha 90.000000
_cell_angle_beta 90.000000
_cell_angle_gamma 120.000000
_cell_volume 2364.761173
_symmetry_space_group_name_H-M "P -3"
_symmetry_group_IT_number 147
_symmetry_cell_setting 'hexagonal'
loop_
_space_group_symop_operation_xyz
x,y,z
-y,x-y,z
-x+y,-x,z
-x,-y,-z
y,-x+y,-z
x-y,x,-z
loop_
_atom_site_type_symbol
_atom_site_label
_atom_site_fract_x
_atom_site_fract_y
_atom_site_fract_z
Si Si1 0.596095 0.679518 0.289377
Si Si2 0.692617 0.753242 0.862668
Si Si3 0.675524 0.185529 0.252444
Si Si4 0.340034 0.921091 0.546390
Si Si5 0.071972 0.654569 0.332193
Si Si6 0.944889 0.700647 0.995457
Si Si7 0.593944 0.922063 0.581508
Si Si8 0.056896 0.296811 0.147423
O O1 0.443402 0.567041 0.305688
O O2 0.627571 0.828738 0.304982
O O3 0.670233 0.644297 0.346184
O O4 0.628550 0.682501 0.212888
O O5 0.570751 0.686995 0.812538
O O6 0.631295 0.702710 0.934944
O O7 0.813365 0.723107 0.849592
O O8 0.756573 0.914536 0.855966
O O9 0.792927 0.340191 0.255682
O O10 0.665439 0.081179 0.306515
O O11 0.434792 0.862482 0.570061
O O12 0.188023 0.819192 0.562286
O O13 0.400779 0.055903 0.590184
O O14 0.351105 0.957955 0.470821
O O15 0.832354 0.743320 0.997717
O O16 0.934864 0.637794 0.924149
#
# Coordination Sequence:
#
# PCOD9574855 Si02
#       8
#     6   6   6   6   6   6   6   6
#     4  11  23  38  62  86 119 153 201 254 311 358
#     4  10  18  35  56  86 121 153 198 250 304 366
#     4  10  23  37  59  87 121 159 202 248 309 364
#     4  10  22  38  61  89 123 160 205 248 293 355
#     4  11  23  40  62  89 118 159 200 252 301 368
#     4   8  15  27  51  78 115 152 192 241 298 358
#     4  10  22  39  62  93 122 164 204 254 299 355
#     4  10  19  32  55  88 118 152 197 247 307 363
#
# _framework density 20.298033
#
# number of rings (size 3 to 8) (size 9 to 14) (size 15 to 20)
#    0.250    1.750    1.250    2.375    5.250    2.000 
#    0.000    2.500    2.750    7.500    0.000    0.000 
#    0.000    0.000    0.000    0.000    0.000    0.000 
#
# Total GULP energy -267336.449868 kJ/mol
# GULP energy per Si atom -5569.509372 kJ/mol
# Density = 2.025183 g / cm^3
# Si number density = 20.298033 Si / 1000 Ang^3
#
#
#
# Elastic Constant Matrix: (Units=GPa)
#
#
# Indices 1 2 3 4 5 6 
#
# 1 61.2393 29.2009 38.7077 4.4315 -1.1288 0.0000
# 2 29.2009 61.2393 38.7077 -4.4315 1.1288 0.0000
# 3 38.7077 38.7077 170.5960 0.0000 0.0000 0.0000
# 4 4.4315 -4.4315 0.0000 23.0907 0.0000 1.1288
# 5 -1.1288 1.1288 0.0000 0.0000 23.0907 4.4315
# 6 0.0000 0.0000 0.0000 1.1288 4.4315 16.0192
#
#
#
# Elastic Compliance Matrix: (Units=1/GPa)
#
#
# Indices 1 2 3 4 5 6 
#
# 1 0.023403 -0.009680 -0.003114 -0.006349 0.001617 0.000000
# 2 -0.009680 0.023403 -0.003114 0.006349 -0.001617 0.000000
# 3 -0.003114 -0.003114 0.007275 0.000000 0.000000 0.000000
# 4 -0.006349 0.006349 0.000000 0.045903 0.000000 -0.003235
# 5 0.001617 -0.001617 0.000000 0.000000 0.045903 -0.012698
# 6 0.000000 0.000000 0.000000 -0.003235 -0.012698 0.066166
#
#
# Mechanical properties :
#
#
# Convention : Reuss Voigt Hill
#
# Bulk Modulus (GPa) = 44.91366 56.25635 50.58500
# Shear Modulus (GPa) = 19.89755 24.87069 22.38412
#
# Velocity S-wave (km/s) = 3.13432 3.50419 3.32441
# Velocity P-wave (km/s) = 5.93917 6.64438 6.30165
#
# Compressibility (1/GPa) = 0.02226494
#
# Stress axis : x y z
#
# Youngs Moduli (GPa) = 42.73047 42.73047 137.46291
#
# Poissons Ratio (x) = 0.41365 0.42799
# Poissons Ratio (y) = 0.41365 0.42799
# Poissons Ratio (z) = 0.13304 0.13304
#
# Static dielectric constant tensor:
#      x y z
#    x 1.722090 0.000000 0.000000 
#    y 0.000000 1.722090 0.000000 
#    z 0.000000 0.000000 1.790870 
# 
# From -- ./inp_files/1082.got.cif
#   From: 2010.05.17/outbox.cif.g08.bks.cpg/sg147_cif.got.tgz:1082.got - 2010.05.20 13:49:32.
