data_PCOD9574078
_publ_section_title
;
Structure prediction by ZEFSAII (Michael W. Deem and Ramdas Pophale) SiO2 
 PCOD9574078
Probable space group: I 41/A C D
;
_chemical_formula_sum "Si O2"
_cell_formula_units_Z 160
_cell_length_a 23.798208
_cell_length_b 23.798208
_cell_length_c 14.936517
_cell_angle_alpha 90.000000
_cell_angle_beta 90.000000
_cell_angle_gamma 90.000000
_cell_volume 8459.366664
_symmetry_space_group_name_H-M "I 41/A C D"
_symmetry_group_IT_number 142
_space_group.IT_coordinate_system_code '2'
_symmetry_cell_setting 'tetragonal'
loop_
_space_group_symop_operation_xyz
x,y,z
1/4-y,3/4+x,1/4+z
-x,1/2-y,z
1/4+y,1/4-x,3/4+z
x,-y,1/2-z
1/2-x,y,-z
3/4+y,1/4+x,1/4-z
1/4-y,1/4-x,1/4-z
-x,-y,-z
3/4+y,1/4-x,3/4-z
x,1/2+y,-z
3/4-y,3/4+x,1/4-z
-x,y,1/2+z
1/2+x,-y,z
1/4-y,3/4-x,3/4+z
3/4+y,3/4+x,3/4+z
1/2+x,1/2+y,1/2+z
3/4-y,1/4+x,3/4+z
1/2-x,-y,1/2+z
3/4+y,3/4-x,1/4+z
1/2+x,1/2-y,-z
-x,1/2+y,1/2-z
1/4+y,3/4+x,3/4-z
3/4-y,3/4-x,3/4-z
1/2-x,1/2-y,1/2-z
1/4+y,3/4-x,1/4-z
1/2+x,y,1/2-z
1/4-y,1/4+x,3/4-z
1/2-x,1/2+y,z
x,1/2-y,1/2+z
3/4-y,1/4-x,1/4+z
1/4+y,1/4+x,1/4+z
loop_
_atom_site_type_symbol
_atom_site_label
_atom_site_fract_x
_atom_site_fract_y
_atom_site_fract_z
Si Si1 0.194811 0.533216 0.661689
Si Si2 0.364716 0.315932 0.804042
Si Si3 0.935977 0.615147 0.444728
Si Si4 0.934473 0.185270 0.874922
Si Si5 0.887454 0.499581 0.494031
O O1 0.173789 0.500000 0.750000
O O2 0.247247 0.497247 0.625000
O O3 0.148671 0.530341 0.584330
O O4 0.218160 0.593237 0.691824
O O5 0.392796 0.357205 0.875000
O O6 0.375455 0.251009 0.829371
O O7 0.394681 0.325420 0.708297
O O8 0.298745 0.328283 0.793732
O O9 0.894011 0.644011 0.375000
O O10 0.925669 0.643858 0.541280
O O11 0.924767 0.548921 0.452138
O O12 0.928006 0.250420 0.903855
#
# Coordination Sequence:
#
# PCOD9574078 Si02
#       5
#    32  32  32  32  32
#     4   9  18  33  55  79 108 152 195 232 279 337
#     4  11  23  38  58  86 118 151 188 236 289 340
#     4  11  22  38  61  86 114 150 193 237 284 340
#     4   9  19  37  60  85 115 153 194 234 281 339
#     4  11  21  36  56  82 115 149 191 238 285 338
#
# _framework density 18.913945999999999
#
# number of rings (size 3 to 8) (size 9 to 14) (size 15 to 20)
#    0.000    1.800    0.000    5.400    0.000    2.000 
#    0.000    3.000    0.000   12.000    0.000    0.000 
#    0.000    0.000    0.000    0.000    0.000    0.000 
#
# Total GULP energy -446845.024859 kJ/mol
# GULP energy per Si atom -5585.562811 kJ/mol
# Density = 1.887090 g / cm^3
# Si number density = 18.913946 Si / 1000 Ang^3
#
#
#
# Elastic Constant Matrix: (Units=GPa)
#
#
# Indices 1 2 3 4 5 6 
#
# 1 90.4084 43.9966 34.3282 0.0000 0.0000 0.0000
# 2 43.9966 90.4087 34.3270 0.0000 0.0000 0.0000
# 3 34.3282 34.3270 46.3760 0.0000 0.0000 0.0000
# 4 0.0000 0.0000 0.0000 21.0680 0.0000 0.0000
# 5 0.0000 0.0000 0.0000 0.0000 21.0684 0.0000
# 6 0.0000 0.0000 0.0000 0.0000 0.0000 15.4864
#
#
#
# Elastic Compliance Matrix: (Units=1/GPa)
#
#
# Indices 1 2 3 4 5 6 
#
# 1 0.016755 -0.004791 -0.008856 0.000000 0.000000 0.000000
# 2 -0.004791 0.016755 -0.008855 0.000000 0.000000 0.000000
# 3 -0.008856 -0.008855 0.034673 0.000000 0.000000 0.000000
# 4 0.000000 0.000000 0.000000 0.047465 0.000000 0.000000
# 5 0.000000 0.000000 0.000000 0.000000 0.047464 0.000000
# 6 0.000000 0.000000 0.000000 0.000000 0.000000 0.064573
#
#
# Mechanical properties :
#
#
# Convention : Reuss Voigt Hill
#
# Bulk Modulus (GPa) = 43.14463 50.27739 46.71101
# Shear Modulus (GPa) = 17.83068 19.16065 18.49566
#
# Velocity S-wave (km/s) = 3.07372 3.18629 3.13051
# Velocity P-wave (km/s) = 5.95462 6.33849 6.14955
#
# Compressibility (1/GPa) = 0.02317786
#
# Stress axis : x y z
#
# Youngs Moduli (GPa) = 59.68301 59.68488 28.84121
#
# Poissons Ratio (x) = 0.28597 0.25542
# Poissons Ratio (y) = 0.28596 0.25539
# Poissons Ratio (z) = 0.52855 0.52851
#
# Static dielectric constant tensor:
#      x y z
#    x 1.654560 0.000000 0.000000 
#    y 0.000000 1.654560 0.000000 
#    z 0.000000 0.000000 1.640170 
# 
# From -- ./inp_files/5412.got.cif
#   From: 2010.05.17/outbox.cif.g08.bks.cpg/sg142_3_cif.got.tgz:5412.got - 2010.05.20 13:39:18.
