data_PCOD9574784
_publ_section_title
;
Structure prediction by ZEFSAII (Michael W. Deem and Ramdas Pophale) SiO2 
 PCOD9574784
Probable space group: R 3
;
_chemical_formula_sum "Si O2"
_cell_formula_units_Z 63
_cell_length_a 18.787254
_cell_length_b 18.787254
_cell_length_c 8.238713
_cell_angle_alpha 90.000000
_cell_angle_beta 90.000000
_cell_angle_gamma 120.000000
_cell_volume 2518.353083
_symmetry_space_group_name_H-M "R 3"
_symmetry_group_IT_number 146
_symmetry_cell_setting 'hexagonal'
loop_
_space_group_symop_operation_xyz
x,y,z
-y,x-y,z
-x+y,-x,z
2/3+x,1/3+y,1/3+z
2/3-y,1/3+x-y,1/3+z
2/3-x+y,1/3-x,1/3+z
1/3+x,2/3+y,2/3+z
1/3-y,2/3+x-y,2/3+z
1/3-x+y,2/3-x,2/3+z
loop_
_atom_site_type_symbol
_atom_site_label
_atom_site_fract_x
_atom_site_fract_y
_atom_site_fract_z
Si Si1 0.525069 0.200858 0.927370
Si Si2 0.882219 0.494227 0.451560
Si Si3 0.421306 0.034273 0.071726
Si Si4 0.768121 0.547403 0.618616
Si Si5 0.625238 0.967731 0.334840
Si Si6 0.973980 0.220232 0.084973
Si Si7 0.996698 0.857899 0.777513
O O1 0.521976 0.233778 0.749655
O O2 0.467995 0.078523 0.235617
O O3 0.610990 0.217781 0.999013
O O4 0.494317 0.242916 0.059453
O O5 0.843182 0.534014 0.570507
O O6 0.902677 0.426574 0.522675
O O7 0.817276 0.459249 0.300980
O O8 0.969155 0.562944 0.379280
O O9 0.442114 0.962521 0.036066
O O10 0.462423 0.103367 0.933979
O O11 0.327905 0.017976 0.107367
O O12 0.722749 0.551302 0.455583
O O13 0.694979 0.999667 0.475467
O O14 0.563264 0.875530 0.382724
#
# Coordination Sequence:
#
# PCOD9574784 Si02
#       7
#     9   9   9   9   9   9   9
#     4  12  26  46  76 106 152 203 261 331 393 485
#     4  11  27  47  73 112 160 204 260 330 417 494
#     4  12  24  48  81 111 153 204 275 334 404 482
#     4  12  28  44  75 124 152 202 267 347 403 490
#     4  10  25  45  73 108 150 204 257 326 405 497
#     4  12  24  49  75 112 155 209 267 343 405 484
#     4  11  26  49  73 105 148 214 259 317 409 494
#
# _framework density 25.016349000000002
#
# number of rings (size 3 to 8) (size 9 to 14) (size 15 to 20)
#    0.000    0.571    4.286    2.000    6.000    1.143 
#    0.857    0.000    0.000    0.000    0.000    0.000 
#    0.000    0.000    0.000    0.000    0.000    0.000 
#
# Total GULP energy -117218.627272 kJ/mol
# GULP energy per Si atom -5581.839394 kJ/mol
# Density = 2.495941 g / cm^3
# Si number density = 25.016349 Si / 1000 Ang^3
#
#
#
# Elastic Constant Matrix: (Units=GPa)
#
#
# Indices 1 2 3 4 5 6 
#
# 1 94.3633 25.8466 37.1234 6.2590 2.1051 -0.0003
# 2 25.8466 94.3635 37.1231 -6.2594 -2.1058 -0.0001
# 3 37.1234 37.1231 123.0173 -0.0002 0.0001 -0.0003
# 4 6.2590 -6.2594 -0.0002 36.9050 -0.0002 -2.1054
# 5 2.1051 -2.1058 0.0001 -0.0002 36.9051 6.2590
# 6 -0.0003 -0.0001 -0.0003 -2.1054 6.2590 34.2583
#
#
#
# Elastic Compliance Matrix: (Units=1/GPa)
#
#
# Indices 1 2 3 4 5 6 
#
# 1 0.012670 -0.002446 -0.003085 -0.002564 -0.000862 0.000000
# 2 -0.002446 0.012670 -0.003085 0.002564 0.000863 0.000000
# 3 -0.003085 -0.003085 0.009991 0.000000 0.000000 0.000000
# 4 -0.002564 0.002564 0.000000 0.028065 0.000000 0.001725
# 5 -0.000862 0.000863 0.000000 0.000000 0.028065 -0.005127
# 6 0.000000 0.000000 0.000000 0.001725 -0.005127 0.030233
#
#
# Mechanical properties :
#
#
# Convention : Reuss Voigt Hill
#
# Bulk Modulus (GPa) = 55.25396 56.88115 56.06756
# Shear Modulus (GPa) = 34.49216 35.72376 35.10796
#
# Velocity S-wave (km/s) = 3.71723 3.78301 3.75026
# Velocity P-wave (km/s) = 6.36858 6.47059 6.41979
#
# Compressibility (1/GPa) = 0.01809825
#
# Stress axis : x y z
#
# Youngs Moduli (GPa) = 78.92383 78.92400 100.08850
#
# Poissons Ratio (x) = 0.19304 0.30882
# Poissons Ratio (y) = 0.19304 0.30882
# Poissons Ratio (z) = 0.24352 0.24352
#
# Static dielectric constant tensor:
#      x y z
#    x 2.052180 0.000000 0.000000 
#    y 0.000000 2.052180 0.000000 
#    z 0.000000 0.000000 2.023400 
# 
# From -- ./inp_files/829.got.cif
#   From: 2010.05.17/outbox.cif.g08.bks.cpg/sg146_cif.got.tgz:829.got - 2010.05.20 13:48:23.
