data_PCOD9574409
_publ_section_title
;
Structure prediction by ZEFSAII (Michael W. Deem and Ramdas Pophale) SiO2 
 PCOD9574409
Probable space group: P 31
;
_chemical_formula_sum "Si O2"
_cell_formula_units_Z 21
_cell_length_a 9.282805
_cell_length_b 9.282805
_cell_length_c 12.516455
_cell_angle_alpha 90.000000
_cell_angle_beta 90.000000
_cell_angle_gamma 120.000000
_cell_volume 934.050654
_symmetry_space_group_name_H-M "P 31"
_symmetry_group_IT_number 144
_symmetry_cell_setting 'hexagonal'
loop_
_space_group_symop_operation_xyz
x,y,z
-y,x-y,1/3+z
-x+y,-x,2/3+z
loop_
_atom_site_type_symbol
_atom_site_label
_atom_site_fract_x
_atom_site_fract_y
_atom_site_fract_z
Si Si1 0.936564 0.223120 0.813070
Si Si2 0.043135 0.059972 0.632421
Si Si3 0.550691 0.101044 0.063581
Si Si4 0.283977 0.519910 0.848471
Si Si5 0.905437 0.761960 0.771174
Si Si6 0.566530 0.135123 0.807936
Si Si7 0.541664 0.744304 0.421588
O O1 0.756014 0.185750 0.774281
O O2 0.021698 0.145909 0.736692
O O3 0.087089 0.409916 0.820136
O O4 0.910390 0.130720 0.927162
O O5 0.978698 0.123359 0.535728
O O6 0.935112 0.865344 0.661368
O O7 0.410835 0.149947 0.092551
O O8 0.715081 0.249424 0.115541
O O9 0.517720 0.926518 0.114149
O O10 0.556631 0.099337 0.934852
O O11 0.324429 0.704780 0.828248
O O12 0.291512 0.492411 0.973561
O O13 0.084437 0.780602 0.797188
O O14 0.416767 0.979183 0.748125
#
# Coordination Sequence:
#
# PCOD9574409 Si02
#       7
#     3   3   3   3   3   3   3
#     4  11  24  45  72 103 142 186 240 297 367 430
#     4  10  24  40  76 102 138 178 242 294 362 426
#     4  12  28  47  74 107 148 193 249 306 375 441
#     4  12  27  45  72 104 148 191 245 304 369 437
#     4  11  24  45  72 103 142 186 240 297 367 430
#     4  12  28  47  74 107 148 193 249 306 375 441
#     4  12  27  45  72 104 148 191 245 304 369 437
#
# _framework density 22.48272
#
# number of rings (size 3 to 8) (size 9 to 14) (size 15 to 20)
#    0.000    0.571    1.429    5.143   14.000    0.000 
#    0.000    0.000    0.000    0.000    0.000    0.000 
#    0.000    0.000    0.000    0.000    0.000    0.000 
#
# Total GULP energy -117332.817685 kJ/mol
# GULP energy per Si atom -5587.277033 kJ/mol
# Density = 2.243155 g / cm^3
# Si number density = 22.482720 Si / 1000 Ang^3
#
#
#
# Elastic Constant Matrix: (Units=GPa)
#
#
# Indices 1 2 3 4 5 6 
#
# 1 93.0469 26.9531 -9.3292 8.6726 -8.9537 0.0000
# 2 26.9531 93.0469 -9.3292 -8.6726 8.9537 0.0000
# 3 -9.3292 -9.3292 69.6953 0.0000 0.0000 0.0000
# 4 8.6726 -8.6726 0.0000 26.3259 0.0000 8.9537
# 5 -8.9537 8.9537 0.0000 0.0000 26.3259 8.6726
# 6 0.0000 0.0000 0.0000 8.9537 8.6726 33.0469
#
#
#
# Elastic Compliance Matrix: (Units=1/GPa)
#
#
# Indices 1 2 3 4 5 6 
#
# 1 0.013465 -0.004955 0.001139 -0.006068 0.006265 0.000000
# 2 -0.004955 0.013465 0.001139 0.006068 -0.006265 0.000000
# 3 0.001139 0.001139 0.014653 0.000000 0.000000 0.000000
# 4 -0.006068 0.006068 0.000000 0.046245 0.000000 -0.012529
# 5 0.006265 -0.006265 0.000000 0.000000 0.046245 -0.012136
# 6 0.000000 0.000000 0.000000 -0.012529 -0.012136 0.036840
#
#
# Mechanical properties :
#
#
# Convention : Reuss Voigt Hill
#
# Bulk Modulus (GPa) = 27.60083 30.26428 28.93255
# Shear Modulus (GPa) = 26.54742 33.63937 30.09340
#
# Velocity S-wave (km/s) = 3.43999 3.87231 3.66254
# Velocity P-wave (km/s) = 5.29917 5.78649 5.54818
#
# Compressibility (1/GPa) = 0.03623079
#
# Stress axis : x y z
#
# Youngs Moduli (GPa) = 74.26579 74.26579 68.24478
#
# Poissons Ratio (x) = 0.36796 -0.07774
# Poissons Ratio (y) = 0.36796 -0.07774
# Poissons Ratio (z) = -0.08460 -0.08460
#
# Static dielectric constant tensor:
#      x y z
#    x 1.853540 0.000000 0.000000 
#    y 0.000000 1.853540 0.000000 
#    z 0.000000 0.000000 1.825560 
# 
# From -- ./inp_files/599.got.cif
#   From: 2010.05.17/outbox.cif.g08.bks.cpg/sg144_cif.got.tgz:599.got - 2010.05.20 13:46:34.
