data_PCOD9574671
_publ_section_title
;
Structure prediction by ZEFSAII (Michael W. Deem and Ramdas Pophale) SiO2 
 PCOD9574671
Probable space group: R 3
;
_chemical_formula_sum "Si O2"
_cell_formula_units_Z 60
_cell_length_a 21.234278
_cell_length_b 21.234278
_cell_length_c 9.183106
_cell_angle_alpha 90.000000
_cell_angle_beta 90.000000
_cell_angle_gamma 120.000000
_cell_volume 3585.875664
_symmetry_space_group_name_H-M "R 3"
_symmetry_group_IT_number 146
_symmetry_cell_setting 'hexagonal'
loop_
_space_group_symop_operation_xyz
x,y,z
-y,x-y,z
-x+y,-x,z
2/3+x,1/3+y,1/3+z
2/3-y,1/3+x-y,1/3+z
2/3-x+y,1/3-x,1/3+z
1/3+x,2/3+y,2/3+z
1/3-y,2/3+x-y,2/3+z
1/3-x+y,2/3-x,2/3+z
loop_
_atom_site_type_symbol
_atom_site_label
_atom_site_fract_x
_atom_site_fract_y
_atom_site_fract_z
Si Si1 0.600076 0.894955 0.308150
Si Si2 0.783607 0.289020 0.217927
Si Si3 0.461876 0.809577 0.804056
Si Si4 0.666668 0.333334 0.177337
Si Si5 0.881272 0.110807 0.908004
Si Si6 0.846950 0.631273 0.086700
Si Si7 0.666668 0.333334 0.530052
Si Si8 0.603274 0.906844 0.984841
O O1 0.579378 0.832988 0.428556
O O2 0.543152 0.923267 0.319782
O O3 0.677264 0.966399 0.342277
O O4 0.601420 0.872824 0.141845
O O5 0.753990 0.258224 0.381132
O O6 0.721182 0.302666 0.142588
O O7 0.855982 0.366574 0.215840
O O8 0.797308 0.228987 0.145307
O O9 0.505644 0.795318 0.675656
O O10 0.409485 0.737812 0.897794
O O11 0.525629 0.868025 0.904130
O O12 0.666668 0.333334 0.353350
O O13 0.849000 0.152990 0.997938
O O14 0.906285 0.670522 0.216276
#
# Coordination Sequence:
#
# PCOD9574671 Si02
#       8
#     9   9   9   3   9   9   3   9
#     4  12  20  35  55  89 120 141 185 245 301 336
#     4  11  18  35  60  86 110 146 205 234 279 347
#     4  10  18  33  59  86 105 148 197 235 283 344
#     4   9  15  27  57  91  99 141 186 247 270 324
#     4  11  21  35  61  85 113 156 193 234 288 354
#     4  11  21  35  59  84 110 158 190 235 290 352
#     4   9  15  33  57  81 106 141 192 234 277 333
#     4  11  22  33  56  88 117 145 188 244 302 336
#
# _framework density 16.732315
#
# number of rings (size 3 to 8) (size 9 to 14) (size 15 to 20)
#    0.000    1.200    9.000    0.900    0.000    0.000 
#    0.000    1.500    6.600    0.000    0.000    0.000 
#    0.000    0.000    0.000    0.000    0.000    0.000 
#
# Total GULP energy -111481.467675 kJ/mol
# GULP energy per Si atom -5574.073384 kJ/mol
# Density = 1.669423 g / cm^3
# Si number density = 16.732315 Si / 1000 Ang^3
#
#
#
# Elastic Constant Matrix: (Units=GPa)
#
#
# Indices 1 2 3 4 5 6 
#
# 1 106.5693 53.5455 25.4616 5.6310 3.2843 0.0001
# 2 53.5455 106.5692 25.4611 -5.6309 -3.2843 0.0001
# 3 25.4616 25.4611 57.3790 0.0002 0.0003 0.0002
# 4 5.6310 -5.6309 0.0002 19.6966 -0.0002 -3.2840
# 5 3.2843 -3.2843 0.0003 -0.0002 19.6969 5.6308
# 6 0.0001 0.0001 0.0002 -3.2840 5.6308 26.5118
#
#
#
# Elastic Compliance Matrix: (Units=1/GPa)
#
#
# Indices 1 2 3 4 5 6 
#
# 1 0.013901 -0.006629 -0.003227 -0.005869 -0.003423 0.000000
# 2 -0.006629 0.013901 -0.003227 0.005869 0.003423 0.000000
# 3 -0.003227 -0.003227 0.020292 0.000000 0.000000 0.000000
# 4 -0.005869 0.005869 0.000000 0.055268 0.000001 0.006846
# 5 -0.003423 0.003423 0.000000 0.000001 0.055267 -0.011738
# 6 0.000000 0.000000 0.000000 0.006846 -0.011738 0.041060
#
#
# Mechanical properties :
#
#
# Convention : Reuss Voigt Hill
#
# Bulk Modulus (GPa) = 45.60357 53.27267 49.43812
# Shear Modulus (GPa) = 21.44423 24.25099 22.84761
#
# Velocity S-wave (km/s) = 3.58384 3.81116 3.69925
# Velocity P-wave (km/s) = 6.66627 7.16058 6.91784
#
# Compressibility (1/GPa) = 0.02192811
#
# Stress axis : x y z
#
# Youngs Moduli (GPa) = 71.93743 71.93756 49.28126
#
# Poissons Ratio (x) = 0.47689 0.15902
# Poissons Ratio (y) = 0.47689 0.15902
# Poissons Ratio (z) = 0.23213 0.23212
#
# Static dielectric constant tensor:
#      x y z
#    x 1.580050 0.000000 0.000000 
#    y 0.000000 1.580050 0.000000 
#    z 0.000000 0.000000 1.576890 
# 
# From -- ./inp_files/853.got.cif
#   From: 2010.05.17/outbox.cif.g08.bks.cpg/sg146_cif.got.tgz:853.got - 2010.05.20 13:48:23.
