data_PCOD9574633
_publ_section_title
;
Structure prediction by ZEFSAII (Michael W. Deem and Ramdas Pophale) SiO2 
 PCOD9574633
Probable space group: P 32
;
_chemical_formula_sum "Si O2"
_cell_formula_units_Z 24
_cell_length_a 15.865344
_cell_length_b 15.865344
_cell_length_c 5.212026
_cell_angle_alpha 90.000000
_cell_angle_beta 90.000000
_cell_angle_gamma 120.000000
_cell_volume 1136.151357
_symmetry_space_group_name_H-M "P 32"
_symmetry_group_IT_number 145
_symmetry_cell_setting 'hexagonal'
loop_
_space_group_symop_operation_xyz
x,y,z
-y,x-y,2/3+z
-x+y,-x,1/3+z
loop_
_atom_site_type_symbol
_atom_site_label
_atom_site_fract_x
_atom_site_fract_y
_atom_site_fract_z
Si Si1 0.692577 0.938016 0.139010
Si Si2 0.974476 0.629662 0.296327
Si Si3 0.793925 0.764286 0.487808
Si Si4 0.985077 0.901260 0.759499
Si Si5 0.473768 0.053153 0.660849
Si Si6 0.071803 0.323336 0.312031
Si Si7 0.755716 0.337557 0.060989
Si Si8 0.762327 0.568426 0.348595
O O1 0.646397 0.958864 0.387399
O O2 0.807089 0.975290 0.190865
O O3 0.643723 0.824353 0.065011
O O4 0.688066 0.993641 0.886227
O O5 0.975985 0.531603 0.372282
O O6 0.865746 0.605442 0.213279
O O7 0.904901 0.844159 0.538710
O O8 0.730278 0.779313 0.704104
O O9 0.781636 0.658268 0.533169
O O10 0.751683 0.757783 0.204327
O O11 0.068808 0.001113 0.639065
O O12 0.520693 0.129398 0.427410
O O13 0.365677 0.962850 0.624087
O O14 0.458975 0.122919 0.861668
O O15 0.689967 0.279918 0.300158
O O16 0.732555 0.257079 0.846277
#
# Coordination Sequence:
#
# PCOD9574633 Si02
#       8
#     3   3   3   3   3   3   3   3
#     4  12  28  45  69  99 145 179 233 295 357 410
#     4  12  28  44  70 105 140 183 229 291 350 414
#     4  11  23  39  64  95 130 182 230 274 336 401
#     4  12  26  39  66  98 143 190 241 285 340 419
#     4  11  26  43  70  96 136 183 242 283 350 424
#     4  11  24  47  68  93 133 182 234 284 341 414
#     4  12  23  38  60  99 144 185 233 282 343 414
#     4  11  24  41  67  95 141 188 228 282 343 422
#
# _framework density 21.123947999999999
#
# number of rings (size 3 to 8) (size 9 to 14) (size 15 to 20)
#    0.000    0.500    3.750    4.500   10.500    0.000 
#    0.000    0.000    0.000    1.500    0.000    0.000 
#    0.000    0.000    0.000    0.000    0.000    0.000 
#
# Total GULP energy -134146.218373 kJ/mol
# GULP energy per Si atom -5589.425766 kJ/mol
# Density = 2.107587 g / cm^3
# Si number density = 21.123948 Si / 1000 Ang^3
#
#
#
# Elastic Constant Matrix: (Units=GPa)
#
#
# Indices 1 2 3 4 5 6 
#
# 1 114.9690 54.6662 21.7504 1.6131 1.6773 0.0000
# 2 54.6662 114.9690 21.7504 -1.6131 -1.6773 0.0000
# 3 21.7504 21.7504 66.5930 0.0000 0.0000 0.0000
# 4 1.6131 -1.6131 0.0000 31.9501 0.0000 -1.6773
# 5 1.6773 -1.6773 0.0000 0.0000 31.9501 1.6131
# 6 0.0000 0.0000 0.0000 -1.6773 1.6131 30.1514
#
#
#
# Elastic Compliance Matrix: (Units=1/GPa)
#
#
# Indices 1 2 3 4 5 6 
#
# 1 0.011555 -0.005121 -0.002101 -0.000842 -0.000875 0.000000
# 2 -0.005121 0.011555 -0.002101 0.000842 0.000875 0.000000
# 3 -0.002101 -0.002101 0.016389 0.000000 0.000000 0.000000
# 4 -0.000842 0.000842 0.000000 0.031476 0.000000 0.001751
# 5 -0.000875 0.000875 0.000000 0.000000 0.031476 -0.001684
# 6 0.000000 0.000000 0.000000 0.001751 -0.001684 0.033353
#
#
# Mechanical properties :
#
#
# Convention : Reuss Voigt Hill
#
# Bulk Modulus (GPa) = 47.95839 54.76278 51.36059
# Shear Modulus (GPa) = 30.97819 32.03458 31.50638
#
# Velocity S-wave (km/s) = 3.83364 3.89846 3.86618
# Velocity P-wave (km/s) = 6.50756 6.80035 6.65557
#
# Compressibility (1/GPa) = 0.02085141
#
# Stress axis : x y z
#
# Youngs Moduli (GPa) = 86.54036 86.54036 61.01542
#
# Poissons Ratio (x) = 0.44321 0.12822
# Poissons Ratio (y) = 0.44321 0.12822
# Poissons Ratio (z) = 0.18186 0.18186
#
# Static dielectric constant tensor:
#      x y z
#    x 1.790970 0.000000 0.000000 
#    y 0.000000 1.790970 0.000000 
#    z 0.000000 0.000000 1.833310 
# 
# From -- ./inp_files/168.got.cif
#   From: 2010.05.17/outbox.cif.g08.bks.cpg/sg145_cif.got.tgz:168.got - 2010.05.20 13:47:28.
