data_PCOD9574681
_publ_section_title
;
Structure prediction by ZEFSAII (Michael W. Deem and Ramdas Pophale) SiO2 
 PCOD9574681
Probable space group: R 3
;
_chemical_formula_sum "Si O2"
_cell_formula_units_Z 54
_cell_length_a 18.169814
_cell_length_b 18.169814
_cell_length_c 8.636846
_cell_angle_alpha 90.000000
_cell_angle_beta 90.000000
_cell_angle_gamma 120.000000
_cell_volume 2469.373429
_symmetry_space_group_name_H-M "R 3"
_symmetry_group_IT_number 146
_symmetry_cell_setting 'hexagonal'
loop_
_space_group_symop_operation_xyz
x,y,z
-y,x-y,z
-x+y,-x,z
2/3+x,1/3+y,1/3+z
2/3-y,1/3+x-y,1/3+z
2/3-x+y,1/3-x,1/3+z
1/3+x,2/3+y,2/3+z
1/3-y,2/3+x-y,2/3+z
1/3-x+y,2/3-x,2/3+z
loop_
_atom_site_type_symbol
_atom_site_label
_atom_site_fract_x
_atom_site_fract_y
_atom_site_fract_z
Si Si1 0.905782 0.653969 0.504170
Si Si2 0.427551 0.414853 0.326161
Si Si3 0.762623 0.237622 0.088696
Si Si4 0.091498 0.189086 0.379844
Si Si5 0.522420 0.758165 0.450485
Si Si6 0.237378 0.474999 0.074967
O O1 0.916138 0.582805 0.415166
O O2 0.828454 0.605173 0.623451
O O3 0.892958 0.715889 0.389460
O O4 0.000000 0.712767 0.581832
O O5 0.440376 0.489599 0.440869
O O6 0.504879 0.443385 0.206879
O O7 0.769950 0.241856 0.900256
O O8 0.826650 0.328329 0.161414
O O9 0.668154 0.214074 0.139403
O O10 0.120747 0.119260 0.357592
O O11 0.994996 0.159983 0.335582
O O12 0.528094 0.758144 0.263407
#
# Coordination Sequence:
#
# PCOD9574681 Si02
#       6
#     9   9   9   9   9   9
#     4  12  20  37  65  95 123 164 214 265 313 376
#     4  12  20  37  65  95 123 164 214 265 313 376
#     4  10  19  35  60  94 127 157 215 266 310 368
#     4  10  20  34  60  94 123 162 212 268 313 362
#     4  10  20  34  60  94 123 162 212 268 313 362
#     4  10  19  35  60  94 127 157 215 266 310 368
#
# _framework density 21.867895000000001
#
# number of rings (size 3 to 8) (size 9 to 14) (size 15 to 20)
#    0.000    1.333    6.667    1.667    0.000    2.667 
#    0.000    1.667    0.000   28.000    0.000    0.000 
#    0.000    0.000    0.000    0.000    0.000    0.000 
#
# Total GULP energy -100372.588012 kJ/mol
# GULP energy per Si atom -5576.254890 kJ/mol
# Density = 2.181812 g / cm^3
# Si number density = 21.867895 Si / 1000 Ang^3
#
#
#
# Elastic Constant Matrix: (Units=GPa)
#
#
# Indices 1 2 3 4 5 6 
#
# 1 154.7256 79.3229 51.8069 -11.6425 0.0001 0.0000
# 2 79.3229 154.7256 51.8069 11.6425 0.0000 0.0000
# 3 51.8069 51.8069 42.3792 0.0001 0.0003 0.0001
# 4 -11.6425 11.6425 0.0001 21.4951 0.0000 0.0000
# 5 0.0001 0.0000 0.0003 0.0000 21.4952 -11.6425
# 6 0.0000 0.0000 0.0001 0.0000 -11.6425 37.7014
#
#
#
# Elastic Compliance Matrix: (Units=1/GPa)
#
#
# Indices 1 2 3 4 5 6 
#
# 1 0.012619 -0.003307 -0.011384 0.008626 0.000000 0.000000
# 2 -0.003307 0.012619 -0.011384 -0.008626 0.000000 0.000000
# 3 -0.011384 -0.011384 0.051429 0.000000 -0.000001 0.000000
# 4 0.008626 -0.008626 0.000000 0.055867 0.000000 0.000000
# 5 0.000000 0.000000 -0.000001 0.000000 0.055866 0.017252
# 6 0.000000 0.000000 0.000000 0.000000 0.017252 0.031852
#
#
# Mechanical properties :
#
#
# Convention : Reuss Voigt Hill
#
# Bulk Modulus (GPa) = 40.78599 79.74486 60.26543
# Shear Modulus (GPa) = 17.82060 27.39791 22.60925
#
# Velocity S-wave (km/s) = 2.85778 3.54345 3.21892
# Velocity P-wave (km/s) = 5.43882 7.29981 6.43692
#
# Compressibility (1/GPa) = 0.02451822
#
# Stress axis : x y z
#
# Youngs Moduli (GPa) = 79.24472 79.24497 19.44414
#
# Poissons Ratio (x) = 0.26205 0.22135
# Poissons Ratio (y) = 0.26205 0.22135
# Poissons Ratio (z) = 0.90212 0.90212
#
# Static dielectric constant tensor:
#      x y z
#    x 1.837420 0.000000 0.000000 
#    y 0.000000 1.837420 0.000000 
#    z 0.000000 0.000000 1.915730 
# 
# From -- ./inp_files/1200.got.cif
#   From: 2010.05.17/outbox.cif.g08.bks.cpg/sg146_cif.got.tgz:1200.got - 2010.05.20 13:48:23.
