data_PCOD9574785
_publ_section_title
;
Structure prediction by ZEFSAII (Michael W. Deem and Ramdas Pophale) SiO2 
 PCOD9574785
Probable space group: R 3
;
_chemical_formula_sum "Si O2"
_cell_formula_units_Z 63
_cell_length_a 19.468649
_cell_length_b 19.468649
_cell_length_c 8.282682
_cell_angle_alpha 90.000000
_cell_angle_beta 90.000000
_cell_angle_gamma 120.000000
_cell_volume 2718.774888
_symmetry_space_group_name_H-M "R 3"
_symmetry_group_IT_number 146
_symmetry_cell_setting 'hexagonal'
loop_
_space_group_symop_operation_xyz
x,y,z
-y,x-y,z
-x+y,-x,z
2/3+x,1/3+y,1/3+z
2/3-y,1/3+x-y,1/3+z
2/3-x+y,1/3-x,1/3+z
1/3+x,2/3+y,2/3+z
1/3-y,2/3+x-y,2/3+z
1/3-x+y,2/3-x,2/3+z
loop_
_atom_site_type_symbol
_atom_site_label
_atom_site_fract_x
_atom_site_fract_y
_atom_site_fract_z
Si Si1 0.205561 0.388432 0.610620
Si Si2 0.622286 0.940090 0.849341
Si Si3 0.113282 0.859111 0.346982
Si Si4 0.706324 0.630343 0.079631
Si Si5 0.768700 0.391726 0.139053
Si Si6 0.431141 0.006769 0.744981
Si Si7 0.316012 0.813841 0.188961
O O1 0.239747 0.368445 0.767590
O O2 0.195063 0.325974 0.470384
O O3 0.115774 0.363264 0.647869
O O4 0.257809 0.480467 0.559232
O O5 0.637135 0.994683 0.684765
O O6 0.532556 0.903645 0.910066
O O7 0.185529 0.894135 0.222036
O O8 0.113294 0.932445 0.436653
O O9 0.654515 0.672839 0.106785
O O10 0.746721 0.627633 0.245879
O O11 0.665774 0.545264 0.996836
O O12 0.703662 0.418663 0.174062
O O13 0.788028 0.390565 0.948263
O O14 0.505243 0.095992 0.741328
#
# Coordination Sequence:
#
# PCOD9574785 Si02
#       7
#     9   9   9   9   9   9   9
#     4  11  24  45  70 101 146 189 244 300 372 451
#     4  12  26  48  74 112 149 191 250 306 379 456
#     4  11  24  41  72 105 140 191 236 313 370 443
#     4  11  22  35  66 104 138 179 222 306 378 434
#     4  10  25  46  69  94 134 203 247 293 363 452
#     4  12  20  37  63 103 139 173 232 298 378 433
#     4  11  21  42  66  99 140 182 239 298 368 441
#
# _framework density 23.172201999999999
#
# number of rings (size 3 to 8) (size 9 to 14) (size 15 to 20)
#    0.286    0.571    5.714    1.714    0.000    5.714 
#    2.571    0.000    0.000    1.714    0.000    0.000 
#    0.000    0.000    0.000    0.000    0.000    0.000 
#
# Total GULP energy -117150.094722 kJ/mol
# GULP energy per Si atom -5578.575939 kJ/mol
# Density = 2.311946 g / cm^3
# Si number density = 23.172202 Si / 1000 Ang^3
#
#
#
# Elastic Constant Matrix: (Units=GPa)
#
#
# Indices 1 2 3 4 5 6 
#
# 1 40.0075 -4.2287 9.8589 1.1079 -2.0525 0.0021
# 2 -4.2287 39.9995 9.8499 -1.1053 2.0621 0.0006
# 3 9.8589 9.8499 98.3194 0.0027 0.0042 0.0038
# 4 1.1079 -1.1053 0.0027 37.7346 0.0017 2.0602
# 5 -2.0525 2.0621 0.0042 0.0017 37.7368 1.1078
# 6 0.0021 0.0006 0.0038 2.0602 1.1078 22.1157
#
#
#
# Elastic Compliance Matrix: (Units=1/GPa)
#
#
# Indices 1 2 3 4 5 6 
#
# 1 0.026169 0.003415 -0.002966 -0.000668 0.001237 -0.000002
# 2 0.003415 0.026174 -0.002965 0.000667 -0.001244 0.000000
# 3 -0.002966 -0.002965 0.010765 0.000000 0.000000 -0.000001
# 4 -0.000668 0.000667 0.000000 0.026676 -0.000001 -0.002485
# 5 0.001237 -0.001244 0.000000 -0.000001 0.026674 -0.001336
# 6 -0.000002 0.000000 -0.000001 -0.002485 -0.001336 0.045515
#
#
# Mechanical properties :
#
#
# Convention : Reuss Voigt Hill
#
# Bulk Modulus (GPa) = 17.21869 23.25407 20.23638
# Shear Modulus (GPa) = 26.82923 30.37385 28.60154
#
# Velocity S-wave (km/s) = 3.40637 3.62441 3.51708
# Velocity P-wave (km/s) = 4.78727 5.25093 5.02445
#
# Compressibility (1/GPa) = 0.05807643
#
# Stress axis : x y z
#
# Youngs Moduli (GPa) = 38.21290 38.20599 92.89052
#
# Poissons Ratio (x) = -0.13046 0.27554
# Poissons Ratio (y) = -0.13049 0.27538
# Poissons Ratio (z) = 0.11335 0.11326
#
# Static dielectric constant tensor:
#      x y z
#    x 1.903210 0.000000 0.000000 
#    y 0.000000 1.903220 0.000000 
#    z 0.000000 0.000000 1.995400 
# 
# From -- ./inp_files/810.got.cif
#   From: 2010.05.17/outbox.cif.g08.bks.cpg/sg146_cif.got.tgz:810.got - 2010.05.20 13:48:23.
