data_PCOD9574758
_publ_section_title
;
Structure prediction by ZEFSAII (Michael W. Deem and Ramdas Pophale) SiO2 
 PCOD9574758
Probable space group: R 3
;
_chemical_formula_sum "Si O2"
_cell_formula_units_Z 60
_cell_length_a 16.595549
_cell_length_b 16.595549
_cell_length_c 11.470327
_cell_angle_alpha 90.000000
_cell_angle_beta 90.000000
_cell_angle_gamma 120.000000
_cell_volume 2735.833598
_symmetry_space_group_name_H-M "R 3"
_symmetry_group_IT_number 146
_symmetry_cell_setting 'hexagonal'
loop_
_space_group_symop_operation_xyz
x,y,z
-y,x-y,z
-x+y,-x,z
2/3+x,1/3+y,1/3+z
2/3-y,1/3+x-y,1/3+z
2/3-x+y,1/3-x,1/3+z
1/3+x,2/3+y,2/3+z
1/3-y,2/3+x-y,2/3+z
1/3-x+y,2/3-x,2/3+z
loop_
_atom_site_type_symbol
_atom_site_label
_atom_site_fract_x
_atom_site_fract_y
_atom_site_fract_z
Si Si1 0.793081 0.548076 0.084820
Si Si2 0.977837 0.469461 0.596428
Si Si3 0.510092 0.533851 0.197827
Si Si4 0.333334 0.666668 0.739135
Si Si5 0.557888 0.137997 0.053225
Si Si6 0.000000 0.000000 0.351147
Si Si7 0.149760 0.465283 0.711685
Si Si8 0.956241 0.138246 0.456288
O O1 0.852642 0.630660 0.175121
O O2 0.799182 0.457131 0.110159
O O3 0.684431 0.518987 0.091175
O O4 0.820270 0.579068 0.950435
O O5 0.059468 0.468781 0.671046
O O6 0.914755 0.385475 0.506284
O O7 0.906003 0.457929 0.696684
O O8 0.505785 0.472793 0.088323
O O9 0.574033 0.515789 0.288075
O O10 0.552324 0.638428 0.149033
O O11 0.242990 0.566967 0.705262
O O12 0.333334 0.666667 0.879979
O O13 0.568160 0.154685 0.916249
O O14 0.016885 0.096693 0.402777
#
# Coordination Sequence:
#
# PCOD9574758 Si02
#       8
#     9   9   9   3   9   3   9   9
#     4  10  23  41  64  96 127 177 229 289 343 427
#     4  11  23  39  67 100 136 173 233 298 355 420
#     4  10  23  39  64  98 131 173 234 288 346 422
#     4  12  27  45  73 107 151 201 246 310 362 442
#     4  11  22  41  66  93 132 177 227 287 350 419
#     4  12  24  51  70 107 139 189 249 295 371 445
#     4  11  24  43  69 102 144 186 245 299 364 434
#     4  11  24  41  73  99 138 180 237 296 361 437
#
# _framework density 21.931156999999999
#
# number of rings (size 3 to 8) (size 9 to 14) (size 15 to 20)
#    0.000    1.200    3.000    3.000    8.400    0.000 
#    0.000    3.000    0.000    0.000    0.000    0.000 
#    0.000    0.000    0.000    0.000    0.000    0.000 
#
# Total GULP energy -111479.486434 kJ/mol
# GULP energy per Si atom -5573.974322 kJ/mol
# Density = 2.188124 g / cm^3
# Si number density = 21.931157 Si / 1000 Ang^3
#
#
#
# Elastic Constant Matrix: (Units=GPa)
#
#
# Indices 1 2 3 4 5 6 
#
# 1 78.5672 28.5904 16.0068 3.3978 -1.1626 -0.0001
# 2 28.5904 78.5674 16.0069 -3.3980 1.1625 -0.0004
# 3 16.0068 16.0069 81.6355 0.0001 -0.0001 -0.0001
# 4 3.3978 -3.3980 0.0001 24.5422 -0.0001 1.1627
# 5 -1.1626 1.1625 -0.0001 -0.0001 24.5424 3.3978
# 6 -0.0001 -0.0004 -0.0001 1.1627 3.3978 24.9884
#
#
#
# Elastic Compliance Matrix: (Units=1/GPa)
#
#
# Indices 1 2 3 4 5 6 
#
# 1 0.015176 -0.005263 -0.001944 -0.002830 0.000968 0.000000
# 2 -0.005263 0.015176 -0.001944 0.002830 -0.000968 0.000000
# 3 -0.001944 -0.001944 0.013012 0.000000 0.000000 0.000000
# 4 -0.002830 0.002830 0.000000 0.041621 0.000000 -0.001937
# 5 0.000968 -0.000968 0.000000 0.000000 0.041621 -0.005660
# 6 0.000000 0.000000 0.000000 -0.001937 -0.005660 0.040878
#
#
# Mechanical properties :
#
#
# Convention : Reuss Voigt Hill
#
# Bulk Modulus (GPa) = 39.90012 39.99760 39.94886
# Shear Modulus (GPa) = 25.75467 26.69234 26.22351
#
# Velocity S-wave (km/s) = 3.43058 3.49248 3.46167
# Velocity P-wave (km/s) = 5.82449 5.87712 5.85087
#
# Compressibility (1/GPa) = 0.02506258
#
# Stress axis : x y z
#
# Youngs Moduli (GPa) = 65.89390 65.89400 76.85341
#
# Poissons Ratio (x) = 0.34681 0.14938
# Poissons Ratio (y) = 0.34681 0.14938
# Poissons Ratio (z) = 0.12807 0.12808
#
# Static dielectric constant tensor:
#      x y z
#    x 1.819030 0.000000 0.000000 
#    y 0.000000 1.819030 0.000000 
#    z 0.000000 0.000000 1.849800 
# 
# From -- ./inp_files/1246.got.cif
#   From: 2010.05.17/outbox.cif.g08.bks.cpg/sg146_cif.got.tgz:1246.got - 2010.05.20 13:48:23.
