data_PCOD9574549
_publ_section_title
;
Structure prediction by ZEFSAII (Michael W. Deem and Ramdas Pophale) SiO2 
 PCOD9574549
Probable space group: P 32
;
_chemical_formula_sum "Si O2"
_cell_formula_units_Z 18
_cell_length_a 11.635436
_cell_length_b 11.635436
_cell_length_c 5.520850
_cell_angle_alpha 90.000000
_cell_angle_beta 90.000000
_cell_angle_gamma 120.000000
_cell_volume 647.294479
_symmetry_space_group_name_H-M "P 32"
_symmetry_group_IT_number 145
_symmetry_cell_setting 'hexagonal'
loop_
_space_group_symop_operation_xyz
x,y,z
-y,x-y,2/3+z
-x+y,-x,1/3+z
loop_
_atom_site_type_symbol
_atom_site_label
_atom_site_fract_x
_atom_site_fract_y
_atom_site_fract_z
Si Si1 0.476008 0.447215 0.021050
Si Si2 0.706469 0.468871 0.516983
Si Si3 0.307077 0.031676 0.907485
Si Si4 0.396548 0.600412 0.712890
Si Si5 0.150085 0.778417 0.632626
Si Si6 0.873473 0.996530 0.622654
O O1 0.619347 0.572931 0.074157
O O2 0.376859 0.420425 0.249826
O O3 0.496755 0.323139 0.995420
O O4 0.412376 0.476542 0.786065
O O5 0.758927 0.422348 0.748138
O O6 0.701907 0.606467 0.491208
O O7 0.240091 0.117774 0.817854
O O8 0.189874 0.876523 0.865281
O O9 0.429917 0.681067 0.465049
O O10 0.502053 0.712462 0.890414
O O11 0.097478 0.839684 0.432215
O O12 0.921019 0.909645 0.483160
#
# Coordination Sequence:
#
# PCOD9574549 Si02
#       6
#     3   3   3   3   3   3
#     4   9  19  40  67  94 140 176 231 288 337 419
#     4  10  21  42  66  99 138 179 234 287 347 412
#     4  10  21  42  67  98 137 179 228 285 343 418
#     4   9  19  39  61  92 134 173 222 278 339 412
#     4  10  20  42  63  92 137 175 218 281 339 404
#     4  12  24  43  66  97 134 178 229 283 341 409
#
# _framework density 27.808057000000002
#
# number of rings (size 3 to 8) (size 9 to 14) (size 15 to 20)
#    0.000    2.000    3.333    0.000    0.000    0.000 
#   27.000   11.667    0.000    0.000    0.000    0.000 
#    0.000    0.000    0.000    0.000    0.000    0.000 
#
# Total GULP energy -100404.004164 kJ/mol
# GULP energy per Si atom -5578.000231 kJ/mol
# Density = 2.774476 g / cm^3
# Si number density = 27.808057 Si / 1000 Ang^3
#
#
#
# Elastic Constant Matrix: (Units=GPa)
#
#
# Indices 1 2 3 4 5 6 
#
# 1 110.0198 18.4330 23.2271 -2.7623 -8.5180 0.0000
# 2 18.4330 110.0198 23.2271 2.7623 8.5180 0.0000
# 3 23.2271 23.2271 52.9205 0.0000 0.0000 0.0000
# 4 -2.7623 2.7623 0.0000 36.0015 0.0000 8.5180
# 5 -8.5180 8.5180 0.0000 0.0000 36.0015 -2.7623
# 6 0.0000 0.0000 0.0000 8.5180 -2.7623 45.7934
#
#
#
# Elastic Compliance Matrix: (Units=1/GPa)
#
#
# Indices 1 2 3 4 5 6 
#
# 1 0.010365 -0.001112 -0.004062 0.000881 0.002715 0.000000
# 2 -0.001112 0.010365 -0.004062 -0.000881 -0.002715 0.000000
# 3 -0.004062 -0.004062 0.022462 0.000000 0.000000 0.000000
# 4 0.000881 -0.000881 0.000000 0.029197 0.000000 -0.005431
# 5 0.002715 -0.002715 0.000000 0.000000 0.029197 0.001761
# 6 0.000000 0.000000 0.000000 -0.005431 0.001761 0.022954
#
#
# Mechanical properties :
#
#
# Convention : Reuss Voigt Hill
#
# Bulk Modulus (GPa) = 40.44826 44.74829 42.59828
# Shear Modulus (GPa) = 33.05802 37.43083 35.24443
#
# Velocity S-wave (km/s) = 3.45163 3.67283 3.56394
# Velocity P-wave (km/s) = 5.51925 5.84063 5.68221
#
# Compressibility (1/GPa) = 0.02472294
#
# Stress axis : x y z
#
# Youngs Moduli (GPa) = 96.47574 96.47574 44.52055
#
# Poissons Ratio (x) = 0.10723 0.18082
# Poissons Ratio (y) = 0.10723 0.18082
# Poissons Ratio (z) = 0.39184 0.39184
#
# Static dielectric constant tensor:
#      x y z
#    x 2.237310 0.000000 0.000000 
#    y 0.000000 2.237310 0.000000 
#    z 0.000000 0.000000 2.205900 
# 
# From -- ./inp_files/317.got.cif
#   From: 2010.05.17/outbox.cif.g08.bks.cpg/sg145_cif.got.tgz:317.got - 2010.05.20 13:47:28.
