data_PCOD9574523
_publ_section_title
;
Structure prediction by ZEFSAII (Michael W. Deem and Ramdas Pophale) SiO2 
 PCOD9574523
Probable space group: P 31
;
_chemical_formula_sum "Si O2"
_cell_formula_units_Z 21
_cell_length_a 12.000000
_cell_length_b 12.000000
_cell_length_c 9.000000
_cell_angle_alpha 90.000000
_cell_angle_beta 90.000000
_cell_angle_gamma 120.000000
_cell_volume 1122.368923
_symmetry_space_group_name_H-M "P 31"
_symmetry_group_IT_number 144
_symmetry_cell_setting 'hexagonal'
loop_
_space_group_symop_operation_xyz
x,y,z
-y,x-y,1/3+z
-x+y,-x,2/3+z
loop_
_atom_site_type_symbol
_atom_site_label
_atom_site_fract_x
_atom_site_fract_y
_atom_site_fract_z
Si Si1 0.874275 0.807863 0.644240
Si Si2 0.210315 0.532332 0.371850
Si Si3 0.531307 0.957355 0.621878
Si Si4 0.956060 0.782371 0.969663
Si Si5 0.516132 0.677218 0.029669
Si Si6 0.003372 0.350084 0.133378
Si Si7 0.163103 0.945146 0.520901
O O1 0.894770 0.788982 0.814637
O O2 0.768102 0.675430 0.569298
O O3 0.010813 0.873164 0.556557
O O4 0.819361 0.906158 0.640968
O O5 0.332120 0.511041 0.367694
O O6 0.267249 0.685532 0.371265
O O7 0.129839 0.479381 0.523129
O O8 0.121617 0.450336 0.235226
O O9 0.450049 0.914249 0.466610
O O10 0.477250 0.036370 0.711726
O O11 0.685032 0.026961 0.624761
O O12 0.873820 0.792167 0.106507
O O13 0.655927 0.787082 0.085093
O O14 0.041966 0.278657 0.008462
#
# Coordination Sequence:
#
# PCOD9574523 Si02
#       7
#     3   3   3   3   3   3   3
#     4  12  22  38  65  96 131 163 210 269 326 390
#     4  12  20  36  60  93 127 167 203 262 320 380
#     4  11  23  40  62  94 131 173 206 267 321 390
#     4  12  24  40  64  92 136 170 213 263 330 383
#     4  11  24  36  63  94 134 163 216 258 330 377
#     4  11  23  41  61  93 129 165 219 260 321 390
#     4  11  24  41  61  98 130 171 209 269 326 388
#
# _framework density 18.710425000000001
#
# number of rings (size 3 to 8) (size 9 to 14) (size 15 to 20)
#    0.000    0.571    7.143    0.857    4.000    0.000 
#    0.000    0.000    0.000    6.857    0.000    0.000 
#    0.000    0.000    0.000    0.000    0.000    0.000 
#
# Total GULP energy -117215.346903 kJ/mol
# GULP energy per Si atom -5581.683186 kJ/mol
# Density = 1.866784 g / cm^3
# Si number density = 18.710425 Si / 1000 Ang^3
#
#
#
# Elastic Constant Matrix: (Units=GPa)
#
#
# Indices 1 2 3 4 5 6 
#
# 1 92.8524 30.5604 42.0246 3.5063 -5.8775 0.0000
# 2 30.5604 92.8524 42.0246 -3.5063 5.8775 0.0000
# 3 42.0246 42.0246 127.5810 0.0000 0.0000 0.0000
# 4 3.5063 -3.5063 0.0000 18.3378 0.0000 5.8775
# 5 -5.8775 5.8775 0.0000 0.0000 18.3378 3.5063
# 6 0.0000 0.0000 0.0000 5.8775 3.5063 31.1460
#
#
#
# Elastic Compliance Matrix: (Units=1/GPa)
#
#
# Indices 1 2 3 4 5 6 
#
# 1 0.013967 -0.003521 -0.003441 -0.003344 0.005605 0.000000
# 2 -0.003521 0.013967 -0.003441 0.003344 -0.005605 0.000000
# 3 -0.003441 -0.003441 0.010105 0.000000 0.000000 0.000000
# 4 -0.003344 0.003344 0.000000 0.059404 0.000000 -0.011210
# 5 0.005605 -0.005605 0.000000 0.000000 0.059404 -0.006687
# 6 0.000000 0.000000 0.000000 -0.011210 -0.006687 0.034975
#
#
# Mechanical properties :
#
#
# Convention : Reuss Voigt Hill
#
# Bulk Modulus (GPa) = 58.02548 60.27834 59.15191
# Shear Modulus (GPa) = 22.89677 26.80938 24.85308
#
# Velocity S-wave (km/s) = 3.50200 3.78942 3.64854
# Velocity P-wave (km/s) = 6.88707 7.17165 7.03080
#
# Compressibility (1/GPa) = 0.01723381
#
# Stress axis : x y z
#
# Youngs Moduli (GPa) = 71.59764 71.59764 98.96040
#
# Poissons Ratio (x) = 0.25207 0.34052
# Poissons Ratio (y) = 0.25207 0.34052
# Poissons Ratio (z) = 0.24637 0.24637
#
# Static dielectric constant tensor:
#      x y z
#    x 1.646400 0.000000 0.000000 
#    y 0.000000 1.646400 0.000000 
#    z 0.000000 0.000000 1.718940 
# 
# From -- ./inp_files/326.got.cif
#   From: 2010.05.17/outbox.ucp.g08.bks.cvg/sg144_cif.got.tgz:326.got - 2010.06.11 11:44:17.
