data_PCOD9574401
_publ_section_title
;
Structure prediction by ZEFSAII (Michael W. Deem and Ramdas Pophale) SiO2 
 PCOD9574401
Probable space group: P 31
;
_chemical_formula_sum "Si O2"
_cell_formula_units_Z 18
_cell_length_a 8.318340
_cell_length_b 8.318340
_cell_length_c 11.024197
_cell_angle_alpha 90.000000
_cell_angle_beta 90.000000
_cell_angle_gamma 120.000000
_cell_volume 660.618805
_symmetry_space_group_name_H-M "P 31"
_symmetry_group_IT_number 144
_symmetry_cell_setting 'hexagonal'
loop_
_space_group_symop_operation_xyz
x,y,z
-y,x-y,1/3+z
-x+y,-x,2/3+z
loop_
_atom_site_type_symbol
_atom_site_label
_atom_site_fract_x
_atom_site_fract_y
_atom_site_fract_z
Si Si1 0.153672 0.650936 0.846290
Si Si2 0.462646 0.615496 0.752005
Si Si3 0.031779 0.167904 0.079172
Si Si4 0.802141 0.861766 0.908203
Si Si5 0.724637 0.208191 0.171177
Si Si6 0.720156 0.200619 0.667374
O O1 0.252531 0.544039 0.794399
O O2 0.946332 0.533289 0.898400
O O3 0.174739 0.798402 0.742519
O O4 0.271075 0.774203 0.961660
O O5 0.597413 0.763205 0.853562
O O6 0.494860 0.441268 0.754095
O O7 0.885231 0.157934 0.179801
O O8 0.125167 0.054305 0.128487
O O9 0.899396 0.064982 0.966358
O O10 0.820839 0.721961 0.002766
O O11 0.615540 0.205963 0.289383
O O12 0.820859 0.414475 0.114420
#
# Coordination Sequence:
#
# PCOD9574401 Si02
#       6
#     3   3   3   3   3   3
#     4  11  24  43  68  98 136 183 233 290 353 422
#     4  11  24  45  69 100 136 181 237 294 353 422
#     4  11  23  40  66  97 134 180 226 288 353 421
#     4  10  23  43  68  98 136 180 233 288 353 422
#     4  11  24  40  63  94 131 173 222 282 346 412
#     4  10  24  43  64  93 133 177 225 284 346 415
#
# _framework density 27.247178999999999
#
# number of rings (size 3 to 8) (size 9 to 14) (size 15 to 20)
#    0.000    1.333    0.000    5.000    0.000   12.000 
#    0.000    1.667    0.000    0.000    0.000    0.000 
#    0.000    0.000    0.000    0.000    0.000    0.000 
#
# Total GULP energy -100871.369082 kJ/mol
# GULP energy per Si atom -5603.964949 kJ/mol
# Density = 2.718516 g / cm^3
# Si number density = 27.247179 Si / 1000 Ang^3
#
#
#
# Elastic Constant Matrix: (Units=GPa)
#
#
# Indices 1 2 3 4 5 6 
#
# 1 106.3300 18.4803 20.3317 3.1932 -10.6970 0.0000
# 2 18.4803 106.3300 20.3317 -3.1932 10.6970 0.0000
# 3 20.3317 20.3317 76.8573 0.0000 0.0000 0.0000
# 4 3.1932 -3.1932 0.0000 40.2559 0.0000 10.6970
# 5 -10.6970 10.6970 0.0000 0.0000 40.2559 3.1932
# 6 0.0000 0.0000 0.0000 10.6970 3.1932 43.9248
#
#
#
# Elastic Compliance Matrix: (Units=1/GPa)
#
#
# Indices 1 2 3 4 5 6 
#
# 1 0.010507 -0.001739 -0.002319 -0.000971 0.003254 0.000000
# 2 -0.001739 0.010507 -0.002319 0.000971 -0.003254 0.000000
# 3 -0.002319 -0.002319 0.014238 0.000000 0.000000 0.000000
# 4 -0.000971 0.000971 0.000000 0.026725 0.000000 -0.006508
# 5 0.003254 -0.003254 0.000000 0.000000 0.026725 -0.001943
# 6 0.000000 0.000000 0.000000 -0.006508 -0.001943 0.024492
#
#
# Mechanical properties :
#
#
# Convention : Reuss Voigt Hill
#
# Bulk Modulus (GPa) = 44.45190 45.31165 44.88178
# Shear Modulus (GPa) = 37.46760 40.24555 38.85658
#
# Velocity S-wave (km/s) = 3.71226 3.84742 3.78044
# Velocity P-wave (km/s) = 5.89272 6.03347 5.96351
#
# Compressibility (1/GPa) = 0.02249623
#
# Stress axis : x y z
#
# Youngs Moduli (GPa) = 95.17464 95.17464 70.23319
#
# Poissons Ratio (x) = 0.16552 0.16290
# Poissons Ratio (y) = 0.16552 0.16290
# Poissons Ratio (z) = 0.22075 0.22075
#
# Static dielectric constant tensor:
#      x y z
#    x 2.063220 0.000000 0.000000 
#    y 0.000000 2.063220 0.000000 
#    z 0.000000 0.000000 2.095410 
# 
# From -- ./inp_files/498.got.cif
#   From: 2010.05.17/outbox.cif.g08.bks.cpg/sg144_cif.got.tgz:498.got - 2010.05.20 13:46:34.
