data_PCOD9574972
_publ_section_title
;
Structure prediction by ZEFSAII (Michael W. Deem and Ramdas Pophale) SiO2 
 PCOD9574972
Probable space group: P -3
;
_chemical_formula_sum "Si O2"
_cell_formula_units_Z 34
_cell_length_a 11.057207
_cell_length_b 11.057207
_cell_length_c 16.369699
_cell_angle_alpha 90.000000
_cell_angle_beta 90.000000
_cell_angle_gamma 120.000000
_cell_volume 1733.253978
_symmetry_space_group_name_H-M "P -3"
_symmetry_group_IT_number 147
_symmetry_cell_setting 'hexagonal'
loop_
_space_group_symop_operation_xyz
x,y,z
-y,x-y,z
-x+y,-x,z
-x,-y,-z
y,-x+y,-z
x-y,x,-z
loop_
_atom_site_type_symbol
_atom_site_label
_atom_site_fract_x
_atom_site_fract_y
_atom_site_fract_z
Si Si1 0.019848 0.283194 0.680526
Si Si2 0.988262 0.726786 0.666147
Si Si3 0.333798 0.926316 0.500136
Si Si4 0.434984 0.851068 0.952503
Si Si5 0.666667 0.333334 0.768246
Si Si6 0.333334 0.666668 0.431408
Si Si7 0.505021 0.507838 0.218125
O O1 0.860129 0.165665 0.685679
O O2 0.042929 0.401572 0.743263
O O3 0.120487 0.221197 0.695066
O O4 0.057818 0.348357 0.590104
O O5 0.994413 0.710396 0.568884
O O6 0.017544 0.617175 0.712876
O O7 0.284653 0.770870 0.467157
O O8 0.500000 0.000000 0.500000
O O9 0.266116 0.749125 0.967115
O O10 0.479329 0.906461 0.860217
O O11 0.500000 0.000000 0.000000
O O12 0.666668 0.333334 0.667607
O O13 0.582878 0.411472 0.797299
#
# Coordination Sequence:
#
# PCOD9574972 Si02
#       7
#     6   6   6   6   2   2   6
#     4  12  25  40  62  90 131 184 233 299 363 418
#     4  12  24  41  61  89 132 179 237 290 358 420
#     4  12  22  38  56  87 122 174 240 305 351 413
#     4  10  26  49  78 118 149 183 234 282 348 434
#     4  12  21  39  75  99 133 197 244 294 354 435
#     4  12  21  39  57  93 127 179 262 297 354 420
#     4  12  23  43  68 103 140 173 232 285 341 426
#
# _framework density 19.616282000000002
#
# number of rings (size 3 to 8) (size 9 to 14) (size 15 to 20)
#    0.353    0.000    5.294    4.588    2.471    0.000 
#    1.059    1.765    0.000    0.353    0.000    0.000 
#    0.000    0.000    0.000    0.000    0.000    0.000 
#
# Total GULP energy -189839.995993 kJ/mol
# GULP energy per Si atom -5583.529294 kJ/mol
# Density = 1.957163 g / cm^3
# Si number density = 19.616282 Si / 1000 Ang^3
#
#
#
# Elastic Constant Matrix: (Units=GPa)
#
#
# Indices 1 2 3 4 5 6 
#
# 1 89.0367 10.9572 22.4869 -0.5808 2.8792 0.0002
# 2 10.9572 89.0359 22.4872 0.5809 -2.8792 0.0000
# 3 22.4869 22.4872 49.1891 0.0000 0.0001 0.0001
# 4 -0.5808 0.5809 0.0000 21.3937 -0.0001 -2.8791
# 5 2.8792 -2.8792 0.0001 -0.0001 21.3938 -0.5809
# 6 0.0002 0.0000 0.0001 -2.8791 -0.5809 39.0396
#
#
#
# Elastic Compliance Matrix: (Units=1/GPa)
#
#
# Indices 1 2 3 4 5 6 
#
# 1 0.012765 -0.000176 -0.005755 0.000351 -0.001742 0.000000
# 2 -0.000176 0.012765 -0.005755 -0.000351 0.001742 0.000000
# 3 -0.005755 -0.005755 0.025592 0.000000 0.000000 0.000000
# 4 0.000351 -0.000351 0.000000 0.047231 0.000000 0.003483
# 5 -0.001742 0.001742 0.000000 0.000000 0.047230 0.000703
# 6 0.000000 0.000000 0.000000 0.003483 0.000703 0.025882
#
#
# Mechanical properties :
#
#
# Convention : Reuss Voigt Hill
#
# Bulk Modulus (GPa) = 36.03698 37.68049 36.85873
# Shear Modulus (GPa) = 24.49923 27.78745 26.14334
#
# Velocity S-wave (km/s) = 3.53784 3.76779 3.65463
# Velocity P-wave (km/s) = 5.92447 6.17890 6.05302
#
# Compressibility (1/GPa) = 0.02774928
#
# Stress axis : x y z
#
# Youngs Moduli (GPa) = 78.33860 78.33755 39.07507
#
# Poissons Ratio (x) = 0.01379 0.22488
# Poissons Ratio (y) = 0.01379 0.22489
# Poissons Ratio (z) = 0.45085 0.45085
#
# Static dielectric constant tensor:
#      x y z
#    x 1.732870 0.000000 0.000000 
#    y 0.000000 1.732870 0.000000 
#    z 0.000000 0.000000 1.712230 
# 
# From -- ./inp_files/951.got.cif
#   From: 2010.05.17/outbox.cif.g08.bks.cpg/sg147_cif.got.tgz:951.got - 2010.05.20 13:49:32.
