data_PCOD9574220
_publ_section_title
;
Structure prediction by ZEFSAII (Michael W. Deem and Ramdas Pophale) SiO2 
 PCOD9574220
Probable space group: I 41/A C D
;
_chemical_formula_sum "Si O2"
_cell_formula_units_Z 120
_cell_length_a 19.202528
_cell_length_b 19.202528
_cell_length_c 15.616309
_cell_angle_alpha 90.000000
_cell_angle_beta 90.000000
_cell_angle_gamma 90.000000
_cell_volume 5758.312206
_symmetry_space_group_name_H-M "I 41/A C D"
_symmetry_group_IT_number 142
_space_group.IT_coordinate_system_code '2'
_symmetry_cell_setting 'tetragonal'
loop_
_space_group_symop_operation_xyz
x,y,z
1/4-y,3/4+x,1/4+z
-x,1/2-y,z
1/4+y,1/4-x,3/4+z
x,-y,1/2-z
1/2-x,y,-z
3/4+y,1/4+x,1/4-z
1/4-y,1/4-x,1/4-z
-x,-y,-z
3/4+y,1/4-x,3/4-z
x,1/2+y,-z
3/4-y,3/4+x,1/4-z
-x,y,1/2+z
1/2+x,-y,z
1/4-y,3/4-x,3/4+z
3/4+y,3/4+x,3/4+z
1/2+x,1/2+y,1/2+z
3/4-y,1/4+x,3/4+z
1/2-x,-y,1/2+z
3/4+y,3/4-x,1/4+z
1/2+x,1/2-y,-z
-x,1/2+y,1/2-z
1/4+y,3/4+x,3/4-z
3/4-y,3/4-x,3/4-z
1/2-x,1/2-y,1/2-z
1/4+y,3/4-x,1/4-z
1/2+x,y,1/2-z
1/4-y,1/4+x,3/4-z
1/2-x,1/2+y,z
x,1/2-y,1/2+z
3/4-y,1/4-x,1/4+z
1/4+y,1/4+x,1/4+z
loop_
_atom_site_type_symbol
_atom_site_label
_atom_site_fract_x
_atom_site_fract_y
_atom_site_fract_z
Si Si1 0.631843 0.118157 0.375000
Si Si2 0.826874 0.386045 0.530488
Si Si3 0.641262 0.733752 0.479243
Si Si4 0.000000 0.250000 0.375000
Si Si5 0.937330 0.021680 0.934343
O O1 0.626830 0.173394 0.452242
O O2 0.706519 0.136575 0.334355
O O3 0.750000 0.405418 0.500000
O O4 0.836651 0.413350 0.625000
O O5 0.834615 0.303027 0.527385
O O6 0.888654 0.419049 0.474812
O O7 0.569023 0.749096 0.431813
O O8 0.697581 0.715230 0.405668
O O9 0.000000 0.000000 0.000000
#
# Coordination Sequence:
#
# PCOD9574220 Si02
#       5
#    16  32  32   8  32
#     4  12  28  43  82 104 154 198 250 313 394 460
#     4  12  28  47  77 108 153 195 249 311 381 449
#     4  12  26  49  72 114 148 197 258 312 382 456
#     4  12  24  42  80 104 144 202 252 316 370 456
#     4  12  27  51  75 111 155 199 253 322 381 469
#
# _framework density 20.839438999999999
#
# number of rings (size 3 to 8) (size 9 to 14) (size 15 to 20)
#    0.000    0.000    2.667    7.200    9.333    0.000 
#    0.000    0.000    0.000    0.000    0.000    0.000 
#    0.000    0.000    0.000    0.000    0.000    0.000 
#
# Total GULP energy -335900.603567 kJ/mol
# GULP energy per Si atom -5598.343393 kJ/mol
# Density = 2.079201 g / cm^3
# Si number density = 20.839439 Si / 1000 Ang^3
#
#
#
# Elastic Constant Matrix: (Units=GPa)
#
#
# Indices 1 2 3 4 5 6 
#
# 1 93.1588 89.2595 54.8989 0.0000 0.0000 0.0000
# 2 89.2595 93.1538 54.8936 0.0000 0.0000 0.0000
# 3 54.8989 54.8936 138.4797 0.0000 0.0000 0.0000
# 4 0.0000 0.0000 0.0000 29.1138 0.0000 0.0000
# 5 0.0000 0.0000 0.0000 0.0000 29.1113 0.0000
# 6 0.0000 0.0000 0.0000 0.0000 0.0000 34.5732
#
#
#
# Elastic Compliance Matrix: (Units=1/GPa)
#
#
# Indices 1 2 3 4 5 6 
#
# 1 0.131910 -0.124711 -0.002859 0.000000 0.000000 0.000000
# 2 -0.124711 0.131912 -0.002850 0.000000 0.000000 0.000000
# 3 -0.002859 -0.002850 0.009484 0.000000 0.000000 0.000000
# 4 0.000000 0.000000 0.000000 0.034348 0.000000 0.000000
# 5 0.000000 0.000000 0.000000 0.000000 0.034351 0.000000
# 6 0.000000 0.000000 0.000000 0.000000 0.000000 0.028924
#
#
# Mechanical properties :
#
#
# Convention : Reuss Voigt Hill
#
# Bulk Modulus (GPa) = 80.21051 80.32183 80.26617
# Shear Modulus (GPa) = 7.86258 26.94235 17.40247
#
# Velocity S-wave (km/s) = 1.94451 3.59953 2.89290
# Velocity P-wave (km/s) = 6.60415 7.47679 7.05398
#
# Compressibility (1/GPa) = 0.01246719
#
# Stress axis : x y z
#
# Youngs Moduli (GPa) = 7.58091 7.58083 105.43867
#
# Poissons Ratio (x) = 0.94541 0.30143
# Poissons Ratio (y) = 0.94542 0.30045
# Poissons Ratio (z) = 0.02167 0.02160
#
# Static dielectric constant tensor:
#      x y z
#    x 0.675650 0.000000 0.000000 
#    y 0.000000 0.678400 0.000000 
#    z 0.000000 0.000000 1.746130 
# 
# From -- ./inp_files/5050.got.cif
#   From: 2010.05.17/outbox.cif.g08.bks.cpg/sg142_3_cif.got.tgz:5050.got - 2010.05.20 13:39:18.
