data_PCOD9574548
_publ_section_title
;
Structure prediction by ZEFSAII (Michael W. Deem and Ramdas Pophale) SiO2 
 PCOD9574548
Probable space group: P 32
;
_chemical_formula_sum "Si O2"
_cell_formula_units_Z 18
_cell_length_a 7.880223
_cell_length_b 7.880223
_cell_length_c 12.233276
_cell_angle_alpha 90.000000
_cell_angle_beta 90.000000
_cell_angle_gamma 120.000000
_cell_volume 657.885661
_symmetry_space_group_name_H-M "P 32"
_symmetry_group_IT_number 145
_symmetry_cell_setting 'hexagonal'
loop_
_space_group_symop_operation_xyz
x,y,z
-y,x-y,2/3+z
-x+y,-x,1/3+z
loop_
_atom_site_type_symbol
_atom_site_label
_atom_site_fract_x
_atom_site_fract_y
_atom_site_fract_z
Si Si1 0.019268 0.749548 0.144310
Si Si2 0.561221 0.821710 0.141711
Si Si3 0.884295 0.272851 0.851125
Si Si4 0.896534 0.136882 0.242462
Si Si5 0.567403 0.295972 0.957788
Si Si6 0.221721 0.514659 0.235568
O O1 0.131680 0.622812 0.162673
O O2 0.814233 0.605221 0.201941
O O3 0.163146 0.954699 0.202381
O O4 0.984568 0.795599 0.021501
O O5 0.454390 0.651135 0.229431
O O6 0.480352 0.971685 0.164879
O O7 0.789559 0.971528 0.151535
O O8 0.500590 0.695241 0.032147
O O9 0.729871 0.229395 0.947816
O O10 0.755934 0.215070 0.740279
O O11 0.823933 0.297472 0.260164
O O12 0.118369 0.287231 0.205705
#
# Coordination Sequence:
#
# PCOD9574548 Si02
#       6
#     3   3   3   3   3   3
#     4  10  21  40  66 102 137 190 249 304 375 461
#     4  10  21  41  67 104 136 194 255 298 385 465
#     4  10  21  39  70 100 140 189 246 311 370 461
#     4  10  21  40  70  99 141 190 254 314 371 464
#     4  10  20  41  68  98 137 196 242 299 392 441
#     4  10  22  41  71  97 145 199 240 318 383 446
#
# _framework density 27.360379999999999
#
# number of rings (size 3 to 8) (size 9 to 14) (size 15 to 20)
#    0.000    2.000    1.667    2.000    0.000    2.667 
#    0.000    3.333    0.000    0.000    0.000    0.000 
#    0.000    0.000    0.000    0.000    0.000    0.000 
#
# Total GULP energy -100514.782756 kJ/mol
# GULP energy per Si atom -5584.154598 kJ/mol
# Density = 2.729811 g / cm^3
# Si number density = 27.360380 Si / 1000 Ang^3
#
#
#
# Elastic Constant Matrix: (Units=GPa)
#
#
# Indices 1 2 3 4 5 6 
#
# 1 139.4377 39.7365 14.3302 5.5597 11.2859 0.0000
# 2 39.7365 139.4377 14.3302 -5.5597 -11.2859 0.0000
# 3 14.3302 14.3302 77.7579 0.0000 0.0000 0.0000
# 4 5.5597 -5.5597 0.0000 16.0268 0.0000 -11.2859
# 5 11.2859 -11.2859 0.0000 0.0000 16.0268 5.5597
# 6 0.0000 0.0000 0.0000 -11.2859 5.5597 49.8506
#
#
#
# Elastic Compliance Matrix: (Units=1/GPa)
#
#
# Indices 1 2 3 4 5 6 
#
# 1 0.009129 -0.003379 -0.001060 -0.004339 -0.008808 0.000000
# 2 -0.003379 0.009129 -0.001060 0.004339 0.008808 0.000000
# 3 -0.001060 -0.001060 0.013251 0.000000 0.000000 0.000000
# 4 -0.004339 0.004339 0.000000 0.077811 0.000000 0.017616
# 5 -0.008808 0.008808 0.000000 0.000000 0.077811 -0.008678
# 6 0.000000 0.000000 0.000000 0.017616 -0.008678 0.025016
#
#
# Mechanical properties :
#
#
# Convention : Reuss Voigt Hill
#
# Bulk Modulus (GPa) = 48.74909 54.82523 51.78716
# Shear Modulus (GPa) = 21.74084 35.59659 28.66871
#
# Velocity S-wave (km/s) = 2.82194 3.61089 3.24051
# Velocity P-wave (km/s) = 5.33609 6.12098 5.74196
#
# Compressibility (1/GPa) = 0.02051320
#
# Stress axis : x y z
#
# Youngs Moduli (GPa) = 109.53704 109.53704 75.46566
#
# Poissons Ratio (x) = 0.37009 0.07998
# Poissons Ratio (y) = 0.37009 0.07998
# Poissons Ratio (z) = 0.11609 0.11609
#
# Static dielectric constant tensor:
#      x y z
#    x 2.329720 0.000000 0.000000 
#    y 0.000000 2.329720 0.000000 
#    z 0.000000 0.000000 2.075220 
# 
# From -- ./inp_files/591.got.cif
#   From: 2010.05.17/outbox.cif.g08.bks.cpg/sg145_cif.got.tgz:591.got - 2010.05.20 13:47:28.
