data_PCOD9574943
_publ_section_title
;
Structure prediction by ZEFSAII (Michael W. Deem and Ramdas Pophale) SiO2 
 PCOD9574943
Probable space group: P -3
;
_chemical_formula_sum "Si O2"
_cell_formula_units_Z 14
_cell_length_a 8.369546
_cell_length_b 8.369546
_cell_length_c 11.485271
_cell_angle_alpha 90.000000
_cell_angle_beta 90.000000
_cell_angle_gamma 120.000000
_cell_volume 696.747919
_symmetry_space_group_name_H-M "P -3"
_symmetry_group_IT_number 147
_symmetry_cell_setting 'hexagonal'
loop_
_space_group_symop_operation_xyz
x,y,z
-y,x-y,z
-x+y,-x,z
-x,-y,-z
y,-x+y,-z
x-y,x,-z
loop_
_atom_site_type_symbol
_atom_site_label
_atom_site_fract_x
_atom_site_fract_y
_atom_site_fract_z
Si Si1 0.998498 0.615304 0.387132
Si Si2 0.303489 0.298059 0.700294
Si Si3 0.000000 0.000000 0.862257
O O1 0.812643 0.616255 0.357638
O O2 0.000000 0.500000 0.500000
O O3 0.153753 0.829604 0.383306
O O4 0.038414 0.507831 0.283715
O O5 0.182459 0.174891 0.807863
O O6 0.000000 0.000000 0.000000
#
# Coordination Sequence:
#
# PCOD9574943 Si02
#       3
#     6   6   2
#     4  11  21  37  60  90 127 168 203 253 317 384
#     4  10  22  38  60  92 126 163 213 256 309 386
#     4   9  21  45  70  92 124 165 216 279 319 350
#
# _framework density 20.093353
#
# number of rings (size 3 to 8) (size 9 to 14) (size 15 to 20)
#    0.000    1.714    0.000    5.143    0.000    3.429 
#    0.000   17.143    0.000    0.000    0.000    0.000 
#    0.000    0.000    0.000    0.000    0.000    0.000 
#
# Total GULP energy -78047.976208 kJ/mol
# GULP energy per Si atom -5574.855443 kJ/mol
# Density = 2.004762 g / cm^3
# Si number density = 20.093353 Si / 1000 Ang^3
#
#
#
# Elastic Constant Matrix: (Units=GPa)
#
#
# Indices 1 2 3 4 5 6 
#
# 1 114.9462 10.9783 36.7319 0.4034 3.5977 0.0000
# 2 10.9783 114.9462 36.7319 -0.4034 -3.5977 0.0000
# 3 36.7319 36.7319 135.4584 0.0000 0.0000 0.0000
# 4 0.4034 -0.4034 0.0000 18.8618 0.0000 -3.5977
# 5 3.5977 -3.5977 0.0000 0.0000 18.8618 0.4034
# 6 0.0000 0.0000 0.0000 -3.5977 0.4034 51.9839
#
#
#
# Elastic Compliance Matrix: (Units=1/GPa)
#
#
# Indices 1 2 3 4 5 6 
#
# 1 0.009591 -0.000158 -0.002558 -0.000209 -0.001859 0.000000
# 2 -0.000158 0.009591 -0.002558 0.000209 0.001859 0.000000
# 3 -0.002558 -0.002558 0.008770 0.000000 0.000000 0.000000
# 4 -0.000209 0.000209 0.000000 0.053736 0.000000 0.003719
# 5 -0.001859 0.001859 0.000000 0.000000 0.053736 -0.000417
# 6 0.000000 0.000000 0.000000 0.003719 -0.000417 0.019497
#
#
# Mechanical properties :
#
#
# Convention : Reuss Voigt Hill
#
# Bulk Modulus (GPa) = 57.45610 59.35944 58.40777
# Shear Modulus (GPa) = 29.19378 36.66874 32.93126
#
# Velocity S-wave (km/s) = 3.81584 4.27654 4.05274
# Velocity P-wave (km/s) = 6.93331 7.34786 7.14359
#
# Compressibility (1/GPa) = 0.01740459
#
# Stress axis : x y z
#
# Youngs Moduli (GPa) = 104.26271 104.26271 114.02917
#
# Poissons Ratio (x) = 0.01642 0.29170
# Poissons Ratio (y) = 0.01642 0.29170
# Poissons Ratio (z) = 0.26671 0.26671
#
# Static dielectric constant tensor:
#      x y z
#    x 1.776780 0.000000 0.000000 
#    y 0.000000 1.776780 0.000000 
#    z 0.000000 0.000000 1.743690 
# 
# From -- ./inp_files/713.got.cif
#   From: 2010.05.17/outbox.cif.g08.bks.cpg/sg147_cif.got.tgz:713.got - 2010.05.20 13:49:32.
