data_PCOD9574718
_publ_section_title
;
Structure prediction by ZEFSAII (Michael W. Deem and Ramdas Pophale) SiO2 
 PCOD9574718
Probable space group: R 3
;
_chemical_formula_sum "Si O2"
_cell_formula_units_Z 60
_cell_length_a 18.559854
_cell_length_b 18.559854
_cell_length_c 7.858081
_cell_angle_alpha 90.000000
_cell_angle_beta 90.000000
_cell_angle_gamma 120.000000
_cell_volume 2344.208541
_symmetry_space_group_name_H-M "R 3"
_symmetry_group_IT_number 146
_symmetry_cell_setting 'hexagonal'
loop_
_space_group_symop_operation_xyz
x,y,z
-y,x-y,z
-x+y,-x,z
2/3+x,1/3+y,1/3+z
2/3-y,1/3+x-y,1/3+z
2/3-x+y,1/3-x,1/3+z
1/3+x,2/3+y,2/3+z
1/3-y,2/3+x-y,2/3+z
1/3-x+y,2/3-x,2/3+z
loop_
_atom_site_type_symbol
_atom_site_label
_atom_site_fract_x
_atom_site_fract_y
_atom_site_fract_z
Si Si1 0.000000 0.000000 0.152766
Si Si2 0.802872 0.677194 0.941334
Si Si3 0.158311 0.128119 0.357689
Si Si4 0.266142 0.965226 0.083187
Si Si5 0.677227 0.874326 0.973152
Si Si6 0.300920 0.266142 0.831333
Si Si7 0.696864 0.491644 0.889904
Si Si8 0.666668 0.333335 0.094827
O O1 0.986825 0.911665 0.217705
O O2 0.000000 0.000000 0.957130
O O3 0.779838 0.748261 0.973836
O O4 0.721742 0.586287 0.918926
O O5 0.877703 0.695872 0.816258
O O6 0.833291 0.666612 0.123911
O O7 0.252971 0.197866 0.328752
O O8 0.111378 0.165268 0.465513
O O9 0.165242 0.053879 0.448742
O O10 0.328514 0.960047 0.938890
O O11 0.181829 0.877708 0.098274
O O12 0.748270 0.968442 0.940713
O O13 0.293375 0.298185 0.642281
O O14 0.679862 0.421674 0.029889
#
# Coordination Sequence:
#
# PCOD9574718 Si02
#       8
#     3   9   9   9   9   9   9   3
#     4   9  19  38  58  96 124 158 193 243 322 362
#     4  10  21  40  60  92 124 156 211 259 304 369
#     4   9  18  37  67  90 119 159 209 252 296 376
#     4  10  22  41  64  91 122 162 208 258 314 367
#     4  10  21  40  60  92 124 156 211 259 304 369
#     4  10  22  41  64  91 122 162 208 258 314 367
#     4   9  18  37  67  90 119 159 209 252 296 376
#     4   9  19  38  58  96 124 158 193 243 322 362
#
# _framework density 25.594995000000001
#
# number of rings (size 3 to 8) (size 9 to 14) (size 15 to 20)
#    0.000    2.400    0.000    3.000    0.000    1.200 
#   21.600   12.000    0.000    0.600    0.000    0.000 
#    0.000    0.000    0.000    0.000    0.000    0.000 
#
# Total GULP energy -111566.253808 kJ/mol
# GULP energy per Si atom -5578.312690 kJ/mol
# Density = 2.553674 g / cm^3
# Si number density = 25.594995 Si / 1000 Ang^3
#
#
#
# Elastic Constant Matrix: (Units=GPa)
#
#
# Indices 1 2 3 4 5 6 
#
# 1 83.5254 27.9568 19.4375 -4.7302 3.1692 -0.0010
# 2 27.9568 83.5262 19.4401 4.7284 -3.1734 0.0000
# 3 19.4375 19.4401 121.8031 -0.0070 -0.0149 -0.0048
# 4 -4.7302 4.7284 -0.0070 15.5219 -0.0049 -3.1728
# 5 3.1692 -3.1734 -0.0149 -0.0049 15.5134 -4.7312
# 6 -0.0010 0.0000 -0.0048 -3.1728 -4.7312 27.7843
#
#
#
# Elastic Compliance Matrix: (Units=1/GPa)
#
#
# Indices 1 2 3 4 5 6 
#
# 1 0.014478 -0.004980 -0.001516 0.005927 -0.003976 0.000000
# 2 -0.004980 0.014479 -0.001516 -0.005928 0.003976 0.000000
# 3 -0.001516 -0.001516 0.008694 0.000005 0.000009 0.000003
# 4 0.005927 -0.005928 0.000005 0.069664 0.000026 0.007960
# 5 -0.003976 0.003976 0.000009 0.000026 0.069707 0.011873
# 6 0.000000 0.000000 0.000003 0.007960 0.011873 0.038922
#
#
# Mechanical properties :
#
#
# Convention : Reuss Voigt Hill
#
# Bulk Modulus (GPa) = 46.23742 46.94705 46.59224
# Shear Modulus (GPa) = 20.90507 26.56529 23.73518
#
# Velocity S-wave (km/s) = 2.86101 3.22516 3.04852
# Velocity P-wave (km/s) = 5.38684 5.67899 5.53484
#
# Compressibility (1/GPa) = 0.02162750
#
# Stress axis : x y z
#
# Youngs Moduli (GPa) = 69.06796 69.06791 115.02415
#
# Poissons Ratio (x) = 0.34395 0.17436
# Poissons Ratio (y) = 0.34395 0.17437
# Poissons Ratio (z) = 0.10470 0.10470
#
# Static dielectric constant tensor:
#      x y z
#    x 2.126400 0.000000 0.000000 
#    y 0.000000 2.126400 -0.000010 
#    z 0.000000 -0.000010 2.082730 
# 
# From -- ./inp_files/849.got.cif
#   From: 2010.05.17/outbox.cif.g08.bks.cpg/sg146_cif.got.tgz:849.got - 2010.05.20 13:48:23.
