data_PCOD9574841
_publ_section_title
;
Structure prediction by ZEFSAII (Michael W. Deem and Ramdas Pophale) SiO2 
 PCOD9574841
Probable space group: R 3
;
_chemical_formula_sum "Si O2"
_cell_formula_units_Z 18
_cell_length_a 8.223775
_cell_length_b 8.223775
_cell_length_c 10.525873
_cell_angle_alpha 90.000000
_cell_angle_beta 90.000000
_cell_angle_gamma 120.000000
_cell_volume 616.497325
_symmetry_space_group_name_H-M "R 3"
_symmetry_group_IT_number 146
_symmetry_cell_setting 'hexagonal'
loop_
_space_group_symop_operation_xyz
x,y,z
-y,x-y,z
-x+y,-x,z
2/3+x,1/3+y,1/3+z
2/3-y,1/3+x-y,1/3+z
2/3-x+y,1/3-x,1/3+z
1/3+x,2/3+y,2/3+z
1/3-y,2/3+x-y,2/3+z
1/3-x+y,2/3-x,2/3+z
loop_
_atom_site_type_symbol
_atom_site_label
_atom_site_fract_x
_atom_site_fract_y
_atom_site_fract_z
Si Si1 0.330920 0.038487 0.779160
Si Si2 0.017536 0.641939 0.882871
O O1 0.380986 0.193232 0.892051
O O2 0.485200 0.973990 0.768982
O O3 0.368047 0.184789 0.663719
O O4 0.147715 0.853458 0.830989
#
# Coordination Sequence:
#
# PCOD9574841 Si02
#       2
#     9   9
#     4  12  27  52  87 132 182 242 309 386 469 562
#     4  12  27  52  87 132 182 242 309 386 469 562
#
# _framework density 29.197202999999998
#
# number of rings (size 3 to 8) (size 9 to 14) (size 15 to 20)
#    0.000    0.000    0.000    9.000    0.000    0.000 
#    0.000   10.000    0.000    0.000    0.000    0.000 
#    0.000    0.000    0.000    0.000    0.000    0.000 
#
# Total GULP energy -33411.530217 kJ/mol
# GULP energy per Si atom -5568.588370 kJ/mol
# Density = 2.913075 g / cm^3
# Si number density = 29.197203 Si / 1000 Ang^3
#
#
#
# Elastic Constant Matrix: (Units=GPa)
#
#
# Indices 1 2 3 4 5 6 
#
# 1 164.6451 -32.8681 38.0298 -18.8276 14.0755 0.0000
# 2 -32.8681 164.6451 38.0298 18.8276 -14.0755 0.0000
# 3 38.0298 38.0298 218.9540 0.0000 0.0000 0.0000
# 4 -18.8276 18.8276 0.0000 29.5458 0.0000 -14.0755
# 5 14.0755 -14.0755 0.0000 0.0000 29.5458 -18.8276
# 6 0.0000 0.0000 0.0000 -14.0755 -18.8276 98.7566
#
#
#
# Elastic Compliance Matrix: (Units=1/GPa)
#
#
# Indices 1 2 3 4 5 6 
#
# 1 0.007340 0.001094 -0.001465 0.003980 -0.002975 0.000000
# 2 0.001094 0.007340 -0.001465 -0.003980 0.002975 0.000000
# 3 -0.001465 -0.001465 0.005076 0.000000 0.000000 0.000000
# 4 0.003980 -0.003980 0.000000 0.041753 0.000000 0.005951
# 5 -0.002975 0.002975 0.000000 0.000000 0.041753 0.007960
# 6 0.000000 0.000000 0.000000 0.005951 0.007960 0.012492
#
#
# Mechanical properties :
#
#
# Convention : Reuss Voigt Hill
#
# Bulk Modulus (GPa) = 62.17119 70.51412 66.34265
# Shear Modulus (GPa) = 40.06835 65.23985 52.65410
#
# Velocity S-wave (km/s) = 3.70852 4.73213 4.25125
# Velocity P-wave (km/s) = 6.29899 7.35261 6.84610
#
# Compressibility (1/GPa) = 0.01608462
#
# Stress axis : x y z
#
# Youngs Moduli (GPa) = 136.24054 136.24054 197.00388
#
# Poissons Ratio (x) = -0.14907 0.28859
# Poissons Ratio (y) = -0.14907 0.28859
# Poissons Ratio (z) = 0.19958 0.19958
#
# Static dielectric constant tensor:
#      x y z
#    x 2.276850 0.000000 0.000000 
#    y 0.000000 2.276850 0.000000 
#    z 0.000000 0.000000 3.966650 
# 
# From -- ./inp_files/962.got.cif
#   From: 2010.05.17/outbox.cif.g08.bks.cpg/sg146_cif.got.tgz:962.got - 2010.05.20 13:48:23.
