data_PCOD9574116
_publ_section_title
;
Structure prediction by ZEFSAII (Michael W. Deem and Ramdas Pophale) SiO2 
 PCOD9574116
Probable space group: I 41/A C D
;
_chemical_formula_sum "Si O2"
_cell_formula_units_Z 96
_cell_length_a 17.224967
_cell_length_b 17.224967
_cell_length_c 12.408952
_cell_angle_alpha 90.000000
_cell_angle_beta 90.000000
_cell_angle_gamma 90.000000
_cell_volume 3681.729707
_symmetry_space_group_name_H-M "I 41/A C D"
_symmetry_group_IT_number 142
_space_group.IT_coordinate_system_code '2'
_symmetry_cell_setting 'tetragonal'
loop_
_space_group_symop_operation_xyz
x,y,z
1/4-y,3/4+x,1/4+z
-x,1/2-y,z
1/4+y,1/4-x,3/4+z
x,-y,1/2-z
1/2-x,y,-z
3/4+y,1/4+x,1/4-z
1/4-y,1/4-x,1/4-z
-x,-y,-z
3/4+y,1/4-x,3/4-z
x,1/2+y,-z
3/4-y,3/4+x,1/4-z
-x,y,1/2+z
1/2+x,-y,z
1/4-y,3/4-x,3/4+z
3/4+y,3/4+x,3/4+z
1/2+x,1/2+y,1/2+z
3/4-y,1/4+x,3/4+z
1/2-x,-y,1/2+z
3/4+y,3/4-x,1/4+z
1/2+x,1/2-y,-z
-x,1/2+y,1/2-z
1/4+y,3/4+x,3/4-z
3/4-y,3/4-x,3/4-z
1/2-x,1/2-y,1/2-z
1/4+y,3/4-x,1/4-z
1/2+x,y,1/2-z
1/4-y,1/4+x,3/4-z
1/2-x,1/2+y,z
x,1/2-y,1/2+z
3/4-y,1/4-x,1/4+z
1/4+y,1/4+x,1/4+z
loop_
_atom_site_type_symbol
_atom_site_label
_atom_site_fract_x
_atom_site_fract_y
_atom_site_fract_z
Si Si1 0.750000 0.295010 0.500000
Si Si2 0.155990 0.432395 0.509731
Si Si3 0.105173 0.144828 0.625000
Si Si4 0.432899 0.416207 0.078215
O O1 0.815354 0.344223 0.559565
O O2 0.792758 0.241882 0.410625
O O3 0.250000 0.444252 0.500000
O O4 0.142417 0.392417 0.625000
O O5 0.110862 0.512272 0.519903
O O6 0.130455 0.379191 0.411408
O O7 0.110323 0.204561 0.727429
#
# Coordination Sequence:
#
# PCOD9574116 Si02
#       4
#    16  32  16  32
#     4  12  26  50  70 106 160 202 248 330 388 462
#     4   9  17  32  64 105 140 191 236 297 388 428
#     4  12  28  42  72 109 142 194 270 305 404 454
#     4  11  22  42  69 107 158 189 245 327 377 453
#
# _framework density 26.074701000000001
#
# number of rings (size 3 to 8) (size 9 to 14) (size 15 to 20)
#    0.000    1.333    5.000    3.000    9.333    0.000 
#    0.000    0.000    0.000   15.000    0.000    0.000 
#    0.000    0.000    0.000    0.000    0.000    0.000 
#
# Total GULP energy -268290.541715 kJ/mol
# GULP energy per Si atom -5589.386286 kJ/mol
# Density = 2.601535 g / cm^3
# Si number density = 26.074701 Si / 1000 Ang^3
#
#
#
# Elastic Constant Matrix: (Units=GPa)
#
#
# Indices 1 2 3 4 5 6 
#
# 1 79.5338 55.7074 63.9601 0.0000 0.0000 0.0000
# 2 55.7074 79.5322 63.9599 0.0000 0.0000 0.0000
# 3 63.9601 63.9599 286.6023 0.0000 0.0000 0.0000
# 4 0.0000 0.0000 0.0000 35.0298 0.0000 0.0000
# 5 0.0000 0.0000 0.0000 0.0000 35.0329 0.0000
# 6 0.0000 0.0000 0.0000 0.0000 0.0000 16.0052
#
#
#
# Elastic Compliance Matrix: (Units=1/GPa)
#
#
# Indices 1 2 3 4 5 6 
#
# 1 0.025672 -0.016299 -0.002092 0.000000 0.000000 0.000000
# 2 -0.016299 0.025672 -0.002092 0.000000 0.000000 0.000000
# 3 -0.002092 -0.002092 0.004423 0.000000 0.000000 0.000000
# 4 0.000000 0.000000 0.000000 0.028547 0.000000 0.000000
# 5 0.000000 0.000000 0.000000 0.000000 0.028545 0.000000
# 6 0.000000 0.000000 0.000000 0.000000 0.000000 0.062480
#
#
# Mechanical properties :
#
#
# Convention : Reuss Voigt Hill
#
# Bulk Modulus (GPa) = 67.56100 90.32479 78.94289
# Shear Modulus (GPa) = 22.60008 34.68297 28.64152
#
# Velocity S-wave (km/s) = 2.94724 3.65106 3.31787
# Velocity P-wave (km/s) = 6.12768 7.24498 6.70963
#
# Compressibility (1/GPa) = 0.01480144
#
# Stress axis : x y z
#
# Youngs Moduli (GPa) = 38.95312 38.95219 226.10434
#
# Poissons Ratio (x) = 0.63490 0.47292
# Poissons Ratio (y) = 0.63492 0.47295
# Poissons Ratio (z) = 0.08147 0.08148
#
# Static dielectric constant tensor:
#      x y z
#    x 2.079430 0.000000 0.000000 
#    y 0.000000 2.079430 0.000000 
#    z 0.000000 0.000000 2.117930 
# 
# From -- ./inp_files/3204.got.cif
#   From: 2010.05.17/outbox.cif.g08.bks.cpg/sg142_2_cif.got.tgz:3204.got - 2010.05.20 13:39:18.
