data_PCOD9574658
_publ_section_title
;
Structure prediction by ZEFSAII (Michael W. Deem and Ramdas Pophale) SiO2 
 PCOD9574658
Probable space group: P 32
;
_chemical_formula_sum "Si O2"
_cell_formula_units_Z 15
_cell_length_a 4.873462
_cell_length_b 4.873462
_cell_length_c 27.287786
_cell_angle_alpha 90.000000
_cell_angle_beta 90.000000
_cell_angle_gamma 120.000000
_cell_volume 561.272935
_symmetry_space_group_name_H-M "P 32"
_symmetry_group_IT_number 145
_symmetry_cell_setting 'hexagonal'
loop_
_space_group_symop_operation_xyz
x,y,z
-y,x-y,2/3+z
-x+y,-x,1/3+z
loop_
_atom_site_type_symbol
_atom_site_label
_atom_site_fract_x
_atom_site_fract_y
_atom_site_fract_z
Si Si1 0.251048 0.807863 0.300060
Si Si2 0.666668 0.363876 0.831237
Si Si3 0.082299 0.223489 0.362413
Si Si4 0.088249 0.219115 0.565276
Si Si5 0.245076 0.797536 0.097198
O O1 0.050819 0.458956 0.324094
O O2 0.774967 0.922512 0.384013
O O3 0.282527 0.074810 0.338379
O O4 0.558381 0.814217 0.278460
O O5 0.828962 0.641287 0.871141
O O6 0.504374 0.478989 0.791332
O O7 0.921960 0.306099 0.803396
O O8 0.411374 0.050812 0.859078
O O9 0.245763 0.453462 0.408711
O O10 0.087584 0.874372 0.253762
#
# Coordination Sequence:
#
# PCOD9574658 Si02
#       5
#     3   3   3   3   3
#     4  12  27  50  78 114 154 202 256 316 382 455
#     4  12  28  52  78 114 156 204 256 316 384 456
#     4  12  27  50  78 114 154 202 256 316 382 455
#     4  12  28  50  78 113 154 202 255 316 382 456
#     4  12  28  50  78 113 154 202 255 316 382 456
#
# _framework density 26.724962999999999
#
# number of rings (size 3 to 8) (size 9 to 14) (size 15 to 20)
#    0.000    0.000    0.000    8.400    0.000   14.400 
#    0.000    0.000    0.000    0.000    0.000    0.000 
#    0.000    0.000    0.000    0.000    0.000    0.000 
#
# Total GULP energy -84306.498048 kJ/mol
# GULP energy per Si atom -5620.433203 kJ/mol
# Density = 2.666414 g / cm^3
# Si number density = 26.724963 Si / 1000 Ang^3
#
#
#
# Elastic Constant Matrix: (Units=GPa)
#
#
# Indices 1 2 3 4 5 6 
#
# 1 87.8223 15.5854 17.3042 12.7021 0.0000 0.0000
# 2 15.5854 87.8223 17.3042 -12.7021 0.0000 0.0000
# 3 17.3042 17.3042 128.1480 0.0000 0.0000 0.0000
# 4 12.7021 -12.7021 0.0000 48.0484 0.0000 0.0000
# 5 0.0000 0.0000 0.0000 0.0000 48.0484 12.7021
# 6 0.0000 0.0000 0.0000 0.0000 12.7021 36.1185
#
#
#
# Elastic Compliance Matrix: (Units=1/GPa)
#
#
# Indices 1 2 3 4 5 6 
#
# 1 0.012695 -0.002567 -0.001368 -0.004035 0.000000 0.000000
# 2 -0.002567 0.012695 -0.001368 0.004035 0.000000 0.000000
# 3 -0.001368 -0.001368 0.008173 0.000000 0.000000 0.000000
# 4 -0.004035 0.004035 0.000000 0.022946 0.000000 0.000000
# 5 0.000000 0.000000 0.000000 0.000000 0.022946 -0.008069
# 6 0.000000 0.000000 0.000000 0.000000 -0.008069 0.030525
#
#
# Mechanical properties :
#
#
# Convention : Reuss Voigt Hill
#
# Bulk Modulus (GPa) = 43.55659 44.90890 44.23274
# Shear Modulus (GPa) = 38.99049 43.34967 41.17008
#
# Velocity S-wave (km/s) = 3.82377 4.03186 3.92919
# Velocity P-wave (km/s) = 5.98568 6.20605 6.09686
#
# Compressibility (1/GPa) = 0.02295864
#
# Stress axis : x y z
#
# Youngs Moduli (GPa) = 78.76984 78.76984 122.35665
#
# Poissons Ratio (x) = 0.20221 0.16734
# Poissons Ratio (y) = 0.20221 0.16734
# Poissons Ratio (z) = 0.10773 0.10773
#
# Static dielectric constant tensor:
#      x y z
#    x 2.022070 0.000000 0.000000 
#    y 0.000000 2.022070 0.000000 
#    z 0.000000 0.000000 2.061160 
# 
# From -- ./inp_files/1010.got.cif
#   From: 2010.05.17/outbox.cif.g08.bks.cpg/sg145_cif.got.tgz:1010.got - 2010.05.20 13:47:28.
