data_PCOD9574501
_publ_section_title
;
Structure prediction by ZEFSAII (Michael W. Deem and Ramdas Pophale) SiO2 
 PCOD9574501
Probable space group: P 31
;
_chemical_formula_sum "Si O2"
_cell_formula_units_Z 15
_cell_length_a 8.143077
_cell_length_b 8.143077
_cell_length_c 9.105772
_cell_angle_alpha 90.000000
_cell_angle_beta 90.000000
_cell_angle_gamma 120.000000
_cell_volume 522.907037
_symmetry_space_group_name_H-M "P 31"
_symmetry_group_IT_number 144
_symmetry_cell_setting 'hexagonal'
loop_
_space_group_symop_operation_xyz
x,y,z
-y,x-y,1/3+z
-x+y,-x,2/3+z
loop_
_atom_site_type_symbol
_atom_site_label
_atom_site_fract_x
_atom_site_fract_y
_atom_site_fract_z
Si Si1 0.244434 0.195912 0.218490
Si Si2 0.900865 0.822832 0.367592
Si Si3 0.898846 0.550392 0.174063
Si Si4 0.686069 0.127906 0.271325
Si Si5 0.256243 0.574867 0.633461
O O1 0.374501 0.333057 0.343586
O O2 0.466288 0.973479 0.296979
O O3 0.082712 0.002857 0.294580
O O4 0.374907 0.193493 0.088978
O O5 0.804123 0.664243 0.244831
O O6 0.968021 0.742356 0.501430
O O7 0.135121 0.887374 0.785340
O O8 0.758314 0.329802 0.194124
O O9 0.093699 0.639315 0.264731
O O10 0.307537 0.627954 0.808034
#
# Coordination Sequence:
#
# PCOD9574501 Si02
#       5
#     3   3   3   3   3
#     4  12  25  54  91 122 181 250 303 400 502 580
#     4  12  24  51  89 121 175 238 309 390 486 580
#     4  12  29  55  85 133 188 243 322 402 490 607
#     4  12  29  53  84 136 180 242 319 389 499 602
#     4  12  29  55  93 132 194 257 317 409 507 599
#
# _framework density 28.685789
#
# number of rings (size 3 to 8) (size 9 to 14) (size 15 to 20)
#    0.000    0.000    6.000    1.200    8.400    0.000 
#   14.400    0.000    0.000    0.000    0.000    0.000 
#    0.000    0.000    0.000    0.000    0.000    0.000 
#
# Total GULP energy -83839.965295 kJ/mol
# GULP energy per Si atom -5589.331020 kJ/mol
# Density = 2.862050 g / cm^3
# Si number density = 28.685789 Si / 1000 Ang^3
#
#
#
# Elastic Constant Matrix: (Units=GPa)
#
#
# Indices 1 2 3 4 5 6 
#
# 1 164.2295 72.5856 59.9329 12.7558 -1.6071 0.0000
# 2 72.5856 164.2295 59.9329 -12.7558 1.6071 0.0000
# 3 59.9329 59.9329 253.5085 0.0000 0.0000 0.0000
# 4 12.7558 -12.7558 0.0000 60.2789 0.0000 1.6071
# 5 -1.6071 1.6071 0.0000 0.0000 60.2789 12.7558
# 6 0.0000 0.0000 0.0000 1.6071 12.7558 45.8220
#
#
#
# Elastic Compliance Matrix: (Units=1/GPa)
#
#
# Indices 1 2 3 4 5 6 
#
# 1 0.008202 -0.003405 -0.001134 -0.002456 0.000309 0.000000
# 2 -0.003405 0.008202 -0.001134 0.002456 -0.000309 0.000000
# 3 -0.001134 -0.001134 0.004481 0.000000 0.000000 0.000000
# 4 -0.002456 0.002456 0.000000 0.017646 0.000000 -0.000619
# 5 0.000309 -0.000309 0.000000 0.000000 0.017646 -0.004912
# 6 0.000000 0.000000 0.000000 -0.000619 -0.004912 0.023213
#
#
# Mechanical properties :
#
#
# Convention : Reuss Voigt Hill
#
# Bulk Modulus (GPa) = 104.84168 107.43005 106.13587
# Shear Modulus (GPa) = 53.24092 59.24368 56.24230
#
# Velocity S-wave (km/s) = 4.31281 4.54945 4.43271
# Velocity P-wave (km/s) = 7.83761 8.07022 7.95477
#
# Compressibility (1/GPa) = 0.00953819
#
# Stress axis : x y z
#
# Youngs Moduli (GPa) = 121.92858 121.92858 223.17293
#
# Poissons Ratio (x) = 0.41515 0.25308
# Poissons Ratio (y) = 0.41515 0.25308
# Poissons Ratio (z) = 0.13827 0.13827
#
# Static dielectric constant tensor:
#      x y z
#    x 2.342260 0.000000 0.000000 
#    y 0.000000 2.342260 0.000000 
#    z 0.000000 0.000000 2.267950 
# 
# From -- ./inp_files/226.got.cif
#   From: 2010.05.17/outbox.cif.g08.bks.cpg/sg144_cif.got.tgz:226.got - 2010.05.20 13:46:34.
