data_PCOD9574653
_publ_section_title
;
Structure prediction by ZEFSAII (Michael W. Deem and Ramdas Pophale) SiO2 
 PCOD9574653
Probable space group: P 32
;
_chemical_formula_sum "Si O2"
_cell_formula_units_Z 18
_cell_length_a 11.993904
_cell_length_b 11.993904
_cell_length_c 5.607530
_cell_angle_alpha 90.000000
_cell_angle_beta 90.000000
_cell_angle_gamma 120.000000
_cell_volume 698.591624
_symmetry_space_group_name_H-M "P 32"
_symmetry_group_IT_number 145
_symmetry_cell_setting 'hexagonal'
loop_
_space_group_symop_operation_xyz
x,y,z
-y,x-y,2/3+z
-x+y,-x,1/3+z
loop_
_atom_site_type_symbol
_atom_site_label
_atom_site_fract_x
_atom_site_fract_y
_atom_site_fract_z
Si Si1 0.062602 0.557037 0.962360
Si Si2 0.844715 0.353079 0.287781
Si Si3 0.871088 0.560908 0.613330
Si Si4 0.869592 0.902824 0.881991
Si Si5 0.199034 0.817756 0.253320
Si Si6 0.931111 0.211023 0.628089
O O1 0.165875 0.507828 0.942610
O O2 0.007953 0.586847 0.719230
O O3 0.106991 0.676868 0.143707
O O4 0.944235 0.431308 0.079839
O O5 0.809360 0.448293 0.417675
O O6 0.913579 0.318308 0.492763
O O7 0.737265 0.222226 0.174216
O O8 0.858579 0.672079 0.478100
O O9 0.720415 0.851724 0.809622
O O10 0.956108 0.905126 0.662678
O O11 0.876664 0.810319 0.082793
O O12 0.215041 0.926712 0.067122
#
# Coordination Sequence:
#
# PCOD9574653 Si02
#       6
#     3   3   3   3   3   3
#     4  12  29  54  87 122 172 228 281 351 419 515
#     4  12  26  48  80 121 166 217 279 339 422 497
#     4  12  27  50  82 122 166 223 274 353 417 495
#     4  12  29  53  89 127 168 224 280 363 427 497
#     4  12  29  57  85 124 171 226 289 344 427 514
#     4  12  26  50  81 120 173 210 285 346 426 504
#
# _framework density 25.766127000000001
#
# number of rings (size 3 to 8) (size 9 to 14) (size 15 to 20)
#    0.000    0.000    5.000    2.000    0.000   22.667 
#    0.000    0.000    0.000    0.000    0.000    0.000 
#    0.000    0.000    0.000    0.000    0.000    0.000 
#
# Total GULP energy -100819.445309 kJ/mol
# GULP energy per Si atom -5601.080295 kJ/mol
# Density = 2.570748 g / cm^3
# Si number density = 25.766127 Si / 1000 Ang^3
#
#
#
# Elastic Constant Matrix: (Units=GPa)
#
#
# Indices 1 2 3 4 5 6 
#
# 1 120.1100 41.4908 28.4214 2.1805 0.5625 0.0000
# 2 41.4908 120.1100 28.4214 -2.1805 -0.5625 0.0000
# 3 28.4214 28.4214 89.6610 0.0000 0.0000 0.0000
# 4 2.1805 -2.1805 0.0000 52.4279 0.0000 -0.5625
# 5 0.5625 -0.5625 0.0000 0.0000 52.4279 2.1805
# 6 0.0000 0.0000 0.0000 -0.5625 2.1805 39.3096
#
#
#
# Elastic Compliance Matrix: (Units=1/GPa)
#
#
# Indices 1 2 3 4 5 6 
#
# 1 0.009858 -0.002893 -0.002208 -0.000530 -0.000137 0.000000
# 2 -0.002893 0.009858 -0.002208 0.000530 0.000137 0.000000
# 3 -0.002208 -0.002208 0.012553 0.000000 0.000000 0.000000
# 4 -0.000530 0.000530 0.000000 0.019121 0.000000 0.000274
# 5 -0.000137 0.000137 0.000000 0.000000 0.019121 -0.001061
# 6 0.000000 0.000000 0.000000 0.000274 -0.001061 0.025502
#
#
# Mechanical properties :
#
#
# Convention : Reuss Voigt Hill
#
# Bulk Modulus (GPa) = 56.65331 58.50536 57.57934
# Shear Modulus (GPa) = 42.91377 44.26955 43.59166
#
# Velocity S-wave (km/s) = 4.08549 4.14953 4.11764
# Velocity P-wave (km/s) = 6.65509 6.76119 6.70835
#
# Compressibility (1/GPa) = 0.01765122
#
# Stress axis : x y z
#
# Youngs Moduli (GPa) = 101.44272 101.44272 79.66377
#
# Poissons Ratio (x) = 0.29349 0.17587
# Poissons Ratio (y) = 0.29349 0.17587
# Poissons Ratio (z) = 0.22396 0.22396
#
# Static dielectric constant tensor:
#      x y z
#    x 2.044010 0.000000 0.000000 
#    y 0.000000 2.044010 0.000000 
#    z 0.000000 0.000000 2.035850 
# 
# From -- ./inp_files/117.got.cif
#   From: 2010.05.17/outbox.cif.g08.bks.cpg/sg145_cif.got.tgz:117.got - 2010.05.20 13:47:28.
