data_PCOD9574263
_publ_section_title
;
Structure prediction by ZEFSAII (Michael W. Deem and Ramdas Pophale) SiO2 
 PCOD9574263
Probable space group: I 41/A C D
;
_chemical_formula_sum "Si O2"
_cell_formula_units_Z 88
_cell_length_a 24.000000
_cell_length_b 24.000000
_cell_length_c 15.000000
_cell_angle_alpha 90.000000
_cell_angle_beta 90.000000
_cell_angle_gamma 90.000000
_cell_volume 8640.000000
_symmetry_space_group_name_H-M "I 41/A C D"
_symmetry_group_IT_number 142
_space_group.IT_coordinate_system_code '2'
_symmetry_cell_setting 'tetragonal'
loop_
_space_group_symop_operation_xyz
x,y,z
1/4-y,3/4+x,1/4+z
-x,1/2-y,z
1/4+y,1/4-x,3/4+z
x,-y,1/2-z
1/2-x,y,-z
3/4+y,1/4+x,1/4-z
1/4-y,1/4-x,1/4-z
-x,-y,-z
3/4+y,1/4-x,3/4-z
x,1/2+y,-z
3/4-y,3/4+x,1/4-z
-x,y,1/2+z
1/2+x,-y,z
1/4-y,3/4-x,3/4+z
3/4+y,3/4+x,3/4+z
1/2+x,1/2+y,1/2+z
3/4-y,1/4+x,3/4+z
1/2-x,-y,1/2+z
3/4+y,3/4-x,1/4+z
1/2+x,1/2-y,-z
-x,1/2+y,1/2-z
1/4+y,3/4+x,3/4-z
3/4-y,3/4-x,3/4-z
1/2-x,1/2-y,1/2-z
1/4+y,3/4-x,1/4-z
1/2+x,y,1/2-z
1/4-y,1/4+x,3/4-z
1/2-x,1/2+y,z
x,1/2-y,1/2+z
3/4-y,1/4-x,1/4+z
1/4+y,1/4+x,1/4+z
loop_
_atom_site_type_symbol
_atom_site_label
_atom_site_fract_x
_atom_site_fract_y
_atom_site_fract_z
Si Si1 0.554201 0.673654 0.383741
Si Si2 0.785339 0.714256 0.824571
Si Si3 0.259592 0.599121 0.106259
Si Si4 0.567104 0.894087 0.069453
Si Si5 0.907949 0.000000 0.250000
Si Si6 0.365677 0.598027 0.473152
O O1 0.488936 0.677112 0.353758
O O2 0.560733 0.632342 0.469982
O O3 0.597565 0.648018 0.313034
O O4 0.750000 0.750000 0.750000
O O5 0.834478 0.756954 0.850500
O O6 0.814321 0.658411 0.786667
O O7 0.749346 0.696064 0.910508
O O8 0.289803 0.539803 0.125000
O O9 0.302339 0.642333 0.157300
O O10 0.198265 0.603036 0.147734
O O11 0.250000 0.609192 0.000000
O O12 0.594330 0.844330 0.125000
O O13 0.870437 0.944162 0.256419
#
# Coordination Sequence:
#
# PCOD9574263 Si02
#       6
#    32  32  32  32  16  32
#     4  11  25  48  76 110 149 203 251 324 391 462
#     4  12  26  50  76 113 150 202 261 318 387 478
#     4  11  26  44  76 113 151 203 260 321 390 465
#     4  11  24  45  75 110 147 195 263 317 385 467
#     4  12  32  44  76 110 158 204 244 324 400 454
#     4  12  26  48  75 108 159 193 257 316 391 463
#
# _framework density 10.185185000000001
#
# number of rings (size 3 to 8) (size 9 to 14) (size 15 to 20)
#    0.000    0.545    3.636    3.818    7.636    0.000 
#    0.000    1.818    0.000    0.000    0.000    0.000 
#    0.000    0.000    0.000    0.000    0.000    0.000 
#
# Total GULP energy -491446.810264 kJ/mol
# GULP energy per Si atom -5584.622844 kJ/mol
# Density = 1.016200 g / cm^3
# Si number density = 10.185185 Si / 1000 Ang^3
#
#
#
# Elastic Constant Matrix: (Units=GPa)
#
#
# Indices 1 2 3 4 5 6 
#
# 1 133.8152 43.0217 42.4317 0.0000 0.0000 0.0000
# 2 43.0217 133.8152 42.4317 0.0000 0.0000 0.0000
# 3 42.4317 42.4317 102.7988 0.0000 0.0000 0.0000
# 4 0.0000 0.0000 0.0000 39.6311 0.0000 0.0000
# 5 0.0000 0.0000 0.0000 0.0000 39.6311 0.0000
# 6 0.0000 0.0000 0.0000 0.0000 0.0000 58.6808
#
#
#
# Elastic Compliance Matrix: (Units=1/GPa)
#
#
# Indices 1 2 3 4 5 6 
#
# 1 0.009033 -0.001981 -0.002911 0.000000 0.000000 0.000000
# 2 -0.001981 0.009033 -0.002911 0.000000 0.000000 0.000000
# 3 -0.002911 -0.002911 0.012131 0.000000 0.000000 0.000000
# 4 0.000000 0.000000 0.000000 0.025233 0.000000 0.000000
# 5 0.000000 0.000000 0.000000 0.000000 0.025233 0.000000
# 6 0.000000 0.000000 0.000000 0.000000 0.000000 0.017041
#
#
# Mechanical properties :
#
#
# Convention : Reuss Voigt Hill
#
# Bulk Modulus (GPa) = 68.53407 69.57772 69.05589
# Shear Modulus (GPa) = 42.31119 43.75821 43.03470
#
# Velocity S-wave (km/s) = 4.56246 4.63982 4.60130
# Velocity P-wave (km/s) = 7.84039 7.93312 7.88689
#
# Compressibility (1/GPa) = 0.01459128
#
# Stress axis : x y z
#
# Youngs Moduli (GPa) = 110.70656 110.70656 82.43590
#
# Poissons Ratio (x) = 0.21932 0.23995
# Poissons Ratio (y) = 0.21932 0.23995
# Poissons Ratio (z) = 0.32224 0.32224
#
# Static dielectric constant tensor:
#      x y z
#    x 1.725940 0.000000 0.000000 
#    y 0.000000 1.725940 0.000000 
#    z 0.000000 0.000000 1.767500 
# 
# From -- ./inp_files/5542.got.cif
#   From: 2010.05.17/outbox.ucp.g08.bks.cvg/sg142_3_cif.got.tgz:5542.got - 2010.06.11 11:43:53.
