data_PCOD9574585
_publ_section_title
;
Structure prediction by ZEFSAII (Michael W. Deem and Ramdas Pophale) SiO2 
 PCOD9574585
Probable space group: P 32
;
_chemical_formula_sum "Si O2"
_cell_formula_units_Z 18
_cell_length_a 8.207538
_cell_length_b 8.207538
_cell_length_c 11.051845
_cell_angle_alpha 90.000000
_cell_angle_beta 90.000000
_cell_angle_gamma 120.000000
_cell_volume 644.749808
_symmetry_space_group_name_H-M "P 32"
_symmetry_group_IT_number 145
_symmetry_cell_setting 'hexagonal'
loop_
_space_group_symop_operation_xyz
x,y,z
-y,x-y,2/3+z
-x+y,-x,1/3+z
loop_
_atom_site_type_symbol
_atom_site_label
_atom_site_fract_x
_atom_site_fract_y
_atom_site_fract_z
Si Si1 0.922563 0.590670 0.549870
Si Si2 0.193536 0.435499 0.631190
Si Si3 0.834622 0.321431 0.363599
Si Si4 0.097290 0.096095 0.042770
Si Si5 0.330393 0.263274 0.463353
Si Si6 0.348021 0.392651 0.863622
O O1 0.793531 0.463853 0.441574
O O2 0.008564 0.795461 0.495569
O O3 0.819881 0.563836 0.676381
O O4 0.074491 0.530464 0.588100
O O5 0.311898 0.435525 0.514801
O O6 0.321882 0.500911 0.751162
O O7 0.048189 0.214472 0.668131
O O8 0.776160 0.196429 0.244684
O O9 0.756219 0.156924 0.467485
O O10 0.022246 0.497947 0.297098
O O11 0.883336 0.001721 0.085230
O O12 0.160416 0.255414 0.939216
#
# Coordination Sequence:
#
# PCOD9574585 Si02
#       6
#     3   3   3   3   3   3
#     4  11  25  44  73 113 147 196 249 336 377 455
#     4  11  23  46  72 106 150 193 256 316 387 458
#     4  10  24  43  67 104 150 191 254 312 386 444
#     4  11  23  45  79 104 145 199 262 307 387 469
#     4  11  25  45  77 108 148 209 256 312 387 480
#     4  10  22  43  68 105 144 200 245 323 372 470
#
# _framework density 27.917808000000001
#
# number of rings (size 3 to 8) (size 9 to 14) (size 15 to 20)
#    0.000    1.333    1.667    3.000    7.000    0.000 
#   12.000    0.000    0.000    0.000    0.000    0.000 
#    0.000    0.000    0.000    0.000    0.000    0.000 
#
# Total GULP energy -100308.712257 kJ/mol
# GULP energy per Si atom -5572.706237 kJ/mol
# Density = 2.785427 g / cm^3
# Si number density = 27.917808 Si / 1000 Ang^3
#
#
#
# Elastic Constant Matrix: (Units=GPa)
#
#
# Indices 1 2 3 4 5 6 
#
# 1 56.4874 -1.7722 15.7901 6.3683 4.5112 0.0000
# 2 -1.7722 56.4874 15.7901 -6.3683 -4.5112 0.0000
# 3 15.7901 15.7901 196.8352 0.0000 0.0000 0.0000
# 4 6.3683 -6.3683 0.0000 38.6610 0.0000 -4.5112
# 5 4.5112 -4.5112 0.0000 0.0000 38.6610 6.3683
# 6 0.0000 0.0000 0.0000 -4.5112 6.3683 29.1298
#
#
#
# Elastic Compliance Matrix: (Units=1/GPa)
#
#
# Indices 1 2 3 4 5 6 
#
# 1 0.018655 0.000509 -0.001537 -0.002989 -0.002117 0.000000
# 2 0.000509 0.018655 -0.001537 0.002989 0.002117 0.000000
# 3 -0.001537 -0.001537 0.005327 0.000000 0.000000 0.000000
# 4 -0.002989 0.002989 0.000000 0.027345 0.000000 0.004235
# 5 -0.002117 0.002117 0.000000 0.000000 0.027345 -0.005978
# 6 0.000000 0.000000 0.000000 0.004235 -0.005978 0.036292
#
#
# Mechanical properties :
#
#
# Convention : Reuss Voigt Hill
#
# Bulk Modulus (GPa) = 26.66294 41.04736 33.85515
# Shear Modulus (GPa) = 33.05760 39.95716 36.50738
#
# Velocity S-wave (km/s) = 3.44481 3.78728 3.62010
# Velocity P-wave (km/s) = 5.03920 5.81889 5.44303
#
# Compressibility (1/GPa) = 0.03750525
#
# Stress axis : x y z
#
# Youngs Moduli (GPa) = 53.60543 53.60543 187.72155
#
# Poissons Ratio (x) = -0.02728 0.28859
# Poissons Ratio (y) = -0.02728 0.28859
# Poissons Ratio (z) = 0.08241 0.08241
#
# Static dielectric constant tensor:
#      x y z
#    x 2.274140 0.000000 0.000000 
#    y 0.000000 2.274140 0.000000 
#    z 0.000000 0.000000 2.215600 
# 
# From -- ./inp_files/600.got.cif
#   From: 2010.05.17/outbox.cif.g08.bks.cpg/sg145_cif.got.tgz:600.got - 2010.05.20 13:47:28.
