data_PCOD9574816
_publ_section_title
;
Structure prediction by ZEFSAII (Michael W. Deem and Ramdas Pophale) SiO2 
 PCOD9574816
Probable space group: R 3
;
_chemical_formula_sum "Si O2"
_cell_formula_units_Z 60
_cell_length_a 13.326614
_cell_length_b 13.326614
_cell_length_c 16.202698
_cell_angle_alpha 90.000000
_cell_angle_beta 90.000000
_cell_angle_gamma 120.000000
_cell_volume 2492.054905
_symmetry_space_group_name_H-M "R 3"
_symmetry_group_IT_number 146
_symmetry_cell_setting 'hexagonal'
loop_
_space_group_symop_operation_xyz
x,y,z
-y,x-y,z
-x+y,-x,z
2/3+x,1/3+y,1/3+z
2/3-y,1/3+x-y,1/3+z
2/3-x+y,1/3-x,1/3+z
1/3+x,2/3+y,2/3+z
1/3-y,2/3+x-y,2/3+z
1/3-x+y,2/3-x,2/3+z
loop_
_atom_site_type_symbol
_atom_site_label
_atom_site_fract_x
_atom_site_fract_y
_atom_site_fract_z
Si Si1 0.691228 0.105389 0.886770
Si Si2 0.261343 0.186617 0.721662
Si Si3 0.472260 0.526909 0.798438
Si Si4 0.219983 0.954688 0.646241
Si Si5 0.933666 0.463217 0.472276
Si Si6 0.000000 0.000000 0.762564
Si Si7 0.333334 0.666668 0.624113
Si Si8 0.070467 0.494993 0.623003
O O1 0.758419 0.088048 0.807602
O O2 0.562239 0.055549 0.851568
O O3 0.656147 0.044557 0.979585
O O4 0.775524 0.236582 0.919173
O O5 0.122198 0.108958 0.736996
O O6 0.277152 0.082723 0.683948
O O7 0.525916 0.659935 0.826335
O O8 0.333468 0.473942 0.795374
O O9 0.522734 0.527791 0.708209
O O10 0.197161 0.869807 0.724778
O O11 0.312913 0.936206 0.595601
O O12 0.020811 0.529906 0.547017
O O13 0.000000 0.000000 0.859824
O O14 0.201617 0.584919 0.647781
#
# Coordination Sequence:
#
# PCOD9574816 Si02
#       8
#     9   9   9   9   9   3   3   9
#     4  12  27  46  78 113 156 206 265 330 394 490
#     4  12  27  48  76 115 157 210 265 334 402 482
#     4  11  26  43  74 107 151 201 263 318 398 468
#     4  11  23  46  73 110 152 205 261 325 397 475
#     4  11  24  45  72 106 155 207 258 328 385 478
#     4  12  24  45  72 111 154 194 271 333 399 459
#     4  12  24  39  78 117 151 203 277 342 402 468
#     4  11  25  44  71 109 152 202 258 330 393 468
#
# _framework density 24.076516000000002
#
# number of rings (size 3 to 8) (size 9 to 14) (size 15 to 20)
#    0.000    0.600    1.500    6.600    8.400    1.200 
#    0.000    0.000    0.000    0.000    0.000    0.000 
#    0.000    0.000    0.000    0.000    0.000    0.000 
#
# Total GULP energy -111596.835439 kJ/mol
# GULP energy per Si atom -5579.841772 kJ/mol
# Density = 2.402172 g / cm^3
# Si number density = 24.076516 Si / 1000 Ang^3
#
#
#
# Elastic Constant Matrix: (Units=GPa)
#
#
# Indices 1 2 3 4 5 6 
#
# 1 104.0498 29.9731 34.6139 6.5033 -1.9278 0.0000
# 2 29.9731 104.0503 34.6133 -6.5034 1.9281 -0.0001
# 3 34.6139 34.6133 125.9500 0.0002 -0.0008 -0.0004
# 4 6.5033 -6.5034 0.0002 47.3838 -0.0002 1.9279
# 5 -1.9278 1.9281 -0.0008 -0.0002 47.3834 6.5033
# 6 0.0000 -0.0001 -0.0004 1.9279 6.5033 37.0387
#
#
#
# Elastic Compliance Matrix: (Units=1/GPa)
#
#
# Indices 1 2 3 4 5 6 
#
# 1 0.011279 -0.002584 -0.002390 -0.001903 0.000564 0.000000
# 2 -0.002584 0.011279 -0.002390 0.001903 -0.000564 0.000000
# 3 -0.002390 -0.002390 0.009253 0.000000 0.000000 0.000000
# 4 -0.001903 0.001903 0.000000 0.021672 0.000000 -0.001128
# 5 0.000564 -0.000564 0.000000 0.000000 0.021673 -0.003805
# 6 0.000000 0.000000 0.000000 -0.001128 -0.003805 0.027726
#
#
# Mechanical properties :
#
#
# Convention : Reuss Voigt Hill
#
# Bulk Modulus (GPa) = 58.52866 59.16119 58.84492
# Shear Modulus (GPa) = 40.55016 42.01782 41.28399
#
# Velocity S-wave (km/s) = 4.10838 4.18207 4.14539
# Velocity P-wave (km/s) = 6.84596 6.92424 6.88521
#
# Compressibility (1/GPa) = 0.01708565
#
# Stress axis : x y z
#
# Youngs Moduli (GPa) = 88.65727 88.65791 108.07093
#
# Poissons Ratio (x) = 0.22905 0.25827
# Poissons Ratio (y) = 0.22905 0.25826
# Poissons Ratio (z) = 0.21187 0.21187
#
# Static dielectric constant tensor:
#      x y z
#    x 2.027920 0.000000 0.000000 
#    y 0.000000 2.027920 0.000000 
#    z 0.000000 0.000000 1.936910 
# 
# From -- ./inp_files/1564.got.cif
#   From: 2010.05.17/outbox.cif.g08.bks.cpg/sg146_cif.got.tgz:1564.got - 2010.05.20 13:48:23.
