data_PCOD9574636
_publ_section_title
;
Structure prediction by ZEFSAII (Michael W. Deem and Ramdas Pophale) SiO2 
 PCOD9574636
Probable space group: P 32
;
_chemical_formula_sum "Si O2"
_cell_formula_units_Z 21
_cell_length_a 6.848398
_cell_length_b 6.848398
_cell_length_c 21.719160
_cell_angle_alpha 90.000000
_cell_angle_beta 90.000000
_cell_angle_gamma 120.000000
_cell_volume 882.168690
_symmetry_space_group_name_H-M "P 32"
_symmetry_group_IT_number 145
_symmetry_cell_setting 'hexagonal'
loop_
_space_group_symop_operation_xyz
x,y,z
-y,x-y,2/3+z
-x+y,-x,1/3+z
loop_
_atom_site_type_symbol
_atom_site_label
_atom_site_fract_x
_atom_site_fract_y
_atom_site_fract_z
Si Si1 0.452853 0.677271 0.389280
Si Si2 0.920472 0.696014 0.209792
Si Si3 0.694539 0.739972 0.877695
Si Si4 0.882910 0.564964 0.978637
Si Si5 0.595860 0.544557 0.098890
Si Si6 0.495076 0.427394 0.284185
Si Si7 0.853989 0.774385 0.477891
O O1 0.212144 0.582537 0.421445
O O2 0.436374 0.467905 0.352076
O O3 0.672339 0.777516 0.432103
O O4 0.514547 0.872657 0.339310
O O5 0.988866 0.504056 0.202880
O O6 0.743207 0.630011 0.264865
O O7 0.145524 0.936319 0.208011
O O8 0.060174 0.186375 0.148413
O O9 0.595270 0.890031 0.907494
O O10 0.863382 0.720270 0.925935
O O11 0.717957 0.550085 0.034897
O O12 0.780801 0.317664 0.950552
O O13 0.465330 0.295723 0.129047
O O14 0.779737 0.690730 0.149707
#
# Coordination Sequence:
#
# PCOD9574636 Si02
#       7
#     3   3   3   3   3   3   3
#     4  12  26  44  72 104 140 188 239 295 363 434
#     4  11  26  47  70 101 146 182 235 298 360 428
#     4  11  25  49  70 105 141 189 244 296 364 440
#     4  11  25  46  69 103 140 184 237 300 357 430
#     4  12  25  45  69 104 143 179 239 296 353 433
#     4  11  24  47  71 101 143 184 237 302 355 432
#     4  12  25  44  73 102 139 190 233 295 370 423
#
# _framework density 23.804970000000001
#
# number of rings (size 3 to 8) (size 9 to 14) (size 15 to 20)
#    0.000    0.571    5.714    1.714    0.000    4.571 
#    0.000    0.000    0.000    0.000    0.000    0.000 
#    0.000    0.000    0.000    0.000    0.000    0.000 
#
# Total GULP energy -117286.148936 kJ/mol
# GULP energy per Si atom -5585.054711 kJ/mol
# Density = 2.375079 g / cm^3
# Si number density = 23.804970 Si / 1000 Ang^3
#
#
#
# Elastic Constant Matrix: (Units=GPa)
#
#
# Indices 1 2 3 4 5 6 
#
# 1 102.5569 32.2541 17.8356 9.0875 4.9603 0.0000
# 2 32.2541 102.5569 17.8356 -9.0875 -4.9603 0.0000
# 3 17.8356 17.8356 56.9445 0.0000 0.0000 0.0000
# 4 9.0875 -9.0875 0.0000 49.1669 0.0000 -4.9603
# 5 4.9603 -4.9603 0.0000 0.0000 49.1669 9.0875
# 6 0.0000 0.0000 0.0000 -4.9603 9.0875 35.1514
#
#
#
# Elastic Compliance Matrix: (Units=1/GPa)
#
#
# Indices 1 2 3 4 5 6 
#
# 1 0.011626 -0.003538 -0.002533 -0.002803 -0.001530 0.000000
# 2 -0.003538 0.011626 -0.002533 0.002803 0.001530 0.000000
# 3 -0.002533 -0.002533 0.019148 0.000000 0.000000 0.000000
# 4 -0.002803 0.002803 0.000000 0.021684 0.000000 0.003060
# 5 -0.001530 0.001530 0.000000 0.000000 0.021684 -0.005606
# 6 0.000000 0.000000 0.000000 0.003060 -0.005606 0.030329
#
#
# Mechanical properties :
#
#
# Convention : Reuss Voigt Hill
#
# Bulk Modulus (GPa) = 39.69681 44.21211 41.95446
# Shear Modulus (GPa) = 35.28477 39.63923 37.46200
#
# Velocity S-wave (km/s) = 3.85417 4.08507 3.97130
# Velocity P-wave (km/s) = 6.04303 6.39245 6.22019
#
# Compressibility (1/GPa) = 0.02519094
#
# Stress axis : x y z
#
# Youngs Moduli (GPa) = 86.01109 86.01109 52.22517
#
# Poissons Ratio (x) = 0.30433 0.13230
# Poissons Ratio (y) = 0.30433 0.13230
# Poissons Ratio (z) = 0.21789 0.21789
#
# Static dielectric constant tensor:
#      x y z
#    x 1.928460 0.000000 0.000000 
#    y 0.000000 1.928460 0.000000 
#    z 0.000000 0.000000 1.927760 
# 
# From -- ./inp_files/1031.got.cif
#   From: 2010.05.17/outbox.cif.g08.bks.cpg/sg145_cif.got.tgz:1031.got - 2010.05.20 13:47:28.
