data_PCOD9574384
_publ_section_title
;
Structure prediction by ZEFSAII (Michael W. Deem and Ramdas Pophale) SiO2 
 PCOD9574384
Probable space group: P 31
;
_chemical_formula_sum "Si O2"
_cell_formula_units_Z 18
_cell_length_a 8.741444
_cell_length_b 8.741444
_cell_length_c 13.004688
_cell_angle_alpha 90.000000
_cell_angle_beta 90.000000
_cell_angle_gamma 120.000000
_cell_volume 860.591255
_symmetry_space_group_name_H-M "P 31"
_symmetry_group_IT_number 144
_symmetry_cell_setting 'hexagonal'
loop_
_space_group_symop_operation_xyz
x,y,z
-y,x-y,1/3+z
-x+y,-x,2/3+z
loop_
_atom_site_type_symbol
_atom_site_label
_atom_site_fract_x
_atom_site_fract_y
_atom_site_fract_z
Si Si1 0.571705 0.505507 0.954910
Si Si2 0.909867 0.169746 0.939708
Si Si3 0.318413 0.706904 0.537278
Si Si4 0.428292 0.933802 0.723070
Si Si5 0.169748 0.909866 0.404937
Si Si6 0.611507 0.293094 0.474035
O O1 0.426323 0.556961 0.923080
O O2 0.607663 0.406868 0.862890
O O3 0.740979 0.689445 0.992182
O O4 0.546581 0.389146 0.056508
O O5 0.810057 0.266046 0.890536
O O6 0.000003 0.139696 0.838989
O O7 0.051531 0.310550 0.019132
O O8 0.785345 0.999997 0.005653
O O9 0.453415 0.842563 0.621473
O O10 0.406872 0.607664 0.481758
O O11 0.266047 0.810054 0.454108
O O12 0.573677 0.130640 0.754899
#
# Coordination Sequence:
#
# PCOD9574384 Si02
#       6
#     3   3   3   3   3   3
#     4  11  23  42  69  96 133 174 227 270 337 404
#     4  10  22  44  64  97 136 172 220 281 334 401
#     4  11  23  41  69  97 134 176 223 281 330 403
#     4  11  23  42  69  96 133 174 227 270 337 404
#     4  10  22  44  64  97 136 172 220 281 334 401
#     4  11  23  41  69  97 134 176 223 281 330 403
#
# _framework density 20.915852999999998
#
# number of rings (size 3 to 8) (size 9 to 14) (size 15 to 20)
#    0.000    1.333    3.333    2.000    0.000    0.000 
#   12.000    0.000    0.000    0.000    0.000    0.000 
#    0.000    0.000    0.000    0.000    0.000    0.000 
#
# Total GULP energy -100374.934468 kJ/mol
# GULP energy per Si atom -5576.385248 kJ/mol
# Density = 2.086825 g / cm^3
# Si number density = 20.915853 Si / 1000 Ang^3
#
#
#
# Elastic Constant Matrix: (Units=GPa)
#
#
# Indices 1 2 3 4 5 6 
#
# 1 67.3711 37.1789 69.0307 1.4115 0.0005 0.0000
# 2 37.1789 67.3711 69.0307 -1.4115 -0.0005 0.0000
# 3 69.0307 69.0307 134.1987 0.0000 0.0000 0.0000
# 4 1.4115 -1.4115 0.0000 37.6484 0.0000 -0.0005
# 5 0.0005 -0.0005 0.0000 0.0000 37.6484 1.4115
# 6 0.0000 0.0000 0.0000 -0.0005 1.4115 15.0961
#
#
#
# Elastic Compliance Matrix: (Units=1/GPa)
#
#
# Indices 1 2 3 4 5 6 
#
# 1 0.031530 -0.001708 -0.015340 -0.001246 0.000000 0.000000
# 2 -0.001708 0.031530 -0.015340 0.001246 0.000000 0.000000
# 3 -0.015340 -0.015340 0.023233 0.000000 0.000000 0.000000
# 4 -0.001246 0.001246 0.000000 0.026655 0.000000 0.000001
# 5 0.000000 0.000000 0.000000 0.000000 0.026655 -0.002492
# 6 0.000000 0.000000 0.000000 0.000001 -0.002492 0.066475
#
#
# Mechanical properties :
#
#
# Convention : Reuss Voigt Hill
#
# Bulk Modulus (GPa) = 46.47581 68.82459 57.65020
# Shear Modulus (GPa) = 17.98388 24.32529 21.15458
#
# Velocity S-wave (km/s) = 2.93545 3.41399 3.18372
# Velocity P-wave (km/s) = 5.81014 6.96544 6.41386
#
# Compressibility (1/GPa) = 0.02151657
#
# Stress axis : x y z
#
# Youngs Moduli (GPa) = 31.71603 31.71603 43.04171
#
# Poissons Ratio (x) = 0.05417 0.66026
# Poissons Ratio (y) = 0.05417 0.66026
# Poissons Ratio (z) = 0.48653 0.48653
#
# Static dielectric constant tensor:
#      x y z
#    x 1.788280 0.000000 0.000000 
#    y 0.000000 1.788280 0.000000 
#    z 0.000000 0.000000 1.820990 
# 
# From -- ./inp_files/516.got.cif
#   From: 2010.05.17/outbox.cif.g08.bks.cpg/sg144_cif.got.tgz:516.got - 2010.05.20 13:46:34.
