data_PCOD9574965
_publ_section_title
;
Structure prediction by ZEFSAII (Michael W. Deem and Ramdas Pophale) SiO2 
 PCOD9574965
Probable space group: P -3
;
_chemical_formula_sum "Si O2"
_cell_formula_units_Z 42
_cell_length_a 11.520809
_cell_length_b 11.520809
_cell_length_c 17.064823
_cell_angle_alpha 90.000000
_cell_angle_beta 90.000000
_cell_angle_gamma 120.000000
_cell_volume 1961.545439
_symmetry_space_group_name_H-M "P -3"
_symmetry_group_IT_number 147
_symmetry_cell_setting 'hexagonal'
loop_
_space_group_symop_operation_xyz
x,y,z
-y,x-y,z
-x+y,-x,z
-x,-y,-z
y,-x+y,-z
x-y,x,-z
loop_
_atom_site_type_symbol
_atom_site_label
_atom_site_fract_x
_atom_site_fract_y
_atom_site_fract_z
Si Si1 0.343114 0.412179 0.176990
Si Si2 0.297005 0.043858 0.993499
Si Si3 0.198959 0.887438 0.587699
Si Si4 0.585636 0.679912 0.251691
Si Si5 0.190241 0.666041 0.897737
Si Si6 0.203220 0.886562 0.412033
Si Si7 0.606204 0.808942 0.750134
O O1 0.221675 0.425838 0.209853
O O2 0.475468 0.540650 0.212327
O O3 0.339855 0.279974 0.210299
O O4 0.317838 0.385864 0.084396
O O5 0.396550 0.068147 0.065740
O O6 0.162727 0.901344 0.998834
O O7 0.237898 0.866346 0.500721
O O8 0.230391 0.816338 0.659270
O O9 0.036344 0.814213 0.586788
O O10 0.267364 0.046708 0.603789
O O11 0.580856 0.700262 0.345668
O O12 0.736338 0.704715 0.243855
O O13 0.208142 0.542621 0.923788
O O14 0.200280 0.688951 0.804767
#
# Coordination Sequence:
#
# PCOD9574965 Si02
#       7
#     6   6   6   6   6   6   6
#     4  12  26  45  71 101 141 182 235 284 350 416
#     4  12  27  47  70 101 135 174 222 290 351 412
#     4   9  17  31  63  95 138 177 219 287 337 410
#     4  11  25  43  70 101 140 186 231 286 344 416
#     4  10  24  43  67  93 128 171 223 281 329 408
#     4   9  17  34  59 101 137 175 230 274 347 404
#     4  11  21  43  65 101 132 180 227 285 343 406
#
# _framework density 21.411688000000002
#
# number of rings (size 3 to 8) (size 9 to 14) (size 15 to 20)
#    0.286    1.143    2.857    2.429    2.000    1.714 
#    1.714    0.714    3.143    0.000    0.000    0.000 
#    0.000    0.000    0.000    0.000    0.000    0.000 
#
# Total GULP energy -234065.292930 kJ/mol
# GULP energy per Si atom -5572.983165 kJ/mol
# Density = 2.136295 g / cm^3
# Si number density = 21.411688 Si / 1000 Ang^3
#
#
#
# Elastic Constant Matrix: (Units=GPa)
#
#
# Indices 1 2 3 4 5 6 
#
# 1 93.2890 34.7787 44.5533 -2.4489 -10.3718 0.0000
# 2 34.7787 93.2890 44.5533 2.4489 10.3718 0.0000
# 3 44.5533 44.5533 175.6508 0.0000 0.0000 0.0000
# 4 -2.4489 2.4489 0.0000 28.1110 0.0000 10.3718
# 5 -10.3718 10.3718 0.0000 0.0000 28.1110 -2.4489
# 6 0.0000 0.0000 0.0000 10.3718 -2.4489 29.2552
#
#
#
# Elastic Compliance Matrix: (Units=1/GPa)
#
#
# Indices 1 2 3 4 5 6 
#
# 1 0.014656 -0.005174 -0.002405 0.001727 0.007316 0.000000
# 2 -0.005174 0.014656 -0.002405 -0.001727 -0.007316 0.000000
# 3 -0.002405 -0.002405 0.006913 0.000000 0.000000 0.000000
# 4 0.001727 -0.001727 0.000000 0.041273 0.000000 -0.014632
# 5 0.007316 -0.007316 0.000000 0.000000 0.041273 0.003455
# 6 0.000000 0.000000 0.000000 -0.014632 0.003455 0.039659
#
#
# Mechanical properties :
#
#
# Convention : Reuss Voigt Hill
#
# Bulk Modulus (GPa) = 61.51363 67.77772 64.64568
# Shear Modulus (GPa) = 27.20119 32.98501 30.09310
#
# Velocity S-wave (km/s) = 3.56812 3.92920 3.75300
# Velocity P-wave (km/s) = 6.76511 7.23243 7.00267
#
# Compressibility (1/GPa) = 0.01625656
#
# Stress axis : x y z
#
# Youngs Moduli (GPa) = 68.23352 68.23352 144.65157
#
# Poissons Ratio (x) = 0.35303 0.34789
# Poissons Ratio (y) = 0.35303 0.34789
# Poissons Ratio (z) = 0.16410 0.16410
#
# Static dielectric constant tensor:
#      x y z
#    x 1.773730 0.000000 0.000000 
#    y 0.000000 1.773730 0.000000 
#    z 0.000000 0.000000 1.844840 
# 
# From -- ./inp_files/962.got.cif
#   From: 2010.05.17/outbox.cif.g08.bks.cpg/sg147_cif.got.tgz:962.got - 2010.05.20 13:49:32.
