data_PCOD9574395
_publ_section_title
;
Structure prediction by ZEFSAII (Michael W. Deem and Ramdas Pophale) SiO2 
 PCOD9574395
Probable space group: P 31
;
_chemical_formula_sum "Si O2"
_cell_formula_units_Z 18
_cell_length_a 6.911774
_cell_length_b 6.911774
_cell_length_c 20.282491
_cell_angle_alpha 90.000000
_cell_angle_beta 90.000000
_cell_angle_gamma 120.000000
_cell_volume 839.133351
_symmetry_space_group_name_H-M "P 31"
_symmetry_group_IT_number 144
_symmetry_cell_setting 'hexagonal'
loop_
_space_group_symop_operation_xyz
x,y,z
-y,x-y,1/3+z
-x+y,-x,2/3+z
loop_
_atom_site_type_symbol
_atom_site_label
_atom_site_fract_x
_atom_site_fract_y
_atom_site_fract_z
Si Si1 0.785052 0.706066 0.758190
Si Si2 0.706065 0.785051 0.514672
Si Si3 0.356698 0.603120 0.623510
Si Si4 0.753578 0.396880 0.316018
Si Si5 0.524351 0.937102 0.734595
Si Si6 0.475650 0.412752 0.871600
O O1 0.774331 0.578245 0.691098
O O2 0.740447 0.909691 0.744007
O O3 0.578248 0.524763 0.801984
O O4 0.000001 0.785687 0.803097
O O5 0.578245 0.774331 0.581764
O O6 0.524762 0.578247 0.470877
O O7 0.909691 0.740446 0.528855
O O8 0.392117 0.392117 0.636431
O O9 0.360134 0.717207 0.692426
O O10 0.146114 0.557726 0.580649
O O11 0.588388 0.442273 0.358879
O O12 0.642928 0.282794 0.247103
#
# Coordination Sequence:
#
# PCOD9574395 Si02
#       6
#     3   3   3   3   3   3
#     4  11  23  40  64  94 127 166 216 262 317 384
#     4  11  23  40  64  94 127 166 216 262 317 384
#     4  10  23  40  63  92 131 166 213 266 317 382
#     4  10  23  40  63  92 131 166 213 266 317 382
#     4  11  22  42  63  95 129 167 215 264 319 380
#     4  11  22  42  63  95 129 167 215 264 319 380
#
# _framework density 21.450700000000001
#
# number of rings (size 3 to 8) (size 9 to 14) (size 15 to 20)
#    0.000    1.333    3.333    2.000    0.000    4.000 
#    0.000    0.000    0.000    0.000    0.000    0.000 
#    0.000    0.000    0.000    0.000    0.000    0.000 
#
# Total GULP energy -100576.606292 kJ/mol
# GULP energy per Si atom -5587.589238 kJ/mol
# Density = 2.140188 g / cm^3
# Si number density = 21.450700 Si / 1000 Ang^3
#
#
#
# Elastic Constant Matrix: (Units=GPa)
#
#
# Indices 1 2 3 4 5 6 
#
# 1 62.1003 28.2327 7.2602 4.3768 0.0000 0.0000
# 2 28.2327 62.1003 7.2602 -4.3768 0.0000 0.0000
# 3 7.2602 7.2602 82.8584 0.0000 0.0000 0.0000
# 4 4.3768 -4.3768 0.0000 44.2646 0.0000 0.0000
# 5 0.0000 0.0000 0.0000 0.0000 44.2646 4.3768
# 6 0.0000 0.0000 0.0000 0.0000 4.3768 16.9338
#
#
#
# Elastic Compliance Matrix: (Units=1/GPa)
#
#
# Indices 1 2 3 4 5 6 
#
# 1 0.020765 -0.009536 -0.000984 -0.002996 0.000000 0.000000
# 2 -0.009536 0.020765 -0.000984 0.002996 0.000000 0.000000
# 3 -0.000984 -0.000984 0.012241 0.000000 0.000000 0.000000
# 4 -0.002996 0.002996 0.000000 0.023184 0.000000 0.000000
# 5 0.000000 0.000000 0.000000 0.000000 0.023184 -0.005992
# 6 0.000000 0.000000 0.000000 0.000000 -0.005992 0.060602
#
#
# Mechanical properties :
#
#
# Convention : Reuss Voigt Hill
#
# Bulk Modulus (GPa) = 32.50720 32.50724 32.50722
# Shear Modulus (GPa) = 25.77278 32.04634 28.90956
#
# Velocity S-wave (km/s) = 3.47001 3.86936 3.67511
# Velocity P-wave (km/s) = 5.58945 5.92874 5.76159
#
# Compressibility (1/GPa) = 0.03076242
#
# Stress axis : x y z
#
# Youngs Moduli (GPa) = 48.15859 48.15859 81.69139
#
# Poissons Ratio (x) = 0.45926 0.08037
# Poissons Ratio (y) = 0.45926 0.08037
# Poissons Ratio (z) = 0.04738 0.04738
#
# Static dielectric constant tensor:
#      x y z
#    x 1.778980 0.000000 0.000000 
#    y 0.000000 1.778980 0.000000 
#    z 0.000000 0.000000 1.763530 
# 
# From -- ./inp_files/999.got.cif
#   From: 2010.05.17/outbox.cif.g08.bks.cpg/sg144_cif.got.tgz:999.got - 2010.05.20 13:46:34.
