data_PCOD9574594
_publ_section_title
;
Structure prediction by ZEFSAII (Michael W. Deem and Ramdas Pophale) SiO2 
 PCOD9574594
Probable space group: P 32
;
_chemical_formula_sum "Si O2"
_cell_formula_units_Z 15
_cell_length_a 7.023212
_cell_length_b 7.023212
_cell_length_c 11.856774
_cell_angle_alpha 90.000000
_cell_angle_beta 90.000000
_cell_angle_gamma 120.000000
_cell_volume 506.487498
_symmetry_space_group_name_H-M "P 32"
_symmetry_group_IT_number 145
_symmetry_cell_setting 'hexagonal'
loop_
_space_group_symop_operation_xyz
x,y,z
-y,x-y,2/3+z
-x+y,-x,1/3+z
loop_
_atom_site_type_symbol
_atom_site_label
_atom_site_fract_x
_atom_site_fract_y
_atom_site_fract_z
Si Si1 0.320361 0.227594 0.436710
Si Si2 0.435536 0.806732 0.279103
Si Si3 0.574978 0.097434 0.889085
Si Si4 0.363580 0.317839 0.018740
Si Si5 0.881592 0.169556 0.349948
O O1 0.392032 0.463727 0.494332
O O2 0.325607 0.101613 0.548590
O O3 0.075536 0.130793 0.389770
O O4 0.486680 0.271106 0.336531
O O5 0.642711 0.955078 0.361188
O O6 0.408994 0.568636 0.258610
O O7 0.205719 0.775997 0.319302
O O8 0.475582 0.076052 0.737763
O O9 0.778107 0.113788 0.809320
O O10 0.405043 0.192696 0.919791
#
# Coordination Sequence:
#
# PCOD9574594 Si02
#       5
#     3   3   3   3   3
#     4  10  23  48  72 110 164 199 281 323 404 488
#     4  10  24  49  73 105 162 202 261 333 398 481
#     4  12  24  46  72 118 151 212 263 329 403 485
#     4  12  25  47  77 108 162 204 269 327 409 479
#     4  10  22  48  72 107 155 207 254 338 386 487
#
# _framework density 29.615732999999999
#
# number of rings (size 3 to 8) (size 9 to 14) (size 15 to 20)
#    1.200    0.000    4.000    1.200    0.000    4.800 
#    7.200    0.000    4.400    0.000    0.000    0.000 
#    0.000    0.000    0.000    0.000    0.000    0.000 
#
# Total GULP energy -83873.899284 kJ/mol
# GULP energy per Si atom -5591.593286 kJ/mol
# Density = 2.954833 g / cm^3
# Si number density = 29.615733 Si / 1000 Ang^3
#
#
#
# Elastic Constant Matrix: (Units=GPa)
#
#
# Indices 1 2 3 4 5 6 
#
# 1 144.0158 23.6024 28.7993 2.1333 5.1252 0.0000
# 2 23.6024 144.0158 28.7993 -2.1333 -5.1252 0.0000
# 3 28.7993 28.7993 182.9871 0.0000 0.0000 0.0000
# 4 2.1333 -2.1333 0.0000 45.2440 0.0000 -5.1252
# 5 5.1252 -5.1252 0.0000 0.0000 45.2440 2.1333
# 6 0.0000 0.0000 0.0000 -5.1252 2.1333 60.2067
#
#
#
# Elastic Compliance Matrix: (Units=1/GPa)
#
#
# Indices 1 2 3 4 5 6 
#
# 1 0.007353 -0.001046 -0.000993 -0.000396 -0.000952 0.000000
# 2 -0.001046 0.007353 -0.000993 0.000396 0.000952 0.000000
# 3 -0.000993 -0.000993 0.005777 0.000000 0.000000 0.000000
# 4 -0.000396 0.000396 0.000000 0.022355 0.000000 0.001903
# 5 -0.000952 0.000952 0.000000 0.000000 0.022355 -0.000792
# 6 0.000000 0.000000 0.000000 0.001903 -0.000792 0.016800
#
#
# Mechanical properties :
#
#
# Convention : Reuss Voigt Hill
#
# Bulk Modulus (GPa) = 69.34394 70.38009 69.86201
# Shear Modulus (GPa) = 53.84195 56.12679 54.98437
#
# Velocity S-wave (km/s) = 4.26845 4.35808 4.31349
# Velocity P-wave (km/s) = 6.91074 7.00998 6.96053
#
# Compressibility (1/GPa) = 0.01442087
#
# Stress axis : x y z
#
# Youngs Moduli (GPa) = 135.99158 135.99158 173.09078
#
# Poissons Ratio (x) = 0.14230 0.17182
# Poissons Ratio (y) = 0.14230 0.17182
# Poissons Ratio (z) = 0.13499 0.13499
#
# Static dielectric constant tensor:
#      x y z
#    x 2.316300 0.000000 0.000000 
#    y 0.000000 2.316300 0.000000 
#    z 0.000000 0.000000 2.441930 
# 
# From -- ./inp_files/503.got.cif
#   From: 2010.05.17/outbox.cif.g08.bks.cpg/sg145_cif.got.tgz:503.got - 2010.05.20 13:47:28.
