data_PCOD9574489
_publ_section_title
;
Structure prediction by ZEFSAII (Michael W. Deem and Ramdas Pophale) SiO2 
 PCOD9574489
Probable space group: P 31
;
_chemical_formula_sum "Si O2"
_cell_formula_units_Z 12
_cell_length_a 8.743755
_cell_length_b 8.743755
_cell_length_c 7.537616
_cell_angle_alpha 90.000000
_cell_angle_beta 90.000000
_cell_angle_gamma 120.000000
_cell_volume 499.069008
_symmetry_space_group_name_H-M "P 31"
_symmetry_group_IT_number 144
_symmetry_cell_setting 'hexagonal'
loop_
_space_group_symop_operation_xyz
x,y,z
-y,x-y,1/3+z
-x+y,-x,2/3+z
loop_
_atom_site_type_symbol
_atom_site_label
_atom_site_fract_x
_atom_site_fract_y
_atom_site_fract_z
Si Si1 0.385947 0.000000 0.644700
Si Si2 0.018333 0.647643 0.682423
Si Si3 0.981666 0.629307 0.273645
Si Si4 0.000001 0.133790 0.478035
O O1 0.198167 0.834398 0.690259
O O2 0.480513 0.968365 0.478571
O O3 0.363776 0.165605 0.599139
O O4 0.512143 0.031632 0.810832
O O5 0.999998 0.594469 0.478035
O O6 0.866527 0.689986 0.748994
O O7 0.133471 0.823456 0.207076
O O8 0.058184 0.058183 0.311369
#
# Coordination Sequence:
#
# PCOD9574489 Si02
#       4
#     3   3   3   3
#     4  12  30  48  74 114 154 196 250 314 376 444
#     4  12  28  50  77 110 149 199 253 313 374 446
#     4  12  28  50  77 110 149 199 253 313 374 446
#     4  12  20  46  78 106 136 198 254 294 362 452
#
# _framework density 24.044768999999999
#
# number of rings (size 3 to 8) (size 9 to 14) (size 15 to 20)
#    0.000    0.000    7.500    0.000    7.000    0.000 
#    4.500    0.000    0.000    0.000    0.000    0.000 
#    0.000    0.000    0.000    0.000    0.000    0.000 
#
# Total GULP energy -67348.769040 kJ/mol
# GULP energy per Si atom -5612.397420 kJ/mol
# Density = 2.399004 g / cm^3
# Si number density = 24.044769 Si / 1000 Ang^3
#
#
#
# Elastic Constant Matrix: (Units=GPa)
#
#
# Indices 1 2 3 4 5 6 
#
# 1 103.3678 57.5697 47.4385 9.5454 -0.0002 0.0000
# 2 57.5697 103.3678 47.4385 -9.5454 0.0002 0.0000
# 3 47.4385 47.4385 196.0308 0.0000 0.0000 0.0000
# 4 9.5454 -9.5454 0.0000 32.6422 0.0000 0.0002
# 5 -0.0002 0.0002 0.0000 0.0000 32.6422 9.5454
# 6 0.0000 0.0000 0.0000 0.0002 9.5454 22.8990
#
#
#
# Elastic Compliance Matrix: (Units=1/GPa)
#
#
# Indices 1 2 3 4 5 6 
#
# 1 0.016057 -0.008809 -0.001754 -0.007271 0.000000 0.000000
# 2 -0.008809 0.016057 -0.001754 0.007271 0.000000 0.000000
# 3 -0.001754 -0.001754 0.005950 0.000000 0.000000 0.000000
# 4 -0.007271 0.007271 0.000000 0.034888 0.000000 0.000000
# 5 0.000000 0.000000 0.000000 0.000000 0.034888 -0.014543
# 6 0.000000 0.000000 0.000000 0.000000 -0.014543 0.049732
#
#
# Mechanical properties :
#
#
# Convention : Reuss Voigt Hill
#
# Bulk Modulus (GPa) = 74.46182 78.62889 76.54536
# Shear Modulus (GPa) = 26.78348 34.32466 30.55407
#
# Velocity S-wave (km/s) = 3.34114 3.78237 3.56858
# Velocity P-wave (km/s) = 6.77639 7.20049 6.99166
#
# Compressibility (1/GPa) = 0.01342970
#
# Stress axis : x y z
#
# Youngs Moduli (GPa) = 62.27886 62.27886 168.06448
#
# Poissons Ratio (x) = 0.54863 0.29476
# Poissons Ratio (y) = 0.54863 0.29476
# Poissons Ratio (z) = 0.10923 0.10923
#
# Static dielectric constant tensor:
#      x y z
#    x 1.979760 0.000000 0.000000 
#    y 0.000000 1.979760 0.000000 
#    z 0.000000 0.000000 1.895810 
# 
# From -- ./inp_files/211.got.cif
#   From: 2010.05.17/outbox.cif.g08.bks.cpg/sg144_cif.got.tgz:211.got - 2010.05.20 13:46:34.
