data_PCOD9574194
_publ_section_title
;
Structure prediction by ZEFSAII (Michael W. Deem and Ramdas Pophale) SiO2 
 PCOD9574194
Probable space group: I 41/A C D
;
_chemical_formula_sum "Si O2"
_cell_formula_units_Z 88
_cell_length_a 18.868953
_cell_length_b 18.868953
_cell_length_c 9.620643
_cell_angle_alpha 90.000000
_cell_angle_beta 90.000000
_cell_angle_gamma 90.000000
_cell_volume 3425.308598
_symmetry_space_group_name_H-M "I 41/A C D"
_symmetry_group_IT_number 142
_space_group.IT_coordinate_system_code '2'
_symmetry_cell_setting 'tetragonal'
loop_
_space_group_symop_operation_xyz
x,y,z
1/4-y,3/4+x,1/4+z
-x,1/2-y,z
1/4+y,1/4-x,3/4+z
x,-y,1/2-z
1/2-x,y,-z
3/4+y,1/4+x,1/4-z
1/4-y,1/4-x,1/4-z
-x,-y,-z
3/4+y,1/4-x,3/4-z
x,1/2+y,-z
3/4-y,3/4+x,1/4-z
-x,y,1/2+z
1/2+x,-y,z
1/4-y,3/4-x,3/4+z
3/4+y,3/4+x,3/4+z
1/2+x,1/2+y,1/2+z
3/4-y,1/4+x,3/4+z
1/2-x,-y,1/2+z
3/4+y,3/4-x,1/4+z
1/2+x,1/2-y,-z
-x,1/2+y,1/2-z
1/4+y,3/4+x,3/4-z
3/4-y,3/4-x,3/4-z
1/2-x,1/2-y,1/2-z
1/4+y,3/4-x,1/4-z
1/2+x,y,1/2-z
1/4-y,1/4+x,3/4-z
1/2-x,1/2+y,z
x,1/2-y,1/2+z
3/4-y,1/4-x,1/4+z
1/4+y,1/4+x,1/4+z
loop_
_atom_site_type_symbol
_atom_site_label
_atom_site_fract_x
_atom_site_fract_y
_atom_site_fract_z
Si Si1 0.398886 0.000000 0.750000
Si Si2 0.139589 0.265016 0.056834
Si Si3 0.656070 0.606921 0.264393
Si Si4 0.000000 0.250000 0.875000
O O1 0.449617 0.941043 0.682020
O O2 0.561460 0.891852 0.548409
O O3 0.209851 0.105597 0.885168
O O4 0.066695 0.241317 0.981204
O O5 0.168303 0.326797 0.952553
O O6 0.681328 0.568673 0.125000
#
# Coordination Sequence:
#
# PCOD9574194 Si02
#       4
#    16  32  32   8
#     4  12  16  36  60  78 134 192 236 330 412 456
#     4   9  20  32  53  86 124 184 246 326 389 469
#     4   8  20  33  49  85 120 173 245 307 382 485
#     4  12  16  38  52  88 146 180 260 354 388 440
#
# _framework density 25.691116000000001
#
# number of rings (size 3 to 8) (size 9 to 14) (size 15 to 20)
#    2.182    0.000    3.636    1.091    0.000    2.909 
#    0.000    0.000    0.000    0.000    0.000   10.182 
#    0.000    0.000    0.000    0.000    0.000    3.091 
#
# Total GULP energy -245260.702141 kJ/mol
# GULP energy per Si atom -5574.106867 kJ/mol
# Density = 2.563264 g / cm^3
# Si number density = 25.691116 Si / 1000 Ang^3
#
#
#
# Elastic Constant Matrix: (Units=GPa)
#
#
# Indices 1 2 3 4 5 6 
#
# 1 53.3401 -2.7673 5.9388 0.0000 0.0000 0.0000
# 2 -2.7673 53.3402 5.9393 0.0000 0.0000 0.0000
# 3 5.9388 5.9393 97.9410 0.0000 0.0000 0.0000
# 4 0.0000 0.0000 0.0000 24.3758 0.0000 0.0000
# 5 0.0000 0.0000 0.0000 0.0000 24.3761 0.0000
# 6 0.0000 0.0000 0.0000 0.0000 0.0000 15.2734
#
#
#
# Elastic Compliance Matrix: (Units=1/GPa)
#
#
# Indices 1 2 3 4 5 6 
#
# 1 0.018941 0.001118 -0.001216 0.000000 0.000000 0.000000
# 2 0.001118 0.018941 -0.001216 0.000000 0.000000 0.000000
# 3 -0.001216 -0.001216 0.010358 0.000000 0.000000 0.000000
# 4 0.000000 0.000000 0.000000 0.041024 0.000000 0.000000
# 5 0.000000 0.000000 0.000000 0.000000 0.041024 0.000000
# 6 0.000000 0.000000 0.000000 0.000000 0.000000 0.065473
#
#
# Mechanical properties :
#
#
# Convention : Reuss Voigt Hill
#
# Bulk Modulus (GPa) = 21.92474 24.76032 23.34253
# Shear Modulus (GPa) = 23.40889 25.83908 24.62399
#
# Velocity S-wave (km/s) = 3.02183 3.17481 3.09926
# Velocity P-wave (km/s) = 4.55278 4.80602 4.68111
#
# Compressibility (1/GPa) = 0.04561057
#
# Stress axis : x y z
#
# Youngs Moduli (GPa) = 52.79537 52.79538 96.54607
#
# Poissons Ratio (x) = -0.05903 0.11743
# Poissons Ratio (y) = -0.05903 0.11744
# Poissons Ratio (z) = 0.06422 0.06422
#
# Static dielectric constant tensor:
#      x y z
#    x 2.117950 0.000000 0.000000 
#    y 0.000000 2.117950 0.000000 
#    z 0.000000 0.000000 2.132330 
# 
# From -- ./inp_files/3103.got.cif
#   From: 2010.05.17/outbox.cif.g08.bks.cpg/sg142_2_cif.got.tgz:3103.got - 2010.05.20 13:39:18.
