data_PCOD9574915
_publ_section_title
;
Structure prediction by ZEFSAII (Michael W. Deem and Ramdas Pophale) SiO2 
 PCOD9574915
Probable space group: P -3
;
_chemical_formula_sum "Si O2"
_cell_formula_units_Z 24
_cell_length_a 14.560615
_cell_length_b 14.560615
_cell_length_c 5.456493
_cell_angle_alpha 90.000000
_cell_angle_beta 90.000000
_cell_angle_gamma 120.000000
_cell_volume 1001.852236
_symmetry_space_group_name_H-M "P -3"
_symmetry_group_IT_number 147
_symmetry_cell_setting 'hexagonal'
loop_
_space_group_symop_operation_xyz
x,y,z
-y,x-y,z
-x+y,-x,z
-x,-y,-z
y,-x+y,-z
x-y,x,-z
loop_
_atom_site_type_symbol
_atom_site_label
_atom_site_fract_x
_atom_site_fract_y
_atom_site_fract_z
Si Si1 0.496932 0.145497 0.618761
Si Si2 0.727098 0.588342 0.120540
Si Si3 0.652421 0.065376 0.646366
Si Si4 0.898816 0.760555 0.440804
O O1 0.488857 0.191793 0.355728
O O2 0.603837 0.141253 0.648897
O O3 0.405747 0.021337 0.572991
O O4 0.469668 0.184417 0.867434
O O5 0.631618 0.615607 0.126847
O O6 0.833261 0.697966 0.196870
O O7 0.775342 0.109553 0.605750
O O8 0.842042 0.818255 0.570493
#
# Coordination Sequence:
#
# PCOD9574915 Si02
#       4
#     6   6   6   6
#     4   9  17  35  60  88 111 156 224 301 359 400
#     4   9  18  34  57  85 123 160 221 276 350 400
#     4   8  18  32  61  88 119 159 230 289 359 395
#     4  10  20  39  60  96 144 202 244 279 322 413
#
# _framework density 23.955629999999999
#
# number of rings (size 3 to 8) (size 9 to 14) (size 15 to 20)
#    1.500    1.500    0.000    1.000    0.000    0.000 
#    9.000    0.000    0.000    2.500    0.000    0.000 
#    0.000    0.000    0.000    0.500    0.000    0.000 
#
# Total GULP energy -133680.502290 kJ/mol
# GULP energy per Si atom -5570.020929 kJ/mol
# Density = 2.390111 g / cm^3
# Si number density = 23.955630 Si / 1000 Ang^3
#
#
#
# Elastic Constant Matrix: (Units=GPa)
#
#
# Indices 1 2 3 4 5 6 
#
# 1 131.1836 50.8072 49.3154 4.7855 -0.3712 0.0000
# 2 50.8072 131.1836 49.3154 -4.7855 0.3712 0.0000
# 3 49.3154 49.3154 162.9950 0.0000 0.0000 0.0000
# 4 4.7855 -4.7855 0.0000 17.5268 0.0000 0.3712
# 5 -0.3712 0.3712 0.0000 0.0000 17.5268 4.7855
# 6 0.0000 0.0000 0.0000 0.3712 4.7855 40.1882
#
#
#
# Elastic Compliance Matrix: (Units=1/GPa)
#
#
# Indices 1 2 3 4 5 6 
#
# 1 0.009717 -0.003145 -0.001989 -0.003512 0.000272 0.000000
# 2 -0.003145 0.009717 -0.001989 0.003512 -0.000272 0.000000
# 3 -0.001989 -0.001989 0.007338 0.000000 0.000000 0.000000
# 4 -0.003512 0.003512 0.000000 0.058985 0.000000 -0.000545
# 5 0.000272 -0.000272 0.000000 0.000000 0.058985 -0.007024
# 6 0.000000 0.000000 0.000000 -0.000545 -0.007024 0.025724
#
#
# Mechanical properties :
#
#
# Convention : Reuss Voigt Hill
#
# Bulk Modulus (GPa) = 79.81344 80.47090 80.14217
# Shear Modulus (GPa) = 26.47079 33.44329 29.95704
#
# Velocity S-wave (km/s) = 3.32775 3.74043 3.54011
# Velocity P-wave (km/s) = 6.93936 7.23319 7.08780
#
# Compressibility (1/GPa) = 0.01252922
#
# Stress axis : x y z
#
# Youngs Moduli (GPa) = 102.90894 102.90894 136.26829
#
# Poissons Ratio (x) = 0.32363 0.27098
# Poissons Ratio (y) = 0.32363 0.27098
# Poissons Ratio (z) = 0.20464 0.20464
#
# Static dielectric constant tensor:
#      x y z
#    x 1.980330 0.000000 0.000000 
#    y 0.000000 1.980330 0.000000 
#    z 0.000000 0.000000 1.936690 
# 
# From -- ./inp_files/102.got.cif
#   From: 2010.05.17/outbox.cif.g08.bks.cpg/sg147_cif.got.tgz:102.got - 2010.05.20 13:49:32.
