data_PCOD9574874
_publ_section_title
;
Structure prediction by ZEFSAII (Michael W. Deem and Ramdas Pophale) SiO2 
 PCOD9574874
Probable space group: P -3
;
_chemical_formula_sum "Si O2"
_cell_formula_units_Z 30
_cell_length_a 12.307937
_cell_length_b 12.307937
_cell_length_c 9.373281
_cell_angle_alpha 90.000000
_cell_angle_beta 90.000000
_cell_angle_gamma 120.000000
_cell_volume 1229.681948
_symmetry_space_group_name_H-M "P -3"
_symmetry_group_IT_number 147
_symmetry_cell_setting 'hexagonal'
loop_
_space_group_symop_operation_xyz
x,y,z
-y,x-y,z
-x+y,-x,z
-x,-y,-z
y,-x+y,-z
x-y,x,-z
loop_
_atom_site_type_symbol
_atom_site_label
_atom_site_fract_x
_atom_site_fract_y
_atom_site_fract_z
Si Si1 0.925875 0.772827 0.574879
Si Si2 0.207531 0.692734 0.036318
Si Si3 0.501115 0.090714 0.671105
Si Si4 0.919101 0.302486 0.232713
Si Si5 0.523444 0.698559 0.557687
O O1 0.014140 0.769996 0.699428
O O2 0.839162 0.834235 0.570765
O O3 0.827658 0.627442 0.546718
O O4 0.207237 0.561437 0.008917
O O5 0.167851 0.681104 0.200556
O O6 0.117314 0.713054 0.932479
O O7 0.590972 0.176152 0.541181
O O8 0.569840 0.017105 0.735163
O O9 0.377627 0.969096 0.613965
O O10 0.784635 0.260672 0.312049
#
# Coordination Sequence:
#
# PCOD9574874 Si02
#       5
#     6   6   6   6   6
#     4   9  18  33  56  85 115 148 192 249 304 349
#     4  10  23  37  54  82 115 160 201 237 297 365
#     4  10  20  36  57  82 119 152 198 248 287 358
#     4  10  19  35  55  81 116 154 195 238 299 353
#     4   9  20  35  57  86 116 151 194 246 300 345
#
# _framework density 24.396554999999999
#
# number of rings (size 3 to 8) (size 9 to 14) (size 15 to 20)
#    0.400    2.000    0.000    2.000    0.000    8.000 
#    1.200    0.000    0.000    0.000    0.000    0.000 
#    0.000   16.000    0.000    0.000    0.000    0.000 
#
# Total GULP energy -167202.914128 kJ/mol
# GULP energy per Si atom -5573.430471 kJ/mol
# Density = 2.434103 g / cm^3
# Si number density = 24.396555 Si / 1000 Ang^3
#
#
#
# Elastic Constant Matrix: (Units=GPa)
#
#
# Indices 1 2 3 4 5 6 
#
# 1 83.6131 7.3306 30.3158 -0.6869 8.3824 0.0000
# 2 7.3306 83.6131 30.3158 0.6869 -8.3824 0.0000
# 3 30.3158 30.3158 124.5912 0.0000 0.0000 0.0000
# 4 -0.6869 0.6869 0.0000 32.8039 0.0000 -8.3824
# 5 8.3824 -8.3824 0.0000 0.0000 32.8039 -0.6869
# 6 0.0000 0.0000 0.0000 -8.3824 -0.6869 38.1412
#
#
#
# Elastic Compliance Matrix: (Units=1/GPa)
#
#
# Indices 1 2 3 4 5 6 
#
# 1 0.013510 -0.000385 -0.003194 0.000291 -0.003551 0.000000
# 2 -0.000385 0.013510 -0.003194 -0.000291 0.003551 0.000000
# 3 -0.003194 -0.003194 0.009580 0.000000 0.000000 0.000000
# 4 0.000291 -0.000291 0.000000 0.032311 0.000000 0.007101
# 5 -0.003551 0.003551 0.000000 0.000000 0.032311 0.000582
# 6 0.000000 0.000000 0.000000 0.007101 0.000582 0.027789
#
#
# Mechanical properties :
#
#
# Convention : Reuss Voigt Hill
#
# Bulk Modulus (GPa) = 43.37278 47.52687 45.44982
# Shear Modulus (GPa) = 33.27991 35.67348 34.47669
#
# Velocity S-wave (km/s) = 3.69741 3.82807 3.76331
# Velocity P-wave (km/s) = 6.00372 6.24996 6.12808
#
# Compressibility (1/GPa) = 0.02305594
#
# Stress axis : x y z
#
# Youngs Moduli (GPa) = 74.02014 74.02014 104.37989
#
# Poissons Ratio (x) = 0.02849 0.33335
# Poissons Ratio (y) = 0.02849 0.33335
# Poissons Ratio (z) = 0.23639 0.23639
#
# Static dielectric constant tensor:
#      x y z
#    x 1.991440 0.000000 0.000000 
#    y 0.000000 1.991440 0.000000 
#    z 0.000000 0.000000 1.929910 
# 
# From -- ./inp_files/512.got.cif
#   From: 2010.05.17/outbox.cif.g08.bks.cpg/sg147_cif.got.tgz:512.got - 2010.05.20 13:49:32.
