data_PCOD9574600
_publ_section_title
;
Structure prediction by ZEFSAII (Michael W. Deem and Ramdas Pophale) SiO2 
 PCOD9574600
Probable space group: P 32
;
_chemical_formula_sum "Si O2"
_cell_formula_units_Z 21
_cell_length_a 10.004092
_cell_length_b 10.004092
_cell_length_c 9.587248
_cell_angle_alpha 90.000000
_cell_angle_beta 90.000000
_cell_angle_gamma 120.000000
_cell_volume 830.959672
_symmetry_space_group_name_H-M "P 32"
_symmetry_group_IT_number 145
_symmetry_cell_setting 'hexagonal'
loop_
_space_group_symop_operation_xyz
x,y,z
-y,x-y,2/3+z
-x+y,-x,1/3+z
loop_
_atom_site_type_symbol
_atom_site_label
_atom_site_fract_x
_atom_site_fract_y
_atom_site_fract_z
Si Si1 0.127833 0.716862 0.766450
Si Si2 0.918691 0.820736 0.870025
Si Si3 0.068181 0.252812 0.945416
Si Si4 0.014716 0.453565 0.531214
Si Si5 0.875561 0.779482 0.334947
Si Si6 0.667287 0.489135 0.948629
Si Si7 0.956958 0.483499 0.990247
O O1 0.075547 0.586665 0.648134
O O2 0.308175 0.838903 0.776878
O O3 0.020182 0.792103 0.753426
O O4 0.069728 0.649951 0.924031
O O5 0.804293 0.843476 0.771288
O O6 0.800408 0.670891 0.958229
O O7 0.049771 0.958545 0.956274
O O8 0.222446 0.242043 0.926109
O O9 0.937055 0.155611 0.831916
O O10 0.057528 0.405347 0.947549
O O11 0.939323 0.287969 0.607412
O O12 0.885230 0.435712 0.420464
O O13 0.784107 0.422240 0.925508
O O14 0.561473 0.468980 0.816478
#
# Coordination Sequence:
#
# PCOD9574600 Si02
#       7
#     3   3   3   3   3   3   3
#     4  10  23  44  67 100 143 193 243 317 374 443
#     4   9  21  37  61  95 138 175 227 305 362 436
#     4  11  20  35  67 101 135 181 232 303 369 450
#     4  11  24  44  71 101 148 197 250 311 384 455
#     4  11  20  36  66 101 138 178 241 297 379 441
#     4  10  23  43  69  97 140 194 245 302 376 453
#     4  10  23  45  67 101 144 190 248 313 378 454
#
# _framework density 25.271982000000001
#
# number of rings (size 3 to 8) (size 9 to 14) (size 15 to 20)
#    0.000    1.714    2.857    0.857    2.000    4.571 
#    2.571    0.000    3.143    0.000    0.000    0.000 
#    0.000    0.000    0.000    0.000    0.000    0.000 
#
# Total GULP energy -117063.820921 kJ/mol
# GULP energy per Si atom -5574.467663 kJ/mol
# Density = 2.521446 g / cm^3
# Si number density = 25.271982 Si / 1000 Ang^3
#
#
#
# Elastic Constant Matrix: (Units=GPa)
#
#
# Indices 1 2 3 4 5 6 
#
# 1 66.2629 14.5408 2.7116 -3.7155 2.8955 0.0000
# 2 14.5408 66.2629 2.7116 3.7155 -2.8955 0.0000
# 3 2.7116 2.7116 59.5299 0.0000 0.0000 0.0000
# 4 -3.7155 3.7155 0.0000 23.7521 0.0000 -2.8955
# 5 2.8955 -2.8955 0.0000 0.0000 23.7521 -3.7155
# 6 0.0000 0.0000 0.0000 -2.8955 -3.7155 25.8611
#
#
#
# Elastic Compliance Matrix: (Units=1/GPa)
#
#
# Indices 1 2 3 4 5 6 
#
# 1 0.016236 -0.003823 -0.000565 0.003138 -0.002445 0.000000
# 2 -0.003823 0.016236 -0.000565 -0.003138 0.002445 0.000000
# 3 -0.000565 -0.000565 0.016850 0.000000 0.000000 0.000000
# 4 0.003138 -0.003138 0.000000 0.043679 0.000000 0.004891
# 5 -0.002445 0.002445 0.000000 0.000000 0.043679 0.006275
# 6 0.000000 0.000000 0.000000 0.004891 0.006275 0.040117
#
#
# Mechanical properties :
#
#
# Convention : Reuss Voigt Hill
#
# Bulk Modulus (GPa) = 25.37087 25.77595 25.57341
# Shear Modulus (GPa) = 25.01959 26.14584 25.58271
#
# Velocity S-wave (km/s) = 3.14986 3.21998 3.18511
# Velocity P-wave (km/s) = 4.82595 4.90366 4.86496
#
# Compressibility (1/GPa) = 0.03941529
#
# Stress axis : x y z
#
# Youngs Moduli (GPa) = 61.59096 61.59096 59.34793
#
# Poissons Ratio (x) = 0.23543 0.03356
# Poissons Ratio (y) = 0.23543 0.03356
# Poissons Ratio (z) = 0.03483 0.03483
#
# Static dielectric constant tensor:
#      x y z
#    x 2.150630 0.000000 0.000000 
#    y 0.000000 2.150630 0.000000 
#    z 0.000000 0.000000 1.995510 
# 
# From -- ./inp_files/417.got.cif
#   From: 2010.05.17/outbox.cif.g08.bks.cpg/sg145_cif.got.tgz:417.got - 2010.05.20 13:47:28.
