data_PCOD9574529
_publ_section_title
;
Structure prediction by ZEFSAII (Michael W. Deem and Ramdas Pophale) SiO2 
 PCOD9574529
Probable space group: P 32
;
_chemical_formula_sum "Si O2"
_cell_formula_units_Z 21
_cell_length_a 10.446567
_cell_length_b 10.446567
_cell_length_c 9.432446
_cell_angle_alpha 90.000000
_cell_angle_beta 90.000000
_cell_angle_gamma 120.000000
_cell_volume 891.460587
_symmetry_space_group_name_H-M "P 32"
_symmetry_group_IT_number 145
_symmetry_cell_setting 'hexagonal'
loop_
_space_group_symop_operation_xyz
x,y,z
-y,x-y,2/3+z
-x+y,-x,1/3+z
loop_
_atom_site_type_symbol
_atom_site_label
_atom_site_fract_x
_atom_site_fract_y
_atom_site_fract_z
Si Si1 0.743232 0.976900 0.017040
Si Si2 0.269652 0.082849 0.585324
Si Si3 0.439505 0.991414 0.356869
Si Si4 0.444436 0.845635 0.870706
Si Si5 0.426715 0.118561 0.865162
Si Si6 0.199121 0.700082 0.229432
Si Si7 0.469826 0.227251 0.171868
O O1 0.806661 0.037401 0.171185
O O2 0.794491 0.125301 0.927928
O O3 0.802758 0.875738 0.952080
O O4 0.567168 0.892549 0.992902
O O5 0.348874 0.144691 0.734161
O O6 0.374228 0.043263 0.487649
O O7 0.299466 0.874417 0.260232
O O8 0.519802 0.910779 0.433446
O O9 0.528629 0.128862 0.251066
O O10 0.348194 0.671410 0.879818
O O11 0.518892 0.880767 0.714362
O O12 0.366895 0.943053 0.880060
O O13 0.602167 0.195436 0.839675
O O14 0.413706 0.177343 0.015000
#
# Coordination Sequence:
#
# PCOD9574529 Si02
#       7
#     3   3   3   3   3   3   3
#     4  10  22  43  68 103 137 188 241 308 361 448
#     4  11  22  44  73  97 148 190 244 305 377 428
#     4  10  21  40  67 111 141 186 235 303 372 436
#     4  10  19  36  64 102 139 180 234 296 362 425
#     4  11  24  46  68  96 144 194 245 300 362 449
#     4  10  18  35  72 101 146 178 229 306 369 420
#     4  10  26  44  68 100 147 186 246 300 369 454
#
# _framework density 23.556849
#
# number of rings (size 3 to 8) (size 9 to 14) (size 15 to 20)
#    0.000    1.714    4.286    0.000    4.000    4.571 
#    0.000    1.429    0.000    0.000    0.000    0.000 
#    0.000    0.000    0.000    0.000    0.000    0.000 
#
# Total GULP energy -117457.265889 kJ/mol
# GULP energy per Si atom -5593.203138 kJ/mol
# Density = 2.350323 g / cm^3
# Si number density = 23.556849 Si / 1000 Ang^3
#
#
#
# Elastic Constant Matrix: (Units=GPa)
#
#
# Indices 1 2 3 4 5 6 
#
# 1 43.4581 4.3737 25.5189 -0.1357 -0.4176 0.0000
# 2 4.3737 43.4581 25.5189 0.1357 0.4176 0.0000
# 3 25.5189 25.5189 108.7596 0.0000 0.0000 0.0000
# 4 -0.1357 0.1357 0.0000 26.3150 0.0000 0.4176
# 5 -0.4176 0.4176 0.0000 0.0000 26.3150 -0.1357
# 6 0.0000 0.0000 0.0000 0.4176 -0.1357 19.5422
#
#
#
# Elastic Compliance Matrix: (Units=1/GPa)
#
#
# Indices 1 2 3 4 5 6 
#
# 1 0.026742 0.001147 -0.006544 0.000132 0.000406 0.000000
# 2 0.001147 0.026742 -0.006544 -0.000132 -0.000406 0.000000
# 3 -0.006544 -0.006544 0.012265 0.000000 0.000000 0.000000
# 4 0.000132 -0.000132 0.000000 0.038015 0.000000 -0.000812
# 5 0.000406 -0.000406 0.000000 0.000000 0.038015 0.000264
# 6 0.000000 0.000000 0.000000 -0.000812 0.000264 0.051191
#
#
# Mechanical properties :
#
#
# Convention : Reuss Voigt Hill
#
# Bulk Modulus (GPa) = 23.88441 34.05540 28.96991
# Shear Modulus (GPa) = 21.66300 23.78540 22.72420
#
# Velocity S-wave (km/s) = 3.03579 3.18103 3.10926
# Velocity P-wave (km/s) = 4.73805 5.28961 5.02141
#
# Compressibility (1/GPa) = 0.04186831
#
# Stress axis : x y z
#
# Youngs Moduli (GPa) = 37.39421 37.39421 81.53026
#
# Poissons Ratio (x) = -0.04288 0.53351
# Poissons Ratio (y) = -0.04288 0.53351
# Poissons Ratio (z) = 0.24470 0.24470
#
# Static dielectric constant tensor:
#      x y z
#    x 1.919240 0.000000 0.000000 
#    y 0.000000 1.919240 0.000000 
#    z 0.000000 0.000000 1.905730 
# 
# From -- ./inp_files/426.got.cif
#   From: 2010.05.17/outbox.cif.g08.bks.cpg/sg145_cif.got.tgz:426.got - 2010.05.20 13:47:28.
