data_PCOD9574536
_publ_section_title
;
Structure prediction by ZEFSAII (Michael W. Deem and Ramdas Pophale) SiO2 
 PCOD9574536
Probable space group: P 32
;
_chemical_formula_sum "Si O2"
_cell_formula_units_Z 21
_cell_length_a 8.089478
_cell_length_b 8.089478
_cell_length_c 17.436458
_cell_angle_alpha 90.000000
_cell_angle_beta 90.000000
_cell_angle_gamma 120.000000
_cell_volume 988.165976
_symmetry_space_group_name_H-M "P 32"
_symmetry_group_IT_number 145
_symmetry_cell_setting 'hexagonal'
loop_
_space_group_symop_operation_xyz
x,y,z
-y,x-y,2/3+z
-x+y,-x,1/3+z
loop_
_atom_site_type_symbol
_atom_site_label
_atom_site_fract_x
_atom_site_fract_y
_atom_site_fract_z
Si Si1 0.843931 0.672791 0.463470
Si Si2 0.027463 0.809569 0.900267
Si Si3 0.192536 0.227487 0.282906
Si Si4 0.984326 0.761777 0.181759
Si Si5 0.096296 0.636195 0.052763
Si Si6 0.146234 0.839529 0.337131
Si Si7 0.519026 0.940853 0.091014
O O1 0.914255 0.658325 0.548446
O O2 0.830147 0.865933 0.475054
O O3 0.638351 0.519606 0.430724
O O4 0.006048 0.711149 0.403049
O O5 0.030718 0.682488 0.830542
O O6 0.199520 0.022079 0.880188
O O7 0.073527 0.743814 0.980039
O O8 0.829199 0.816576 0.910383
O O9 0.299336 0.385600 0.347486
O O10 0.128621 0.026851 0.325160
O O11 0.942142 0.609019 0.116822
O O12 0.087806 0.735017 0.255253
O O13 0.082168 0.445208 0.023541
O O14 0.305963 0.757513 0.091504
#
# Coordination Sequence:
#
# PCOD9574536 Si02
#       7
#     3   3   3   3   3   3   3
#     4   9  19  36  56  81 116 153 192 241 302 360
#     4  10  19  37  60  84 115 156 207 249 296 365
#     4  10  20  37  62  83 111 156 199 243 304 364
#     4   9  18  35  60  81 107 156 200 237 293 359
#     4  11  21  34  58  87 118 151 196 248 302 361
#     4  10  20  38  56  80 117 153 192 241 301 365
#     4  11  21  37  60  86 114 153 202 247 298 366
#
# _framework density 21.251493
#
# number of rings (size 3 to 8) (size 9 to 14) (size 15 to 20)
#    0.000    2.286    0.000    8.571    0.000    2.286 
#    0.000    7.143    0.000    0.000    0.000    0.000 
#    0.000    0.000    0.000    0.000    0.000    0.000 
#
# Total GULP energy -117075.879621 kJ/mol
# GULP energy per Si atom -5575.041887 kJ/mol
# Density = 2.120312 g / cm^3
# Si number density = 21.251493 Si / 1000 Ang^3
#
#
#
# Elastic Constant Matrix: (Units=GPa)
#
#
# Indices 1 2 3 4 5 6 
#
# 1 41.1153 4.0689 16.1332 -9.7656 -1.8297 0.0000
# 2 4.0689 41.1153 16.1332 9.7656 1.8297 0.0000
# 3 16.1332 16.1332 107.3672 0.0000 0.0000 0.0000
# 4 -9.7656 9.7656 0.0000 11.7423 0.0000 1.8297
# 5 -1.8297 1.8297 0.0000 0.0000 11.7423 -9.7656
# 6 0.0000 0.0000 0.0000 1.8297 -9.7656 18.5232
#
#
#
# Elastic Compliance Matrix: (Units=1/GPa)
#
#
# Indices 1 2 3 4 5 6 
#
# 1 0.037108 -0.012316 -0.003725 0.041105 0.007701 0.000000
# 2 -0.012316 0.037108 -0.003725 -0.041105 -0.007701 0.000000
# 3 -0.003725 -0.003725 0.010433 0.000000 0.000000 0.000000
# 4 0.041105 -0.041105 0.000000 0.155932 0.000000 -0.015403
# 5 0.007701 -0.007701 0.000000 0.000000 0.155932 0.082209
# 6 0.000000 0.000000 0.000000 -0.015403 0.082209 0.098849
#
#
# Mechanical properties :
#
#
# Convention : Reuss Voigt Hill
#
# Bulk Modulus (GPa) = 22.16506 29.14092 25.65299
# Shear Modulus (GPa) = 9.09196 18.61908 13.85552
#
# Velocity S-wave (km/s) = 2.07064 2.96316 2.55616
# Velocity P-wave (km/s) = 4.02110 5.04473 4.56172
#
# Compressibility (1/GPa) = 0.04511605
#
# Stress axis : x y z
#
# Youngs Moduli (GPa) = 26.94814 26.94814 95.84642
#
# Poissons Ratio (x) = 0.33190 0.35705
# Poissons Ratio (y) = 0.33190 0.35705
# Poissons Ratio (z) = 0.10039 0.10039
#
# Static dielectric constant tensor:
#      x y z
#    x 1.809160 0.000000 0.000000 
#    y 0.000000 1.809160 0.000000 
#    z 0.000000 0.000000 1.793560 
# 
# From -- ./inp_files/754.got.cif
#   From: 2010.05.17/outbox.cif.g08.bks.cpg/sg145_cif.got.tgz:754.got - 2010.05.20 13:47:28.
