data_PCOD9574676
_publ_section_title
;
Structure prediction by ZEFSAII (Michael W. Deem and Ramdas Pophale) SiO2 
 PCOD9574676
Probable space group: R 3
;
_chemical_formula_sum "Si O2"
_cell_formula_units_Z 63
_cell_length_a 12.416350
_cell_length_b 12.416350
_cell_length_c 21.966650
_cell_angle_alpha 90.000000
_cell_angle_beta 90.000000
_cell_angle_gamma 120.000000
_cell_volume 2932.799372
_symmetry_space_group_name_H-M "R 3"
_symmetry_group_IT_number 146
_symmetry_cell_setting 'hexagonal'
loop_
_space_group_symop_operation_xyz
x,y,z
-y,x-y,z
-x+y,-x,z
2/3+x,1/3+y,1/3+z
2/3-y,1/3+x-y,1/3+z
2/3-x+y,1/3-x,1/3+z
1/3+x,2/3+y,2/3+z
1/3-y,2/3+x-y,2/3+z
1/3-x+y,2/3-x,2/3+z
loop_
_atom_site_type_symbol
_atom_site_label
_atom_site_fract_x
_atom_site_fract_y
_atom_site_fract_z
Si Si1 0.785801 0.002618 0.003520
Si Si2 0.964464 0.222728 0.466418
Si Si3 0.586019 0.693366 0.908893
Si Si4 0.538067 0.351712 0.195316
Si Si5 0.664705 0.585893 0.357894
Si Si6 0.031493 0.772901 0.267988
Si Si7 0.415589 0.303636 0.831253
O O1 0.862519 0.136282 0.033427
O O2 0.799718 0.893194 0.033736
O O3 0.839801 0.018778 0.933808
O O4 0.640613 0.955232 0.995536
O O5 0.995358 0.295680 0.403192
O O6 0.209920 0.559101 0.517594
O O7 0.076844 0.209261 0.493902
O O8 0.842553 0.087701 0.457967
O O9 0.600697 0.636833 0.846542
O O10 0.460511 0.584032 0.939081
O O11 0.578043 0.817730 0.902453
O O12 0.694968 0.718224 0.956095
O O13 0.443546 0.376176 0.156585
O O14 0.092073 0.705983 0.228962
#
# Coordination Sequence:
#
# PCOD9574676 Si02
#       7
#     9   9   9   9   9   9   9
#     4  10  18  35  58  95 119 159 214 264 323 381
#     4  11  25  40  61  92 129 175 222 269 325 405
#     4  10  21  39  59  93 122 168 212 258 332 378
#     4   9  16  32  67  94 116 156 218 280 327 396
#     4  11  22  38  63  88 126 165 212 268 317 390
#     4   9  20  35  66  91 128 168 207 275 319 402
#     4  10  22  39  58  89 128 173 219 274 325 390
#
# _framework density 21.481183000000001
#
# number of rings (size 3 to 8) (size 9 to 14) (size 15 to 20)
#    0.286    1.714    1.429    2.571    4.000    4.571 
#    0.000    0.000    0.000    0.571    0.000    0.000 
#    0.000    0.000    0.000    0.000    0.000    0.000 
#
# Total GULP energy -117130.036173 kJ/mol
# GULP energy per Si atom -5577.620770 kJ/mol
# Density = 2.143229 g / cm^3
# Si number density = 21.481183 Si / 1000 Ang^3
#
#
#
# Elastic Constant Matrix: (Units=GPa)
#
#
# Indices 1 2 3 4 5 6 
#
# 1 107.3366 27.7551 19.0316 -0.4132 2.6570 0.0000
# 2 27.7551 107.3366 19.0316 0.4132 -2.6570 0.0000
# 3 19.0316 19.0316 40.2595 0.0000 0.0000 0.0000
# 4 -0.4132 0.4132 0.0000 12.4517 0.0000 -2.6570
# 5 2.6570 -2.6570 0.0000 0.0000 12.4517 -0.4132
# 6 0.0000 0.0000 0.0000 -2.6570 -0.4132 39.7907
#
#
#
# Elastic Compliance Matrix: (Units=1/GPa)
#
#
# Indices 1 2 3 4 5 6 
#
# 1 0.010646 -0.002106 -0.004037 0.000423 -0.002721 0.000000
# 2 -0.002106 0.010646 -0.004037 -0.000423 0.002721 0.000000
# 3 -0.004037 -0.004037 0.028656 0.000000 0.000000 0.000000
# 4 0.000423 -0.000423 0.000000 0.081500 0.000000 0.005442
# 5 -0.002721 0.002721 0.000000 0.000000 0.081500 0.000846
# 6 0.000000 0.000000 0.000000 0.005442 0.000846 0.025504
#
#
# Mechanical properties :
#
#
# Convention : Reuss Voigt Hill
#
# Bulk Modulus (GPa) = 33.79820 42.95213 38.37516
# Shear Modulus (GPa) = 18.60998 25.54643 22.07820
#
# Velocity S-wave (km/s) = 2.94656 3.45229 3.20940
# Velocity P-wave (km/s) = 5.22918 5.99414 5.62468
#
# Compressibility (1/GPa) = 0.02958738
#
# Stress axis : x y z
#
# Youngs Moduli (GPa) = 93.93351 93.93351 34.89719
#
# Poissons Ratio (x) = 0.19782 0.14088
# Poissons Ratio (y) = 0.19782 0.14088
# Poissons Ratio (z) = 0.37921 0.37921
#
# Static dielectric constant tensor:
#      x y z
#    x 1.803060 0.000000 0.000000 
#    y 0.000000 1.803060 0.000000 
#    z 0.000000 0.000000 1.782300 
# 
# From -- ./inp_files/2249.got.cif
#   From: 2010.05.17/outbox.cif.g08.bks.cpg/sg146_cif.got.tgz:2249.got - 2010.05.20 13:48:23.
