data_PCOD9574997
_publ_section_title
;
Structure prediction by ZEFSAII (Michael W. Deem and Ramdas Pophale) SiO2 
 PCOD9574997
Probable space group: R -3
;
_chemical_formula_sum "Si O2"
_cell_formula_units_Z 126
_cell_length_a 17.730490
_cell_length_b 17.730490
_cell_length_c 23.568185
_cell_angle_alpha 90.000000
_cell_angle_beta 90.000000
_cell_angle_gamma 120.000000
_cell_volume 6416.500702
_symmetry_space_group_name_H-M "R -3"
_symmetry_group_IT_number 148
_symmetry_cell_setting 'hexagonal'
loop_
_space_group_symop_operation_xyz
x,y,z
-y,x-y,z
-x+y,-x,z
-x,-y,-z
y,-x+y,-z
x-y,x,-z
2/3+x,1/3+y,1/3+z
2/3-y,1/3+x-y,1/3+z
2/3-x+y,1/3-x,1/3+z
2/3-x,1/3-y,1/3-z
2/3+y,1/3-x+y,1/3-z
2/3+x-y,1/3+x,1/3-z
1/3+x,2/3+y,2/3+z
1/3-y,2/3+x-y,2/3+z
1/3-x+y,2/3-x,2/3+z
1/3-x,2/3-y,2/3-z
1/3+y,2/3-x+y,2/3-z
1/3+x-y,2/3+x,2/3-z
loop_
_atom_site_type_symbol
_atom_site_label
_atom_site_fract_x
_atom_site_fract_y
_atom_site_fract_z
Si Si1 0.092006 0.897381 0.634075
Si Si2 0.906242 0.112743 0.618381
Si Si3 0.307319 0.500578 0.693294
Si Si4 0.945714 0.688914 0.950544
Si Si5 0.290766 0.087223 0.735938
Si Si6 0.230928 0.144717 0.234403
Si Si7 0.400716 0.504967 0.544088
O O1 0.112966 0.823003 0.615513
O O2 0.108021 0.905801 0.702301
O O3 0.990708 0.859598 0.619189
O O4 0.153808 0.991182 0.606793
O O5 0.896776 0.140953 0.682441
O O6 0.846332 0.138923 0.580517
O O7 0.248077 0.512421 0.645863
O O8 0.306376 0.413423 0.674206
O O9 0.256893 0.490141 0.750828
O O10 0.995279 0.633709 0.950413
O O11 0.978577 0.756747 0.898810
O O12 0.213597 0.016739 0.775752
O O13 0.335859 0.198710 0.226599
O O14 0.204034 0.071616 0.186829
#
# Coordination Sequence:
#
# PCOD9574997 Si02
#       7
#    18  18  18  18  18  18  18
#     4  10  17  29  46  74 101 139 170 227 268 324
#     4   9  17  27  46  71 103 132 176 213 273 312
#     4  10  19  31  47  69  95 129 168 214 254 310
#     4   9  17  30  49  67  96 130 175 213 271 309
#     4   8  16  30  45  69  97 137 167 216 265 320
#     4   9  16  29  50  71 101 131 175 212 273 316
#     4   9  17  30  48  74  95 133 172 218 260 325
#
# _framework density 19.636872
#
# number of rings (size 3 to 8) (size 9 to 14) (size 15 to 20)
#    0.000    2.857    1.429    0.429    2.000    0.000 
#    0.000    5.714    0.000    0.000    0.000    0.000 
#    0.000    0.000    0.000    2.143    0.000    8.000 
#
# Total GULP energy -233822.022590 kJ/mol
# GULP energy per Si atom -5567.191014 kJ/mol
# Density = 1.959218 g / cm^3
# Si number density = 19.636872 Si / 1000 Ang^3
#
#
#
# Elastic Constant Matrix: (Units=GPa)
#
#
# Indices 1 2 3 4 5 6 
#
# 1 71.2623 21.9636 16.0024 -3.9702 3.7316 0.0000
# 2 21.9636 71.2623 16.0024 3.9702 -3.7316 0.0000
# 3 16.0024 16.0024 39.2534 0.0000 0.0000 0.0000
# 4 -3.9702 3.9702 0.0000 14.3477 0.0000 -3.7316
# 5 3.7316 -3.7316 0.0000 0.0000 14.3477 -3.9702
# 6 0.0000 0.0000 0.0000 -3.7316 -3.9702 24.6494
#
#
#
# Elastic Compliance Matrix: (Units=1/GPa)
#
#
# Indices 1 2 3 4 5 6 
#
# 1 0.017308 -0.004836 -0.005085 0.006127 -0.005759 0.000000
# 2 -0.004836 0.017308 -0.005085 -0.006127 0.005759 0.000000
# 3 -0.005085 -0.005085 0.029621 0.000000 0.000000 0.000000
# 4 0.006127 -0.006127 0.000000 0.076084 0.000000 0.011518
# 5 -0.005759 0.005759 0.000000 0.000000 0.076084 0.012255
# 6 0.000000 0.000000 0.000000 0.011518 0.012255 0.044287
#
#
# Mechanical properties :
#
#
# Convention : Reuss Voigt Hill
#
# Bulk Modulus (GPa) = 29.21639 32.19053 30.70346
# Shear Modulus (GPa) = 16.55028 19.18960 17.86994
#
# Velocity S-wave (km/s) = 2.90628 3.12945 3.01993
# Velocity P-wave (km/s) = 5.11591 5.43014 5.27537
#
# Compressibility (1/GPa) = 0.03422737
#
# Stress axis : x y z
#
# Youngs Moduli (GPa) = 57.77768 57.77768 33.75970
#
# Poissons Ratio (x) = 0.27939 0.17165
# Poissons Ratio (y) = 0.27939 0.17165
# Poissons Ratio (z) = 0.29377 0.29377
#
# Static dielectric constant tensor:
#      x y z
#    x 1.718510 0.000000 0.000000 
#    y 0.000000 1.718510 0.000000 
#    z 0.000000 0.000000 1.682420 
# 
# From -- ./inp_files/3449.got.cif
#   From: 2010.05.17/outbox.cif.g08.bks.cpg/sg148_2_cif.got.tgz:3449.got - 2010.05.20 13:50:20.
