data_PCOD9574394
_publ_section_title
;
Structure prediction by ZEFSAII (Michael W. Deem and Ramdas Pophale) SiO2 
 PCOD9574394
Probable space group: P 31
;
_chemical_formula_sum "Si O2"
_cell_formula_units_Z 24
_cell_length_a 12.570134
_cell_length_b 12.570134
_cell_length_c 9.475972
_cell_angle_alpha 90.000000
_cell_angle_beta 90.000000
_cell_angle_gamma 120.000000
_cell_volume 1296.684189
_symmetry_space_group_name_H-M "P 31"
_symmetry_group_IT_number 144
_symmetry_cell_setting 'hexagonal'
loop_
_space_group_symop_operation_xyz
x,y,z
-y,x-y,1/3+z
-x+y,-x,2/3+z
loop_
_atom_site_type_symbol
_atom_site_label
_atom_site_fract_x
_atom_site_fract_y
_atom_site_fract_z
Si Si1 0.658489 0.511346 0.394430
Si Si2 0.404420 0.102019 0.407609
Si Si3 0.546095 0.679395 0.436988
Si Si4 0.283298 0.825127 0.319643
Si Si5 0.320605 0.453906 0.907522
Si Si6 0.897981 0.595580 0.936901
Si Si7 0.283299 0.458171 0.358200
Si Si8 0.852857 0.511345 0.616747
O O1 0.706138 0.558684 0.235156
O O2 0.625667 0.612671 0.450612
O O3 0.529315 0.387372 0.361186
O O4 0.747261 0.494522 0.505588
O O5 0.339792 0.169896 0.338922
O O6 0.529315 0.141943 0.316658
O O7 0.320563 0.956560 0.388496
O O8 0.600261 0.800131 0.338922
O O9 0.414871 0.580595 0.373414
O O10 0.521697 0.719019 0.586287
O O11 0.414870 0.834275 0.304429
O O12 0.197321 0.719019 0.424890
O O13 0.210714 0.789286 0.172255
O O14 0.387329 0.374333 0.893899
O O15 0.852546 0.558684 0.776021
O O16 0.043440 0.679437 0.956014
#
# Coordination Sequence:
#
# PCOD9574394 Si02
#       8
#     3   3   3   3   3   3   3   3
#     4  10  23  39  61  86 115 159 199 244 296 348
#     4  10  23  40  58  86 121 152 199 249 292 347
#     4  11  20  38  60  88 122 152 192 239 297 353
#     4  11  22  36  60  91 121 156 190 239 295 356
#     4  11  20  38  60  88 122 152 192 239 297 353
#     4  10  23  40  58  86 121 152 199 249 292 347
#     4  11  22  36  60  91 121 156 190 239 295 356
#     4  10  23  39  61  86 115 159 199 244 296 348
#
# _framework density 18.508747
#
# number of rings (size 3 to 8) (size 9 to 14) (size 15 to 20)
#    0.000    1.500    2.500    3.000    7.000    0.000 
#    0.000    0.000    0.000    3.000    0.000    0.000 
#    0.000    0.000    0.000    0.000    0.000    0.000 
#
# Total GULP energy -133901.654184 kJ/mol
# GULP energy per Si atom -5579.235591 kJ/mol
# Density = 1.846662 g / cm^3
# Si number density = 18.508747 Si / 1000 Ang^3
#
#
#
# Elastic Constant Matrix: (Units=GPa)
#
#
# Indices 1 2 3 4 5 6 
#
# 1 80.5179 30.0826 33.0413 0.0000 11.5576 0.0000
# 2 30.0826 80.5179 33.0413 0.0000 -11.5576 0.0000
# 3 33.0413 33.0413 66.9796 0.0000 0.0000 0.0000
# 4 0.0000 0.0000 0.0000 22.9291 0.0000 -11.5576
# 5 11.5576 -11.5576 0.0000 0.0000 22.9291 0.0000
# 6 0.0000 0.0000 0.0000 -11.5576 0.0000 25.2177
#
#
#
# Elastic Compliance Matrix: (Units=1/GPa)
#
#
# Indices 1 2 3 4 5 6 
#
# 1 0.019302 -0.006482 -0.006324 0.000000 -0.012997 0.000000
# 2 -0.006482 0.019302 -0.006324 0.000000 0.012997 0.000000
# 3 -0.006324 -0.006324 0.021169 0.000000 0.000000 0.000000
# 4 0.000000 0.000000 0.000000 0.056715 0.000000 0.025993
# 5 -0.012997 0.012997 0.000000 0.000000 0.056715 0.000000
# 6 0.000000 0.000000 0.000000 0.025993 0.000000 0.051568
#
#
# Mechanical properties :
#
#
# Convention : Reuss Voigt Hill
#
# Bulk Modulus (GPa) = 46.48379 46.70509 46.59444
# Shear Modulus (GPa) = 18.50466 23.00521 20.75494
#
# Velocity S-wave (km/s) = 3.16536 3.52936 3.35230
# Velocity P-wave (km/s) = 6.20712 6.47281 6.34136
#
# Compressibility (1/GPa) = 0.02151288
#
# Stress axis : x y z
#
# Youngs Moduli (GPa) = 51.80798 51.80798 47.23784
#
# Poissons Ratio (x) = 0.33581 0.29874
# Poissons Ratio (y) = 0.33581 0.29874
# Poissons Ratio (z) = 0.32765 0.32765
#
# Static dielectric constant tensor:
#      x y z
#    x 1.648910 0.000000 0.000000 
#    y 0.000000 1.648910 0.000000 
#    z 0.000000 0.000000 1.678290 
# 
# From -- ./inp_files/423.got.cif
#   From: 2010.05.17/outbox.cif.g08.bks.cpg/sg144_cif.got.tgz:423.got - 2010.05.20 13:46:34.
