data_PCOD9574097
_publ_section_title
;
Structure prediction by ZEFSAII (Michael W. Deem and Ramdas Pophale) SiO2 
 PCOD9574097
Probable space group: I 41/A C D
;
_chemical_formula_sum "Si O2"
_cell_formula_units_Z 64
_cell_length_a 25.403558
_cell_length_b 25.403558
_cell_length_c 4.997233
_cell_angle_alpha 90.000000
_cell_angle_beta 90.000000
_cell_angle_gamma 90.000000
_cell_volume 3224.918137
_symmetry_space_group_name_H-M "I 41/A C D"
_symmetry_group_IT_number 142
_space_group.IT_coordinate_system_code '2'
_symmetry_cell_setting 'tetragonal'
loop_
_space_group_symop_operation_xyz
x,y,z
1/4-y,3/4+x,1/4+z
-x,1/2-y,z
1/4+y,1/4-x,3/4+z
x,-y,1/2-z
1/2-x,y,-z
3/4+y,1/4+x,1/4-z
1/4-y,1/4-x,1/4-z
-x,-y,-z
3/4+y,1/4-x,3/4-z
x,1/2+y,-z
3/4-y,3/4+x,1/4-z
-x,y,1/2+z
1/2+x,-y,z
1/4-y,3/4-x,3/4+z
3/4+y,3/4+x,3/4+z
1/2+x,1/2+y,1/2+z
3/4-y,1/4+x,3/4+z
1/2-x,-y,1/2+z
3/4+y,3/4-x,1/4+z
1/2+x,1/2-y,-z
-x,1/2+y,1/2-z
1/4+y,3/4+x,3/4-z
3/4-y,3/4-x,3/4-z
1/2-x,1/2-y,1/2-z
1/4+y,3/4-x,1/4-z
1/2+x,y,1/2-z
1/4-y,1/4+x,3/4-z
1/2-x,1/2+y,z
x,1/2-y,1/2+z
3/4-y,1/4-x,1/4+z
1/4+y,1/4+x,1/4+z
loop_
_atom_site_type_symbol
_atom_site_label
_atom_site_fract_x
_atom_site_fract_y
_atom_site_fract_z
Si Si1 0.185864 0.779903 0.517600
Si Si2 0.785889 0.616235 0.753031
O O1 0.250000 0.778409 0.500000
O O2 0.167193 0.764327 0.225261
O O3 0.176923 0.837594 0.637518
O O4 0.750000 0.599957 0.500000
O O5 0.750000 0.637084 0.000000
O O6 0.818830 0.568830 0.875000
#
# Coordination Sequence:
#
# PCOD9574097 Si02
#       2
#    32  32
#     4   9  16  29  49  69  88 114 152 202 252 283
#     4  11  22  34  48  68  97 132 166 196 230 281
#
# _framework density 19.845466999999999
#
# number of rings (size 3 to 8) (size 9 to 14) (size 15 to 20)
#    0.000    2.000    0.000    9.000    0.000    2.000 
#    0.000    0.000    0.000    0.000    0.000    0.000 
#    0.000    6.000    0.000    0.000    0.000    0.000 
#
# Total GULP energy -178478.749710 kJ/mol
# GULP energy per Si atom -5577.460928 kJ/mol
# Density = 1.980030 g / cm^3
# Si number density = 19.845467 Si / 1000 Ang^3
#
#
#
# Elastic Constant Matrix: (Units=GPa)
#
#
# Indices 1 2 3 4 5 6 
#
# 1 46.6526 24.6177 30.7064 0.0000 0.0000 0.0000
# 2 24.6177 46.6526 30.7064 0.0000 0.0000 0.0000
# 3 30.7064 30.7064 133.8785 0.0000 0.0000 0.0000
# 4 0.0000 0.0000 0.0000 30.8501 0.0000 0.0000
# 5 0.0000 0.0000 0.0000 0.0000 30.8501 0.0000
# 6 0.0000 0.0000 0.0000 0.0000 0.0000 -6.6017
#
#
#
# Elastic Compliance Matrix: (Units=1/GPa)
#
#
# Indices 1 2 3 4 5 6 
#
# 1 0.031435 -0.013948 -0.004011 0.000000 0.000000 0.000000
# 2 -0.013948 0.031435 -0.004011 0.000000 0.000000 0.000000
# 3 -0.004011 -0.004011 0.009309 0.000000 0.000000 0.000000
# 4 0.000000 0.000000 0.000000 0.032415 0.000000 0.000000
# 5 0.000000 0.000000 0.000000 0.000000 0.032415 0.000000
# 6 0.000000 0.000000 0.000000 0.000000 0.000000 -0.151475
#
#
# Mechanical properties :
#
#
# Convention : Reuss Voigt Hill
#
# Bulk Modulus (GPa) = 35.41040 44.36051 39.88545
# Shear Modulus (GPa) = 128.58275 20.42990 74.50633
#
# Velocity S-wave (km/s) = 8.05808 3.21198 6.13390
# Velocity P-wave (km/s) = 10.22050 6.01309 8.38499
#
# Compressibility (1/GPa) = 0.02824029
#
# Stress axis : x y z
#
# Youngs Moduli (GPa) = 31.81180 31.81180 107.41915
#
# Poissons Ratio (x) = 0.44370 0.43084
# Poissons Ratio (y) = 0.44370 0.43084
# Poissons Ratio (z) = 0.12759 0.12759
#
# Static dielectric constant tensor:
#      x y z
#    x 1.751660 0.000000 0.000000 
#    y 0.000000 1.751660 0.000000 
#    z 0.000000 0.000000 1.731320 
# 
# From -- ./inp_files/470.got.cif
#   From: 2010.05.17/outbox.cif.g08.bks.cpg/sg142_1_cif.got.tgz:470.got - 2010.05.20 13:39:18.
