data_PCOD9574190
_publ_section_title
;
Structure prediction by ZEFSAII (Michael W. Deem and Ramdas Pophale) SiO2 
 PCOD9574190
Probable space group: I 41/A C D
;
_chemical_formula_sum "Si O2"
_cell_formula_units_Z 80
_cell_length_a 11.183308
_cell_length_b 11.183308
_cell_length_c 24.474759
_cell_angle_alpha 90.000000
_cell_angle_beta 90.000000
_cell_angle_gamma 90.000000
_cell_volume 3060.969456
_symmetry_space_group_name_H-M "I 41/A C D"
_symmetry_group_IT_number 142
_space_group.IT_coordinate_system_code '2'
_symmetry_cell_setting 'tetragonal'
loop_
_space_group_symop_operation_xyz
x,y,z
1/4-y,3/4+x,1/4+z
-x,1/2-y,z
1/4+y,1/4-x,3/4+z
x,-y,1/2-z
1/2-x,y,-z
3/4+y,1/4+x,1/4-z
1/4-y,1/4-x,1/4-z
-x,-y,-z
3/4+y,1/4-x,3/4-z
x,1/2+y,-z
3/4-y,3/4+x,1/4-z
-x,y,1/2+z
1/2+x,-y,z
1/4-y,3/4-x,3/4+z
3/4+y,3/4+x,3/4+z
1/2+x,1/2+y,1/2+z
3/4-y,1/4+x,3/4+z
1/2-x,-y,1/2+z
3/4+y,3/4-x,1/4+z
1/2+x,1/2-y,-z
-x,1/2+y,1/2-z
1/4+y,3/4+x,3/4-z
3/4-y,3/4-x,3/4-z
1/2-x,1/2-y,1/2-z
1/4+y,3/4-x,1/4-z
1/2+x,y,1/2-z
1/4-y,1/4+x,3/4-z
1/2-x,1/2+y,z
x,1/2-y,1/2+z
3/4-y,1/4-x,1/4+z
1/4+y,1/4+x,1/4+z
loop_
_atom_site_type_symbol
_atom_site_label
_atom_site_fract_x
_atom_site_fract_y
_atom_site_fract_z
Si Si1 0.036107 0.500000 0.750000
Si Si2 0.024528 0.941891 0.638082
Si Si3 0.642589 0.780319 0.207662
O O1 0.125785 0.420674 0.714207
O O2 0.950018 0.545650 0.702083
O O3 0.122070 0.851469 0.614448
O O4 0.014400 0.058694 0.600391
O O5 0.500000 0.750000 0.218424
O O6 0.750000 0.750000 0.250000
#
# Coordination Sequence:
#
# PCOD9574190 Si02
#       3
#    16  32  32
#     4  12  26  48  80 118 156 230 278 358 438 520
#     4  11  25  51  80 116 167 224 290 363 434 522
#     4  12  27  52  80 121 168 220 294 363 440 531
#
# _framework density 26.135508999999999
#
# number of rings (size 3 to 8) (size 9 to 14) (size 15 to 20)
#    0.000    0.400    4.000    3.600    0.000    9.600 
#    7.200    0.000    0.000    0.000    0.000    0.000 
#    0.000    0.000    0.000    0.000    0.000    0.000 
#
# Total GULP energy -223302.946129 kJ/mol
# GULP energy per Si atom -5582.573653 kJ/mol
# Density = 2.607602 g / cm^3
# Si number density = 26.135509 Si / 1000 Ang^3
#
#
#
# Elastic Constant Matrix: (Units=GPa)
#
#
# Indices 1 2 3 4 5 6 
#
# 1 121.9040 44.4465 51.2512 0.0000 0.0000 0.0000
# 2 44.4465 121.9040 51.2512 0.0000 0.0000 0.0000
# 3 51.2512 51.2512 223.9532 0.0000 0.0000 0.0000
# 4 0.0000 0.0000 0.0000 34.6141 0.0000 0.0000
# 5 0.0000 0.0000 0.0000 0.0000 34.6141 0.0000
# 6 0.0000 0.0000 0.0000 0.0000 0.0000 -26.7507
#
#
#
# Elastic Compliance Matrix: (Units=1/GPa)
#
#
# Indices 1 2 3 4 5 6 
#
# 1 0.009954 -0.002956 -0.001602 0.000000 0.000000 0.000000
# 2 -0.002956 0.009954 -0.001602 0.000000 0.000000 0.000000
# 3 -0.001602 -0.001602 0.005198 0.000000 0.000000 0.000000
# 4 0.000000 0.000000 0.000000 0.028890 0.000000 0.000000
# 5 0.000000 0.000000 0.000000 0.000000 0.028890 0.000000
# 6 0.000000 0.000000 0.000000 0.000000 0.000000 -0.037382
#
#
# Mechanical properties :
#
#
# Convention : Reuss Voigt Hill
#
# Bulk Modulus (GPa) = 78.19473 84.62879 81.41176
# Shear Modulus (GPa) = 80.53386 29.88296 55.20841
#
# Velocity S-wave (km/s) = 5.55705 3.38507 4.60106
# Velocity P-wave (km/s) = 8.43554 6.90864 7.70998
#
# Compressibility (1/GPa) = 0.01278859
#
# Stress axis : x y z
#
# Youngs Moduli (GPa) = 100.45930 100.45930 192.37305
#
# Poissons Ratio (x) = 0.29696 0.30809
# Poissons Ratio (y) = 0.29696 0.30809
# Poissons Ratio (z) = 0.16089 0.16089
#
# Static dielectric constant tensor:
#      x y z
#    x 2.216110 0.000000 0.000000 
#    y 0.000000 2.216110 0.000000 
#    z 0.000000 0.000000 2.111020 
# 
# From -- ./inp_files/11864.got.cif
#   From: 2010.05.17/outbox.cif.g08.bks.cpg/sg142_6_cif.got.tgz:11864.got - 2010.05.20 13:39:18.
