data_PCOD9574332
_publ_section_title
;
Structure prediction by ZEFSAII (Michael W. Deem and Ramdas Pophale) SiO2 
 PCOD9574332
Probable space group: P 31
;
_chemical_formula_sum "Si O2"
_cell_formula_units_Z 24
_cell_length_a 14.710997
_cell_length_b 14.710997
_cell_length_c 6.113593
_cell_angle_alpha 90.000000
_cell_angle_beta 90.000000
_cell_angle_gamma 120.000000
_cell_volume 1145.806730
_symmetry_space_group_name_H-M "P 31"
_symmetry_group_IT_number 144
_symmetry_cell_setting 'hexagonal'
loop_
_space_group_symop_operation_xyz
x,y,z
-y,x-y,1/3+z
-x+y,-x,2/3+z
loop_
_atom_site_type_symbol
_atom_site_label
_atom_site_fract_x
_atom_site_fract_y
_atom_site_fract_z
Si Si1 0.331574 0.472026 0.173890
Si Si2 0.868229 0.157772 0.428296
Si Si3 0.894909 0.924049 0.754984
Si Si4 0.482783 0.480442 0.813542
Si Si5 0.355894 0.882003 0.755442
Si Si6 0.746049 0.165329 0.048172
Si Si7 0.014631 0.746141 0.098226
Si Si8 0.390726 0.066395 0.458935
O O1 0.221310 0.467382 0.140228
O O2 0.426919 0.582161 0.258792
O O3 0.310556 0.389653 0.369064
O O4 0.375703 0.447364 0.950919
O O5 0.802648 0.194129 0.281844
O O6 0.931940 0.241517 0.618124
O O7 0.950038 0.134569 0.300855
O O8 0.783906 0.051501 0.545207
O O9 0.787096 0.918929 0.817444
O O10 0.963279 0.029813 0.619129
O O11 0.504050 0.568686 0.632575
O O12 0.486040 0.379290 0.720263
O O13 0.573948 0.529783 0.992401
O O14 0.342689 0.974006 0.639505
O O15 0.817514 0.264967 0.898119
O O16 0.759824 0.070634 0.951782
#
# Coordination Sequence:
#
# PCOD9574332 Si02
#       8
#     3   3   3   3   3   3   3   3
#     4  11  25  43  67 102 136 182 233 285 347 419
#     4  10  21  40  64  91 128 172 215 269 330 399
#     4  10  21  36  56  91 132 164 214 261 316 392
#     4  11  24  45  70  96 138 177 231 288 352 415
#     4  11  26  45  69 101 140 182 231 292 350 415
#     4  11  21  42  71  89 132 174 218 279 342 404
#     4  10  21  38  61  96 124 174 221 264 333 403
#     4  10  25  41  68 100 128 175 229 280 342 419
#
# _framework density 20.94594
#
# number of rings (size 3 to 8) (size 9 to 14) (size 15 to 20)
#    0.000    1.500    2.500    1.500    5.250    2.000 
#    4.500    0.000   13.750    0.000    0.000    0.000 
#    0.000    0.000    0.000    0.000    0.000    0.000 
#
# Total GULP energy -133874.819185 kJ/mol
# GULP energy per Si atom -5578.117466 kJ/mol
# Density = 2.089827 g / cm^3
# Si number density = 20.945940 Si / 1000 Ang^3
#
#
#
# Elastic Constant Matrix: (Units=GPa)
#
#
# Indices 1 2 3 4 5 6 
#
# 1 87.9856 37.3449 19.9385 -0.3213 -0.5485 0.0000
# 2 37.3449 87.9856 19.9385 0.3213 0.5485 0.0000
# 3 19.9385 19.9385 58.3394 0.0000 0.0000 0.0000
# 4 -0.3213 0.3213 0.0000 27.5974 0.0000 0.5485
# 5 -0.5485 0.5485 0.0000 0.0000 27.5974 -0.3213
# 6 0.0000 0.0000 0.0000 0.5485 -0.3213 25.3203
#
#
#
# Elastic Compliance Matrix: (Units=1/GPa)
#
#
# Indices 1 2 3 4 5 6 
#
# 1 0.014355 -0.005403 -0.003060 0.000230 0.000393 0.000000
# 2 -0.005403 0.014355 -0.003060 -0.000230 -0.000393 0.000000
# 3 -0.003060 -0.003060 0.019232 0.000000 0.000000 0.000000
# 4 0.000230 -0.000230 0.000000 0.036256 0.000000 -0.000785
# 5 0.000393 -0.000393 0.000000 0.000000 0.036256 0.000460
# 6 0.000000 0.000000 0.000000 -0.000785 0.000460 0.039517
#
#
# Mechanical properties :
#
#
# Convention : Reuss Voigt Hill
#
# Bulk Modulus (GPa) = 40.16275 43.19494 41.67884
# Shear Modulus (GPa) = 26.13466 26.57559 26.35512
#
# Velocity S-wave (km/s) = 3.53614 3.56584 3.55102
# Velocity P-wave (km/s) = 5.99070 6.13356 6.06255
#
# Compressibility (1/GPa) = 0.02489869
#
# Stress axis : x y z
#
# Youngs Moduli (GPa) = 69.66018 69.66018 51.99546
#
# Poissons Ratio (x) = 0.37637 0.15909
# Poissons Ratio (y) = 0.37637 0.15909
# Poissons Ratio (z) = 0.21314 0.21314
#
# Static dielectric constant tensor:
#      x y z
#    x 1.751850 0.000000 0.000000 
#    y 0.000000 1.751850 0.000000 
#    z 0.000000 0.000000 1.783950 
# 
# From -- ./inp_files/150.got.cif
#   From: 2010.05.17/outbox.cif.g08.bks.cpg/sg144_cif.got.tgz:150.got - 2010.05.20 13:46:34.
