data_PCOD9574261
_publ_section_title
;
Structure prediction by ZEFSAII (Michael W. Deem and Ramdas Pophale) SiO2 
 PCOD9574261
Probable space group: I 41/A C D
;
_chemical_formula_sum "Si O2"
_cell_formula_units_Z 56
_cell_length_a 18.000000
_cell_length_b 18.000000
_cell_length_c 18.000000
_cell_angle_alpha 90.000000
_cell_angle_beta 90.000000
_cell_angle_gamma 90.000000
_cell_volume 5832.000000
_symmetry_space_group_name_H-M "I 41/A C D"
_symmetry_group_IT_number 142
_space_group.IT_coordinate_system_code '2'
_symmetry_cell_setting 'tetragonal'
loop_
_space_group_symop_operation_xyz
x,y,z
1/4-y,3/4+x,1/4+z
-x,1/2-y,z
1/4+y,1/4-x,3/4+z
x,-y,1/2-z
1/2-x,y,-z
3/4+y,1/4+x,1/4-z
1/4-y,1/4-x,1/4-z
-x,-y,-z
3/4+y,1/4-x,3/4-z
x,1/2+y,-z
3/4-y,3/4+x,1/4-z
-x,y,1/2+z
1/2+x,-y,z
1/4-y,3/4-x,3/4+z
3/4+y,3/4+x,3/4+z
1/2+x,1/2+y,1/2+z
3/4-y,1/4+x,3/4+z
1/2-x,-y,1/2+z
3/4+y,3/4-x,1/4+z
1/2+x,1/2-y,-z
-x,1/2+y,1/2-z
1/4+y,3/4+x,3/4-z
3/4-y,3/4-x,3/4-z
1/2-x,1/2-y,1/2-z
1/4+y,3/4-x,1/4-z
1/2+x,y,1/2-z
1/4-y,1/4+x,3/4-z
1/2-x,1/2+y,z
x,1/2-y,1/2+z
3/4-y,1/4-x,1/4+z
1/4+y,1/4+x,1/4+z
loop_
_atom_site_type_symbol
_atom_site_label
_atom_site_fract_x
_atom_site_fract_y
_atom_site_fract_z
Si Si1 0.729633 0.662598 0.235491
Si Si2 0.588272 0.838272 0.625000
Si Si3 0.504035 0.160811 0.724970
Si Si4 0.639935 0.115755 0.619248
O O1 0.750000 0.750000 0.250000
O O2 0.658391 0.662954 0.180637
O O3 0.792730 0.620856 0.184147
O O4 0.706565 0.626930 0.317674
O O5 0.521239 0.843867 0.686088
O O6 0.500000 0.250000 0.710713
O O7 0.569835 0.125978 0.675030
O O8 0.431948 0.119568 0.691514
#
# Coordination Sequence:
#
# PCOD9574261 Si02
#       4
#    32  16  32  32
#     4  11  23  42  69 103 133 188 232 291 354 428
#     4  10  25  38  70  96 136 178 236 281 364 410
#     4  11  18  36  65 100 128 174 228 300 335 407
#     4  11  20  39  69  95 141 174 236 284 358 417
#
# _framework density 9.602195
#
# number of rings (size 3 to 8) (size 9 to 14) (size 15 to 20)
#    0.000    1.143    5.714    2.143    0.000    4.571 
#    0.000    0.000   18.857    0.000    0.000    0.000 
#    0.000    0.000    0.000    0.000    0.000    0.000 
#
# Total GULP energy -311743.226152 kJ/mol
# GULP energy per Si atom -5566.843324 kJ/mol
# Density = 0.958034 g / cm^3
# Si number density = 9.602195 Si / 1000 Ang^3
#
#
#
# Elastic Constant Matrix: (Units=GPa)
#
#
# Indices 1 2 3 4 5 6 
#
# 1 89.6878 21.5791 55.6222 0.0000 0.0000 0.0000
# 2 21.5791 89.6878 55.6222 0.0000 0.0000 0.0000
# 3 55.6222 55.6222 208.7723 0.0000 0.0000 0.0000
# 4 0.0000 0.0000 0.0000 49.0142 0.0000 0.0000
# 5 0.0000 0.0000 0.0000 0.0000 49.0142 0.0000
# 6 0.0000 0.0000 0.0000 0.0000 0.0000 23.2741
#
#
#
# Elastic Compliance Matrix: (Units=1/GPa)
#
#
# Indices 1 2 3 4 5 6 
#
# 1 0.013467 -0.001216 -0.003264 0.000000 0.000000 0.000000
# 2 -0.001216 0.013467 -0.003264 0.000000 0.000000 0.000000
# 3 -0.003264 -0.003264 0.006529 0.000000 0.000000 0.000000
# 4 0.000000 0.000000 0.000000 0.020402 0.000000 0.000000
# 5 0.000000 0.000000 0.000000 0.000000 0.020402 0.000000
# 6 0.000000 0.000000 0.000000 0.000000 0.000000 0.042966
#
#
# Mechanical properties :
#
#
# Convention : Reuss Voigt Hill
#
# Bulk Modulus (GPa) = 55.63344 72.64389 64.13867
# Shear Modulus (GPa) = 36.04599 41.28211 38.66405
#
# Velocity S-wave (km/s) = 4.33710 4.64143 4.49184
# Velocity P-wave (km/s) = 7.35612 8.16288 7.76998
#
# Compressibility (1/GPa) = 0.01797480
#
# Stress axis : x y z
#
# Youngs Moduli (GPa) = 74.25821 74.25821 153.16121
#
# Poissons Ratio (x) = 0.09029 0.49990
# Poissons Ratio (y) = 0.09029 0.49990
# Poissons Ratio (z) = 0.24237 0.24237
#
# Static dielectric constant tensor:
#      x y z
#    x 1.728930 0.000000 0.000000 
#    y 0.000000 1.728930 0.000000 
#    z 0.000000 0.000000 1.667560 
# 
# From -- ./inp_files/6850.got.cif
#   From: 2010.05.17/outbox.ucp.g08.bks.cvg/sg142_4_cif.got.tgz:6850.got - 2010.06.11 11:43:53.
