data_PCOD9574287
_publ_section_title
;
Structure prediction by ZEFSAII (Michael W. Deem and Ramdas Pophale) SiO2 
 PCOD9574287
Probable space group: P 31
;
_chemical_formula_sum "Si O2"
_cell_formula_units_Z 21
_cell_length_a 8.139945
_cell_length_b 8.139945
_cell_length_c 16.853095
_cell_angle_alpha 90.000000
_cell_angle_beta 90.000000
_cell_angle_gamma 120.000000
_cell_volume 967.059602
_symmetry_space_group_name_H-M "P 31"
_symmetry_group_IT_number 144
_symmetry_cell_setting 'hexagonal'
loop_
_space_group_symop_operation_xyz
x,y,z
-y,x-y,1/3+z
-x+y,-x,2/3+z
loop_
_atom_site_type_symbol
_atom_site_label
_atom_site_fract_x
_atom_site_fract_y
_atom_site_fract_z
Si Si1 0.713613 0.003816 0.007850
Si Si2 0.483272 0.173317 0.960190
Si Si3 0.242753 0.224743 0.845767
Si Si4 0.236019 0.880046 0.651824
Si Si5 0.669482 0.050483 0.442137
Si Si6 0.952043 0.240428 0.746577
Si Si7 0.674186 0.112543 0.615896
O O1 0.696933 0.060924 0.099129
O O2 0.666883 0.790370 0.015891
O O3 0.569034 0.035620 0.957938
O O4 0.933067 0.144279 0.986026
O O5 0.321668 0.112428 0.894324
O O6 0.670685 0.381580 0.945720
O O7 0.401557 0.193638 0.044845
O O8 0.254497 0.371256 0.912320
O O9 0.032608 0.147649 0.808908
O O10 0.146873 0.766693 0.732925
O O11 0.454804 0.967401 0.633046
O O12 0.480620 0.070952 0.448834
O O13 0.739901 0.072219 0.531994
O O14 0.777358 0.100119 0.694470
#
# Coordination Sequence:
#
# PCOD9574287 Si02
#       7
#     3   3   3   3   3   3   3
#     4   9  19  35  54  85 113 151 200 244 303 361
#     4   9  18  32  62  84 111 157 210 240 309 367
#     4   9  18  36  57  81 122 151 199 266 293 363
#     4  10  20  35  59  82 115 158 199 246 314 363
#     4  10  19  35  58  87 115 160 201 250 306 367
#     4   9  20  36  59  81 124 154 201 254 307 353
#     4  10  18  35  59  86 118 161 202 250 308 374
#
# _framework density 21.715308
#
# number of rings (size 3 to 8) (size 9 to 14) (size 15 to 20)
#    0.857    1.714    1.429    0.857    0.000    1.143 
#    0.000    4.286    0.000    0.000    0.000    0.000 
#    0.000    0.000    0.000    0.000    0.000    0.000 
#
# Total GULP energy -116916.998627 kJ/mol
# GULP energy per Si atom -5567.476125 kJ/mol
# Density = 2.166588 g / cm^3
# Si number density = 21.715308 Si / 1000 Ang^3
#
#
#
# Elastic Constant Matrix: (Units=GPa)
#
#
# Indices 1 2 3 4 5 6 
#
# 1 25.7418 7.5644 13.0033 4.2604 1.2212 0.0000
# 2 7.5644 25.7418 13.0033 -4.2604 -1.2212 0.0000
# 3 13.0033 13.0033 90.2298 0.0000 0.0000 0.0000
# 4 4.2604 -4.2604 0.0000 21.6167 0.0000 -1.2212
# 5 1.2212 -1.2212 0.0000 0.0000 21.6167 4.2604
# 6 0.0000 0.0000 0.0000 -1.2212 4.2604 9.0887
#
#
#
# Elastic Compliance Matrix: (Units=1/GPa)
#
#
# Indices 1 2 3 4 5 6 
#
# 1 0.047478 -0.013647 -0.004876 -0.012047 -0.003453 0.000000
# 2 -0.013647 0.047478 -0.004876 0.012047 0.003453 0.000000
# 3 -0.004876 -0.004876 0.012488 0.000000 0.000000 0.000000
# 4 -0.012047 0.012047 0.000000 0.051399 0.000000 0.006907
# 5 -0.003453 0.003453 0.000000 0.000000 0.051399 -0.024094
# 6 0.000000 0.000000 0.000000 0.006907 -0.024094 0.122249
#
#
# Mechanical properties :
#
#
# Convention : Reuss Voigt Hill
#
# Bulk Modulus (GPa) = 16.48841 23.20614 19.84728
# Shear Modulus (GPa) = 12.51556 17.67391 15.09474
#
# Velocity S-wave (km/s) = 2.40333 2.85597 2.63937
# Velocity P-wave (km/s) = 3.91290 4.64599 4.29511
#
# Compressibility (1/GPa) = 0.06064865
#
# Stress axis : x y z
#
# Youngs Moduli (GPa) = 21.06246 21.06246 80.07645
#
# Poissons Ratio (x) = 0.28743 0.39041
# Poissons Ratio (y) = 0.28743 0.39041
# Poissons Ratio (z) = 0.10269 0.10269
#
# Static dielectric constant tensor:
#      x y z
#    x 1.818820 0.000000 0.000000 
#    y 0.000000 1.818820 0.000000 
#    z 0.000000 0.000000 1.854400 
# 
# From -- ./inp_files/781.got.cif
#   From: 2010.05.17/outbox.cif.g08.bks.cpg/sg144_cif.got.tgz:781.got - 2010.05.20 13:46:34.
