data_PCOD9575756
_publ_section_title
;
Structure prediction by ZEFSAII (Michael W. Deem and Ramdas Pophale) SiO2 
 PCOD9575756
Probable space group: P 31 2 1
;
_chemical_formula_sum "Si O2"
_cell_formula_units_Z 42
_cell_length_a 11.563754
_cell_length_b 11.563754
_cell_length_c 17.446914
_cell_angle_alpha 90.000000
_cell_angle_beta 90.000000
_cell_angle_gamma 120.000000
_cell_volume 2020.444571
_symmetry_space_group_name_H-M "P 31 2 1"
_symmetry_group_IT_number 152
_symmetry_cell_setting 'hexagonal'
loop_
_space_group_symop_operation_xyz
x,y,z
-y,x-y,1/3+z
-x+y,-x,2/3+z
x-y,-y,2/3-z
-x,-x+y,1/3-z
y,x,-z
loop_
_atom_site_type_symbol
_atom_site_label
_atom_site_fract_x
_atom_site_fract_y
_atom_site_fract_z
Si Si1 0.356416 0.752907 0.664237
Si Si2 0.845953 0.042094 0.664274
Si Si3 0.391870 0.093026 0.134579
Si Si4 0.856295 0.313369 0.645297
Si Si5 0.923038 0.273345 0.243265
Si Si6 0.848169 0.992793 0.177225
Si Si7 0.630616 0.772641 0.711609
O O1 0.342232 0.827150 0.589645
O O2 0.260726 0.595474 0.658804
O O3 0.304688 0.808926 0.732823
O O4 0.502539 0.779323 0.684203
O O5 0.844772 0.178252 0.679160
O O6 0.000000 0.080763 0.666667
O O7 0.801014 0.998674 0.576162
O O8 0.750959 0.923535 0.719706
O O9 0.441750 0.138596 0.220229
O O10 0.266010 0.118122 0.123120
O O11 0.322484 0.934184 0.117145
O O12 0.000000 0.435738 0.666667
O O13 0.865454 0.116893 0.227036
O O14 0.000000 0.347796 0.166667
O O15 0.030855 0.323325 0.311315
O O16 0.000000 0.020781 0.166667
#
# Coordination Sequence:
#
# PCOD9575756 Si02
#       7
#     6   6   6   6   6   6   6
#     4  11  27  42  65  97 138 181 227 281 338 427
#     4  10  20  38  66  96 138 170 218 280 343 402
#     4  10  25  43  70 103 132 178 236 277 355 408
#     4  10  25  46  66  98 134 181 228 282 340 416
#     4  10  22  41  65  96 125 169 228 277 347 392
#     4  10  18  38  68 102 127 165 220 297 337 396
#     4  11  23  41  65  97 136 173 217 286 340 409
#
# _framework density 20.787506
#
# number of rings (size 3 to 8) (size 9 to 14) (size 15 to 20)
#    0.000    1.714    2.857    0.857    8.000    2.286 
#    0.000    2.143    0.000    0.000    0.000    0.000 
#    0.000    0.000    0.000    0.000    0.000    0.000 
#
# Total GULP energy -234576.248297 kJ/mol
# GULP energy per Si atom -5585.148769 kJ/mol
# Density = 2.074019 g / cm^3
# Si number density = 20.787506 Si / 1000 Ang^3
#
#
#
# Elastic Constant Matrix: (Units=GPa)
#
#
# Indices 1 2 3 4 5 6 
#
# 1 102.0762 58.9885 2.4893 2.4340 -0.0001 0.0000
# 2 58.9885 102.0762 2.4893 -2.4340 0.0001 0.0000
# 3 2.4893 2.4893 31.3873 0.0000 0.0000 0.0000
# 4 2.4340 -2.4340 0.0000 19.3640 0.0000 0.0001
# 5 -0.0001 0.0001 0.0000 0.0000 19.3640 2.4340
# 6 0.0000 0.0000 0.0000 0.0001 2.4340 21.5439
#
#
#
# Elastic Compliance Matrix: (Units=1/GPa)
#
#
# Indices 1 2 3 4 5 6 
#
# 1 0.014883 -0.008659 -0.000494 -0.002959 0.000000 0.000000
# 2 -0.008659 0.014883 -0.000494 0.002959 0.000000 0.000000
# 3 -0.000494 -0.000494 0.031938 0.000000 0.000000 0.000000
# 4 -0.002959 0.002959 0.000000 0.052386 0.000000 0.000000
# 5 0.000000 0.000000 0.000000 0.000000 0.052386 -0.005919
# 6 0.000000 0.000000 0.000000 0.000000 -0.005919 0.047086
#
#
# Mechanical properties :
#
#
# Convention : Reuss Voigt Hill
#
# Bulk Modulus (GPa) = 23.57839 40.38600 31.98219
# Shear Modulus (GPa) = 20.24345 23.49256 21.86800
#
# Velocity S-wave (km/s) = 3.12401 3.36539 3.24694
# Velocity P-wave (km/s) = 4.93759 5.87974 5.42914
#
# Compressibility (1/GPa) = 0.04241172
#
# Stress axis : x y z
#
# Youngs Moduli (GPa) = 67.18913 67.18913 31.31036
#
# Poissons Ratio (x) = 0.58182 0.01546
# Poissons Ratio (y) = 0.58182 0.01546
# Poissons Ratio (z) = 0.03317 0.03317
#
# Static dielectric constant tensor:
#      x y z
#    x 1.751640 0.000000 0.000000 
#    y 0.000000 1.751640 0.000000 
#    z 0.000000 0.000000 1.790870 
# 
# From -- ./inp_files/2463.got.cif
#   From: 2010.05.17/outbox.cif.g08.bks.cpg/sg152_2_cif.got.tgz:2463.got - 2010.05.20 10:36:06.
