data_PCOD9575425
_publ_section_title
;
Structure prediction by ZEFSAII (Michael W. Deem and Ramdas Pophale) SiO2 
 PCOD9575425
Probable space group: P 3 2 1
;
_chemical_formula_sum "Si O2"
_cell_formula_units_Z 48
_cell_length_a 12.678721
_cell_length_b 12.678721
_cell_length_c 20.846532
_cell_angle_alpha 90.000000
_cell_angle_beta 90.000000
_cell_angle_gamma 120.000000
_cell_volume 2902.119816
_symmetry_space_group_name_H-M "P 3 2 1"
_symmetry_group_IT_number 150
_symmetry_cell_setting 'hexagonal'
loop_
_space_group_symop_operation_xyz
x,y,z
-y,x-y,z
-x+y,-x,z
x-y,-y,-z
-x,-x+y,-z
y,x,-z
loop_
_atom_site_type_symbol
_atom_site_label
_atom_site_fract_x
_atom_site_fract_y
_atom_site_fract_z
Si Si1 0.000099 0.250805 0.312334
Si Si2 0.082516 0.666675 0.562561
Si Si3 0.250706 0.250805 0.312334
Si Si4 0.917403 0.584180 0.812969
Si Si5 0.666675 0.584158 0.437439
Si Si6 0.666261 0.583747 0.062005
Si Si7 0.583747 0.917485 0.937995
Si Si8 0.082597 0.415820 0.187031
O O1 0.118296 0.236591 0.321014
O O2 0.024098 0.335493 0.250458
O O3 0.879861 0.120139 0.302856
O O4 0.978315 0.310945 0.375130
O O5 0.021685 0.689055 0.624870
O O6 0.094527 0.547264 0.571491
O O7 0.214260 0.785740 0.553880
O O8 0.000000 0.644647 0.500000
O O9 0.311395 0.335493 0.250458
O O10 0.786816 0.573632 0.823309
O O11 0.902684 0.451342 0.805190
O O12 0.003735 0.646327 0.874099
O O13 0.644647 0.644647 0.500000
O O14 0.556195 0.443805 0.059867
O O15 0.795045 0.590090 0.061873
O O16 0.646327 0.642592 0.125901
O O17 0.648827 0.648827 0.000000
O O18 0.648827 0.000000 0.000000
#
# Coordination Sequence:
#
# PCOD9575425 Si02
#       8
#     6   6   6   6   6   6   6   6
#     4  10  20  34  52  74 101 133 168 205 246 293
#     4  10  20  34  52  74 100 130 165 205 250 298
#     4  10  20  34  52  74 101 133 168 205 246 293
#     4  10  20  34  53  76 102 132 166 205 248 294
#     4  10  20  34  52  74 100 130 165 205 250 298
#     4  10  20  34  53  76 102 132 166 205 248 294
#     4  10  20  34  53  76 102 132 166 205 248 294
#     4  10  20  34  53  76 102 132 166 205 248 294
#
# _framework density 16.539635000000001
#
# number of rings (size 3 to 8) (size 9 to 14) (size 15 to 20)
#    0.000    2.000    0.000    4.000    0.000    0.000 
#    0.000    2.500    0.000   26.000    0.000    0.000 
#    0.000    0.000    0.000    0.000    0.000    0.000 
#
# Total GULP energy -268012.625917 kJ/mol
# GULP energy per Si atom -5583.596373 kJ/mol
# Density = 1.650199 g / cm^3
# Si number density = 16.539635 Si / 1000 Ang^3
#
#
#
# Elastic Constant Matrix: (Units=GPa)
#
#
# Indices 1 2 3 4 5 6 
#
# 1 150.4347 109.0334 108.9624 -5.4098 0.0000 0.0000
# 2 109.0334 150.4347 108.9624 5.4098 0.0000 0.0000
# 3 108.9624 108.9624 153.2013 0.0000 0.0000 0.0000
# 4 -5.4098 5.4098 0.0000 25.0921 0.0000 0.0000
# 5 0.0000 0.0000 0.0000 0.0000 25.0921 -5.4098
# 6 0.0000 0.0000 0.0000 0.0000 -5.4098 20.7007
#
#
#
# Elastic Compliance Matrix: (Units=1/GPa)
#
#
# Indices 1 2 3 4 5 6 
#
# 1 0.017584 -0.008012 -0.006808 0.005518 0.000000 0.000000
# 2 -0.008012 0.017584 -0.006808 -0.005518 0.000000 0.000000
# 3 -0.006808 -0.006808 0.016211 0.000000 0.000000 0.000000
# 4 0.005518 -0.005518 0.000000 0.042233 0.000000 0.000000
# 5 0.000000 0.000000 0.000000 0.000000 0.042233 0.011037
# 6 0.000000 0.000000 0.000000 0.000000 0.011037 0.051192
#
#
# Mechanical properties :
#
#
# Convention : Reuss Voigt Hill
#
# Bulk Modulus (GPa) = 123.09725 123.10967 123.10346
# Shear Modulus (GPa) = 21.45923 22.65117 22.05520
#
# Velocity S-wave (km/s) = 3.60591 3.70470 3.65564
# Velocity P-wave (km/s) = 9.58770 9.63818 9.61297
#
# Compressibility (1/GPa) = 0.00812366
#
# Stress axis : x y z
#
# Youngs Moduli (GPa) = 56.87007 56.87007 61.68487
#
# Poissons Ratio (x) = 0.45564 0.41995
# Poissons Ratio (y) = 0.45564 0.41995
# Poissons Ratio (z) = 0.38717 0.38717
#
# Static dielectric constant tensor:
#      x y z
#    x 1.523850 0.000000 0.000000 
#    y 0.000000 1.523850 0.000000 
#    z 0.000000 0.000000 1.532330 
# 
# From -- ./inp_files/1156.got.cif
#   From: 2010.05.17/outbox.cif.g08.bks.cpg/sg150_cif.got.tgz:1156.got - 2010.05.20 13:53:18.
