data_PCOD9575691
_publ_section_title
;
Structure prediction by ZEFSAII (Michael W. Deem and Ramdas Pophale) SiO2 
 PCOD9575691
Probable space group: P 31 1 2
;
_chemical_formula_sum "Si O2"
_cell_formula_units_Z 33
_cell_length_a 16.971674
_cell_length_b 16.971674
_cell_length_c 7.193344
_cell_angle_alpha 90.000000
_cell_angle_beta 90.000000
_cell_angle_gamma 120.000000
_cell_volume 1794.365140
_symmetry_space_group_name_H-M "P 31 1 2"
_symmetry_group_IT_number 151
_symmetry_cell_setting 'hexagonal'
loop_
_space_group_symop_operation_xyz
x,y,z
-y,x-y,1/3+z
-x+y,-x,2/3+z
-y,-x,2/3-z
-x+y,y,1/3-z
x,x-y,-z
loop_
_atom_site_type_symbol
_atom_site_label
_atom_site_fract_x
_atom_site_fract_y
_atom_site_fract_z
Si Si1 0.907179 0.267734 0.812422
Si Si2 0.463479 0.400909 0.201944
Si Si3 0.819518 0.495994 0.526059
Si Si4 0.228230 0.771771 0.833334
Si Si5 0.267080 0.388392 0.529751
Si Si6 0.449356 0.878136 0.380714
O O1 0.841030 0.158970 0.833334
O O2 0.914549 0.312332 0.014685
O O3 0.854821 0.297493 0.660096
O O4 0.014689 0.316147 0.763093
O O5 0.552227 0.447774 0.333334
O O6 0.480114 0.383595 0.993246
O O7 0.432443 0.474349 0.172281
O O8 0.757695 0.515389 0.666667
O O9 0.774738 0.387369 0.500000
O O10 0.236212 0.844516 0.680006
O O11 0.199257 0.675741 0.733861
O O12 0.186184 0.372368 0.666667
O O13 0.351251 0.491106 0.556691
O O14 0.452382 0.904763 0.166667
#
# Coordination Sequence:
#
# PCOD9575691 Si02
#       6
#     6   6   6   3   6   6
#     4  12  25  44  67  91 125 176 227 280 335 396
#     4  12  21  39  64  85 127 169 214 264 323 385
#     4  12  25  37  59  93 125 167 218 269 323 390
#     4  12  24  38  64  98 138 184 220 266 334 396
#     4  12  25  43  65  96 131 174 223 279 330 402
#     4  12  23  41  64  93 138 182 220 269 328 402
#
# _framework density 18.390905
#
# number of rings (size 3 to 8) (size 9 to 14) (size 15 to 20)
#    0.000    0.000    9.091    2.182    0.000    2.909 
#    1.636    0.000    0.000    0.000    2.364    0.000 
#    0.000    0.000    0.000    0.000    0.000    0.000 
#
# Total GULP energy -183926.389048 kJ/mol
# GULP energy per Si atom -5573.526941 kJ/mol
# Density = 1.834905 g / cm^3
# Si number density = 18.390905 Si / 1000 Ang^3
#
#
#
# Elastic Constant Matrix: (Units=GPa)
#
#
# Indices 1 2 3 4 5 6 
#
# 1 88.6106 46.7688 22.3424 0.0001 -7.6390 0.0000
# 2 46.7688 88.6106 22.3424 -0.0001 7.6390 0.0000
# 3 22.3424 22.3424 114.0069 0.0000 0.0000 0.0000
# 4 0.0001 -0.0001 0.0000 33.0607 0.0000 7.6390
# 5 -7.6390 7.6390 0.0000 0.0000 33.0607 0.0001
# 6 0.0000 0.0000 0.0000 7.6390 0.0001 20.9209
#
#
#
# Elastic Compliance Matrix: (Units=1/GPa)
#
#
# Indices 1 2 3 4 5 6 
#
# 1 0.017000 -0.009102 -0.001548 0.000000 0.006031 0.000000
# 2 -0.009102 0.017000 -0.001548 0.000000 -0.006031 0.000000
# 3 -0.001548 -0.001548 0.009378 0.000000 0.000000 0.000000
# 4 0.000000 0.000000 0.000000 0.033034 0.000000 -0.012062
# 5 0.006031 -0.006031 0.000000 0.000000 0.033034 0.000000
# 6 0.000000 0.000000 0.000000 -0.012062 0.000000 0.052203
#
#
# Mechanical properties :
#
#
# Convention : Reuss Voigt Hill
#
# Bulk Modulus (GPa) = 52.68094 52.68170 52.68132
# Shear Modulus (GPa) = 25.99132 30.72675 28.35903
#
# Velocity S-wave (km/s) = 3.76343 4.09192 3.93111
# Velocity P-wave (km/s) = 6.89868 7.14373 7.02227
#
# Compressibility (1/GPa) = 0.01898220
#
# Stress axis : x y z
#
# Youngs Moduli (GPa) = 58.82492 58.82492 106.63229
#
# Poissons Ratio (x) = 0.53543 0.16504
# Poissons Ratio (y) = 0.53543 0.16504
# Poissons Ratio (z) = 0.09104 0.09104
#
# Static dielectric constant tensor:
#      x y z
#    x 1.705910 0.000000 0.000000 
#    y 0.000000 1.705910 0.000000 
#    z 0.000000 0.000000 1.704720 
# 
# From -- ./inp_files/1689.got.cif
#   From: 2010.05.17/outbox.cif.g08.bks.cpg/sg151_1_cif.got.tgz:1689.got - 2010.05.20 10:33:20.
