data_PCOD9575778
_publ_section_title
;
Structure prediction by ZEFSAII (Michael W. Deem and Ramdas Pophale) SiO2 
 PCOD9575778
Probable space group: P 31 2 1
;
_chemical_formula_sum "Si O2"
_cell_formula_units_Z 36
_cell_length_a 8.834760
_cell_length_b 8.834760
_cell_length_c 24.016388
_cell_angle_alpha 90.000000
_cell_angle_beta 90.000000
_cell_angle_gamma 120.000000
_cell_volume 1623.408574
_symmetry_space_group_name_H-M "P 31 2 1"
_symmetry_group_IT_number 152
_symmetry_cell_setting 'hexagonal'
loop_
_space_group_symop_operation_xyz
x,y,z
-y,x-y,1/3+z
-x+y,-x,2/3+z
x-y,-y,2/3-z
-x,-x+y,1/3-z
y,x,-z
loop_
_atom_site_type_symbol
_atom_site_label
_atom_site_fract_x
_atom_site_fract_y
_atom_site_fract_z
Si Si1 0.410186 0.274774 0.365139
Si Si2 0.144431 0.601272 0.466668
Si Si3 0.271854 0.477684 0.159645
Si Si4 0.188679 0.454992 0.353250
Si Si5 0.231902 0.065358 0.251512
Si Si6 0.217144 0.992507 0.919695
O O1 0.341981 0.413979 0.368443
O O2 0.616164 0.376880 0.352808
O O3 0.317044 0.162504 0.309863
O O4 0.327493 0.130265 0.413233
O O5 0.327137 0.634141 0.490111
O O6 0.116189 0.497565 0.408758
O O7 0.168331 0.794186 0.456452
O O8 0.969956 0.513592 0.501787
O O9 0.152144 0.375529 0.212556
O O10 0.173489 0.365138 0.105155
O O11 0.048682 0.293455 0.316015
O O12 0.050731 0.068347 0.246007
#
# Coordination Sequence:
#
# PCOD9575778 Si02
#       6
#     6   6   6   6   6   6
#     4   9  17  31  53  79 105 136 180 231 276 322
#     4  10  21  36  54  80 114 147 184 237 292 347
#     4  10  21  36  54  80 114 148 185 237 298 348
#     4  10  19  34  58  83 108 142 191 240 282 340
#     4   8  17  34  52  72 104 145 181 217 270 337
#     4   9  19  37  57  76 107 151 193 232 282 353
#
# _framework density 22.175564000000001
#
# number of rings (size 3 to 8) (size 9 to 14) (size 15 to 20)
#    0.000    2.667    0.000    2.000    0.000    2.667 
#    0.000    1.667    0.000   12.000    0.000    0.000 
#    0.000    0.000    0.000    0.000    0.000    0.000 
#
# Total GULP energy -200702.412441 kJ/mol
# GULP energy per Si atom -5575.067012 kJ/mol
# Density = 2.212509 g / cm^3
# Si number density = 22.175564 Si / 1000 Ang^3
#
#
#
# Elastic Constant Matrix: (Units=GPa)
#
#
# Indices 1 2 3 4 5 6 
#
# 1 74.5008 24.1063 21.4278 7.8261 0.0000 0.0000
# 2 24.1063 74.5008 21.4278 -7.8261 0.0000 0.0000
# 3 21.4278 21.4278 27.4933 0.0000 0.0000 0.0000
# 4 7.8261 -7.8261 0.0000 22.9351 0.0000 0.0000
# 5 0.0000 0.0000 0.0000 0.0000 22.9351 7.8261
# 6 0.0000 0.0000 0.0000 0.0000 7.8261 25.1973
#
#
#
# Elastic Compliance Matrix: (Units=1/GPa)
#
#
# Indices 1 2 3 4 5 6 
#
# 1 0.018766 -0.003430 -0.011953 -0.007574 0.000000 0.000000
# 2 -0.003430 0.018766 -0.011953 0.007574 0.000000 0.000000
# 3 -0.011953 -0.011953 0.055004 0.000000 0.000000 0.000000
# 4 -0.007574 0.007574 0.000000 0.048770 0.000000 0.000000
# 5 0.000000 0.000000 0.000000 0.000000 0.048770 -0.015148
# 6 0.000000 0.000000 0.000000 0.000000 -0.015148 0.044392
#
#
# Mechanical properties :
#
#
# Convention : Reuss Voigt Hill
#
# Bulk Modulus (GPa) = 26.40933 34.49094 30.45013
# Shear Modulus (GPa) = 16.56949 21.51569 19.04259
#
# Velocity S-wave (km/s) = 2.73645 3.11825 2.93357
# Velocity P-wave (km/s) = 4.68180 5.34341 5.02351
#
# Compressibility (1/GPa) = 0.03786541
#
# Stress axis : x y z
#
# Youngs Moduli (GPa) = 53.28821 53.28821 18.18057
#
# Poissons Ratio (x) = 0.18277 0.21730
# Poissons Ratio (y) = 0.18277 0.21730
# Poissons Ratio (z) = 0.63693 0.63693
#
# Static dielectric constant tensor:
#      x y z
#    x 1.843890 0.000000 0.000000 
#    y 0.000000 1.843890 0.000000 
#    z 0.000000 0.000000 1.849080 
# 
# From -- ./inp_files/3411.got.cif
#   From: 2010.05.17/outbox.cif.g08.bks.cpg/sg152_2_cif.got.tgz:3411.got - 2010.05.20 10:36:06.
