data_PCOD9575929
_publ_section_title
;
Structure prediction by ZEFSAII (Michael W. Deem and Ramdas Pophale) SiO2 
 PCOD9575929
Probable space group: P 31 2 1
;
_chemical_formula_sum "Si O2"
_cell_formula_units_Z 30
_cell_length_a 8.153285
_cell_length_b 8.153285
_cell_length_c 18.878323
_cell_angle_alpha 90.000000
_cell_angle_beta 90.000000
_cell_angle_gamma 120.000000
_cell_volume 1086.824177
_symmetry_space_group_name_H-M "P 31 2 1"
_symmetry_group_IT_number 152
_symmetry_cell_setting 'hexagonal'
loop_
_space_group_symop_operation_xyz
x,y,z
-y,x-y,1/3+z
-x+y,-x,2/3+z
x-y,-y,2/3-z
-x,-x+y,1/3-z
y,x,-z
loop_
_atom_site_type_symbol
_atom_site_label
_atom_site_fract_x
_atom_site_fract_y
_atom_site_fract_z
Si Si1 0.213679 0.141557 0.691392
Si Si2 0.711372 0.220135 0.603503
Si Si3 0.584866 0.776344 0.361578
Si Si4 0.990042 0.990042 0.500000
Si Si5 0.000000 0.477259 0.166667
Si Si6 0.401700 0.102109 0.484683
O O1 0.000000 0.061762 0.666667
O O2 0.318375 0.360707 0.685012
O O3 0.167897 0.093226 0.774147
O O4 0.297590 0.015949 0.663960
O O5 0.698358 0.368920 0.654973
O O6 0.569531 0.134048 0.537219
O O7 0.930391 0.344385 0.571764
O O8 0.556135 0.689249 0.443283
O O9 0.699961 0.000000 0.333334
O O10 0.197213 0.030230 0.522248
O O11 0.149475 0.679783 0.203198
#
# Coordination Sequence:
#
# PCOD9575929 Si02
#       6
#     6   6   6   3   3   6
#     4  10  21  36  61  89 123 162 210 262 321 383
#     4  10  21  36  62  90 124 164 214 257 316 397
#     4  10  21  36  61  89 123 162 210 262 321 383
#     4   9  19  38  60  85 126 159 210 265 314 385
#     4   9  19  38  60  85 126 159 210 265 314 385
#     4   9  20  34  61  90 118 162 213 254 316 381
#
# _framework density 27.603363999999999
#
# number of rings (size 3 to 8) (size 9 to 14) (size 15 to 20)
#    0.000    2.400    0.000    1.200   11.200    0.000 
#    0.000    0.000   70.400    0.000    0.000    0.000 
#    0.000    0.000    0.000    0.000    0.000    0.000 
#
# Total GULP energy -167147.759223 kJ/mol
# GULP energy per Si atom -5571.591974 kJ/mol
# Density = 2.754054 g / cm^3
# Si number density = 27.603364 Si / 1000 Ang^3
#
#
#
# Elastic Constant Matrix: (Units=GPa)
#
#
# Indices 1 2 3 4 5 6 
#
# 1 168.2206 73.7738 27.6051 -5.9781 -0.0004 0.0000
# 2 73.7738 168.2206 27.6051 5.9781 0.0004 0.0000
# 3 27.6051 27.6051 108.3511 0.0000 0.0000 0.0000
# 4 -5.9781 5.9781 0.0000 32.4607 0.0000 0.0004
# 5 -0.0004 0.0004 0.0000 0.0000 32.4607 -5.9781
# 6 0.0000 0.0000 0.0000 0.0004 -5.9781 47.2234
#
#
#
# Elastic Compliance Matrix: (Units=1/GPa)
#
#
# Indices 1 2 3 4 5 6 
#
# 1 0.007614 -0.003227 -0.001118 0.001996 0.000000 0.000000
# 2 -0.003227 0.007614 -0.001118 -0.001996 0.000000 0.000000
# 3 -0.001118 -0.001118 0.009799 0.000000 0.000000 0.000000
# 4 0.001996 -0.001996 0.000000 0.031542 0.000000 0.000000
# 5 0.000000 0.000000 0.000000 0.000000 0.031542 0.003993
# 6 0.000000 0.000000 0.000000 0.000000 0.003993 0.021681
#
#
# Mechanical properties :
#
#
# Convention : Reuss Voigt Hill
#
# Bulk Modulus (GPa) = 70.91004 78.08448 74.49726
# Shear Modulus (GPa) = 39.86694 43.48287 41.67490
#
# Velocity S-wave (km/s) = 3.80449 3.97328 3.88980
# Velocity P-wave (km/s) = 6.71145 7.02842 6.87176
#
# Compressibility (1/GPa) = 0.01410238
#
# Stress axis : x y z
#
# Youngs Moduli (GPa) = 131.33652 131.33652 102.05312
#
# Poissons Ratio (x) = 0.42378 0.11407
# Poissons Ratio (y) = 0.42378 0.11407
# Poissons Ratio (z) = 0.14681 0.14681
#
# Static dielectric constant tensor:
#      x y z
#    x 2.268780 0.000000 0.000000 
#    y 0.000000 2.268780 0.000000 
#    z 0.000000 0.000000 1.976270 
# 
# From -- ./inp_files/3028.got.cif
#   From: 2010.05.17/outbox.cif.g08.bks.cpg/sg152_2_cif.got.tgz:3028.got - 2010.05.20 10:36:06.
