data_PCOD9575185
_publ_section_title
;
Structure prediction by ZEFSAII (Michael W. Deem and Ramdas Pophale) SiO2 
 PCOD9575185
Probable space group: R -3
;
_chemical_formula_sum "Si O2"
_cell_formula_units_Z 120
_cell_length_a 16.059349
_cell_length_b 16.059349
_cell_length_c 23.791298
_cell_angle_alpha 90.000000
_cell_angle_beta 90.000000
_cell_angle_gamma 120.000000
_cell_volume 5313.793106
_symmetry_space_group_name_H-M "R -3"
_symmetry_group_IT_number 148
_symmetry_cell_setting 'hexagonal'
loop_
_space_group_symop_operation_xyz
x,y,z
-y,x-y,z
-x+y,-x,z
-x,-y,-z
y,-x+y,-z
x-y,x,-z
2/3+x,1/3+y,1/3+z
2/3-y,1/3+x-y,1/3+z
2/3-x+y,1/3-x,1/3+z
2/3-x,1/3-y,1/3-z
2/3+y,1/3-x+y,1/3-z
2/3+x-y,1/3+x,1/3-z
1/3+x,2/3+y,2/3+z
1/3-y,2/3+x-y,2/3+z
1/3-x+y,2/3-x,2/3+z
1/3-x,2/3-y,2/3-z
1/3+y,2/3-x+y,2/3-z
1/3+x-y,2/3+x,2/3-z
loop_
_atom_site_type_symbol
_atom_site_label
_atom_site_fract_x
_atom_site_fract_y
_atom_site_fract_z
Si Si1 0.639222 0.995910 0.399014
Si Si2 0.471379 0.120133 0.422571
Si Si3 0.000000 0.000000 0.397861
Si Si4 0.156346 0.296010 0.009906
Si Si5 0.991722 0.266852 0.808721
Si Si6 0.310070 0.489060 0.200441
Si Si7 0.529246 0.381293 0.122329
Si Si8 0.333334 0.666668 0.934620
O O1 0.737422 0.066969 0.364573
O O2 0.552183 0.980070 0.358064
O O3 0.648158 0.049237 0.458478
O O4 0.609297 0.891345 0.423575
O O5 0.407388 0.163398 0.398090
O O6 0.532805 0.122980 0.368401
O O7 0.503845 0.166835 0.483547
O O8 0.414211 0.006747 0.437775
O O9 0.895423 0.917089 0.419284
O O10 0.000000 0.000000 0.333092
O O11 0.911403 0.295945 0.792245
O O12 0.946157 0.156214 0.796719
O O13 0.221780 0.475234 0.161799
O O14 0.569549 0.326292 0.086768
#
# Coordination Sequence:
#
# PCOD9575185 Si02
#       8
#    18  18   6  18  18  18  18   6
#     4  10  23  43  74  98 144 173 244 290 352 422
#     4  10  23  41  73  96 138 176 238 292 346 418
#     4   9  22  43  57  93 139 187 225 292 356 400
#     4  10  22  43  67 107 128 179 226 304 348 395
#     4  11  22  42  66 105 131 186 232 283 340 441
#     4   9  18  37  67  95 128 175 234 286 344 406
#     4  11  26  46  67 103 136 201 228 284 368 435
#     4  12  30  46  64  97 154 189 228 292 377 436
#
# _framework density 22.582740000000001
#
# number of rings (size 3 to 8) (size 9 to 14) (size 15 to 20)
#    0.000    1.800    1.500    2.400    4.200    3.600 
#    5.400    3.750    0.000    3.300    0.000    0.000 
#    0.000    0.000    0.000    0.000    0.000    0.000 
#
# Total GULP energy -223081.391835 kJ/mol
# GULP energy per Si atom -5577.034796 kJ/mol
# Density = 2.253134 g / cm^3
# Si number density = 22.582740 Si / 1000 Ang^3
#
#
#
# Elastic Constant Matrix: (Units=GPa)
#
#
# Indices 1 2 3 4 5 6 
#
# 1 50.1606 4.1914 27.8398 9.3071 -13.0749 0.0002
# 2 4.1914 50.1602 27.8399 -9.3075 13.0746 0.0000
# 3 27.8398 27.8399 146.0289 0.0006 -0.0005 -0.0004
# 4 9.3071 -9.3075 0.0006 8.1478 -0.0005 13.0739
# 5 -13.0749 13.0746 -0.0005 -0.0005 8.1472 9.3075
# 6 0.0002 0.0000 -0.0004 13.0739 9.3075 22.9849
#
#
#
# Elastic Compliance Matrix: (Units=1/GPa)
#
#
# Indices 1 2 3 4 5 6 
#
# 1 -0.017542 0.040407 -0.004360 0.066221 -0.092971 -0.000019
# 2 0.040407 -0.017544 -0.004358 -0.066227 0.092971 0.000022
# 3 -0.004360 -0.004358 0.008510 0.000003 -0.000001 -0.000001
# 4 0.066221 -0.066227 0.000003 -0.327057 0.000017 0.186024
# 5 -0.092971 0.092971 -0.000001 0.000017 -0.326860 0.132350
# 6 -0.000019 0.000022 -0.000001 0.186024 0.132350 -0.115899
#
#
# Mechanical properties :
#
#
# Convention : Reuss Voigt Hill
#
# Bulk Modulus (GPa) = 27.17215 40.67689 33.92452
# Shear Modulus (GPa) = -5.89969 20.28788 7.19409
#
# Velocity S-wave (km/s) = -1.61807 3.00055 1.78678
# Velocity P-wave (km/s) = 2.92703 5.48232 4.39451
#
# Compressibility (1/GPa) = 0.03680239
#
# Stress axis : x y z
#
# Youngs Moduli (GPa) = -57.00744 -57.00030 117.50887
#
# Poissons Ratio (x) = 2.30320 0.51231
# Poissons Ratio (y) = 2.30349 0.51212
# Poissons Ratio (z) = -0.24854 -0.24842
#
# Static dielectric constant tensor:
#      x y z
#    x 1.824700 0.000000 0.000000 
#    y 0.000000 1.824700 0.000000 
#    z 0.000000 0.000000 1.816470 
# 
# From -- ./inp_files/3479.got.cif
#   From: 2010.05.17/outbox.cif.g08.bks.cpg/sg148_2_cif.got.tgz:3479.got - 2010.05.20 13:50:20.
