data_PCOD9575627
_publ_section_title
;
Structure prediction by ZEFSAII (Michael W. Deem and Ramdas Pophale) SiO2 
 PCOD9575627
Probable space group: P 31 1 2
;
_chemical_formula_sum "Si O2"
_cell_formula_units_Z 24
_cell_length_a 15.860924
_cell_length_b 15.860924
_cell_length_c 6.071398
_cell_angle_alpha 90.000000
_cell_angle_beta 90.000000
_cell_angle_gamma 120.000000
_cell_volume 1322.745532
_symmetry_space_group_name_H-M "P 31 1 2"
_symmetry_group_IT_number 151
_symmetry_cell_setting 'hexagonal'
loop_
_space_group_symop_operation_xyz
x,y,z
-y,x-y,1/3+z
-x+y,-x,2/3+z
-y,-x,2/3-z
-x+y,y,1/3-z
x,x-y,-z
loop_
_atom_site_type_symbol
_atom_site_label
_atom_site_fract_x
_atom_site_fract_y
_atom_site_fract_z
Si Si1 0.622866 0.558579 0.446916
Si Si2 0.087980 0.912021 0.333334
Si Si3 0.166258 0.083129 0.000000
Si Si4 0.500411 0.250206 0.500000
Si Si5 0.578687 0.421314 0.833334
Si Si6 0.043803 0.774755 0.946915
O O1 0.523755 0.476246 0.333334
O O2 0.712134 0.556585 0.320387
O O3 0.614924 0.520972 0.697030
O O4 0.642397 0.666666 0.416664
O O5 0.187636 0.948256 0.469641
O O6 0.007333 0.896955 0.509180
O O7 0.223252 0.045465 0.846285
O O8 0.563624 0.340670 0.657482
O O9 0.142915 0.857086 0.833334
#
# Coordination Sequence:
#
# PCOD9575627 Si02
#       6
#     6   3   3   3   3   6
#     4  10  23  38  57  84 114 157 197 246 292 349
#     4  10  22  37  54  84 116 156 202 234 291 344
#     4  10  22  33  56  82 120 156 196 238 289 344
#     4  10  22  33  56  82 120 156 196 238 289 344
#     4  10  22  37  54  84 116 156 202 234 291 344
#     4  10  23  38  57  84 114 157 197 246 292 349
#
# _framework density 18.144079000000001
#
# number of rings (size 3 to 8) (size 9 to 14) (size 15 to 20)
#    0.000    2.000    0.000    1.500    7.000   26.000 
#    0.000    0.000    0.000    0.000    6.500    0.000 
#    0.000    0.000    0.000    0.000    0.000    0.000 
#
# Total GULP energy -134002.198819 kJ/mol
# GULP energy per Si atom -5583.424951 kJ/mol
# Density = 1.810278 g / cm^3
# Si number density = 18.144079 Si / 1000 Ang^3
#
#
#
# Elastic Constant Matrix: (Units=GPa)
#
#
# Indices 1 2 3 4 5 6 
#
# 1 83.1151 53.4473 33.4236 -0.0002 -0.0011 0.0000
# 2 53.4473 83.1151 33.4236 0.0002 0.0011 0.0000
# 3 33.4236 33.4236 112.6542 0.0000 0.0000 0.0000
# 4 -0.0002 0.0002 0.0000 14.7301 0.0000 0.0011
# 5 -0.0011 0.0011 0.0000 0.0000 14.7301 -0.0002
# 6 0.0000 0.0000 0.0000 0.0011 -0.0002 14.8339
#
#
#
# Elastic Compliance Matrix: (Units=1/GPa)
#
#
# Indices 1 2 3 4 5 6 
#
# 1 0.021137 -0.012570 -0.002542 0.000000 0.000003 0.000000
# 2 -0.012570 0.021137 -0.002542 0.000000 -0.000003 0.000000
# 3 -0.002542 -0.002542 0.010385 0.000000 0.000000 0.000000
# 4 0.000000 0.000000 0.000000 0.067888 0.000000 -0.000005
# 5 0.000003 -0.000003 0.000000 0.000000 0.067888 0.000001
# 6 0.000000 0.000000 0.000000 -0.000005 0.000001 0.067413
#
#
# Mechanical properties :
#
#
# Convention : Reuss Voigt Hill
#
# Bulk Modulus (GPa) = 57.63109 57.71926 57.67517
# Shear Modulus (GPa) = 16.83850 19.43148 18.13499
#
# Velocity S-wave (km/s) = 3.04969 3.27609 3.16492
# Velocity P-wave (km/s) = 6.65077 6.79640 6.72398
#
# Compressibility (1/GPa) = 0.01735175
#
# Stress axis : x y z
#
# Youngs Moduli (GPa) = 47.31110 47.31110 96.29343
#
# Poissons Ratio (x) = 0.59469 0.24475
# Poissons Ratio (y) = 0.59469 0.24475
# Poissons Ratio (z) = 0.12025 0.12025
#
# Static dielectric constant tensor:
#      x y z
#    x 1.626440 0.000000 0.000000 
#    y 0.000000 1.626440 0.000000 
#    z 0.000000 0.000000 1.700300 
# 
# From -- ./inp_files/305.got.cif
#   From: 2010.05.17/outbox.cif.g08.bks.cpg/sg151_1_cif.got.tgz:305.got - 2010.05.20 10:33:20.
