data_PCOD9575582
_publ_section_title
;
Structure prediction by ZEFSAII (Michael W. Deem and Ramdas Pophale) SiO2 
 PCOD9575582
Probable space group: P 31 1 2
;
_chemical_formula_sum "Si O2"
_cell_formula_units_Z 42
_cell_length_a 9.102023
_cell_length_b 9.102023
_cell_length_c 30.588987
_cell_angle_alpha 90.000000
_cell_angle_beta 90.000000
_cell_angle_gamma 120.000000
_cell_volume 2194.681909
_symmetry_space_group_name_H-M "P 31 1 2"
_symmetry_group_IT_number 151
_symmetry_cell_setting 'hexagonal'
loop_
_space_group_symop_operation_xyz
x,y,z
-y,x-y,1/3+z
-x+y,-x,2/3+z
-y,-x,2/3-z
-x+y,y,1/3-z
x,x-y,-z
loop_
_atom_site_type_symbol
_atom_site_label
_atom_site_fract_x
_atom_site_fract_y
_atom_site_fract_z
Si Si1 0.576193 0.662913 0.667734
Si Si2 0.408620 0.204310 0.500000
Si Si3 0.250139 0.102127 0.270885
Si Si4 0.957800 0.042201 0.333334
Si Si5 0.643805 0.756331 0.105329
Si Si6 0.539554 0.454674 0.421024
Si Si7 0.856557 0.550951 0.306355
Si Si8 0.346965 0.700628 0.595819
O O1 0.762569 0.805386 0.680294
O O2 0.583078 0.500230 0.650274
O O3 0.495492 0.721399 0.629002
O O4 0.448862 0.625719 0.708059
O O5 0.295750 0.274862 0.522359
O O6 0.519678 0.341439 0.463218
O O7 0.370189 0.283608 0.248957
O O8 0.348422 0.112832 0.315576
O O9 0.066728 0.051084 0.290908
O O10 0.221741 0.955097 0.237600
O O11 0.680791 0.674447 0.062490
O O12 0.441004 0.679172 0.106133
O O13 0.515591 0.329005 0.380462
O O14 0.396355 0.509410 0.420171
#
# Coordination Sequence:
#
# PCOD9575582 Si02
#       8
#     6   3   6   3   6   6   6   6
#     4  10  21  33  54  97 137 156 191 237 322 389
#     4  10  26  48  62  82 116 178 228 260 312 366
#     4  12  21  38  63  99 127 160 197 264 330 376
#     4  12  22  32  56 102 138 156 186 250 320 394
#     4  10  21  41  66  87 125 164 211 263 307 375
#     4  11  24  40  65  89 128 170 213 257 312 383
#     4  10  20  37  62  96 132 161 193 251 326 389
#     4  10  20  38  60  92 122 167 203 251 307 382
#
# _framework density 19.137170999999999
#
# number of rings (size 3 to 8) (size 9 to 14) (size 15 to 20)
#    0.000    1.429    4.286    1.286    6.000    0.571 
#    0.000    2.857    0.000    0.000    0.000    0.000 
#    0.000    0.000    0.000    0.000    0.000    0.000 
#
# Total GULP energy -234295.746580 kJ/mol
# GULP energy per Si atom -5578.470157 kJ/mol
# Density = 1.909361 g / cm^3
# Si number density = 19.137171 Si / 1000 Ang^3
#
#
#
# Elastic Constant Matrix: (Units=GPa)
#
#
# Indices 1 2 3 4 5 6 
#
# 1 94.0032 64.0274 28.2712 0.0008 14.0417 0.0000
# 2 64.0274 94.0032 28.2712 -0.0008 -14.0417 0.0000
# 3 28.2712 28.2712 69.6911 0.0000 0.0000 0.0000
# 4 0.0008 -0.0008 0.0000 6.5254 0.0000 -14.0417
# 5 14.0417 -14.0417 0.0000 0.0000 6.5254 0.0008
# 6 0.0000 0.0000 0.0000 -14.0417 0.0008 14.9879
#
#
#
# Elastic Compliance Matrix: (Units=1/GPa)
#
#
# Indices 1 2 3 4 5 6 
#
# 1 -0.012716 0.020118 -0.003003 0.000004 0.070655 0.000000
# 2 0.020118 -0.012716 -0.003003 -0.000004 -0.070655 0.000000
# 3 -0.003003 -0.003003 0.016785 0.000000 0.000000 0.000000
# 4 0.000004 -0.000004 0.000000 -0.150832 0.000000 -0.141310
# 5 0.070655 -0.070655 0.000000 0.000000 -0.150832 0.000008
# 6 0.000000 0.000000 0.000000 -0.141310 0.000008 -0.065669
#
#
# Mechanical properties :
#
#
# Convention : Reuss Voigt Hill
#
# Bulk Modulus (GPa) = 51.07638 55.42636 53.25137
# Shear Modulus (GPa) = -12.57297 14.74954 1.08829
#
# Velocity S-wave (km/s) = -2.56597 2.77921 0.75492
# Velocity P-wave (km/s) = 4.23894 6.27090 5.35224
#
# Compressibility (1/GPa) = 0.01957852
#
# Stress axis : x y z
#
# Youngs Moduli (GPa) = -78.64101 -78.64101 59.57577
#
# Poissons Ratio (x) = 1.58212 0.17890
# Poissons Ratio (y) = 1.58212 0.17890
# Poissons Ratio (z) = -0.23615 -0.23615
#
# Static dielectric constant tensor:
#      x y z
#    x 1.741240 0.000000 0.000000 
#    y 0.000000 1.741240 0.000000 
#    z 0.000000 0.000000 3.509040 
# 
# From -- ./inp_files/5084.got.cif
#   From: 2010.05.17/outbox.cif.g08.bks.cpg/sg151_3_cif.got.tgz:5084.got - 2010.05.20 10:33:20.
