data_PCOD9575225
_publ_section_title
;
Structure prediction by ZEFSAII (Michael W. Deem and Ramdas Pophale) SiO2 
 PCOD9575225
Probable space group: R -3
;
_chemical_formula_sum "Si O2"
_cell_formula_units_Z 144
_cell_length_a 29.664295
_cell_length_b 29.664295
_cell_length_c 7.153013
_cell_angle_alpha 90.000000
_cell_angle_beta 90.000000
_cell_angle_gamma 120.000000
_cell_volume 5451.144679
_symmetry_space_group_name_H-M "R -3"
_symmetry_group_IT_number 148
_symmetry_cell_setting 'hexagonal'
loop_
_space_group_symop_operation_xyz
x,y,z
-y,x-y,z
-x+y,-x,z
-x,-y,-z
y,-x+y,-z
x-y,x,-z
2/3+x,1/3+y,1/3+z
2/3-y,1/3+x-y,1/3+z
2/3-x+y,1/3-x,1/3+z
2/3-x,1/3-y,1/3-z
2/3+y,1/3-x+y,1/3-z
2/3+x-y,1/3+x,1/3-z
1/3+x,2/3+y,2/3+z
1/3-y,2/3+x-y,2/3+z
1/3-x+y,2/3-x,2/3+z
1/3-x,2/3-y,2/3-z
1/3+y,2/3-x+y,2/3-z
1/3+x-y,2/3+x,2/3-z
loop_
_atom_site_type_symbol
_atom_site_label
_atom_site_fract_x
_atom_site_fract_y
_atom_site_fract_z
Si Si1 0.024218 0.108393 0.071593
Si Si2 0.562946 0.975721 0.182944
Si Si3 0.348276 0.469090 0.905571
Si Si4 0.056259 0.252814 0.335537
Si Si5 0.530488 0.454192 0.685114
Si Si6 0.689430 0.644078 0.183918
Si Si7 0.111133 0.555037 0.709215
Si Si8 0.830670 0.355166 0.736612
O O1 0.057495 0.168025 0.000309
O O2 0.001105 0.112624 0.276235
O O3 0.067964 0.091220 0.058097
O O4 0.549193 0.927666 0.049240
O O5 0.506990 0.968628 0.227824
O O6 0.544156 0.073744 0.464049
O O7 0.591380 0.981301 0.377195
O O8 0.338799 0.508023 0.045734
O O9 0.314754 0.412811 0.804609
O O10 0.387985 0.509141 0.753280
O O11 0.073459 0.258486 0.550503
O O12 0.098881 0.243902 0.228372
O O13 0.003557 0.199309 0.308700
O O14 0.582734 0.450307 0.725601
O O15 0.643056 0.642199 0.311904
O O16 0.027568 0.425181 0.925595
#
# Coordination Sequence:
#
# PCOD9575225 Si02
#       8
#    18  18  18  18  18  18  18  18
#     4  11  24  47  82 118 155 190 251 324 402 495
#     4  11  25  43  71 104 156 199 263 325 385 445
#     4  11  25  45  75 102 158 210 263 327 385 475
#     4  11  25  43  69 107 146 193 253 329 372 461
#     4  11  23  47  69 103 145 199 251 308 381 459
#     4  12  26  44  71 112 160 216 274 335 393 462
#     4  11  24  45  73 106 144 202 256 306 389 472
#     4  10  24  46  73 106 150 205 252 304 403 477
#
# _framework density 26.416468999999999
#
# number of rings (size 3 to 8) (size 9 to 14) (size 15 to 20)
#    0.000    1.000    5.000    1.250    7.000    2.500 
#    0.000    0.000    0.000    0.750    0.000    0.000 
#    0.000    0.000    0.000    0.000    0.000    0.000 
#
# Total GULP energy -268468.869649 kJ/mol
# GULP energy per Si atom -5593.101451 kJ/mol
# Density = 2.635634 g / cm^3
# Si number density = 26.416469 Si / 1000 Ang^3
#
#
#
# Elastic Constant Matrix: (Units=GPa)
#
#
# Indices 1 2 3 4 5 6 
#
# 1 116.8249 32.9404 35.9566 10.0297 -6.0444 0.0119
# 2 32.9404 116.6698 35.8458 -9.9807 6.1724 0.0036
# 3 35.9566 35.8458 140.6017 0.1216 0.2887 -0.0035
# 4 10.0297 -9.9807 0.1216 43.5994 0.0320 6.1325
# 5 -6.0444 6.1724 0.2887 0.0320 43.6827 9.9989
# 6 0.0119 0.0036 -0.0035 6.1325 9.9989 41.9092
#
#
#
# Elastic Compliance Matrix: (Units=1/GPa)
#
#
# Indices 1 2 3 4 5 6 
#
# 1 0.010253 -0.002645 -0.001949 -0.002960 0.001808 -0.000001
# 2 -0.002645 0.010263 -0.001939 0.002965 -0.001805 -0.000004
# 3 -0.001949 -0.001939 0.008105 -0.000021 -0.000053 0.000017
# 4 -0.002960 0.002965 -0.000021 0.024806 -0.000017 -0.003625
# 5 0.001808 -0.001805 -0.000053 -0.000017 0.024749 -0.005903
# 6 -0.000001 -0.000004 0.000017 -0.003625 -0.005903 0.025800
#
#
# Mechanical properties :
#
#
# Convention : Reuss Voigt Hill
#
# Bulk Modulus (GPa) = 64.28574 64.84244 64.56409
# Shear Modulus (GPa) = 40.90775 43.79515 42.35145
#
# Velocity S-wave (km/s) = 3.93946 4.07612 4.00837
# Velocity P-wave (km/s) = 6.71422 6.83758 6.77618
#
# Compressibility (1/GPa) = 0.01555555
#
# Stress axis : x y z
#
# Youngs Moduli (GPa) = 97.53188 97.43930 123.37851
#
# Poissons Ratio (x) = 0.25772 0.24045
# Poissons Ratio (y) = 0.25796 0.23922
# Poissons Ratio (z) = 0.19008 0.18893
#
# Static dielectric constant tensor:
#      x y z
#    x 2.111120 -0.000040 -0.000260 
#    y -0.000040 2.111130 -0.000070 
#    z -0.000260 -0.000070 2.100040 
# 
# From -- ./inp_files/1115.got.cif
#   From: 2010.05.17/outbox.cif.g08.bks.cpg/sg148_1_cif.got.tgz:1115.got - 2010.05.20 13:50:20.
