data_PCOD9575816
_publ_section_title
;
Structure prediction by ZEFSAII (Michael W. Deem and Ramdas Pophale) SiO2 
 PCOD9575816
Probable space group: P 31 2 1
;
_chemical_formula_sum "Si O2"
_cell_formula_units_Z 33
_cell_length_a 12.147943
_cell_length_b 12.147943
_cell_length_c 14.039429
_cell_angle_alpha 90.000000
_cell_angle_beta 90.000000
_cell_angle_gamma 120.000000
_cell_volume 1794.260794
_symmetry_space_group_name_H-M "P 31 2 1"
_symmetry_group_IT_number 152
_symmetry_cell_setting 'hexagonal'
loop_
_space_group_symop_operation_xyz
x,y,z
-y,x-y,1/3+z
-x+y,-x,2/3+z
x-y,-y,2/3-z
-x,-x+y,1/3-z
y,x,-z
loop_
_atom_site_type_symbol
_atom_site_label
_atom_site_fract_x
_atom_site_fract_y
_atom_site_fract_z
Si Si1 0.000000 0.499993 0.166667
Si Si2 0.319946 0.087412 0.254027
Si Si3 0.456142 0.649044 0.331265
Si Si4 0.500003 0.000004 0.159256
Si Si5 0.807103 0.456140 0.997931
Si Si6 0.087407 0.767463 0.587358
O O1 0.897844 0.397346 0.242156
O O2 0.897844 0.500485 0.091178
O O3 0.427340 0.216622 0.301207
O O4 0.268177 0.134090 0.166668
O O5 0.221164 0.000000 0.333334
O O6 0.395772 0.016648 0.217567
O O7 0.432960 0.552347 0.244829
O O8 0.329722 0.659445 0.333337
O O9 0.572657 0.783384 0.301202
O O10 0.604236 0.983363 0.217565
O O11 0.432963 0.880619 0.088507
O O12 0.000000 0.778837 0.666667
#
# Coordination Sequence:
#
# PCOD9575816 Si02
#       6
#     3   6   6   6   6   6
#     4  10  24  36  50  88 116 148 198 216 310 354
#     4  10  20  33  55  83 115 150 198 233 288 357
#     4  10  21  34  55  79 122 153 178 241 287 346
#     4   9  19  33  49  86 108 148 195 215 285 363
#     4  10  21  34  55  79 122 153 178 241 287 346
#     4  10  20  33  55  83 115 150 198 233 288 357
#
# _framework density 18.391974999999999
#
# number of rings (size 3 to 8) (size 9 to 14) (size 15 to 20)
#    0.000    2.182    0.000    2.727   12.727    0.000 
#    0.000    0.000    0.000    0.000    0.000    3.818 
#    0.000    0.000    0.000    0.000    0.000    0.000 
#
# Total GULP energy -183772.631486 kJ/mol
# GULP energy per Si atom -5568.867621 kJ/mol
# Density = 1.835011 g / cm^3
# Si number density = 18.391975 Si / 1000 Ang^3
#
#
#
# Elastic Constant Matrix: (Units=GPa)
#
#
# Indices 1 2 3 4 5 6 
#
# 1 66.3170 28.2491 50.8003 0.0016 0.0000 0.0000
# 2 28.2491 66.3170 50.8003 -0.0016 0.0000 0.0000
# 3 50.8003 50.8003 133.4611 0.0000 0.0000 0.0000
# 4 0.0016 -0.0016 0.0000 -2.4677 0.0000 0.0000
# 5 0.0000 0.0000 0.0000 0.0000 -2.4677 0.0016
# 6 0.0000 0.0000 0.0000 0.0000 0.0016 19.0340
#
#
#
# Elastic Compliance Matrix: (Units=1/GPa)
#
#
# Indices 1 2 3 4 5 6 
#
# 1 0.022080 -0.004189 -0.006810 0.000017 0.000000 0.000000
# 2 -0.004189 0.022080 -0.006810 -0.000017 0.000000 0.000000
# 3 -0.006810 -0.006810 0.012677 0.000000 0.000000 0.000000
# 4 0.000017 -0.000017 0.000000 -0.405243 0.000000 0.000000
# 5 0.000000 0.000000 0.000000 0.000000 -0.405243 0.000035
# 6 0.000000 0.000000 0.000000 0.000000 0.000035 0.052538
#
#
# Mechanical properties :
#
#
# Convention : Reuss Voigt Hill
#
# Bulk Modulus (GPa) = 47.12675 58.42161 52.77418
# Shear Modulus (GPa) = -7.59394 11.90277 2.15441
#
# Velocity S-wave (km/s) = -2.03418 2.54672 1.08348
# Velocity P-wave (km/s) = 4.49021 6.36250 5.50651
#
# Compressibility (1/GPa) = 0.02121937
#
# Stress axis : x y z
#
# Youngs Moduli (GPa) = 45.28975 45.28975 78.88197
#
# Poissons Ratio (x) = 0.18971 0.53719
# Poissons Ratio (y) = 0.18971 0.53719
# Poissons Ratio (z) = 0.30843 0.30843
#
# Static dielectric constant tensor:
#      x y z
#    x 1.631210 0.000000 0.000000 
#    y 0.000000 1.631210 0.000000 
#    z 0.000000 0.000000 1.701510 
# 
# From -- ./inp_files/2011.got.cif
#   From: 2010.05.17/outbox.cif.g08.bks.cpg/sg152_2_cif.got.tgz:2011.got - 2010.05.20 10:36:06.
