data_PCOD9575200
_publ_section_title
;
Structure prediction by ZEFSAII (Michael W. Deem and Ramdas Pophale) SiO2 
 PCOD9575200
Probable space group: R -3
;
_chemical_formula_sum "Si O2"
_cell_formula_units_Z 72
_cell_length_a 24.439180
_cell_length_b 24.439180
_cell_length_c 7.079785
_cell_angle_alpha 90.000000
_cell_angle_beta 90.000000
_cell_angle_gamma 120.000000
_cell_volume 3662.047397
_symmetry_space_group_name_H-M "R -3"
_symmetry_group_IT_number 148
_symmetry_cell_setting 'hexagonal'
loop_
_space_group_symop_operation_xyz
x,y,z
-y,x-y,z
-x+y,-x,z
-x,-y,-z
y,-x+y,-z
x-y,x,-z
2/3+x,1/3+y,1/3+z
2/3-y,1/3+x-y,1/3+z
2/3-x+y,1/3-x,1/3+z
2/3-x,1/3-y,1/3-z
2/3+y,1/3-x+y,1/3-z
2/3+x-y,1/3+x,1/3-z
1/3+x,2/3+y,2/3+z
1/3-y,2/3+x-y,2/3+z
1/3-x+y,2/3-x,2/3+z
1/3-x,2/3-y,2/3-z
1/3+y,2/3-x+y,2/3-z
1/3+x-y,2/3+x,2/3-z
loop_
_atom_site_type_symbol
_atom_site_label
_atom_site_fract_x
_atom_site_fract_y
_atom_site_fract_z
Si Si1 0.417586 0.438712 0.878736
Si Si2 0.200517 0.946094 0.770121
Si Si3 0.581056 0.831904 0.469729
Si Si4 0.218338 0.693449 0.182587
O O1 0.449936 0.432098 0.688554
O O2 0.343646 0.410523 0.863943
O O3 0.448074 0.512751 0.925270
O O4 0.436899 0.405076 0.040303
O O5 0.154689 0.961522 0.645689
O O6 0.170643 0.920884 0.973325
O O7 0.513527 0.810770 0.377671
O O8 0.291218 0.747738 0.167852
#
# Coordination Sequence:
#
# PCOD9575200 Si02
#       4
#    18  18  18  18
#     4  10  23  41  61  96 125 162 204 256 309 379
#     4  11  24  39  68  93 127 166 207 259 318 377
#     4  10  23  43  63  89 129 161 207 253 318 374
#     4  11  24  43  65  93 126 168 217 266 313 370
#
# _framework density 19.661133
#
# number of rings (size 3 to 8) (size 9 to 14) (size 15 to 20)
#    0.000    1.500    2.500    1.000    7.000    2.000 
#    0.000    0.000    0.000    3.000    0.000    0.000 
#    0.000    0.000    0.000    0.000    0.000    0.000 
#
# Total GULP energy -134098.496729 kJ/mol
# GULP energy per Si atom -5587.437364 kJ/mol
# Density = 1.961638 g / cm^3
# Si number density = 19.661133 Si / 1000 Ang^3
#
#
#
# Elastic Constant Matrix: (Units=GPa)
#
#
# Indices 1 2 3 4 5 6 
#
# 1 78.3729 38.8918 15.7863 5.3993 -6.2690 -0.0002
# 2 38.8918 78.3000 15.7498 -5.3647 6.2658 -0.0120
# 3 15.7863 15.7498 114.0726 0.0041 -0.0433 0.0593
# 4 5.3993 -5.3647 0.0041 10.1829 0.0016 6.2802
# 5 -6.2690 6.2658 -0.0433 0.0016 10.1788 5.4091
# 6 -0.0002 -0.0120 0.0593 6.2802 5.4091 19.6831
#
#
#
# Elastic Compliance Matrix: (Units=1/GPa)
#
#
# Indices 1 2 3 4 5 6 
#
# 1 0.023628 -0.014775 -0.001220 -0.020296 0.023662 -0.000032
# 2 -0.014775 0.023641 -0.001229 0.020251 -0.023698 0.000069
# 3 -0.001220 -0.001229 0.009105 0.000032 0.000075 -0.000059
# 4 -0.020296 0.020251 0.000032 0.149000 0.000314 -0.047615
# 5 0.023662 -0.023698 0.000075 0.000314 0.149264 -0.041134
# 6 -0.000032 0.000069 -0.000059 -0.047615 -0.041134 0.077302
#
#
# Mechanical properties :
#
#
# Convention : Reuss Voigt Hill
#
# Bulk Modulus (GPa) = 45.60820 45.73347 45.67084
# Shear Modulus (GPa) = 10.55527 21.36345 15.95936
#
# Velocity S-wave (km/s) = 2.31954 3.29991 2.85216
# Velocity P-wave (km/s) = 5.51554 6.15066 5.84173
#
# Compressibility (1/GPa) = 0.02192588
#
# Stress axis : x y z
#
# Youngs Moduli (GPa) = 42.32250 42.29913 109.83004
#
# Poissons Ratio (x) = 0.62496 0.13401
# Poissons Ratio (y) = 0.62531 0.13500
# Poissons Ratio (z) = 0.05164 0.05199
#
# Static dielectric constant tensor:
#      x y z
#    x 1.677910 0.000010 -0.000030 
#    y 0.000010 1.677910 0.000010 
#    z -0.000030 0.000010 1.674840 
# 
# From -- ./inp_files/375.got.cif
#   From: 2010.05.17/outbox.cif.g08.bks.cpg/sg148_1_cif.got.tgz:375.got - 2010.05.20 13:50:20.
