data_PCOD9575234
_publ_section_title
;
Structure prediction by ZEFSAII (Michael W. Deem and Ramdas Pophale) SiO2 
 PCOD9575234
Probable space group: R -3
;
_chemical_formula_sum "Si O2"
_cell_formula_units_Z 54
_cell_length_a 14.277860
_cell_length_b 14.277860
_cell_length_c 12.442649
_cell_angle_alpha 90.000000
_cell_angle_beta 90.000000
_cell_angle_gamma 120.000000
_cell_volume 2196.694791
_symmetry_space_group_name_H-M "R -3"
_symmetry_group_IT_number 148
_symmetry_cell_setting 'hexagonal'
loop_
_space_group_symop_operation_xyz
x,y,z
-y,x-y,z
-x+y,-x,z
-x,-y,-z
y,-x+y,-z
x-y,x,-z
2/3+x,1/3+y,1/3+z
2/3-y,1/3+x-y,1/3+z
2/3-x+y,1/3-x,1/3+z
2/3-x,1/3-y,1/3-z
2/3+y,1/3-x+y,1/3-z
2/3+x-y,1/3+x,1/3-z
1/3+x,2/3+y,2/3+z
1/3-y,2/3+x-y,2/3+z
1/3-x+y,2/3-x,2/3+z
1/3-x,2/3-y,2/3-z
1/3+y,2/3-x+y,2/3-z
1/3+x-y,2/3+x,2/3-z
loop_
_atom_site_type_symbol
_atom_site_label
_atom_site_fract_x
_atom_site_fract_y
_atom_site_fract_z
Si Si1 0.117112 0.450445 0.916667
Si Si2 0.213595 0.075179 0.552172
Si Si3 0.453071 0.194919 0.281162
O O1 0.206938 0.472346 0.826609
O O2 0.094832 0.333674 0.957940
O O3 0.000339 0.428162 0.875395
O O4 0.139014 0.540272 0.006724
O O5 0.185504 0.133790 0.457851
O O6 0.481163 0.281621 0.375482
#
# Coordination Sequence:
#
# PCOD9575234 Si02
#       3
#    18  18  18
#     4  10  26  48  80 116 168 208 266 340 410 466
#     4  11  25  48  77 118 157 212 267 328 403 485
#     4  11  25  48  77 118 157 212 267 328 403 485
#
# _framework density 24.582387000000001
#
# number of rings (size 3 to 8) (size 9 to 14) (size 15 to 20)
#    0.000    1.333    0.000    2.667    9.333    2.667 
#    0.000    0.000    0.000    0.000    0.000    0.000 
#    0.000    0.000    0.000    0.000    0.000    0.000 
#
# Total GULP energy -100730.386237 kJ/mol
# GULP energy per Si atom -5596.132569 kJ/mol
# Density = 2.452644 g / cm^3
# Si number density = 24.582387 Si / 1000 Ang^3
#
#
#
# Elastic Constant Matrix: (Units=GPa)
#
#
# Indices 1 2 3 4 5 6 
#
# 1 208.5550 90.7810 88.2525 -9.2532 -0.0009 0.0000
# 2 90.7810 208.5550 88.2525 9.2532 0.0009 0.0000
# 3 88.2525 88.2525 105.3732 0.0000 0.0000 0.0000
# 4 -9.2532 9.2532 0.0000 45.7409 0.0000 0.0009
# 5 -0.0009 0.0009 0.0000 0.0000 45.7409 -9.2532
# 6 0.0000 0.0000 0.0000 0.0009 -9.2532 58.8870
#
#
#
# Elastic Compliance Matrix: (Units=1/GPa)
#
#
# Indices 1 2 3 4 5 6 
#
# 1 0.007685 -0.001085 -0.005528 0.001774 0.000000 0.000000
# 2 -0.001085 0.007685 -0.005528 -0.001774 0.000000 0.000000
# 3 -0.005528 -0.005528 0.018750 0.000000 0.000000 0.000000
# 4 0.001774 -0.001774 0.000000 0.022580 0.000000 0.000000
# 5 0.000000 0.000000 0.000000 0.000000 0.022580 0.003548
# 6 0.000000 0.000000 0.000000 0.000000 0.003548 0.017539
#
#
# Mechanical properties :
#
#
# Convention : Reuss Voigt Hill
#
# Bulk Modulus (GPa) = 101.64096 117.45059 109.54577
# Shear Modulus (GPa) = 40.19968 47.08691 43.64329
#
# Velocity S-wave (km/s) = 4.04828 4.38136 4.21811
# Velocity P-wave (km/s) = 7.95539 8.57188 8.26938
#
# Compressibility (1/GPa) = 0.00983855
#
# Stress axis : x y z
#
# Youngs Moduli (GPa) = 130.12460 130.12460 53.33462
#
# Poissons Ratio (x) = 0.14114 0.29483
# Poissons Ratio (y) = 0.14114 0.29483
# Poissons Ratio (z) = 0.71931 0.71931
#
# Static dielectric constant tensor:
#      x y z
#    x 1.893840 0.000000 0.000000 
#    y 0.000000 1.893840 0.000000 
#    z 0.000000 0.000000 2.099760 
# 
# From -- ./inp_files/1779.got.cif
#   From: 2010.05.17/outbox.cif.g08.bks.cpg/sg148_1_cif.got.tgz:1779.got - 2010.05.20 13:50:20.
