data_PCOD9575133
_publ_section_title
;
Structure prediction by ZEFSAII (Michael W. Deem and Ramdas Pophale) SiO2 
 PCOD9575133
Probable space group: R -3
;
_chemical_formula_sum "Si O2"
_cell_formula_units_Z 72
_cell_length_a 24.723158
_cell_length_b 24.723158
_cell_length_c 5.531447
_cell_angle_alpha 90.000000
_cell_angle_beta 90.000000
_cell_angle_gamma 120.000000
_cell_volume 2928.041824
_symmetry_space_group_name_H-M "R -3"
_symmetry_group_IT_number 148
_symmetry_cell_setting 'hexagonal'
loop_
_space_group_symop_operation_xyz
x,y,z
-y,x-y,z
-x+y,-x,z
-x,-y,-z
y,-x+y,-z
x-y,x,-z
2/3+x,1/3+y,1/3+z
2/3-y,1/3+x-y,1/3+z
2/3-x+y,1/3-x,1/3+z
2/3-x,1/3-y,1/3-z
2/3+y,1/3-x+y,1/3-z
2/3+x-y,1/3+x,1/3-z
1/3+x,2/3+y,2/3+z
1/3-y,2/3+x-y,2/3+z
1/3-x+y,2/3-x,2/3+z
1/3-x,2/3-y,2/3-z
1/3+y,2/3-x+y,2/3-z
1/3+x-y,2/3+x,2/3-z
loop_
_atom_site_type_symbol
_atom_site_label
_atom_site_fract_x
_atom_site_fract_y
_atom_site_fract_z
Si Si1 0.375285 0.482537 0.901897
Si Si2 0.940668 0.324694 0.460337
Si Si3 0.481465 0.602669 0.072162
Si Si4 0.766504 0.449912 0.245803
O O1 0.371354 0.424676 0.758077
O O2 0.430944 0.529119 0.079899
O O3 0.381872 0.529380 0.685609
O O4 0.307550 0.456215 0.025045
O O5 0.869575 0.282946 0.547163
O O6 0.982142 0.365423 0.683539
O O7 0.447797 0.640495 0.973220
O O8 0.765709 0.403081 0.451488
#
# Coordination Sequence:
#
# PCOD9575133 Si02
#       4
#    18  18  18  18
#     4  10  21  38  62  91 123 159 199 245 299 359
#     4  11  24  44  64  86 120 158 204 257 304 356
#     4  10  21  38  62  91 123 159 199 245 299 359
#     4   9  17  30  51  82 121 162 201 241 288 348
#
# _framework density 24.589811000000001
#
# number of rings (size 3 to 8) (size 9 to 14) (size 15 to 20)
#    0.000    2.000    0.000    3.250    0.000    3.000 
#    0.000    8.750    0.000    8.000    0.000    0.000 
#    0.000    0.000    0.000    0.000    0.000    0.000 
#
# Total GULP energy -134046.238588 kJ/mol
# GULP energy per Si atom -5585.259941 kJ/mol
# Density = 2.453384 g / cm^3
# Si number density = 24.589811 Si / 1000 Ang^3
#
#
#
# Elastic Constant Matrix: (Units=GPa)
#
#
# Indices 1 2 3 4 5 6 
#
# 1 85.2618 27.7055 7.5428 -4.2269 -0.5620 0.0334
# 2 27.7055 85.6328 7.7967 4.4116 0.0786 0.0194
# 3 7.5428 7.7967 64.0534 0.1102 -1.1605 0.1343
# 4 -4.2269 4.4116 0.1102 31.9410 0.0201 0.1829
# 5 -0.5620 0.0786 -1.1605 0.0201 31.2885 -4.3322
# 6 0.0334 0.0194 0.1343 0.1829 -4.3322 28.8749
#
#
#
# Elastic Compliance Matrix: (Units=1/GPa)
#
#
# Indices 1 2 3 4 5 6 
#
# 1 0.013352 -0.004347 -0.001043 0.002371 0.000212 0.000009
# 2 -0.004347 0.013309 -0.001107 -0.002410 -0.000152 -0.000006
# 3 -0.001043 -0.001107 0.015880 -0.000040 0.000575 0.000015
# 4 0.002371 -0.002410 -0.000040 0.031956 -0.000002 -0.000204
# 5 0.000212 -0.000152 0.000575 -0.000002 0.032664 0.004898
# 6 0.000009 -0.000006 0.000015 -0.000204 0.004898 0.035368
#
#
# Mechanical properties :
#
#
# Convention : Reuss Voigt Hill
#
# Bulk Modulus (GPa) = 33.84461 35.67090 34.75776
# Shear Modulus (GPa) = 30.23452 31.21442 30.72447
#
# Velocity S-wave (km/s) = 3.51030 3.56674 3.53863
# Velocity P-wave (km/s) = 5.49756 5.61249 5.55532
#
# Compressibility (1/GPa) = 0.02954680
#
# Stress axis : x y z
#
# Youngs Moduli (GPa) = 74.89242 75.13510 62.97226
#
# Poissons Ratio (x) = 0.32664 0.06571
# Poissons Ratio (y) = 0.32559 0.06969
# Poissons Ratio (z) = 0.07815 0.08315
#
# Static dielectric constant tensor:
#      x y z
#    x 1.999750 -0.000270 -0.000240 
#    y -0.000270 2.000090 -0.000010 
#    z -0.000240 -0.000010 2.023090 
# 
# From -- ./inp_files/371.got.cif
#   From: 2010.05.17/outbox.cif.g08.bks.cpg/sg148_1_cif.got.tgz:371.got - 2010.05.20 13:50:20.
