data_PCOD9575661
_publ_section_title
;
Structure prediction by ZEFSAII (Michael W. Deem and Ramdas Pophale) SiO2 
 PCOD9575661
Probable space group: P 31 1 2
;
_chemical_formula_sum "Si O2"
_cell_formula_units_Z 24
_cell_length_a 9.365425
_cell_length_b 9.365425
_cell_length_c 11.929175
_cell_angle_alpha 90.000000
_cell_angle_beta 90.000000
_cell_angle_gamma 120.000000
_cell_volume 906.141502
_symmetry_space_group_name_H-M "P 31 1 2"
_symmetry_group_IT_number 151
_symmetry_cell_setting 'hexagonal'
loop_
_space_group_symop_operation_xyz
x,y,z
-y,x-y,1/3+z
-x+y,-x,2/3+z
-y,-x,2/3-z
-x+y,y,1/3-z
x,x-y,-z
loop_
_atom_site_type_symbol
_atom_site_label
_atom_site_fract_x
_atom_site_fract_y
_atom_site_fract_z
Si Si1 0.433246 0.494032 0.076192
Si Si2 0.778262 0.547779 0.325895
Si Si3 0.283320 0.147370 0.132569
Si Si4 0.149646 0.074823 0.500000
Si Si5 0.392143 0.607858 0.833334
O O1 0.308033 0.330977 0.144671
O O2 0.863266 0.982309 0.164427
O O3 0.458999 0.660101 0.133440
O O4 0.390891 0.512404 0.946735
O O5 0.587407 0.412594 0.333334
O O6 0.845599 0.580791 0.451887
O O7 0.885237 0.486624 0.258633
O O8 0.836830 0.726626 0.270703
O O9 0.302911 0.151456 0.000000
#
# Coordination Sequence:
#
# PCOD9575661 Si02
#       5
#     6   6   6   3   3
#     4  11  25  48  78 119 168 225 283 357 425 519
#     4  12  28  54  80 121 172 229 284 352 439 514
#     4  12  26  47  81 118 164 215 286 352 422 503
#     4  12  29  49  82 122 166 218 278 357 421 516
#     4  10  25  45  78 118 172 226 284 359 437 492
#
# _framework density 26.485931000000001
#
# number of rings (size 3 to 8) (size 9 to 14) (size 15 to 20)
#    0.000    0.500    0.000    6.750   10.500    3.000 
#   13.500    0.000    0.000    0.000    0.000    0.000 
#    0.000    0.000    0.000    0.000    0.000    0.000 
#
# Total GULP energy -134261.699818 kJ/mol
# GULP energy per Si atom -5594.237492 kJ/mol
# Density = 2.642565 g / cm^3
# Si number density = 26.485931 Si / 1000 Ang^3
#
#
#
# Elastic Constant Matrix: (Units=GPa)
#
#
# Indices 1 2 3 4 5 6 
#
# 1 162.4353 63.2115 50.9547 -0.0001 -6.1469 0.0000
# 2 63.2115 162.4353 50.9547 0.0001 6.1469 0.0000
# 3 50.9547 50.9547 119.8686 0.0000 0.0000 0.0000
# 4 -0.0001 0.0001 0.0000 40.5245 0.0000 6.1469
# 5 -6.1469 6.1469 0.0000 0.0000 40.5245 -0.0001
# 6 0.0000 0.0000 0.0000 6.1469 -0.0001 49.6119
#
#
#
# Elastic Compliance Matrix: (Units=1/GPa)
#
#
# Indices 1 2 3 4 5 6 
#
# 1 0.007878 -0.002393 -0.002331 0.000000 0.001558 0.000000
# 2 -0.002393 0.007878 -0.002331 0.000000 -0.001558 0.000000
# 3 -0.002331 -0.002331 0.010325 0.000000 0.000000 0.000000
# 4 0.000000 0.000000 0.000000 0.025149 0.000000 -0.003116
# 5 0.001558 -0.001558 0.000000 0.000000 0.025149 0.000000
# 6 0.000000 0.000000 0.000000 -0.003116 0.000000 0.020543
#
#
# Mechanical properties :
#
#
# Convention : Reuss Voigt Hill
#
# Bulk Modulus (GPa) = 83.55550 86.10903 84.83226
# Shear Modulus (GPa) = 43.46954 44.77339 44.12147
#
# Velocity S-wave (km/s) = 4.05561 4.11598 4.08590
# Velocity P-wave (km/s) = 7.31753 7.42766 7.37280
#
# Compressibility (1/GPa) = 0.01196809
#
# Stress axis : x y z
#
# Youngs Moduli (GPa) = 126.93632 126.93632 96.85584
#
# Poissons Ratio (x) = 0.30380 0.22582
# Poissons Ratio (y) = 0.30380 0.22582
# Poissons Ratio (z) = 0.29595 0.29595
#
# Static dielectric constant tensor:
#      x y z
#    x 2.092870 0.000000 0.000000 
#    y 0.000000 2.092870 0.000000 
#    z 0.000000 0.000000 2.079310 
# 
# From -- ./inp_files/2409.got.cif
#   From: 2010.05.17/outbox.cif.g08.bks.cpg/sg151_2_cif.got.tgz:2409.got - 2010.05.20 10:33:20.
