data_PCOD9575650
_publ_section_title
;
Structure prediction by ZEFSAII (Michael W. Deem and Ramdas Pophale) SiO2 
 PCOD9575650
Probable space group: P 31 1 2
;
_chemical_formula_sum "Si O2"
_cell_formula_units_Z 18
_cell_length_a 7.341602
_cell_length_b 7.341602
_cell_length_c 20.747862
_cell_angle_alpha 90.000000
_cell_angle_beta 90.000000
_cell_angle_gamma 120.000000
_cell_volume 968.468850
_symmetry_space_group_name_H-M "P 31 1 2"
_symmetry_group_IT_number 151
_symmetry_cell_setting 'hexagonal'
loop_
_space_group_symop_operation_xyz
x,y,z
-y,x-y,1/3+z
-x+y,-x,2/3+z
-y,-x,2/3-z
-x+y,y,1/3-z
x,x-y,-z
loop_
_atom_site_type_symbol
_atom_site_label
_atom_site_fract_x
_atom_site_fract_y
_atom_site_fract_z
Si Si1 0.706067 0.717203 0.111222
Si Si2 0.002357 0.997644 0.333334
Si Si3 0.845273 0.592354 0.735833
Si Si4 0.479008 0.520993 0.833334
O O1 0.843242 0.807676 0.046170
O O2 0.530739 0.477102 0.101297
O O3 0.869855 0.739709 0.166667
O O4 0.575871 0.832773 0.129710
O O5 0.824969 0.989517 0.382632
O O6 0.746323 0.492645 0.666667
O O7 0.660009 0.567163 0.781684
#
# Coordination Sequence:
#
# PCOD9575650 Si02
#       4
#     6   3   6   3
#     4  12  23  43  68  94 133 176 214 276 330 384
#     4  10  24  44  64  96 136 170 216 270 330 390
#     4  10  23  45  63  98 131 171 219 273 322 394
#     4  12  24  42  68 100 128 172 232 260 336 402
#
# _framework density 18.586041000000002
#
# number of rings (size 3 to 8) (size 9 to 14) (size 15 to 20)
#    1.000    0.000    5.000    2.000    0.000    2.667 
#    6.000    0.000    0.000    0.000    0.000    0.000 
#    0.000    0.000    0.000    0.000    0.000    0.000 
#
# Total GULP energy -100249.739892 kJ/mol
# GULP energy per Si atom -5569.429994 kJ/mol
# Density = 1.854374 g / cm^3
# Si number density = 18.586041 Si / 1000 Ang^3
#
#
#
# Elastic Constant Matrix: (Units=GPa)
#
#
# Indices 1 2 3 4 5 6 
#
# 1 108.6710 83.0963 33.0759 0.0009 -1.4617 0.0000
# 2 83.0963 108.6710 33.0759 -0.0009 1.4617 0.0000
# 3 33.0759 33.0759 56.7373 0.0000 0.0000 0.0000
# 4 0.0009 -0.0009 0.0000 10.6175 0.0000 1.4617
# 5 -1.4617 1.4617 0.0000 0.0000 10.6175 0.0009
# 6 0.0000 0.0000 0.0000 1.4617 0.0009 12.7874
#
#
#
# Elastic Compliance Matrix: (Units=1/GPa)
#
#
# Indices 1 2 3 4 5 6 
#
# 1 0.023127 -0.016599 -0.003805 -0.000003 0.005469 0.000000
# 2 -0.016599 0.023127 -0.003805 0.000003 -0.005469 0.000000
# 3 -0.003805 -0.003805 0.022062 0.000000 0.000000 0.000000
# 4 -0.000003 0.000003 0.000000 0.095690 0.000000 -0.010938
# 5 0.005469 -0.005469 0.000000 0.000000 0.095690 -0.000006
# 6 0.000000 0.000000 0.000000 -0.010938 -0.000006 0.079452
#
#
# Mechanical properties :
#
#
# Convention : Reuss Voigt Hill
#
# Bulk Modulus (GPa) = 50.26258 63.61949 56.94103
# Shear Modulus (GPa) = 12.68397 15.12658 13.90528
#
# Velocity S-wave (km/s) = 2.61520 2.85593 2.73821
# Velocity P-wave (km/s) = 6.01838 6.72154 6.37966
#
# Compressibility (1/GPa) = 0.01989552
#
# Stress axis : x y z
#
# Youngs Moduli (GPa) = 43.24000 43.24000 45.32751
#
# Poissons Ratio (x) = 0.71776 0.17248
# Poissons Ratio (y) = 0.71776 0.17248
# Poissons Ratio (z) = 0.16454 0.16454
#
# Static dielectric constant tensor:
#      x y z
#    x 1.646450 0.000000 0.000000 
#    y 0.000000 1.646450 0.000000 
#    z 0.000000 0.000000 1.645490 
# 
# From -- ./inp_files/4445.got.cif
#   From: 2010.05.17/outbox.cif.g08.bks.cpg/sg151_3_cif.got.tgz:4445.got - 2010.05.20 10:33:20.
