data_PCOD9575954
_publ_section_title
;
Structure prediction by ZEFSAII (Michael W. Deem and Ramdas Pophale) SiO2 
 PCOD9575954
Probable space group: P 31 2 1
;
_chemical_formula_sum "Si O2"
_cell_formula_units_Z 30
_cell_length_a 11.527894
_cell_length_b 11.527894
_cell_length_c 13.403950
_cell_angle_alpha 90.000000
_cell_angle_beta 90.000000
_cell_angle_gamma 120.000000
_cell_volume 1542.635707
_symmetry_space_group_name_H-M "P 31 2 1"
_symmetry_group_IT_number 152
_symmetry_cell_setting 'hexagonal'
loop_
_space_group_symop_operation_xyz
x,y,z
-y,x-y,1/3+z
-x+y,-x,2/3+z
x-y,-y,2/3-z
-x,-x+y,1/3-z
y,x,-z
loop_
_atom_site_type_symbol
_atom_site_label
_atom_site_fract_x
_atom_site_fract_y
_atom_site_fract_z
Si Si1 0.000000 0.548885 0.666667
Si Si2 0.754992 0.039570 0.502639
Si Si3 0.701729 0.617908 0.703081
Si Si4 0.595348 0.137113 0.610279
Si Si5 0.635752 0.358773 0.073611
Si Si6 0.211856 0.000000 0.833334
O O1 0.018512 0.646523 0.759299
O O2 0.867869 0.410409 0.690080
O O3 0.868251 0.172744 0.445944
O O4 0.693005 0.075886 0.597007
O O5 0.798914 0.930977 0.521245
O O6 0.559136 0.591448 0.740770
O O7 0.685859 0.470989 0.696354
O O8 0.733079 0.694661 0.597930
O O9 0.642022 0.248387 0.523314
O O10 0.618593 0.213925 0.713503
#
# Coordination Sequence:
#
# PCOD9575954 Si02
#       6
#     3   6   6   6   6   3
#     4   8  16  36  56  80 108 150 206 220 290 364
#     4  10  21  39  59  87 116 163 197 242 304 365
#     4  10  23  38  62  91 117 160 206 250 307 360
#     4  10  24  38  63  89 124 153 205 253 310 356
#     4  10  22  38  62  84 123 155 203 245 306 360
#     4  12  20  38  66  84 124 156 214 248 292 370
#
# _framework density 19.447236
#
# number of rings (size 3 to 8) (size 9 to 14) (size 15 to 20)
#    0.000    2.400    4.000    0.000   16.800    0.000 
#    0.000    4.000    0.000    0.000    0.000    0.000 
#    0.000    0.000    0.000    0.000    0.000    0.000 
#
# Total GULP energy -167261.025735 kJ/mol
# GULP energy per Si atom -5575.367524 kJ/mol
# Density = 1.940297 g / cm^3
# Si number density = 19.447236 Si / 1000 Ang^3
#
#
#
# Elastic Constant Matrix: (Units=GPa)
#
#
# Indices 1 2 3 4 5 6 
#
# 1 88.6888 40.4829 30.7420 -11.4245 0.0000 0.0000
# 2 40.4829 88.6888 30.7420 11.4245 0.0000 0.0000
# 3 30.7420 30.7420 36.3361 0.0000 0.0000 0.0000
# 4 -11.4245 11.4245 0.0000 18.7233 0.0000 0.0000
# 5 0.0000 0.0000 0.0000 0.0000 18.7233 -11.4245
# 6 0.0000 0.0000 0.0000 0.0000 -11.4245 24.1030
#
#
#
# Elastic Compliance Matrix: (Units=1/GPa)
#
#
# Indices 1 2 3 4 5 6 
#
# 1 0.021073 -0.008112 -0.010966 0.017808 0.000000 0.000000
# 2 -0.008112 0.021073 -0.010966 -0.017808 0.000000 0.000000
# 3 -0.010966 -0.010966 0.046076 0.000000 0.000000 0.000000
# 4 0.017808 -0.017808 0.000000 0.075141 0.000000 0.000000
# 5 0.000000 0.000000 0.000000 0.000000 0.075141 0.035616
# 6 0.000000 0.000000 0.000000 0.000000 0.035616 0.058370
#
#
# Mechanical properties :
#
#
# Convention : Reuss Voigt Hill
#
# Bulk Modulus (GPa) = 35.54258 46.40526 40.97392
# Shear Modulus (GPa) = 13.64855 19.75972 16.70413
#
# Velocity S-wave (km/s) = 2.65207 3.19104 2.93396
# Velocity P-wave (km/s) = 5.26252 6.12298 5.70898
#
# Compressibility (1/GPa) = 0.02813527
#
# Stress axis : x y z
#
# Youngs Moduli (GPa) = 47.45387 47.45387 21.70334
#
# Poissons Ratio (x) = 0.38494 0.23799
# Poissons Ratio (y) = 0.38494 0.23799
# Poissons Ratio (z) = 0.52037 0.52037
#
# Static dielectric constant tensor:
#      x y z
#    x 1.693460 0.000000 0.000000 
#    y 0.000000 1.693460 0.000000 
#    z 0.000000 0.000000 1.723330 
# 
# From -- ./inp_files/1981.got.cif
#   From: 2010.05.17/outbox.cif.g08.bks.cpg/sg152_1_cif.got.tgz:1981.got - 2010.05.20 10:36:06.
