data_PCOD9575937
_publ_section_title
;
Structure prediction by ZEFSAII (Michael W. Deem and Ramdas Pophale) SiO2 
 PCOD9575937
Probable space group: P 31 2 1
;
_chemical_formula_sum "Si O2"
_cell_formula_units_Z 42
_cell_length_a 8.259214
_cell_length_b 8.259214
_cell_length_c 33.679833
_cell_angle_alpha 90.000000
_cell_angle_beta 90.000000
_cell_angle_gamma 120.000000
_cell_volume 1989.656015
_symmetry_space_group_name_H-M "P 31 2 1"
_symmetry_group_IT_number 152
_symmetry_cell_setting 'hexagonal'
loop_
_space_group_symop_operation_xyz
x,y,z
-y,x-y,1/3+z
-x+y,-x,2/3+z
x-y,-y,2/3-z
-x,-x+y,1/3-z
y,x,-z
loop_
_atom_site_type_symbol
_atom_site_label
_atom_site_fract_x
_atom_site_fract_y
_atom_site_fract_z
Si Si1 0.472614 0.082914 0.909321
Si Si2 0.037065 0.114421 0.121874
Si Si3 0.564575 0.181734 0.529481
Si Si4 0.231464 0.780227 0.548599
Si Si5 0.825593 0.433633 0.640898
Si Si6 0.440160 0.723332 0.619972
Si Si7 0.697815 0.895978 0.072365
O O1 0.284454 0.994848 0.882964
O O2 0.653722 0.193914 0.881946
O O3 0.480905 0.238412 0.939735
O O4 0.443516 0.911249 0.936357
O O5 0.255726 0.211390 0.113973
O O6 0.000000 0.041843 0.166667
O O7 0.900665 0.958429 0.090659
O O8 0.635845 0.218641 0.484618
O O9 0.379185 0.984741 0.532842
O O10 0.711572 0.154059 0.556674
O O11 0.300393 0.744060 0.590002
O O12 0.648432 0.324681 0.670053
O O13 0.000000 0.581470 0.666667
O O14 0.876618 0.284251 0.622129
O O15 0.635809 0.920238 0.616258
#
# Coordination Sequence:
#
# PCOD9575937 Si02
#       7
#     6   6   6   6   6   6   6
#     4  10  23  39  64  90 121 163 208 253 313 376
#     4  11  21  40  62  87 122 165 200 257 318 375
#     4  10  21  37  59  89 123 159 202 259 303 374
#     4  11  22  38  60  91 123 162 207 254 314 370
#     4  11  22  40  62  92 123 160 209 264 304 365
#     4  10  22  40  62  86 120 167 206 251 310 380
#     4   9  21  40  60  85 122 165 203 246 323 364
#
# _framework density 21.109176999999999
#
# number of rings (size 3 to 8) (size 9 to 14) (size 15 to 20)
#    0.000    1.714    1.429    2.571    4.000    2.286 
#    2.571    7.143    0.000    0.000    0.000    0.000 
#    0.000    0.000    0.000    0.000    0.000    0.000 
#
# Total GULP energy -234668.865190 kJ/mol
# GULP energy per Si atom -5587.353933 kJ/mol
# Density = 2.106113 g / cm^3
# Si number density = 21.109177 Si / 1000 Ang^3
#
#
#
# Elastic Constant Matrix: (Units=GPa)
#
#
# Indices 1 2 3 4 5 6 
#
# 1 43.7972 -2.9557 10.0137 3.8525 -0.0001 0.0000
# 2 -2.9557 43.7972 10.0137 -3.8525 0.0001 0.0000
# 3 10.0137 10.0137 64.3875 0.0000 0.0000 0.0000
# 4 3.8525 -3.8525 0.0000 25.3971 0.0000 0.0001
# 5 -0.0001 0.0001 0.0000 0.0000 25.3971 3.8525
# 6 0.0000 0.0000 0.0000 0.0001 3.8525 23.3764
#
#
#
# Elastic Compliance Matrix: (Units=1/GPa)
#
#
# Indices 1 2 3 4 5 6 
#
# 1 0.024222 0.002284 -0.004122 -0.003328 0.000000 0.000000
# 2 0.002284 0.024222 -0.004122 0.003328 0.000000 0.000000
# 3 -0.004122 -0.004122 0.016813 0.000000 0.000000 0.000000
# 4 -0.003328 0.003328 0.000000 0.040384 0.000000 0.000000
# 5 0.000000 0.000000 0.000000 0.000000 0.040384 -0.006655
# 6 0.000000 0.000000 0.000000 0.000000 -0.006655 0.043875
#
#
# Mechanical properties :
#
#
# Convention : Reuss Voigt Hill
#
# Bulk Modulus (GPa) = 18.74884 20.68056 19.71470
# Shear Modulus (GPa) = 22.76872 23.82813 23.29843
#
# Velocity S-wave (km/s) = 3.28779 3.36341 3.32582
# Velocity P-wave (km/s) = 4.82845 4.99015 4.90997
#
# Compressibility (1/GPa) = 0.05333663
#
# Stress axis : x y z
#
# Youngs Moduli (GPa) = 41.28493 41.28493 59.47712
#
# Poissons Ratio (x) = -0.09431 0.24518
# Poissons Ratio (y) = -0.09431 0.24518
# Poissons Ratio (z) = 0.17019 0.17019
#
# Static dielectric constant tensor:
#      x y z
#    x 1.783140 0.000000 0.000000 
#    y 0.000000 1.783140 0.000000 
#    z 0.000000 0.000000 1.743110 
# 
# From -- ./inp_files/3702.got.cif
#   From: 2010.05.17/outbox.cif.g08.bks.cpg/sg152_2_cif.got.tgz:3702.got - 2010.05.20 10:36:06.
