data_PCOD9575801
_publ_section_title
;
Structure prediction by ZEFSAII (Michael W. Deem and Ramdas Pophale) SiO2 
 PCOD9575801
Probable space group: P 31 2 1
;
_chemical_formula_sum "Si O2"
_cell_formula_units_Z 36
_cell_length_a 8.890384
_cell_length_b 8.890384
_cell_length_c 26.083122
_cell_angle_alpha 90.000000
_cell_angle_beta 90.000000
_cell_angle_gamma 120.000000
_cell_volume 1785.382378
_symmetry_space_group_name_H-M "P 31 2 1"
_symmetry_group_IT_number 152
_symmetry_cell_setting 'hexagonal'
loop_
_space_group_symop_operation_xyz
x,y,z
-y,x-y,1/3+z
-x+y,-x,2/3+z
x-y,-y,2/3-z
-x,-x+y,1/3-z
y,x,-z
loop_
_atom_site_type_symbol
_atom_site_label
_atom_site_fract_x
_atom_site_fract_y
_atom_site_fract_z
Si Si1 0.895490 0.843003 0.587542
Si Si2 0.886814 0.596514 0.437559
Si Si3 0.082407 0.593932 0.783681
Si Si4 0.004437 0.250438 0.369288
Si Si5 0.568577 0.355865 0.282018
Si Si6 0.645978 0.255974 0.388760
O O1 0.771808 0.882744 0.552919
O O2 0.896565 0.671913 0.569220
O O3 0.806967 0.804617 0.643921
O O4 0.095667 0.990659 0.595290
O O5 0.933916 0.528186 0.488659
O O6 0.706047 0.437649 0.417396
O O7 0.033317 0.639740 0.395096
O O8 0.251107 0.590056 0.764504
O O9 0.911870 0.441194 0.756425
O O10 0.825014 0.253161 0.378519
O O11 0.161208 0.442722 0.380074
O O12 0.565554 0.259575 0.334326
#
# Coordination Sequence:
#
# PCOD9575801 Si02
#       6
#     6   6   6   6   6   6
#     4  10  19  38  61  86 119 157 203 251 314 372
#     4  11  23  38  60  94 126 155 204 267 317 365
#     4  11  22  39  63  87 124 169 203 247 323 387
#     4   9  19  36  61  88 114 155 206 254 300 366
#     4  11  21  38  62  91 120 160 210 260 303 370
#     4  10  20  39  61  85 120 164 207 249 304 381
#
# _framework density 20.163747999999998
#
# number of rings (size 3 to 8) (size 9 to 14) (size 15 to 20)
#    0.000    1.667    3.333    2.000    0.000    0.000 
#    6.000    0.000    0.000    6.000    0.000    0.000 
#    0.000    0.000    0.000    0.000    0.000    0.000 
#
# Total GULP energy -201002.715637 kJ/mol
# GULP energy per Si atom -5583.408768 kJ/mol
# Density = 2.011785 g / cm^3
# Si number density = 20.163748 Si / 1000 Ang^3
#
#
#
# Elastic Constant Matrix: (Units=GPa)
#
#
# Indices 1 2 3 4 5 6 
#
# 1 62.7907 15.4287 9.0656 4.0380 0.0000 0.0000
# 2 15.4287 62.7907 9.0656 -4.0380 0.0000 0.0000
# 3 9.0656 9.0656 46.4540 0.0000 0.0000 0.0000
# 4 4.0380 -4.0380 0.0000 22.5419 0.0000 0.0000
# 5 0.0000 0.0000 0.0000 0.0000 22.5419 4.0380
# 6 0.0000 0.0000 0.0000 0.0000 4.0380 23.6810
#
#
#
# Elastic Compliance Matrix: (Units=1/GPa)
#
#
# Indices 1 2 3 4 5 6 
#
# 1 0.017585 -0.004194 -0.002613 -0.003901 0.000000 0.000000
# 2 -0.004194 0.017585 -0.002613 0.003901 0.000000 0.000000
# 3 -0.002613 -0.002613 0.022547 0.000000 0.000000 0.000000
# 4 -0.003901 0.003901 0.000000 0.045759 0.000000 0.000000
# 5 0.000000 0.000000 0.000000 0.000000 0.045759 -0.007803
# 6 0.000000 0.000000 0.000000 0.000000 -0.007803 0.043558
#
#
# Mechanical properties :
#
#
# Convention : Reuss Voigt Hill
#
# Bulk Modulus (GPa) = 25.72375 26.57280 26.14828
# Shear Modulus (GPa) = 22.26249 22.98468 22.62359
#
# Velocity S-wave (km/s) = 3.32638 3.37991 3.35325
# Velocity P-wave (km/s) = 5.24769 5.33280 5.29042
#
# Compressibility (1/GPa) = 0.03887458
#
# Stress axis : x y z
#
# Youngs Moduli (GPa) = 56.86749 56.86749 44.35261
#
# Poissons Ratio (x) = 0.23853 0.11590
# Poissons Ratio (y) = 0.23853 0.11590
# Poissons Ratio (z) = 0.14860 0.14860
#
# Static dielectric constant tensor:
#      x y z
#    x 1.721140 0.000000 0.000000 
#    y 0.000000 1.721140 0.000000 
#    z 0.000000 0.000000 1.721090 
# 
# From -- ./inp_files/3362.got.cif
#   From: 2010.05.17/outbox.cif.g08.bks.cpg/sg152_2_cif.got.tgz:3362.got - 2010.05.20 10:36:06.
