data_PCOD9575537
_publ_section_title
;
Structure prediction by ZEFSAII (Michael W. Deem and Ramdas Pophale) SiO2 
 PCOD9575537
Probable space group: P 31 1 2
;
_chemical_formula_sum "Si O2"
_cell_formula_units_Z 45
_cell_length_a 13.035949
_cell_length_b 13.035949
_cell_length_c 16.667005
_cell_angle_alpha 90.000000
_cell_angle_beta 90.000000
_cell_angle_gamma 120.000000
_cell_volume 2452.864190
_symmetry_space_group_name_H-M "P 31 1 2"
_symmetry_group_IT_number 151
_symmetry_cell_setting 'hexagonal'
loop_
_space_group_symop_operation_xyz
x,y,z
-y,x-y,1/3+z
-x+y,-x,2/3+z
-y,-x,2/3-z
-x+y,y,1/3-z
x,x-y,-z
loop_
_atom_site_type_symbol
_atom_site_label
_atom_site_fract_x
_atom_site_fract_y
_atom_site_fract_z
Si Si1 0.365131 0.834307 0.026496
Si Si2 0.240373 0.408916 0.753742
Si Si3 0.406260 0.042398 0.139412
Si Si4 0.542944 0.890204 0.482289
Si Si5 0.115938 0.447954 0.903462
Si Si6 0.842878 0.562818 0.835483
Si Si7 0.722337 0.444674 0.166667
Si Si8 0.686832 0.129420 0.683832
O O1 0.456050 0.803819 0.070987
O O2 0.231542 0.734868 0.042123
O O3 0.380558 0.953647 0.066114
O O4 0.387578 0.855612 0.932980
O O5 0.182104 0.364207 0.666667
O O6 0.312233 0.350011 0.792097
O O7 0.150594 0.405559 0.821309
O O8 0.539287 0.078574 0.166667
O O9 0.401308 0.159483 0.123065
O O10 0.570762 0.785381 0.500000
O O11 0.459671 0.900813 0.548737
O O12 0.654310 0.021243 0.475212
O O13 0.998582 0.348729 0.946807
O O14 0.786018 0.420370 0.826605
O O15 0.840989 0.589103 0.930679
O O16 0.774033 0.523890 0.086910
O O17 0.563211 0.126421 0.666667
#
# Coordination Sequence:
#
# PCOD9575537 Si02
#       8
#     6   6   6   6   6   6   3   6
#     4  10  22  35  52  87 119 153 192 237 293 361
#     4  10  19  33  56  85 115 151 191 236 293 359
#     4   9  20  37  54  81 117 149 189 238 297 349
#     4  12  23  34  58  87 113 156 196 236 301 350
#     4  11  20  35  53  81 124 149 186 237 291 351
#     4  11  22  39  57  83 114 156 197 241 293 352
#     4  10  20  36  54  82 112 154 194 234 290 340
#     4  10  21  35  52  81 114 151 192 236 282 346
#
# _framework density 18.345897999999998
#
# number of rings (size 3 to 8) (size 9 to 14) (size 15 to 20)
#    0.000    1.600    4.667    2.800    0.000    3.733 
#    2.400    0.000    0.000    0.000   17.333    0.000 
#    0.000    0.000    0.000    0.000    0.000    0.000 
#
# Total GULP energy -251181.955335 kJ/mol
# GULP energy per Si atom -5581.821230 kJ/mol
# Density = 1.830414 g / cm^3
# Si number density = 18.345898 Si / 1000 Ang^3
#
#
#
# Elastic Constant Matrix: (Units=GPa)
#
#
# Indices 1 2 3 4 5 6 
#
# 1 69.3137 26.8562 -0.1106 0.0002 1.1315 0.0000
# 2 26.8562 69.3137 -0.1106 -0.0002 -1.1315 0.0000
# 3 -0.1106 -0.1106 59.6562 0.0000 0.0000 0.0000
# 4 0.0002 -0.0002 0.0000 22.6630 0.0000 -1.1315
# 5 1.1315 -1.1315 0.0000 0.0000 22.6630 0.0002
# 6 0.0000 0.0000 0.0000 -1.1315 0.0002 21.2287
#
#
#
# Elastic Compliance Matrix: (Units=1/GPa)
#
#
# Indices 1 2 3 4 5 6 
#
# 1 0.017007 -0.006609 0.000019 0.000000 -0.001179 0.000000
# 2 -0.006609 0.017007 0.000019 0.000000 0.001179 0.000000
# 3 0.000019 0.000019 0.016763 0.000000 0.000000 0.000000
# 4 0.000000 0.000000 0.000000 0.044242 0.000000 0.002358
# 5 -0.001179 0.001179 0.000000 0.000000 0.044242 0.000000
# 6 0.000000 0.000000 0.000000 0.002358 0.000000 0.047232
#
#
# Mechanical properties :
#
#
# Convention : Reuss Voigt Hill
#
# Bulk Modulus (GPa) = 26.56992 27.95037 27.26015
# Shear Modulus (GPa) = 23.56496 24.75420 24.15958
#
# Velocity S-wave (km/s) = 3.58785 3.67727 3.63284
# Velocity P-wave (km/s) = 5.62830 5.77045 5.69982
#
# Compressibility (1/GPa) = 0.03763655
#
# Stress axis : x y z
#
# Youngs Moduli (GPa) = 58.79909 58.79909 59.65594
#
# Poissons Ratio (x) = 0.38859 -0.00115
# Poissons Ratio (y) = 0.38859 -0.00115
# Poissons Ratio (z) = -0.00113 -0.00113
#
# Static dielectric constant tensor:
#      x y z
#    x 1.623410 0.000000 0.000000 
#    y 0.000000 1.623410 0.000000 
#    z 0.000000 0.000000 1.667230 
# 
# From -- ./inp_files/3567.got.cif
#   From: 2010.05.17/outbox.cif.g08.bks.cpg/sg151_2_cif.got.tgz:3567.got - 2010.05.20 10:33:20.
