data_PCOD9575621
_publ_section_title
;
Structure prediction by ZEFSAII (Michael W. Deem and Ramdas Pophale) SiO2 
 PCOD9575621
Probable space group: P 31 1 2
;
_chemical_formula_sum "Si O2"
_cell_formula_units_Z 39
_cell_length_a 8.886529
_cell_length_b 8.886529
_cell_length_c 27.676597
_cell_angle_alpha 90.000000
_cell_angle_beta 90.000000
_cell_angle_gamma 120.000000
_cell_volume 1892.812724
_symmetry_space_group_name_H-M "P 31 1 2"
_symmetry_group_IT_number 151
_symmetry_cell_setting 'hexagonal'
loop_
_space_group_symop_operation_xyz
x,y,z
-y,x-y,1/3+z
-x+y,-x,2/3+z
-y,-x,2/3-z
-x+y,y,1/3-z
x,x-y,-z
loop_
_atom_site_type_symbol
_atom_site_label
_atom_site_fract_x
_atom_site_fract_y
_atom_site_fract_z
Si Si1 0.743537 0.256464 0.833334
Si Si2 0.786531 0.368274 0.076700
Si Si3 0.599372 0.799686 0.000000
Si Si4 0.812347 0.650597 0.329471
Si Si5 0.140642 0.361228 0.841647
Si Si6 0.035037 0.964963 0.833334
Si Si7 0.224668 0.317316 0.252648
Si Si8 0.370725 0.715339 0.089307
O O1 0.704292 0.332226 0.785393
O O2 0.946752 0.330714 0.841481
O O3 0.867491 0.548803 0.047046
O O4 0.938005 0.346165 0.101002
O O5 0.721633 0.222251 0.035436
O O6 0.476534 0.672095 0.958763
O O7 0.729405 0.991108 0.979280
O O8 0.761450 0.773134 0.360869
O O9 0.243226 0.488919 0.797637
O O10 0.242375 0.463681 0.889857
O O11 0.120140 0.173285 0.833273
O O12 0.102002 0.914721 0.881568
O O13 0.247379 0.507532 0.253967
#
# Coordination Sequence:
#
# PCOD9575621 Si02
#       8
#     3   6   3   6   6   3   6   6
#     4  11  18  36  68  99 118 170 216 271 330 396
#     4   9  20  38  67  90 125 167 221 268 333 396
#     4  12  24  40  66  94 128 174 224 280 334 400
#     4   9  21  43  60  93 126 176 221 272 332 408
#     4  10  22  39  62  95 131 163 212 271 339 396
#     4  11  22  40  66  95 132 174 220 277 332 406
#     4  10  21  40  65  91 128 175 218 267 335 405
#     4  11  23  41  63  93 130 169 217 271 333 403
#
# _framework density 20.604258000000002
#
# number of rings (size 3 to 8) (size 9 to 14) (size 15 to 20)
#    0.923    0.923    1.538    2.769    2.154    1.231 
#    2.769    1.538    0.000    0.000    0.000    0.000 
#    0.000    0.000    0.000    0.000    0.000    0.000 
#
# Total GULP energy -217257.737291 kJ/mol
# GULP energy per Si atom -5570.711213 kJ/mol
# Density = 2.055736 g / cm^3
# Si number density = 20.604258 Si / 1000 Ang^3
#
#
#
# Elastic Constant Matrix: (Units=GPa)
#
#
# Indices 1 2 3 4 5 6 
#
# 1 68.9249 12.3272 3.4243 -0.0001 -10.6677 0.0000
# 2 12.3272 68.9249 3.4243 0.0001 10.6677 0.0000
# 3 3.4243 3.4243 75.2465 0.0000 0.0000 0.0000
# 4 -0.0001 0.0001 0.0000 19.7751 0.0000 10.6677
# 5 -10.6677 10.6677 0.0000 0.0000 19.7751 -0.0001
# 6 0.0000 0.0000 0.0000 10.6677 -0.0001 28.2988
#
#
#
# Elastic Compliance Matrix: (Units=1/GPa)
#
#
# Indices 1 2 3 4 5 6 
#
# 1 0.017267 -0.004912 -0.000562 0.000000 0.011964 0.000000
# 2 -0.004912 0.017267 -0.000562 0.000000 -0.011964 0.000000
# 3 -0.000562 -0.000562 0.013341 0.000000 0.000000 0.000000
# 4 0.000000 0.000000 0.000000 0.063477 0.000000 -0.023929
# 5 0.011964 -0.011964 0.000000 0.000000 0.063477 0.000000
# 6 0.000000 0.000000 0.000000 -0.023929 0.000000 0.044357
#
#
# Mechanical properties :
#
#
# Convention : Reuss Voigt Hill
#
# Bulk Modulus (GPa) = 27.93187 27.93866 27.93526
# Shear Modulus (GPa) = 20.55986 26.49784 23.52885
#
# Velocity S-wave (km/s) = 3.16230 3.59003 3.38293
# Velocity P-wave (km/s) = 5.18838 5.54738 5.37088
#
# Compressibility (1/GPa) = 0.03580140
#
# Stress axis : x y z
#
# Youngs Moduli (GPa) = 57.91479 57.91479 74.95790
#
# Poissons Ratio (x) = 0.28448 0.04214
# Poissons Ratio (y) = 0.28448 0.04214
# Poissons Ratio (z) = 0.03256 0.03256
#
# Static dielectric constant tensor:
#      x y z
#    x 1.738500 0.000000 0.000000 
#    y 0.000000 1.738500 0.000000 
#    z 0.000000 0.000000 1.760080 
# 
# From -- ./inp_files/4998.got.cif
#   From: 2010.05.17/outbox.cif.g08.bks.cpg/sg151_3_cif.got.tgz:4998.got - 2010.05.20 10:33:20.
