data_PCOD9575893
_publ_section_title
;
Structure prediction by ZEFSAII (Michael W. Deem and Ramdas Pophale) SiO2 
 PCOD9575893
Probable space group: P 31 2 1
;
_chemical_formula_sum "Si O2"
_cell_formula_units_Z 42
_cell_length_a 10.341068
_cell_length_b 10.341068
_cell_length_c 18.896892
_cell_angle_alpha 90.000000
_cell_angle_beta 90.000000
_cell_angle_gamma 120.000000
_cell_volume 1750.055414
_symmetry_space_group_name_H-M "P 31 2 1"
_symmetry_group_IT_number 152
_symmetry_cell_setting 'hexagonal'
loop_
_space_group_symop_operation_xyz
x,y,z
-y,x-y,1/3+z
-x+y,-x,2/3+z
x-y,-y,2/3-z
-x,-x+y,1/3-z
y,x,-z
loop_
_atom_site_type_symbol
_atom_site_label
_atom_site_fract_x
_atom_site_fract_y
_atom_site_fract_z
Si Si1 0.637233 0.556757 0.767606
Si Si2 0.397135 0.832144 0.725968
Si Si3 0.772489 0.274308 0.585632
Si Si4 0.896067 0.722556 0.565813
Si Si5 0.005433 0.005433 0.000000
Si Si6 0.567545 0.000000 0.333334
Si Si7 0.691552 0.875478 0.721721
Si Si8 0.323085 0.285214 0.754546
O O1 0.646145 0.497694 0.688438
O O2 0.715544 0.537280 0.837096
O O3 0.677802 0.728377 0.758604
O O4 0.466292 0.432308 0.784776
O O5 0.370176 0.666618 0.742168
O O6 0.270723 0.848852 0.768048
O O7 0.573199 0.927652 0.745804
O O8 0.878620 0.409812 0.636388
O O9 0.762064 0.124421 0.613707
O O10 0.009021 0.674124 0.601943
O O11 0.943543 0.762887 0.485771
O O12 0.913010 0.854813 0.614187
O O13 0.005985 0.874516 0.046512
O O14 0.635199 0.840006 0.639339
#
# Coordination Sequence:
#
# PCOD9575893 Si02
#       8
#     6   6   6   6   3   3   6   6
#     4  11  21  40  64  97 136 175 232 297 362 420
#     4  10  21  38  64 101 131 170 236 306 345 417
#     4  11  22  38  67  99 135 179 238 302 369 427
#     4  10  20  41  67  99 127 181 249 289 345 431
#     4  11  22  41  68  92 138 189 223 290 354 456
#     4   9  20  35  60 102 126 171 235 310 340 422
#     4  11  24  40  63 100 141 180 227 291 358 438
#     4  11  23  38  64 101 132 184 231 293 364 433
#
# _framework density 23.999241000000001
#
# number of rings (size 3 to 8) (size 9 to 14) (size 15 to 20)
#    0.000    1.429    5.714    0.857    4.000    1.143 
#    0.000    0.000    0.000    2.571    7.429    0.000 
#    0.000    0.000    0.000    0.000    0.000    0.000 
#
# Total GULP energy -233802.237124 kJ/mol
# GULP energy per Si atom -5566.719932 kJ/mol
# Density = 2.394462 g / cm^3
# Si number density = 23.999241 Si / 1000 Ang^3
#
#
#
# Elastic Constant Matrix: (Units=GPa)
#
#
# Indices 1 2 3 4 5 6 
#
# 1 86.0520 34.2334 22.1362 -7.3670 0.0000 0.0000
# 2 34.2334 86.0520 22.1362 7.3670 0.0000 0.0000
# 3 22.1362 22.1362 56.4339 0.0000 0.0000 0.0000
# 4 -7.3670 7.3670 0.0000 35.2172 0.0000 0.0000
# 5 0.0000 0.0000 0.0000 0.0000 35.2172 -7.3670
# 6 0.0000 0.0000 0.0000 0.0000 -7.3670 25.9093
#
#
#
# Elastic Compliance Matrix: (Units=1/GPa)
#
#
# Indices 1 2 3 4 5 6 
#
# 1 0.015117 -0.005401 -0.003811 0.004292 0.000000 0.000000
# 2 -0.005401 0.015117 -0.003811 -0.004292 0.000000 0.000000
# 3 -0.003811 -0.003811 0.020710 0.000000 0.000000 0.000000
# 4 0.004292 -0.004292 0.000000 0.030191 0.000000 0.000000
# 5 0.000000 0.000000 0.000000 0.000000 0.030191 0.008584
# 6 0.000000 0.000000 0.000000 0.000000 0.008584 0.041037
#
#
# Mechanical properties :
#
#
# Convention : Reuss Voigt Hill
#
# Bulk Modulus (GPa) = 40.16472 42.83886 41.50179
# Shear Modulus (GPa) = 26.77952 29.27088 28.02520
#
# Velocity S-wave (km/s) = 3.34406 3.49615 3.42095
# Velocity P-wave (km/s) = 5.62872 5.84690 5.73885
#
# Compressibility (1/GPa) = 0.02489747
#
# Stress axis : x y z
#
# Youngs Moduli (GPa) = 66.14886 66.14886 48.28644
#
# Poissons Ratio (x) = 0.35728 0.18403
# Poissons Ratio (y) = 0.35728 0.18403
# Poissons Ratio (z) = 0.25211 0.25211
#
# Static dielectric constant tensor:
#      x y z
#    x 2.047830 0.000000 0.000000 
#    y 0.000000 2.047830 0.000000 
#    z 0.000000 0.000000 1.882430 
# 
# From -- ./inp_files/2490.got.cif
#   From: 2010.05.17/outbox.cif.g08.bks.cpg/sg152_2_cif.got.tgz:2490.got - 2010.05.20 10:36:06.
