data_PCOD9575957
_publ_section_title
;
Structure prediction by ZEFSAII (Michael W. Deem and Ramdas Pophale) SiO2 
 PCOD9575957
Probable space group: P 31 2 1
;
_chemical_formula_sum "Si O2"
_cell_formula_units_Z 33
_cell_length_a 8.278366
_cell_length_b 8.278366
_cell_length_c 21.469392
_cell_angle_alpha 90.000000
_cell_angle_beta 90.000000
_cell_angle_gamma 120.000000
_cell_volume 1274.205936
_symmetry_space_group_name_H-M "P 31 2 1"
_symmetry_group_IT_number 152
_symmetry_cell_setting 'hexagonal'
loop_
_space_group_symop_operation_xyz
x,y,z
-y,x-y,1/3+z
-x+y,-x,2/3+z
x-y,-y,2/3-z
-x,-x+y,1/3-z
y,x,-z
loop_
_atom_site_type_symbol
_atom_site_label
_atom_site_fract_x
_atom_site_fract_y
_atom_site_fract_z
Si Si1 0.129787 0.096980 0.233620
Si Si2 0.182422 0.731501 0.331269
Si Si3 0.317637 0.508473 0.198221
Si Si4 0.544302 0.166928 0.992374
Si Si5 0.319001 0.878309 0.201982
Si Si6 0.841290 0.000000 0.333334
O O1 0.277499 0.177337 0.290618
O O2 0.164115 0.289107 0.202291
O O3 0.937543 0.980963 0.270571
O O4 0.186820 0.969401 0.193050
O O5 0.012480 0.553538 0.297528
O O6 0.293588 0.651483 0.368805
O O7 0.316682 0.861157 0.277251
O O8 0.401889 0.568099 0.268321
O O9 0.270775 0.671075 0.179708
O O10 0.480998 0.513911 0.156330
O O11 0.352071 0.164621 0.989453
#
# Coordination Sequence:
#
# PCOD9575957 Si02
#       6
#     6   6   6   6   6   3
#     4  11  22  39  64  90 119 169 206 261 321 375
#     4  10  21  39  63  89 120 160 209 257 318 374
#     4  10  22  37  61  94 122 161 212 262 312 394
#     4  10  23  38  62  94 122 156 210 269 307 381
#     4  11  19  36  64  87 122 164 209 249 323 378
#     4  12  22  38  62  92 124 160 210 260 314 380
#
# _framework density 25.898484
#
# number of rings (size 3 to 8) (size 9 to 14) (size 15 to 20)
#    0.000    1.455    3.636    3.273    5.091    0.000 
#    0.000    0.909    0.000    0.000    0.000    0.000 
#    0.000    0.000    0.000    0.000    0.000    0.000 
#
# Total GULP energy -184592.311408 kJ/mol
# GULP energy per Si atom -5593.706406 kJ/mol
# Density = 2.583954 g / cm^3
# Si number density = 25.898484 Si / 1000 Ang^3
#
#
#
# Elastic Constant Matrix: (Units=GPa)
#
#
# Indices 1 2 3 4 5 6 
#
# 1 92.9911 35.2699 15.7835 22.0825 0.0001 0.0000
# 2 35.2699 92.9911 15.7835 -22.0825 -0.0001 0.0000
# 3 15.7835 15.7835 93.3161 0.0000 0.0000 0.0000
# 4 22.0825 -22.0825 0.0000 24.9419 0.0000 -0.0001
# 5 0.0001 -0.0001 0.0000 0.0000 24.9419 22.0825
# 6 0.0000 0.0000 0.0000 -0.0001 22.0825 28.8606
#
#
#
# Elastic Compliance Matrix: (Units=1/GPa)
#
#
# Indices 1 2 3 4 5 6 
#
# 1 0.030921 -0.022786 -0.001376 -0.047550 0.000000 0.000000
# 2 -0.022786 0.030921 -0.001376 0.047550 0.000000 0.000000
# 3 -0.001376 -0.001376 0.011182 0.000000 0.000000 0.000000
# 4 -0.047550 0.047550 0.000000 0.124291 0.000000 0.000000
# 5 0.000000 0.000000 0.000000 0.000000 0.124291 -0.095101
# 6 0.000000 0.000000 0.000000 0.000000 -0.095101 0.107415
#
#
# Mechanical properties :
#
#
# Convention : Reuss Voigt Hill
#
# Bulk Modulus (GPa) = 45.56173 45.88581 45.72377
# Shear Modulus (GPa) = 10.25822 29.91297 20.08559
#
# Velocity S-wave (km/s) = 1.99237 3.40223 2.78789
# Velocity P-wave (km/s) = 4.78783 5.76104 5.29683
#
# Compressibility (1/GPa) = 0.02194824
#
# Stress axis : x y z
#
# Youngs Moduli (GPa) = 32.34015 32.34015 89.43156
#
# Poissons Ratio (x) = 0.73690 0.12306
# Poissons Ratio (y) = 0.73690 0.12306
# Poissons Ratio (z) = 0.04450 0.04450
#
# Static dielectric constant tensor:
#      x y z
#    x 2.084610 0.000000 0.000000 
#    y 0.000000 2.084610 0.000000 
#    z 0.000000 0.000000 2.063760 
# 
# From -- ./inp_files/3364.got.cif
#   From: 2010.05.17/outbox.cif.g08.bks.cpg/sg152_2_cif.got.tgz:3364.got - 2010.05.20 10:36:06.
