data_PCOD9575322
_publ_section_title
;
Structure prediction by ZEFSAII (Michael W. Deem and Ramdas Pophale) SiO2 
 PCOD9575322
Probable space group: R -3
;
_chemical_formula_sum "Si O2"
_cell_formula_units_Z 90
_cell_length_a 16.063739
_cell_length_b 16.063739
_cell_length_c 17.690915
_cell_angle_alpha 90.000000
_cell_angle_beta 90.000000
_cell_angle_gamma 120.000000
_cell_volume 3953.431387
_symmetry_space_group_name_H-M "R -3"
_symmetry_group_IT_number 148
_symmetry_cell_setting 'hexagonal'
loop_
_space_group_symop_operation_xyz
x,y,z
-y,x-y,z
-x+y,-x,z
-x,-y,-z
y,-x+y,-z
x-y,x,-z
2/3+x,1/3+y,1/3+z
2/3-y,1/3+x-y,1/3+z
2/3-x+y,1/3-x,1/3+z
2/3-x,1/3-y,1/3-z
2/3+y,1/3-x+y,1/3-z
2/3+x-y,1/3+x,1/3-z
1/3+x,2/3+y,2/3+z
1/3-y,2/3+x-y,2/3+z
1/3-x+y,2/3-x,2/3+z
1/3-x,2/3-y,2/3-z
1/3+y,2/3-x+y,2/3-z
1/3+x-y,2/3+x,2/3-z
loop_
_atom_site_type_symbol
_atom_site_label
_atom_site_fract_x
_atom_site_fract_y
_atom_site_fract_z
Si Si1 0.822011 0.756634 0.688601
Si Si2 0.151581 0.959903 0.534274
Si Si3 0.152973 0.253940 0.153881
Si Si4 0.399760 0.345702 0.287615
Si Si5 0.894325 0.727470 0.093286
O O1 0.833334 0.666667 0.666667
O O2 0.832215 0.821051 0.616246
O O3 0.885240 0.792624 0.763962
O O4 0.714266 0.716051 0.719738
O O5 0.167679 0.042346 0.474580
O O6 0.218083 0.913613 0.515783
O O7 0.077938 0.276226 0.112039
O O8 0.186689 0.184490 0.117561
O O9 0.418185 0.409657 0.362580
O O10 0.427917 0.262471 0.288650
O O11 0.833334 0.666667 0.166667
#
# Coordination Sequence:
#
# PCOD9575322 Si02
#       5
#    18  18  18  18  18
#     4  12  26  44  77 110 144 196 253 305 379 457
#     4  12  26  49  76 108 153 196 251 307 384 449
#     4  12  26  49  73 107 147 204 245 313 377 454
#     4  12  26  49  74 108 152 193 251 319 376 449
#     4  12  25  45  75 107 146 191 260 303 375 452
#
# _framework density 22.765032999999999
#
# number of rings (size 3 to 8) (size 9 to 14) (size 15 to 20)
#    0.000    0.000    8.000    1.400    2.800    0.000 
#    4.800    1.000    0.000    0.000    0.000    0.000 
#    0.000    0.000    0.000    0.000    0.000    0.000 
#
# Total GULP energy -167343.919690 kJ/mol
# GULP energy per Si atom -5578.130656 kJ/mol
# Density = 2.271322 g / cm^3
# Si number density = 22.765033 Si / 1000 Ang^3
#
#
#
# Elastic Constant Matrix: (Units=GPa)
#
#
# Indices 1 2 3 4 5 6 
#
# 1 67.1919 21.0833 -6.8821 2.9892 0.0295 0.0000
# 2 21.0833 67.1919 -6.8821 -2.9892 -0.0295 0.0000
# 3 -6.8821 -6.8821 91.6903 0.0000 0.0000 0.0000
# 4 2.9892 -2.9892 0.0000 44.3895 0.0000 -0.0295
# 5 0.0295 -0.0295 0.0000 0.0000 44.3895 2.9892
# 6 0.0000 0.0000 0.0000 -0.0295 2.9892 23.0543
#
#
#
# Elastic Compliance Matrix: (Units=1/GPa)
#
#
# Indices 1 2 3 4 5 6 
#
# 1 0.016671 -0.005208 0.000860 -0.001473 -0.000015 0.000000
# 2 -0.005208 0.016671 0.000860 0.001473 0.000015 0.000000
# 3 0.000860 0.000860 0.011035 0.000000 0.000000 0.000000
# 4 -0.001473 0.001473 0.000000 0.022726 0.000000 0.000029
# 5 -0.000015 0.000015 0.000000 0.000000 0.022726 -0.002947
# 6 0.000000 0.000000 0.000000 0.000029 -0.002947 0.043758
#
#
# Mechanical properties :
#
#
# Convention : Reuss Voigt Hill
#
# Bulk Modulus (GPa) = 26.73686 26.74579 26.74133
# Shear Modulus (GPa) = 32.67340 36.95033 34.81186
#
# Velocity S-wave (km/s) = 3.79257 4.03316 3.91472
# Velocity P-wave (km/s) = 5.56312 5.78469 5.67499
#
# Compressibility (1/GPa) = 0.03740154
#
# Stress axis : x y z
#
# Youngs Moduli (GPa) = 59.98561 59.98561 90.61721
#
# Poissons Ratio (x) = 0.31242 -0.07796
# Poissons Ratio (y) = 0.31242 -0.07796
# Poissons Ratio (z) = -0.05161 -0.05161
#
# Static dielectric constant tensor:
#      x y z
#    x 1.896300 0.000000 0.000000 
#    y 0.000000 1.896300 0.000000 
#    z 0.000000 0.000000 2.038870 
# 
# From -- ./inp_files/2683.got.cif
#   From: 2010.05.17/outbox.cif.g08.bks.cpg/sg148_2_cif.got.tgz:2683.got - 2010.05.20 13:50:20.
