data_PCOD9575121
_publ_section_title
;
Structure prediction by ZEFSAII (Michael W. Deem and Ramdas Pophale) SiO2 
 PCOD9575121
Probable space group: R -3
;
_chemical_formula_sum "Si O2"
_cell_formula_units_Z 72
_cell_length_a 21.928718
_cell_length_b 21.928718
_cell_length_c 7.452594
_cell_angle_alpha 90.000000
_cell_angle_beta 90.000000
_cell_angle_gamma 120.000000
_cell_volume 3103.591684
_symmetry_space_group_name_H-M "R -3"
_symmetry_group_IT_number 148
_symmetry_cell_setting 'hexagonal'
loop_
_space_group_symop_operation_xyz
x,y,z
-y,x-y,z
-x+y,-x,z
-x,-y,-z
y,-x+y,-z
x-y,x,-z
2/3+x,1/3+y,1/3+z
2/3-y,1/3+x-y,1/3+z
2/3-x+y,1/3-x,1/3+z
2/3-x,1/3-y,1/3-z
2/3+y,1/3-x+y,1/3-z
2/3+x-y,1/3+x,1/3-z
1/3+x,2/3+y,2/3+z
1/3-y,2/3+x-y,2/3+z
1/3-x+y,2/3-x,2/3+z
1/3-x,2/3-y,2/3-z
1/3+y,2/3-x+y,2/3-z
1/3+x-y,2/3+x,2/3-z
loop_
_atom_site_type_symbol
_atom_site_label
_atom_site_fract_x
_atom_site_fract_y
_atom_site_fract_z
Si Si1 0.571441 0.165532 0.811365
Si Si2 0.378797 0.366744 0.712376
Si Si3 0.192099 0.429987 0.506128
Si Si4 0.125513 0.511613 0.509731
O O1 0.540067 0.217323 0.831377
O O2 0.560083 0.137888 0.607827
O O3 0.540120 0.102824 0.960072
O O4 0.341964 0.327382 0.896041
O O5 0.409660 0.448930 0.755944
O O6 0.446513 0.368701 0.623197
O O7 0.194059 0.504299 0.541999
O O8 0.247846 0.425500 0.633770
#
# Coordination Sequence:
#
# PCOD9575121 Si02
#       4
#    18  18  18  18
#     4  10  21  37  59  87 119 154 194 241 295 352
#     4  10  23  39  58  85 118 157 199 246 295 347
#     4  10  21  37  58  85 117 155 197 242 292 348
#     4  10  21  37  59  86 116 154 196 242 295 351
#
# _framework density 23.198927999999999
#
# number of rings (size 3 to 8) (size 9 to 14) (size 15 to 20)
#    0.000    2.000    0.000    2.500    0.000   11.000 
#    0.000    0.000    0.000    8.000    0.000    0.000 
#    0.000    0.000    0.000    0.000    0.000    0.000 
#
# Total GULP energy -133609.691903 kJ/mol
# GULP energy per Si atom -5567.070496 kJ/mol
# Density = 2.314613 g / cm^3
# Si number density = 23.198928 Si / 1000 Ang^3
#
#
#
# Elastic Constant Matrix: (Units=GPa)
#
#
# Indices 1 2 3 4 5 6 
#
# 1 56.4135 6.2374 18.8598 7.6169 0.4945 -0.0007
# 2 6.2374 56.4095 18.8455 -7.6080 -0.4812 0.0022
# 3 18.8598 18.8455 109.1769 0.0066 0.0262 0.0014
# 4 7.6169 -7.6080 0.0066 20.7425 -0.0026 -0.4676
# 5 0.4945 -0.4812 0.0262 -0.0026 20.7795 7.6118
# 6 -0.0007 0.0022 0.0014 -0.4676 7.6118 25.0820
#
#
#
# Elastic Compliance Matrix: (Units=1/GPa)
#
#
# Indices 1 2 3 4 5 6 
#
# 1 0.020128 -0.002313 -0.003077 -0.008238 -0.000533 0.000009
# 2 -0.002313 0.020125 -0.003075 0.008232 0.000529 -0.000009
# 3 -0.003077 -0.003075 0.010222 -0.000001 -0.000012 0.000003
# 4 -0.008238 0.008232 -0.000001 0.054277 0.000026 0.001003
# 5 -0.000533 0.000529 -0.000012 0.000026 0.054171 -0.016439
# 6 0.000009 -0.000009 0.000003 0.001003 -0.016439 0.044877
#
#
# Mechanical properties :
#
#
# Convention : Reuss Voigt Hill
#
# Bulk Modulus (GPa) = 29.81130 34.43170 32.12150
# Shear Modulus (GPa) = 21.55985 25.19127 23.37556
#
# Velocity S-wave (km/s) = 3.05183 3.29885 3.17774
# Velocity P-wave (km/s) = 5.02955 5.42070 5.22878
#
# Compressibility (1/GPa) = 0.03354433
#
# Stress axis : x y z
#
# Youngs Moduli (GPa) = 49.68269 49.68855 97.83043
#
# Poissons Ratio (x) = 0.11494 0.30103
# Poissons Ratio (y) = 0.11493 0.30082
# Poissons Ratio (z) = 0.15288 0.15279
#
# Static dielectric constant tensor:
#      x y z
#    x 1.968630 0.000020 -0.000010 
#    y 0.000020 1.968660 0.000000 
#    z -0.000010 0.000000 1.947220 
# 
# From -- ./inp_files/389.got.cif
#   From: 2010.05.17/outbox.cif.g08.bks.cpg/sg148_1_cif.got.tgz:389.got - 2010.05.20 13:50:20.
