data_PCOD9575331
_publ_section_title
;
Structure prediction by ZEFSAII (Michael W. Deem and Ramdas Pophale) SiO2 
 PCOD9575331
Probable space group: R -3
;
_chemical_formula_sum "Si O2"
_cell_formula_units_Z 60
_cell_length_a 18.860949
_cell_length_b 18.860949
_cell_length_c 7.413242
_cell_angle_alpha 90.000000
_cell_angle_beta 90.000000
_cell_angle_gamma 120.000000
_cell_volume 2283.841134
_symmetry_space_group_name_H-M "R -3"
_symmetry_group_IT_number 148
_symmetry_cell_setting 'hexagonal'
loop_
_space_group_symop_operation_xyz
x,y,z
-y,x-y,z
-x+y,-x,z
-x,-y,-z
y,-x+y,-z
x-y,x,-z
2/3+x,1/3+y,1/3+z
2/3-y,1/3+x-y,1/3+z
2/3-x+y,1/3-x,1/3+z
2/3-x,1/3-y,1/3-z
2/3+y,1/3-x+y,1/3-z
2/3+x-y,1/3+x,1/3-z
1/3+x,2/3+y,2/3+z
1/3-y,2/3+x-y,2/3+z
1/3-x+y,2/3-x,2/3+z
1/3-x,2/3-y,2/3-z
1/3+y,2/3-x+y,2/3-z
1/3+x-y,2/3+x,2/3-z
loop_
_atom_site_type_symbol
_atom_site_label
_atom_site_fract_x
_atom_site_fract_y
_atom_site_fract_z
Si Si1 0.000000 0.000000 0.206673
Si Si2 0.604330 0.820691 0.493275
Si Si3 0.327167 0.390507 0.778419
Si Si4 0.473241 0.662294 0.072467
O O1 0.024502 0.086110 0.286667
O O2 0.000000 0.000000 0.000000
O O3 0.666667 0.833334 0.333334
O O4 0.627183 0.871232 0.677734
O O5 0.569128 0.724277 0.534333
O O6 0.551192 0.856329 0.394553
O O7 0.309050 0.348086 0.975420
O O8 0.423530 0.583241 0.207680
#
# Coordination Sequence:
#
# PCOD9575331 Si02
#       4
#     6  18  18  18
#     4   9  19  38  61  96 133 170 226 303 358 419
#     4  12  28  45  77 107 145 199 248 309 364 453
#     4  12  28  53  76 109 150 198 256 308 380 446
#     4   9  22  41  67  99 138 180 235 303 368 425
#
# _framework density 26.271529000000001
#
# number of rings (size 3 to 8) (size 9 to 14) (size 15 to 20)
#    0.000    1.200    3.000    2.100   12.600    2.400 
#    0.000    0.000    0.000    0.000    0.000    0.000 
#    0.000    0.000    0.000    0.000    0.000    0.000 
#
# Total GULP energy -111535.383592 kJ/mol
# GULP energy per Si atom -5576.769180 kJ/mol
# Density = 2.621173 g / cm^3
# Si number density = 26.271529 Si / 1000 Ang^3
#
#
#
# Elastic Constant Matrix: (Units=GPa)
#
#
# Indices 1 2 3 4 5 6 
#
# 1 62.5812 8.8559 7.8480 18.9236 19.2093 -0.0030
# 2 8.8559 62.5723 7.8338 -18.9355 -19.1998 0.0016
# 3 7.8480 7.8338 79.2404 -0.0110 0.0292 -0.0018
# 4 18.9236 -18.9355 -0.0110 -1.1987 -0.0087 -19.1896
# 5 19.2093 -19.1998 0.0292 -0.0087 -1.1977 18.9418
# 6 -0.0030 0.0016 -0.0018 -19.1896 18.9418 26.8557
#
#
#
# Elastic Compliance Matrix: (Units=1/GPa)
#
#
# Indices 1 2 3 4 5 6 
#
# 1 0.007553 0.006758 -0.001419 0.012466 0.012634 -0.000003
# 2 0.006758 0.007551 -0.001413 -0.012472 -0.012633 -0.000002
# 3 -0.001419 -0.001413 0.012900 -0.000007 0.000011 -0.000012
# 4 0.012466 -0.012472 -0.000007 -0.035400 0.000010 -0.025300
# 5 0.012634 -0.012633 0.000011 0.000010 -0.035347 0.024940
# 6 -0.000003 -0.000002 -0.000012 -0.025300 0.024940 0.001567
#
#
# Mechanical properties :
#
#
# Convention : Reuss Voigt Hill
#
# Bulk Modulus (GPa) = 27.88919 28.16326 28.02622
# Shear Modulus (GPa) = -134.86186 16.88229 -58.98979
#
# Velocity S-wave (km/s) = -7.17254 2.53772 -4.74369
# Velocity P-wave (km/s) = 7.61281 4.39659 4.39459
#
# Compressibility (1/GPa) = 0.03585619
#
# Stress axis : x y z
#
# Youngs Moduli (GPa) = 132.39276 132.42861 77.51912
#
# Poissons Ratio (x) = -0.89492 0.11001
# Poissons Ratio (y) = -0.89468 0.10953
# Poissons Ratio (z) = 0.18788 0.18711
#
# Static dielectric constant tensor:
#      x y z
#    x 2.075070 0.000000 -0.000010 
#    y 0.000000 2.075060 0.000160 
#    z -0.000010 0.000160 0.601170 
# 
# From -- ./inp_files/772.got.cif
#   From: 2010.05.17/outbox.cif.g08.bks.cpg/sg148_1_cif.got.tgz:772.got - 2010.05.20 13:50:20.
