data_PCOD9575735
_publ_section_title
;
Structure prediction by ZEFSAII (Michael W. Deem and Ramdas Pophale) SiO2 
 PCOD9575735
Probable space group: P 31 2 1
;
_chemical_formula_sum "Si O2"
_cell_formula_units_Z 36
_cell_length_a 12.003325
_cell_length_b 12.003325
_cell_length_c 16.720883
_cell_angle_alpha 90.000000
_cell_angle_beta 90.000000
_cell_angle_gamma 120.000000
_cell_volume 2086.377882
_symmetry_space_group_name_H-M "P 31 2 1"
_symmetry_group_IT_number 152
_symmetry_cell_setting 'hexagonal'
loop_
_space_group_symop_operation_xyz
x,y,z
-y,x-y,1/3+z
-x+y,-x,2/3+z
x-y,-y,2/3-z
-x,-x+y,1/3-z
y,x,-z
loop_
_atom_site_type_symbol
_atom_site_label
_atom_site_fract_x
_atom_site_fract_y
_atom_site_fract_z
Si Si1 0.670401 0.337026 0.201271
Si Si2 0.341721 0.310302 0.797199
Si Si3 0.870679 0.532294 0.636434
Si Si4 0.535033 0.600014 0.739774
Si Si5 0.217357 0.827422 0.542817
Si Si6 0.423566 0.116041 0.771987
O O1 0.654685 0.255458 0.282006
O O2 0.677551 0.468818 0.225505
O O3 0.537764 0.254522 0.153133
O O4 0.786603 0.345829 0.148799
O O5 0.396768 0.307708 0.885042
O O6 0.439084 0.448923 0.759020
O O7 0.209151 0.308404 0.815899
O O8 0.349684 0.195707 0.754251
O O9 0.837737 0.607589 0.702716
O O10 0.000000 0.534690 0.666667
O O11 0.670627 0.643019 0.781765
O O12 0.553607 0.620006 0.645017
O O13 0.343881 0.000000 0.833334
#
# Coordination Sequence:
#
# PCOD9575735 Si02
#       6
#     6   6   6   6   6   6
#     4  10  20  33  49  85 116 144 183 227 277 343
#     4   9  20  35  51  82 110 139 189 227 268 336
#     4   9  16  30  52  74 110 143 179 226 267 315
#     4  11  20  33  58  80 114 149 173 236 288 330
#     4  10  18  33  55  78 111 144 182 233 272 321
#     4  11  22  34  56  84 115 145 185 229 282 330
#
# _framework density 17.254781999999999
#
# number of rings (size 3 to 8) (size 9 to 14) (size 15 to 20)
#    0.000    2.000    3.333    3.000    2.333    0.000 
#    0.000    0.000    0.000    1.000    4.333    0.000 
#    0.000    0.000    0.000    0.000    0.000    0.000 
#
# Total GULP energy -200531.400763 kJ/mol
# GULP energy per Si atom -5570.316688 kJ/mol
# Density = 1.721551 g / cm^3
# Si number density = 17.254782 Si / 1000 Ang^3
#
#
#
# Elastic Constant Matrix: (Units=GPa)
#
#
# Indices 1 2 3 4 5 6 
#
# 1 88.4165 37.8226 7.0837 0.5668 0.0000 0.0000
# 2 37.8226 88.4165 7.0837 -0.5668 0.0000 0.0000
# 3 7.0837 7.0837 21.6250 0.0000 0.0000 0.0000
# 4 0.5668 -0.5668 0.0000 22.2239 0.0000 0.0000
# 5 0.0000 0.0000 0.0000 0.0000 22.2239 0.5668
# 6 0.0000 0.0000 0.0000 0.0000 0.5668 25.2970
#
#
#
# Elastic Compliance Matrix: (Units=1/GPa)
#
#
# Indices 1 2 3 4 5 6 
#
# 1 0.014000 -0.005776 -0.002694 -0.000504 0.000000 0.000000
# 2 -0.005776 0.014000 -0.002694 0.000504 0.000000 0.000000
# 3 -0.002694 -0.002694 0.048008 0.000000 0.000000 0.000000
# 4 -0.000504 0.000504 0.000000 0.045022 0.000000 0.000000
# 5 0.000000 0.000000 0.000000 0.000000 0.045022 -0.001009
# 6 0.000000 0.000000 0.000000 0.000000 -0.001009 0.039553
#
#
# Mechanical properties :
#
#
# Convention : Reuss Voigt Hill
#
# Bulk Modulus (GPa) = 18.62897 33.60422 26.11659
# Shear Modulus (GPa) = 20.33950 23.71351 22.02651
#
# Velocity S-wave (km/s) = 3.43705 3.71120 3.57675
# Velocity P-wave (km/s) = 5.15470 6.15480 5.67682
#
# Compressibility (1/GPa) = 0.05367984
#
# Stress axis : x y z
#
# Youngs Moduli (GPa) = 71.42778 71.42778 20.82999
#
# Poissons Ratio (x) = 0.41259 0.05611
# Poissons Ratio (y) = 0.41259 0.05611
# Poissons Ratio (z) = 0.19242 0.19242
#
# Static dielectric constant tensor:
#      x y z
#    x 1.618670 0.000000 0.000000 
#    y 0.000000 1.618670 0.000000 
#    z 0.000000 0.000000 1.605770 
# 
# From -- ./inp_files/2386.got.cif
#   From: 2010.05.17/outbox.cif.g08.bks.cpg/sg152_2_cif.got.tgz:2386.got - 2010.05.20 10:36:06.
