data_PCOD9575980
_publ_section_title
;
Structure prediction by ZEFSAII (Michael W. Deem and Ramdas Pophale) SiO2 
 PCOD9575980
Probable space group: P 31 2 1
;
_chemical_formula_sum "Si O2"
_cell_formula_units_Z 45
_cell_length_a 15.084568
_cell_length_b 15.084568
_cell_length_c 11.343330
_cell_angle_alpha 90.000000
_cell_angle_beta 90.000000
_cell_angle_gamma 120.000000
_cell_volume 2235.305840
_symmetry_space_group_name_H-M "P 31 2 1"
_symmetry_group_IT_number 152
_symmetry_cell_setting 'hexagonal'
loop_
_space_group_symop_operation_xyz
x,y,z
-y,x-y,1/3+z
-x+y,-x,2/3+z
x-y,-y,2/3-z
-x,-x+y,1/3-z
y,x,-z
loop_
_atom_site_type_symbol
_atom_site_label
_atom_site_fract_x
_atom_site_fract_y
_atom_site_fract_z
Si Si1 0.285242 0.314358 0.360870
Si Si2 0.701594 0.582628 0.986418
Si Si3 0.981840 0.895624 0.304591
Si Si4 0.478874 0.247115 0.552218
Si Si5 0.455123 0.799277 0.349643
Si Si6 0.352528 0.244362 0.151449
Si Si7 0.268046 0.599756 0.237862
Si Si8 0.855370 0.000000 0.333334
O O1 0.310202 0.310202 0.500000
O O2 0.181742 0.210205 0.328665
O O3 0.263019 0.406065 0.360936
O O4 0.360563 0.319473 0.258513
O O5 0.750498 0.579174 0.112317
O O6 0.609490 0.466542 0.965741
O O7 0.656911 0.656911 0.000000
O O8 0.786190 0.620284 0.884041
O O9 0.889205 0.912354 0.352428
O O10 0.000000 0.903804 0.166667
O O11 0.085727 0.000000 0.333334
O O12 0.559024 0.353384 0.490844
O O13 0.544737 0.218501 0.639507
O O14 0.561594 0.865100 0.281772
O O15 0.377592 0.699063 0.272001
O O16 0.464625 0.753543 0.473986
O O17 0.238674 0.187712 0.092987
#
# Coordination Sequence:
#
# PCOD9575980 Si02
#       8
#     6   6   6   6   6   6   6   3
#     4  11  23  38  65  98 129 174 223 277 315 397
#     4  11  25  40  68  97 130 171 221 278 327 400
#     4   9  20  40  62  88 124 177 214 251 334 394
#     4  10  22  41  67 100 126 179 220 270 328 403
#     4  10  21  43  65  97 128 173 219 270 332 403
#     4  12  25  42  64  99 133 167 225 278 334 395
#     4   9  20  42  72  87 130 179 218 257 340 403
#     4  10  26  38  64  92 130 172 212 280 328 392
#
# _framework density 20.131471999999999
#
# number of rings (size 3 to 8) (size 9 to 14) (size 15 to 20)
#    0.400    1.333    2.667    0.800    6.533    0.533 
#    0.000    0.000    0.000    0.000    0.000    0.000 
#    0.000    0.000    0.000    0.000    0.000    0.000 
#
# Total GULP energy -250522.287765 kJ/mol
# GULP energy per Si atom -5567.161950 kJ/mol
# Density = 2.008565 g / cm^3
# Si number density = 20.131472 Si / 1000 Ang^3
#
#
#
# Elastic Constant Matrix: (Units=GPa)
#
#
# Indices 1 2 3 4 5 6 
#
# 1 46.5847 27.9549 42.2110 0.2365 0.0000 0.0000
# 2 27.9549 46.5847 42.2110 -0.2365 0.0000 0.0000
# 3 42.2110 42.2110 104.4958 0.0000 0.0000 0.0000
# 4 0.2365 -0.2365 0.0000 21.7157 0.0000 0.0000
# 5 0.0000 0.0000 0.0000 0.0000 21.7157 0.2365
# 6 0.0000 0.0000 0.0000 0.0000 0.2365 9.3149
#
#
#
# Elastic Compliance Matrix: (Units=1/GPa)
#
#
# Indices 1 2 3 4 5 6 
#
# 1 0.039211 -0.014481 -0.009989 -0.000585 0.000000 0.000000
# 2 -0.014481 0.039211 -0.009989 0.000585 0.000000 0.000000
# 3 -0.009989 -0.009989 0.017640 0.000000 0.000000 0.000000
# 4 -0.000585 0.000585 0.000000 0.046062 0.000000 0.000000
# 5 0.000000 0.000000 0.000000 0.000000 0.046062 -0.001170
# 6 0.000000 0.000000 0.000000 0.000000 -0.001170 0.107385
#
#
# Mechanical properties :
#
#
# Convention : Reuss Voigt Hill
#
# Bulk Modulus (GPa) = 36.84403 46.93544 41.88973
# Shear Modulus (GPa) = 13.38545 16.23514 14.81030
#
# Velocity S-wave (km/s) = 2.58137 2.84290 2.71528
# Velocity P-wave (km/s) = 5.21786 5.84304 5.53928
#
# Compressibility (1/GPa) = 0.02714144
#
# Stress axis : x y z
#
# Youngs Moduli (GPa) = 25.50305 25.50305 56.68853
#
# Poissons Ratio (x) = 0.36932 0.56629
# Poissons Ratio (y) = 0.36932 0.56629
# Poissons Ratio (z) = 0.25476 0.25476
#
# Static dielectric constant tensor:
#      x y z
#    x 1.739780 0.000000 0.000000 
#    y 0.000000 1.739780 0.000000 
#    z 0.000000 0.000000 1.730920 
# 
# From -- ./inp_files/1891.got.cif
#   From: 2010.05.17/outbox.cif.g08.bks.cpg/sg152_1_cif.got.tgz:1891.got - 2010.05.20 10:36:06.
