data_PCOD9575376
_publ_section_title
;
Structure prediction by ZEFSAII (Michael W. Deem and Ramdas Pophale) SiO2 
 PCOD9575376
Probable space group: P 3 1 2
;
_chemical_formula_sum "Si O2"
_cell_formula_units_Z 44
_cell_length_a 11.980494
_cell_length_b 11.980494
_cell_length_c 16.993740
_cell_angle_alpha 90.000000
_cell_angle_beta 90.000000
_cell_angle_gamma 120.000000
_cell_volume 2112.365438
_symmetry_space_group_name_H-M "P 3 1 2"
_symmetry_group_IT_number 149
_symmetry_cell_setting 'hexagonal'
loop_
_space_group_symop_operation_xyz
x,y,z
-y,x-y,z
-x+y,-x,z
-y,-x,-z
-x+y,y,-z
x,x-y,-z
loop_
_atom_site_type_symbol
_atom_site_label
_atom_site_fract_x
_atom_site_fract_y
_atom_site_fract_z
Si Si1 0.418083 0.057272 0.261393
Si Si2 0.578623 0.666695 0.975621
Si Si3 0.264841 0.239587 0.883366
Si Si4 0.026259 0.764640 0.169218
Si Si5 0.000000 0.000000 0.404659
Si Si6 0.609146 0.641647 0.533691
Si Si7 0.202179 0.905215 0.384930
Si Si8 0.691225 0.593127 0.690818
O O1 0.430770 0.192998 0.286825
O O2 0.552635 0.067371 0.278611
O O3 0.378614 0.032964 0.170552
O O4 0.299096 0.948176 0.311876
O O5 0.707640 0.716769 0.028512
O O6 0.475838 0.524162 0.000000
O O7 0.529196 0.764598 0.000000
O O8 0.611845 0.682755 0.883800
O O9 0.262649 0.107794 0.868304
O O10 0.132920 0.222022 0.847098
O O11 0.999842 0.721258 0.259766
O O12 0.852125 0.909346 0.377037
O O13 0.000000 0.000000 0.500000
O O14 0.473053 0.526948 0.500000
O O15 0.698057 0.710213 0.458920
O O16 0.610789 0.758458 0.584290
O O17 0.674714 0.594300 0.597412
#
# Coordination Sequence:
#
# PCOD9575376 Si02
#       8
#     6   6   6   6   2   6   6   6
#     4  11  23  40  60  87 123 162 210 257 318 382
#     4  10  20  36  59  87 121 162 202 247 299 366
#     4  10  21  37  61  90 121 159 199 256 313 369
#     4  10  21  38  61  90 123 156 205 253 315 372
#     4  12  21  39  66  96 120 156 213 271 330 375
#     4  11  22  41  59  85 121 157 205 251 313 381
#     4  11  24  40  64  91 121 162 206 265 321 378
#     4  11  23  39  59  84 118 161 200 258 307 375
#
# _framework density 20.829729
#
# number of rings (size 3 to 8) (size 9 to 14) (size 15 to 20)
#    0.000    1.364    2.727    3.545    0.000    1.091 
#    3.273    1.364    0.000    6.000    0.000    0.000 
#    0.000    0.000    0.000    0.000    0.000    0.000 
#
# Total GULP energy -245717.299340 kJ/mol
# GULP energy per Si atom -5584.484076 kJ/mol
# Density = 2.078232 g / cm^3
# Si number density = 20.829729 Si / 1000 Ang^3
#
#
#
# Elastic Constant Matrix: (Units=GPa)
#
#
# Indices 1 2 3 4 5 6 
#
# 1 71.7360 24.9371 8.9728 0.0003 -5.4135 0.0000
# 2 24.9371 71.7360 8.9728 -0.0003 5.4135 0.0000
# 3 8.9728 8.9728 84.8921 0.0000 0.0000 0.0000
# 4 0.0003 -0.0003 0.0000 4.7573 0.0000 5.4135
# 5 -5.4135 5.4135 0.0000 0.0000 4.7573 0.0003
# 6 0.0000 0.0000 0.0000 5.4135 0.0003 23.3994
#
#
#
# Elastic Compliance Matrix: (Units=1/GPa)
#
#
# Indices 1 2 3 4 5 6 
#
# 1 0.019777 -0.009226 -0.001115 -0.000002 0.033004 0.000000
# 2 -0.009226 0.019777 -0.001115 0.000002 -0.033004 0.000000
# 3 -0.001115 -0.001115 0.012015 0.000000 0.000000 0.000000
# 4 -0.000002 0.000002 0.000000 0.285318 0.000000 -0.066008
# 5 0.033004 -0.033004 0.000000 0.000000 0.285318 -0.000003
# 6 0.000000 0.000000 0.000000 -0.066008 -0.000003 0.058007
#
#
# Mechanical properties :
#
#
# Convention : Reuss Voigt Hill
#
# Bulk Modulus (GPa) = 34.89568 34.90328 34.89948
# Shear Modulus (GPa) = 7.01579 18.94821 12.98200
#
# Velocity S-wave (km/s) = 1.83725 3.01935 2.49919
# Velocity P-wave (km/s) = 4.61409 5.38035 5.01188
#
# Compressibility (1/GPa) = 0.02865684
#
# Stress axis : x y z
#
# Youngs Moduli (GPa) = 50.56286 50.56286 83.22643
#
# Poissons Ratio (x) = 0.46650 0.09282
# Poissons Ratio (y) = 0.46650 0.09282
# Poissons Ratio (z) = 0.05639 0.05639
#
# Static dielectric constant tensor:
#      x y z
#    x 1.736360 0.000000 0.000000 
#    y 0.000000 1.736360 0.000000 
#    z 0.000000 0.000000 1.759580 
# 
# From -- ./inp_files/1115.got.cif
#   From: 2010.05.17/outbox.cif.g08.bks.cpg/sg149_cif.got.tgz:1115.got - 2010.05.20 13:52:34.
