data_PCOD9575577
_publ_section_title
;
Structure prediction by ZEFSAII (Michael W. Deem and Ramdas Pophale) SiO2 
 PCOD9575577
Probable space group: P 31 1 2
;
_chemical_formula_sum "Si O2"
_cell_formula_units_Z 39
_cell_length_a 8.892721
_cell_length_b 8.892721
_cell_length_c 29.322892
_cell_angle_alpha 90.000000
_cell_angle_beta 90.000000
_cell_angle_gamma 120.000000
_cell_volume 2008.199092
_symmetry_space_group_name_H-M "P 31 1 2"
_symmetry_group_IT_number 151
_symmetry_cell_setting 'hexagonal'
loop_
_space_group_symop_operation_xyz
x,y,z
-y,x-y,1/3+z
-x+y,-x,2/3+z
-y,-x,2/3-z
-x+y,y,1/3-z
x,x-y,-z
loop_
_atom_site_type_symbol
_atom_site_label
_atom_site_fract_x
_atom_site_fract_y
_atom_site_fract_z
Si Si1 0.832581 0.167420 0.833334
Si Si2 0.104687 0.235030 0.569710
Si Si3 0.884868 0.708387 0.615700
Si Si4 0.896635 0.437106 0.910032
Si Si5 0.931417 0.765139 0.029039
Si Si6 0.056380 0.250178 0.073955
Si Si7 0.910664 0.479853 0.445260
O O1 0.882261 0.330708 0.865127
O O2 0.000187 0.222776 0.802524
O O3 0.189848 0.209451 0.616201
O O4 0.066357 0.392886 0.566841
O O5 0.913607 0.067587 0.561652
O O6 0.817657 0.635314 0.666667
O O7 0.748948 0.764138 0.596980
O O8 0.920040 0.591811 0.581452
O O9 0.068721 0.886812 0.621645
O O10 0.902128 0.316832 0.950214
O O11 0.730012 0.462379 0.907641
O O12 0.056656 0.633148 0.912250
O O13 0.957413 0.765408 0.975118
O O14 0.902151 0.451076 0.500000
#
# Coordination Sequence:
#
# PCOD9575577 Si02
#       7
#     3   6   6   6   6   6   6
#     4  10  20  38  58  84 120 162 206 256 302 368
#     4   9  20  33  58  82 112 157 197 239 297 359
#     4   9  20  39  61  87 122 159 199 249 309 370
#     4  10  20  36  59  87 120 151 199 255 310 359
#     4   9  18  37  65  87 115 147 208 250 305 370
#     4   9  18  36  62  92 109 156 201 252 303 374
#     4  11  23  36  56  88 123 159 203 248 306 376
#
# _framework density 19.420383999999999
#
# number of rings (size 3 to 8) (size 9 to 14) (size 15 to 20)
#    0.000    2.462    0.769    1.846    6.462    2.462 
#    0.000    3.077    3.385    5.538    0.000    0.000 
#    0.000    0.000    0.000    0.000    0.000    0.000 
#
# Total GULP energy -217297.095259 kJ/mol
# GULP energy per Si atom -5571.720391 kJ/mol
# Density = 1.937618 g / cm^3
# Si number density = 19.420384 Si / 1000 Ang^3
#
#
#
# Elastic Constant Matrix: (Units=GPa)
#
#
# Indices 1 2 3 4 5 6 
#
# 1 104.3053 46.2517 53.4245 0.0001 5.7359 0.0000
# 2 46.2517 104.3053 53.4245 -0.0001 -5.7359 0.0000
# 3 53.4245 53.4245 73.9597 0.0000 0.0000 0.0000
# 4 0.0001 -0.0001 0.0000 19.7296 0.0000 -5.7359
# 5 5.7359 -5.7359 0.0000 0.0000 19.7296 0.0001
# 6 0.0000 0.0000 0.0000 -5.7359 0.0001 29.0268
#
#
#
# Elastic Compliance Matrix: (Units=1/GPa)
#
#
# Indices 1 2 3 4 5 6 
#
# 1 0.015952 -0.002323 -0.009845 0.000000 -0.005313 0.000000
# 2 -0.002323 0.015952 -0.009845 0.000000 0.005313 0.000000
# 3 -0.009845 -0.009845 0.027743 0.000000 0.000000 0.000000
# 4 0.000000 0.000000 0.000000 0.053774 0.000000 0.010626
# 5 -0.005313 0.005313 0.000000 0.000000 0.053774 0.000000
# 6 0.000000 0.000000 0.000000 0.010626 0.000000 0.036551
#
#
# Mechanical properties :
#
#
# Convention : Reuss Voigt Hill
#
# Bulk Modulus (GPa) = 64.01155 65.41910 64.71533
# Shear Modulus (GPa) = 19.76446 22.32852 21.04649
#
# Velocity S-wave (km/s) = 3.19363 3.39447 3.29558
# Velocity P-wave (km/s) = 6.82873 7.00872 6.91931
#
# Compressibility (1/GPa) = 0.01562218
#
# Stress axis : x y z
#
# Youngs Moduli (GPa) = 62.68808 62.68808 36.04469
#
# Poissons Ratio (x) = 0.14565 0.35485
# Poissons Ratio (y) = 0.14565 0.35485
# Poissons Ratio (z) = 0.61714 0.61714
#
# Static dielectric constant tensor:
#      x y z
#    x 1.704510 0.000000 0.000000 
#    y 0.000000 1.704510 0.000000 
#    z 0.000000 0.000000 1.781330 
# 
# From -- ./inp_files/4971.got.cif
#   From: 2010.05.17/outbox.cif.g08.bks.cpg/sg151_3_cif.got.tgz:4971.got - 2010.05.20 10:33:20.
