data_PCOD9575838
_publ_section_title
;
Structure prediction by ZEFSAII (Michael W. Deem and Ramdas Pophale) SiO2 
 PCOD9575838
Probable space group: P 31 2 1
;
_chemical_formula_sum "Si O2"
_cell_formula_units_Z 39
_cell_length_a 8.950273
_cell_length_b 8.950273
_cell_length_c 27.844075
_cell_angle_alpha 90.000000
_cell_angle_beta 90.000000
_cell_angle_gamma 120.000000
_cell_volume 1931.683594
_symmetry_space_group_name_H-M "P 31 2 1"
_symmetry_group_IT_number 152
_symmetry_cell_setting 'hexagonal'
loop_
_space_group_symop_operation_xyz
x,y,z
-y,x-y,1/3+z
-x+y,-x,2/3+z
x-y,-y,2/3-z
-x,-x+y,1/3-z
y,x,-z
loop_
_atom_site_type_symbol
_atom_site_label
_atom_site_fract_x
_atom_site_fract_y
_atom_site_fract_z
Si Si1 0.282286 0.000000 0.333334
Si Si2 0.651080 0.851930 0.242184
Si Si3 0.483195 0.311415 0.618101
Si Si4 0.823112 0.154929 0.535949
Si Si5 0.442804 0.848703 0.398900
Si Si6 0.868885 0.015453 0.753846
Si Si7 0.025479 0.550261 0.945071
O O1 0.326270 0.861977 0.356530
O O2 0.139657 0.930147 0.292437
O O3 0.640455 0.875839 0.185317
O O4 0.843025 0.881843 0.251500
O O5 0.501456 0.662105 0.257311
O O6 0.620882 0.989670 0.269752
O O7 0.675895 0.453072 0.603659
O O8 0.336666 0.278888 0.579374
O O9 0.441360 0.353020 0.670881
O O10 0.500179 0.140202 0.619378
O O11 0.855450 0.340862 0.553950
O O12 0.000580 0.149027 0.540293
O O13 0.676568 0.023080 0.572971
#
# Coordination Sequence:
#
# PCOD9575838 Si02
#       7
#     3   6   6   6   6   6   6
#     4  10  20  38  56  84 114 150 186 230 298 344
#     4  11  22  37  59  88 115 153 194 238 292 349
#     4  10  20  36  55  85 112 145 191 235 293 335
#     4  10  21  40  58  81 117 157 193 231 292 363
#     4  10  21  36  60  85 116 149 192 245 288 349
#     4  10  21  36  59  81 114 153 188 237 289 346
#     4  10  22  37  59  82 114 148 186 240 285 343
#
# _framework density 20.189643
#
# number of rings (size 3 to 8) (size 9 to 14) (size 15 to 20)
#    0.000    1.846    0.000    5.077    0.000    5.538 
#    0.000    0.000    0.000    9.231    0.000    0.000 
#    0.000    0.000    0.000    0.000    0.000    0.000 
#
# Total GULP energy -217531.941967 kJ/mol
# GULP energy per Si atom -5577.742102 kJ/mol
# Density = 2.014369 g / cm^3
# Si number density = 20.189643 Si / 1000 Ang^3
#
#
#
# Elastic Constant Matrix: (Units=GPa)
#
#
# Indices 1 2 3 4 5 6 
#
# 1 84.5939 22.4285 18.5566 4.6332 0.0000 0.0000
# 2 22.4285 84.5939 18.5566 -4.6332 0.0000 0.0000
# 3 18.5566 18.5566 53.4736 0.0000 0.0000 0.0000
# 4 4.6332 -4.6332 0.0000 26.1430 0.0000 0.0000
# 5 0.0000 0.0000 0.0000 0.0000 26.1430 4.6332
# 6 0.0000 0.0000 0.0000 0.0000 4.6332 31.0827
#
#
#
# Elastic Compliance Matrix: (Units=1/GPa)
#
#
# Indices 1 2 3 4 5 6 
#
# 1 0.013572 -0.002950 -0.003686 -0.002928 0.000000 0.000000
# 2 -0.002950 0.013572 -0.003686 0.002928 0.000000 0.000000
# 3 -0.003686 -0.003686 0.021259 0.000000 0.000000 0.000000
# 4 -0.002928 0.002928 0.000000 0.039289 0.000000 0.000000
# 5 0.000000 0.000000 0.000000 0.000000 0.039289 -0.005856
# 6 0.000000 0.000000 0.000000 0.000000 -0.005856 0.033045
#
#
# Mechanical properties :
#
#
# Convention : Reuss Voigt Hill
#
# Bulk Modulus (GPa) = 36.02450 37.97165 36.99807
# Shear Modulus (GPa) = 26.32617 27.54839 26.93728
#
# Velocity S-wave (km/s) = 3.61493 3.69790 3.65665
# Velocity P-wave (km/s) = 5.94184 6.08941 6.01608
#
# Compressibility (1/GPa) = 0.02775888
#
# Stress axis : x y z
#
# Youngs Moduli (GPa) = 73.67914 73.67914 47.03859
#
# Poissons Ratio (x) = 0.21737 0.17339
# Poissons Ratio (y) = 0.21737 0.17339
# Poissons Ratio (z) = 0.27159 0.27159
#
# Static dielectric constant tensor:
#      x y z
#    x 1.750180 0.000000 0.000000 
#    y 0.000000 1.750180 0.000000 
#    z 0.000000 0.000000 1.723710 
# 
# From -- ./inp_files/3618.got.cif
#   From: 2010.05.17/outbox.cif.g08.bks.cpg/sg152_2_cif.got.tgz:3618.got - 2010.05.20 10:36:06.
