data_PCOD9575457
_publ_section_title
;
Structure prediction by ZEFSAII (Michael W. Deem and Ramdas Pophale) SiO2 
 PCOD9575457
Probable space group: P 3 2 1
;
_chemical_formula_sum "Si O2"
_cell_formula_units_Z 48
_cell_length_a 14.320233
_cell_length_b 14.320233
_cell_length_c 12.180619
_cell_angle_alpha 90.000000
_cell_angle_beta 90.000000
_cell_angle_gamma 120.000000
_cell_volume 2163.217359
_symmetry_space_group_name_H-M "P 3 2 1"
_symmetry_group_IT_number 150
_symmetry_cell_setting 'hexagonal'
loop_
_space_group_symop_operation_xyz
x,y,z
-y,x-y,z
-x+y,-x,z
x-y,-y,-z
-x,-x+y,-z
y,x,-z
loop_
_atom_site_type_symbol
_atom_site_label
_atom_site_fract_x
_atom_site_fract_y
_atom_site_fract_z
Si Si1 0.295290 0.273858 0.725041
Si Si2 0.835722 0.267768 0.404545
Si Si3 0.092344 0.233489 0.428989
Si Si4 0.273859 0.978568 0.774959
Si Si5 0.396246 0.912336 0.093645
Si Si6 0.483909 0.396246 0.406355
Si Si7 0.164278 0.732232 0.095454
Si Si8 0.233489 0.141145 0.071011
O O1 0.240912 0.201298 0.617129
O O2 0.361601 0.400509 0.695494
O O3 0.378340 0.244533 0.783847
O O4 0.205498 0.242574 0.817532
O O5 0.877883 0.215754 0.495629
O O6 0.866193 0.244533 0.283846
O O7 0.708496 0.204425 0.423626
O O8 0.892742 0.396147 0.406439
O O9 0.000000 0.135657 0.500000
O O10 0.037077 0.242575 0.317532
O O11 0.201298 0.960386 0.882870
O O12 0.400509 0.038908 0.804506
O O13 0.291504 0.795575 0.076374
O O14 0.496595 0.892742 0.093561
O O15 0.420582 0.000000 0.000000
O O16 0.420582 0.420582 0.500000
O O17 0.122117 0.784246 0.004371
O O18 0.135656 0.135656 0.000000
#
# Coordination Sequence:
#
# PCOD9575457 Si02
#       8
#     6   6   6   6   6   6   6   6
#     4  11  21  42  67  98 132 184 232 285 355 421
#     4  11  24  41  62 103 141 182 237 291 347 430
#     4  10  22  41  67 101 134 175 235 291 349 429
#     4  11  21  42  67  98 132 184 232 285 355 421
#     4  12  23  41  68  99 141 188 232 289 359 421
#     4  12  23  41  68  99 141 188 232 289 359 421
#     4  11  24  41  62 103 141 182 237 291 347 430
#     4  10  22  41  67 101 134 175 235 291 349 429
#
# _framework density 22.189171000000002
#
# number of rings (size 3 to 8) (size 9 to 14) (size 15 to 20)
#    0.000    1.000    5.000    3.500    0.000    0.000 
#    0.000    0.000    0.000    0.500    6.500    0.000 
#    0.000    0.000    0.000    0.000    0.000    0.000 
#
# Total GULP energy -267876.787744 kJ/mol
# GULP energy per Si atom -5580.766411 kJ/mol
# Density = 2.213867 g / cm^3
# Si number density = 22.189171 Si / 1000 Ang^3
#
#
#
# Elastic Constant Matrix: (Units=GPa)
#
#
# Indices 1 2 3 4 5 6 
#
# 1 91.6300 18.0114 37.5684 -10.5689 0.0000 0.0000
# 2 18.0114 91.6300 37.5684 10.5689 0.0000 0.0000
# 3 37.5684 37.5684 109.7942 0.0000 0.0000 0.0000
# 4 -10.5689 10.5689 0.0000 25.5626 0.0000 0.0000
# 5 0.0000 0.0000 0.0000 0.0000 25.5626 -10.5689
# 6 0.0000 0.0000 0.0000 0.0000 -10.5689 36.8093
#
#
#
# Elastic Compliance Matrix: (Units=1/GPa)
#
#
# Indices 1 2 3 4 5 6 
#
# 1 0.013664 -0.001749 -0.004077 0.006373 0.000000 0.000000
# 2 -0.001749 0.013664 -0.004077 -0.006373 0.000000 0.000000
# 3 -0.004077 -0.004077 0.011898 0.000000 0.000000 0.000000
# 4 0.006373 -0.006373 0.000000 0.044389 0.000000 0.000000
# 5 0.000000 0.000000 0.000000 0.000000 0.044389 0.012745
# 6 0.000000 0.000000 0.000000 0.000000 0.012745 0.030827
#
#
# Mechanical properties :
#
#
# Convention : Reuss Voigt Hill
#
# Bulk Modulus (GPa) = 51.49428 53.26119 52.37774
# Shear Modulus (GPa) = 27.01101 30.91395 28.96248
#
# Velocity S-wave (km/s) = 3.49278 3.73661 3.61675
# Velocity P-wave (km/s) = 6.28676 6.53236 6.41073
#
# Compressibility (1/GPa) = 0.01941963
#
# Stress axis : x y z
#
# Youngs Moduli (GPa) = 73.18577 73.18577 84.04865
#
# Poissons Ratio (x) = 0.12803 0.34265
# Poissons Ratio (y) = 0.12803 0.34265
# Poissons Ratio (z) = 0.29836 0.29836
#
# Static dielectric constant tensor:
#      x y z
#    x 1.884880 0.000000 0.000000 
#    y 0.000000 1.884880 0.000000 
#    z 0.000000 0.000000 1.826130 
# 
# From -- ./inp_files/970.got.cif
#   From: 2010.05.17/outbox.cif.g08.bks.cpg/sg150_cif.got.tgz:970.got - 2010.05.20 13:53:18.
