data_PCOD9575636
_publ_section_title
;
Structure prediction by ZEFSAII (Michael W. Deem and Ramdas Pophale) SiO2 
 PCOD9575636
Probable space group: P 31 1 2
;
_chemical_formula_sum "Si O2"
_cell_formula_units_Z 24
_cell_length_a 7.412839
_cell_length_b 7.412839
_cell_length_c 23.956228
_cell_angle_alpha 90.000000
_cell_angle_beta 90.000000
_cell_angle_gamma 120.000000
_cell_volume 1140.035053
_symmetry_space_group_name_H-M "P 31 1 2"
_symmetry_group_IT_number 151
_symmetry_cell_setting 'hexagonal'
loop_
_space_group_symop_operation_xyz
x,y,z
-y,x-y,1/3+z
-x+y,-x,2/3+z
-y,-x,2/3-z
-x+y,y,1/3-z
x,x-y,-z
loop_
_atom_site_type_symbol
_atom_site_label
_atom_site_fract_x
_atom_site_fract_y
_atom_site_fract_z
Si Si1 0.928142 0.575234 0.783132
Si Si2 0.515547 0.217724 0.758073
Si Si3 0.323119 0.661560 0.500000
Si Si4 0.442588 0.885175 0.666667
Si Si5 0.048531 0.661989 0.592660
O O1 0.768900 0.339102 0.763454
O O2 0.861309 0.578089 0.847491
O O3 0.850526 0.707781 0.746988
O O4 0.163478 0.631640 0.788514
O O5 0.442354 0.034876 0.714916
O O6 0.484656 0.409275 0.739724
O O7 0.181448 0.726357 0.535463
O O8 0.210362 0.753867 0.642369
#
# Coordination Sequence:
#
# PCOD9575636 Si02
#       5
#     6   6   3   3   6
#     4   9  20  41  64  93 126 171 227 262 313 415
#     4   9  20  42  62  95 133 165 224 271 320 403
#     4  12  18  40  74  90 124 180 230 264 324 414
#     4  12  22  40  72  98 138 180 206 288 366 352
#     4  10  22  41  66  95 129 177 219 266 338 395
#
# _framework density 21.051987
#
# number of rings (size 3 to 8) (size 9 to 14) (size 15 to 20)
#    1.500    0.500    5.000    0.000    0.000    2.000 
#    4.500    2.500    5.500    0.000    0.000    0.000 
#    0.000    0.000    0.000    0.000    0.000    0.000 
#
# Total GULP energy -133692.686692 kJ/mol
# GULP energy per Si atom -5570.528612 kJ/mol
# Density = 2.100407 g / cm^3
# Si number density = 21.051987 Si / 1000 Ang^3
#
#
#
# Elastic Constant Matrix: (Units=GPa)
#
#
# Indices 1 2 3 4 5 6 
#
# 1 62.9759 21.2091 10.7143 0.0001 0.2139 0.0000
# 2 21.2091 62.9759 10.7143 -0.0001 -0.2139 0.0000
# 3 10.7143 10.7143 43.3106 0.0000 0.0000 0.0000
# 4 0.0001 -0.0001 0.0000 32.9576 0.0000 -0.2139
# 5 0.2139 -0.2139 0.0000 0.0000 32.9576 0.0001
# 6 0.0000 0.0000 0.0000 -0.2139 0.0001 20.8834
#
#
#
# Elastic Compliance Matrix: (Units=1/GPa)
#
#
# Indices 1 2 3 4 5 6 
#
# 1 0.018310 -0.005634 -0.003136 0.000000 -0.000155 0.000000
# 2 -0.005634 0.018310 -0.003136 0.000000 0.000155 0.000000
# 3 -0.003136 -0.003136 0.024641 0.000000 0.000000 0.000000
# 4 0.000000 0.000000 0.000000 0.030344 0.000000 0.000311
# 5 -0.000155 0.000155 0.000000 0.000000 0.030344 0.000000
# 6 0.000000 0.000000 0.000000 0.000311 0.000000 0.047888
#
#
# Mechanical properties :
#
#
# Convention : Reuss Voigt Hill
#
# Bulk Modulus (GPa) = 26.70211 28.28196 27.49203
# Shear Modulus (GPa) = 24.25626 25.80138 25.02882
#
# Velocity S-wave (km/s) = 3.39810 3.50466 3.45179
# Velocity P-wave (km/s) = 5.30165 5.46263 5.38275
#
# Compressibility (1/GPa) = 0.03745022
#
# Stress axis : x y z
#
# Youngs Moduli (GPa) = 54.61360 54.61360 40.58341
#
# Poissons Ratio (x) = 0.30767 0.12727
# Poissons Ratio (y) = 0.30767 0.12727
# Poissons Ratio (z) = 0.17127 0.17127
#
# Static dielectric constant tensor:
#      x y z
#    x 1.768250 0.000000 0.000000 
#    y 0.000000 1.768250 0.000000 
#    z 0.000000 0.000000 1.789520 
# 
# From -- ./inp_files/3807.got.cif
#   From: 2010.05.17/outbox.cif.g08.bks.cpg/sg151_2_cif.got.tgz:3807.got - 2010.05.20 10:33:20.
