data_PCOD9575346
_publ_section_title
;
Structure prediction by ZEFSAII (Michael W. Deem and Ramdas Pophale) SiO2 
 PCOD9575346
Probable space group: P 3 1 2
;
_chemical_formula_sum "Si O2"
_cell_formula_units_Z 36
_cell_length_a 18.874148
_cell_length_b 18.874148
_cell_length_c 8.675954
_cell_angle_alpha 90.000000
_cell_angle_beta 90.000000
_cell_angle_gamma 120.000000
_cell_volume 2676.594522
_symmetry_space_group_name_H-M "P 3 1 2"
_symmetry_group_IT_number 149
_symmetry_cell_setting 'hexagonal'
loop_
_space_group_symop_operation_xyz
x,y,z
-y,x-y,z
-x+y,-x,z
-y,-x,-z
-x+y,y,-z
x,x-y,-z
loop_
_atom_site_type_symbol
_atom_site_label
_atom_site_fract_x
_atom_site_fract_y
_atom_site_fract_z
Si Si1 0.159409 0.158360 0.065758
Si Si2 0.334524 0.825167 0.065574
Si Si3 0.672304 0.916027 0.565232
Si Si4 0.174833 0.509357 0.434427
Si Si5 0.083974 0.756277 0.934768
Si Si6 0.841640 0.840592 0.565757
O O1 0.154982 0.155622 0.250000
O O2 0.167218 0.083609 0.000000
O O3 0.233820 0.245908 0.009976
O O4 0.075707 0.151413 0.000000
O O5 0.333409 0.817718 0.250000
O O6 0.317778 0.899655 0.027883
O O7 0.258604 0.741397 0.000000
O O8 0.418429 0.836859 0.000000
O O9 0.669535 0.834768 0.500000
O O10 0.581878 0.899655 0.527883
O O11 0.681869 0.919283 0.750000
O O12 0.754092 0.987913 0.490026
O O13 0.258604 0.517208 0.500000
O O14 0.163141 0.581571 0.500000
O O15 0.165234 0.834767 0.000000
O O16 0.916391 0.832783 0.500000
O O17 0.848588 0.924294 0.500000
#
# Coordination Sequence:
#
# PCOD9575346 Si02
#       6
#     6   6   6   6   6   6
#     4  11  20  30  43  59  79 103 132 166 199 235
#     4  10  19  29  42  58  79 104 134 168 201 236
#     4   9  17  29  42  57  76 101 130 162 199 237
#     4  10  19  29  42  58  79 104 134 168 201 236
#     4   9  17  29  42  57  76 101 130 162 199 237
#     4  11  20  30  43  59  79 103 132 166 199 235
#
# _framework density 13.449927000000001
#
# number of rings (size 3 to 8) (size 9 to 14) (size 15 to 20)
#    0.000    2.000    0.000    7.667    0.000    4.000 
#    0.000    0.000    0.000    0.000    0.000    0.000 
#    0.000    0.000    0.000    1.000    0.000   16.000 
#
# Total GULP energy -200622.869391 kJ/mol
# GULP energy per Si atom -5572.857483 kJ/mol
# Density = 1.341931 g / cm^3
# Si number density = 13.449927 Si / 1000 Ang^3
#
#
#
# Elastic Constant Matrix: (Units=GPa)
#
#
# Indices 1 2 3 4 5 6 
#
# 1 96.3246 55.3319 46.4587 -0.0003 -0.0004 0.0000
# 2 55.3319 96.3246 46.4587 0.0003 0.0004 0.0000
# 3 46.4587 46.4587 99.8856 0.0000 0.0000 0.0000
# 4 -0.0003 0.0003 0.0000 16.0767 0.0000 0.0004
# 5 -0.0004 0.0004 0.0000 0.0000 16.0767 -0.0003
# 6 0.0000 0.0000 0.0000 0.0004 -0.0003 20.4963
#
#
#
# Elastic Compliance Matrix: (Units=1/GPa)
#
#
# Indices 1 2 3 4 5 6 
#
# 1 0.016808 -0.007586 -0.004289 0.000000 0.000001 0.000000
# 2 -0.007586 0.016808 -0.004289 0.000000 -0.000001 0.000000
# 3 -0.004289 -0.004289 0.014001 0.000000 0.000000 0.000000
# 4 0.000000 0.000000 0.000000 0.062202 0.000000 -0.000001
# 5 0.000001 -0.000001 0.000000 0.000000 0.062202 0.000001
# 6 0.000000 0.000000 0.000000 -0.000001 0.000001 0.048789
#
#
# Mechanical properties :
#
#
# Convention : Reuss Voigt Hill
#
# Bulk Modulus (GPa) = 65.41030 65.44817 65.42923
# Shear Modulus (GPa) = 19.36207 20.14895 19.75551
#
# Velocity S-wave (km/s) = 3.79828 3.87469 3.83668
# Velocity P-wave (km/s) = 8.24463 8.29361 8.26915
#
# Compressibility (1/GPa) = 0.01528811
#
# Stress axis : x y z
#
# Youngs Moduli (GPa) = 59.49473 59.49473 71.42106
#
# Poissons Ratio (x) = 0.45135 0.30634
# Poissons Ratio (y) = 0.45135 0.30634
# Poissons Ratio (z) = 0.25519 0.25519
#
# Static dielectric constant tensor:
#      x y z
#    x 1.429680 0.000000 0.000000 
#    y 0.000000 1.429680 0.000000 
#    z 0.000000 0.000000 1.450620 
# 
# From -- ./inp_files/647.got.cif
#   From: 2010.05.17/outbox.cif.g08.bks.cpg/sg149_cif.got.tgz:647.got - 2010.05.20 13:52:34.
