data_PCOD9575072
_publ_section_title
;
Structure prediction by ZEFSAII (Michael W. Deem and Ramdas Pophale) SiO2 
 PCOD9575072
Probable space group: R -3
;
_chemical_formula_sum "Si O2"
_cell_formula_units_Z 72
_cell_length_a 22.239801
_cell_length_b 22.239801
_cell_length_c 8.192606
_cell_angle_alpha 90.000000
_cell_angle_beta 90.000000
_cell_angle_gamma 120.000000
_cell_volume 3509.251504
_symmetry_space_group_name_H-M "R -3"
_symmetry_group_IT_number 148
_symmetry_cell_setting 'hexagonal'
loop_
_space_group_symop_operation_xyz
x,y,z
-y,x-y,z
-x+y,-x,z
-x,-y,-z
y,-x+y,-z
x-y,x,-z
2/3+x,1/3+y,1/3+z
2/3-y,1/3+x-y,1/3+z
2/3-x+y,1/3-x,1/3+z
2/3-x,1/3-y,1/3-z
2/3+y,1/3-x+y,1/3-z
2/3+x-y,1/3+x,1/3-z
1/3+x,2/3+y,2/3+z
1/3-y,2/3+x-y,2/3+z
1/3-x+y,2/3-x,2/3+z
1/3-x,2/3-y,2/3-z
1/3+y,2/3-x+y,2/3-z
1/3+x-y,2/3+x,2/3-z
loop_
_atom_site_type_symbol
_atom_site_label
_atom_site_fract_x
_atom_site_fract_y
_atom_site_fract_z
Si Si1 0.500472 0.579508 0.171370
Si Si2 0.465040 0.080534 0.651818
Si Si3 0.249737 0.084887 0.821803
Si Si4 0.868094 0.288240 0.333385
O O1 0.446915 0.543370 0.319813
O O2 0.544379 0.659825 0.124131
O O3 0.555570 0.552992 0.182223
O O4 0.451532 0.540091 0.014411
O O5 0.446261 0.103831 0.483992
O O6 0.416590 0.996958 0.662715
O O7 0.228066 0.124010 0.954848
O O8 0.210318 0.002824 0.845890
#
# Coordination Sequence:
#
# PCOD9575072 Si02
#       4
#    18  18  18  18
#     4   9  19  34  50  73 104 136 168 212 258 301
#     4  10  20  33  52  76 105 136 171 209 254 305
#     4   9  19  33  49  73 103 134 170 211 256 303
#     4  10  20  33  51  76 104 136 173 209 252 305
#
# _framework density 20.517195999999998
#
# number of rings (size 3 to 8) (size 9 to 14) (size 15 to 20)
#    0.000    2.500    0.000    3.000    0.000    8.000 
#    0.000    0.000    0.000    1.000    0.000    0.000 
#    0.000    0.000    0.000    0.000    0.000    0.000 
#
# Total GULP energy -133967.422539 kJ/mol
# GULP energy per Si atom -5581.975939 kJ/mol
# Density = 2.047050 g / cm^3
# Si number density = 20.517196 Si / 1000 Ang^3
#
#
#
# Elastic Constant Matrix: (Units=GPa)
#
#
# Indices 1 2 3 4 5 6 
#
# 1 108.1124 71.7659 19.4604 3.9220 -8.0081 0.0349
# 2 71.7659 108.0627 19.3864 -3.9239 8.0526 0.0004
# 3 19.4604 19.3864 52.3230 0.0021 0.0724 0.0555
# 4 3.9220 -3.9239 0.0021 31.6571 0.0025 8.0516
# 5 -8.0081 8.0526 0.0724 0.0025 31.6968 3.9517
# 6 0.0349 0.0004 0.0555 8.0516 3.9517 18.1818
#
#
#
# Elastic Compliance Matrix: (Units=1/GPa)
#
#
# Indices 1 2 3 4 5 6 
#
# 1 0.019008 -0.012962 -0.002278 -0.003952 0.008106 -0.000041
# 2 -0.012962 0.019006 -0.002210 0.003952 -0.008104 0.000043
# 3 -0.002278 -0.002210 0.020778 0.000021 -0.000054 -0.000057
# 4 -0.003952 0.003952 0.000021 0.036701 0.000021 -0.016250
# 5 0.008106 -0.008104 -0.000054 0.000021 0.036652 -0.007990
# 6 -0.000041 0.000043 -0.000057 -0.016250 -0.007990 0.063933
#
#
# Mechanical properties :
#
#
# Convention : Reuss Voigt Hill
#
# Bulk Modulus (GPa) = 41.85510 54.41374 48.13442
# Shear Modulus (GPa) = 20.92554 26.83284 23.87919
#
# Velocity S-wave (km/s) = 3.19706 3.62031 3.41524
# Velocity P-wave (km/s) = 5.83717 6.63733 6.25006
#
# Compressibility (1/GPa) = 0.02389195
#
# Stress axis : x y z
#
# Youngs Moduli (GPa) = 52.60955 52.61439 48.12732
#
# Poissons Ratio (x) = 0.68200 0.10963
# Poissons Ratio (y) = 0.68194 0.10636
# Poissons Ratio (z) = 0.11984 0.11628
#
# Static dielectric constant tensor:
#      x y z
#    x 1.691120 0.000000 -0.000010 
#    y 0.000000 1.691130 0.000000 
#    z -0.000010 0.000000 1.886760 
# 
# From -- ./inp_files/809.got.cif
#   From: 2010.05.17/outbox.cif.g08.bks.cpg/sg148_1_cif.got.tgz:809.got - 2010.05.20 13:50:20.
