data_PCOD9575070
_publ_section_title
;
Structure prediction by ZEFSAII (Michael W. Deem and Ramdas Pophale) SiO2 
 PCOD9575070
Probable space group: R -3
;
_chemical_formula_sum "Si O2"
_cell_formula_units_Z 120
_cell_length_a 18.381571
_cell_length_b 18.381571
_cell_length_c 29.980163
_cell_angle_alpha 90.000000
_cell_angle_beta 90.000000
_cell_angle_gamma 120.000000
_cell_volume 8772.631230
_symmetry_space_group_name_H-M "R -3"
_symmetry_group_IT_number 148
_symmetry_cell_setting 'hexagonal'
loop_
_space_group_symop_operation_xyz
x,y,z
-y,x-y,z
-x+y,-x,z
-x,-y,-z
y,-x+y,-z
x-y,x,-z
2/3+x,1/3+y,1/3+z
2/3-y,1/3+x-y,1/3+z
2/3-x+y,1/3-x,1/3+z
2/3-x,1/3-y,1/3-z
2/3+y,1/3-x+y,1/3-z
2/3+x-y,1/3+x,1/3-z
1/3+x,2/3+y,2/3+z
1/3-y,2/3+x-y,2/3+z
1/3-x+y,2/3-x,2/3+z
1/3-x,2/3-y,2/3-z
1/3+y,2/3-x+y,2/3-z
1/3+x-y,2/3+x,2/3-z
loop_
_atom_site_type_symbol
_atom_site_label
_atom_site_fract_x
_atom_site_fract_y
_atom_site_fract_z
Si Si1 0.333334 0.666667 0.369560
Si Si2 0.613276 0.055997 0.040642
Si Si3 0.790762 0.748961 0.549065
Si Si4 0.282384 0.888308 0.378655
Si Si5 0.443796 0.376134 0.876240
Si Si6 0.483182 0.253569 0.924655
Si Si7 0.000000 0.000000 0.404809
Si Si8 0.473630 0.240137 0.031561
O O1 0.333334 0.666667 0.315444
O O2 0.236179 0.620440 0.382607
O O3 0.542482 0.084702 0.037687
O O4 0.704460 0.137217 0.046547
O O5 0.587198 0.992407 0.081909
O O6 0.603576 0.004774 0.994978
O O7 0.736809 0.739849 0.505035
O O8 0.880583 0.755013 0.537997
O O9 0.801982 0.833054 0.572147
O O10 0.266150 0.918229 0.426098
O O11 0.373720 0.897735 0.376308
O O12 0.434561 0.296235 0.903697
O O13 0.579259 0.320718 0.913133
O O14 0.475114 0.246208 0.977755
#
# Coordination Sequence:
#
# PCOD9575070 Si02
#       8
#     6  18  18  18  18  18   6  18
#     4   9  18  24  42  73  91 123 156 177 226 271
#     4  10  20  31  46  69  94 122 157 191 225 269
#     4  11  21  31  44  67  98 128 157 188 229 277
#     4  10  20  31  46  69  94 122 157 191 225 269
#     4  11  21  31  44  67  98 128 157 188 229 277
#     4  11  18  27  43  67  97 130 156 182 217 278
#     4   9  18  21  37  67  96 129 162 174 204 271
#     4  11  18  32  48  66  96 123 155 194 224 264
#
# _framework density 13.678906
#
# number of rings (size 3 to 8) (size 9 to 14) (size 15 to 20)
#    0.000    1.500    7.500    0.000    0.000    0.000 
#    0.000    2.250    0.000    0.000    0.000    0.000 
#    0.000    0.000    0.000    8.100    0.000    0.000 
#
# Total GULP energy -222740.389534 kJ/mol
# GULP energy per Si atom -5568.509738 kJ/mol
# Density = 1.364777 g / cm^3
# Si number density = 13.678906 Si / 1000 Ang^3
#
#
#
# Elastic Constant Matrix: (Units=GPa)
#
#
# Indices 1 2 3 4 5 6 
#
# 1 63.7031 23.3015 20.7237 2.2502 -0.4407 0.0000
# 2 23.3015 63.7035 20.7237 -2.2501 0.4407 0.0000
# 3 20.7237 20.7237 64.1130 0.0001 0.0000 0.0000
# 4 2.2502 -2.2501 0.0001 16.8859 0.0000 0.4407
# 5 -0.4407 0.4407 0.0000 0.0000 16.8859 2.2502
# 6 0.0000 0.0000 0.0000 0.4407 2.2502 20.2009
#
#
#
# Elastic Compliance Matrix: (Units=1/GPa)
#
#
# Indices 1 2 3 4 5 6 
#
# 1 0.019362 -0.005777 -0.004391 -0.003350 0.000656 0.000000
# 2 -0.005777 0.019362 -0.004391 0.003350 -0.000656 0.000000
# 3 -0.004391 -0.004391 0.018436 0.000000 0.000000 0.000000
# 4 -0.003350 0.003350 0.000000 0.060148 0.000000 -0.001312
# 5 0.000656 -0.000656 0.000000 0.000000 0.060148 -0.006700
# 6 0.000000 0.000000 0.000000 -0.001312 -0.006700 0.050278
#
#
# Mechanical properties :
#
#
# Convention : Reuss Voigt Hill
#
# Bulk Modulus (GPa) = 35.66070 35.66859 35.66465
# Shear Modulus (GPa) = 18.78285 19.24594 19.01440
#
# Velocity S-wave (km/s) = 3.70959 3.75504 3.73239
# Velocity P-wave (km/s) = 6.66892 6.70318 6.68608
#
# Compressibility (1/GPa) = 0.02804207
#
# Stress axis : x y z
#
# Youngs Moduli (GPa) = 51.64691 51.64724 54.24070
#
# Poissons Ratio (x) = 0.29835 0.23819
# Poissons Ratio (y) = 0.29834 0.23819
# Poissons Ratio (z) = 0.22680 0.22680
#
# Static dielectric constant tensor:
#      x y z
#    x 1.446810 0.000000 0.000000 
#    y 0.000000 1.446810 0.000000 
#    z 0.000000 0.000000 1.446990 
# 
# From -- ./inp_files/3738.got.cif
#   From: 2010.05.17/outbox.cif.g08.bks.cpg/sg148_2_cif.got.tgz:3738.got - 2010.05.20 13:50:20.
