data_PCOD9575695
_publ_section_title
;
Structure prediction by ZEFSAII (Michael W. Deem and Ramdas Pophale) SiO2 
 PCOD9575695
Probable space group: P 31 1 2
;
_chemical_formula_sum "Si O2"
_cell_formula_units_Z 15
_cell_length_a 4.913037
_cell_length_b 4.913037
_cell_length_c 26.647871
_cell_angle_alpha 90.000000
_cell_angle_beta 90.000000
_cell_angle_gamma 120.000000
_cell_volume 557.048769
_symmetry_space_group_name_H-M "P 31 1 2"
_symmetry_group_IT_number 151
_symmetry_cell_setting 'hexagonal'
loop_
_space_group_symop_operation_xyz
x,y,z
-y,x-y,1/3+z
-x+y,-x,2/3+z
-y,-x,2/3-z
-x+y,y,1/3-z
x,x-y,-z
loop_
_atom_site_type_symbol
_atom_site_label
_atom_site_fract_x
_atom_site_fract_y
_atom_site_fract_z
Si Si1 0.415392 0.584609 0.333334
Si Si2 0.385395 0.077771 0.400324
Si Si3 0.267194 0.067082 0.134838
O O1 0.319436 0.241520 0.353421
O O2 0.239441 0.638374 0.287126
O O3 0.731776 0.236249 0.423797
O O4 0.186496 0.122128 0.443965
O O5 0.485463 0.970925 0.166667
O O6 0.128478 0.256956 0.166667
#
# Coordination Sequence:
#
# PCOD9575695 Si02
#       3
#     3   6   6
#     4  12  24  44  70 104 144 192 248 308 376 448
#     4  12  25  45  72 106 147 195 248 310 375 449
#     4  12  26  46  72 106 149 197 250 310 378 452
#
# _framework density 26.927624000000002
#
# number of rings (size 3 to 8) (size 9 to 14) (size 15 to 20)
#    0.000    0.000    0.000   10.800    0.000    3.200 
#    0.000    0.000    0.000    0.000    0.000    0.000 
#    0.000    0.000    0.000    0.000    0.000    0.000 
#
# Total GULP energy -83778.248363 kJ/mol
# GULP energy per Si atom -5585.216558 kJ/mol
# Density = 2.686634 g / cm^3
# Si number density = 26.927624 Si / 1000 Ang^3
#
#
#
# Elastic Constant Matrix: (Units=GPa)
#
#
# Indices 1 2 3 4 5 6 
#
# 1 161.9818 68.1630 40.6380 0.0003 -9.0687 0.0000
# 2 68.1630 161.9818 40.6380 -0.0003 9.0687 0.0000
# 3 40.6380 40.6380 73.4015 0.0000 0.0000 0.0000
# 4 0.0003 -0.0003 0.0000 30.6242 0.0000 9.0687
# 5 -9.0687 9.0687 0.0000 0.0000 30.6242 0.0003
# 6 0.0000 0.0000 0.0000 9.0687 0.0003 46.9094
#
#
#
# Elastic Compliance Matrix: (Units=1/GPa)
#
#
# Indices 1 2 3 4 5 6 
#
# 1 0.008354 -0.002952 -0.002990 0.000000 0.003348 0.000000
# 2 -0.002952 0.008354 -0.002990 0.000000 -0.003348 0.000000
# 3 -0.002990 -0.002990 0.016935 0.000000 0.000000 0.000000
# 4 0.000000 0.000000 0.000000 0.034637 0.000000 -0.006696
# 5 0.003348 -0.003348 0.000000 0.000000 0.034637 0.000000
# 6 0.000000 0.000000 0.000000 -0.006696 0.000000 0.022612
#
#
# Mechanical properties :
#
#
# Convention : Reuss Voigt Hill
#
# Bulk Modulus (GPa) = 63.38783 77.36036 70.37410
# Shear Modulus (GPa) = 33.63552 38.15999 35.89775
#
# Velocity S-wave (km/s) = 3.53811 3.76856 3.65515
# Velocity P-wave (km/s) = 6.34682 6.90851 6.63361
#
# Compressibility (1/GPa) = 0.01577590
#
# Stress axis : x y z
#
# Youngs Moduli (GPa) = 119.70882 119.70882 59.05014
#
# Poissons Ratio (x) = 0.35344 0.17658
# Poissons Ratio (y) = 0.35344 0.17658
# Poissons Ratio (z) = 0.35796 0.35796
#
# Static dielectric constant tensor:
#      x y z
#    x 2.075960 0.000000 0.000000 
#    y 0.000000 2.075960 0.000000 
#    z 0.000000 0.000000 2.338460 
# 
# From -- ./inp_files/4033.got.cif
#   From: 2010.05.17/outbox.cif.g08.bks.cpg/sg151_3_cif.got.tgz:4033.got - 2010.05.20 10:33:20.
