data_PCOD9575543
_publ_section_title
;
Structure prediction by ZEFSAII (Michael W. Deem and Ramdas Pophale) SiO2 
 PCOD9575543
Probable space group: P 31 1 2
;
_chemical_formula_sum "Si O2"
_cell_formula_units_Z 36
_cell_length_a 12.223670
_cell_length_b 12.223670
_cell_length_c 14.273715
_cell_angle_alpha 90.000000
_cell_angle_beta 90.000000
_cell_angle_gamma 120.000000
_cell_volume 1847.016973
_symmetry_space_group_name_H-M "P 31 1 2"
_symmetry_group_IT_number 151
_symmetry_cell_setting 'hexagonal'
loop_
_space_group_symop_operation_xyz
x,y,z
-y,x-y,1/3+z
-x+y,-x,2/3+z
-y,-x,2/3-z
-x+y,y,1/3-z
x,x-y,-z
loop_
_atom_site_type_symbol
_atom_site_label
_atom_site_fract_x
_atom_site_fract_y
_atom_site_fract_z
Si Si1 0.336450 0.866091 0.602853
Si Si2 0.247254 0.992450 0.852818
Si Si3 0.441310 0.220655 0.500000
Si Si4 0.961219 0.038781 0.333334
Si Si5 0.173907 0.573698 0.613855
Si Si6 0.509169 0.012382 0.896900
Si Si7 0.947225 0.760436 0.021436
O O1 0.461386 0.922771 0.666667
O O2 0.245836 0.723633 0.635183
O O3 0.397232 0.897243 0.499910
O O4 0.259201 0.937034 0.616478
O O5 0.157514 0.842487 0.833334
O O6 0.167954 0.022438 0.927225
O O7 0.383710 0.021275 0.883958
O O8 0.256254 0.064810 0.756704
O O9 0.510366 0.370602 0.521882
O O10 0.348328 0.181374 0.410970
O O11 0.097187 0.083699 0.378837
O O12 0.265324 0.530648 0.666667
O O13 0.165596 0.582798 0.500000
O O14 0.037453 0.495996 0.663920
#
# Coordination Sequence:
#
# PCOD9575543 Si02
#       7
#     6   6   3   3   6   6   6
#     4  10  19  34  64  93 122 159 211 267 319 387
#     4  10  21  39  68  94 118 163 217 277 325 378
#     4  10  26  42  58  92 132 178 216 254 320 396
#     4  10  22  38  62  98 124 154 218 270 324 378
#     4  11  21  34  57 100 137 164 204 271 344 385
#     4  11  22  42  62  91 128 174 225 257 321 400
#     4  10  21  40  61  88 123 167 209 260 318 389
#
# _framework density 19.490888999999999
#
# number of rings (size 3 to 8) (size 9 to 14) (size 15 to 20)
#    0.000    1.667    3.333    2.000    5.833    0.000 
#    7.500    1.667    0.000    0.000    2.167    0.000 
#    0.000    0.000    0.000    0.000    0.000    0.000 
#
# Total GULP energy -200491.538421 kJ/mol
# GULP energy per Si atom -5569.209401 kJ/mol
# Density = 1.944653 g / cm^3
# Si number density = 19.490889 Si / 1000 Ang^3
#
#
#
# Elastic Constant Matrix: (Units=GPa)
#
#
# Indices 1 2 3 4 5 6 
#
# 1 45.0553 58.8725 10.2038 -0.0007 23.8369 0.0000
# 2 58.8725 45.0553 10.2038 0.0007 -23.8369 0.0000
# 3 10.2038 10.2038 104.8077 0.0000 0.0000 0.0000
# 4 -0.0007 0.0007 0.0000 4.1456 0.0000 -23.8369
# 5 23.8369 -23.8369 0.0000 0.0000 4.1456 -0.0007
# 6 0.0000 0.0000 0.0000 -23.8369 -0.0007 -6.9086
#
#
#
# Elastic Compliance Matrix: (Units=1/GPa)
#
#
# Indices 1 2 3 4 5 6 
#
# 1 0.003168 0.006641 -0.000955 -0.000001 0.019969 0.000000
# 2 0.006641 0.003168 -0.000955 0.000001 -0.019969 0.000000
# 3 -0.000955 -0.000955 0.009727 0.000000 0.000000 0.000000
# 4 -0.000001 0.000001 0.000000 0.011575 0.000000 -0.039939
# 5 0.019969 -0.019969 0.000000 0.000000 0.011575 -0.000001
# 6 0.000000 0.000000 0.000000 -0.039939 -0.000001 -0.006946
#
#
# Mechanical properties :
#
#
# Convention : Reuss Voigt Hill
#
# Bulk Modulus (GPa) = 39.17528 39.27538 39.22533
# Shear Modulus (GPa) = 159.66728 7.98571 83.82650
#
# Velocity S-wave (km/s) = 9.06073 2.02634 6.56517
# Velocity P-wave (km/s) = 11.38443 5.06647 8.81120
#
# Compressibility (1/GPa) = 0.02552630
#
# Stress axis : x y z
#
# Youngs Moduli (GPa) = 315.62316 315.62316 102.80405
#
# Poissons Ratio (x) = -2.09614 0.09818
# Poissons Ratio (y) = -2.09614 0.09818
# Poissons Ratio (z) = 0.30143 0.30143
#
# Static dielectric constant tensor:
#      x y z
#    x 1.696030 0.000000 0.000000 
#    y 0.000000 1.696030 0.000000 
#    z 0.000000 0.000000 1.786300 
# 
# From -- ./inp_files/2966.got.cif
#   From: 2010.05.17/outbox.cif.g08.bks.cpg/sg151_2_cif.got.tgz:2966.got - 2010.05.20 10:33:20.
