data_PCOD9575378
_publ_section_title
;
Structure prediction by ZEFSAII (Michael W. Deem and Ramdas Pophale) SiO2 
 PCOD9575378
Probable space group: P 3 1 2
;
_chemical_formula_sum "Si O2"
_cell_formula_units_Z 41
_cell_length_a 8.640647
_cell_length_b 8.640647
_cell_length_c 30.711488
_cell_angle_alpha 90.000000
_cell_angle_beta 90.000000
_cell_angle_gamma 120.000000
_cell_volume 1985.747465
_symmetry_space_group_name_H-M "P 3 1 2"
_symmetry_group_IT_number 149
_symmetry_cell_setting 'hexagonal'
loop_
_space_group_symop_operation_xyz
x,y,z
-y,x-y,z
-x+y,-x,z
-y,-x,-z
-x+y,y,-z
x,x-y,-z
loop_
_atom_site_type_symbol
_atom_site_label
_atom_site_fract_x
_atom_site_fract_y
_atom_site_fract_z
Si Si1 0.323531 0.312894 0.377990
Si Si2 0.640403 0.639418 0.411007
Si Si3 0.329975 0.017826 0.721875
Si Si4 0.651476 0.977438 0.756250
Si Si5 0.450972 0.549029 0.500000
Si Si6 0.039593 0.339746 0.143690
Si Si7 0.360928 0.038653 0.889824
Si Si8 0.666668 0.333334 0.051699
O O1 0.518518 0.486778 0.377173
O O2 0.314844 0.157383 0.408007
O O3 0.300794 0.249806 0.328296
O O4 0.182990 0.366686 0.397443
O O5 0.545441 0.540956 0.456323
O O6 0.188657 0.810671 0.727903
O O7 0.518025 0.043478 0.738937
O O8 0.289074 0.148505 0.750205
O O9 0.629782 0.908541 0.805836
O O10 0.525125 0.762563 0.500000
O O11 0.188632 0.349060 0.110192
O O12 0.988120 0.489872 0.133674
O O13 0.859509 0.152443 0.136907
O O14 0.477339 0.169085 0.929961
O O15 0.666668 0.333334 0.000000
#
# Coordination Sequence:
#
# PCOD9575378 Si02
#       8
#     6   6   6   6   3   6   6   2
#     4  12  24  44  67  95 133 174 214 254 317 381
#     4  12  25  45  73  99 130 167 203 260 316 386
#     4  12  25  40  59  92 127 176 223 267 311 378
#     4  12  24  39  61  88 131 174 224 276 316 366
#     4  10  20  48  72 100 120 146 192 252 318 382
#     4  11  20  38  58  91 124 173 221 275 332 377
#     4  10  22  37  63  91 128 168 221 274 333 402
#     4   9  21  45  69  96 129 168 213 276 345 411
#
# _framework density 20.647134999999999
#
# number of rings (size 3 to 8) (size 9 to 14) (size 15 to 20)
#    0.146    0.585    1.463    7.902    0.000    0.585 
#    0.000    2.927    0.000    0.000    0.000    0.000 
#    0.000    0.000    0.000    0.000    0.000    0.000 
#
# Total GULP energy -228636.390636 kJ/mol
# GULP energy per Si atom -5576.497333 kJ/mol
# Density = 2.060014 g / cm^3
# Si number density = 20.647135 Si / 1000 Ang^3
#
#
#
# Elastic Constant Matrix: (Units=GPa)
#
#
# Indices 1 2 3 4 5 6 
#
# 1 57.9961 -12.1709 17.3265 0.0000 -5.5413 0.0000
# 2 -12.1709 57.9962 17.3265 0.0000 5.5413 0.0000
# 3 17.3265 17.3265 106.1160 0.0001 0.0001 -0.0001
# 4 0.0000 0.0000 0.0001 7.2245 0.0000 5.5413
# 5 -5.5413 5.5413 0.0001 0.0000 7.2244 0.0000
# 6 0.0000 0.0000 -0.0001 5.5413 0.0000 35.0835
#
#
#
# Elastic Compliance Matrix: (Units=1/GPa)
#
#
# Indices 1 2 3 4 5 6 
#
# 1 0.020556 0.004340 -0.004065 0.000000 0.012438 0.000000
# 2 0.004340 0.020556 -0.004065 0.000000 -0.012438 0.000000
# 3 -0.004065 -0.004065 0.010751 0.000000 0.000000 0.000000
# 4 0.000000 0.000000 0.000000 0.157499 -0.000001 -0.024877
# 5 0.012438 -0.012438 0.000000 -0.000001 0.157500 0.000000
# 6 0.000000 0.000000 0.000000 -0.024877 0.000000 0.032433
#
#
# Mechanical properties :
#
#
# Convention : Reuss Voigt Hill
#
# Bulk Modulus (GPa) = 22.58200 29.67474 26.12837
# Shear Modulus (GPa) = 11.85855 23.21490 17.53673
#
# Velocity S-wave (km/s) = 2.39915 3.35679 2.91753
# Velocity P-wave (km/s) = 4.31687 5.42472 4.90219
#
# Compressibility (1/GPa) = 0.04428305
#
# Stress axis : x y z
#
# Youngs Moduli (GPa) = 48.64730 48.64735 93.01377
#
# Poissons Ratio (x) = -0.21112 0.37810
# Poissons Ratio (y) = -0.21112 0.37810
# Poissons Ratio (z) = 0.19775 0.19775
#
# Static dielectric constant tensor:
#      x y z
#    x 1.752590 0.000000 0.000000 
#    y 0.000000 1.752590 0.000000 
#    z 0.000000 0.000000 1.765970 
# 
# From -- ./inp_files/1178.got.cif
#   From: 2010.05.17/outbox.cif.g08.bks.cpg/sg149_cif.got.tgz:1178.got - 2010.05.20 13:52:34.
