data_PCOD9575727
_publ_section_title
;
Structure prediction by ZEFSAII (Michael W. Deem and Ramdas Pophale) SiO2 
 PCOD9575727
Probable space group: P 31 2 1
;
_chemical_formula_sum "Si O2"
_cell_formula_units_Z 33
_cell_length_a 13.872614
_cell_length_b 13.872614
_cell_length_c 10.561142
_cell_angle_alpha 90.000000
_cell_angle_beta 90.000000
_cell_angle_gamma 120.000000
_cell_volume 1760.184200
_symmetry_space_group_name_H-M "P 31 2 1"
_symmetry_group_IT_number 152
_symmetry_cell_setting 'hexagonal'
loop_
_space_group_symop_operation_xyz
x,y,z
-y,x-y,1/3+z
-x+y,-x,2/3+z
x-y,-y,2/3-z
-x,-x+y,1/3-z
y,x,-z
loop_
_atom_site_type_symbol
_atom_site_label
_atom_site_fract_x
_atom_site_fract_y
_atom_site_fract_z
Si Si1 0.664512 0.850249 0.183521
Si Si2 0.522532 0.522532 0.500000
Si Si3 0.660901 0.038929 0.034369
Si Si4 0.808265 0.000000 0.833334
Si Si5 0.000000 0.887613 0.666667
Si Si6 0.771156 0.584511 0.542812
Si Si7 0.000000 0.168012 0.166667
Si Si8 0.199185 0.000000 0.333334
O O1 0.787575 0.941615 0.234441
O O2 0.587445 0.786538 0.304507
O O3 0.695427 0.779918 0.087073
O O4 0.625679 0.926698 0.113112
O O5 0.462182 0.444544 0.619370
O O6 0.644153 0.532458 0.497391
O O7 0.705986 0.146021 0.127177
O O8 0.758514 0.051245 0.937942
O O9 0.917431 0.097619 0.761363
O O10 0.901502 0.903484 0.617099
O O11 0.820082 0.714711 0.515019
#
# Coordination Sequence:
#
# PCOD9575727 Si02
#       8
#     6   3   6   3   3   6   3   3
#     4  10  19  34  57  82 121 155 188 232 287 363
#     4  10  24  38  64  90 114 154 208 264 318 366
#     4  10  19  41  58  83 118 159 194 250 316 362
#     4   9  22  32  47  80 126 164 185 229 277 353
#     4  10  18  27  42  81 116 160 180 209 248 336
#     4  10  20  38  62  82 113 154 197 243 298 370
#     4   9  18  28  45  78 114 146 181 209 259 329
#     4  10  22  29  44  83 124 162 186 213 258 342
#
# _framework density 18.748035999999999
#
# number of rings (size 3 to 8) (size 9 to 14) (size 15 to 20)
#    0.000    2.182    3.636    0.000    7.636    2.182 
#    0.000    1.818    4.000    0.000    0.000    0.000 
#    0.000    0.000    0.000    0.000    0.000    0.000 
#
# Total GULP energy -183706.227436 kJ/mol
# GULP energy per Si atom -5566.855377 kJ/mol
# Density = 1.870536 g / cm^3
# Si number density = 18.748036 Si / 1000 Ang^3
#
#
#
# Elastic Constant Matrix: (Units=GPa)
#
#
# Indices 1 2 3 4 5 6 
#
# 1 78.8899 37.2984 47.5757 5.2753 0.0000 0.0000
# 2 37.2984 78.8899 47.5757 -5.2753 0.0000 0.0000
# 3 47.5757 47.5757 117.6137 0.0000 0.0000 0.0000
# 4 5.2753 -5.2753 0.0000 25.7359 0.0000 0.0000
# 5 0.0000 0.0000 0.0000 0.0000 25.7359 5.2753
# 6 0.0000 0.0000 0.0000 0.0000 5.2753 20.7957
#
#
#
# Elastic Compliance Matrix: (Units=1/GPa)
#
#
# Indices 1 2 3 4 5 6 
#
# 1 0.019116 -0.006246 -0.005206 -0.005199 0.000000 0.000000
# 2 -0.006246 0.019116 -0.005206 0.005199 0.000000 0.000000
# 3 -0.005206 -0.005206 0.012714 0.000000 0.000000 0.000000
# 4 -0.005199 0.005199 0.000000 0.040987 0.000000 0.000000
# 5 0.000000 0.000000 0.000000 0.000000 0.040987 -0.010397
# 6 0.000000 0.000000 0.000000 0.000000 -0.010397 0.050724
#
#
# Mechanical properties :
#
#
# Convention : Reuss Voigt Hill
#
# Bulk Modulus (GPa) = 56.72075 60.03257 58.37666
# Shear Modulus (GPa) = 22.43773 23.98310 23.21042
#
# Velocity S-wave (km/s) = 3.46324 3.58052 3.52237
# Velocity P-wave (km/s) = 6.80529 7.01311 6.90998
#
# Compressibility (1/GPa) = 0.01763023
#
# Stress axis : x y z
#
# Youngs Moduli (GPa) = 52.31168 52.31168 78.65202
#
# Poissons Ratio (x) = 0.32674 0.40947
# Poissons Ratio (y) = 0.32674 0.40947
# Poissons Ratio (z) = 0.27234 0.27234
#
# Static dielectric constant tensor:
#      x y z
#    x 1.652540 0.000000 0.000000 
#    y 0.000000 1.652540 0.000000 
#    z 0.000000 0.000000 1.844640 
# 
# From -- ./inp_files/1744.got.cif
#   From: 2010.05.17/outbox.cif.g08.bks.cpg/sg152_1_cif.got.tgz:1744.got - 2010.05.20 10:36:06.
