data_PCOD9575139
_publ_section_title
;
Structure prediction by ZEFSAII (Michael W. Deem and Ramdas Pophale) SiO2 
 PCOD9575139
Probable space group: R -3
;
_chemical_formula_sum "Si O2"
_cell_formula_units_Z 54
_cell_length_a 16.682694
_cell_length_b 16.682694
_cell_length_c 6.743227
_cell_angle_alpha 90.000000
_cell_angle_beta 90.000000
_cell_angle_gamma 120.000000
_cell_volume 1625.289685
_symmetry_space_group_name_H-M "R -3"
_symmetry_group_IT_number 148
_symmetry_cell_setting 'hexagonal'
loop_
_space_group_symop_operation_xyz
x,y,z
-y,x-y,z
-x+y,-x,z
-x,-y,-z
y,-x+y,-z
x-y,x,-z
2/3+x,1/3+y,1/3+z
2/3-y,1/3+x-y,1/3+z
2/3-x+y,1/3-x,1/3+z
2/3-x,1/3-y,1/3-z
2/3+y,1/3-x+y,1/3-z
2/3+x-y,1/3+x,1/3-z
1/3+x,2/3+y,2/3+z
1/3-y,2/3+x-y,2/3+z
1/3-x+y,2/3-x,2/3+z
1/3-x,2/3-y,2/3-z
1/3+y,2/3-x+y,2/3-z
1/3+x-y,2/3+x,2/3-z
loop_
_atom_site_type_symbol
_atom_site_label
_atom_site_fract_x
_atom_site_fract_y
_atom_site_fract_z
Si Si1 0.863328 0.441801 0.079157
Si Si2 0.778550 0.243495 0.059415
Si Si3 0.057627 0.363627 0.633817
O O1 0.872072 0.446224 0.843336
O O2 0.882019 0.268879 0.135439
O O3 0.837761 0.519374 0.148353
O O4 0.941375 0.434071 0.201233
O O5 0.778856 0.337666 0.111635
O O6 0.976817 0.295583 0.474876
#
# Coordination Sequence:
#
# PCOD9575139 Si02
#       3
#    18  18  18
#     4   9  17  32  61  97 127 173 236 284 338 419
#     4   9  17  32  61  97 127 173 236 284 338 419
#     4  10  21  38  66  98 135 180 230 286 351 422
#
# _framework density 33.224850000000004
#
# number of rings (size 3 to 8) (size 9 to 14) (size 15 to 20)
#    0.000    2.667    0.000    1.667    0.000    2.667 
#    0.000    0.000    0.000  194.000    0.000   21.000 
#    0.000    0.000    0.000    0.000    0.000    0.000 
#
# Total GULP energy -100277.939494 kJ/mol
# GULP energy per Si atom -5570.996639 kJ/mol
# Density = 3.314923 g / cm^3
# Si number density = 33.224850 Si / 1000 Ang^3
#
#
#
# Elastic Constant Matrix: (Units=GPa)
#
#
# Indices 1 2 3 4 5 6 
#
# 1 232.5791 53.7681 -10.4008 -5.7833 28.2577 0.0014
# 2 53.7681 232.5755 -10.4071 5.7872 -28.2442 0.0008
# 3 -10.4008 -10.4071 272.3777 0.0084 0.0223 0.0029
# 4 -5.7833 5.7872 0.0084 15.0365 0.0055 -28.2481
# 5 28.2577 -28.2442 0.0223 0.0055 15.0538 -5.7835
# 6 0.0014 0.0008 0.0029 -28.2481 -5.7835 89.4050
#
#
#
# Elastic Compliance Matrix: (Units=1/GPa)
#
#
# Indices 1 2 3 4 5 6 
#
# 1 0.009072 -0.005569 0.000136 0.005668 -0.027476 0.000013
# 2 -0.005569 0.009070 0.000132 -0.005671 0.027467 -0.000015
# 3 0.000136 0.000132 0.003682 -0.000006 -0.000014 -0.000003
# 4 0.005668 -0.005671 -0.000006 0.174306 -0.000190 0.055061
# 5 -0.027476 0.027467 -0.000014 -0.000190 0.173834 0.011185
# 6 0.000013 -0.000015 -0.000003 0.055061 0.011185 0.029305
#
#
# Mechanical properties :
#
#
# Convention : Reuss Voigt Hill
#
# Bulk Modulus (GPa) = 89.12125 89.27252 89.19688
# Shear Modulus (GPa) = 12.08861 70.87052 41.47956
#
# Velocity S-wave (km/s) = 1.90953 4.62351 3.53717
# Velocity P-wave (km/s) = 5.63415 7.44514 6.60203
#
# Compressibility (1/GPa) = 0.01122067
#
# Stress axis : x y z
#
# Youngs Moduli (GPa) = 110.22600 110.25685 271.62155
#
# Poissons Ratio (x) = 0.61402 -0.03686
# Poissons Ratio (y) = 0.61385 -0.03580
# Poissons Ratio (z) = -0.01496 -0.01453
#
# Static dielectric constant tensor:
#      x y z
#    x 2.779980 0.000000 -0.000010 
#    y 0.000000 2.779980 0.000000 
#    z -0.000010 0.000000 2.930910 
# 
# From -- ./inp_files/726.got.cif
#   From: 2010.05.17/outbox.cif.g08.bks.cpg/sg148_1_cif.got.tgz:726.got - 2010.05.20 13:50:20.
