data_PCOD9575887
_publ_section_title
;
Structure prediction by ZEFSAII (Michael W. Deem and Ramdas Pophale) SiO2 
 PCOD9575887
Probable space group: P 31 2 1
;
_chemical_formula_sum "Si O2"
_cell_formula_units_Z 30
_cell_length_a 18.124331
_cell_length_b 18.124331
_cell_length_c 4.957131
_cell_angle_alpha 90.000000
_cell_angle_beta 90.000000
_cell_angle_gamma 120.000000
_cell_volume 1410.213921
_symmetry_space_group_name_H-M "P 31 2 1"
_symmetry_group_IT_number 152
_symmetry_cell_setting 'hexagonal'
loop_
_space_group_symop_operation_xyz
x,y,z
-y,x-y,1/3+z
-x+y,-x,2/3+z
x-y,-y,2/3-z
-x,-x+y,1/3-z
y,x,-z
loop_
_atom_site_type_symbol
_atom_site_label
_atom_site_fract_x
_atom_site_fract_y
_atom_site_fract_z
Si Si1 0.171300 0.171300 0.500000
Si Si2 0.167694 0.000000 0.333334
Si Si3 0.615685 0.236690 0.602142
Si Si4 0.276667 0.276667 0.000000
Si Si5 0.267584 0.000000 0.833334
Si Si6 0.437781 0.262135 0.063647
Si Si7 0.157571 0.428681 0.423817
O O1 0.080278 0.160422 0.571560
O O2 0.235171 0.211299 0.752021
O O3 0.199775 0.967882 0.588863
O O4 0.686163 0.289164 0.825559
O O5 0.662223 0.197379 0.427565
O O6 0.518968 0.164558 0.648481
O O7 0.286920 0.365475 0.895147
O O8 0.351401 0.069589 0.678733
O O9 0.425884 0.186777 0.270268
O O10 0.424925 0.227693 0.762294
#
# Coordination Sequence:
#
# PCOD9575887 Si02
#       7
#     3   3   6   3   3   6   6
#     4  12  26  45  69  94 128 168 220 264 316 383
#     4  12  26  45  69  94 128 168 220 264 316 383
#     4  10  20  40  64  94 124 168 222 266 306 384
#     4  12  24  43  65  96 134 168 208 268 330 385
#     4  12  24  43  65  96 134 168 208 268 330 385
#     4  11  23  40  66  93 127 170 216 263 325 379
#     4  11  23  40  66  93 127 170 216 263 325 379
#
# _framework density 21.27337
#
# number of rings (size 3 to 8) (size 9 to 14) (size 15 to 20)
#    0.000    0.800    2.000    7.200    0.000    1.600 
#    0.000   10.000    0.000    0.000    0.000    0.000 
#    0.000    0.000    0.000    0.000    0.000    0.000 
#
# Total GULP energy -167513.342588 kJ/mol
# GULP energy per Si atom -5583.778086 kJ/mol
# Density = 2.122495 g / cm^3
# Si number density = 21.273370 Si / 1000 Ang^3
#
#
#
# Elastic Constant Matrix: (Units=GPa)
#
#
# Indices 1 2 3 4 5 6 
#
# 1 102.1191 66.3275 19.6920 -6.7671 -0.0001 0.0000
# 2 66.3275 102.1191 19.6920 6.7671 0.0001 0.0000
# 3 19.6920 19.6920 83.4751 0.0000 0.0000 0.0000
# 4 -6.7671 6.7671 0.0000 24.8277 0.0000 0.0001
# 5 -0.0001 0.0001 0.0000 0.0000 24.8277 -6.7671
# 6 0.0000 0.0000 0.0000 0.0001 -6.7671 17.8958
#
#
#
# Elastic Compliance Matrix: (Units=1/GPa)
#
#
# Indices 1 2 3 4 5 6 
#
# 1 0.018717 -0.012433 -0.001482 0.008490 0.000000 0.000000
# 2 -0.012433 0.018717 -0.001482 -0.008490 0.000000 0.000000
# 3 -0.001482 -0.001482 0.012679 0.000000 0.000000 0.000000
# 4 0.008490 -0.008490 0.000000 0.044906 0.000000 0.000000
# 5 0.000000 0.000000 0.000000 0.000000 0.044906 0.016981
# 6 0.000000 0.000000 0.000000 0.000000 0.016981 0.062300
#
#
# Mechanical properties :
#
#
# Convention : Reuss Voigt Hill
#
# Bulk Modulus (GPa) = 51.76953 55.45962 53.61458
# Shear Modulus (GPa) = 20.88040 25.64369 23.26205
#
# Velocity S-wave (km/s) = 3.13633 3.47571 3.31037
# Velocity P-wave (km/s) = 6.12402 6.49876 6.31417
#
# Compressibility (1/GPa) = 0.01931638
#
# Stress axis : x y z
#
# Youngs Moduli (GPa) = 53.42837 53.42837 78.87094
#
# Poissons Ratio (x) = 0.66430 0.11690
# Poissons Ratio (y) = 0.66430 0.11690
# Poissons Ratio (z) = 0.07919 0.07919
#
# Static dielectric constant tensor:
#      x y z
#    x 1.824920 0.000000 0.000000 
#    y 0.000000 1.824920 0.000000 
#    z 0.000000 0.000000 1.797850 
# 
# From -- ./inp_files/401.got.cif
#   From: 2010.05.17/outbox.cif.g08.bks.cpg/sg152_1_cif.got.tgz:401.got - 2010.05.20 10:36:06.
