data_PCOD9575123
_publ_section_title
;
Structure prediction by ZEFSAII (Michael W. Deem and Ramdas Pophale) SiO2 
 PCOD9575123
Probable space group: R -3
;
_chemical_formula_sum "Si O2"
_cell_formula_units_Z 108
_cell_length_a 19.462590
_cell_length_b 19.462590
_cell_length_c 14.199719
_cell_angle_alpha 90.000000
_cell_angle_beta 90.000000
_cell_angle_gamma 120.000000
_cell_volume 4658.130481
_symmetry_space_group_name_H-M "R -3"
_symmetry_group_IT_number 148
_symmetry_cell_setting 'hexagonal'
loop_
_space_group_symop_operation_xyz
x,y,z
-y,x-y,z
-x+y,-x,z
-x,-y,-z
y,-x+y,-z
x-y,x,-z
2/3+x,1/3+y,1/3+z
2/3-y,1/3+x-y,1/3+z
2/3-x+y,1/3-x,1/3+z
2/3-x,1/3-y,1/3-z
2/3+y,1/3-x+y,1/3-z
2/3+x-y,1/3+x,1/3-z
1/3+x,2/3+y,2/3+z
1/3-y,2/3+x-y,2/3+z
1/3-x+y,2/3-x,2/3+z
1/3-x,2/3-y,2/3-z
1/3+y,2/3-x+y,2/3-z
1/3+x-y,2/3+x,2/3-z
loop_
_atom_site_type_symbol
_atom_site_label
_atom_site_fract_x
_atom_site_fract_y
_atom_site_fract_z
Si Si1 0.574615 0.059203 0.215438
Si Si2 0.486377 0.203499 0.103961
Si Si3 0.879413 0.555098 0.380541
Si Si4 0.719670 0.724170 0.661034
Si Si5 0.492432 0.206705 0.624138
Si Si6 0.570381 0.660105 0.119012
O O1 0.653170 0.120831 0.272557
O O2 0.510032 0.077943 0.256246
O O3 0.588579 0.079589 0.105671
O O4 0.553118 0.970413 0.237129
O O5 0.473828 0.182228 0.214637
O O6 0.513436 0.292937 0.078744
O O7 0.556017 0.187157 0.065584
O O8 0.405482 0.134505 0.056621
O O9 0.965585 0.633286 0.385374
O O10 0.765639 0.765484 0.564756
O O11 0.725955 0.665589 0.738232
O O12 0.473749 0.178551 0.731591
#
# Coordination Sequence:
#
# PCOD9575123 Si02
#       6
#    18  18  18  18  18  18
#     4  10  21  37  61  91 124 161 205 254 309 364
#     4  11  24  41  63  91 127 167 207 250 302 366
#     4  10  21  37  61  91 124 161 205 254 309 364
#     4  11  22  41  63  94 124 157 204 254 313 363
#     4  11  24  41  63  91 127 167 207 250 302 366
#     4  11  22  41  63  94 124 157 204 254 313 363
#
# _framework density 23.185268000000001
#
# number of rings (size 3 to 8) (size 9 to 14) (size 15 to 20)
#    0.000    1.333    3.333    2.333    0.000    3.333 
#    0.000    5.000    0.000    7.333    0.000    0.000 
#    0.000    0.000    0.000    0.000    0.000    0.000 
#
# Total GULP energy -200667.016907 kJ/mol
# GULP energy per Si atom -5574.083803 kJ/mol
# Density = 2.313250 g / cm^3
# Si number density = 23.185268 Si / 1000 Ang^3
#
#
#
# Elastic Constant Matrix: (Units=GPa)
#
#
# Indices 1 2 3 4 5 6 
#
# 1 46.9557 -0.8732 -5.2657 3.8957 -3.2461 0.0000
# 2 -0.8732 46.9557 -5.2657 -3.8957 3.2461 0.0000
# 3 -5.2657 -5.2657 75.5011 0.0000 0.0000 0.0000
# 4 3.8957 -3.8957 0.0000 21.8093 0.0000 3.2461
# 5 -3.2461 3.2461 0.0000 0.0000 21.8093 3.8957
# 6 0.0000 0.0000 0.0000 3.2461 3.8957 23.9145
#
#
#
# Elastic Compliance Matrix: (Units=1/GPa)
#
#
# Indices 1 2 3 4 5 6 
#
# 1 0.022022 0.000030 0.001538 -0.003928 0.003273 0.000000
# 2 0.000030 0.022022 0.001538 0.003928 -0.003273 0.000000
# 3 0.001538 0.001538 0.013459 0.000000 0.000000 0.000000
# 4 -0.003928 0.003928 0.000000 0.048230 0.000000 -0.006547
# 5 0.003273 -0.003273 0.000000 0.000000 0.048230 -0.007857
# 6 0.000000 0.000000 0.000000 -0.006547 -0.007857 0.043984
#
#
# Mechanical properties :
#
#
# Convention : Reuss Voigt Hill
#
# Bulk Modulus (GPa) = 15.69499 16.28925 15.99212
# Shear Modulus (GPa) = 23.47708 25.56110 24.51909
#
# Velocity S-wave (km/s) = 3.18557 3.32395 3.25549
# Velocity P-wave (km/s) = 4.50716 4.66610 4.58732
#
# Compressibility (1/GPa) = 0.06371461
#
# Stress axis : x y z
#
# Youngs Moduli (GPa) = 45.40934 45.40934 74.29772
#
# Poissons Ratio (x) = -0.00135 -0.11427
# Poissons Ratio (y) = -0.00135 -0.11427
# Poissons Ratio (z) = -0.06984 -0.06984
#
# Static dielectric constant tensor:
#      x y z
#    x 1.910720 0.000000 0.000000 
#    y 0.000000 1.910720 0.000000 
#    z 0.000000 0.000000 1.908900 
# 
# From -- ./inp_files/2051.got.cif
#   From: 2010.05.17/outbox.cif.g08.bks.cpg/sg148_2_cif.got.tgz:2051.got - 2010.05.20 13:50:20.
