data_PCOD9575883
_publ_section_title
;
Structure prediction by ZEFSAII (Michael W. Deem and Ramdas Pophale) SiO2 
 PCOD9575883
Probable space group: P 31 2 1
;
_chemical_formula_sum "Si O2"
_cell_formula_units_Z 21
_cell_length_a 14.973769
_cell_length_b 14.973769
_cell_length_c 4.983574
_cell_angle_alpha 90.000000
_cell_angle_beta 90.000000
_cell_angle_gamma 120.000000
_cell_volume 967.684536
_symmetry_space_group_name_H-M "P 31 2 1"
_symmetry_group_IT_number 152
_symmetry_cell_setting 'hexagonal'
loop_
_space_group_symop_operation_xyz
x,y,z
-y,x-y,1/3+z
-x+y,-x,2/3+z
x-y,-y,2/3-z
-x,-x+y,1/3-z
y,x,-z
loop_
_atom_site_type_symbol
_atom_site_label
_atom_site_fract_x
_atom_site_fract_y
_atom_site_fract_z
Si Si1 0.000000 0.897977 0.166667
Si Si2 0.503954 0.714853 0.547603
Si Si3 0.072916 0.278872 0.408299
Si Si4 0.872878 0.427799 0.625639
O O1 0.084734 0.882617 0.019626
O O2 0.068416 0.000000 0.333334
O O3 0.507651 0.659207 0.270838
O O4 0.438508 0.621624 0.756284
O O5 0.475462 0.802817 0.480955
O O6 0.165132 0.392296 0.387991
O O7 0.000000 0.248740 0.666667
O O8 0.000000 0.266361 0.166667
O O9 0.000000 0.500517 0.666667
#
# Coordination Sequence:
#
# PCOD9575883 Si02
#       4
#     3   6   6   6
#     4  10  20  40  62  94 134 170 214 264 332 414
#     4  12  25  47  73 101 141 184 241 293 358 417
#     4  11  23  41  68  96 135 177 220 272 342 412
#     4  12  26  48  75 105 143 190 242 300 362 427
#
# _framework density 21.701287000000001
#
# number of rings (size 3 to 8) (size 9 to 14) (size 15 to 20)
#    0.000    0.571    1.429    8.571    0.000    0.000 
#   20.571    0.000    0.000    0.000    0.000    0.000 
#    0.000    0.000    0.000    0.000    0.000    0.000 
#
# Total GULP energy -116946.467399 kJ/mol
# GULP energy per Si atom -5568.879400 kJ/mol
# Density = 2.165189 g / cm^3
# Si number density = 21.701287 Si / 1000 Ang^3
#
#
#
# Elastic Constant Matrix: (Units=GPa)
#
#
# Indices 1 2 3 4 5 6 
#
# 1 150.1417 61.7088 40.2409 -5.9896 0.0003 0.0000
# 2 61.7088 150.1417 40.2409 5.9896 -0.0003 0.0000
# 3 40.2409 40.2409 131.6506 0.0000 0.0000 0.0000
# 4 -5.9896 5.9896 0.0000 25.5127 0.0000 -0.0003
# 5 0.0003 -0.0003 0.0000 0.0000 25.5127 -5.9896
# 6 0.0000 0.0000 0.0000 -0.0003 -5.9896 44.2165
#
#
#
# Elastic Compliance Matrix: (Units=1/GPa)
#
#
# Indices 1 2 3 4 5 6 
#
# 1 0.008510 -0.003169 -0.001632 0.002742 0.000000 0.000000
# 2 -0.003169 0.008510 -0.001632 -0.002742 0.000000 0.000000
# 3 -0.001632 -0.001632 0.008594 0.000000 0.000000 0.000000
# 4 0.002742 -0.002742 0.000000 0.040484 0.000000 0.000000
# 5 0.000000 0.000000 0.000000 0.000000 0.040484 0.005484
# 6 0.000000 0.000000 0.000000 0.000000 0.005484 0.023359
#
#
# Mechanical properties :
#
#
# Convention : Reuss Voigt Hill
#
# Bulk Modulus (GPa) = 78.46122 79.59056 79.02589
# Shear Modulus (GPa) = 34.00046 38.36459 36.18253
#
# Velocity S-wave (km/s) = 3.96251 4.20914 4.08769
# Velocity P-wave (km/s) = 7.56101 7.77030 7.66637
#
# Compressibility (1/GPa) = 0.01274515
#
# Stress axis : x y z
#
# Youngs Moduli (GPa) = 117.50957 117.50957 116.36308
#
# Poissons Ratio (x) = 0.37245 0.18995
# Poissons Ratio (y) = 0.37245 0.18995
# Poissons Ratio (z) = 0.19182 0.19182
#
# Static dielectric constant tensor:
#      x y z
#    x 1.950620 0.000000 0.000000 
#    y 0.000000 1.950620 0.000000 
#    z 0.000000 0.000000 1.829970 
# 
# From -- ./inp_files/136.got.cif
#   From: 2010.05.17/outbox.cif.g08.bks.cpg/sg152_1_cif.got.tgz:136.got - 2010.05.20 10:36:06.
