data_PCOD9575109
_publ_section_title
;
Structure prediction by ZEFSAII (Michael W. Deem and Ramdas Pophale) SiO2 
 PCOD9575109
Probable space group: R -3
;
_chemical_formula_sum "Si O2"
_cell_formula_units_Z 54
_cell_length_a 9.295573
_cell_length_b 9.295573
_cell_length_c 26.772311
_cell_angle_alpha 90.000000
_cell_angle_beta 90.000000
_cell_angle_gamma 120.000000
_cell_volume 2003.405329
_symmetry_space_group_name_H-M "R -3"
_symmetry_group_IT_number 148
_symmetry_cell_setting 'hexagonal'
loop_
_space_group_symop_operation_xyz
x,y,z
-y,x-y,z
-x+y,-x,z
-x,-y,-z
y,-x+y,-z
x-y,x,-z
2/3+x,1/3+y,1/3+z
2/3-y,1/3+x-y,1/3+z
2/3-x+y,1/3-x,1/3+z
2/3-x,1/3-y,1/3-z
2/3+y,1/3-x+y,1/3-z
2/3+x-y,1/3+x,1/3-z
1/3+x,2/3+y,2/3+z
1/3-y,2/3+x-y,2/3+z
1/3-x+y,2/3-x,2/3+z
1/3-x,2/3-y,2/3-z
1/3+y,2/3-x+y,2/3-z
1/3+x-y,2/3+x,2/3-z
loop_
_atom_site_type_symbol
_atom_site_label
_atom_site_fract_x
_atom_site_fract_y
_atom_site_fract_z
Si Si1 0.023218 0.576531 0.632734
Si Si2 0.279154 0.134903 0.884671
Si Si3 0.634606 0.810444 0.440039
O O1 0.102353 0.740955 0.668074
O O2 0.152763 0.652641 0.586158
O O3 0.999753 0.314029 0.568157
O O4 0.218992 0.094620 0.827893
O O5 0.444162 0.321836 0.885479
O O6 0.311025 0.853852 0.393599
#
# Coordination Sequence:
#
# PCOD9575109 Si02
#       3
#    18  18  18
#     4  10  21  34  52  82 109 142 177 220 259 316
#     4   8  15  30  55  79  99 136 181 215 253 314
#     4   8  15  30  55  79  99 136 181 215 253 314
#
# _framework density 26.954105999999999
#
# number of rings (size 3 to 8) (size 9 to 14) (size 15 to 20)
#    2.000    1.333    0.000    1.000    0.000    4.000 
#    0.000    1.667    0.000    0.000    8.667    0.000 
#    0.000    0.000    0.000    0.000    0.000    0.000 
#
# Total GULP energy -100385.685787 kJ/mol
# GULP energy per Si atom -5576.982544 kJ/mol
# Density = 2.689276 g / cm^3
# Si number density = 26.954106 Si / 1000 Ang^3
#
#
#
# Elastic Constant Matrix: (Units=GPa)
#
#
# Indices 1 2 3 4 5 6 
#
# 1 129.7464 49.2382 43.8761 -1.0225 -4.4783 0.0000
# 2 49.2382 129.7464 43.8761 1.0225 4.4783 0.0000
# 3 43.8761 43.8761 197.3343 0.0000 0.0000 0.0000
# 4 -1.0225 1.0225 0.0000 17.7927 0.0000 4.4783
# 5 -4.4783 4.4783 0.0000 0.0000 17.7927 -1.0225
# 6 0.0000 0.0000 0.0000 4.4783 -1.0225 40.2541
#
#
#
# Elastic Compliance Matrix: (Units=1/GPa)
#
#
# Indices 1 2 3 4 5 6 
#
# 1 0.009534 -0.003264 -0.001394 0.000735 0.003221 0.000000
# 2 -0.003264 0.009534 -0.001394 -0.000735 -0.003221 0.000000
# 3 -0.001394 -0.001394 0.005688 0.000000 0.000000 0.000000
# 4 0.000735 -0.000735 0.000000 0.057909 0.000000 -0.006442
# 5 0.003221 -0.003221 0.000000 0.000000 0.057909 0.001471
# 6 0.000000 0.000000 0.000000 -0.006442 0.001471 0.025596
#
#
# Mechanical properties :
#
#
# Convention : Reuss Voigt Hill
#
# Bulk Modulus (GPa) = 79.03972 81.20086 80.12029
# Shear Modulus (GPa) = 27.39848 36.49036 31.94442
#
# Velocity S-wave (km/s) = 3.19170 3.68339 3.44632
# Velocity P-wave (km/s) = 6.55515 6.94844 6.75466
#
# Compressibility (1/GPa) = 0.01265187
#
# Stress axis : x y z
#
# Youngs Moduli (GPa) = 104.88352 104.88352 175.82279
#
# Poissons Ratio (x) = 0.34231 0.24514
# Poissons Ratio (y) = 0.34231 0.24514
# Poissons Ratio (z) = 0.14623 0.14623
#
# Static dielectric constant tensor:
#      x y z
#    x 2.055400 0.000000 0.000000 
#    y 0.000000 2.055400 0.000000 
#    z 0.000000 0.000000 2.206470 
# 
# From -- ./inp_files/3252.got.cif
#   From: 2010.05.17/outbox.cif.g08.bks.cpg/sg148_2_cif.got.tgz:3252.got - 2010.05.20 13:50:20.
