data_PCOD9575748
_publ_section_title
;
Structure prediction by ZEFSAII (Michael W. Deem and Ramdas Pophale) SiO2 
 PCOD9575748
Probable space group: P 31 2 1
;
_chemical_formula_sum "Si O2"
_cell_formula_units_Z 36
_cell_length_a 12.097869
_cell_length_b 12.097869
_cell_length_c 14.061443
_cell_angle_alpha 90.000000
_cell_angle_beta 90.000000
_cell_angle_gamma 120.000000
_cell_volume 1782.289619
_symmetry_space_group_name_H-M "P 31 2 1"
_symmetry_group_IT_number 152
_symmetry_cell_setting 'hexagonal'
loop_
_space_group_symop_operation_xyz
x,y,z
-y,x-y,1/3+z
-x+y,-x,2/3+z
x-y,-y,2/3-z
-x,-x+y,1/3-z
y,x,-z
loop_
_atom_site_type_symbol
_atom_site_label
_atom_site_fract_x
_atom_site_fract_y
_atom_site_fract_z
Si Si1 0.730854 0.000000 0.833334
Si Si2 0.642191 0.726644 0.841016
Si Si3 0.590708 0.984109 0.637346
Si Si4 0.404078 0.762738 0.132335
Si Si5 0.834534 0.535128 0.545769
Si Si6 0.711598 0.558293 0.714597
Si Si7 0.543181 0.543181 0.000000
O O1 0.738856 0.873752 0.841576
O O2 0.653225 0.989812 0.737868
O O3 0.509532 0.693973 0.790237
O O4 0.707510 0.653431 0.792636
O O5 0.583092 0.671928 0.944103
O O6 0.650394 0.129743 0.597827
O O7 0.598314 0.891259 0.556087
O O8 0.437205 0.916733 0.647610
O O9 0.323998 0.609977 0.116716
O O10 0.471721 0.761013 0.232204
O O11 0.798508 0.611591 0.620985
O O12 0.942207 0.507033 0.587378
#
# Coordination Sequence:
#
# PCOD9575748 Si02
#       7
#     3   6   6   6   6   6   3
#     4  12  26  42  56  86 136 178 218 258 318 430
#     4  11  23  39  62  93 123 172 215 257 333 403
#     4  10  22  38  56  95 126 175 207 263 348 395
#     4  10  18  36  64  93 127 155 207 262 338 395
#     4  11  19  35  62  93 128 162 208 275 331 388
#     4  10  20  37  61  99 125 160 216 277 333 402
#     4  12  18  36  64  94 120 160 216 262 314 396
#
# _framework density 20.198737999999999
#
# number of rings (size 3 to 8) (size 9 to 14) (size 15 to 20)
#    0.000    1.333    6.667    2.000    0.000    0.000 
#    9.000    0.000    0.000    3.000    0.000    0.000 
#    0.000    0.000    0.000    0.000    0.000    0.000 
#
# Total GULP energy -200422.415670 kJ/mol
# GULP energy per Si atom -5567.289324 kJ/mol
# Density = 2.015276 g / cm^3
# Si number density = 20.198738 Si / 1000 Ang^3
#
#
#
# Elastic Constant Matrix: (Units=GPa)
#
#
# Indices 1 2 3 4 5 6 
#
# 1 60.0658 13.8269 17.2755 6.6726 0.0000 0.0000
# 2 13.8269 60.0658 17.2755 -6.6726 0.0000 0.0000
# 3 17.2755 17.2755 107.3894 0.0000 0.0000 0.0000
# 4 6.6726 -6.6726 0.0000 23.9297 0.0000 0.0000
# 5 0.0000 0.0000 0.0000 0.0000 23.9297 6.6726
# 6 0.0000 0.0000 0.0000 0.0000 6.6726 23.1195
#
#
#
# Elastic Compliance Matrix: (Units=1/GPa)
#
#
# Indices 1 2 3 4 5 6 
#
# 1 0.019077 -0.004443 -0.002354 -0.006558 0.000000 0.000000
# 2 -0.004443 0.019077 -0.002354 0.006558 0.000000 0.000000
# 3 -0.002354 -0.002354 0.010069 0.000000 0.000000 0.000000
# 4 -0.006558 0.006558 0.000000 0.045447 0.000000 0.000000
# 5 0.000000 0.000000 0.000000 0.000000 0.045447 -0.013117
# 6 0.000000 0.000000 0.000000 0.000000 -0.013117 0.047039
#
#
# Mechanical properties :
#
#
# Convention : Reuss Voigt Hill
#
# Bulk Modulus (GPa) = 33.42181 36.03076 34.72629
# Shear Modulus (GPa) = 23.31754 26.13864 24.72809
#
# Velocity S-wave (km/s) = 3.40134 3.60123 3.50271
# Velocity P-wave (km/s) = 5.65755 5.93031 5.79554
#
# Compressibility (1/GPa) = 0.02992058
#
# Stress axis : x y z
#
# Youngs Moduli (GPa) = 52.41986 52.41986 99.31168
#
# Poissons Ratio (x) = 0.23289 0.23379
# Poissons Ratio (y) = 0.23289 0.23379
# Poissons Ratio (z) = 0.12340 0.12340
#
# Static dielectric constant tensor:
#      x y z
#    x 1.751230 0.000000 0.000000 
#    y 0.000000 1.751230 0.000000 
#    z 0.000000 0.000000 1.850500 
# 
# From -- ./inp_files/2075.got.cif
#   From: 2010.05.17/outbox.cif.g08.bks.cpg/sg152_2_cif.got.tgz:2075.got - 2010.05.20 10:36:06.
