data_PCOD9575965
_publ_section_title
;
Structure prediction by ZEFSAII (Michael W. Deem and Ramdas Pophale) SiO2 
 PCOD9575965
Probable space group: P 31 2 1
;
_chemical_formula_sum "Si O2"
_cell_formula_units_Z 42
_cell_length_a 11.814806
_cell_length_b 11.814806
_cell_length_c 15.654489
_cell_angle_alpha 90.000000
_cell_angle_beta 90.000000
_cell_angle_gamma 120.000000
_cell_volume 1892.442607
_symmetry_space_group_name_H-M "P 31 2 1"
_symmetry_group_IT_number 152
_symmetry_cell_setting 'hexagonal'
loop_
_space_group_symop_operation_xyz
x,y,z
-y,x-y,1/3+z
-x+y,-x,2/3+z
x-y,-y,2/3-z
-x,-x+y,1/3-z
y,x,-z
loop_
_atom_site_type_symbol
_atom_site_label
_atom_site_fract_x
_atom_site_fract_y
_atom_site_fract_z
Si Si1 0.260064 0.573332 0.883375
Si Si2 0.138858 0.645254 0.393966
Si Si3 0.975168 0.339612 0.904749
Si Si4 0.879802 0.613124 0.429959
Si Si5 0.000000 0.012775 0.666667
Si Si6 0.669839 0.533937 0.050585
Si Si7 0.200142 0.253604 0.408227
Si Si8 0.852952 0.852952 0.500000
O O1 0.305511 0.568964 0.787929
O O2 0.223927 0.687227 0.888265
O O3 0.376627 0.593167 0.944663
O O4 0.127730 0.439027 0.901176
O O5 0.086369 0.494494 0.369052
O O6 0.190215 0.754590 0.320568
O O7 0.025195 0.641967 0.454497
O O8 0.907198 0.325035 0.813302
O O9 0.936601 0.192482 0.922896
O O10 0.907070 0.633565 0.327642
O O11 0.845755 0.716738 0.472071
O O12 0.886838 0.038223 0.701162
O O13 0.943713 0.917206 0.584230
O O14 0.597777 0.597777 0.000000
O O15 0.262316 0.262316 0.500000
#
# Coordination Sequence:
#
# PCOD9575965 Si02
#       8
#     6   6   6   6   3   6   6   3
#     4  10  22  41  63  92 132 167 218 278 336 407
#     4  10  21  40  63  91 128 169 224 276 329 412
#     4  10  22  39  60  91 126 169 216 277 341 393
#     4  10  23  43  66  96 137 178 223 285 349 415
#     4  10  22  38  60  94 136 172 228 286 346 424
#     4  11  21  39  65  94 122 171 226 273 332 404
#     4  11  22  40  64  92 129 175 226 280 350 405
#     4  10  22  42  62 100 136 184 228 292 356 424
#
# _framework density 22.193541
#
# number of rings (size 3 to 8) (size 9 to 14) (size 15 to 20)
#    0.000    1.714    2.143    1.714    2.000    0.000 
#   12.857    0.000   12.571    0.000    0.000    0.000 
#    0.000    0.000    0.000    0.000    0.000    0.000 
#
# Total GULP energy -234324.451531 kJ/mol
# GULP energy per Si atom -5579.153608 kJ/mol
# Density = 2.214303 g / cm^3
# Si number density = 22.193541 Si / 1000 Ang^3
#
#
#
# Elastic Constant Matrix: (Units=GPa)
#
#
# Indices 1 2 3 4 5 6 
#
# 1 75.2513 8.2288 4.7613 6.6594 0.0000 0.0000
# 2 8.2288 75.2513 4.7613 -6.6594 0.0000 0.0000
# 3 4.7613 4.7613 80.3431 0.0000 0.0000 0.0000
# 4 6.6594 -6.6594 0.0000 13.5835 0.0000 0.0000
# 5 0.0000 0.0000 0.0000 0.0000 13.5835 6.6594
# 6 0.0000 0.0000 0.0000 0.0000 6.6594 33.5112
#
#
#
# Elastic Compliance Matrix: (Units=1/GPa)
#
#
# Indices 1 2 3 4 5 6 
#
# 1 0.014296 -0.002235 -0.000715 -0.008104 0.000000 0.000000
# 2 -0.002235 0.014296 -0.000715 0.008104 0.000000 0.000000
# 3 -0.000715 -0.000715 0.012531 0.000000 0.000000 0.000000
# 4 -0.008104 0.008104 0.000000 0.081565 0.000000 0.000000
# 5 0.000000 0.000000 0.000000 0.000000 0.081565 -0.016209
# 6 0.000000 0.000000 0.000000 0.000000 -0.016209 0.033062
#
#
# Mechanical properties :
#
#
# Convention : Reuss Voigt Hill
#
# Bulk Modulus (GPa) = 29.59168 29.59429 29.59298
# Shear Modulus (GPa) = 19.53818 26.34191 22.94004
#
# Velocity S-wave (km/s) = 2.97030 3.44890 3.21851
# Velocity P-wave (km/s) = 5.01258 5.40588 5.21294
#
# Compressibility (1/GPa) = 0.03379328
#
# Stress axis : x y z
#
# Youngs Moduli (GPa) = 69.95128 69.95128 79.80001
#
# Poissons Ratio (x) = 0.15636 0.05704
# Poissons Ratio (y) = 0.15636 0.05704
# Poissons Ratio (z) = 0.05000 0.05000
#
# Static dielectric constant tensor:
#      x y z
#    x 1.900120 0.000000 0.000000 
#    y 0.000000 1.900120 0.000000 
#    z 0.000000 0.000000 1.867120 
# 
# From -- ./inp_files/2497.got.cif
#   From: 2010.05.17/outbox.cif.g08.bks.cpg/sg152_2_cif.got.tgz:2497.got - 2010.05.20 10:36:06.
