data_PCOD9575606
_publ_section_title
;
Structure prediction by ZEFSAII (Michael W. Deem and Ramdas Pophale) SiO2 
 PCOD9575606
Probable space group: P 31 1 2
;
_chemical_formula_sum "Si O2"
_cell_formula_units_Z 36
_cell_length_a 8.453704
_cell_length_b 8.453704
_cell_length_c 23.614617
_cell_angle_alpha 90.000000
_cell_angle_beta 90.000000
_cell_angle_gamma 120.000000
_cell_volume 1461.522859
_symmetry_space_group_name_H-M "P 31 1 2"
_symmetry_group_IT_number 151
_symmetry_cell_setting 'hexagonal'
loop_
_space_group_symop_operation_xyz
x,y,z
-y,x-y,1/3+z
-x+y,-x,2/3+z
-y,-x,2/3-z
-x+y,y,1/3-z
x,x-y,-z
loop_
_atom_site_type_symbol
_atom_site_label
_atom_site_fract_x
_atom_site_fract_y
_atom_site_fract_z
Si Si1 0.473533 0.224408 0.373506
Si Si2 0.126103 0.596423 0.664628
Si Si3 0.031611 0.240481 0.039183
Si Si4 0.923725 0.135382 0.206661
Si Si5 0.909298 0.408701 0.133864
Si Si6 0.254913 0.447699 0.871983
O O1 0.609289 0.390712 0.333334
O O2 0.511504 0.061872 0.359018
O O3 0.273820 0.179591 0.350117
O O4 0.515156 0.303172 0.437093
O O5 0.123632 0.659877 0.600983
O O6 0.254221 0.508441 0.666667
O O7 0.226834 0.788694 0.697082
O O8 0.128847 0.133103 0.064805
O O9 0.912443 0.268313 0.087177
O O10 0.096270 0.192540 0.166667
O O11 0.867515 0.287316 0.190789
O O12 0.762495 0.937627 0.189786
O O13 0.105216 0.594907 0.135673
O O14 0.423984 0.576017 0.833334
#
# Coordination Sequence:
#
# PCOD9575606 Si02
#       6
#     6   6   6   6   6   6
#     4  10  23  41  70  98 137 177 234 284 340 414
#     4  12  25  43  69 102 135 184 233 281 348 418
#     4  10  20  45  70  93 134 184 222 280 352 406
#     4  10  25  43  71  99 139 179 229 286 350 411
#     4  10  21  48  68  95 139 189 218 283 356 411
#     4  12  26  43  69 102 140 181 237 281 352 425
#
# _framework density 24.631841999999999
#
# number of rings (size 3 to 8) (size 9 to 14) (size 15 to 20)
#    0.000    1.333    3.333    2.000    9.333    1.333 
#    0.000    0.833    0.000    0.000    0.000    0.000 
#    0.000    0.000    0.000    0.000    0.000    0.000 
#
# Total GULP energy -200973.990125 kJ/mol
# GULP energy per Si atom -5582.610837 kJ/mol
# Density = 2.457578 g / cm^3
# Si number density = 24.631842 Si / 1000 Ang^3
#
#
#
# Elastic Constant Matrix: (Units=GPa)
#
#
# Indices 1 2 3 4 5 6 
#
# 1 109.4598 -66.9215 0.6721 0.0006 11.8470 0.0000
# 2 -66.9215 109.4598 0.6721 -0.0006 -11.8470 0.0000
# 3 0.6721 0.6721 41.6425 0.0000 0.0000 0.0000
# 4 0.0006 -0.0006 0.0000 26.0520 0.0000 -11.8470
# 5 11.8470 -11.8470 0.0000 0.0000 26.0520 0.0006
# 6 0.0000 0.0000 0.0000 -11.8470 0.0006 88.1906
#
#
#
# Elastic Compliance Matrix: (Units=1/GPa)
#
#
# Indices 1 2 3 4 5 6 
#
# 1 0.014779 0.008741 -0.000380 0.000000 -0.002746 0.000000
# 2 0.008741 0.014779 -0.000380 0.000000 0.002746 0.000000
# 3 -0.000380 -0.000380 0.024026 0.000000 0.000000 0.000000
# 4 0.000000 0.000000 0.000000 0.040882 0.000000 0.005492
# 5 -0.002746 0.002746 0.000000 0.000000 0.040882 0.000000
# 6 0.000000 0.000000 0.000000 0.005492 0.000000 0.012077
#
#
# Mechanical properties :
#
#
# Convention : Reuss Voigt Hill
#
# Bulk Modulus (GPa) = 14.37850 14.37859 14.37854
# Shear Modulus (GPa) = 32.33205 49.80155 41.06680
#
# Velocity S-wave (km/s) = 3.62693 4.50136 4.08760
# Velocity P-wave (km/s) = 4.83627 5.73292 5.30358
#
# Compressibility (1/GPa) = 0.06954830
#
# Stress axis : x y z
#
# Youngs Moduli (GPa) = 67.66211 67.66211 41.62127
#
# Poissons Ratio (x) = -0.59143 0.01580
# Poissons Ratio (y) = -0.59143 0.01580
# Poissons Ratio (z) = 0.02568 0.02568
#
# Static dielectric constant tensor:
#      x y z
#    x 1.891920 0.000000 0.000000 
#    y 0.000000 1.891920 0.000000 
#    z 0.000000 0.000000 1.940760 
# 
# From -- ./inp_files/4609.got.cif
#   From: 2010.05.17/outbox.cif.g08.bks.cpg/sg151_3_cif.got.tgz:4609.got - 2010.05.20 10:33:20.
