data_PCOD9575997
_publ_section_title
;
Structure prediction by ZEFSAII (Michael W. Deem and Ramdas Pophale) SiO2 
 PCOD9575997
Probable space group: P 31 2 1
;
_chemical_formula_sum "Si O2"
_cell_formula_units_Z 39
_cell_length_a 8.779746
_cell_length_b 8.779746
_cell_length_c 25.116307
_cell_angle_alpha 90.000000
_cell_angle_beta 90.000000
_cell_angle_gamma 120.000000
_cell_volume 1676.680519
_symmetry_space_group_name_H-M "P 31 2 1"
_symmetry_group_IT_number 152
_symmetry_cell_setting 'hexagonal'
loop_
_space_group_symop_operation_xyz
x,y,z
-y,x-y,1/3+z
-x+y,-x,2/3+z
x-y,-y,2/3-z
-x,-x+y,1/3-z
y,x,-z
loop_
_atom_site_type_symbol
_atom_site_label
_atom_site_fract_x
_atom_site_fract_y
_atom_site_fract_z
Si Si1 0.000000 0.888753 0.166667
Si Si2 0.749728 0.245816 0.816560
Si Si3 0.837805 0.862382 0.421347
Si Si4 0.582274 0.905366 0.243372
Si Si5 0.052597 0.658642 0.298471
Si Si6 0.290331 0.973486 0.020768
Si Si7 0.613947 0.613947 0.500000
Si Si8 0.614958 0.614958 0.000000
O O1 0.173686 0.872810 0.161569
O O2 0.973123 0.977024 0.114039
O O3 0.828351 0.449371 0.805819
O O4 0.574226 0.157811 0.851235
O O5 0.689102 0.147791 0.758798
O O6 0.810664 0.823796 0.359728
O O7 0.756330 0.681850 0.453340
O O8 0.714803 0.941387 0.438519
O O9 0.625120 0.766124 0.272916
O O10 0.489794 0.977931 0.283752
O O11 0.036149 0.487823 0.327257
O O12 0.862712 0.644832 0.293010
O O13 0.191802 0.828521 0.332709
#
# Coordination Sequence:
#
# PCOD9575997 Si02
#       8
#     3   6   6   6   6   6   3   3
#     4  10  24  42  66  90 128 186 222 256 324 386
#     4  10  22  43  64  92 128 171 222 267 316 399
#     4  11  23  41  63  92 131 172 218 267 320 398
#     4  11  23  40  66  95 133 159 218 274 330 383
#     4  11  24  39  66  96 132 168 216 271 339 384
#     4  12  24  41  66  99 133 173 211 277 342 395
#     4  10  22  42  64  80 126 178 218 262 316 376
#     4  10  22  38  62  98 124 164 204 266 332 390
#
# _framework density 23.260245999999999
#
# number of rings (size 3 to 8) (size 9 to 14) (size 15 to 20)
#    0.000    1.231    3.077    2.769    6.462    1.231 
#    0.000    0.000    0.000    0.000    0.000    0.000 
#    0.000    0.000    0.000    0.000    0.000    0.000 
#
# Total GULP energy -217966.673135 kJ/mol
# GULP energy per Si atom -5588.889055 kJ/mol
# Density = 2.320730 g / cm^3
# Si number density = 23.260246 Si / 1000 Ang^3
#
#
#
# Elastic Constant Matrix: (Units=GPa)
#
#
# Indices 1 2 3 4 5 6 
#
# 1 120.8172 41.7239 23.0386 6.3357 0.0001 0.0000
# 2 41.7239 120.8172 23.0386 -6.3357 -0.0001 0.0000
# 3 23.0386 23.0386 42.9432 0.0000 0.0000 0.0000
# 4 6.3357 -6.3357 0.0000 27.7661 0.0000 -0.0001
# 5 0.0001 -0.0001 0.0000 0.0000 27.7661 6.3357
# 6 0.0000 0.0000 0.0000 -0.0001 6.3357 39.5467
#
#
#
# Elastic Compliance Matrix: (Units=1/GPa)
#
#
# Indices 1 2 3 4 5 6 
#
# 1 0.010189 -0.002934 -0.003893 -0.002994 0.000000 0.000000
# 2 -0.002934 0.010189 -0.003893 0.002994 0.000000 0.000000
# 3 -0.003893 -0.003893 0.027463 0.000000 0.000000 0.000000
# 4 -0.002994 0.002994 0.000000 0.037382 0.000000 0.000000
# 5 0.000000 0.000000 0.000000 0.000000 0.037382 -0.005989
# 6 0.000000 0.000000 0.000000 0.000000 -0.005989 0.026246
#
#
# Mechanical properties :
#
#
# Convention : Reuss Voigt Hill
#
# Bulk Modulus (GPa) = 37.87267 51.13111 44.50189
# Shear Modulus (GPa) = 27.91878 32.13420 30.02649
#
# Velocity S-wave (km/s) = 3.46826 3.72090 3.59680
# Velocity P-wave (km/s) = 5.68823 6.36318 6.03515
#
# Compressibility (1/GPa) = 0.02640426
#
# Stress axis : x y z
#
# Youngs Moduli (GPa) = 98.14117 98.14117 36.41215
#
# Poissons Ratio (x) = 0.28791 0.14174
# Poissons Ratio (y) = 0.28791 0.14174
# Poissons Ratio (z) = 0.38203 0.38203
#
# Static dielectric constant tensor:
#      x y z
#    x 1.885320 0.000000 0.000000 
#    y 0.000000 1.885320 0.000000 
#    z 0.000000 0.000000 1.938760 
# 
# From -- ./inp_files/3679.got.cif
#   From: 2010.05.17/outbox.cif.g08.bks.cpg/sg152_2_cif.got.tgz:3679.got - 2010.05.20 10:36:06.
