data_PCOD9575846
_publ_section_title
;
Structure prediction by ZEFSAII (Michael W. Deem and Ramdas Pophale) SiO2 
 PCOD9575846
Probable space group: P 31 2 1
;
_chemical_formula_sum "Si O2"
_cell_formula_units_Z 24
_cell_length_a 8.344698
_cell_length_b 8.344698
_cell_length_c 17.140456
_cell_angle_alpha 90.000000
_cell_angle_beta 90.000000
_cell_angle_gamma 120.000000
_cell_volume 1033.651766
_symmetry_space_group_name_H-M "P 31 2 1"
_symmetry_group_IT_number 152
_symmetry_cell_setting 'hexagonal'
loop_
_space_group_symop_operation_xyz
x,y,z
-y,x-y,1/3+z
-x+y,-x,2/3+z
x-y,-y,2/3-z
-x,-x+y,1/3-z
y,x,-z
loop_
_atom_site_type_symbol
_atom_site_label
_atom_site_fract_x
_atom_site_fract_y
_atom_site_fract_z
Si Si1 0.281898 0.765229 0.621874
Si Si2 0.429835 0.000000 0.833334
Si Si3 0.778600 0.057288 0.226948
Si Si4 0.956584 0.956584 0.000000
Si Si5 0.365456 0.437774 0.654200
O O1 0.171185 0.775045 0.697278
O O2 0.318114 0.599106 0.640597
O O3 0.135357 0.723599 0.552517
O O4 0.471081 0.959558 0.617317
O O5 0.380543 0.165322 0.828280
O O6 0.533764 0.977417 0.760346
O O7 0.932395 0.005149 0.256090
O O8 0.757003 0.940307 0.000933
#
# Coordination Sequence:
#
# PCOD9575846 Si02
#       5
#     6   3   6   3   6
#     4   9  18  35  59  80 109 150 189 217 274 349
#     4  10  22  36  54  84 120 142 184 248 290 318
#     4   9  19  38  57  82 111 145 185 235 280 336
#     4  10  20  36  62  82 108 154 192 222 284 358
#     4  11  20  37  60  86 112 150 192 236 281 340
#
# _framework density 23.218653
#
# number of rings (size 3 to 8) (size 9 to 14) (size 15 to 20)
#    0.000    2.500    0.000    6.000    0.000    1.000 
#    0.000   17.500    0.000    0.000    0.000    0.000 
#    0.000    0.000    0.000    0.000    0.000    0.000 
#
# Total GULP energy -133802.680060 kJ/mol
# GULP energy per Si atom -5575.111669 kJ/mol
# Density = 2.316581 g / cm^3
# Si number density = 23.218653 Si / 1000 Ang^3
#
#
#
# Elastic Constant Matrix: (Units=GPa)
#
#
# Indices 1 2 3 4 5 6 
#
# 1 157.8733 80.1160 1.2845 6.0382 0.0001 0.0000
# 2 80.1160 157.8733 1.2845 -6.0382 -0.0001 0.0000
# 3 1.2845 1.2845 27.1788 0.0000 0.0000 0.0000
# 4 6.0382 -6.0382 0.0000 21.9904 0.0000 -0.0001
# 5 0.0001 -0.0001 0.0000 0.0000 21.9904 6.0382
# 6 0.0000 0.0000 0.0000 -0.0001 6.0382 38.8786
#
#
#
# Elastic Compliance Matrix: (Units=1/GPa)
#
#
# Indices 1 2 3 4 5 6 
#
# 1 0.008819 -0.004615 -0.000199 -0.003689 0.000000 0.000000
# 2 -0.004615 0.008819 -0.000199 0.003689 0.000000 0.000000
# 3 -0.000199 -0.000199 0.036812 0.000000 0.000000 0.000000
# 4 -0.003689 0.003689 0.000000 0.047500 0.000000 0.000000
# 5 0.000000 0.000000 0.000000 0.000000 0.047500 -0.007377
# 6 0.000000 0.000000 0.000000 0.000000 -0.007377 0.026867
#
#
# Mechanical properties :
#
#
# Convention : Reuss Voigt Hill
#
# Bulk Modulus (GPa) = 22.50958 56.47724 39.49341
# Shear Modulus (GPa) = 24.85720 33.92126 29.38923
#
# Velocity S-wave (km/s) = 3.27551 3.82638 3.56161
# Velocity P-wave (km/s) = 4.90111 6.62559 5.82750
#
# Compressibility (1/GPa) = 0.04442553
#
# Stress axis : x y z
#
# Youngs Moduli (GPa) = 113.39524 113.39524 27.16490
#
# Poissons Ratio (x) = 0.52328 0.00540
# Poissons Ratio (y) = 0.52328 0.00540
# Poissons Ratio (z) = 0.02253 0.02253
#
# Static dielectric constant tensor:
#      x y z
#    x 1.926680 0.000000 0.000000 
#    y 0.000000 1.926680 0.000000 
#    z 0.000000 0.000000 2.000730 
# 
# From -- ./inp_files/2944.got.cif
#   From: 2010.05.17/outbox.cif.g08.bks.cpg/sg152_2_cif.got.tgz:2944.got - 2010.05.20 10:36:06.
