data_PCOD9575998
_publ_section_title
;
Structure prediction by ZEFSAII (Michael W. Deem and Ramdas Pophale) SiO2 
 PCOD9575998
Probable space group: P 31 2 1
;
_chemical_formula_sum "Si O2"
_cell_formula_units_Z 33
_cell_length_a 14.907828
_cell_length_b 14.907828
_cell_length_c 7.930696
_cell_angle_alpha 90.000000
_cell_angle_beta 90.000000
_cell_angle_gamma 120.000000
_cell_volume 1526.408168
_symmetry_space_group_name_H-M "P 31 2 1"
_symmetry_group_IT_number 152
_symmetry_cell_setting 'hexagonal'
loop_
_space_group_symop_operation_xyz
x,y,z
-y,x-y,1/3+z
-x+y,-x,2/3+z
x-y,-y,2/3-z
-x,-x+y,1/3-z
y,x,-z
loop_
_atom_site_type_symbol
_atom_site_label
_atom_site_fract_x
_atom_site_fract_y
_atom_site_fract_z
Si Si1 0.071622 0.000000 0.333334
Si Si2 0.788470 0.518211 0.147444
Si Si3 0.206810 0.270579 0.675216
Si Si4 0.677386 0.677386 0.500000
Si Si5 0.583028 0.000000 0.333334
Si Si6 0.367860 0.226838 0.840663
Si Si7 0.895302 0.418416 0.939063
O O1 0.090629 0.907361 0.381685
O O2 0.000000 0.971786 0.166667
O O3 0.839421 0.617983 0.025053
O O4 0.820347 0.562029 0.338659
O O5 0.664941 0.467562 0.153695
O O6 0.840425 0.451937 0.083675
O O7 0.238862 0.238862 0.500000
O O8 0.279651 0.256551 0.805137
O O9 0.785169 0.680205 0.545112
O O10 0.634133 0.591049 0.353887
O O11 0.574097 0.886477 0.351069
O O12 0.515563 0.980113 0.165529
#
# Coordination Sequence:
#
# PCOD9575998 Si02
#       7
#     3   6   6   3   3   6   6
#     4  10  22  38  62  98 132 174 226 277 331 416
#     4  10  22  43  67  90 133 181 218 287 350 413
#     4   9  19  40  62  87 127 171 208 264 343 398
#     4  10  24  44  68  98 132 180 232 290 342 426
#     4  12  24  40  68 100 128 180 224 289 345 426
#     4  10  22  42  66  94 133 178 224 272 355 407
#     4  11  24  42  68 100 134 178 232 288 353 419
#
# _framework density 21.619382000000002
#
# number of rings (size 3 to 8) (size 9 to 14) (size 15 to 20)
#    0.000    1.818    1.818    1.091    2.545    5.818 
#    9.818    0.000    0.000    0.000    0.000    0.000 
#    0.000    0.000    0.000    0.000    0.000    0.000 
#
# Total GULP energy -183956.537605 kJ/mol
# GULP energy per Si atom -5574.440533 kJ/mol
# Density = 2.157018 g / cm^3
# Si number density = 21.619382 Si / 1000 Ang^3
#
#
#
# Elastic Constant Matrix: (Units=GPa)
#
#
# Indices 1 2 3 4 5 6 
#
# 1 95.5396 41.6696 22.5363 -5.2081 -0.0001 0.0000
# 2 41.6696 95.5396 22.5363 5.2081 0.0001 0.0000
# 3 22.5363 22.5363 62.1506 0.0000 0.0000 0.0000
# 4 -5.2081 5.2081 0.0000 18.0698 0.0000 0.0001
# 5 -0.0001 0.0001 0.0000 0.0000 18.0698 -5.2081
# 6 0.0000 0.0000 0.0000 0.0001 -5.2081 26.9350
#
#
#
# Elastic Compliance Matrix: (Units=1/GPa)
#
#
# Indices 1 2 3 4 5 6 
#
# 1 0.013966 -0.005693 -0.003000 0.005666 0.000000 0.000000
# 2 -0.005693 0.013966 -0.003000 -0.005666 0.000000 0.000000
# 3 -0.003000 -0.003000 0.018266 0.000000 0.000000 0.000000
# 4 0.005666 -0.005666 0.000000 0.058607 0.000000 0.000000
# 5 0.000000 0.000000 0.000000 0.000000 0.058607 0.011332
# 6 0.000000 0.000000 0.000000 0.000000 0.011332 0.039318
#
#
# Mechanical properties :
#
#
# Convention : Reuss Voigt Hill
#
# Bulk Modulus (GPa) = 43.83542 47.41270 45.62406
# Shear Modulus (GPa) = 21.39316 23.71409 22.55362
#
# Velocity S-wave (km/s) = 3.14910 3.31553 3.23338
# Velocity P-wave (km/s) = 5.79158 6.05270 5.92358
#
# Compressibility (1/GPa) = 0.02281260
#
# Stress axis : x y z
#
# Youngs Moduli (GPa) = 71.60125 71.60125 54.74749
#
# Poissons Ratio (x) = 0.40760 0.16425
# Poissons Ratio (y) = 0.40760 0.16425
# Poissons Ratio (z) = 0.21481 0.21481
#
# Static dielectric constant tensor:
#      x y z
#    x 2.006470 0.000000 0.000000 
#    y 0.000000 2.006470 0.000000 
#    z 0.000000 0.000000 1.931910 
# 
# From -- ./inp_files/1178.got.cif
#   From: 2010.05.17/outbox.cif.g08.bks.cpg/sg152_1_cif.got.tgz:1178.got - 2010.05.20 10:36:06.
