data_PCOD9575809
_publ_section_title
;
Structure prediction by ZEFSAII (Michael W. Deem and Ramdas Pophale) SiO2 
 PCOD9575809
Probable space group: P 31 2 1
;
_chemical_formula_sum "Si O2"
_cell_formula_units_Z 42
_cell_length_a 8.770142
_cell_length_b 8.770142
_cell_length_c 29.672022
_cell_angle_alpha 90.000000
_cell_angle_beta 90.000000
_cell_angle_gamma 120.000000
_cell_volume 1976.473630
_symmetry_space_group_name_H-M "P 31 2 1"
_symmetry_group_IT_number 152
_symmetry_cell_setting 'hexagonal'
loop_
_space_group_symop_operation_xyz
x,y,z
-y,x-y,1/3+z
-x+y,-x,2/3+z
x-y,-y,2/3-z
-x,-x+y,1/3-z
y,x,-z
loop_
_atom_site_type_symbol
_atom_site_label
_atom_site_fract_x
_atom_site_fract_y
_atom_site_fract_z
Si Si1 0.687574 0.307378 0.448512
Si Si2 0.308301 0.117663 0.886987
Si Si3 0.980211 0.803089 0.937587
Si Si4 0.413381 0.395724 0.549429
Si Si5 0.068734 0.852500 0.037587
Si Si6 0.028527 0.658420 0.479603
Si Si7 0.735079 0.090652 0.376507
O O1 0.537339 0.354474 0.439792
O O2 0.869388 0.471366 0.464685
O O3 0.718433 0.239898 0.401415
O O4 0.638626 0.162599 0.487732
O O5 0.255851 0.190016 0.842902
O O6 0.335256 0.264288 0.922568
O O7 0.160964 0.941631 0.911769
O O8 0.484797 0.109983 0.877497
O O9 0.888966 0.651719 0.900172
O O10 0.028959 0.767277 0.987582
O O11 0.870566 0.902020 0.946433
O O12 0.327823 0.327823 0.500000
O O13 0.353218 0.253329 0.589232
O O14 0.223703 0.056783 0.033130
O O15 0.619227 0.000000 0.333334
#
# Coordination Sequence:
#
# PCOD9575809 Si02
#       7
#     6   6   6   6   6   6   6
#     4  11  26  39  63  96 126 162 214 257 316 373
#     4  10  19  41  68  84 125 171 204 247 320 378
#     4  10  19  43  64  89 124 167 208 246 319 385
#     4  12  24  42  61  95 128 159 208 268 310 371
#     4  10  23  39  69  92 120 162 216 259 305 377
#     4  11  23  40  64  94 129 168 206 265 317 377
#     4  10  21  44  64  90 122 166 210 254 308 387
#
# _framework density 21.249967000000002
#
# number of rings (size 3 to 8) (size 9 to 14) (size 15 to 20)
#    0.000    1.429    5.714    0.429    4.000    3.429 
#    2.571    0.000    0.000    0.000    0.000    0.000 
#    0.000    0.000    0.000    0.000    0.000    0.000 
#
# Total GULP energy -234351.031104 kJ/mol
# GULP energy per Si atom -5579.786455 kJ/mol
# Density = 2.120160 g / cm^3
# Si number density = 21.249967 Si / 1000 Ang^3
#
#
#
# Elastic Constant Matrix: (Units=GPa)
#
#
# Indices 1 2 3 4 5 6 
#
# 1 31.6498 3.3957 8.1505 1.8933 0.0003 0.0000
# 2 3.3957 31.6498 8.1505 -1.8933 -0.0003 0.0000
# 3 8.1505 8.1505 150.8439 0.0000 0.0000 0.0000
# 4 1.8933 -1.8933 0.0000 24.0485 0.0000 -0.0003
# 5 0.0003 -0.0003 0.0000 0.0000 24.0485 1.8933
# 6 0.0000 0.0000 0.0000 -0.0003 1.8933 14.1271
#
#
#
# Elastic Compliance Matrix: (Units=1/GPa)
#
#
# Indices 1 2 3 4 5 6 
#
# 1 0.032520 -0.003250 -0.001582 -0.002816 0.000000 0.000000
# 2 -0.003250 0.032520 -0.001582 0.002816 0.000000 0.000000
# 3 -0.001582 -0.001582 0.006800 0.000000 0.000000 0.000000
# 4 -0.002816 0.002816 0.000000 0.042026 0.000000 0.000001
# 5 0.000000 0.000000 0.000000 0.000000 0.042026 -0.005632
# 6 0.000000 0.000000 0.000000 0.000001 -0.005632 0.071541
#
#
# Mechanical properties :
#
#
# Convention : Reuss Voigt Hill
#
# Bulk Modulus (GPa) = 16.94510 28.17075 22.55793
# Shear Modulus (GPa) = 19.23583 25.40793 22.32188
#
# Velocity S-wave (km/s) = 3.01195 3.46160 3.24457
# Velocity P-wave (km/s) = 4.48188 5.40948 4.96738
#
# Compressibility (1/GPa) = 0.05901410
#
# Stress axis : x y z
#
# Youngs Moduli (GPa) = 30.75013 30.75013 147.05276
#
# Poissons Ratio (x) = 0.09994 0.23257
# Poissons Ratio (y) = 0.09994 0.23257
# Poissons Ratio (z) = 0.04863 0.04863
#
# Static dielectric constant tensor:
#      x y z
#    x 1.791370 0.000000 0.000000 
#    y 0.000000 1.791370 0.000000 
#    z 0.000000 0.000000 1.840950 
# 
# From -- ./inp_files/3690.got.cif
#   From: 2010.05.17/outbox.cif.g08.bks.cpg/sg152_2_cif.got.tgz:3690.got - 2010.05.20 10:36:06.
