data_PCOD9575526
_publ_section_title
;
Structure prediction by ZEFSAII (Michael W. Deem and Ramdas Pophale) SiO2 
 PCOD9575526
Probable space group: P 31 1 2
;
_chemical_formula_sum "Si O2"
_cell_formula_units_Z 18
_cell_length_a 7.368136
_cell_length_b 7.368136
_cell_length_c 18.518657
_cell_angle_alpha 90.000000
_cell_angle_beta 90.000000
_cell_angle_gamma 120.000000
_cell_volume 870.673620
_symmetry_space_group_name_H-M "P 31 1 2"
_symmetry_group_IT_number 151
_symmetry_cell_setting 'hexagonal'
loop_
_space_group_symop_operation_xyz
x,y,z
-y,x-y,1/3+z
-x+y,-x,2/3+z
-y,-x,2/3-z
-x+y,y,1/3-z
x,x-y,-z
loop_
_atom_site_type_symbol
_atom_site_label
_atom_site_fract_x
_atom_site_fract_y
_atom_site_fract_z
Si Si1 0.294491 0.427641 0.508788
Si Si2 0.657196 0.328598 0.500000
Si Si3 0.530144 0.765072 0.000000
Si Si4 0.690481 0.022938 0.274928
O O1 0.321600 0.660800 0.500000
O O2 0.503558 0.423168 0.489611
O O3 0.224611 0.356932 0.591381
O O4 0.110500 0.282241 0.454204
O O5 0.804717 0.348636 0.432703
O O6 0.389193 0.869040 0.016020
O O7 0.870495 0.129506 0.333334
#
# Coordination Sequence:
#
# PCOD9575526 Si02
#       4
#     6   3   3   6
#     4  10  23  43  64  98 132 169 225 277 330 400
#     4  12  22  44  70  94 128 184 222 266 346 396
#     4  10  18  40  68  90 134 170 212 280 328 390
#     4  11  22  43  67  94 139 175 217 286 331 392
#
# _framework density 20.673646999999999
#
# number of rings (size 3 to 8) (size 9 to 14) (size 15 to 20)
#    0.000    1.333    8.333    0.000    0.000    0.000 
#   18.000    0.000    0.000    0.000    0.000    0.000 
#    0.000    0.000    0.000    0.000    0.000    0.000 
#
# Total GULP energy -100473.030095 kJ/mol
# GULP energy per Si atom -5581.835005 kJ/mol
# Density = 2.062659 g / cm^3
# Si number density = 20.673647 Si / 1000 Ang^3
#
#
#
# Elastic Constant Matrix: (Units=GPa)
#
#
# Indices 1 2 3 4 5 6 
#
# 1 100.4044 27.6440 47.9889 0.0010 3.7410 0.0000
# 2 27.6440 100.4044 47.9889 -0.0010 -3.7410 0.0000
# 3 47.9889 47.9889 173.6115 0.0000 0.0000 0.0000
# 4 0.0010 -0.0010 0.0000 -2.8918 0.0000 -3.7410
# 5 3.7410 -3.7410 0.0000 0.0000 -2.8918 0.0010
# 6 0.0000 0.0000 0.0000 -3.7410 0.0010 36.3802
#
#
#
# Elastic Compliance Matrix: (Units=1/GPa)
#
#
# Indices 1 2 3 4 5 6 
#
# 1 0.010990 -0.001140 -0.002723 0.000004 0.015692 0.000000
# 2 -0.001140 0.010990 -0.002723 -0.000004 -0.015692 0.000000
# 3 -0.002723 -0.002723 0.007265 0.000000 0.000000 0.000000
# 4 0.000004 -0.000004 0.000000 -0.305201 0.000000 -0.031384
# 5 0.015692 -0.015692 0.000000 0.000000 -0.305201 0.000009
# 6 0.000000 0.000000 0.000000 -0.031384 0.000009 0.024260
#
#
# Mechanical properties :
#
#
# Convention : Reuss Voigt Hill
#
# Bulk Modulus (GPa) = 62.20905 69.07378 65.64141
# Shear Modulus (GPa) = -9.28734 22.83920 6.77593
#
# Velocity S-wave (km/s) = -2.12182 3.32738 1.81237
# Velocity P-wave (km/s) = 4.91462 6.94594 6.01662
#
# Compressibility (1/GPa) = 0.01607483
#
# Stress axis : x y z
#
# Youngs Moduli (GPa) = 90.98974 90.98974 137.64168
#
# Poissons Ratio (x) = 0.10371 0.37477
# Poissons Ratio (y) = 0.10371 0.37477
# Poissons Ratio (z) = 0.24775 0.24775
#
# Static dielectric constant tensor:
#      x y z
#    x 1.729950 0.000000 0.000000 
#    y 0.000000 1.729950 0.000000 
#    z 0.000000 0.000000 1.826890 
# 
# From -- ./inp_files/3148.got.cif
#   From: 2010.05.17/outbox.cif.g08.bks.cpg/sg151_2_cif.got.tgz:3148.got - 2010.05.20 10:33:20.
