data_PCOD9575690
_publ_section_title
;
Structure prediction by ZEFSAII (Michael W. Deem and Ramdas Pophale) SiO2 
 PCOD9575690
Probable space group: P 31 1 2
;
_chemical_formula_sum "Si O2"
_cell_formula_units_Z 18
_cell_length_a 10.387025
_cell_length_b 10.387025
_cell_length_c 8.005975
_cell_angle_alpha 90.000000
_cell_angle_beta 90.000000
_cell_angle_gamma 120.000000
_cell_volume 748.044123
_symmetry_space_group_name_H-M "P 31 1 2"
_symmetry_group_IT_number 151
_symmetry_cell_setting 'hexagonal'
loop_
_space_group_symop_operation_xyz
x,y,z
-y,x-y,1/3+z
-x+y,-x,2/3+z
-y,-x,2/3-z
-x+y,y,1/3-z
x,x-y,-z
loop_
_atom_site_type_symbol
_atom_site_label
_atom_site_fract_x
_atom_site_fract_y
_atom_site_fract_z
Si Si1 0.828012 0.770379 0.985801
Si Si2 0.621809 0.003482 0.571555
Si Si3 0.549043 0.843866 0.235623
O O1 0.860585 0.721170 0.166667
O O2 0.667471 0.717595 0.903366
O O3 0.906294 0.703544 0.872130
O O4 0.895684 0.947842 0.000000
O O5 0.539484 0.078967 0.666667
O O6 0.552332 0.942131 0.391896
O O7 0.593087 0.865096 0.690413
O O8 0.383148 0.766296 0.166667
#
# Coordination Sequence:
#
# PCOD9575690 Si02
#       3
#     6   6   6
#     4  12  25  44  75 108 152 192 253 314 382 460
#     4  11  26  45  72 106 150 198 251 315 389 451
#     4  11  26  44  72 106 144 193 256 313 376 463
#
# _framework density 24.062752
#
# number of rings (size 3 to 8) (size 9 to 14) (size 15 to 20)
#    0.000    0.667    3.333    3.000    9.333    0.000 
#    0.000    5.000    0.000    0.000    0.000    0.000 
#    0.000    0.000    0.000    0.000    0.000    0.000 
#
# Total GULP energy -100588.031839 kJ/mol
# GULP energy per Si atom -5588.223991 kJ/mol
# Density = 2.400798 g / cm^3
# Si number density = 24.062752 Si / 1000 Ang^3
#
#
#
# Elastic Constant Matrix: (Units=GPa)
#
#
# Indices 1 2 3 4 5 6 
#
# 1 113.4923 47.4997 25.4665 0.0001 6.4585 0.0000
# 2 47.4997 113.4923 25.4665 -0.0001 -6.4585 0.0000
# 3 25.4665 25.4665 133.3351 0.0000 0.0000 0.0000
# 4 0.0001 -0.0001 0.0000 40.7842 0.0000 -6.4585
# 5 6.4585 -6.4585 0.0000 0.0000 40.7842 0.0001
# 6 0.0000 0.0000 0.0000 -6.4585 0.0001 32.9963
#
#
#
# Elastic Compliance Matrix: (Units=1/GPa)
#
#
# Indices 1 2 3 4 5 6 
#
# 1 0.011124 -0.004513 -0.001263 0.000000 -0.002476 0.000000
# 2 -0.004513 0.011124 -0.001263 0.000000 0.002476 0.000000
# 3 -0.001263 -0.001263 0.007982 0.000000 0.000000 0.000000
# 4 0.000000 0.000000 0.000000 0.025304 0.000000 0.004953
# 5 -0.002476 0.002476 0.000000 0.000000 0.025304 0.000000
# 6 0.000000 0.000000 0.000000 0.004953 0.000000 0.031276
#
#
# Mechanical properties :
#
#
# Convention : Reuss Voigt Hill
#
# Bulk Modulus (GPa) = 61.90619 61.90946 61.90782
# Shear Modulus (GPa) = 38.00077 40.37209 39.18643
#
# Velocity S-wave (km/s) = 3.97827 4.10052 4.03986
# Velocity P-wave (km/s) = 6.84726 6.94285 6.89522
#
# Compressibility (1/GPa) = 0.01615347
#
# Stress axis : x y z
#
# Youngs Moduli (GPa) = 89.89217 89.89217 125.27824
#
# Poissons Ratio (x) = 0.40573 0.15818
# Poissons Ratio (y) = 0.40573 0.15818
# Poissons Ratio (z) = 0.11350 0.11350
#
# Static dielectric constant tensor:
#      x y z
#    x 1.947060 0.000000 0.000000 
#    y 0.000000 1.947060 0.000000 
#    z 0.000000 0.000000 2.011350 
# 
# From -- ./inp_files/1143.got.cif
#   From: 2010.05.17/outbox.cif.g08.bks.cpg/sg151_1_cif.got.tgz:1143.got - 2010.05.20 10:33:20.
