data_PCOD9575351
_publ_section_title
;
Structure prediction by ZEFSAII (Michael W. Deem and Ramdas Pophale) SiO2 
 PCOD9575351
Probable space group: P 3 1 2
;
_chemical_formula_sum "Si O2"
_cell_formula_units_Z 21
_cell_length_a 14.857042
_cell_length_b 14.857042
_cell_length_c 5.140148
_cell_angle_alpha 90.000000
_cell_angle_beta 90.000000
_cell_angle_gamma 120.000000
_cell_volume 982.586873
_symmetry_space_group_name_H-M "P 3 1 2"
_symmetry_group_IT_number 149
_symmetry_cell_setting 'hexagonal'
loop_
_space_group_symop_operation_xyz
x,y,z
-y,x-y,z
-x+y,-x,z
-y,-x,-z
-x+y,y,-z
x,x-y,-z
loop_
_atom_site_type_symbol
_atom_site_label
_atom_site_fract_x
_atom_site_fract_y
_atom_site_fract_z
Si Si1 0.221630 0.256416 0.599496
Si Si2 0.488018 0.511983 0.000000
Si Si3 0.921828 0.655785 0.081210
Si Si4 0.503142 0.694104 0.264419
O O1 0.103281 0.206562 0.500000
O O2 0.293331 0.254436 0.365353
O O3 0.254633 0.374156 0.678777
O O4 0.250923 0.222493 0.867593
O O5 0.427582 0.388691 0.045676
O O6 0.468180 0.574220 0.227493
O O7 0.801382 0.602764 0.000000
O O8 0.460879 0.730440 0.500000
O O9 0.488543 0.744272 0.000000
#
# Coordination Sequence:
#
# PCOD9575351 Si02
#       4
#     6   3   6   6
#     4  10  19  37  63  86 112 153 206 264 323 373
#     4  10  22  40  64  88 132 180 208 274 320 362
#     4  11  23  38  61  95 124 169 222 253 312 392
#     4  10  20  35  59  90 117 160 215 254 322 393
#
# _framework density 21.372157999999999
#
# number of rings (size 3 to 8) (size 9 to 14) (size 15 to 20)
#    0.000    1.714    0.000    8.571    0.000   10.286 
#    1.714    0.000   12.571   11.429    0.000    0.000 
#    0.000    0.000    0.000    0.000    0.000    0.000 
#
# Total GULP energy -117085.545811 kJ/mol
# GULP energy per Si atom -5575.502181 kJ/mol
# Density = 2.132351 g / cm^3
# Si number density = 21.372158 Si / 1000 Ang^3
#
#
#
# Elastic Constant Matrix: (Units=GPa)
#
#
# Indices 1 2 3 4 5 6 
#
# 1 106.9021 31.0575 33.5998 -0.0005 3.5558 0.0000
# 2 31.0575 106.9021 33.5998 0.0005 -3.5558 0.0000
# 3 33.5998 33.5998 168.2606 0.0000 0.0000 0.0000
# 4 -0.0005 0.0005 0.0000 12.6084 0.0000 -3.5558
# 5 3.5558 -3.5558 0.0000 0.0000 12.6084 -0.0005
# 6 0.0000 0.0000 0.0000 -3.5558 -0.0005 37.9223
#
#
#
# Elastic Compliance Matrix: (Units=1/GPa)
#
#
# Indices 1 2 3 4 5 6 
#
# 1 0.010786 -0.002757 -0.001603 0.000001 -0.003819 0.000000
# 2 -0.002757 0.010786 -0.001603 -0.000001 0.003819 0.000000
# 3 -0.001603 -0.001603 0.006584 0.000000 0.000000 0.000000
# 4 0.000001 -0.000001 0.000000 0.081466 0.000000 0.007639
# 5 -0.003819 0.003819 0.000000 0.000000 0.081466 0.000001
# 6 0.000000 0.000000 0.000000 0.007639 0.000001 0.027086
#
#
# Mechanical properties :
#
#
# Convention : Reuss Voigt Hill
#
# Bulk Modulus (GPa) = 61.61838 64.28657 62.95247
# Shear Modulus (GPa) = 21.23043 31.54836 26.38939
#
# Velocity S-wave (km/s) = 3.15519 3.84623 3.51772
# Velocity P-wave (km/s) = 6.49364 7.06184 6.78369
#
# Compressibility (1/GPa) = 0.01622892
#
# Stress axis : x y z
#
# Youngs Moduli (GPa) = 92.71073 92.71073 151.89419
#
# Poissons Ratio (x) = 0.25558 0.24355
# Poissons Ratio (y) = 0.25558 0.24355
# Poissons Ratio (z) = 0.14865 0.14865
#
# Static dielectric constant tensor:
#      x y z
#    x 1.874020 0.000000 0.000000 
#    y 0.000000 1.874020 0.000000 
#    z 0.000000 0.000000 1.832170 
# 
# From -- ./inp_files/75.got.cif
#   From: 2010.05.17/outbox.cif.g08.bks.cpg/sg149_cif.got.tgz:75.got - 2010.05.20 13:52:34.
