data_PCOD9575956
_publ_section_title
;
Structure prediction by ZEFSAII (Michael W. Deem and Ramdas Pophale) SiO2 
 PCOD9575956
Probable space group: P 31 2 1
;
_chemical_formula_sum "Si O2"
_cell_formula_units_Z 36
_cell_length_a 11.273659
_cell_length_b 11.273659
_cell_length_c 15.716478
_cell_angle_alpha 90.000000
_cell_angle_beta 90.000000
_cell_angle_gamma 120.000000
_cell_volume 1729.878693
_symmetry_space_group_name_H-M "P 31 2 1"
_symmetry_group_IT_number 152
_symmetry_cell_setting 'hexagonal'
loop_
_space_group_symop_operation_xyz
x,y,z
-y,x-y,1/3+z
-x+y,-x,2/3+z
x-y,-y,2/3-z
-x,-x+y,1/3-z
y,x,-z
loop_
_atom_site_type_symbol
_atom_site_label
_atom_site_fract_x
_atom_site_fract_y
_atom_site_fract_z
Si Si1 0.383318 0.121925 0.055138
Si Si2 0.443219 0.892764 0.758026
Si Si3 0.598081 0.757901 0.793848
Si Si4 0.541751 0.885467 0.139373
Si Si5 0.596398 0.752520 0.992120
Si Si6 0.511500 0.846627 0.411452
O O1 0.455860 0.225783 0.132920
O O2 0.259679 0.982791 0.093231
O O3 0.474178 0.076137 0.999088
O O4 0.373746 0.222198 0.985492
O O5 0.565909 0.862342 0.745811
O O6 0.303698 0.753971 0.785765
O O7 0.477730 0.000000 0.833334
O O8 0.464101 0.608957 0.785982
O O9 0.597967 0.787571 0.893828
O O10 0.610444 0.870655 0.054089
O O11 0.610966 0.029020 0.189947
O O12 0.457461 0.611801 0.023213
O O13 0.715377 0.715377 0.000000
#
# Coordination Sequence:
#
# PCOD9575956 Si02
#       6
#     6   6   6   6   6   6
#     4  10  22  38  60  91 129 176 218 271 331 405
#     4  10  25  42  59  95 137 173 225 276 342 409
#     4  12  23  38  63  95 136 175 222 284 340 401
#     4  12  20  36  64  96 134 175 221 279 330 402
#     4  12  21  35  58 102 137 170 228 276 333 396
#     4  10  21  39  62  94 134 180 223 270 333 406
#
# _framework density 20.810708000000002
#
# number of rings (size 3 to 8) (size 9 to 14) (size 15 to 20)
#    1.000    0.000    6.667    0.500    2.333    0.000 
#    0.000    0.000    0.000    1.000    4.333    0.000 
#    0.000    0.000    0.000    0.000    0.000    0.000 
#
# Total GULP energy -200602.381241 kJ/mol
# GULP energy per Si atom -5572.288368 kJ/mol
# Density = 2.076334 g / cm^3
# Si number density = 20.810708 Si / 1000 Ang^3
#
#
#
# Elastic Constant Matrix: (Units=GPa)
#
#
# Indices 1 2 3 4 5 6 
#
# 1 61.9480 26.7852 37.7685 -4.1119 0.0002 0.0000
# 2 26.7852 61.9480 37.7685 4.1119 -0.0002 0.0000
# 3 37.7685 37.7685 92.2455 0.0000 0.0000 0.0000
# 4 -4.1119 4.1119 0.0000 29.0797 0.0000 -0.0002
# 5 0.0002 -0.0002 0.0000 0.0000 29.0797 -4.1119
# 6 0.0000 0.0000 0.0000 -0.0002 -4.1119 17.5814
#
#
#
# Elastic Compliance Matrix: (Units=1/GPa)
#
#
# Indices 1 2 3 4 5 6 
#
# 1 0.023356 -0.006056 -0.007083 0.004159 0.000000 0.000000
# 2 -0.006056 0.023356 -0.007083 -0.004159 0.000000 0.000000
# 3 -0.007083 -0.007083 0.016641 0.000000 0.000000 0.000000
# 4 0.004159 -0.004159 0.000000 0.035564 0.000000 0.000000
# 5 0.000000 0.000000 0.000000 0.000000 0.035564 0.008318
# 6 0.000000 0.000000 0.000000 0.000000 0.008318 0.058824
#
#
# Mechanical properties :
#
#
# Convention : Reuss Voigt Hill
#
# Bulk Modulus (GPa) = 43.65379 46.75400 45.20390
# Shear Modulus (GPa) = 20.71388 22.73614 21.72501
#
# Velocity S-wave (km/s) = 3.15834 3.30892 3.23450
# Velocity P-wave (km/s) = 5.85852 6.09210 5.97645
#
# Compressibility (1/GPa) = 0.02290752
#
# Stress axis : x y z
#
# Youngs Moduli (GPa) = 42.81639 42.81639 60.09385
#
# Poissons Ratio (x) = 0.25931 0.42564
# Poissons Ratio (y) = 0.25931 0.42564
# Poissons Ratio (z) = 0.30327 0.30327
#
# Static dielectric constant tensor:
#      x y z
#    x 1.766800 0.000000 0.000000 
#    y 0.000000 1.766800 0.000000 
#    z 0.000000 0.000000 1.820470 
# 
# From -- ./inp_files/2408.got.cif
#   From: 2010.05.17/outbox.cif.g08.bks.cpg/sg152_2_cif.got.tgz:2408.got - 2010.05.20 10:36:06.
