data_PCOD9575904
_publ_section_title
;
Structure prediction by ZEFSAII (Michael W. Deem and Ramdas Pophale) SiO2 
 PCOD9575904
Probable space group: P 31 2 1
;
_chemical_formula_sum "Si O2"
_cell_formula_units_Z 24
_cell_length_a 14.905574
_cell_length_b 14.905574
_cell_length_c 5.073670
_cell_angle_alpha 90.000000
_cell_angle_beta 90.000000
_cell_angle_gamma 120.000000
_cell_volume 976.225748
_symmetry_space_group_name_H-M "P 31 2 1"
_symmetry_group_IT_number 152
_symmetry_cell_setting 'hexagonal'
loop_
_space_group_symop_operation_xyz
x,y,z
-y,x-y,1/3+z
-x+y,-x,2/3+z
x-y,-y,2/3-z
-x,-x+y,1/3-z
y,x,-z
loop_
_atom_site_type_symbol
_atom_site_label
_atom_site_fract_x
_atom_site_fract_y
_atom_site_fract_z
Si Si1 0.000000 0.195259 0.166667
Si Si2 0.774493 0.612160 0.794743
Si Si3 0.395639 0.612205 0.409933
Si Si4 0.000000 0.898840 0.166667
Si Si5 0.614788 0.890125 0.717940
O O1 0.943156 0.232558 0.369883
O O2 0.091499 0.176307 0.284286
O O3 0.673198 0.499481 0.761414
O O4 0.860576 0.612759 0.589228
O O5 0.808957 0.624753 0.094956
O O6 0.410728 0.695404 0.628827
O O7 0.372288 0.497543 0.465739
O O8 0.075682 0.000000 0.333334
O O9 0.700050 0.000000 0.833334
#
# Coordination Sequence:
#
# PCOD9575904 Si02
#       5
#     3   6   6   3   6
#     4  11  26  44  70 103 136 186 243 296 356 420
#     4  11  26  42  71 102 140 181 238 296 347 435
#     4  10  20  43  69  98 141 185 230 277 367 418
#     4   9  22  42  66  89 130 186 225 286 356 420
#     4  11  25  42  69 101 138 183 233 296 350 429
#
# _framework density 24.584477
#
# number of rings (size 3 to 8) (size 9 to 14) (size 15 to 20)
#    0.000    1.500    2.500    0.750    7.000    4.000 
#    2.250    0.000    0.000    0.000    0.000    0.000 
#    0.000    0.000    0.000    0.000    0.000    0.000 
#
# Total GULP energy -133904.775173 kJ/mol
# GULP energy per Si atom -5579.365632 kJ/mol
# Density = 2.452852 g / cm^3
# Si number density = 24.584477 Si / 1000 Ang^3
#
#
#
# Elastic Constant Matrix: (Units=GPa)
#
#
# Indices 1 2 3 4 5 6 
#
# 1 88.0357 25.9186 7.0788 -3.3373 0.0000 0.0000
# 2 25.9186 88.0357 7.0788 3.3373 0.0000 0.0000
# 3 7.0788 7.0788 67.8399 0.0000 0.0000 0.0000
# 4 -3.3373 3.3373 0.0000 32.1978 0.0000 0.0000
# 5 0.0000 0.0000 0.0000 0.0000 32.1978 -3.3373
# 6 0.0000 0.0000 0.0000 0.0000 -3.3373 31.0586
#
#
#
# Elastic Compliance Matrix: (Units=1/GPa)
#
#
# Indices 1 2 3 4 5 6 
#
# 1 0.012585 -0.003695 -0.000928 0.001687 0.000000 0.000000
# 2 -0.003695 0.012585 -0.000928 -0.001687 0.000000 0.000000
# 3 -0.000928 -0.000928 0.014934 0.000000 0.000000 0.000000
# 4 0.001687 -0.001687 0.000000 0.031408 0.000000 0.000000
# 5 0.000000 0.000000 0.000000 0.000000 0.031408 0.003375
# 6 0.000000 0.000000 0.000000 0.000000 0.003375 0.032560
#
#
# Mechanical properties :
#
#
# Convention : Reuss Voigt Hill
#
# Bulk Modulus (GPa) = 34.47710 36.00709 35.24210
# Shear Modulus (GPa) = 32.00028 32.67984 32.34006
#
# Velocity S-wave (km/s) = 3.61175 3.64990 3.63087
# Velocity P-wave (km/s) = 5.60779 5.69565 5.65189
#
# Compressibility (1/GPa) = 0.02900476
#
# Stress axis : x y z
#
# Youngs Moduli (GPa) = 79.45764 79.45764 66.96044
#
# Poissons Ratio (x) = 0.29357 0.06212
# Poissons Ratio (y) = 0.29357 0.06212
# Poissons Ratio (z) = 0.07371 0.07371
#
# Static dielectric constant tensor:
#      x y z
#    x 2.049500 0.000000 0.000000 
#    y 0.000000 2.049500 0.000000 
#    z 0.000000 0.000000 2.022620 
# 
# From -- ./inp_files/189.got.cif
#   From: 2010.05.17/outbox.cif.g08.bks.cpg/sg152_1_cif.got.tgz:189.got - 2010.05.20 10:36:06.
