data_PCOD9575942
_publ_section_title
;
Structure prediction by ZEFSAII (Michael W. Deem and Ramdas Pophale) SiO2 
 PCOD9575942
Probable space group: P 31 2 1
;
_chemical_formula_sum "Si O2"
_cell_formula_units_Z 30
_cell_length_a 18.476630
_cell_length_b 18.476630
_cell_length_c 4.781984
_cell_angle_alpha 90.000000
_cell_angle_beta 90.000000
_cell_angle_gamma 120.000000
_cell_volume 1413.787946
_symmetry_space_group_name_H-M "P 31 2 1"
_symmetry_group_IT_number 152
_symmetry_cell_setting 'hexagonal'
loop_
_space_group_symop_operation_xyz
x,y,z
-y,x-y,1/3+z
-x+y,-x,2/3+z
x-y,-y,2/3-z
-x,-x+y,1/3-z
y,x,-z
loop_
_atom_site_type_symbol
_atom_site_label
_atom_site_fract_x
_atom_site_fract_y
_atom_site_fract_z
Si Si1 0.599316 0.915049 0.997170
Si Si2 0.085433 0.526389 0.353718
Si Si3 0.643259 0.701038 0.765910
Si Si4 0.254347 0.578516 0.014284
Si Si5 0.819191 0.594539 0.523001
O O1 0.521884 0.916756 0.149286
O O2 0.563173 0.850896 0.737866
O O3 0.658398 0.000000 0.833334
O O4 0.641181 0.888936 0.241155
O O5 0.082689 0.450903 0.531946
O O6 0.175141 0.564053 0.200371
O O7 0.000000 0.485136 0.166667
O O8 0.660961 0.660961 0.500000
O O9 0.643585 0.781053 0.640528
O O10 0.707464 0.707464 0.000000
O O11 0.349627 0.619465 0.129879
O O12 0.228955 0.482469 0.967804
#
# Coordination Sequence:
#
# PCOD9575942 Si02
#       5
#     6   6   6   6   6
#     4  11  22  39  57  82 114 153 194 246 310 379
#     4   9  20  36  52  78 108 150 199 249 316 387
#     4  10  21  38  58  81 111 151 198 254 307 371
#     4  11  21  35  53  77 110 147 199 259 322 372
#     4  11  23  38  58  84 113 151 200 251 313 373
#
# _framework density 21.219591000000001
#
# number of rings (size 3 to 8) (size 9 to 14) (size 15 to 20)
#    0.000    1.600    2.000    3.000    0.000    4.800 
#    7.200    0.000    0.000    0.000    0.000    0.000 
#    0.000    0.000    0.000   21.600    0.000    1.800 
#
# Total GULP energy -167167.656774 kJ/mol
# GULP energy per Si atom -5572.255226 kJ/mol
# Density = 2.117129 g / cm^3
# Si number density = 21.219591 Si / 1000 Ang^3
#
#
#
# Elastic Constant Matrix: (Units=GPa)
#
#
# Indices 1 2 3 4 5 6 
#
# 1 78.5147 25.5270 37.2056 4.5885 0.0000 0.0000
# 2 25.5270 78.5147 37.2056 -4.5885 0.0000 0.0000
# 3 37.2056 37.2056 95.5511 0.0000 0.0000 0.0000
# 4 4.5885 -4.5885 0.0000 36.0571 0.0000 0.0000
# 5 0.0000 0.0000 0.0000 0.0000 36.0571 4.5885
# 6 0.0000 0.0000 0.0000 0.0000 4.5885 26.4939
#
#
#
# Elastic Compliance Matrix: (Units=1/GPa)
#
#
# Indices 1 2 3 4 5 6 
#
# 1 0.016309 -0.002988 -0.005187 -0.002456 0.000000 0.000000
# 2 -0.002988 0.016309 -0.005187 0.002456 0.000000 0.000000
# 3 -0.005187 -0.005187 0.014505 0.000000 0.000000 0.000000
# 4 -0.002456 0.002456 0.000000 0.028359 0.000000 0.000000
# 5 0.000000 0.000000 0.000000 0.000000 0.028359 -0.004912
# 6 0.000000 0.000000 0.000000 0.000000 -0.004912 0.038595
#
#
# Mechanical properties :
#
#
# Convention : Reuss Voigt Hill
#
# Bulk Modulus (GPa) = 49.02069 50.27296 49.64682
# Shear Modulus (GPa) = 28.41534 29.89775 29.15655
#
# Velocity S-wave (km/s) = 3.66335 3.75770 3.71082
# Velocity P-wave (km/s) = 6.40666 6.52459 6.46589
#
# Compressibility (1/GPa) = 0.02039955
#
# Stress axis : x y z
#
# Youngs Moduli (GPa) = 61.31405 61.31405 68.94147
#
# Poissons Ratio (x) = 0.18321 0.35760
# Poissons Ratio (y) = 0.18321 0.35760
# Poissons Ratio (z) = 0.31804 0.31804
#
# Static dielectric constant tensor:
#      x y z
#    x 1.856610 0.000000 0.000000 
#    y 0.000000 1.856610 0.000000 
#    z 0.000000 0.000000 1.854370 
# 
# From -- ./inp_files/329.got.cif
#   From: 2010.05.17/outbox.cif.g08.bks.cpg/sg152_1_cif.got.tgz:329.got - 2010.05.20 10:36:06.
