data_PCOD9575680
_publ_section_title
;
Structure prediction by ZEFSAII (Michael W. Deem and Ramdas Pophale) SiO2 
 PCOD9575680
Probable space group: P 31 1 2
;
_chemical_formula_sum "Si O2"
_cell_formula_units_Z 18
_cell_length_a 10.422838
_cell_length_b 10.422838
_cell_length_c 9.994851
_cell_angle_alpha 90.000000
_cell_angle_beta 90.000000
_cell_angle_gamma 120.000000
_cell_volume 940.327054
_symmetry_space_group_name_H-M "P 31 1 2"
_symmetry_group_IT_number 151
_symmetry_cell_setting 'hexagonal'
loop_
_space_group_symop_operation_xyz
x,y,z
-y,x-y,1/3+z
-x+y,-x,2/3+z
-y,-x,2/3-z
-x+y,y,1/3-z
x,x-y,-z
loop_
_atom_site_type_symbol
_atom_site_label
_atom_site_fract_x
_atom_site_fract_y
_atom_site_fract_z
Si Si1 0.424309 0.302715 0.384554
Si Si2 0.799057 0.907585 0.842497
Si Si3 0.706697 0.584930 0.793557
O O1 0.533929 0.466072 0.333334
O O2 0.495059 0.247530 0.500000
O O3 0.271514 0.275460 0.445988
O O4 0.394888 0.200902 0.256296
O O5 0.736620 0.750519 0.770162
O O6 0.763049 0.881525 0.000000
O O7 0.976743 0.023258 0.833334
O O8 0.540573 0.459428 0.833334
O O9 0.768934 0.537867 0.666667
#
# Coordination Sequence:
#
# PCOD9575680 Si02
#       3
#     6   6   6
#     4  11  22  41  68  97 136 175 223 282 342 408
#     4  11  22  43  70  99 134 178 229 283 337 414
#     4  12  25  40  68 102 136 175 231 284 345 410
#
# _framework density 19.142278000000001
#
# number of rings (size 3 to 8) (size 9 to 14) (size 15 to 20)
#    0.000    0.667    6.667    5.000    0.000    0.000 
#    0.000    1.667    0.000    0.000    0.000    0.000 
#    0.000    0.000    0.000    0.000    0.000    0.000 
#
# Total GULP energy -100551.926690 kJ/mol
# GULP energy per Si atom -5586.218149 kJ/mol
# Density = 1.909871 g / cm^3
# Si number density = 19.142278 Si / 1000 Ang^3
#
#
#
# Elastic Constant Matrix: (Units=GPa)
#
#
# Indices 1 2 3 4 5 6 
#
# 1 122.0137 77.5614 32.4936 -0.0001 1.7059 0.0000
# 2 77.5614 122.0137 32.4936 0.0001 -1.7059 0.0000
# 3 32.4936 32.4936 119.4485 0.0000 0.0000 0.0000
# 4 -0.0001 0.0001 0.0000 34.8024 0.0000 -1.7059
# 5 1.7059 -1.7059 0.0000 0.0000 34.8024 -0.0001
# 6 0.0000 0.0000 0.0000 -1.7059 -0.0001 22.2261
#
#
#
# Elastic Compliance Matrix: (Units=1/GPa)
#
#
# Indices 1 2 3 4 5 6 
#
# 1 0.014039 -0.008542 -0.001496 0.000000 -0.001107 0.000000
# 2 -0.008542 0.014039 -0.001496 0.000000 0.001107 0.000000
# 3 -0.001496 -0.001496 0.009185 0.000000 0.000000 0.000000
# 4 0.000000 0.000000 0.000000 0.028842 0.000000 0.002214
# 5 -0.001107 0.001107 0.000000 0.000000 0.028842 0.000000
# 6 0.000000 0.000000 0.000000 0.002214 0.000000 0.045162
#
#
# Mechanical properties :
#
#
# Convention : Reuss Voigt Hill
#
# Bulk Modulus (GPa) = 70.42929 72.06367 71.24648
# Shear Modulus (GPa) = 29.77809 33.09468 31.43638
#
# Velocity S-wave (km/s) = 3.94841 4.16249 4.05686
# Velocity P-wave (km/s) = 7.59335 7.79935 7.69704
#
# Compressibility (1/GPa) = 0.01419864
#
# Stress axis : x y z
#
# Youngs Moduli (GPa) = 71.22858 71.22858 108.86769
#
# Poissons Ratio (x) = 0.60841 0.16281
# Poissons Ratio (y) = 0.60841 0.16281
# Poissons Ratio (z) = 0.10652 0.10652
#
# Static dielectric constant tensor:
#      x y z
#    x 1.706230 0.000000 0.000000 
#    y 0.000000 1.706230 0.000000 
#    z 0.000000 0.000000 1.672290 
# 
# From -- ./inp_files/1151.got.cif
#   From: 2010.05.17/outbox.cif.g08.bks.cpg/sg151_1_cif.got.tgz:1151.got - 2010.05.20 10:33:20.
