data_PCOD9575713
_publ_section_title
;
Structure prediction by ZEFSAII (Michael W. Deem and Ramdas Pophale) SiO2 
 PCOD9575713
Probable space group: P 31 2 1
;
_chemical_formula_sum "Si O2"
_cell_formula_units_Z 39
_cell_length_a 14.784782
_cell_length_b 14.784782
_cell_length_c 11.700412
_cell_angle_alpha 90.000000
_cell_angle_beta 90.000000
_cell_angle_gamma 120.000000
_cell_volume 2214.938320
_symmetry_space_group_name_H-M "P 31 2 1"
_symmetry_group_IT_number 152
_symmetry_cell_setting 'hexagonal'
loop_
_space_group_symop_operation_xyz
x,y,z
-y,x-y,1/3+z
-x+y,-x,2/3+z
x-y,-y,2/3-z
-x,-x+y,1/3-z
y,x,-z
loop_
_atom_site_type_symbol
_atom_site_label
_atom_site_fract_x
_atom_site_fract_y
_atom_site_fract_z
Si Si1 0.000000 0.322019 0.666667
Si Si2 0.356974 0.047497 0.948976
Si Si3 0.589898 0.319577 0.123842
Si Si4 0.264156 0.514586 0.123787
Si Si5 0.184679 0.833560 0.501761
Si Si6 0.375997 0.358264 0.864267
Si Si7 0.407229 0.922131 0.126094
O O1 0.087462 0.307775 0.730689
O O2 0.049344 0.409826 0.568839
O O3 0.468625 0.143693 0.907439
O O4 0.291678 0.000000 0.833334
O O5 0.321218 0.102541 0.045005
O O6 0.370583 0.959927 0.016145
O O7 0.681216 0.292141 0.124856
O O8 0.478664 0.225947 0.169513
O O9 0.620821 0.423601 0.194883
O O10 0.561757 0.329954 0.993501
O O11 0.279341 0.418095 0.158512
O O12 0.065421 0.742312 0.498269
O O13 0.454042 0.467209 0.803276
O O14 0.380278 0.380278 0.000000
#
# Coordination Sequence:
#
# PCOD9575713 Si02
#       7
#     3   6   6   6   6   6   6
#     4  10  16  32  50  76 102 136 178 240 264 312
#     4  10  21  33  43  72 108 144 169 217 269 329
#     4  10  19  30  48  76  96 145 182 224 261 327
#     4  11  20  32  50  73 105 135 192 217 265 321
#     4   9  19  31  53  76  98 132 180 224 283 311
#     4  11  16  32  52  78  95 131 183 235 259 320
#     4  10  18  31  51  70 106 139 182 225 267 308
#
# _framework density 17.607713
#
# number of rings (size 3 to 8) (size 9 to 14) (size 15 to 20)
#    0.000    1.846    5.385    3.692    2.154    0.000 
#    0.000    0.000    0.000    0.000    0.000    2.154 
#    0.000    0.000    0.000    0.000    0.000    0.000 
#
# Total GULP energy -217379.757428 kJ/mol
# GULP energy per Si atom -5573.839934 kJ/mol
# Density = 1.756764 g / cm^3
# Si number density = 17.607713 Si / 1000 Ang^3
#
#
#
# Elastic Constant Matrix: (Units=GPa)
#
#
# Indices 1 2 3 4 5 6 
#
# 1 64.8164 26.1854 33.6059 0.8073 0.0000 0.0000
# 2 26.1854 64.8164 33.6059 -0.8073 0.0000 0.0000
# 3 33.6059 33.6059 80.1815 0.0000 0.0000 0.0000
# 4 0.8073 -0.8073 0.0000 19.4987 0.0000 0.0000
# 5 0.0000 0.0000 0.0000 0.0000 19.4987 0.8073
# 6 0.0000 0.0000 0.0000 0.0000 0.8073 19.3155
#
#
#
# Elastic Compliance Matrix: (Units=1/GPa)
#
#
# Indices 1 2 3 4 5 6 
#
# 1 0.020923 -0.005008 -0.006671 -0.001074 0.000000 0.000000
# 2 -0.005008 0.020923 -0.006671 0.001074 0.000000 0.000000
# 3 -0.006671 -0.006671 0.018063 0.000000 0.000000 0.000000
# 4 -0.001074 0.001074 0.000000 0.051375 0.000000 0.000000
# 5 0.000000 0.000000 0.000000 0.000000 0.051375 -0.002147
# 6 0.000000 0.000000 0.000000 0.000000 -0.002147 0.051862
#
#
# Mechanical properties :
#
#
# Convention : Reuss Voigt Hill
#
# Bulk Modulus (GPa) = 43.08104 44.06763 43.57433
# Shear Modulus (GPa) = 19.30838 19.42371 19.36605
#
# Velocity S-wave (km/s) = 3.31507 3.32495 3.32001
# Velocity P-wave (km/s) = 6.25885 6.31048 6.28472
#
# Compressibility (1/GPa) = 0.02321207
#
# Stress axis : x y z
#
# Youngs Moduli (GPa) = 47.79397 47.79397 55.36099
#
# Poissons Ratio (x) = 0.23934 0.36929
# Poissons Ratio (y) = 0.23934 0.36929
# Poissons Ratio (z) = 0.31881 0.31881
#
# Static dielectric constant tensor:
#      x y z
#    x 1.629120 0.000000 0.000000 
#    y 0.000000 1.629120 0.000000 
#    z 0.000000 0.000000 1.655630 
# 
# From -- ./inp_files/1778.got.cif
#   From: 2010.05.17/outbox.cif.g08.bks.cpg/sg152_1_cif.got.tgz:1778.got - 2010.05.20 10:36:06.
