data_PCOD9575195
_publ_section_title
;
Structure prediction by ZEFSAII (Michael W. Deem and Ramdas Pophale) SiO2 
 PCOD9575195
Probable space group: R -3
;
_chemical_formula_sum "Si O2"
_cell_formula_units_Z 72
_cell_length_a 12.960959
_cell_length_b 12.960959
_cell_length_c 19.089890
_cell_angle_alpha 90.000000
_cell_angle_beta 90.000000
_cell_angle_gamma 120.000000
_cell_volume 2777.207511
_symmetry_space_group_name_H-M "R -3"
_symmetry_group_IT_number 148
_symmetry_cell_setting 'hexagonal'
loop_
_space_group_symop_operation_xyz
x,y,z
-y,x-y,z
-x+y,-x,z
-x,-y,-z
y,-x+y,-z
x-y,x,-z
2/3+x,1/3+y,1/3+z
2/3-y,1/3+x-y,1/3+z
2/3-x+y,1/3-x,1/3+z
2/3-x,1/3-y,1/3-z
2/3+y,1/3-x+y,1/3-z
2/3+x-y,1/3+x,1/3-z
1/3+x,2/3+y,2/3+z
1/3-y,2/3+x-y,2/3+z
1/3-x+y,2/3-x,2/3+z
1/3-x,2/3-y,2/3-z
1/3+y,2/3-x+y,2/3-z
1/3+x-y,2/3+x,2/3-z
loop_
_atom_site_type_symbol
_atom_site_label
_atom_site_fract_x
_atom_site_fract_y
_atom_site_fract_z
Si Si1 0.533827 0.562739 0.108257
Si Si2 0.849871 0.902345 0.309897
Si Si3 0.808856 0.740677 0.077202
Si Si4 0.264734 0.851900 0.577925
O O1 0.462896 0.601390 0.056265
O O2 0.674226 0.651129 0.098409
O O3 0.524203 0.555126 0.192008
O O4 0.508162 0.436395 0.075154
O O5 0.955091 0.873706 0.297665
O O6 0.927444 0.743569 0.103704
O O7 0.828208 0.870950 0.096790
O O8 0.803889 0.721574 0.993407
#
# Coordination Sequence:
#
# PCOD9575195 Si02
#       4
#    18  18  18  18
#     4  11  23  42  73  99 133 195 226 276 354 410
#     4   9  24  43  67 100 142 174 232 290 330 410
#     4  10  23  42  66 100 144 167 232 291 331 422
#     4  10  23  39  66 101 134 176 224 281 354 397
#
# _framework density 25.925322000000001
#
# number of rings (size 3 to 8) (size 9 to 14) (size 15 to 20)
#    0.500    1.500    0.000    1.250   10.500    6.000 
#    0.000    0.000    0.000    6.000    0.000    0.000 
#    0.000    0.000    0.000    0.000    0.000    0.000 
#
# Total GULP energy -134149.998914 kJ/mol
# GULP energy per Si atom -5589.583288 kJ/mol
# Density = 2.586631 g / cm^3
# Si number density = 25.925322 Si / 1000 Ang^3
#
#
#
# Elastic Constant Matrix: (Units=GPa)
#
#
# Indices 1 2 3 4 5 6 
#
# 1 64.0794 11.0365 -14.0826 -9.9234 11.2884 0.0000
# 2 11.0365 64.0794 -14.0826 9.9234 -11.2884 0.0000
# 3 -14.0826 -14.0826 73.8398 0.0000 0.0000 0.0000
# 4 -9.9234 9.9234 0.0000 29.3898 0.0000 -11.2884
# 5 11.2884 -11.2884 0.0000 0.0000 29.3898 -9.9234
# 6 0.0000 0.0000 0.0000 -11.2884 -9.9234 26.5215
#
#
#
# Elastic Compliance Matrix: (Units=1/GPa)
#
#
# Indices 1 2 3 4 5 6 
#
# 1 0.020442 -0.006104 0.002735 0.008963 -0.010196 0.000000
# 2 -0.006104 0.020442 0.002735 -0.008963 0.010196 0.000000
# 3 0.002735 0.002735 0.014586 0.000000 0.000000 0.000000
# 4 0.008963 -0.008963 0.000000 0.047911 0.000000 0.020392
# 5 -0.010196 0.010196 0.000000 0.000000 0.047911 0.017926
# 6 0.000000 0.000000 0.000000 0.020392 0.017926 0.053092
#
#
# Mechanical properties :
#
#
# Convention : Reuss Voigt Hill
#
# Bulk Modulus (GPa) = 18.45009 18.63789 18.54399
# Shear Modulus (GPa) = 22.34931 31.66871 27.00901
#
# Velocity S-wave (km/s) = 2.93928 3.49884 3.23120
# Velocity P-wave (km/s) = 4.31871 4.85048 4.59230
#
# Compressibility (1/GPa) = 0.05420027
#
# Stress axis : x y z
#
# Youngs Moduli (GPa) = 48.91860 48.91860 68.55942
#
# Poissons Ratio (x) = 0.29860 -0.18748
# Poissons Ratio (y) = 0.29860 -0.18748
# Poissons Ratio (z) = -0.13377 -0.13377
#
# Static dielectric constant tensor:
#      x y z
#    x 2.055530 0.000000 0.000000 
#    y 0.000000 2.055530 0.000000 
#    z 0.000000 0.000000 1.994090 
# 
# From -- ./inp_files/2558.got.cif
#   From: 2010.05.17/outbox.cif.g08.bks.cpg/sg148_2_cif.got.tgz:2558.got - 2010.05.20 13:50:20.
