data_PCOD9575631
_publ_section_title
;
Structure prediction by ZEFSAII (Michael W. Deem and Ramdas Pophale) SiO2 
 PCOD9575631
Probable space group: P 31 1 2
;
_chemical_formula_sum "Si O2"
_cell_formula_units_Z 36
_cell_length_a 11.687847
_cell_length_b 11.687847
_cell_length_c 17.463008
_cell_angle_alpha 90.000000
_cell_angle_beta 90.000000
_cell_angle_gamma 120.000000
_cell_volume 2065.944833
_symmetry_space_group_name_H-M "P 31 1 2"
_symmetry_group_IT_number 151
_symmetry_cell_setting 'hexagonal'
loop_
_space_group_symop_operation_xyz
x,y,z
-y,x-y,1/3+z
-x+y,-x,2/3+z
-y,-x,2/3-z
-x+y,y,1/3-z
x,x-y,-z
loop_
_atom_site_type_symbol
_atom_site_label
_atom_site_fract_x
_atom_site_fract_y
_atom_site_fract_z
Si Si1 0.135385 0.586994 0.340826
Si Si2 0.063314 0.882078 0.204880
Si Si3 0.950060 0.703338 0.353178
Si Si4 0.113145 0.495354 0.170458
Si Si5 0.585699 0.824117 0.749089
Si Si6 0.650171 0.052392 0.630682
O O1 0.277543 0.722457 0.333334
O O2 0.091402 0.522715 0.257080
O O3 0.156334 0.484433 0.391134
O O4 0.031483 0.628638 0.370244
O O5 0.129641 0.836672 0.140104
O O6 0.954693 0.909386 0.166667
O O7 0.992912 0.766093 0.268289
O O8 0.176719 0.001656 0.253260
O O9 0.793771 0.618098 0.357322
O O10 0.233210 0.466420 0.166667
O O11 0.157477 0.630445 0.123986
O O12 0.988910 0.384522 0.124251
O O13 0.633265 0.923352 0.676397
O O14 0.539454 0.078908 0.666667
#
# Coordination Sequence:
#
# PCOD9575631 Si02
#       6
#     6   6   6   6   6   6
#     4  12  20  34  62  94 121 152 200 265 315 364
#     4  11  22  38  61  88 117 164 206 249 299 376
#     4  11  23  39  61  88 119 163 209 250 312 370
#     4  11  19  32  57  94 120 147 191 255 311 351
#     4  11  20  34  61  90 119 149 203 258 308 360
#     4  10  22  39  61  85 117 162 204 247 308 382
#
# _framework density 17.425440999999999
#
# number of rings (size 3 to 8) (size 9 to 14) (size 15 to 20)
#    0.000    1.000    8.333    0.500    0.000    0.667 
#    0.000    0.000    7.333    0.000    0.000    0.000 
#    0.000    0.000    0.000    0.000    0.000    0.000 
#
# Total GULP energy -201039.765682 kJ/mol
# GULP energy per Si atom -5584.437936 kJ/mol
# Density = 1.738578 g / cm^3
# Si number density = 17.425441 Si / 1000 Ang^3
#
#
#
# Elastic Constant Matrix: (Units=GPa)
#
#
# Indices 1 2 3 4 5 6 
#
# 1 107.0151 58.6046 40.6734 -0.0001 -1.5110 0.0000
# 2 58.6046 107.0151 40.6734 0.0001 1.5110 0.0000
# 3 40.6734 40.6734 87.7069 0.0000 0.0000 0.0000
# 4 -0.0001 0.0001 0.0000 20.6649 0.0000 1.5110
# 5 -1.5110 1.5110 0.0000 0.0000 20.6649 -0.0001
# 6 0.0000 0.0000 0.0000 1.5110 -0.0001 24.2052
#
#
#
# Elastic Compliance Matrix: (Units=1/GPa)
#
#
# Indices 1 2 3 4 5 6 
#
# 1 0.014285 -0.006466 -0.003626 0.000000 0.001517 0.000000
# 2 -0.006466 0.014285 -0.003626 0.000000 -0.001517 0.000000
# 3 -0.003626 -0.003626 0.014765 0.000000 0.000000 0.000000
# 4 0.000000 0.000000 0.000000 0.048613 0.000000 -0.003035
# 5 0.001517 -0.001517 0.000000 0.000000 0.048613 0.000000
# 6 0.000000 0.000000 0.000000 -0.003035 0.000000 0.041503
#
#
# Mechanical properties :
#
#
# Convention : Reuss Voigt Hill
#
# Bulk Modulus (GPa) = 62.89867 64.62668 63.76267
# Shear Modulus (GPa) = 23.27747 23.89271 23.58509
#
# Velocity S-wave (km/s) = 3.65887 3.70691 3.68297
# Velocity P-wave (km/s) = 7.35010 7.44913 7.39978
#
# Compressibility (1/GPa) = 0.01589859
#
# Stress axis : x y z
#
# Youngs Moduli (GPa) = 70.00281 70.00281 67.72946
#
# Poissons Ratio (x) = 0.45266 0.24558
# Poissons Ratio (y) = 0.45266 0.24558
# Poissons Ratio (z) = 0.25383 0.25383
#
# Static dielectric constant tensor:
#      x y z
#    x 1.575090 0.000000 0.000000 
#    y 0.000000 1.575090 0.000000 
#    z 0.000000 0.000000 1.615620 
# 
# From -- ./inp_files/3428.got.cif
#   From: 2010.05.17/outbox.cif.g08.bks.cpg/sg151_2_cif.got.tgz:3428.got - 2010.05.20 10:33:20.
