data_PCOD9575114
_publ_section_title
;
Structure prediction by ZEFSAII (Michael W. Deem and Ramdas Pophale) SiO2 
 PCOD9575114
Probable space group: R -3
;
_chemical_formula_sum "Si O2"
_cell_formula_units_Z 72
_cell_length_a 26.581360
_cell_length_b 26.581360
_cell_length_c 6.134992
_cell_angle_alpha 90.000000
_cell_angle_beta 90.000000
_cell_angle_gamma 120.000000
_cell_volume 3754.041134
_symmetry_space_group_name_H-M "R -3"
_symmetry_group_IT_number 148
_symmetry_cell_setting 'hexagonal'
loop_
_space_group_symop_operation_xyz
x,y,z
-y,x-y,z
-x+y,-x,z
-x,-y,-z
y,-x+y,-z
x-y,x,-z
2/3+x,1/3+y,1/3+z
2/3-y,1/3+x-y,1/3+z
2/3-x+y,1/3-x,1/3+z
2/3-x,1/3-y,1/3-z
2/3+y,1/3-x+y,1/3-z
2/3+x-y,1/3+x,1/3-z
1/3+x,2/3+y,2/3+z
1/3-y,2/3+x-y,2/3+z
1/3-x+y,2/3-x,2/3+z
1/3-x,2/3-y,2/3-z
1/3+y,2/3-x+y,2/3-z
1/3+x-y,2/3+x,2/3-z
loop_
_atom_site_type_symbol
_atom_site_label
_atom_site_fract_x
_atom_site_fract_y
_atom_site_fract_z
Si Si1 0.963520 0.609291 0.606267
Si Si2 0.148120 0.693682 0.244783
Si Si3 0.190417 0.889336 0.060754
Si Si4 0.769854 0.198770 0.012445
O O1 0.961342 0.658086 0.467396
O O2 0.903698 0.565331 0.716895
O O3 0.982387 0.575345 0.443170
O O4 0.137495 0.732957 0.419045
O O5 0.206148 0.740511 0.118138
O O6 0.134077 0.633133 0.353778
O O7 0.202762 0.836925 0.113510
O O8 0.132407 0.871954 0.918345
#
# Coordination Sequence:
#
# PCOD9575114 Si02
#       4
#    18  18  18  18
#     4  11  20  31  52  81 116 154 189 225 268 322
#     4  11  22  37  56  80 113 148 187 232 279 334
#     4  10  21  36  55  82 116 150 187 226 273 331
#     4  10  22  36  56  84 111 147 186 230 279 332
#
# _framework density 19.179331999999999
#
# number of rings (size 3 to 8) (size 9 to 14) (size 15 to 20)
#    0.000    1.500    0.000    6.750    0.000    8.000 
#    0.000    0.000    0.000    0.500    0.000    1.750 
#    0.000    0.000    0.000    0.000    0.000    0.000 
#
# Total GULP energy -133823.742667 kJ/mol
# GULP energy per Si atom -5575.989278 kJ/mol
# Density = 1.913568 g / cm^3
# Si number density = 19.179332 Si / 1000 Ang^3
#
#
#
# Elastic Constant Matrix: (Units=GPa)
#
#
# Indices 1 2 3 4 5 6 
#
# 1 86.4971 41.8529 27.5779 4.1619 1.4575 0.0000
# 2 41.8529 86.3825 27.5532 -4.1783 -1.1696 0.0555
# 3 27.5779 27.5532 57.7911 -0.0003 0.4444 0.0742
# 4 4.1619 -4.1783 -0.0003 26.9247 -0.0552 -1.2440
# 5 1.4575 -1.1696 0.4444 -0.0552 27.1150 4.2376
# 6 0.0000 0.0555 0.0742 -1.2440 4.2376 22.2866
#
#
#
# Elastic Compliance Matrix: (Units=1/GPa)
#
#
# Indices 1 2 3 4 5 6 
#
# 1 0.016473 -0.006681 -0.004667 -0.003583 -0.001111 0.000043
# 2 -0.006681 0.016498 -0.004686 0.003593 0.001162 -0.000046
# 3 -0.004667 -0.004686 0.021768 -0.000006 -0.000308 -0.000003
# 4 -0.003583 0.003593 -0.000006 0.038350 0.000095 0.002114
# 5 -0.001111 0.001162 -0.000308 0.000095 0.038127 -0.007246
# 6 0.000043 -0.000046 -0.000003 0.002114 -0.007246 0.046366
#
#
# Mechanical properties :
#
#
# Convention : Reuss Voigt Hill
#
# Bulk Modulus (GPa) = 44.11248 47.18208 45.64728
# Shear Modulus (GPa) = 23.01953 24.17771 23.59862
#
# Velocity S-wave (km/s) = 3.46819 3.55436 3.51154
# Velocity P-wave (km/s) = 6.25202 6.44194 6.34769
#
# Compressibility (1/GPa) = 0.02266932
#
# Stress axis : x y z
#
# Youngs Moduli (GPa) = 60.70564 60.61429 45.93999
#
# Poissons Ratio (x) = 0.40496 0.21441
# Poissons Ratio (y) = 0.40557 0.21529
# Poissons Ratio (z) = 0.28332 0.28406
#
# Static dielectric constant tensor:
#      x y z
#    x 1.723850 0.000090 -0.000080 
#    y 0.000090 1.723740 -0.000040 
#    z -0.000080 -0.000040 1.741690 
# 
# From -- ./inp_files/369.got.cif
#   From: 2010.05.17/outbox.cif.g08.bks.cpg/sg148_1_cif.got.tgz:369.got - 2010.05.20 13:50:20.
