data_PCOD9575825
_publ_section_title
;
Structure prediction by ZEFSAII (Michael W. Deem and Ramdas Pophale) SiO2 
 PCOD9575825
Probable space group: P 31 2 1
;
_chemical_formula_sum "Si O2"
_cell_formula_units_Z 36
_cell_length_a 12.170820
_cell_length_b 12.170820
_cell_length_c 11.887707
_cell_angle_alpha 90.000000
_cell_angle_beta 90.000000
_cell_angle_gamma 120.000000
_cell_volume 1524.994941
_symmetry_space_group_name_H-M "P 31 2 1"
_symmetry_group_IT_number 152
_symmetry_cell_setting 'hexagonal'
loop_
_space_group_symop_operation_xyz
x,y,z
-y,x-y,1/3+z
-x+y,-x,2/3+z
x-y,-y,2/3-z
-x,-x+y,1/3-z
y,x,-z
loop_
_atom_site_type_symbol
_atom_site_label
_atom_site_fract_x
_atom_site_fract_y
_atom_site_fract_z
Si Si1 0.000000 0.801926 0.166667
Si Si2 0.638223 0.964057 0.540562
Si Si3 0.837698 0.444259 0.019253
Si Si4 0.794062 0.649062 0.782480
Si Si5 0.781729 0.670136 0.314709
Si Si6 0.254465 0.623765 0.829450
Si Si7 0.000000 0.190016 0.666667
O O1 0.125841 0.806101 0.121213
O O2 0.938117 0.839755 0.065186
O O3 0.683939 0.868141 0.580770
O O4 0.503891 0.871023 0.485659
O O5 0.626705 0.045028 0.647670
O O6 0.737231 0.067335 0.458094
O O7 0.881043 0.345223 0.980344
O O8 0.721260 0.425792 0.943420
O O9 0.758627 0.376099 0.133413
O O10 0.772737 0.738320 0.698218
O O11 0.703498 0.500201 0.755937
O O12 0.772848 0.700281 0.905268
#
# Coordination Sequence:
#
# PCOD9575825 Si02
#       7
#     3   6   6   6   6   6   3
#     4  10  20  34  62  90 124 168 220 264 314 386
#     4  10  20  40  62  94 133 167 218 273 331 394
#     4  10  22  38  64  93 131 170 211 277 329 402
#     4  10  20  38  61  94 126 170 215 273 319 395
#     4  10  20  35  62  88 125 164 214 264 323 383
#     4  10  22  40  62  94 135 165 217 269 337 395
#     4  10  20  36  64  92 128 164 224 270 320 384
#
# _framework density 23.606638
#
# number of rings (size 3 to 8) (size 9 to 14) (size 15 to 20)
#    0.000    2.000    3.333    0.000    2.333    1.333 
#    0.000    0.000   14.667    0.000    0.000    0.000 
#    0.000    0.000    0.000    0.000    0.000    0.000 
#
# Total GULP energy -200622.190493 kJ/mol
# GULP energy per Si atom -5572.838625 kJ/mol
# Density = 2.355291 g / cm^3
# Si number density = 23.606638 Si / 1000 Ang^3
#
#
#
# Elastic Constant Matrix: (Units=GPa)
#
#
# Indices 1 2 3 4 5 6 
#
# 1 126.4038 58.2670 16.8277 -0.0605 0.0000 0.0000
# 2 58.2670 126.4038 16.8277 0.0605 0.0000 0.0000
# 3 16.8277 16.8277 20.9943 0.0000 0.0000 0.0000
# 4 -0.0605 0.0605 0.0000 24.9069 0.0000 0.0000
# 5 0.0000 0.0000 0.0000 0.0000 24.9069 -0.0605
# 6 0.0000 0.0000 0.0000 0.0000 -0.0605 34.0684
#
#
#
# Elastic Compliance Matrix: (Units=1/GPa)
#
#
# Indices 1 2 3 4 5 6 
#
# 1 0.010509 -0.004168 -0.005083 0.000036 0.000000 0.000000
# 2 -0.004168 0.010509 -0.005083 -0.000036 0.000000 0.000000
# 3 -0.005083 -0.005083 0.055780 0.000000 0.000000 0.000000
# 4 0.000036 -0.000036 0.000000 0.040150 0.000000 0.000000
# 5 0.000000 0.000000 0.000000 0.000000 0.040150 0.000071
# 6 0.000000 0.000000 0.000000 0.000000 0.000071 0.029353
#
#
# Mechanical properties :
#
#
# Convention : Reuss Voigt Hill
#
# Bulk Modulus (GPa) = 20.77639 50.84965 35.81302
# Shear Modulus (GPa) = 21.62999 28.90173 25.26586
#
# Velocity S-wave (km/s) = 3.03027 3.50280 3.27507
# Velocity P-wave (km/s) = 4.58951 6.16009 5.43186
#
# Compressibility (1/GPa) = 0.04813155
#
# Stress axis : x y z
#
# Youngs Moduli (GPa) = 95.15751 95.15751 17.92751
#
# Poissons Ratio (x) = 0.39657 0.09112
# Poissons Ratio (y) = 0.39657 0.09112
# Poissons Ratio (z) = 0.48367 0.48367
#
# Static dielectric constant tensor:
#      x y z
#    x 1.943940 0.000000 0.000000 
#    y 0.000000 1.943940 0.000000 
#    z 0.000000 0.000000 2.061210 
# 
# From -- ./inp_files/2069.got.cif
#   From: 2010.05.17/outbox.cif.g08.bks.cpg/sg152_2_cif.got.tgz:2069.got - 2010.05.20 10:36:06.
