data_PCOD9575224
_publ_section_title
;
Structure prediction by ZEFSAII (Michael W. Deem and Ramdas Pophale) SiO2 
 PCOD9575224
Probable space group: R -3
;
_chemical_formula_sum "Si O2"
_cell_formula_units_Z 36
_cell_length_a 11.633911
_cell_length_b 11.633911
_cell_length_c 11.181593
_cell_angle_alpha 90.000000
_cell_angle_beta 90.000000
_cell_angle_gamma 120.000000
_cell_volume 1310.647146
_symmetry_space_group_name_H-M "R -3"
_symmetry_group_IT_number 148
_symmetry_cell_setting 'hexagonal'
loop_
_space_group_symop_operation_xyz
x,y,z
-y,x-y,z
-x+y,-x,z
-x,-y,-z
y,-x+y,-z
x-y,x,-z
2/3+x,1/3+y,1/3+z
2/3-y,1/3+x-y,1/3+z
2/3-x+y,1/3-x,1/3+z
2/3-x,1/3-y,1/3-z
2/3+y,1/3-x+y,1/3-z
2/3+x-y,1/3+x,1/3-z
1/3+x,2/3+y,2/3+z
1/3-y,2/3+x-y,2/3+z
1/3-x+y,2/3-x,2/3+z
1/3-x,2/3-y,2/3-z
1/3+y,2/3-x+y,2/3-z
1/3+x-y,2/3+x,2/3-z
loop_
_atom_site_type_symbol
_atom_site_label
_atom_site_fract_x
_atom_site_fract_y
_atom_site_fract_z
Si Si1 0.818205 0.476901 0.988255
Si Si2 0.218417 0.972839 0.074355
O O1 0.672325 0.458202 0.962462
O O2 0.850716 0.505436 0.128475
O O3 0.935733 0.601459 0.921994
O O4 0.102125 0.851632 0.000833
#
# Coordination Sequence:
#
# PCOD9575224 Si02
#       2
#    18  18
#     4  10  24  46  67 103 140 177 231 282 341 410
#     4  12  22  43  72 102 137 181 229 283 342 409
#
# _framework density 27.467348000000001
#
# number of rings (size 3 to 8) (size 9 to 14) (size 15 to 20)
#    1.000    0.000    5.000    2.000    0.000    2.000 
#    0.000    0.000    0.000    3.000    0.000    0.000 
#    0.000    0.000    0.000    0.000    0.000    0.000 
#
# Total GULP energy -67349.231093 kJ/mol
# GULP energy per Si atom -5612.435924 kJ/mol
# Density = 2.740483 g / cm^3
# Si number density = 27.467348 Si / 1000 Ang^3
#
#
#
# Elastic Constant Matrix: (Units=GPa)
#
#
# Indices 1 2 3 4 5 6 
#
# 1 126.5742 11.1867 9.5595 15.0326 -8.9740 0.0000
# 2 11.1867 126.5742 9.5595 -15.0326 8.9740 0.0000
# 3 9.5595 9.5595 111.7356 0.0000 0.0000 0.0000
# 4 15.0326 -15.0326 0.0000 36.3748 0.0000 8.9740
# 5 -8.9740 8.9740 0.0000 0.0000 36.3748 15.0326
# 6 0.0000 0.0000 0.0000 8.9740 15.0326 57.6938
#
#
#
# Elastic Compliance Matrix: (Units=1/GPa)
#
#
# Indices 1 2 3 4 5 6 
#
# 1 0.008747 -0.001401 -0.000628 -0.004194 0.002504 0.000000
# 2 -0.001401 0.008747 -0.000628 0.004194 -0.002504 0.000000
# 3 -0.000628 -0.000628 0.009057 0.000000 0.000000 0.000000
# 4 -0.004194 0.004194 0.000000 0.032194 0.000000 -0.005008
# 5 0.002504 -0.002504 0.000000 0.000000 0.032194 -0.008388
# 6 0.000000 0.000000 0.000000 -0.005008 -0.008388 0.020297
#
#
# Mechanical properties :
#
#
# Convention : Reuss Voigt Hill
#
# Bulk Modulus (GPa) = 47.09071 47.27725 47.18398
# Shear Modulus (GPa) = 40.44260 48.39388 44.41824
#
# Velocity S-wave (km/s) = 3.84133 4.20202 4.02572
# Velocity P-wave (km/s) = 6.07091 6.38687 6.23089
#
# Compressibility (1/GPa) = 0.02123561
#
# Stress axis : x y z
#
# Youngs Moduli (GPa) = 114.31895 114.31895 110.40885
#
# Poissons Ratio (x) = 0.16019 0.06939
# Poissons Ratio (y) = 0.16019 0.06939
# Poissons Ratio (z) = 0.07185 0.07185
#
# Static dielectric constant tensor:
#      x y z
#    x 2.104430 0.000000 0.000000 
#    y 0.000000 2.104430 0.000000 
#    z 0.000000 0.000000 2.037960 
# 
# From -- ./inp_files/1698.got.cif
#   From: 2010.05.17/outbox.cif.g08.bks.cpg/sg148_1_cif.got.tgz:1698.got - 2010.05.20 13:50:20.
