data_PCOD9575616
_publ_section_title
;
Structure prediction by ZEFSAII (Michael W. Deem and Ramdas Pophale) SiO2 
 PCOD9575616
Probable space group: P 31 1 2
;
_chemical_formula_sum "Si O2"
_cell_formula_units_Z 36
_cell_length_a 8.831758
_cell_length_b 8.831758
_cell_length_c 26.543065
_cell_angle_alpha 90.000000
_cell_angle_beta 90.000000
_cell_angle_gamma 120.000000
_cell_volume 1792.982386
_symmetry_space_group_name_H-M "P 31 1 2"
_symmetry_group_IT_number 151
_symmetry_cell_setting 'hexagonal'
loop_
_space_group_symop_operation_xyz
x,y,z
-y,x-y,1/3+z
-x+y,-x,2/3+z
-y,-x,2/3-z
-x+y,y,1/3-z
x,x-y,-z
loop_
_atom_site_type_symbol
_atom_site_label
_atom_site_fract_x
_atom_site_fract_y
_atom_site_fract_z
Si Si1 0.691236 0.464741 0.955720
Si Si2 0.065375 0.244519 0.044016
Si Si3 0.309895 0.900938 0.055234
Si Si4 0.215807 0.568361 0.111846
Si Si5 0.021079 0.097222 0.891797
Si Si6 0.841714 0.538447 0.113328
O O1 0.510081 0.463319 0.953103
O O2 0.712797 0.361604 0.909218
O O3 0.875559 0.645536 0.962285
O O4 0.678530 0.339265 0.000000
O O5 0.180456 0.390370 0.085928
O O6 0.022536 0.062439 0.069162
O O7 0.184807 0.313632 0.993446
O O8 0.308944 0.725599 0.072106
O O9 0.213524 0.944544 0.100854
O O10 0.300949 0.601898 0.166667
O O11 0.026325 0.548276 0.117470
O O12 0.886282 0.161287 0.910510
O O13 0.972773 0.027228 0.833334
O O14 0.773502 0.547003 0.166667
#
# Coordination Sequence:
#
# PCOD9575616 Si02
#       6
#     6   6   6   6   6   6
#     4  11  23  39  62  88 118 164 211 262 322 385
#     4  11  22  42  65  92 128 166 212 269 327 389
#     4  11  24  41  62  91 128 168 216 267 323 395
#     4  10  22  40  62  88 124 165 206 262 322 380
#     4  10  21  39  62  90 125 166 207 263 329 387
#     4   9  21  39  60  87 121 157 203 259 317 382
#
# _framework density 20.078278999999998
#
# number of rings (size 3 to 8) (size 9 to 14) (size 15 to 20)
#    0.000    1.667    0.000    5.500    0.000   10.000 
#    0.000    6.667    0.000    0.000    0.000    0.000 
#    0.000    0.000    0.000    0.000    0.000    0.000 
#
# Total GULP energy -200586.829994 kJ/mol
# GULP energy per Si atom -5571.856389 kJ/mol
# Density = 2.003258 g / cm^3
# Si number density = 20.078279 Si / 1000 Ang^3
#
#
#
# Elastic Constant Matrix: (Units=GPa)
#
#
# Indices 1 2 3 4 5 6 
#
# 1 89.5538 42.4702 28.4571 0.0003 -3.8620 0.0000
# 2 42.4702 89.5538 28.4571 -0.0003 3.8620 0.0000
# 3 28.4571 28.4571 80.7520 0.0000 0.0000 0.0000
# 4 0.0003 -0.0003 0.0000 42.0875 0.0000 3.8620
# 5 -3.8620 3.8620 0.0000 0.0000 42.0875 0.0003
# 6 0.0000 0.0000 0.0000 3.8620 0.0003 23.5418
#
#
#
# Elastic Compliance Matrix: (Units=1/GPa)
#
#
# Indices 1 2 3 4 5 6 
#
# 1 0.015247 -0.006316 -0.003147 0.000000 0.001979 0.000000
# 2 -0.006316 0.015247 -0.003147 0.000000 -0.001979 0.000000
# 3 -0.003147 -0.003147 0.014602 0.000000 0.000000 0.000000
# 4 0.000000 0.000000 0.000000 0.024123 0.000000 -0.003957
# 5 0.001979 -0.001979 0.000000 0.000000 0.024123 0.000000
# 6 0.000000 0.000000 0.000000 -0.003957 0.000000 0.043127
#
#
# Mechanical properties :
#
#
# Convention : Reuss Voigt Hill
#
# Bulk Modulus (GPa) = 50.31504 50.95873 50.63688
# Shear Modulus (GPa) = 29.70600 32.24170 30.97385
#
# Velocity S-wave (km/s) = 3.85061 4.01159 3.93193
# Velocity P-wave (km/s) = 6.69951 6.84779 6.77406
#
# Compressibility (1/GPa) = 0.01987477
#
# Stress axis : x y z
#
# Youngs Moduli (GPa) = 65.58544 65.58544 68.48438
#
# Poissons Ratio (x) = 0.41424 0.21555
# Poissons Ratio (y) = 0.41424 0.21555
# Poissons Ratio (z) = 0.20642 0.20642
#
# Static dielectric constant tensor:
#      x y z
#    x 1.670410 0.000000 0.000000 
#    y 0.000000 1.670410 0.000000 
#    z 0.000000 0.000000 1.651360 
# 
# From -- ./inp_files/4614.got.cif
#   From: 2010.05.17/outbox.cif.g08.bks.cpg/sg151_3_cif.got.tgz:4614.got - 2010.05.20 10:33:20.
