data_PCOD9575734
_publ_section_title
;
Structure prediction by ZEFSAII (Michael W. Deem and Ramdas Pophale) SiO2 
 PCOD9575734
Probable space group: P 31 2 1
;
_chemical_formula_sum "Si O2"
_cell_formula_units_Z 39
_cell_length_a 8.942811
_cell_length_b 8.942811
_cell_length_c 30.166868
_cell_angle_alpha 90.000000
_cell_angle_beta 90.000000
_cell_angle_gamma 120.000000
_cell_volume 2089.339233
_symmetry_space_group_name_H-M "P 31 2 1"
_symmetry_group_IT_number 152
_symmetry_cell_setting 'hexagonal'
loop_
_space_group_symop_operation_xyz
x,y,z
-y,x-y,1/3+z
-x+y,-x,2/3+z
x-y,-y,2/3-z
-x,-x+y,1/3-z
y,x,-z
loop_
_atom_site_type_symbol
_atom_site_label
_atom_site_fract_x
_atom_site_fract_y
_atom_site_fract_z
Si Si1 0.818081 0.721369 0.926340
Si Si2 0.442725 0.338085 0.781750
Si Si3 0.628108 0.531051 0.145945
Si Si4 0.802210 0.802210 0.500000
Si Si5 0.098733 0.006267 0.571986
Si Si6 0.537881 0.537881 0.000000
Si Si7 0.742620 0.214685 0.404057
Si Si8 0.700405 0.000000 0.833334
O O1 0.706705 0.687616 0.881273
O O2 0.690564 0.602478 0.964179
O O3 0.963164 0.678695 0.913037
O O4 0.909177 0.925180 0.936941
O O5 0.516078 0.509950 0.812476
O O6 0.591018 0.378405 0.746412
O O7 0.365089 0.164230 0.811798
O O8 0.501552 0.378398 0.113383
O O9 0.811705 0.536845 0.154173
O O10 0.946010 0.875061 0.538976
O O11 0.228524 0.163561 0.540647
O O12 0.184299 0.905057 0.594137
O O13 0.369250 0.502623 0.973023
#
# Coordination Sequence:
#
# PCOD9575734 Si02
#       8
#     6   6   6   3   6   3   6   3
#     4   9  21  38  59  76 113 157 194 237 279 350
#     4  11  19  34  60  93 117 145 185 250 306 349
#     4  10  18  32  58  88 122 146 181 237 301 360
#     4   9  18  31  54  88 126 140 172 226 304 376
#     4   9  16  32  56  84 105 150 191 225 278 355
#     4  10  24  44  54  74 112 162 206 234 284 346
#     4  11  21  35  59  85 114 152 194 242 293 340
#     4   9  16  29  52  86 120 146 184 218 288 370
#
# _framework density 18.666188999999999
#
# number of rings (size 3 to 8) (size 9 to 14) (size 15 to 20)
#    0.000    2.154    3.077    1.846    0.000    1.231 
#    0.000    4.615    0.000    0.000    0.000    0.000 
#    0.000    0.000    0.000    0.000    0.000    0.000 
#
# Total GULP energy -217206.633047 kJ/mol
# GULP energy per Si atom -5569.400847 kJ/mol
# Density = 1.862370 g / cm^3
# Si number density = 18.666189 Si / 1000 Ang^3
#
#
#
# Elastic Constant Matrix: (Units=GPa)
#
#
# Indices 1 2 3 4 5 6 
#
# 1 81.2368 14.3587 16.2672 -3.8428 0.0000 0.0000
# 2 14.3587 81.2368 16.2672 3.8428 0.0000 0.0000
# 3 16.2672 16.2672 52.5649 0.0000 0.0000 0.0000
# 4 -3.8428 3.8428 0.0000 14.1484 0.0000 0.0000
# 5 0.0000 0.0000 0.0000 0.0000 14.1484 -3.8428
# 6 0.0000 0.0000 0.0000 0.0000 -3.8428 33.4391
#
#
#
# Elastic Compliance Matrix: (Units=1/GPa)
#
#
# Indices 1 2 3 4 5 6 
#
# 1 0.013563 -0.001871 -0.003618 0.004192 0.000000 0.000000
# 2 -0.001871 0.013563 -0.003618 -0.004192 0.000000 0.000000
# 3 -0.003618 -0.003618 0.021264 0.000000 0.000000 0.000000
# 4 0.004192 -0.004192 0.000000 0.072956 0.000000 0.000000
# 5 0.000000 0.000000 0.000000 0.000000 0.072956 0.008384
# 6 0.000000 0.000000 0.000000 0.000000 0.008384 0.030869
#
#
# Mechanical properties :
#
#
# Convention : Reuss Voigt Hill
#
# Bulk Modulus (GPa) = 33.14051 34.31386 33.72718
# Shear Modulus (GPa) = 19.72811 23.55688 21.64250
#
# Velocity S-wave (km/s) = 3.25451 3.55633 3.40876
# Velocity P-wave (km/s) = 5.64936 5.94021 5.79661
#
# Compressibility (1/GPa) = 0.03017456
#
# Stress axis : x y z
#
# Youngs Moduli (GPa) = 73.72865 73.72865 47.02862
#
# Poissons Ratio (x) = 0.13795 0.17017
# Poissons Ratio (y) = 0.13795 0.17017
# Poissons Ratio (z) = 0.26678 0.26678
#
# Static dielectric constant tensor:
#      x y z
#    x 1.690450 0.000000 0.000000 
#    y 0.000000 1.690450 0.000000 
#    z 0.000000 0.000000 1.632170 
# 
# From -- ./inp_files/3664.got.cif
#   From: 2010.05.17/outbox.cif.g08.bks.cpg/sg152_2_cif.got.tgz:3664.got - 2010.05.20 10:36:06.
