data_PCOD9575710
_publ_section_title
;
Structure prediction by ZEFSAII (Michael W. Deem and Ramdas Pophale) SiO2 
 PCOD9575710
Probable space group: P 31 2 1
;
_chemical_formula_sum "Si O2"
_cell_formula_units_Z 45
_cell_length_a 15.871172
_cell_length_b 15.871172
_cell_length_c 11.798756
_cell_angle_alpha 90.000000
_cell_angle_beta 90.000000
_cell_angle_gamma 120.000000
_cell_volume 2573.859570
_symmetry_space_group_name_H-M "P 31 2 1"
_symmetry_group_IT_number 152
_symmetry_cell_setting 'hexagonal'
loop_
_space_group_symop_operation_xyz
x,y,z
-y,x-y,1/3+z
-x+y,-x,2/3+z
x-y,-y,2/3-z
-x,-x+y,1/3-z
y,x,-z
loop_
_atom_site_type_symbol
_atom_site_label
_atom_site_fract_x
_atom_site_fract_y
_atom_site_fract_z
Si Si1 0.346796 0.920671 0.060015
Si Si2 0.617062 0.448254 0.960188
Si Si3 0.158838 0.595125 0.137791
Si Si4 0.244075 0.901233 0.293802
Si Si5 0.303579 0.363776 0.610289
Si Si6 0.250660 0.622000 0.466394
Si Si7 0.579088 0.063875 0.091369
Si Si8 0.626526 0.626526 0.500000
O O1 0.276415 0.907110 0.163438
O O2 0.346304 0.817638 0.054047
O O3 0.461679 0.995372 0.081674
O O4 0.318625 0.965378 0.952706
O O5 0.706181 0.434902 0.916070
O O6 0.524386 0.406531 0.877524
O O7 0.669917 0.564267 0.973804
O O8 0.589061 0.398924 0.084039
O O9 0.111262 0.639923 0.220801
O O10 0.271556 0.651294 0.161622
O O11 0.093971 0.479814 0.146379
O O12 0.144098 0.614704 0.007545
O O13 0.142315 0.803515 0.311410
O O14 0.249984 0.000000 0.333334
O O15 0.300828 0.300828 0.500000
O O16 0.372304 0.371256 0.716312
#
# Coordination Sequence:
#
# PCOD9575710 Si02
#       8
#     6   6   6   6   6   6   6   3
#     4  10  18  30  49  70 103 141 182 222 271 319
#     4  11  21  32  48  75 111 151 181 232 265 335
#     4  10  16  30  49  69 100 144 184 226 264 314
#     4  11  21  35  56  77 106 142 182 231 288 337
#     4  10  18  35  54  76 105 140 187 240 282 329
#     4  11  21  31  50  76 107 147 195 222 269 333
#     4  10  19  31  47  72 106 145 181 228 282 317
#     4  10  18  30  48  72 102 142 184 238 276 298
#
# _framework density 17.483473
#
# number of rings (size 3 to 8) (size 9 to 14) (size 15 to 20)
#    0.000    1.600    7.333    2.400    0.000    0.000 
#    0.000    0.000    0.000    0.000    0.000    0.000 
#    6.000    0.000    0.000    0.000    0.000    0.000 
#
# Total GULP energy -250574.700179 kJ/mol
# GULP energy per Si atom -5568.326671 kJ/mol
# Density = 1.744368 g / cm^3
# Si number density = 17.483473 Si / 1000 Ang^3
#
#
#
# Elastic Constant Matrix: (Units=GPa)
#
#
# Indices 1 2 3 4 5 6 
#
# 1 56.5280 10.5994 26.0697 2.5194 0.0000 0.0000
# 2 10.5994 56.5280 26.0697 -2.5194 0.0000 0.0000
# 3 26.0697 26.0697 84.2404 0.0000 0.0000 0.0000
# 4 2.5194 -2.5194 0.0000 23.0356 0.0000 0.0000
# 5 0.0000 0.0000 0.0000 0.0000 23.0356 2.5194
# 6 0.0000 0.0000 0.0000 0.0000 2.5194 22.9643
#
#
#
# Elastic Compliance Matrix: (Units=1/GPa)
#
#
# Indices 1 2 3 4 5 6 
#
# 1 0.020824 -0.001213 -0.006069 -0.002410 0.000000 0.000000
# 2 -0.001213 0.020824 -0.006069 0.002410 0.000000 0.000000
# 3 -0.006069 -0.006069 0.015627 0.000000 0.000000 0.000000
# 4 -0.002410 0.002410 0.000000 0.043938 0.000000 0.000000
# 5 0.000000 0.000000 0.000000 0.000000 0.043938 -0.004820
# 6 0.000000 0.000000 0.000000 0.000000 -0.004820 0.044075
#
#
# Mechanical properties :
#
#
# Convention : Reuss Voigt Hill
#
# Bulk Modulus (GPa) = 32.70846 35.86377 34.28611
# Shear Modulus (GPa) = 22.11215 22.77760 22.44488
#
# Velocity S-wave (km/s) = 3.56019 3.61336 3.58687
# Velocity P-wave (km/s) = 5.97065 6.16165 6.06691
#
# Compressibility (1/GPa) = 0.03057313
#
# Stress axis : x y z
#
# Youngs Moduli (GPa) = 48.02122 48.02122 63.99150
#
# Poissons Ratio (x) = 0.05826 0.38836
# Poissons Ratio (y) = 0.05826 0.38836
# Poissons Ratio (z) = 0.29144 0.29144
#
# Static dielectric constant tensor:
#      x y z
#    x 1.609470 0.000000 0.000000 
#    y 0.000000 1.609470 0.000000 
#    z 0.000000 0.000000 1.691160 
# 
# From -- ./inp_files/1890.got.cif
#   From: 2010.05.17/outbox.cif.g08.bks.cpg/sg152_1_cif.got.tgz:1890.got - 2010.05.20 10:36:06.
