data_PCOD9575624
_publ_section_title
;
Structure prediction by ZEFSAII (Michael W. Deem and Ramdas Pophale) SiO2 
 PCOD9575624
Probable space group: P 31 1 2
;
_chemical_formula_sum "Si O2"
_cell_formula_units_Z 45
_cell_length_a 16.884131
_cell_length_b 16.884131
_cell_length_c 9.469800
_cell_angle_alpha 90.000000
_cell_angle_beta 90.000000
_cell_angle_gamma 120.000000
_cell_volume 2337.915793
_symmetry_space_group_name_H-M "P 31 1 2"
_symmetry_group_IT_number 151
_symmetry_cell_setting 'hexagonal'
loop_
_space_group_symop_operation_xyz
x,y,z
-y,x-y,1/3+z
-x+y,-x,2/3+z
-y,-x,2/3-z
-x+y,y,1/3-z
x,x-y,-z
loop_
_atom_site_type_symbol
_atom_site_label
_atom_site_fract_x
_atom_site_fract_y
_atom_site_fract_z
Si Si1 0.926698 0.048197 0.997952
Si Si2 0.922305 0.735325 0.808842
Si Si3 0.998083 0.457710 0.282279
Si Si4 0.636940 0.057436 0.102474
Si Si5 0.634266 0.892063 0.401464
Si Si6 0.433113 0.226532 0.343402
Si Si7 0.719026 0.927404 0.101246
Si Si8 0.557016 0.114032 0.666667
O O1 0.925827 0.074174 0.833334
O O2 0.962022 0.135272 0.096508
O O3 0.976741 0.988371 0.000000
O O4 0.828097 0.982710 0.073618
O O5 0.870443 0.740886 0.666667
O O6 0.852375 0.647451 0.899931
O O7 0.009592 0.724422 0.785274
O O8 0.004554 0.544852 0.360304
O O9 0.937382 0.378436 0.397420
O O10 0.089809 0.451085 0.273251
O O11 0.949399 0.451979 0.134286
O O12 0.689397 0.158335 0.037456
O O13 0.691913 0.004631 0.075318
O O14 0.618344 0.809172 0.500000
O O15 0.676434 0.885908 0.252466
O O16 0.392755 0.196378 0.500000
O O17 0.508508 0.333333 0.353017
O O18 0.681714 0.840857 0.000000
#
# Coordination Sequence:
#
# PCOD9575624 Si02
#       8
#     6   6   6   6   6   6   6   3
#     4  11  25  39  56  85 125 165 207 261 311 379
#     4  12  23  41  66  89 126 172 215 263 321 384
#     4  10  22  42  61  94 124 168 211 270 327 388
#     4  10  21  42  68  88 130 170 210 262 336 384
#     4  11  24  40  64  94 125 166 215 273 324 384
#     4  12  24  40  61  95 127 172 217 263 319 385
#     4  10  22  40  63  98 119 162 220 255 318 389
#     4  12  24  38  60  94 132 162 228 268 316 384
#
# _framework density 19.247913
#
# number of rings (size 3 to 8) (size 9 to 14) (size 15 to 20)
#    0.000    1.067    5.333    1.200    3.733    2.133 
#    2.400    0.000    0.000    0.000    8.667    0.000 
#    0.000    0.000    0.000    0.000    0.000    0.000 
#
# Total GULP energy -250817.487629 kJ/mol
# GULP energy per Si atom -5573.721947 kJ/mol
# Density = 1.920410 g / cm^3
# Si number density = 19.247913 Si / 1000 Ang^3
#
#
#
# Elastic Constant Matrix: (Units=GPa)
#
#
# Indices 1 2 3 4 5 6 
#
# 1 60.7197 16.0098 35.7801 0.0002 -1.0759 0.0000
# 2 16.0098 60.7197 35.7801 -0.0002 1.0759 0.0000
# 3 35.7801 35.7801 132.4911 0.0000 0.0000 0.0000
# 4 0.0002 -0.0002 0.0000 25.0410 0.0000 1.0759
# 5 -1.0759 1.0759 0.0000 0.0000 25.0410 0.0002
# 6 0.0000 0.0000 0.0000 1.0759 0.0002 22.3550
#
#
#
# Elastic Compliance Matrix: (Units=1/GPa)
#
#
# Indices 1 2 3 4 5 6 
#
# 1 0.019917 -0.002496 -0.004704 0.000000 0.000963 0.000000
# 2 -0.002496 0.019917 -0.004704 0.000000 -0.000963 0.000000
# 3 -0.004704 -0.004704 0.010089 0.000000 0.000000 0.000000
# 4 0.000000 0.000000 0.000000 0.040017 0.000000 -0.001926
# 5 0.000963 -0.000963 0.000000 0.000000 0.040017 0.000000
# 6 0.000000 0.000000 0.000000 -0.001926 0.000000 0.044826
#
#
# Mechanical properties :
#
#
# Convention : Reuss Voigt Hill
#
# Bulk Modulus (GPa) = 38.29745 47.67448 42.98597
# Shear Modulus (GPa) = 24.12012 25.57810 24.84911
#
# Velocity S-wave (km/s) = 3.54380 3.64933 3.59695
# Velocity P-wave (km/s) = 6.05680 6.52528 6.29540
#
# Compressibility (1/GPa) = 0.02611140
#
# Stress axis : x y z
#
# Youngs Moduli (GPa) = 50.20951 50.20951 99.12155
#
# Poissons Ratio (x) = 0.12533 0.46631
# Poissons Ratio (y) = 0.12533 0.46631
# Poissons Ratio (z) = 0.23621 0.23621
#
# Static dielectric constant tensor:
#      x y z
#    x 1.715920 0.000000 0.000000 
#    y 0.000000 1.715920 0.000000 
#    z 0.000000 0.000000 1.571920 
# 
# From -- ./inp_files/1947.got.cif
#   From: 2010.05.17/outbox.cif.g08.bks.cpg/sg151_1_cif.got.tgz:1947.got - 2010.05.20 10:33:20.
