data_PCOD9575907
_publ_section_title
;
Structure prediction by ZEFSAII (Michael W. Deem and Ramdas Pophale) SiO2 
 PCOD9575907
Probable space group: P 31 2 1
;
_chemical_formula_sum "Si O2"
_cell_formula_units_Z 21
_cell_length_a 7.028031
_cell_length_b 7.028031
_cell_length_c 18.743066
_cell_angle_alpha 90.000000
_cell_angle_beta 90.000000
_cell_angle_gamma 120.000000
_cell_volume 801.749325
_symmetry_space_group_name_H-M "P 31 2 1"
_symmetry_group_IT_number 152
_symmetry_cell_setting 'hexagonal'
loop_
_space_group_symop_operation_xyz
x,y,z
-y,x-y,1/3+z
-x+y,-x,2/3+z
x-y,-y,2/3-z
-x,-x+y,1/3-z
y,x,-z
loop_
_atom_site_type_symbol
_atom_site_label
_atom_site_fract_x
_atom_site_fract_y
_atom_site_fract_z
Si Si1 0.191875 0.847291 0.953865
Si Si2 0.000000 0.553224 0.166667
Si Si3 0.564152 0.797459 0.287307
Si Si4 0.941725 0.178257 0.524044
O O1 0.395464 0.989963 0.898481
O O2 0.232946 0.652624 0.974560
O O3 0.940084 0.736191 0.926564
O O4 0.230725 0.001937 0.020367
O O5 0.190485 0.807234 0.187258
O O6 0.587770 0.000000 0.333334
O O7 0.593006 0.805249 0.202277
O O8 0.982794 0.982794 0.500000
#
# Coordination Sequence:
#
# PCOD9575907 Si02
#       4
#     6   3   6   6
#     4  12  25  44  70 103 147 183 245 304 353 438
#     4  10  20  44  64  96 136 188 224 296 364 410
#     4  12  25  44  68 105 138 190 242 293 365 428
#     4  10  23  43  71  94 143 184 232 293 361 411
#
# _framework density 26.192724999999999
#
# number of rings (size 3 to 8) (size 9 to 14) (size 15 to 20)
#    0.857    0.000    4.286    1.714    4.000    2.286 
#    0.000    0.000    0.000    0.000    0.000    0.000 
#    0.000    0.000    0.000    0.000    0.000    0.000 
#
# Total GULP energy -117042.927191 kJ/mol
# GULP energy per Si atom -5573.472723 kJ/mol
# Density = 2.613311 g / cm^3
# Si number density = 26.192725 Si / 1000 Ang^3
#
#
#
# Elastic Constant Matrix: (Units=GPa)
#
#
# Indices 1 2 3 4 5 6 
#
# 1 446.4511 -301.9095 14.0847 1930.4229 -0.1671 0.0001
# 2 -301.9095 446.4511 14.0847-1930.4229 0.1671 -0.0001
# 3 14.0847 14.0847 53.0868 0.0000 0.0000 0.0000
# 4 1930.4229-1930.4229 0.000011662.9008 0.0040 0.1684
# 5 -0.1671 0.1671 0.0000 0.004011662.8961 1930.4221
# 6 0.0001 -0.0001 0.0000 0.1684 1930.4221 374.1802
#
#
#
# Elastic Compliance Matrix: (Units=1/GPa)
#
#
# Indices 1 2 3 4 5 6 
#
# 1 0.008222 -0.000926 -0.001936 -0.001514 0.000000 0.000000
# 2 -0.000926 0.008222 -0.001936 0.001514 0.000000 0.000000
# 3 -0.001936 -0.001936 0.019864 0.000000 0.000000 0.000000
# 4 -0.001514 0.001514 0.000000 0.000587 0.000000 0.000000
# 5 0.000000 0.000000 0.000000 0.000000 0.000587 -0.003028
# 6 0.000000 0.000000 0.000000 0.000000 -0.003028 0.018295
#
#
# Mechanical properties :
#
#
# Convention : Reuss Voigt Hill
#
# Bulk Modulus (GPa) = 37.43509 44.27878 40.85694
# Shear Modulus (GPa) = 67.31762 4821.31069 2444.31416
#
# Velocity S-wave (km/s) = 5.07510 42.94999 30.58152
# Velocity P-wave (km/s) = 6.97606 49.76489 35.53315
#
# Compressibility (1/GPa) = 0.02671290
#
# Stress axis : x y z
#
# Youngs Moduli (GPa) = 121.63155 121.63155 50.34187
#
# Poissons Ratio (x) = 0.11262 0.09744
# Poissons Ratio (y) = 0.11262 0.09744
# Poissons Ratio (z) = 0.23544 0.23544
#
# Static dielectric constant tensor:
#      x y z
#    x -11.313240 0.000000 0.000000 
#    y 0.000000 -11.313230 0.000000 
#    z 0.000000 0.000000 1.579430 
# 
# From -- ./inp_files/2331.got.cif
#   From: 2010.05.17/outbox.cif.g08.bks.cpg/sg152_2_cif.got.tgz:2331.got - 2010.05.20 10:36:06.
