data_PCOD9575088
_publ_section_title
;
Structure prediction by ZEFSAII (Michael W. Deem and Ramdas Pophale) SiO2 
 PCOD9575088
Probable space group: R -3
;
_chemical_formula_sum "Si O2"
_cell_formula_units_Z 108
_cell_length_a 16.646436
_cell_length_b 16.646436
_cell_length_c 20.120428
_cell_angle_alpha 90.000000
_cell_angle_beta 90.000000
_cell_angle_gamma 120.000000
_cell_volume 4828.479337
_symmetry_space_group_name_H-M "R -3"
_symmetry_group_IT_number 148
_symmetry_cell_setting 'hexagonal'
loop_
_space_group_symop_operation_xyz
x,y,z
-y,x-y,z
-x+y,-x,z
-x,-y,-z
y,-x+y,-z
x-y,x,-z
2/3+x,1/3+y,1/3+z
2/3-y,1/3+x-y,1/3+z
2/3-x+y,1/3-x,1/3+z
2/3-x,1/3-y,1/3-z
2/3+y,1/3-x+y,1/3-z
2/3+x-y,1/3+x,1/3-z
1/3+x,2/3+y,2/3+z
1/3-y,2/3+x-y,2/3+z
1/3-x+y,2/3-x,2/3+z
1/3-x,2/3-y,2/3-z
1/3+y,2/3-x+y,2/3-z
1/3+x-y,2/3+x,2/3-z
loop_
_atom_site_type_symbol
_atom_site_label
_atom_site_fract_x
_atom_site_fract_y
_atom_site_fract_z
Si Si1 0.528765 0.814435 0.873370
Si Si2 0.615012 0.400949 0.679495
Si Si3 0.852813 0.645631 0.483425
Si Si4 0.930888 0.430321 0.423196
Si Si5 0.760702 0.742226 0.421711
Si Si6 0.661564 0.052739 0.360111
O O1 0.491562 0.753995 0.939456
O O2 0.526386 0.749139 0.814021
O O3 0.638675 0.889780 0.883128
O O4 0.486570 0.878316 0.850170
O O5 0.566919 0.290542 0.688801
O O6 0.603138 0.466565 0.730371
O O7 0.769367 0.663990 0.464424
O O8 0.910741 0.650213 0.416727
O O9 0.926796 0.721493 0.534295
O O10 0.962115 0.531872 0.394577
O O11 0.895262 0.362231 0.361425
O O12 0.700153 0.702401 0.353888
#
# Coordination Sequence:
#
# PCOD9575088 Si02
#       6
#    18  18  18  18  18  18
#     4  10  20  41  64  95 127 173 226 269 325 386
#     4  10  25  45  66  91 134 184 215 264 338 394
#     4  11  26  40  69 101 129 175 223 277 327 390
#     4  10  20  36  65  93 133 168 212 280 329 382
#     4  12  25  43  67  99 135 173 227 271 327 398
#     4  11  20  41  64  96 132 172 217 271 339 384
#
# _framework density 22.367291999999999
#
# number of rings (size 3 to 8) (size 9 to 14) (size 15 to 20)
#    0.333    1.000    5.000    0.000    2.333    2.667 
#    0.000    2.500    0.000    0.333    0.000    0.000 
#    0.000    0.000    0.000    0.000    0.000    0.000 
#
# Total GULP energy -200759.334320 kJ/mol
# GULP energy per Si atom -5576.648176 kJ/mol
# Density = 2.231638 g / cm^3
# Si number density = 22.367292 Si / 1000 Ang^3
#
#
#
# Elastic Constant Matrix: (Units=GPa)
#
#
# Indices 1 2 3 4 5 6 
#
# 1 47.2477 -3.9965 20.6430 -1.8543 8.0044 0.0000
# 2 -3.9965 47.2477 20.6430 1.8543 -8.0044 0.0000
# 3 20.6430 20.6430 84.7762 0.0000 0.0000 0.0000
# 4 -1.8543 1.8543 0.0000 32.1859 0.0000 -8.0044
# 5 8.0044 -8.0044 0.0000 0.0000 32.1859 -1.8543
# 6 0.0000 0.0000 0.0000 -8.0044 -1.8543 25.6221
#
#
#
# Elastic Compliance Matrix: (Units=1/GPa)
#
#
# Indices 1 2 3 4 5 6 
#
# 1 0.025688 0.004434 -0.007335 0.001224 -0.005286 0.000000
# 2 0.004434 0.025688 -0.007335 -0.001224 0.005286 0.000000
# 3 -0.007335 -0.007335 0.015368 0.000000 0.000000 0.000000
# 4 0.001224 -0.001224 0.000000 0.033840 0.000000 0.010572
# 5 -0.005286 0.005286 0.000000 0.000000 0.033840 0.002449
# 6 0.000000 0.000000 0.000000 0.010572 0.002449 0.042509
#
#
# Mechanical properties :
#
#
# Convention : Reuss Voigt Hill
#
# Bulk Modulus (GPa) = 21.61076 28.20563 24.90819
# Shear Modulus (GPa) = 23.49314 27.46423 25.47868
#
# Velocity S-wave (km/s) = 3.24440 3.50791 3.37872
# Velocity P-wave (km/s) = 4.87007 5.38932 5.13626
#
# Compressibility (1/GPa) = 0.04627325
#
# Stress axis : x y z
#
# Youngs Moduli (GPa) = 38.92821 38.92821 65.07106
#
# Poissons Ratio (x) = -0.17261 0.47728
# Poissons Ratio (y) = -0.17261 0.47728
# Poissons Ratio (z) = 0.28553 0.28553
#
# Static dielectric constant tensor:
#      x y z
#    x 1.864840 0.000000 0.000000 
#    y 0.000000 1.864840 0.000000 
#    z 0.000000 0.000000 1.839620 
# 
# From -- ./inp_files/3102.got.cif
#   From: 2010.05.17/outbox.cif.g08.bks.cpg/sg148_2_cif.got.tgz:3102.got - 2010.05.20 13:50:20.
