data_PCOD9575662
_publ_section_title
;
Structure prediction by ZEFSAII (Michael W. Deem and Ramdas Pophale) SiO2 
 PCOD9575662
Probable space group: P 31 1 2
;
_chemical_formula_sum "Si O2"
_cell_formula_units_Z 24
_cell_length_a 14.979315
_cell_length_b 14.979315
_cell_length_c 5.133749
_cell_angle_alpha 90.000000
_cell_angle_beta 90.000000
_cell_angle_gamma 120.000000
_cell_volume 997.583300
_symmetry_space_group_name_H-M "P 31 1 2"
_symmetry_group_IT_number 151
_symmetry_cell_setting 'hexagonal'
loop_
_space_group_symop_operation_xyz
x,y,z
-y,x-y,1/3+z
-x+y,-x,2/3+z
-y,-x,2/3-z
-x+y,y,1/3-z
x,x-y,-z
loop_
_atom_site_type_symbol
_atom_site_label
_atom_site_fract_x
_atom_site_fract_y
_atom_site_fract_z
Si Si1 0.913615 0.290587 0.912712
Si Si2 0.390950 0.609051 0.333334
Si Si3 0.117406 0.058703 0.000000
Si Si4 0.222419 0.444838 0.666667
Si Si5 0.606628 0.213256 0.666667
Si Si6 0.712357 0.733818 0.756594
O O1 0.818940 0.181061 0.833334
O O2 0.865671 0.352869 0.058930
O O3 0.969160 0.328438 0.634384
O O4 0.987144 0.285135 0.127537
O O5 0.418578 0.709289 0.500000
O O6 0.337893 0.516078 0.543469
O O7 0.040530 0.081059 0.166667
O O8 0.188124 0.021625 0.151325
O O9 0.141385 0.366126 0.458879
O O10 0.703186 0.296815 0.833334
#
# Coordination Sequence:
#
# PCOD9575662 Si02
#       6
#     6   3   3   3   3   6
#     4  11  25  49  72 113 152 196 249 324 382 465
#     4   9  22  49  71 104 146 199 265 332 381 462
#     4  12  29  47  77 112 154 204 263 310 386 482
#     4  11  27  46  81 108 155 216 265 326 405 462
#     4  10  26  44  81 106 151 203 257 308 398 468
#     4  12  28  47  78 109 158 197 256 320 393 460
#
# _framework density 24.058139000000001
#
# number of rings (size 3 to 8) (size 9 to 14) (size 15 to 20)
#    0.000    1.000    2.500    0.750   17.500    1.000 
#    9.000    0.000    0.000    0.000    0.000    0.000 
#    0.000    0.000    0.000    0.000    0.000    0.000 
#
# Total GULP energy -133683.376995 kJ/mol
# GULP energy per Si atom -5570.140708 kJ/mol
# Density = 2.400338 g / cm^3
# Si number density = 24.058139 Si / 1000 Ang^3
#
#
#
# Elastic Constant Matrix: (Units=GPa)
#
#
# Indices 1 2 3 4 5 6 
#
# 1 118.9909 69.2942 32.9543 0.0002 3.5437 0.0000
# 2 69.2942 118.9909 32.9543 -0.0002 -3.5437 0.0000
# 3 32.9543 32.9543 99.5604 0.0000 0.0000 0.0000
# 4 0.0002 -0.0002 0.0000 22.4758 0.0000 -3.5437
# 5 3.5437 -3.5437 0.0000 0.0000 22.4758 0.0002
# 6 0.0000 0.0000 0.0000 -3.5437 0.0002 24.8483
#
#
#
# Elastic Compliance Matrix: (Units=1/GPa)
#
#
# Indices 1 2 3 4 5 6 
#
# 1 0.013296 -0.007289 -0.001988 0.000000 -0.003246 0.000000
# 2 -0.007289 0.013296 -0.001988 0.000000 0.003246 0.000000
# 3 -0.001988 -0.001988 0.011360 0.000000 0.000000 0.000000
# 4 0.000000 0.000000 0.000000 0.045516 0.000000 0.006491
# 5 -0.003246 0.003246 0.000000 0.000000 0.045516 0.000000
# 6 0.000000 0.000000 0.000000 0.006491 0.000000 0.041170
#
#
# Mechanical properties :
#
#
# Convention : Reuss Voigt Hill
#
# Bulk Modulus (GPa) = 64.84548 67.54977 66.19763
# Shear Modulus (GPa) = 25.27482 27.44927 26.36205
#
# Velocity S-wave (km/s) = 3.24477 3.38147 3.31382
# Velocity P-wave (km/s) = 6.40704 6.58669 6.49749
#
# Compressibility (1/GPa) = 0.01542128
#
# Stress axis : x y z
#
# Youngs Moduli (GPa) = 75.21046 75.21046 88.02481
#
# Poissons Ratio (x) = 0.54820 0.17502
# Poissons Ratio (y) = 0.54820 0.17502
# Poissons Ratio (z) = 0.14954 0.14954
#
# Static dielectric constant tensor:
#      x y z
#    x 2.068920 0.000000 0.000000 
#    y 0.000000 2.068920 0.000000 
#    z 0.000000 0.000000 2.163190 
# 
# From -- ./inp_files/307.got.cif
#   From: 2010.05.17/outbox.cif.g08.bks.cpg/sg151_1_cif.got.tgz:307.got - 2010.05.20 10:33:20.
