data_PCOD9575793
_publ_section_title
;
Structure prediction by ZEFSAII (Michael W. Deem and Ramdas Pophale) SiO2 
 PCOD9575793
Probable space group: P 31 2 1
;
_chemical_formula_sum "Si O2"
_cell_formula_units_Z 42
_cell_length_a 8.217377
_cell_length_b 8.217377
_cell_length_c 34.484394
_cell_angle_alpha 90.000000
_cell_angle_beta 90.000000
_cell_angle_gamma 120.000000
_cell_volume 2016.599497
_symmetry_space_group_name_H-M "P 31 2 1"
_symmetry_group_IT_number 152
_symmetry_cell_setting 'hexagonal'
loop_
_space_group_symop_operation_xyz
x,y,z
-y,x-y,1/3+z
-x+y,-x,2/3+z
x-y,-y,2/3-z
-x,-x+y,1/3-z
y,x,-z
loop_
_atom_site_type_symbol
_atom_site_label
_atom_site_fract_x
_atom_site_fract_y
_atom_site_fract_z
Si Si1 0.465862 0.317366 0.615546
Si Si2 0.363504 0.911406 0.256401
Si Si3 0.672882 0.414526 0.362171
Si Si4 0.961269 0.038130 0.711507
Si Si5 0.715137 0.297839 0.550443
Si Si6 0.911051 0.690802 0.423982
Si Si7 0.606006 0.185206 0.808962
O O1 0.575229 0.283495 0.650268
O O2 0.453772 0.502955 0.626805
O O3 0.254186 0.145037 0.613962
O O4 0.565484 0.322949 0.575763
O O5 0.403796 0.784402 0.285494
O O6 0.242397 0.979128 0.281394
O O7 0.234337 0.768503 0.222493
O O8 0.531182 0.083750 0.234797
O O9 0.857130 0.571658 0.384048
O O10 0.000000 0.017692 0.666667
O O11 0.110164 0.048928 0.743005
O O12 0.683359 0.327576 0.505975
O O13 0.701611 0.096687 0.557842
O O14 0.737486 0.575024 0.452662
O O15 0.551666 0.000000 0.833334
#
# Coordination Sequence:
#
# PCOD9575793 Si02
#       7
#     6   6   6   6   6   6   6
#     4  11  22  36  62  88 125 162 207 254 324 375
#     4   9  22  36  62  89 119 158 213 245 312 377
#     4  10  20  38  56  90 123 160 201 261 310 376
#     4  10  19  37  60  87 120 163 200 255 314 377
#     4  11  22  39  62  89 119 167 206 259 311 378
#     4  10  21  39  62  89 121 161 210 256 314 373
#     4  11  22  43  63  88 127 164 207 264 311 371
#
# _framework density 20.827138000000001
#
# number of rings (size 3 to 8) (size 9 to 14) (size 15 to 20)
#    0.000    1.714    1.429    4.286    6.000    0.000 
#    0.000   17.143    0.000    0.000    0.000    0.000 
#    0.000    0.000    0.000    0.000    0.000    0.000 
#
# Total GULP energy -234529.928988 kJ/mol
# GULP energy per Si atom -5584.045928 kJ/mol
# Density = 2.077973 g / cm^3
# Si number density = 20.827138 Si / 1000 Ang^3
#
#
#
# Elastic Constant Matrix: (Units=GPa)
#
#
# Indices 1 2 3 4 5 6 
#
# 1 65.4345 13.7385 20.6358 4.9352 0.0005 0.0000
# 2 13.7385 65.4345 20.6358 -4.9352 -0.0005 0.0000
# 3 20.6358 20.6358 102.5211 0.0000 0.0000 0.0000
# 4 4.9352 -4.9352 0.0000 32.1213 0.0000 -0.0005
# 5 0.0005 -0.0005 0.0000 0.0000 32.1213 4.9352
# 6 0.0000 0.0000 0.0000 -0.0005 4.9352 25.8480
#
#
#
# Elastic Compliance Matrix: (Units=1/GPa)
#
#
# Indices 1 2 3 4 5 6 
#
# 1 0.017020 -0.002909 -0.002840 -0.003062 0.000000 0.000000
# 2 -0.002909 0.017020 -0.002840 0.003062 0.000000 0.000000
# 3 -0.002840 -0.002840 0.010898 0.000000 0.000000 0.000000
# 4 -0.003062 0.003062 0.000000 0.032073 0.000000 0.000001
# 5 0.000000 0.000000 0.000000 0.000000 0.032073 -0.006124
# 6 0.000000 0.000000 0.000000 0.000001 -0.006124 0.039857
#
#
# Mechanical properties :
#
#
# Convention : Reuss Voigt Hill
#
# Bulk Modulus (GPa) = 36.02497 38.15669 37.09083
# Shear Modulus (GPa) = 28.51094 29.91013 29.21054
#
# Velocity S-wave (km/s) = 3.70392 3.79372 3.74909
# Velocity P-wave (km/s) = 5.96881 6.12782 6.04884
#
# Compressibility (1/GPa) = 0.02775852
#
# Stress axis : x y z
#
# Youngs Moduli (GPa) = 58.75498 58.75498 91.76402
#
# Poissons Ratio (x) = 0.17090 0.26064
# Poissons Ratio (y) = 0.17090 0.26064
# Poissons Ratio (z) = 0.16688 0.16688
#
# Static dielectric constant tensor:
#      x y z
#    x 1.778620 0.000000 0.000000 
#    y 0.000000 1.778620 0.000000 
#    z 0.000000 0.000000 1.715360 
# 
# From -- ./inp_files/3722.got.cif
#   From: 2010.05.17/outbox.cif.g08.bks.cpg/sg152_2_cif.got.tgz:3722.got - 2010.05.20 10:36:06.
