data_PCOD9575799
_publ_section_title
;
Structure prediction by ZEFSAII (Michael W. Deem and Ramdas Pophale) SiO2 
 PCOD9575799
Probable space group: P 31 2 1
;
_chemical_formula_sum "Si O2"
_cell_formula_units_Z 36
_cell_length_a 8.340413
_cell_length_b 8.340413
_cell_length_c 24.714930
_cell_angle_alpha 90.000000
_cell_angle_beta 90.000000
_cell_angle_gamma 120.000000
_cell_volume 1488.898627
_symmetry_space_group_name_H-M "P 31 2 1"
_symmetry_group_IT_number 152
_symmetry_cell_setting 'hexagonal'
loop_
_space_group_symop_operation_xyz
x,y,z
-y,x-y,1/3+z
-x+y,-x,2/3+z
x-y,-y,2/3-z
-x,-x+y,1/3-z
y,x,-z
loop_
_atom_site_type_symbol
_atom_site_label
_atom_site_fract_x
_atom_site_fract_y
_atom_site_fract_z
Si Si1 0.759128 0.359026 0.954998
Si Si2 0.717243 0.973301 0.772931
Si Si3 0.527592 0.171822 0.044419
Si Si4 0.116427 0.285174 0.748722
Si Si5 0.184993 0.272742 0.873754
Si Si6 0.208908 0.040538 0.957922
O O1 0.696857 0.507993 0.940234
O O2 0.972293 0.484685 0.935796
O O3 0.695398 0.160317 0.927685
O O4 0.722827 0.314559 0.018800
O O5 0.890122 0.161901 0.749304
O O6 0.663514 0.000000 0.833334
O O7 0.816929 0.850641 0.780030
O O8 0.457174 0.255390 0.090778
O O9 0.394245 0.102029 0.991498
O O10 0.188599 0.301101 0.810354
O O11 0.190448 0.161202 0.718173
O O12 0.260503 0.147610 0.900509
O O13 0.124477 0.124477 0.000000
#
# Coordination Sequence:
#
# PCOD9575799 Si02
#       6
#     6   6   6   6   6   6
#     4  11  22  38  60  92 127 172 221 271 352 412
#     4   8  17  38  61  84 122 165 209 276 341 405
#     4  10  21  39  56  87 130 166 210 284 341 401
#     4  10  19  37  67  92 115 171 229 268 346 428
#     4   8  17  37  63  83 119 164 218 270 331 415
#     4   9  17  35  62  89 122 167 214 270 336 409
#
# _framework density 24.178944000000001
#
# number of rings (size 3 to 8) (size 9 to 14) (size 15 to 20)
#    0.000    2.667    0.000    3.500    0.000    0.000 
#   12.000    7.500    0.000    0.000    0.000    0.000 
#    0.000    0.000    0.000    0.000    0.000    0.000 
#
# Total GULP energy -200477.709308 kJ/mol
# GULP energy per Si atom -5568.825259 kJ/mol
# Density = 2.412391 g / cm^3
# Si number density = 24.178944 Si / 1000 Ang^3
#
#
#
# Elastic Constant Matrix: (Units=GPa)
#
#
# Indices 1 2 3 4 5 6 
#
# 1 65.4849 17.7920 21.9906 3.9962 0.0000 0.0000
# 2 17.7920 65.4849 21.9906 -3.9962 0.0000 0.0000
# 3 21.9906 21.9906 50.8261 0.0000 0.0000 0.0000
# 4 3.9962 -3.9962 0.0000 34.2210 0.0000 0.0000
# 5 0.0000 0.0000 0.0000 0.0000 34.2210 3.9962
# 6 0.0000 0.0000 0.0000 0.0000 3.9962 23.8464
#
#
#
# Elastic Compliance Matrix: (Units=1/GPa)
#
#
# Indices 1 2 3 4 5 6 
#
# 1 0.018475 -0.002911 -0.006734 -0.002497 0.000000 0.000000
# 2 -0.002911 0.018475 -0.006734 0.002497 0.000000 0.000000
# 3 -0.006734 -0.006734 0.025502 0.000000 0.000000 0.000000
# 4 -0.002497 0.002497 0.000000 0.029805 0.000000 0.000000
# 5 0.000000 0.000000 0.000000 0.000000 0.029805 -0.004995
# 6 0.000000 0.000000 0.000000 0.000000 -0.004995 0.042772
#
#
# Mechanical properties :
#
#
# Convention : Reuss Voigt Hill
#
# Bulk Modulus (GPa) = 33.67618 33.92694 33.80156
# Shear Modulus (GPa) = 24.09735 26.45922 25.27828
#
# Velocity S-wave (km/s) = 3.16036 3.31162 3.23688
# Velocity P-wave (km/s) = 5.22258 5.35579 5.28960
#
# Compressibility (1/GPa) = 0.02969458
#
# Stress axis : x y z
#
# Youngs Moduli (GPa) = 54.12618 54.12618 39.21214
#
# Poissons Ratio (x) = 0.15754 0.26407
# Poissons Ratio (y) = 0.15754 0.26407
# Poissons Ratio (z) = 0.36450 0.36450
#
# Static dielectric constant tensor:
#      x y z
#    x 2.063160 0.000000 0.000000 
#    y 0.000000 2.063160 0.000000 
#    z 0.000000 0.000000 1.974130 
# 
# From -- ./inp_files/3371.got.cif
#   From: 2010.05.17/outbox.cif.g08.bks.cpg/sg152_2_cif.got.tgz:3371.got - 2010.05.20 10:36:06.
