data_PCOD9575053
_publ_section_title
;
Structure prediction by ZEFSAII (Michael W. Deem and Ramdas Pophale) SiO2 
 PCOD9575053
Probable space group: R -3
;
_chemical_formula_sum "Si O2"
_cell_formula_units_Z 126
_cell_length_a 28.112402
_cell_length_b 28.112402
_cell_length_c 8.008295
_cell_angle_alpha 90.000000
_cell_angle_beta 90.000000
_cell_angle_gamma 120.000000
_cell_volume 5481.085837
_symmetry_space_group_name_H-M "R -3"
_symmetry_group_IT_number 148
_symmetry_cell_setting 'hexagonal'
loop_
_space_group_symop_operation_xyz
x,y,z
-y,x-y,z
-x+y,-x,z
-x,-y,-z
y,-x+y,-z
x-y,x,-z
2/3+x,1/3+y,1/3+z
2/3-y,1/3+x-y,1/3+z
2/3-x+y,1/3-x,1/3+z
2/3-x,1/3-y,1/3-z
2/3+y,1/3-x+y,1/3-z
2/3+x-y,1/3+x,1/3-z
1/3+x,2/3+y,2/3+z
1/3-y,2/3+x-y,2/3+z
1/3-x+y,2/3-x,2/3+z
1/3-x,2/3-y,2/3-z
1/3+y,2/3-x+y,2/3-z
1/3+x-y,2/3+x,2/3-z
loop_
_atom_site_type_symbol
_atom_site_label
_atom_site_fract_x
_atom_site_fract_y
_atom_site_fract_z
Si Si1 0.290556 0.307855 0.732456
Si Si2 0.363058 0.577997 0.643093
Si Si3 0.727133 0.801344 0.218064
Si Si4 0.460315 0.134092 0.226499
Si Si5 0.032649 0.572024 0.648510
Si Si6 0.439453 0.881656 0.428633
Si Si7 0.870119 0.153702 0.518892
O O1 0.320584 0.339583 0.565265
O O2 0.264267 0.243807 0.686375
O O3 0.247159 0.321545 0.822669
O O4 0.303245 0.568852 0.604983
O O5 0.354185 0.525493 0.748078
O O6 0.397815 0.576473 0.486338
O O7 0.763611 0.809775 0.054586
O O8 0.739553 0.855991 0.316823
O O9 0.660927 0.776612 0.203476
O O10 0.445274 0.070863 0.235718
O O11 0.447032 0.164899 0.081956
O O12 0.074357 0.555254 0.564489
O O13 0.986766 0.521324 0.751863
O O14 0.473987 0.899399 0.261163
#
# Coordination Sequence:
#
# PCOD9575053 Si02
#       7
#    18  18  18  18  18  18  18
#     4  11  23  38  54  80 119 156 203 252 307 362
#     4   9  18  34  61  94 120 149 199 263 317 371
#     4  10  22  38  53  84 118 157 208 251 303 366
#     4   9  19  35  56  81 119 153 201 258 299 367
#     4  10  20  32  57  82 109 161 200 248 297 360
#     4  10  19  34  58  85 113 153 200 243 312 369
#     4  11  21  35  59  82 118 161 203 254 302 373
#
# _framework density 22.988146
#
# number of rings (size 3 to 8) (size 9 to 14) (size 15 to 20)
#    0.000    2.000    1.429    2.286    4.000    0.000 
#    2.571    0.000    0.000    0.000    0.000    1.000 
#    0.000    0.000    0.000    0.000    0.000    0.000 
#
# Total GULP energy -234244.355942 kJ/mol
# GULP energy per Si atom -5577.246570 kJ/mol
# Density = 2.293582 g / cm^3
# Si number density = 22.988146 Si / 1000 Ang^3
#
#
#
# Elastic Constant Matrix: (Units=GPa)
#
#
# Indices 1 2 3 4 5 6 
#
# 1 92.2455 25.3283 20.8361 3.6691 -0.8297 0.0131
# 2 25.3283 92.2507 20.8537 -3.6776 0.8302 0.0135
# 3 20.8361 20.8537 40.8696 0.0315 -0.0058 0.0264
# 4 3.6691 -3.6776 0.0315 21.2872 0.0162 0.8430
# 5 -0.8297 0.8302 -0.0058 0.0162 21.2980 3.6892
# 6 0.0131 0.0135 0.0264 0.8430 3.6892 33.4678
#
#
#
# Elastic Compliance Matrix: (Units=1/GPa)
#
#
# Indices 1 2 3 4 5 6 
#
# 1 0.012813 -0.002432 -0.005289 -0.002621 0.000594 0.000001
# 2 -0.002432 0.012817 -0.005302 0.002642 -0.000598 -0.000001
# 3 -0.005289 -0.005302 0.029870 -0.000048 0.000012 -0.000019
# 4 -0.002621 0.002642 -0.000048 0.047933 -0.000033 -0.001204
# 5 0.000594 -0.000598 0.000012 -0.000033 0.047914 -0.005281
# 6 0.000001 -0.000001 -0.000019 -0.001204 -0.005281 0.030492
#
#
# Mechanical properties :
#
#
# Convention : Reuss Voigt Hill
#
# Bulk Modulus (GPa) = 33.95216 39.93355 36.94285
# Shear Modulus (GPa) = 22.96713 25.76711 24.36712
#
# Velocity S-wave (km/s) = 3.16426 3.35160 3.25928
# Velocity P-wave (km/s) = 5.30580 5.69093 5.50174
#
# Compressibility (1/GPa) = 0.02945321
#
# Stress axis : x y z
#
# Youngs Moduli (GPa) = 78.04755 78.02125 33.47845
#
# Poissons Ratio (x) = 0.18975 0.17707
# Poissons Ratio (y) = 0.18982 0.17751
# Poissons Ratio (z) = 0.41280 0.41367
#
# Static dielectric constant tensor:
#      x y z
#    x 1.899670 0.000010 -0.000110 
#    y 0.000010 1.899730 0.000010 
#    z -0.000110 0.000010 1.932930 
# 
# From -- ./inp_files/1106.got.cif
#   From: 2010.05.17/outbox.cif.g08.bks.cpg/sg148_1_cif.got.tgz:1106.got - 2010.05.20 13:50:20.
