data_PCOD9575830
_publ_section_title
;
Structure prediction by ZEFSAII (Michael W. Deem and Ramdas Pophale) SiO2 
 PCOD9575830
Probable space group: P 31 2 1
;
_chemical_formula_sum "Si O2"
_cell_formula_units_Z 42
_cell_length_a 19.518972
_cell_length_b 19.518972
_cell_length_c 5.830631
_cell_angle_alpha 90.000000
_cell_angle_beta 90.000000
_cell_angle_gamma 120.000000
_cell_volume 1923.800668
_symmetry_space_group_name_H-M "P 31 2 1"
_symmetry_group_IT_number 152
_symmetry_cell_setting 'hexagonal'
loop_
_space_group_symop_operation_xyz
x,y,z
-y,x-y,1/3+z
-x+y,-x,2/3+z
x-y,-y,2/3-z
-x,-x+y,1/3-z
y,x,-z
loop_
_atom_site_type_symbol
_atom_site_label
_atom_site_fract_x
_atom_site_fract_y
_atom_site_fract_z
Si Si1 0.000000 0.201870 0.166667
Si Si2 0.805199 0.565388 0.440520
Si Si3 0.854170 0.712635 0.184572
Si Si4 0.000000 0.397238 0.166667
Si Si5 0.271254 0.881035 0.509440
Si Si6 0.860010 0.934196 0.132836
Si Si7 0.600428 0.348204 0.940122
Si Si8 0.140355 0.504786 0.466601
O O1 0.971851 0.145002 0.386665
O O2 0.084414 0.267893 0.264088
O O3 0.866103 0.640967 0.286832
O O4 0.788913 0.590865 0.688381
O O5 0.804471 0.483952 0.484699
O O6 0.720729 0.532460 0.317882
O O7 0.782192 0.673948 0.006722
O O8 0.921402 0.790565 0.049250
O O9 0.954875 0.321755 0.330493
O O10 0.062331 0.472851 0.312836
O O11 0.342168 0.877050 0.382497
O O12 0.883414 0.000000 0.333334
O O13 0.932566 0.932566 0.000000
O O14 0.612666 0.281855 0.077426
O O15 0.604367 0.404678 0.148020
#
# Coordination Sequence:
#
# PCOD9575830 Si02
#       8
#     3   6   6   3   6   6   6   6
#     4  10  22  39  62  96 130 166 209 274 316 399
#     4  10  21  35  57  90 129 169 213 266 327 386
#     4  10  22  37  58  92 130 166 216 265 333 380
#     4  10  22  35  54  88 124 160 209 252 322 393
#     4  10  20  35  56  87 125 161 210 263 327 379
#     4  10  23  41  64  95 138 176 213 265 330 402
#     4  12  22  38  60  91 138 167 214 264 332 407
#     4  10  21  35  55  86 126 167 198 265 323 394
#
# _framework density 21.831783000000001
#
# number of rings (size 3 to 8) (size 9 to 14) (size 15 to 20)
#    0.000    1.714    2.857    1.286    0.000   20.000 
#    0.000    0.000    0.000    0.000    0.000   20.000 
#    0.000    0.000    0.000    0.000    0.000    0.000 
#
# Total GULP energy -233841.810960 kJ/mol
# GULP energy per Si atom -5567.662166 kJ/mol
# Density = 2.178209 g / cm^3
# Si number density = 21.831783 Si / 1000 Ang^3
#
#
#
# Elastic Constant Matrix: (Units=GPa)
#
#
# Indices 1 2 3 4 5 6 
#
# 1 64.0580 32.3368 26.3698 -1.7555 0.0001 0.0000
# 2 32.3368 64.0580 26.3698 1.7555 -0.0001 0.0000
# 3 26.3698 26.3698 89.9287 0.0000 0.0000 0.0000
# 4 -1.7555 1.7555 0.0000 37.1649 0.0000 -0.0001
# 5 0.0001 -0.0001 0.0000 0.0000 37.1649 -1.7555
# 6 0.0000 0.0000 0.0000 -0.0001 -1.7555 15.8606
#
#
#
# Elastic Compliance Matrix: (Units=1/GPa)
#
#
# Indices 1 2 3 4 5 6 
#
# 1 0.022023 -0.009667 -0.003623 0.001497 0.000000 0.000000
# 2 -0.009667 0.022023 -0.003623 -0.001497 0.000000 0.000000
# 3 -0.003623 -0.003623 0.013245 0.000000 0.000000 0.000000
# 4 0.001497 -0.001497 0.000000 0.027049 0.000000 0.000000
# 5 0.000000 0.000000 0.000000 0.000000 0.027049 0.002994
# 6 0.000000 0.000000 0.000000 0.000000 0.002994 0.063381
#
#
# Mechanical properties :
#
#
# Convention : Reuss Voigt Hill
#
# Bulk Modulus (GPa) = 42.61754 43.13305 42.87530
# Shear Modulus (GPa) = 23.10347 26.90262 25.00305
#
# Velocity S-wave (km/s) = 3.25660 3.51418 3.38784
# Velocity P-wave (km/s) = 5.80550 6.02211 5.91480
#
# Compressibility (1/GPa) = 0.02346452
#
# Stress axis : x y z
#
# Youngs Moduli (GPa) = 45.40640 45.40640 75.50119
#
# Poissons Ratio (x) = 0.43894 0.27356
# Poissons Ratio (y) = 0.43894 0.27356
# Poissons Ratio (z) = 0.16452 0.16452
#
# Static dielectric constant tensor:
#      x y z
#    x 1.908880 0.000000 0.000000 
#    y 0.000000 1.908880 0.000000 
#    z 0.000000 0.000000 1.997670 
# 
# From -- ./inp_files/556.got.cif
#   From: 2010.05.17/outbox.cif.g08.bks.cpg/sg152_1_cif.got.tgz:556.got - 2010.05.20 10:36:06.
