data_PCOD9575638
_publ_section_title
;
Structure prediction by ZEFSAII (Michael W. Deem and Ramdas Pophale) SiO2 
 PCOD9575638
Probable space group: P 31 1 2
;
_chemical_formula_sum "Si O2"
_cell_formula_units_Z 42
_cell_length_a 9.386035
_cell_length_b 9.386035
_cell_length_c 26.103637
_cell_angle_alpha 90.000000
_cell_angle_beta 90.000000
_cell_angle_gamma 120.000000
_cell_volume 1991.571909
_symmetry_space_group_name_H-M "P 31 1 2"
_symmetry_group_IT_number 151
_symmetry_cell_setting 'hexagonal'
loop_
_space_group_symop_operation_xyz
x,y,z
-y,x-y,1/3+z
-x+y,-x,2/3+z
-y,-x,2/3-z
-x+y,y,1/3-z
x,x-y,-z
loop_
_atom_site_type_symbol
_atom_site_label
_atom_site_fract_x
_atom_site_fract_y
_atom_site_fract_z
Si Si1 0.471262 0.949665 0.421811
Si Si2 0.344027 0.445461 0.759567
Si Si3 0.221379 0.082417 0.306350
Si Si4 0.973508 0.178521 0.276850
Si Si5 0.677140 0.748128 0.791620
Si Si6 0.721807 0.499959 0.291544
Si Si7 0.943452 0.367000 0.859875
O O1 0.289994 0.793766 0.413662
O O2 0.627205 0.949497 0.397680
O O3 0.477601 0.110148 0.397670
O O4 0.486588 0.979214 0.483440
O O5 0.336873 0.310544 0.721101
O O6 0.518946 0.608606 0.761942
O O7 0.302705 0.358360 0.815382
O O8 0.328666 0.224745 0.346575
O O9 0.119597 0.137582 0.270934
O O10 0.080887 0.919113 0.333334
O O11 0.889718 0.110283 0.333334
O O12 0.836080 0.078335 0.233977
O O13 0.680302 0.920821 0.789975
O O14 0.641191 0.358810 0.333334
O O15 0.600406 0.470669 0.244379
O O16 0.792597 0.207404 0.833334
#
# Coordination Sequence:
#
# PCOD9575638 Si02
#       7
#     6   6   6   6   6   6   6
#     4  10  22  42  66  91 128 176 213 264 331 384
#     4  10  23  43  66  92 130 173 219 263 323 403
#     4  11  23  42  65  97 132 175 217 261 332 399
#     4  11  25  40  64 100 134 162 217 276 324 384
#     4  10  23  41  67  93 126 169 224 265 321 384
#     4  11  23  39  63  96 132 166 216 271 329 386
#     4   9  20  41  68  90 127 175 217 264 325 395
#
# _framework density 21.088871000000001
#
# number of rings (size 3 to 8) (size 9 to 14) (size 15 to 20)
#    0.000    1.714    1.429    2.143    8.000    2.286 
#    5.143    5.000    0.000    0.000    0.000    0.000 
#    0.000    0.000    0.000    0.000    0.000    0.000 
#
# Total GULP energy -234619.652589 kJ/mol
# GULP energy per Si atom -5586.182204 kJ/mol
# Density = 2.104087 g / cm^3
# Si number density = 21.088871 Si / 1000 Ang^3
#
#
#
# Elastic Constant Matrix: (Units=GPa)
#
#
# Indices 1 2 3 4 5 6 
#
# 1 44.1135 18.0062 30.3056 -0.0002 -1.3999 0.0000
# 2 18.0062 44.1135 30.3056 0.0002 1.3999 0.0000
# 3 30.3056 30.3056 68.6601 0.0000 0.0000 0.0000
# 4 -0.0002 0.0002 0.0000 28.8129 0.0000 1.3999
# 5 -1.3999 1.3999 0.0000 0.0000 28.8129 -0.0002
# 6 0.0000 0.0000 0.0000 1.3999 -0.0002 13.0536
#
#
#
# Elastic Compliance Matrix: (Units=1/GPa)
#
#
# Indices 1 2 3 4 5 6 
#
# 1 0.033390 -0.005114 -0.012480 0.000000 0.001871 0.000000
# 2 -0.005114 0.033390 -0.012480 0.000000 -0.001871 0.000000
# 3 -0.012480 -0.012480 0.025582 0.000000 0.000000 0.000000
# 4 0.000000 0.000000 0.000000 0.034888 0.000000 -0.003741
# 5 0.001871 -0.001871 0.000000 0.000000 0.034888 0.000000
# 6 0.000000 0.000000 0.000000 -0.003741 0.000000 0.077008
#
#
# Mechanical properties :
#
#
# Convention : Reuss Voigt Hill
#
# Bulk Modulus (GPa) = 31.04530 34.90243 32.97387
# Shear Modulus (GPa) = 16.12730 19.35385 17.74058
#
# Velocity S-wave (km/s) = 2.76838 3.03269 2.90354
# Velocity P-wave (km/s) = 4.99717 5.37113 5.18752
#
# Compressibility (1/GPa) = 0.03221099
#
# Stress axis : x y z
#
# Youngs Moduli (GPa) = 29.94940 29.94940 39.09035
#
# Poissons Ratio (x) = 0.15318 0.48786
# Poissons Ratio (y) = 0.15318 0.48786
# Poissons Ratio (z) = 0.37378 0.37378
#
# Static dielectric constant tensor:
#      x y z
#    x 1.733240 0.000000 0.000000 
#    y 0.000000 1.733240 0.000000 
#    z 0.000000 0.000000 1.805420 
# 
# From -- ./inp_files/5012.got.cif
#   From: 2010.05.17/outbox.cif.g08.bks.cpg/sg151_3_cif.got.tgz:5012.got - 2010.05.20 10:33:20.
