data_PCOD9575278
_publ_section_title
;
Structure prediction by ZEFSAII (Michael W. Deem and Ramdas Pophale) SiO2 
 PCOD9575278
Probable space group: R -3
;
_chemical_formula_sum "Si O2"
_cell_formula_units_Z 102
_cell_length_a 18.126224
_cell_length_b 18.126224
_cell_length_c 13.723717
_cell_angle_alpha 90.000000
_cell_angle_beta 90.000000
_cell_angle_gamma 120.000000
_cell_volume 3904.964326
_symmetry_space_group_name_H-M "R -3"
_symmetry_group_IT_number 148
_symmetry_cell_setting 'hexagonal'
loop_
_space_group_symop_operation_xyz
x,y,z
-y,x-y,z
-x+y,-x,z
-x,-y,-z
y,-x+y,-z
x-y,x,-z
2/3+x,1/3+y,1/3+z
2/3-y,1/3+x-y,1/3+z
2/3-x+y,1/3-x,1/3+z
2/3-x,1/3-y,1/3-z
2/3+y,1/3-x+y,1/3-z
2/3+x-y,1/3+x,1/3-z
1/3+x,2/3+y,2/3+z
1/3-y,2/3+x-y,2/3+z
1/3-x+y,2/3-x,2/3+z
1/3-x,2/3-y,2/3-z
1/3+y,2/3-x+y,2/3-z
1/3+x-y,2/3+x,2/3-z
loop_
_atom_site_type_symbol
_atom_site_label
_atom_site_fract_x
_atom_site_fract_y
_atom_site_fract_z
Si Si1 0.337287 0.040155 0.179924
Si Si2 0.888047 0.070161 0.645394
Si Si3 0.858418 0.392725 0.176302
Si Si4 0.457818 0.439038 0.293897
Si Si5 0.526539 0.624192 0.217735
Si Si6 0.666667 0.333333 0.449203
Si Si7 0.000000 0.000000 0.382885
O O1 0.435554 0.104029 0.149755
O O2 0.323128 0.094759 0.262187
O O3 0.270835 0.983753 0.095842
O O4 0.343718 0.967406 0.240599
O O5 0.874898 0.095381 0.752012
O O6 0.815957 0.046234 0.566419
O O7 0.973229 0.147153 0.596333
O O8 0.915722 0.999253 0.652351
O O9 0.900230 0.447527 0.273971
O O10 0.757139 0.345573 0.183716
O O11 0.469878 0.526557 0.249107
O O12 0.666668 0.333335 0.333334
O O13 0.000000 0.000000 0.500000
#
# Coordination Sequence:
#
# PCOD9575278 Si02
#       7
#    18  18  18  18  18   6   6
#     4  11  25  45  67 105 141 192 243 299 362 442
#     4  12  22  41  66 105 140 179 235 303 374 440
#     4  11  27  45  74 103 141 188 254 299 371 436
#     4  11  26  45  70 103 146 191 245 299 370 439
#     4  11  23  41  70  99 143 190 234 299 377 438
#     4  12  25  50  73  94 140 196 249 304 356 445
#     4  12  22  35  61 102 136 167 220 301 365 442
#
# _framework density 26.120597
#
# number of rings (size 3 to 8) (size 9 to 14) (size 15 to 20)
#    0.000    0.706    3.529    3.176    2.471    4.235 
#    0.000    5.294    0.000    0.000    0.000    0.000 
#    0.000    0.000    0.000    0.000    0.000    0.000 
#
# Total GULP energy -190243.317528 kJ/mol
# GULP energy per Si atom -5595.391692 kJ/mol
# Density = 2.606115 g / cm^3
# Si number density = 26.120597 Si / 1000 Ang^3
#
#
#
# Elastic Constant Matrix: (Units=GPa)
#
#
# Indices 1 2 3 4 5 6 
#
# 1 77.0509 12.7478 -8.0279 -1.7073 -3.1608 0.0000
# 2 12.7478 77.0514 -8.0278 1.7073 3.1609 0.0000
# 3 -8.0279 -8.0278 90.8161 0.0000 0.0000 0.0000
# 4 -1.7073 1.7073 0.0000 31.9228 0.0000 3.1609
# 5 -3.1608 3.1609 0.0000 0.0000 31.9228 -1.7073
# 6 0.0000 0.0000 0.0000 3.1609 -1.7073 32.1517
#
#
#
# Elastic Compliance Matrix: (Units=1/GPa)
#
#
# Indices 1 2 3 4 5 6 
#
# 1 0.013532 -0.002217 0.001000 0.000842 0.001559 0.000000
# 2 -0.002217 0.013532 0.001000 -0.000842 -0.001559 0.000000
# 3 0.001000 0.001000 0.011188 0.000000 0.000000 0.000000
# 4 0.000842 -0.000842 0.000000 0.031724 0.000000 -0.003119
# 5 0.001559 -0.001559 0.000000 0.000000 0.031725 0.001685
# 6 0.000000 0.000000 0.000000 -0.003119 0.001685 0.031499
#
#
# Mechanical properties :
#
#
# Convention : Reuss Voigt Hill
#
# Bulk Modulus (GPa) = 26.44207 26.47805 26.46006
# Shear Modulus (GPa) = 34.19044 35.74789 34.96917
#
# Velocity S-wave (km/s) = 3.62186 3.70343 3.66287
# Velocity P-wave (km/s) = 5.25695 5.33349 5.29536
#
# Compressibility (1/GPa) = 0.03781853
#
# Stress axis : x y z
#
# Youngs Moduli (GPa) = 73.89827 73.89875 89.38072
#
# Poissons Ratio (x) = 0.16385 -0.08940
# Poissons Ratio (y) = 0.16385 -0.08940
# Poissons Ratio (z) = -0.07391 -0.07391
#
# Static dielectric constant tensor:
#      x y z
#    x 2.028520 0.000000 0.000000 
#    y 0.000000 2.028520 0.000000 
#    z 0.000000 0.000000 2.070370 
# 
# From -- ./inp_files/2085.got.cif
#   From: 2010.05.17/outbox.cif.g08.bks.cpg/sg148_2_cif.got.tgz:2085.got - 2010.05.20 13:50:20.
