data_PCOD9575260
_publ_section_title
;
Structure prediction by ZEFSAII (Michael W. Deem and Ramdas Pophale) SiO2 
 PCOD9575260
Probable space group: R -3
;
_chemical_formula_sum "Si O2"
_cell_formula_units_Z 90
_cell_length_a 24.450804
_cell_length_b 24.450804
_cell_length_c 8.161161
_cell_angle_alpha 90.000000
_cell_angle_beta 90.000000
_cell_angle_gamma 120.000000
_cell_volume 4225.410098
_symmetry_space_group_name_H-M "R -3"
_symmetry_group_IT_number 148
_symmetry_cell_setting 'hexagonal'
loop_
_space_group_symop_operation_xyz
x,y,z
-y,x-y,z
-x+y,-x,z
-x,-y,-z
y,-x+y,-z
x-y,x,-z
2/3+x,1/3+y,1/3+z
2/3-y,1/3+x-y,1/3+z
2/3-x+y,1/3-x,1/3+z
2/3-x,1/3-y,1/3-z
2/3+y,1/3-x+y,1/3-z
2/3+x-y,1/3+x,1/3-z
1/3+x,2/3+y,2/3+z
1/3-y,2/3+x-y,2/3+z
1/3-x+y,2/3-x,2/3+z
1/3-x,2/3-y,2/3-z
1/3+y,2/3-x+y,2/3-z
1/3+x-y,2/3+x,2/3-z
loop_
_atom_site_type_symbol
_atom_site_label
_atom_site_fract_x
_atom_site_fract_y
_atom_site_fract_z
Si Si1 0.371007 0.493803 0.989817
Si Si2 0.631831 0.442002 0.333678
Si Si3 0.890412 0.547995 0.106693
Si Si4 0.432846 0.191376 0.871507
Si Si5 0.093314 0.774519 0.561123
O O1 0.390520 0.531402 0.820107
O O2 0.295733 0.459988 0.995766
O O3 0.402594 0.543476 0.142272
O O4 0.395686 0.446201 0.051253
O O5 0.701990 0.452773 0.303057
O O6 0.641475 0.487615 0.485646
O O7 0.942818 0.554697 0.234344
O O8 0.901946 0.512509 0.957295
O O9 0.904811 0.614405 0.034280
O O10 0.365780 0.185135 0.913462
#
# Coordination Sequence:
#
# PCOD9575260 Si02
#       5
#    18  18  18  18  18
#     4   9  20  36  62  87 115 166 205 256 310 371
#     4  12  24  40  62  94 134 168 210 259 320 371
#     4  11  21  40  60  89 125 161 208 264 311 380
#     4   9  18  38  59  84 118 160 207 252 309 365
#     4   9  21  37  61  84 118 160 206 257 309 366
#
# _framework density 21.299709
#
# number of rings (size 3 to 8) (size 9 to 14) (size 15 to 20)
#    1.200    0.800    2.000    2.000    0.000    1.600 
#    0.000    8.000    0.000    1.600    0.000    0.000 
#    0.000    0.000    0.000    0.000    0.000    0.000 
#
# Total GULP energy -167009.596124 kJ/mol
# GULP energy per Si atom -5566.986537 kJ/mol
# Density = 2.125123 g / cm^3
# Si number density = 21.299709 Si / 1000 Ang^3
#
#
#
# Elastic Constant Matrix: (Units=GPa)
#
#
# Indices 1 2 3 4 5 6 
#
# 1 46.8586 9.4321 3.2578 -2.9360 -3.2661 -0.0065
# 2 9.4321 46.7683 3.1523 2.9634 3.3718 -0.0078
# 3 3.2578 3.1523 21.5377 0.0330 0.1345 -0.0005
# 4 -2.9360 2.9634 0.0330 17.7467 0.0433 3.3612
# 5 -3.2661 3.3718 0.1345 0.0433 17.8324 -2.9697
# 6 -0.0065 -0.0078 -0.0005 3.3612 -2.9697 18.6450
#
#
#
# Elastic Compliance Matrix: (Units=1/GPa)
#
#
# Indices 1 2 3 4 5 6 
#
# 1 0.023237 -0.005174 -0.002797 0.004702 0.005243 -0.000007
# 2 -0.005174 0.023283 -0.002585 -0.004728 -0.005317 0.000013
# 3 -0.002797 -0.002585 0.047234 -0.000110 -0.000387 -0.000043
# 4 0.004702 -0.004728 -0.000110 0.059970 -0.000195 -0.010842
# 5 0.005243 -0.005317 -0.000387 -0.000195 0.059634 0.009533
# 6 -0.000007 0.000013 -0.000043 -0.010842 0.009533 0.057107
#
#
# Mechanical properties :
#
#
# Convention : Reuss Voigt Hill
#
# Bulk Modulus (GPa) = 13.76616 16.31656 15.04136
# Shear Modulus (GPa) = 15.83331 17.46633 16.64982
#
# Velocity S-wave (km/s) = 2.72942 2.86672 2.79891
# Velocity P-wave (km/s) = 4.05093 4.31677 4.18596
#
# Compressibility (1/GPa) = 0.07264188
#
# Stress axis : x y z
#
# Youngs Moduli (GPa) = 43.03538 42.95066 21.17103
#
# Poissons Ratio (x) = 0.22221 0.05923
# Poissons Ratio (y) = 0.22265 0.05472
# Poissons Ratio (z) = 0.12039 0.11102
#
# Static dielectric constant tensor:
#      x y z
#    x 1.807460 0.000000 -0.000020 
#    y 0.000000 1.807470 0.000000 
#    z -0.000020 0.000000 1.793940 
# 
# From -- ./inp_files/1021.got.cif
#   From: 2010.05.17/outbox.cif.g08.bks.cpg/sg148_1_cif.got.tgz:1021.got - 2010.05.20 13:50:20.
