data_PCOD9575508
_publ_section_title
;
Structure prediction by ZEFSAII (Michael W. Deem and Ramdas Pophale) SiO2 
 PCOD9575508
Probable space group: P 31 1 2
;
_chemical_formula_sum "Si O2"
_cell_formula_units_Z 42
_cell_length_a 9.144352
_cell_length_b 9.144352
_cell_length_c 27.214148
_cell_angle_alpha 90.000000
_cell_angle_beta 90.000000
_cell_angle_gamma 120.000000
_cell_volume 1970.748681
_symmetry_space_group_name_H-M "P 31 1 2"
_symmetry_group_IT_number 151
_symmetry_cell_setting 'hexagonal'
loop_
_space_group_symop_operation_xyz
x,y,z
-y,x-y,1/3+z
-x+y,-x,2/3+z
-y,-x,2/3-z
-x+y,y,1/3-z
x,x-y,-z
loop_
_atom_site_type_symbol
_atom_site_label
_atom_site_fract_x
_atom_site_fract_y
_atom_site_fract_z
Si Si1 0.610154 0.776276 0.891330
Si Si2 0.656180 0.917047 0.731266
Si Si3 0.417338 0.299884 0.613779
Si Si4 0.122664 0.585015 0.852505
Si Si5 0.857630 0.026888 0.190090
Si Si6 0.451475 0.878016 0.311514
Si Si7 0.695788 0.478992 0.531718
O O1 0.492716 0.800580 0.852576
O O2 0.745023 0.762405 0.858701
O O3 0.506365 0.613776 0.924654
O O4 0.690728 0.949178 0.923111
O O5 0.480885 0.870451 0.759897
O O6 0.779586 0.915265 0.774007
O O7 0.606600 0.762511 0.694133
O O8 0.750072 0.104132 0.708230
O O9 0.475506 0.438364 0.657028
O O10 0.569581 0.366052 0.574718
O O11 0.222735 0.777266 0.833334
O O12 0.928235 0.505568 0.839971
O O13 0.836321 0.170932 0.216823
O O14 0.033448 0.066895 0.166667
O O15 0.292509 0.707492 0.333334
O O16 0.772613 0.386307 0.500000
#
# Coordination Sequence:
#
# PCOD9575508 Si02
#       7
#     6   6   6   6   6   6   6
#     4   9  19  36  64  90 119 162 215 270 322 390
#     4  11  21  40  68  93 123 176 226 271 335 410
#     4  10  21  43  63  89 131 178 218 265 336 413
#     4  10  18  33  63  92 124 159 209 268 335 399
#     4  11  23  39  64 100 131 162 217 279 344 396
#     4  10  22  41  62  92 124 168 228 272 317 405
#     4  11  23  37  60  97 137 162 207 284 348 390
#
# _framework density 21.311696999999999
#
# number of rings (size 3 to 8) (size 9 to 14) (size 15 to 20)
#    0.000    1.714    4.286    0.429    2.000    0.000 
#    2.571    2.143    0.000    0.000    0.000    0.000 
#    0.000    0.000    0.000    0.000    0.000    0.000 
#
# Total GULP energy -234275.171576 kJ/mol
# GULP energy per Si atom -5577.980276 kJ/mol
# Density = 2.126319 g / cm^3
# Si number density = 21.311697 Si / 1000 Ang^3
#
#
#
# Elastic Constant Matrix: (Units=GPa)
#
#
# Indices 1 2 3 4 5 6 
#
# 1 94.1086 40.1401 22.6524 0.0006 -11.2405 0.0000
# 2 40.1401 94.1086 22.6524 -0.0006 11.2405 0.0000
# 3 22.6524 22.6524 38.9113 0.0000 0.0000 0.0000
# 4 0.0006 -0.0006 0.0000 -18.8277 0.0000 11.2405
# 5 -11.2405 11.2405 0.0000 0.0000 -18.8277 0.0006
# 6 0.0000 0.0000 0.0000 11.2405 0.0006 26.9842
#
#
#
# Elastic Compliance Matrix: (Units=1/GPa)
#
#
# Indices 1 2 3 4 5 6 
#
# 1 0.012055 -0.002784 -0.005397 0.000000 -0.008859 0.000000
# 2 -0.002784 0.012055 -0.005397 0.000000 0.008859 0.000000
# 3 -0.005397 -0.005397 0.031983 0.000000 0.000000 0.000000
# 4 0.000000 0.000000 0.000000 -0.042535 0.000000 0.017718
# 5 -0.008859 0.008859 0.000000 0.000000 -0.042535 0.000001
# 6 0.000000 0.000000 0.000000 0.017718 0.000001 0.029678
#
#
# Mechanical properties :
#
#
# Convention : Reuss Voigt Hill
#
# Bulk Modulus (GPa) = 34.55846 44.22426 39.39136
# Shear Modulus (GPa) = 133.33114 7.31133 70.32124
#
# Velocity S-wave (km/s) = 7.91822 1.85422 5.75049
# Velocity P-wave (km/s) = 9.99243 5.03789 7.91293
#
# Compressibility (1/GPa) = 0.02893647
#
# Stress axis : x y z
#
# Youngs Moduli (GPa) = 82.95655 82.95655 31.26683
#
# Poissons Ratio (x) = 0.23099 0.16873
# Poissons Ratio (y) = 0.23099 0.16873
# Poissons Ratio (z) = 0.44768 0.44768
#
# Static dielectric constant tensor:
#      x y z
#    x 1.859860 0.000000 0.000000 
#    y 0.000000 1.859860 0.000000 
#    z 0.000000 0.000000 1.643620 
# 
# From -- ./inp_files/5037.got.cif
#   From: 2010.05.17/outbox.cif.g08.bks.cpg/sg151_3_cif.got.tgz:5037.got - 2010.05.20 10:33:20.
