data_PCOD9575115
_publ_section_title
;
Structure prediction by ZEFSAII (Michael W. Deem and Ramdas Pophale) SiO2 
 PCOD9575115
Probable space group: R -3
;
_chemical_formula_sum "Si O2"
_cell_formula_units_Z 126
_cell_length_a 16.664667
_cell_length_b 16.664667
_cell_length_c 26.775390
_cell_angle_alpha 90.000000
_cell_angle_beta 90.000000
_cell_angle_gamma 120.000000
_cell_volume 6439.612233
_symmetry_space_group_name_H-M "R -3"
_symmetry_group_IT_number 148
_symmetry_cell_setting 'hexagonal'
loop_
_space_group_symop_operation_xyz
x,y,z
-y,x-y,z
-x+y,-x,z
-x,-y,-z
y,-x+y,-z
x-y,x,-z
2/3+x,1/3+y,1/3+z
2/3-y,1/3+x-y,1/3+z
2/3-x+y,1/3-x,1/3+z
2/3-x,1/3-y,1/3-z
2/3+y,1/3-x+y,1/3-z
2/3+x-y,1/3+x,1/3-z
1/3+x,2/3+y,2/3+z
1/3-y,2/3+x-y,2/3+z
1/3-x+y,2/3-x,2/3+z
1/3-x,2/3-y,2/3-z
1/3+y,2/3-x+y,2/3-z
1/3+x-y,2/3+x,2/3-z
loop_
_atom_site_type_symbol
_atom_site_label
_atom_site_fract_x
_atom_site_fract_y
_atom_site_fract_z
Si Si1 0.691584 0.040217 0.464528
Si Si2 0.180710 0.804611 0.063649
Si Si3 0.100993 0.438997 0.996832
Si Si4 0.795977 0.960461 0.779116
Si Si5 0.890684 0.379773 0.994306
Si Si6 0.536664 0.705763 0.448537
Si Si7 0.710093 0.180268 0.837208
O O1 0.744501 0.108832 0.417608
O O2 0.716626 0.097222 0.516200
O O3 0.582012 0.971067 0.461622
O O4 0.738824 0.976200 0.467833
O O5 0.237152 0.823835 0.114427
O O6 0.251813 0.889152 0.028721
O O7 0.172170 0.716810 0.033230
O O8 0.161683 0.459716 0.947476
O O9 0.129305 0.538456 0.021669
O O10 0.995502 0.405533 0.981713
O O11 0.819990 0.882380 0.794239
O O12 0.878434 0.061576 0.794830
O O13 0.885805 0.375063 0.055218
O O14 0.613211 0.170671 0.852520
#
# Coordination Sequence:
#
# PCOD9575115 Si02
#       7
#    18  18  18  18  18  18  18
#     4  11  23  40  60  83 119 161 200 245 304 361
#     4  11  21  36  58  85 114 160 199 241 293 357
#     4  10  21  36  56  83 115 156 197 240 293 353
#     4  11  21  39  60  85 120 149 198 255 301 353
#     4  10  21  37  58  80 120 158 194 246 295 348
#     4  11  23  39  61  89 116 155 201 252 304 359
#     4  10  22  35  52  80 119 157 196 235 284 356
#
# _framework density 19.566395
#
# number of rings (size 3 to 8) (size 9 to 14) (size 15 to 20)
#    0.000    1.429    2.857    3.429    4.000    0.000 
#    0.857    0.000    0.000    0.000    0.000    0.000 
#    0.000    1.143    0.000    0.000    0.000    0.000 
#
# Total GULP energy -234130.620366 kJ/mol
# GULP energy per Si atom -5574.538580 kJ/mol
# Density = 1.952186 g / cm^3
# Si number density = 19.566395 Si / 1000 Ang^3
#
#
#
# Elastic Constant Matrix: (Units=GPa)
#
#
# Indices 1 2 3 4 5 6 
#
# 1 70.0594 19.1683 11.2904 -3.3926 -0.9848 0.0000
# 2 19.1683 70.0594 11.2904 3.3926 0.9848 0.0000
# 3 11.2904 11.2904 55.1624 0.0000 0.0000 0.0000
# 4 -3.3926 3.3926 0.0000 28.4904 0.0000 0.9848
# 5 -0.9848 0.9848 0.0000 0.0000 28.4904 -3.3926
# 6 0.0000 0.0000 0.0000 0.9848 -3.3926 25.4455
#
#
#
# Elastic Compliance Matrix: (Units=1/GPa)
#
#
# Indices 1 2 3 4 5 6 
#
# 1 0.015907 -0.004087 -0.002419 0.002381 0.000691 0.000000
# 2 -0.004087 0.015907 -0.002419 -0.002381 -0.000691 0.000000
# 3 -0.002419 -0.002419 0.019119 0.000000 0.000000 0.000000
# 4 0.002381 -0.002381 0.000000 0.035714 0.000000 -0.001382
# 5 0.000691 -0.000691 0.000000 0.000000 0.035714 0.004762
# 6 0.000000 0.000000 0.000000 -0.001382 0.004762 0.039988
#
#
# Mechanical properties :
#
#
# Convention : Reuss Voigt Hill
#
# Bulk Modulus (GPa) = 30.22893 30.97551 30.60222
# Shear Modulus (GPa) = 26.14697 26.72075 26.43386
#
# Velocity S-wave (km/s) = 3.65954 3.69947 3.67956
# Velocity P-wave (km/s) = 5.77401 5.84067 5.80744
#
# Compressibility (1/GPa) = 0.03308089
#
# Stress axis : x y z
#
# Youngs Moduli (GPa) = 62.86640 62.86640 52.30517
#
# Poissons Ratio (x) = 0.25695 0.12653
# Poissons Ratio (y) = 0.25695 0.12653
# Poissons Ratio (z) = 0.15208 0.15208
#
# Static dielectric constant tensor:
#      x y z
#    x 1.733530 0.000000 0.000000 
#    y 0.000000 1.733530 0.000000 
#    z 0.000000 0.000000 1.712930 
# 
# From -- ./inp_files/3434.got.cif
#   From: 2010.05.17/outbox.cif.g08.bks.cpg/sg148_2_cif.got.tgz:3434.got - 2010.05.20 13:50:20.
