data_PCOD9575328
_publ_section_title
;
Structure prediction by ZEFSAII (Michael W. Deem and Ramdas Pophale) SiO2 
 PCOD9575328
Probable space group: R -3
;
_chemical_formula_sum "Si O2"
_cell_formula_units_Z 63
_cell_length_a 20.194904
_cell_length_b 20.194904
_cell_length_c 7.372240
_cell_angle_alpha 90.000000
_cell_angle_beta 90.000000
_cell_angle_gamma 120.000000
_cell_volume 2603.836333
_symmetry_space_group_name_H-M "R -3"
_symmetry_group_IT_number 148
_symmetry_cell_setting 'hexagonal'
loop_
_space_group_symop_operation_xyz
x,y,z
-y,x-y,z
-x+y,-x,z
-x,-y,-z
y,-x+y,-z
x-y,x,-z
2/3+x,1/3+y,1/3+z
2/3-y,1/3+x-y,1/3+z
2/3-x+y,1/3-x,1/3+z
2/3-x,1/3-y,1/3-z
2/3+y,1/3-x+y,1/3-z
2/3+x-y,1/3+x,1/3-z
1/3+x,2/3+y,2/3+z
1/3-y,2/3+x-y,2/3+z
1/3-x+y,2/3-x,2/3+z
1/3-x,2/3-y,2/3-z
1/3+y,2/3-x+y,2/3-z
1/3+x-y,2/3+x,2/3-z
loop_
_atom_site_type_symbol
_atom_site_label
_atom_site_fract_x
_atom_site_fract_y
_atom_site_fract_z
Si Si1 0.269040 0.292742 0.096694
Si Si2 0.146201 0.002659 0.051776
Si Si3 0.166667 0.333334 0.333334
Si Si4 0.783121 0.507774 0.876359
O O1 0.328784 0.308560 0.253083
O O2 0.212413 0.321236 0.165867
O O3 0.221788 0.204248 0.044363
O O4 0.180610 0.038294 0.247305
O O5 0.137324 0.064592 0.934929
O O6 0.177516 0.413193 0.234218
O O7 0.806224 0.447713 0.795587
#
# Coordination Sequence:
#
# PCOD9575328 Si02
#       4
#    18  18   9  18
#     4  12  31  50  78 118 159 212 260 327 394 476
#     4  12  27  50  80 115 156 206 263 326 397 469
#     4  12  26  50  76 116 156 206 266 320 400 468
#     4  12  27  49  80 117 160 208 268 332 400 477
#
# _framework density 24.195067999999999
#
# number of rings (size 3 to 8) (size 9 to 14) (size 15 to 20)
#    0.000    0.000    0.000    9.143   12.000    2.286 
#    0.000    0.000    0.000    0.000    0.000    0.000 
#    0.000    0.000    0.000    0.000    0.000    0.000 
#
# Total GULP energy -117120.296404 kJ/mol
# GULP energy per Si atom -5577.156972 kJ/mol
# Density = 2.414000 g / cm^3
# Si number density = 24.195068 Si / 1000 Ang^3
#
#
#
# Elastic Constant Matrix: (Units=GPa)
#
#
# Indices 1 2 3 4 5 6 
#
# 1 82.5605 58.2340 61.5117 29.5612 5.7265 -0.0073
# 2 58.2340 82.5498 61.5662 -29.5776 -5.7454 -0.0007
# 3 61.5117 61.5662 152.2950 -0.0047 -0.0416 -0.0205
# 4 29.5612 -29.5776 -0.0047 7.0185 -0.0096 -5.7480
# 5 5.7265 -5.7454 -0.0416 -0.0096 6.9964 29.5502
# 6 -0.0073 -0.0007 -0.0205 -5.7480 29.5502 12.1717
#
#
#
# Elastic Compliance Matrix: (Units=1/GPa)
#
#
# Indices 1 2 3 4 5 6 
#
# 1 0.003361 0.007624 -0.004438 0.017980 0.003494 0.000003
# 2 0.007624 0.003355 -0.004437 -0.017992 -0.003497 -0.000009
# 3 -0.004438 -0.004437 0.010153 0.000010 0.000003 0.000011
# 4 0.017980 -0.017992 0.000010 -0.014795 0.000005 -0.006988
# 5 0.003494 -0.003497 0.000003 0.000005 -0.014824 0.035993
# 6 0.000003 -0.000009 0.000011 -0.006988 0.035993 -0.008527
#
#
# Mechanical properties :
#
#
# Convention : Reuss Voigt Hill
#
# Bulk Modulus (GPa) = 69.60727 75.55878 72.58302
# Shear Modulus (GPa) = -357.46147 14.31022 -171.57562
#
# Velocity S-wave (km/s) = -12.16808 2.43462 -8.43015
# Velocity P-wave (km/s) = 12.98401 6.26099 8.04315
#
# Compressibility (1/GPa) = 0.01436632
#
# Stress axis : x y z
#
# Youngs Moduli (GPa) = 297.53189 298.10182 98.49765
#
# Poissons Ratio (x) = -2.27287 0.43715
# Poissons Ratio (y) = -2.26852 0.43705
# Poissons Ratio (z) = 1.32051 1.32271
#
# Static dielectric constant tensor:
#      x y z
#    x 1.899600 0.000000 0.000000 
#    y 0.000000 1.899610 0.000000 
#    z 0.000000 0.000000 1.927440 
# 
# From -- ./inp_files/758.got.cif
#   From: 2010.05.17/outbox.cif.g08.bks.cpg/sg148_1_cif.got.tgz:758.got - 2010.05.20 13:50:20.
