data_PCOD9575810
_publ_section_title
;
Structure prediction by ZEFSAII (Michael W. Deem and Ramdas Pophale) SiO2 
 PCOD9575810
Probable space group: P 31 2 1
;
_chemical_formula_sum "Si O2"
_cell_formula_units_Z 24
_cell_length_a 11.319911
_cell_length_b 11.319911
_cell_length_c 11.352076
_cell_angle_alpha 90.000000
_cell_angle_beta 90.000000
_cell_angle_gamma 120.000000
_cell_volume 1259.771985
_symmetry_space_group_name_H-M "P 31 2 1"
_symmetry_group_IT_number 152
_symmetry_cell_setting 'hexagonal'
loop_
_space_group_symop_operation_xyz
x,y,z
-y,x-y,1/3+z
-x+y,-x,2/3+z
x-y,-y,2/3-z
-x,-x+y,1/3-z
y,x,-z
loop_
_atom_site_type_symbol
_atom_site_label
_atom_site_fract_x
_atom_site_fract_y
_atom_site_fract_z
Si Si1 0.172671 0.172671 0.500000
Si Si2 0.931671 0.218906 0.432295
Si Si3 0.564939 0.485354 0.195927
Si Si4 0.000000 0.645928 0.666667
Si Si5 0.217443 0.416147 0.660375
O O1 0.221734 0.292476 0.595394
O O2 0.035533 0.160394 0.443297
O O3 0.796091 0.126222 0.358722
O O4 0.886328 0.229936 0.565307
O O5 0.006231 0.376502 0.395189
O O6 0.522721 0.358650 0.280487
O O7 0.431475 0.444633 0.114829
O O8 0.680716 0.511091 0.100305
#
# Coordination Sequence:
#
# PCOD9575810 Si02
#       5
#     3   6   6   3   6
#     4  10  20  38  60  90 114 164 198 244 314 338
#     4  10  21  37  64  84 126 154 199 249 294 362
#     4  10  19  42  60  89 118 162 200 240 309 349
#     4  10  20  36  60  92 108 158 204 234 292 358
#     4  10  21  39  65  83 124 160 197 247 296 366
#
# _framework density 19.051065999999999
#
# number of rings (size 3 to 8) (size 9 to 14) (size 15 to 20)
#    0.000    2.000    2.500    2.250    3.500    0.000 
#   18.000    0.000    0.000    0.000    0.000    0.000 
#    0.000    0.000    0.000    0.000    0.000    0.000 
#
# Total GULP energy -133837.872149 kJ/mol
# GULP energy per Si atom -5576.578006 kJ/mol
# Density = 1.900771 g / cm^3
# Si number density = 19.051066 Si / 1000 Ang^3
#
#
#
# Elastic Constant Matrix: (Units=GPa)
#
#
# Indices 1 2 3 4 5 6 
#
# 1 118.9723 62.9973 23.7867 9.2721 0.0000 0.0000
# 2 62.9973 118.9723 23.7867 -9.2721 0.0000 0.0000
# 3 23.7867 23.7867 28.2970 0.0000 0.0000 0.0000
# 4 9.2721 -9.2721 0.0000 21.6266 0.0000 0.0000
# 5 0.0000 0.0000 0.0000 0.0000 21.6266 9.2721
# 6 0.0000 0.0000 0.0000 0.0000 9.2721 27.9875
#
#
#
# Elastic Compliance Matrix: (Units=1/GPa)
#
#
# Indices 1 2 3 4 5 6 
#
# 1 0.013933 -0.006890 -0.005921 -0.008927 0.000000 0.000000
# 2 -0.006890 0.013933 -0.005921 0.008927 0.000000 0.000000
# 3 -0.005921 -0.005921 0.045293 0.000000 0.000000 0.000000
# 4 -0.008927 0.008927 0.000000 0.053894 0.000000 0.000000
# 5 0.000000 0.000000 0.000000 0.000000 0.053894 -0.017855
# 6 0.000000 0.000000 0.000000 0.000000 -0.017855 0.041645
#
#
# Mechanical properties :
#
#
# Convention : Reuss Voigt Hill
#
# Bulk Modulus (GPa) = 28.01334 54.15370 41.08352
# Shear Modulus (GPa) = 18.38543 24.62621 21.50582
#
# Velocity S-wave (km/s) = 3.10991 3.59923 3.36348
# Velocity P-wave (km/s) = 5.25658 6.76461 6.05770
#
# Compressibility (1/GPa) = 0.03569728
#
# Stress axis : x y z
#
# Youngs Moduli (GPa) = 71.77201 71.77201 22.07830
#
# Poissons Ratio (x) = 0.49449 0.13072
# Poissons Ratio (y) = 0.49449 0.13072
# Poissons Ratio (z) = 0.42494 0.42494
#
# Static dielectric constant tensor:
#      x y z
#    x 1.702510 0.000000 0.000000 
#    y 0.000000 1.702510 0.000000 
#    z 0.000000 0.000000 1.659970 
# 
# From -- ./inp_files/1670.got.cif
#   From: 2010.05.17/outbox.cif.g08.bks.cpg/sg152_1_cif.got.tgz:1670.got - 2010.05.20 10:36:06.
