data_PCOD9575812
_publ_section_title
;
Structure prediction by ZEFSAII (Michael W. Deem and Ramdas Pophale) SiO2 
 PCOD9575812
Probable space group: P 31 2 1
;
_chemical_formula_sum "Si O2"
_cell_formula_units_Z 48
_cell_length_a 20.296192
_cell_length_b 20.296192
_cell_length_c 9.371570
_cell_angle_alpha 90.000000
_cell_angle_beta 90.000000
_cell_angle_gamma 120.000000
_cell_volume 3343.275074
_symmetry_space_group_name_H-M "P 31 2 1"
_symmetry_group_IT_number 152
_symmetry_cell_setting 'hexagonal'
loop_
_space_group_symop_operation_xyz
x,y,z
-y,x-y,1/3+z
-x+y,-x,2/3+z
x-y,-y,2/3-z
-x,-x+y,1/3-z
y,x,-z
loop_
_atom_site_type_symbol
_atom_site_label
_atom_site_fract_x
_atom_site_fract_y
_atom_site_fract_z
Si Si1 0.425319 0.027346 0.175337
Si Si2 0.828741 0.461987 0.405760
Si Si3 0.839691 0.331721 0.311015
Si Si4 0.266997 0.736051 0.169132
Si Si5 0.418096 0.759087 0.299518
Si Si6 0.504440 0.370338 0.294000
Si Si7 0.466392 0.118713 0.664300
Si Si8 0.582072 0.018838 0.173073
O O1 0.504634 0.024889 0.181925
O O2 0.389945 0.000000 0.333334
O O3 0.374385 0.965451 0.056383
O O4 0.442735 0.108760 0.111676
O O5 0.860601 0.419733 0.307779
O O6 0.760124 0.458401 0.318752
O O7 0.795719 0.415684 0.551111
O O8 0.898613 0.543318 0.449393
O O9 0.749124 0.288506 0.338496
O O10 0.860003 0.312115 0.156302
O O11 0.333490 0.721968 0.232195
O O12 0.193277 0.695651 0.269381
O O13 0.300450 0.824125 0.131910
O O14 0.472243 0.825871 0.193279
O O15 0.577360 0.450059 0.337690
O O16 0.435424 0.385848 0.267736
O O17 0.595535 0.000000 0.333334
#
# Coordination Sequence:
#
# PCOD9575812 Si02
#       8
#     6   6   6   6   6   6   6   6
#     4   9  20  33  47  61  75 104 141 170 203 256
#     4  11  21  33  46  62  84 110 138 173 211 270
#     4  11  21  31  46  60  82 111 133 169 218 271
#     4  11  23  32  43  68  88 106 134 179 226 269
#     4  11  23  32  45  65  89 109 135 175 232 271
#     4  10  20  32  47  62  83 108 135 174 213 266
#     4  10  20  33  45  59  84 107 137 168 209 265
#     4   9  17  33  48  59  77 108 142 167 204 258
#
# _framework density 14.357179
#
# number of rings (size 3 to 8) (size 9 to 14) (size 15 to 20)
#    0.000    1.750    3.750    1.125   12.250    0.500 
#    0.000    0.000    0.000    0.000    0.000    0.000 
#    0.000    0.000    0.000    0.000    0.000    0.000 
#
# Total GULP energy -267241.226532 kJ/mol
# GULP energy per Si atom -5567.525553 kJ/mol
# Density = 1.432450 g / cm^3
# Si number density = 14.357179 Si / 1000 Ang^3
#
#
#
# Elastic Constant Matrix: (Units=GPa)
#
#
# Indices 1 2 3 4 5 6 
#
# 1 38.9593 26.0912 23.9754 1.1988 0.0000 0.0000
# 2 26.0912 38.9593 23.9754 -1.1988 0.0000 0.0000
# 3 23.9754 23.9754 88.6004 0.0000 0.0000 0.0000
# 4 1.1988 -1.1988 0.0000 15.0500 0.0000 0.0000
# 5 0.0000 0.0000 0.0000 0.0000 15.0500 1.1988
# 6 0.0000 0.0000 0.0000 0.0000 1.1988 6.4341
#
#
#
# Elastic Compliance Matrix: (Units=1/GPa)
#
#
# Indices 1 2 3 4 5 6 
#
# 1 0.049043 -0.029839 -0.005196 -0.006283 0.000000 0.000000
# 2 -0.029839 0.049043 -0.005196 0.006283 0.000000 0.000000
# 3 -0.005196 -0.005196 0.014099 0.000000 0.000000 0.000000
# 4 -0.006283 0.006283 0.000000 0.067446 0.000000 0.000000
# 5 0.000000 0.000000 0.000000 0.000000 0.067446 -0.012566
# 6 0.000000 0.000000 0.000000 0.000000 -0.012566 0.157764
#
#
# Mechanical properties :
#
#
# Convention : Reuss Voigt Hill
#
# Bulk Modulus (GPa) = 31.52626 34.95590 33.24108
# Shear Modulus (GPa) = 10.08313 13.47195 11.77754
#
# Velocity S-wave (km/s) = 2.65298 3.06656 2.86724
# Velocity P-wave (km/s) = 5.60273 6.07771 5.84505
#
# Compressibility (1/GPa) = 0.03171959
#
# Stress axis : x y z
#
# Youngs Moduli (GPa) = 20.39045 20.39045 70.92729
#
# Poissons Ratio (x) = 0.60844 0.36857
# Poissons Ratio (y) = 0.60844 0.36857
# Poissons Ratio (z) = 0.10596 0.10596
#
# Static dielectric constant tensor:
#      x y z
#    x 1.496290 0.000000 0.000000 
#    y 0.000000 1.496290 0.000000 
#    z 0.000000 0.000000 1.543800 
# 
# From -- ./inp_files/1371.got.cif
#   From: 2010.05.17/outbox.cif.g08.bks.cpg/sg152_1_cif.got.tgz:1371.got - 2010.05.20 10:36:06.
