data_PCOD9575663
_publ_section_title
;
Structure prediction by ZEFSAII (Michael W. Deem and Ramdas Pophale) SiO2 
 PCOD9575663
Probable space group: P 31 1 2
;
_chemical_formula_sum "Si O2"
_cell_formula_units_Z 45
_cell_length_a 12.690962
_cell_length_b 12.690962
_cell_length_c 18.305526
_cell_angle_alpha 90.000000
_cell_angle_beta 90.000000
_cell_angle_gamma 120.000000
_cell_volume 2553.300509
_symmetry_space_group_name_H-M "P 31 1 2"
_symmetry_group_IT_number 151
_symmetry_cell_setting 'hexagonal'
loop_
_space_group_symop_operation_xyz
x,y,z
-y,x-y,1/3+z
-x+y,-x,2/3+z
-y,-x,2/3-z
-x+y,y,1/3-z
x,x-y,-z
loop_
_atom_site_type_symbol
_atom_site_label
_atom_site_fract_x
_atom_site_fract_y
_atom_site_fract_z
Si Si1 0.553059 0.803527 0.798395
Si Si2 0.425406 0.163787 0.322324
Si Si3 0.561625 0.204969 0.801827
Si Si4 0.112353 0.408927 0.616296
Si Si5 0.137614 0.481405 0.319493
Si Si6 0.360956 0.085963 0.556491
Si Si7 0.645974 0.506851 0.620994
Si Si8 0.276482 0.552964 0.166667
O O1 0.571096 0.734531 0.867469
O O2 0.553655 0.747703 0.720077
O O3 0.417515 0.781871 0.809640
O O4 0.656930 0.944692 0.796602
O O5 0.500988 0.267494 0.264482
O O6 0.344857 0.207158 0.366637
O O7 0.526118 0.154727 0.373088
O O8 0.352807 0.031854 0.286009
O O9 0.668783 0.331218 0.833334
O O10 0.621188 0.124398 0.779571
O O11 0.470500 0.145533 0.869055
O O12 0.177580 0.355160 0.666667
O O13 0.146249 0.536939 0.656190
O O14 0.202109 0.489069 0.241541
O O15 0.993440 0.390209 0.315644
O O16 0.340033 0.170017 0.500000
O O17 0.753784 0.507568 0.666667
#
# Coordination Sequence:
#
# PCOD9575663 Si02
#       8
#     6   6   6   6   6   6   6   3
#     4  12  23  39  64  90 124 163 211 256 303 379
#     4  11  22  35  60  90 120 158 203 243 304 374
#     4  11  20  33  55  89 123 154 183 238 301 371
#     4  11  21  39  60  89 122 158 211 257 298 357
#     4  11  24  38  61  88 125 165 202 252 311 372
#     4  11  22  38  60  90 125 159 199 252 317 361
#     4  11  21  37  58  86 126 157 194 249 302 364
#     4  12  22  40  58  96 128 164 200 258 318 368
#
# _framework density 17.624247
#
# number of rings (size 3 to 8) (size 9 to 14) (size 15 to 20)
#    0.000    0.800    6.667    2.400    1.867    3.200 
#    0.000    0.000    0.000    2.400    0.000    0.000 
#    0.000    0.000    0.000    0.000    0.000    0.000 
#
# Total GULP energy -251150.980216 kJ/mol
# GULP energy per Si atom -5581.132894 kJ/mol
# Density = 1.758413 g / cm^3
# Si number density = 17.624247 Si / 1000 Ang^3
#
#
#
# Elastic Constant Matrix: (Units=GPa)
#
#
# Indices 1 2 3 4 5 6 
#
# 1 70.6895 34.6669 28.8879 -0.0005 -1.4724 0.0000
# 2 34.6669 70.6895 28.8879 0.0005 1.4724 0.0000
# 3 28.8879 28.8879 105.0926 0.0000 0.0000 0.0000
# 4 -0.0005 0.0005 0.0000 11.4297 0.0000 1.4724
# 5 -1.4724 1.4724 0.0000 0.0000 11.4297 -0.0005
# 6 0.0000 0.0000 0.0000 1.4724 -0.0005 18.0113
#
#
#
# Elastic Compliance Matrix: (Units=1/GPa)
#
#
# Indices 1 2 3 4 5 6 
#
# 1 0.019616 -0.008440 -0.003072 0.000001 0.003614 0.000000
# 2 -0.008440 0.019616 -0.003072 -0.000001 -0.003614 0.000000
# 3 -0.003072 -0.003072 0.011204 0.000000 0.000000 0.000000
# 4 0.000001 -0.000001 0.000000 0.088422 0.000000 -0.007229
# 5 0.003614 -0.003614 0.000000 0.000000 0.088422 0.000002
# 6 0.000000 0.000000 0.000000 -0.007229 0.000002 0.056112
#
#
# Mechanical properties :
#
#
# Convention : Reuss Voigt Hill
#
# Bulk Modulus (GPa) = 47.01814 47.92856 47.47335
# Shear Modulus (GPa) = 15.64207 18.44274 17.04241
#
# Velocity S-wave (km/s) = 2.98238 3.23838 3.11301
# Velocity P-wave (km/s) = 6.21252 6.42157 6.31791
#
# Compressibility (1/GPa) = 0.02126839
#
# Stress axis : x y z
#
# Youngs Moduli (GPa) = 50.97861 50.97861 89.25094
#
# Poissons Ratio (x) = 0.43025 0.27419
# Poissons Ratio (y) = 0.43025 0.27419
# Poissons Ratio (z) = 0.15661 0.15661
#
# Static dielectric constant tensor:
#      x y z
#    x 1.608170 0.000000 0.000000 
#    y 0.000000 1.608170 0.000000 
#    z 0.000000 0.000000 1.647390 
# 
# From -- ./inp_files/3590.got.cif
#   From: 2010.05.17/outbox.cif.g08.bks.cpg/sg151_2_cif.got.tgz:3590.got - 2010.05.20 10:33:20.
