data_PCOD9575497
_publ_section_title
;
Structure prediction by ZEFSAII (Michael W. Deem and Ramdas Pophale) SiO2 
 PCOD9575497
Probable space group: P 31 1 2
;
_chemical_formula_sum "Si O2"
_cell_formula_units_Z 30
_cell_length_a 14.016883
_cell_length_b 14.016883
_cell_length_c 8.003569
_cell_angle_alpha 90.000000
_cell_angle_beta 90.000000
_cell_angle_gamma 120.000000
_cell_volume 1361.812203
_symmetry_space_group_name_H-M "P 31 1 2"
_symmetry_group_IT_number 151
_symmetry_cell_setting 'hexagonal'
loop_
_space_group_symop_operation_xyz
x,y,z
-y,x-y,1/3+z
-x+y,-x,2/3+z
-y,-x,2/3-z
-x+y,y,1/3-z
x,x-y,-z
loop_
_atom_site_type_symbol
_atom_site_label
_atom_site_fract_x
_atom_site_fract_y
_atom_site_fract_z
Si Si1 0.811711 0.416118 0.191106
Si Si2 0.922227 0.282828 0.269481
Si Si3 0.538818 0.698548 0.663788
Si Si4 0.928527 0.658300 0.132162
Si Si5 0.503968 0.867524 0.827788
O O1 0.680360 0.360719 0.166667
O O2 0.860543 0.354189 0.294777
O O3 0.857986 0.542959 0.237648
O O4 0.853436 0.426718 0.000000
O O5 0.839252 0.160749 0.333334
O O6 0.044374 0.347682 0.346612
O O7 0.931425 0.278642 0.069045
O O8 0.548415 0.774208 0.500000
O O9 0.497539 0.752056 0.800539
O O10 0.445549 0.573100 0.634553
O O11 0.860483 0.720965 0.166667
O O12 0.049398 0.683160 0.180245
O O13 0.446046 0.892092 0.666667
#
# Coordination Sequence:
#
# PCOD9575497 Si02
#       5
#     6   6   6   6   6
#     4   9  16  27  46  71 111 150 180 214 280 355
#     4  11  20  33  55  88 119 150 202 252 298 356
#     4  10  19  34  66  85 116 165 208 257 303 384
#     4  10  18  32  56  82 115 159 192 235 301 373
#     4  10  17  35  64  88 116 162 215 247 311 380
#
# _framework density 22.029467
#
# number of rings (size 3 to 8) (size 9 to 14) (size 15 to 20)
#    0.000    2.000    6.000    1.200    0.000    0.000 
#    0.000    0.000   26.400    1.200    0.000    0.000 
#    0.000    0.000    0.000    0.000    0.000    0.000 
#
# Total GULP energy -167094.302659 kJ/mol
# GULP energy per Si atom -5569.810089 kJ/mol
# Density = 2.197933 g / cm^3
# Si number density = 22.029467 Si / 1000 Ang^3
#
#
#
# Elastic Constant Matrix: (Units=GPa)
#
#
# Indices 1 2 3 4 5 6 
#
# 1 96.0796 28.1113 13.7438 0.0001 4.9788 0.0000
# 2 28.1113 96.0796 13.7438 -0.0001 -4.9788 0.0000
# 3 13.7438 13.7438 35.0953 0.0000 0.0000 0.0000
# 4 0.0001 -0.0001 0.0000 13.8270 0.0000 -4.9788
# 5 4.9788 -4.9788 0.0000 0.0000 13.8270 0.0001
# 6 0.0000 0.0000 0.0000 -4.9788 0.0001 33.9842
#
#
#
# Elastic Compliance Matrix: (Units=1/GPa)
#
#
# Indices 1 2 3 4 5 6 
#
# 1 0.012174 -0.003358 -0.003453 0.000000 -0.005593 0.000000
# 2 -0.003358 0.012174 -0.003453 0.000000 0.005593 0.000000
# 3 -0.003453 -0.003453 0.031198 0.000000 0.000000 0.000000
# 4 0.000000 0.000000 0.000000 0.076350 0.000000 0.011185
# 5 -0.005593 0.005593 0.000000 0.000000 0.076350 0.000000
# 6 0.000000 0.000000 0.000000 0.011185 0.000000 0.031064
#
#
# Mechanical properties :
#
#
# Convention : Reuss Voigt Hill
#
# Bulk Modulus (GPa) = 28.55492 37.60583 33.08037
# Shear Modulus (GPa) = 18.41550 23.77132 21.09341
#
# Velocity S-wave (km/s) = 2.89441 3.28848 3.09772
# Velocity P-wave (km/s) = 4.91533 5.61485 5.27670
#
# Compressibility (1/GPa) = 0.03502023
#
# Stress axis : x y z
#
# Youngs Moduli (GPa) = 82.14096 82.14096 32.05333
#
# Poissons Ratio (x) = 0.27582 0.11067
# Poissons Ratio (y) = 0.27582 0.11067
# Poissons Ratio (z) = 0.28360 0.28360
#
# Static dielectric constant tensor:
#      x y z
#    x 1.870350 0.000000 0.000000 
#    y 0.000000 1.870350 0.000000 
#    z 0.000000 0.000000 1.976230 
# 
# From -- ./inp_files/1519.got.cif
#   From: 2010.05.17/outbox.cif.g08.bks.cpg/sg151_1_cif.got.tgz:1519.got - 2010.05.20 10:33:20.
