data_PCOD9575712
_publ_section_title
;
Structure prediction by ZEFSAII (Michael W. Deem and Ramdas Pophale) SiO2 
 PCOD9575712
Probable space group: P 31 2 1
;
_chemical_formula_sum "Si O2"
_cell_formula_units_Z 24
_cell_length_a 7.333798
_cell_length_b 7.333798
_cell_length_c 18.764585
_cell_angle_alpha 90.000000
_cell_angle_beta 90.000000
_cell_angle_gamma 120.000000
_cell_volume 874.032301
_symmetry_space_group_name_H-M "P 31 2 1"
_symmetry_group_IT_number 152
_symmetry_cell_setting 'hexagonal'
loop_
_space_group_symop_operation_xyz
x,y,z
-y,x-y,1/3+z
-x+y,-x,2/3+z
x-y,-y,2/3-z
-x,-x+y,1/3-z
y,x,-z
loop_
_atom_site_type_symbol
_atom_site_label
_atom_site_fract_x
_atom_site_fract_y
_atom_site_fract_z
Si Si1 0.893214 0.537527 0.598375
Si Si2 0.139769 0.897620 0.982964
Si Si3 0.858557 0.112022 0.518141
Si Si4 0.734975 0.213898 0.868204
O O1 0.722459 0.345220 0.551193
O O2 0.000000 0.497648 0.666667
O O3 0.072916 0.717262 0.551012
O O4 0.761155 0.648817 0.627523
O O5 0.024616 0.737678 0.918068
O O6 0.974859 0.974859 0.000000
O O7 0.173108 0.799916 0.053966
O O8 0.066654 0.343659 0.517089
O O9 0.973141 0.973141 0.500000
O O10 0.550860 0.000000 0.833334
#
# Coordination Sequence:
#
# PCOD9575712 Si02
#       4
#     6   6   6   6
#     4  10  19  33  55  91 126 174 233 290 362 434
#     4  10  16  31  52  85 133 163 223 312 348 416
#     4   9  16  30  51  86 129 166 227 302 356 417
#     4  11  18  29  59  95 123 181 239 291 366 438
#
# _framework density 27.458935
#
# number of rings (size 3 to 8) (size 9 to 14) (size 15 to 20)
#    0.000    2.000   10.000    2.250    0.000    0.000 
#    0.000    0.000    0.000    7.500    0.000    0.000 
#    0.000    0.000    0.000    0.000    0.000    0.000 
#
# Total GULP energy -134413.591384 kJ/mol
# GULP energy per Si atom -5600.566308 kJ/mol
# Density = 2.739644 g / cm^3
# Si number density = 27.458935 Si / 1000 Ang^3
#
#
#
# Elastic Constant Matrix: (Units=GPa)
#
#
# Indices 1 2 3 4 5 6 
#
# 1 98.1624 2.1166 25.5095 -1.7136 -0.0001 0.0000
# 2 2.1166 98.1624 25.5095 1.7136 0.0001 0.0000
# 3 25.5095 25.5095 139.8621 0.0000 0.0000 0.0000
# 4 -1.7136 1.7136 0.0000 44.0062 0.0000 0.0001
# 5 -0.0001 0.0001 0.0000 0.0000 44.0062 -1.7136
# 6 0.0000 0.0000 0.0000 0.0001 -1.7136 48.0229
#
#
#
# Elastic Compliance Matrix: (Units=1/GPa)
#
#
# Indices 1 2 3 4 5 6 
#
# 1 0.010709 0.000283 -0.002005 0.000406 0.000000 0.000000
# 2 0.000283 0.010709 -0.002005 -0.000406 0.000000 0.000000
# 3 -0.002005 -0.002005 0.007881 0.000000 0.000000 0.000000
# 4 0.000406 -0.000406 0.000000 0.022756 0.000000 0.000000
# 5 0.000000 0.000000 0.000000 0.000000 0.022756 0.000812
# 6 0.000000 0.000000 0.000000 0.000000 0.000812 0.020852
#
#
# Mechanical properties :
#
#
# Convention : Reuss Voigt Hill
#
# Bulk Modulus (GPa) = 45.77466 49.16201 47.46834
# Shear Modulus (GPa) = 45.29031 46.07715 45.68373
#
# Velocity S-wave (km/s) = 4.06567 4.10083 4.08329
# Velocity P-wave (km/s) = 6.22462 6.35335 6.28932
#
# Compressibility (1/GPa) = 0.02184615
#
# Stress axis : x y z
#
# Youngs Moduli (GPa) = 93.37772 93.37772 126.88358
#
# Poissons Ratio (x) = -0.02643 0.25439
# Poissons Ratio (y) = -0.02643 0.25439
# Poissons Ratio (z) = 0.18721 0.18721
#
# Static dielectric constant tensor:
#      x y z
#    x 2.431670 0.000000 0.000000 
#    y 0.000000 2.431670 0.000000 
#    z 0.000000 0.000000 2.384560 
# 
# From -- ./inp_files/2607.got.cif
#   From: 2010.05.17/outbox.cif.g08.bks.cpg/sg152_2_cif.got.tgz:2607.got - 2010.05.20 10:36:06.
