data_PCOD9575828
_publ_section_title
;
Structure prediction by ZEFSAII (Michael W. Deem and Ramdas Pophale) SiO2 
 PCOD9575828
Probable space group: P 31 2 1
;
_chemical_formula_sum "Si O2"
_cell_formula_units_Z 30
_cell_length_a 13.989018
_cell_length_b 13.989018
_cell_length_c 8.077271
_cell_angle_alpha 90.000000
_cell_angle_beta 90.000000
_cell_angle_gamma 120.000000
_cell_volume 1368.893760
_symmetry_space_group_name_H-M "P 31 2 1"
_symmetry_group_IT_number 152
_symmetry_cell_setting 'hexagonal'
loop_
_space_group_symop_operation_xyz
x,y,z
-y,x-y,1/3+z
-x+y,-x,2/3+z
x-y,-y,2/3-z
-x,-x+y,1/3-z
y,x,-z
loop_
_atom_site_type_symbol
_atom_site_label
_atom_site_fract_x
_atom_site_fract_y
_atom_site_fract_z
Si Si1 0.635540 0.578820 0.816594
Si Si2 0.786997 0.654677 0.342221
Si Si3 0.356190 0.415789 0.179669
Si Si4 0.140864 0.803532 0.370559
Si Si5 0.104149 0.118929 0.311892
O O1 0.636382 0.665117 0.683072
O O2 0.536112 0.457391 0.781994
O O3 0.755595 0.591386 0.843150
O O4 0.611288 0.611288 0.000000
O O5 0.826869 0.585281 0.453599
O O6 0.872141 0.778078 0.405084
O O7 0.816635 0.643457 0.150880
O O8 0.355769 0.318887 0.288807
O O9 0.377588 0.377588 0.000000
O O10 0.091606 0.882312 0.432775
O O11 0.145058 0.145058 0.500000
O O12 0.995317 0.000000 0.333334
#
# Coordination Sequence:
#
# PCOD9575828 Si02
#       5
#     6   6   6   6   6
#     4   9  18  36  60  80 106 148 193 232 274 331
#     4   9  18  35  57  79 105 146 191 226 271 340
#     4  10  20  35  54  82 117 144 176 235 296 338
#     4   9  17  34  57  77 100 142 192 230 269 329
#     4   9  15  26  48  74  99 128 170 219 264 318
#
# _framework density 21.915507000000002
#
# number of rings (size 3 to 8) (size 9 to 14) (size 15 to 20)
#    0.000    2.800    0.000    4.800    0.000    0.000 
#    0.000   20.000    0.000    0.000    0.000    0.000 
#    0.000    0.000    0.000    0.000    0.000    0.000 
#
# Total GULP energy -167063.464536 kJ/mol
# GULP energy per Si atom -5568.782151 kJ/mol
# Density = 2.186563 g / cm^3
# Si number density = 21.915507 Si / 1000 Ang^3
#
#
#
# Elastic Constant Matrix: (Units=GPa)
#
#
# Indices 1 2 3 4 5 6 
#
# 1 93.7312 36.7746 21.7427 5.5996 0.0000 0.0000
# 2 36.7746 93.7312 21.7427 -5.5996 0.0000 0.0000
# 3 21.7427 21.7427 61.9903 0.0000 0.0000 0.0000
# 4 5.5996 -5.5996 0.0000 20.3301 0.0000 0.0000
# 5 0.0000 0.0000 0.0000 0.0000 20.3301 5.5996
# 6 0.0000 0.0000 0.0000 0.0000 5.5996 28.4783
#
#
#
# Elastic Compliance Matrix: (Units=1/GPa)
#
#
# Indices 1 2 3 4 5 6 
#
# 1 0.013620 -0.004943 -0.003043 -0.005113 0.000000 0.000000
# 2 -0.004943 0.013620 -0.003043 0.005113 0.000000 0.000000
# 3 -0.003043 -0.003043 0.018266 0.000000 0.000000 0.000000
# 4 -0.005113 0.005113 0.000000 0.052005 0.000000 0.000000
# 5 0.000000 0.000000 0.000000 0.000000 0.052005 -0.010225
# 6 0.000000 0.000000 0.000000 0.000000 -0.010225 0.037125
#
#
# Mechanical properties :
#
#
# Convention : Reuss Voigt Hill
#
# Bulk Modulus (GPa) = 42.65036 45.55250 44.10143
# Shear Modulus (GPa) = 23.09317 25.10720 24.10019
#
# Velocity S-wave (km/s) = 3.24965 3.38840 3.31975
# Velocity P-wave (km/s) = 5.79516 6.01157 5.90435
#
# Compressibility (1/GPa) = 0.02344646
#
# Stress axis : x y z
#
# Youngs Moduli (GPa) = 73.42401 73.42401 54.74555
#
# Poissons Ratio (x) = 0.36294 0.16660
# Poissons Ratio (y) = 0.36294 0.16660
# Poissons Ratio (z) = 0.22345 0.22345
#
# Static dielectric constant tensor:
#      x y z
#    x 1.818680 0.000000 0.000000 
#    y 0.000000 1.818680 0.000000 
#    z 0.000000 0.000000 1.980920 
# 
# From -- ./inp_files/1051.got.cif
#   From: 2010.05.17/outbox.cif.g08.bks.cpg/sg152_1_cif.got.tgz:1051.got - 2010.05.20 10:36:06.
