data_PCOD9575832
_publ_section_title
;
Structure prediction by ZEFSAII (Michael W. Deem and Ramdas Pophale) SiO2 
 PCOD9575832
Probable space group: P 31 2 1
;
_chemical_formula_sum "Si O2"
_cell_formula_units_Z 30
_cell_length_a 17.117522
_cell_length_b 17.117522
_cell_length_c 5.076397
_cell_angle_alpha 90.000000
_cell_angle_beta 90.000000
_cell_angle_gamma 120.000000
_cell_volume 1288.154633
_symmetry_space_group_name_H-M "P 31 2 1"
_symmetry_group_IT_number 152
_symmetry_cell_setting 'hexagonal'
loop_
_space_group_symop_operation_xyz
x,y,z
-y,x-y,1/3+z
-x+y,-x,2/3+z
x-y,-y,2/3-z
-x,-x+y,1/3-z
y,x,-z
loop_
_atom_site_type_symbol
_atom_site_label
_atom_site_fract_x
_atom_site_fract_y
_atom_site_fract_z
Si Si1 0.913494 0.548156 0.581874
Si Si2 0.734727 0.798243 0.253954
Si Si3 0.791919 0.077599 0.026200
Si Si4 0.433131 0.210041 0.309206
Si Si5 0.609529 0.236665 0.127323
O O1 0.954534 0.644877 0.444314
O O2 0.848631 0.549545 0.812685
O O3 0.852397 0.464638 0.395552
O O4 0.000000 0.542992 0.666667
O O5 0.754365 0.754365 0.500000
O O6 0.752134 0.893652 0.387106
O O7 0.628769 0.749265 0.193869
O O8 0.789658 0.789658 0.000000
O O9 0.808668 0.168394 0.871279
O O10 0.786944 0.000000 0.833334
O O11 0.530415 0.218036 0.336942
O O12 0.709228 0.304966 0.231596
#
# Coordination Sequence:
#
# PCOD9575832 Si02
#       5
#     6   6   6   6   6
#     4  10  20  35  57  94 135 179 242 297 342 414
#     4  11  23  42  65 100 143 178 225 294 357 423
#     4  11  21  38  68  96 136 186 239 292 354 427
#     4  10  21  38  63  91 134 182 235 291 353 422
#     4  10  21  38  60  88 135 192 239 288 365 417
#
# _framework density 23.289128000000002
#
# number of rings (size 3 to 8) (size 9 to 14) (size 15 to 20)
#    0.000    1.600    4.000    1.200    0.000    0.800 
#    0.000    1.000    0.000    0.000    0.000    7.000 
#    0.000    0.000    0.000    0.000    0.000    0.000 
#
# Total GULP energy -167018.937732 kJ/mol
# GULP energy per Si atom -5567.297924 kJ/mol
# Density = 2.323612 g / cm^3
# Si number density = 23.289128 Si / 1000 Ang^3
#
#
#
# Elastic Constant Matrix: (Units=GPa)
#
#
# Indices 1 2 3 4 5 6 
#
# 1 72.7837 54.2615 31.0125 0.5097 0.0000 0.0000
# 2 54.2615 72.7837 31.0125 -0.5097 0.0000 0.0000
# 3 31.0125 31.0125 115.4084 0.0000 0.0000 0.0000
# 4 0.5097 -0.5097 0.0000 27.7665 0.0000 0.0000
# 5 0.0000 0.0000 0.0000 0.0000 27.7665 0.5097
# 6 0.0000 0.0000 0.0000 0.0000 0.5097 9.2611
#
#
#
# Elastic Compliance Matrix: (Units=1/GPa)
#
#
# Indices 1 2 3 4 5 6 
#
# 1 0.031552 -0.022492 -0.002435 -0.000992 0.000000 0.000000
# 2 -0.022492 0.031552 -0.002435 0.000992 0.000000 0.000000
# 3 -0.002435 -0.002435 0.009973 0.000000 0.000000 0.000000
# 4 -0.000992 0.000992 0.000000 0.036051 0.000000 0.000000
# 5 0.000000 0.000000 0.000000 0.000000 0.036051 -0.001984
# 6 0.000000 0.000000 0.000000 0.000000 -0.001984 0.108088
#
#
# Mechanical properties :
#
#
# Convention : Reuss Voigt Hill
#
# Bulk Modulus (GPa) = 54.48194 54.83875 54.66035
# Shear Modulus (GPa) = 15.91815 22.60478 19.26146
#
# Velocity S-wave (km/s) = 2.61722 3.11885 2.87898
# Velocity P-wave (km/s) = 5.70768 6.04712 5.87985
#
# Compressibility (1/GPa) = 0.01835471
#
# Stress axis : x y z
#
# Youngs Moduli (GPa) = 31.69394 31.69394 100.26775
#
# Poissons Ratio (x) = 0.71286 0.24411
# Poissons Ratio (y) = 0.71286 0.24411
# Poissons Ratio (z) = 0.07716 0.07716
#
# Static dielectric constant tensor:
#      x y z
#    x 1.940340 0.000000 0.000000 
#    y 0.000000 1.940340 0.000000 
#    z 0.000000 0.000000 2.120450 
# 
# From -- ./inp_files/333.got.cif
#   From: 2010.05.17/outbox.cif.g08.bks.cpg/sg152_1_cif.got.tgz:333.got - 2010.05.20 10:36:06.
