data_PCOD9575446
_publ_section_title
;
Structure prediction by ZEFSAII (Michael W. Deem and Ramdas Pophale) SiO2 
 PCOD9575446
Probable space group: P 3 2 1
;
_chemical_formula_sum "Si O2"
_cell_formula_units_Z 30
_cell_length_a 8.370762
_cell_length_b 8.370762
_cell_length_c 24.455182
_cell_angle_alpha 90.000000
_cell_angle_beta 90.000000
_cell_angle_gamma 120.000000
_cell_volume 1483.991861
_symmetry_space_group_name_H-M "P 3 2 1"
_symmetry_group_IT_number 150
_symmetry_cell_setting 'hexagonal'
loop_
_space_group_symop_operation_xyz
x,y,z
-y,x-y,z
-x+y,-x,z
x-y,-y,-z
-x,-x+y,-z
y,x,-z
loop_
_atom_site_type_symbol
_atom_site_label
_atom_site_fract_x
_atom_site_fract_y
_atom_site_fract_z
Si Si1 0.781097 0.798598 0.159063
Si Si2 0.673524 0.547573 0.948695
Si Si3 0.999801 0.662212 0.565155
Si Si4 0.329132 0.000388 0.613129
Si Si5 0.682578 0.551979 0.732162
O O1 0.659015 0.695876 0.106539
O O2 0.666907 0.705566 0.213611
O O3 0.984417 0.820793 0.158188
O O4 0.497957 0.338838 0.950031
O O5 0.657273 0.657273 0.000000
O O6 0.796783 0.596563 0.586835
O O7 0.000000 0.656445 0.500000
O O8 0.130104 0.864982 0.588808
O O9 0.068628 0.532902 0.591512
O O10 0.340131 0.025500 0.678053
O O11 0.501919 0.346862 0.731166
#
# Coordination Sequence:
#
# PCOD9575446 Si02
#       5
#     6   6   6   6   6
#     4  10  24  37  68  99 131 177 224 268 332 399
#     4  10  24  41  68  98 142 182 228 276 333 383
#     4  12  24  42  64  94 133 171 225 283 349 424
#     4  12  25  43  67  98 129 180 224 284 353 415
#     4  10  21  44  67  91 131 175 219 275 341 391
#
# _framework density 20.215745999999999
#
# number of rings (size 3 to 8) (size 9 to 14) (size 15 to 20)
#    1.200    0.000    2.000    4.200    5.600    0.000 
#    0.000    0.000    0.000    0.800    0.000    0.000 
#    0.000    0.000    0.000    0.000    0.000    0.000 
#
# Total GULP energy -167363.708104 kJ/mol
# GULP energy per Si atom -5578.790270 kJ/mol
# Density = 2.016973 g / cm^3
# Si number density = 20.215746 Si / 1000 Ang^3
#
#
#
# Elastic Constant Matrix: (Units=GPa)
#
#
# Indices 1 2 3 4 5 6 
#
# 1 68.3050 14.6053 50.5810 2.1807 0.0000 0.0000
# 2 14.6053 68.3050 50.5810 -2.1807 0.0000 0.0000
# 3 50.5810 50.5810 244.3256 0.0000 0.0000 0.0000
# 4 2.1807 -2.1807 0.0000 58.4726 0.0000 0.0000
# 5 0.0000 0.0000 0.0000 0.0000 58.4726 2.1807
# 6 0.0000 0.0000 0.0000 0.0000 2.1807 26.8499
#
#
#
# Elastic Compliance Matrix: (Units=1/GPa)
#
#
# Indices 1 2 3 4 5 6 
#
# 1 0.017408 -0.001271 -0.003341 -0.000697 0.000000 0.000000
# 2 -0.001271 0.017408 -0.003341 0.000697 0.000000 0.000000
# 3 -0.003341 -0.003341 0.005476 0.000000 0.000000 0.000000
# 4 -0.000697 0.000697 0.000000 0.017154 0.000000 0.000000
# 5 0.000000 0.000000 0.000000 0.000000 0.017154 -0.001393
# 6 0.000000 0.000000 0.000000 0.000000 -0.001393 0.037357
#
#
# Mechanical properties :
#
#
# Convention : Reuss Voigt Hill
#
# Bulk Modulus (GPa) = 41.00404 68.05226 54.52815
# Shear Modulus (GPa) = 36.76704 46.43690 41.60197
#
# Velocity S-wave (km/s) = 4.26929 4.79797 4.54133
# Velocity P-wave (km/s) = 6.68054 8.02684 7.38444
#
# Compressibility (1/GPa) = 0.02438784
#
# Stress axis : x y z
#
# Youngs Moduli (GPa) = 57.44458 57.44458 182.60975
#
# Poissons Ratio (x) = 0.07299 0.61007
# Poissons Ratio (y) = 0.07299 0.61007
# Poissons Ratio (z) = 0.19191 0.19191
#
# Static dielectric constant tensor:
#      x y z
#    x 1.631080 0.000000 0.000000 
#    y 0.000000 1.631080 0.000000 
#    z 0.000000 0.000000 1.665310 
# 
# From -- ./inp_files/1159.got.cif
#   From: 2010.05.17/outbox.cif.g08.bks.cpg/sg150_cif.got.tgz:1159.got - 2010.05.20 13:53:18.
