data_PCOD9575221
_publ_section_title
;
Structure prediction by ZEFSAII (Michael W. Deem and Ramdas Pophale) SiO2 
 PCOD9575221
Probable space group: R -3
;
_chemical_formula_sum "Si O2"
_cell_formula_units_Z 54
_cell_length_a 9.428776
_cell_length_b 9.428776
_cell_length_c 25.887360
_cell_angle_alpha 90.000000
_cell_angle_beta 90.000000
_cell_angle_gamma 120.000000
_cell_volume 1993.099736
_symmetry_space_group_name_H-M "R -3"
_symmetry_group_IT_number 148
_symmetry_cell_setting 'hexagonal'
loop_
_space_group_symop_operation_xyz
x,y,z
-y,x-y,z
-x+y,-x,z
-x,-y,-z
y,-x+y,-z
x-y,x,-z
2/3+x,1/3+y,1/3+z
2/3-y,1/3+x-y,1/3+z
2/3-x+y,1/3-x,1/3+z
2/3-x,1/3-y,1/3-z
2/3+y,1/3-x+y,1/3-z
2/3+x-y,1/3+x,1/3-z
1/3+x,2/3+y,2/3+z
1/3-y,2/3+x-y,2/3+z
1/3-x+y,2/3-x,2/3+z
1/3-x,2/3-y,2/3-z
1/3+y,2/3-x+y,2/3-z
1/3+x-y,2/3+x,2/3-z
loop_
_atom_site_type_symbol
_atom_site_label
_atom_site_fract_x
_atom_site_fract_y
_atom_site_fract_z
Si Si1 0.290954 0.063978 0.840107
Si Si2 0.492481 0.861912 0.302040
Si Si3 0.866733 0.691416 0.255267
O O1 0.438718 0.027608 0.829588
O O2 0.532931 0.169172 0.953794
O O3 0.173804 0.977004 0.791563
O O4 0.199787 0.966578 0.891990
O O5 0.494970 0.885723 0.363551
O O6 0.642757 0.024432 0.279652
#
# Coordination Sequence:
#
# PCOD9575221 Si02
#       3
#    18  18  18
#     4  11  27  49  78 110 160 210 263 323 395 478
#     4  10  24  42  81 113 159 203 257 316 397 477
#     4  11  25  48  74 121 157 199 264 326 394 468
#
# _framework density 27.093474000000001
#
# number of rings (size 3 to 8) (size 9 to 14) (size 15 to 20)
#    0.667    0.667    0.000    3.333    9.333    0.000 
#   16.000    1.667    0.000    2.000    0.000    0.000 
#    0.000    0.000    0.000    0.000    0.000    0.000 
#
# Total GULP energy -100778.214508 kJ/mol
# GULP energy per Si atom -5598.789695 kJ/mol
# Density = 2.703181 g / cm^3
# Si number density = 27.093474 Si / 1000 Ang^3
#
#
#
# Elastic Constant Matrix: (Units=GPa)
#
#
# Indices 1 2 3 4 5 6 
#
# 1 184.8348 98.4027 50.5524 -10.3821 5.5082 0.0000
# 2 98.4027 184.8348 50.5524 10.3821 -5.5082 0.0000
# 3 50.5524 50.5524 135.0289 0.0000 0.0000 0.0000
# 4 -10.3821 10.3821 0.0000 30.6664 0.0000 -5.5082
# 5 5.5082 -5.5082 0.0000 0.0000 30.6664 -10.3821
# 6 0.0000 0.0000 0.0000 -5.5082 -10.3821 43.2160
#
#
#
# Elastic Compliance Matrix: (Units=1/GPa)
#
#
# Indices 1 2 3 4 5 6 
#
# 1 0.008496 -0.004420 -0.001526 0.004373 -0.002320 0.000000
# 2 -0.004420 0.008496 -0.001526 -0.004373 0.002320 0.000000
# 3 -0.001526 -0.001526 0.008548 0.000000 0.000000 0.000000
# 4 0.004373 -0.004373 0.000000 0.036403 0.000000 0.004640
# 5 -0.002320 0.002320 0.000000 0.000000 0.036403 0.008745
# 6 0.000000 0.000000 0.000000 0.004640 0.008745 0.025832
#
#
# Mechanical properties :
#
#
# Convention : Reuss Voigt Hill
#
# Bulk Modulus (GPa) = 94.37627 100.41261 97.39444
# Shear Modulus (GPa) = 35.05011 41.25584 38.15297
#
# Velocity S-wave (km/s) = 3.60067 3.90644 3.75667
# Velocity P-wave (km/s) = 7.22465 7.58215 7.40556
#
# Compressibility (1/GPa) = 0.01059588
#
# Stress axis : x y z
#
# Youngs Moduli (GPa) = 117.70813 117.70813 116.98367
#
# Poissons Ratio (x) = 0.52031 0.17848
# Poissons Ratio (y) = 0.52031 0.17848
# Poissons Ratio (z) = 0.17959 0.17959
#
# Static dielectric constant tensor:
#      x y z
#    x 2.131130 0.000000 0.000000 
#    y 0.000000 2.131130 0.000000 
#    z 0.000000 0.000000 2.142160 
# 
# From -- ./inp_files/2435.got.cif
#   From: 2010.05.17/outbox.cif.g08.bks.cpg/sg148_2_cif.got.tgz:2435.got - 2010.05.20 13:50:20.
