data_PCOD9575199
_publ_section_title
;
Structure prediction by ZEFSAII (Michael W. Deem and Ramdas Pophale) SiO2 
 PCOD9575199
Probable space group: R -3
;
_chemical_formula_sum "Si O2"
_cell_formula_units_Z 114
_cell_length_a 14.184710
_cell_length_b 14.184710
_cell_length_c 29.534470
_cell_angle_alpha 90.000000
_cell_angle_beta 90.000000
_cell_angle_gamma 120.000000
_cell_volume 5146.366792
_symmetry_space_group_name_H-M "R -3"
_symmetry_group_IT_number 148
_symmetry_cell_setting 'hexagonal'
loop_
_space_group_symop_operation_xyz
x,y,z
-y,x-y,z
-x+y,-x,z
-x,-y,-z
y,-x+y,-z
x-y,x,-z
2/3+x,1/3+y,1/3+z
2/3-y,1/3+x-y,1/3+z
2/3-x+y,1/3-x,1/3+z
2/3-x,1/3-y,1/3-z
2/3+y,1/3-x+y,1/3-z
2/3+x-y,1/3+x,1/3-z
1/3+x,2/3+y,2/3+z
1/3-y,2/3+x-y,2/3+z
1/3-x+y,2/3-x,2/3+z
1/3-x,2/3-y,2/3-z
1/3+y,2/3-x+y,2/3-z
1/3+x-y,2/3+x,2/3-z
loop_
_atom_site_type_symbol
_atom_site_label
_atom_site_fract_x
_atom_site_fract_y
_atom_site_fract_z
Si Si1 0.905633 0.514156 0.682643
Si Si2 0.015097 0.292068 0.744153
Si Si3 0.774417 0.596229 0.524666
Si Si4 0.590323 0.981938 0.776553
Si Si5 0.092087 0.867717 0.861656
Si Si6 0.000000 0.000000 0.553037
Si Si7 0.802013 0.283503 0.714594
O O1 0.950486 0.538548 0.632430
O O2 0.820135 0.386392 0.686129
O O3 0.829284 0.566655 0.689114
O O4 0.983778 0.556419 0.726556
O O5 0.945739 0.183280 0.775064
O O6 0.920466 0.310736 0.726814
O O7 0.101632 0.397811 0.770414
O O8 0.716420 0.661232 0.545965
O O9 0.858448 0.667213 0.484198
O O10 0.673866 0.484986 0.503946
O O11 0.540822 0.850720 0.780920
O O12 0.166667 0.833334 0.833334
O O13 0.947260 0.879428 0.574281
O O14 0.000000 0.000000 0.500000
#
# Coordination Sequence:
#
# PCOD9575199 Si02
#       7
#    18  18  18  18  18   6  18
#     4  11  25  40  66  93 142 168 220 275 337 413
#     4  12  23  40  69  95 127 184 220 271 342 396
#     4  11  22  42  68  95 131 167 228 277 329 408
#     4  11  24  44  66  97 131 176 221 278 330 399
#     4  10  23  43  62  94 132 167 230 270 329 394
#     4   9  21  39  60  90 135 165 207 270 330 411
#     4  10  23  41  56 100 129 170 213 270 338 397
#
# _framework density 22.151547999999998
#
# number of rings (size 3 to 8) (size 9 to 14) (size 15 to 20)
#    0.000    1.263    4.737    1.737    2.211    5.053 
#    0.947    0.000    0.000    0.316    0.000    1.105 
#    0.000    0.000    0.000    0.000    0.000    0.000 
#
# Total GULP energy -211905.854080 kJ/mol
# GULP energy per Si atom -5576.469844 kJ/mol
# Density = 2.210113 g / cm^3
# Si number density = 22.151548 Si / 1000 Ang^3
#
#
#
# Elastic Constant Matrix: (Units=GPa)
#
#
# Indices 1 2 3 4 5 6 
#
# 1 65.8968 -7.3144 5.0902 2.8060 -5.7456 0.0000
# 2 -7.3144 65.8968 5.0902 -2.8060 5.7456 0.0000
# 3 5.0902 5.0902 93.9146 0.0000 0.0000 0.0000
# 4 2.8060 -2.8060 0.0000 18.8175 0.0000 5.7456
# 5 -5.7456 5.7456 0.0000 0.0000 18.8175 2.8060
# 6 0.0000 0.0000 0.0000 5.7456 2.8060 36.6056
#
#
#
# Elastic Compliance Matrix: (Units=1/GPa)
#
#
# Indices 1 2 3 4 5 6 
#
# 1 0.015877 0.001356 -0.000934 -0.002165 0.004434 0.000000
# 2 0.001356 0.015877 -0.000934 0.002165 -0.004434 0.000000
# 3 -0.000934 -0.000934 0.010749 0.000000 0.000000 0.000000
# 4 -0.002165 0.002165 0.000000 0.056495 0.000000 -0.008868
# 5 0.004434 -0.004434 0.000000 0.000000 0.056495 -0.004331
# 6 0.000000 0.000000 0.000000 -0.008868 -0.004331 0.029042
#
#
# Mechanical properties :
#
#
# Convention : Reuss Voigt Hill
#
# Bulk Modulus (GPa) = 24.10928 25.71558 24.91243
# Shear Modulus (GPa) = 25.07697 29.70426 27.39062
#
# Velocity S-wave (km/s) = 3.36827 3.66588 3.52022
# Velocity P-wave (km/s) = 5.10239 5.43621 5.27194
#
# Compressibility (1/GPa) = 0.04147780
#
# Stress axis : x y z
#
# Youngs Moduli (GPa) = 62.98559 62.98559 93.03000
#
# Poissons Ratio (x) = -0.08539 0.08689
# Poissons Ratio (y) = -0.08539 0.08689
# Poissons Ratio (z) = 0.05883 0.05883
#
# Static dielectric constant tensor:
#      x y z
#    x 1.671440 0.000000 0.000000 
#    y 0.000000 1.671440 0.000000 
#    z 0.000000 0.000000 1.685930 
# 
# From -- ./inp_files/4030.got.cif
#   From: 2010.05.17/outbox.cif.g08.bks.cpg/sg148_3_cif.got.tgz:4030.got - 2010.05.20 13:50:20.
