data_PCOD9575169
_publ_section_title
;
Structure prediction by ZEFSAII (Michael W. Deem and Ramdas Pophale) SiO2 
 PCOD9575169
Probable space group: R -3
;
_chemical_formula_sum "Si O2"
_cell_formula_units_Z 126
_cell_length_a 17.391301
_cell_length_b 17.391301
_cell_length_c 27.018177
_cell_angle_alpha 90.000000
_cell_angle_beta 90.000000
_cell_angle_gamma 120.000000
_cell_volume 7077.026431
_symmetry_space_group_name_H-M "R -3"
_symmetry_group_IT_number 148
_symmetry_cell_setting 'hexagonal'
loop_
_space_group_symop_operation_xyz
x,y,z
-y,x-y,z
-x+y,-x,z
-x,-y,-z
y,-x+y,-z
x-y,x,-z
2/3+x,1/3+y,1/3+z
2/3-y,1/3+x-y,1/3+z
2/3-x+y,1/3-x,1/3+z
2/3-x,1/3-y,1/3-z
2/3+y,1/3-x+y,1/3-z
2/3+x-y,1/3+x,1/3-z
1/3+x,2/3+y,2/3+z
1/3-y,2/3+x-y,2/3+z
1/3-x+y,2/3-x,2/3+z
1/3-x,2/3-y,2/3-z
1/3+y,2/3-x+y,2/3-z
1/3+x-y,2/3+x,2/3-z
loop_
_atom_site_type_symbol
_atom_site_label
_atom_site_fract_x
_atom_site_fract_y
_atom_site_fract_z
Si Si1 0.409423 0.958567 0.272010
Si Si2 0.396887 0.993489 0.763539
Si Si3 0.818864 0.835439 0.814952
Si Si4 0.740994 0.652169 0.239149
Si Si5 0.481766 0.161527 0.511939
Si Si6 0.781761 0.073711 0.283628
Si Si7 0.181860 0.999974 0.507386
O O1 0.511206 0.991935 0.257994
O O2 0.393947 0.922280 0.327615
O O3 0.350905 0.891044 0.228659
O O4 0.388384 0.038454 0.269183
O O5 0.422619 0.075661 0.801135
O O6 0.349608 0.905005 0.796534
O O7 0.324473 0.977427 0.722613
O O8 0.740171 0.790322 0.855593
O O9 0.890271 0.803851 0.817862
O O10 0.779470 0.813830 0.760078
O O11 0.858406 0.939924 0.823762
O O12 0.773866 0.753407 0.221653
O O13 0.821369 0.653546 0.269522
O O14 0.088744 0.913507 0.493887
#
# Coordination Sequence:
#
# PCOD9575169 Si02
#       7
#    18  18  18  18  18  18  18
#     4  11  22  36  58  87 117 147 194 248 290 338
#     4  11  20  36  61  84 113 150 198 236 280 349
#     4  11  21  37  60  83 118 154 196 236 280 355
#     4  11  20  37  59  81 117 155 191 239 286 346
#     4  11  20  36  60  85 110 151 202 232 277 330
#     4  11  22  37  54  86 119 156 185 238 300 340
#     4  10  22  40  63  85 111 150 198 241 288 344
#
# _framework density 17.804086999999999
#
# number of rings (size 3 to 8) (size 9 to 14) (size 15 to 20)
#    0.000    1.143    5.714    2.143    2.000    0.000 
#    0.000    8.571    0.000    0.000    0.000    4.000 
#    0.000    0.000    0.000    0.000    0.000    0.000 
#
# Total GULP energy -234320.199215 kJ/mol
# GULP energy per Si atom -5579.052362 kJ/mol
# Density = 1.776356 g / cm^3
# Si number density = 17.804087 Si / 1000 Ang^3
#
#
#
# Elastic Constant Matrix: (Units=GPa)
#
#
# Indices 1 2 3 4 5 6 
#
# 1 77.2996 32.7226 27.5679 -0.5847 1.6304 0.0000
# 2 32.7226 77.2996 27.5679 0.5847 -1.6304 0.0000
# 3 27.5679 27.5679 107.0032 0.0000 0.0000 0.0000
# 4 -0.5847 0.5847 0.0000 -5.9280 0.0000 -1.6304
# 5 1.6304 -1.6304 0.0000 0.0000 -5.9280 -0.5847
# 6 0.0000 0.0000 0.0000 -1.6304 -0.5847 22.2885
#
#
#
# Elastic Compliance Matrix: (Units=1/GPa)
#
#
# Indices 1 2 3 4 5 6 
#
# 1 0.016186 -0.005749 -0.002689 -0.002164 0.006033 0.000000
# 2 -0.005749 0.016186 -0.002689 0.002164 -0.006033 0.000000
# 3 -0.002689 -0.002689 0.010731 0.000000 0.000000 0.000000
# 4 -0.002164 0.002164 0.000000 -0.164944 0.000000 -0.012066
# 5 0.006033 -0.006033 0.000000 0.000000 -0.164944 -0.004327
# 6 0.000000 0.000000 0.000000 -0.012066 -0.004327 0.043870
#
#
# Mechanical properties :
#
#
# Convention : Reuss Voigt Hill
#
# Bulk Modulus (GPa) = 47.96452 48.59104 48.27778
# Shear Modulus (GPa) = -23.39592 13.66942 -4.86325
#
# Velocity S-wave (km/s) = -3.62895 2.77387 -1.65453
# Velocity P-wave (km/s) = 3.07240 6.13274 4.85026
#
# Compressibility (1/GPa) = 0.02084874
#
# Stress axis : x y z
#
# Youngs Moduli (GPa) = 61.78268 61.78268 93.18795
#
# Poissons Ratio (x) = 0.35520 0.25057
# Poissons Ratio (y) = 0.35520 0.25057
# Poissons Ratio (z) = 0.16612 0.16612
#
# Static dielectric constant tensor:
#      x y z
#    x 1.613620 0.000000 0.000000 
#    y 0.000000 1.613620 0.000000 
#    z 0.000000 0.000000 1.588840 
# 
# From -- ./inp_files/3457.got.cif
#   From: 2010.05.17/outbox.cif.g08.bks.cpg/sg148_2_cif.got.tgz:3457.got - 2010.05.20 13:50:20.
