data_PCOD9575619
_publ_section_title
;
Structure prediction by ZEFSAII (Michael W. Deem and Ramdas Pophale) SiO2 
 PCOD9575619
Probable space group: P 31 1 2
;
_chemical_formula_sum "Si O2"
_cell_formula_units_Z 36
_cell_length_a 11.610431
_cell_length_b 11.610431
_cell_length_c 13.920012
_cell_angle_alpha 90.000000
_cell_angle_beta 90.000000
_cell_angle_gamma 120.000000
_cell_volume 1625.050737
_symmetry_space_group_name_H-M "P 31 1 2"
_symmetry_group_IT_number 151
_symmetry_cell_setting 'hexagonal'
loop_
_space_group_symop_operation_xyz
x,y,z
-y,x-y,1/3+z
-x+y,-x,2/3+z
-y,-x,2/3-z
-x+y,y,1/3-z
x,x-y,-z
loop_
_atom_site_type_symbol
_atom_site_label
_atom_site_fract_x
_atom_site_fract_y
_atom_site_fract_z
Si Si1 0.437224 0.114440 0.429953
Si Si2 0.421239 0.842478 0.666667
Si Si3 0.943984 0.381770 0.130682
Si Si4 0.713260 0.356630 0.000000
Si Si5 0.299950 0.437592 0.932195
Si Si6 0.589913 0.914958 0.051212
Si Si7 0.801759 0.808036 0.587199
O O1 0.396540 0.198270 0.500000
O O2 0.477109 0.020719 0.486947
O O3 0.581926 0.220176 0.387937
O O4 0.336565 0.035637 0.345677
O O5 0.295097 0.751913 0.600232
O O6 0.377443 0.937236 0.720793
O O7 0.809011 0.338396 0.073519
O O8 0.931116 0.262567 0.194847
O O9 0.282621 0.373542 0.827523
O O10 0.458111 0.529219 0.949730
O O11 0.225357 0.325022 0.011744
O O12 0.560078 0.780039 0.000000
O O13 0.832497 0.916249 0.500000
O O14 0.916509 0.833017 0.666667
#
# Coordination Sequence:
#
# PCOD9575619 Si02
#       7
#     6   3   6   3   6   6   6
#     4  10  21  40  62  97 142 185 227 291 363 435
#     4  11  20  40  72 104 140 182 225 296 372 436
#     4  10  21  39  69  99 129 181 237 284 360 430
#     4   9  22  38  64  98 136 176 229 302 356 432
#     4  11  24  39  69 106 145 184 226 302 368 440
#     4  11  23  40  63 105 145 180 230 286 368 438
#     4  12  27  48  73 102 143 198 256 307 364 443
#
# _framework density 22.153153
#
# number of rings (size 3 to 8) (size 9 to 14) (size 15 to 20)
#    0.000    1.333    4.167    1.000    3.500    0.000 
#    6.000    0.833    3.667    0.000    0.000    0.000 
#    0.000    0.000    0.000    0.000    0.000    0.000 
#
# Total GULP energy -200689.293069 kJ/mol
# GULP energy per Si atom -5574.702585 kJ/mol
# Density = 2.210273 g / cm^3
# Si number density = 22.153153 Si / 1000 Ang^3
#
#
#
# Elastic Constant Matrix: (Units=GPa)
#
#
# Indices 1 2 3 4 5 6 
#
# 1 54.3745 28.4687 39.2927 0.0001 -2.1445 0.0000
# 2 28.4687 54.3745 39.2927 -0.0001 2.1445 0.0000
# 3 39.2927 39.2927 142.4395 0.0000 0.0000 0.0000
# 4 0.0001 -0.0001 0.0000 39.7075 0.0000 2.1445
# 5 -2.1445 2.1445 0.0000 0.0000 39.7075 0.0001
# 6 0.0000 0.0000 0.0000 2.1445 0.0001 12.9529
#
#
#
# Elastic Compliance Matrix: (Units=1/GPa)
#
#
# Indices 1 2 3 4 5 6 
#
# 1 0.027649 -0.011300 -0.004510 0.000000 0.002104 0.000000
# 2 -0.011300 0.027649 -0.004510 0.000000 -0.002104 0.000000
# 3 -0.004510 -0.004510 0.009509 0.000000 0.000000 0.000000
# 4 0.000000 0.000000 0.000000 0.025411 0.000000 -0.004207
# 5 0.002104 -0.002104 0.000000 0.000000 0.025411 0.000000
# 6 0.000000 0.000000 0.000000 -0.004207 0.000000 0.077899
#
#
# Mechanical properties :
#
#
# Convention : Reuss Voigt Hill
#
# Bulk Modulus (GPa) = 41.37855 51.69965 46.53910
# Shear Modulus (GPa) = 20.64190 28.08253 24.36222
#
# Velocity S-wave (km/s) = 3.05582 3.56428 3.31980
# Velocity P-wave (km/s) = 5.58298 6.35034 5.97898
#
# Compressibility (1/GPa) = 0.02416711
#
# Stress axis : x y z
#
# Youngs Moduli (GPa) = 36.16713 36.16713 105.16630
#
# Poissons Ratio (x) = 0.40870 0.47430
# Poissons Ratio (y) = 0.40870 0.47430
# Poissons Ratio (z) = 0.16311 0.16311
#
# Static dielectric constant tensor:
#      x y z
#    x 1.851170 0.000000 0.000000 
#    y 0.000000 1.851170 0.000000 
#    z 0.000000 0.000000 1.475350 
# 
# From -- ./inp_files/2962.got.cif
#   From: 2010.05.17/outbox.cif.g08.bks.cpg/sg151_2_cif.got.tgz:2962.got - 2010.05.20 10:33:20.
