data_PCOD9575898
_publ_section_title
;
Structure prediction by ZEFSAII (Michael W. Deem and Ramdas Pophale) SiO2 
 PCOD9575898
Probable space group: P 31 2 1
;
_chemical_formula_sum "Si O2"
_cell_formula_units_Z 27
_cell_length_a 8.880264
_cell_length_b 8.880264
_cell_length_c 16.637648
_cell_angle_alpha 90.000000
_cell_angle_beta 90.000000
_cell_angle_gamma 120.000000
_cell_volume 1136.251102
_symmetry_space_group_name_H-M "P 31 2 1"
_symmetry_group_IT_number 152
_symmetry_cell_setting 'hexagonal'
loop_
_space_group_symop_operation_xyz
x,y,z
-y,x-y,1/3+z
-x+y,-x,2/3+z
x-y,-y,2/3-z
-x,-x+y,1/3-z
y,x,-z
loop_
_atom_site_type_symbol
_atom_site_label
_atom_site_fract_x
_atom_site_fract_y
_atom_site_fract_z
Si Si1 0.517159 0.734525 0.427669
Si Si2 0.000000 0.108619 0.166667
Si Si3 0.000000 0.431432 0.666667
Si Si4 0.451762 0.650254 0.859864
Si Si5 0.000000 0.978265 0.666667
Si Si6 0.692237 0.609893 0.732819
O O1 0.706311 0.849437 0.464862
O O2 0.464619 0.870532 0.390038
O O3 0.388863 0.610054 0.494753
O O4 0.510881 0.621205 0.351227
O O5 0.924841 0.986625 0.087001
O O6 0.128697 0.420635 0.603134
O O7 0.547905 0.612916 0.787873
O O8 0.267366 0.486047 0.888000
O O9 0.839467 0.798745 0.701813
#
# Coordination Sequence:
#
# PCOD9575898 Si02
#       6
#     6   3   3   6   3   6
#     4  10  21  37  67  95 131 175 240 284 355 422
#     4  10  20  42  66  96 132 190 230 292 340 450
#     4  10  21  40  59  96 131 184 226 287 358 421
#     4  11  20  39  66  98 132 175 231 298 347 434
#     4  10  23  42  67  92 141 190 240 277 380 423
#     4  10  22  39  63  97 137 181 235 292 362 420
#
# _framework density 23.762353000000001
#
# number of rings (size 3 to 8) (size 9 to 14) (size 15 to 20)
#    0.000    1.778    2.222    6.000    0.000    7.111 
#    0.000    2.222    4.889    0.000    0.000    0.000 
#    0.000    0.000    0.000    0.000    0.000    0.000 
#
# Total GULP energy -150546.994668 kJ/mol
# GULP energy per Si atom -5575.814617 kJ/mol
# Density = 2.370827 g / cm^3
# Si number density = 23.762353 Si / 1000 Ang^3
#
#
#
# Elastic Constant Matrix: (Units=GPa)
#
#
# Indices 1 2 3 4 5 6 
#
# 1 51.8091 12.3859 32.3827 -6.3055 0.0000 0.0000
# 2 12.3859 51.8091 32.3827 6.3055 0.0000 0.0000
# 3 32.3827 32.3827 175.4988 0.0000 0.0000 0.0000
# 4 -6.3055 6.3055 0.0000 38.4953 0.0000 0.0000
# 5 0.0000 0.0000 0.0000 0.0000 38.4953 -6.3055
# 6 0.0000 0.0000 0.0000 0.0000 -6.3055 19.7116
#
#
#
# Elastic Compliance Matrix: (Units=1/GPa)
#
#
# Indices 1 2 3 4 5 6 
#
# 1 0.022955 -0.003814 -0.003532 0.004385 0.000000 0.000000
# 2 -0.003814 0.022955 -0.003532 -0.004385 0.000000 0.000000
# 3 -0.003532 -0.003532 0.007001 0.000000 0.000000 0.000000
# 4 0.004385 -0.004385 0.000000 0.027414 0.000000 0.000000
# 5 0.000000 0.000000 0.000000 0.000000 0.027414 0.008769
# 6 0.000000 0.000000 0.000000 0.000000 0.008769 0.053537
#
#
# Mechanical properties :
#
#
# Convention : Reuss Voigt Hill
#
# Bulk Modulus (GPa) = 32.09692 48.15774 40.12733
# Shear Modulus (GPa) = 25.85123 32.80482 29.32802
#
# Velocity S-wave (km/s) = 3.30192 3.71959 3.51696
# Velocity P-wave (km/s) = 5.29846 6.22555 5.78062
#
# Compressibility (1/GPa) = 0.03115564
#
# Stress axis : x y z
#
# Youngs Moduli (GPa) = 43.56436 43.56436 142.82823
#
# Poissons Ratio (x) = 0.16615 0.50444
# Poissons Ratio (y) = 0.16615 0.50444
# Poissons Ratio (z) = 0.15386 0.15386
#
# Static dielectric constant tensor:
#      x y z
#    x 1.955850 0.000000 0.000000 
#    y 0.000000 1.955850 0.000000 
#    z 0.000000 0.000000 1.984600 
# 
# From -- ./inp_files/1938.got.cif
#   From: 2010.05.17/outbox.cif.g08.bks.cpg/sg152_1_cif.got.tgz:1938.got - 2010.05.20 10:36:06.
