data_PCOD9575693
_publ_section_title
;
Structure prediction by ZEFSAII (Michael W. Deem and Ramdas Pophale) SiO2 
 PCOD9575693
Probable space group: P 31 1 2
;
_chemical_formula_sum "Si O2"
_cell_formula_units_Z 36
_cell_length_a 11.137140
_cell_length_b 11.137140
_cell_length_c 15.283875
_cell_angle_alpha 90.000000
_cell_angle_beta 90.000000
_cell_angle_gamma 120.000000
_cell_volume 1641.766792
_symmetry_space_group_name_H-M "P 31 1 2"
_symmetry_group_IT_number 151
_symmetry_cell_setting 'hexagonal'
loop_
_space_group_symop_operation_xyz
x,y,z
-y,x-y,1/3+z
-x+y,-x,2/3+z
-y,-x,2/3-z
-x+y,y,1/3-z
x,x-y,-z
loop_
_atom_site_type_symbol
_atom_site_label
_atom_site_fract_x
_atom_site_fract_y
_atom_site_fract_z
Si Si1 0.615017 0.459736 0.732211
Si Si2 0.466566 0.435070 0.198857
Si Si3 0.395505 0.791010 0.666667
Si Si4 0.844687 0.199783 0.644336
Si Si5 0.091476 0.118667 0.266775
Si Si6 0.791119 0.208882 0.833334
Si Si7 0.088385 0.386146 0.313278
O O1 0.594886 0.405115 0.833334
O O2 0.719335 0.438669 0.666667
O O3 0.460492 0.361086 0.696470
O O4 0.650133 0.618118 0.718813
O O5 0.443723 0.548193 0.250203
O O6 0.425914 0.305477 0.263554
O O7 0.625142 0.492075 0.172216
O O8 0.372354 0.389801 0.111995
O O9 0.471356 0.700549 0.665719
O O10 0.833095 0.163581 0.745700
O O11 0.926858 0.133556 0.602546
O O12 0.054762 0.109523 0.166667
O O13 0.138382 0.274279 0.299412
O O14 0.972126 0.027874 0.333334
#
# Coordination Sequence:
#
# PCOD9575693 Si02
#       7
#     6   6   3   6   6   3   6
#     4  12  28  46  75 111 149 188 244 314 379 438
#     4  12  22  44  70 108 143 187 245 298 371 441
#     4  12  24  44  74 102 148 200 248 294 366 454
#     4  12  25  44  69 106 141 187 243 297 367 436
#     4  12  27  50  74 101 146 199 249 300 371 452
#     4  12  22  40  72 108 142 180 230 316 356 424
#     4  12  25  47  73 106 144 196 244 306 364 447
#
# _framework density 21.927596999999999
#
# number of rings (size 3 to 8) (size 9 to 14) (size 15 to 20)
#    0.000    0.000    6.667    3.000    5.833    1.333 
#    1.500    0.000    0.000    0.000    0.000    0.000 
#    0.000    0.000    0.000    0.000    0.000    0.000 
#
# Total GULP energy -201174.430456 kJ/mol
# GULP energy per Si atom -5588.178624 kJ/mol
# Density = 2.187769 g / cm^3
# Si number density = 21.927597 Si / 1000 Ang^3
#
#
#
# Elastic Constant Matrix: (Units=GPa)
#
#
# Indices 1 2 3 4 5 6 
#
# 1 77.1994 3.2973 13.2994 0.0004 1.5903 0.0000
# 2 3.2973 77.1994 13.2994 -0.0004 -1.5903 0.0000
# 3 13.2994 13.2994 116.1730 0.0000 0.0000 0.0000
# 4 0.0004 -0.0004 0.0000 20.3368 0.0000 -1.5903
# 5 1.5903 -1.5903 0.0000 0.0000 20.3368 0.0004
# 6 0.0000 0.0000 0.0000 -1.5903 0.0004 36.9511
#
#
#
# Elastic Compliance Matrix: (Units=1/GPa)
#
#
# Indices 1 2 3 4 5 6 
#
# 1 0.013244 -0.000333 -0.001478 0.000000 -0.001062 0.000000
# 2 -0.000333 0.013244 -0.001478 0.000000 0.001062 0.000000
# 3 -0.001478 -0.001478 0.008946 0.000000 0.000000 0.000000
# 4 0.000000 0.000000 0.000000 0.049338 0.000000 0.002123
# 5 -0.001062 0.001062 0.000000 0.000000 0.049338 0.000000
# 6 0.000000 0.000000 0.000000 0.002123 0.000000 0.027154
#
#
# Mechanical properties :
#
#
# Convention : Reuss Voigt Hill
#
# Bulk Modulus (GPa) = 34.65422 36.70712 35.68067
# Shear Modulus (GPa) = 28.17508 31.56998 29.87253
#
# Velocity S-wave (km/s) = 3.58846 3.79850 3.69497
# Velocity P-wave (km/s) = 5.74523 6.00122 5.87462
#
# Compressibility (1/GPa) = 0.02885652
#
# Stress axis : x y z
#
# Youngs Moduli (GPa) = 75.50482 75.50482 111.77848
#
# Poissons Ratio (x) = 0.02514 0.16522
# Poissons Ratio (y) = 0.02514 0.16522
# Poissons Ratio (z) = 0.11160 0.11160
#
# Static dielectric constant tensor:
#      x y z
#    x 1.797050 0.000000 0.000000 
#    y 0.000000 1.797050 0.000000 
#    z 0.000000 0.000000 1.801580 
# 
# From -- ./inp_files/2961.got.cif
#   From: 2010.05.17/outbox.cif.g08.bks.cpg/sg151_2_cif.got.tgz:2961.got - 2010.05.20 10:33:20.
