data_PCOD9575240
_publ_section_title
;
Structure prediction by ZEFSAII (Michael W. Deem and Ramdas Pophale) SiO2 
 PCOD9575240
Probable space group: R -3
;
_chemical_formula_sum "Si O2"
_cell_formula_units_Z 66
_cell_length_a 12.220851
_cell_length_b 12.220851
_cell_length_c 28.326333
_cell_angle_alpha 90.000000
_cell_angle_beta 90.000000
_cell_angle_gamma 120.000000
_cell_volume 3663.733590
_symmetry_space_group_name_H-M "R -3"
_symmetry_group_IT_number 148
_symmetry_cell_setting 'hexagonal'
loop_
_space_group_symop_operation_xyz
x,y,z
-y,x-y,z
-x+y,-x,z
-x,-y,-z
y,-x+y,-z
x-y,x,-z
2/3+x,1/3+y,1/3+z
2/3-y,1/3+x-y,1/3+z
2/3-x+y,1/3-x,1/3+z
2/3-x,1/3-y,1/3-z
2/3+y,1/3-x+y,1/3-z
2/3+x-y,1/3+x,1/3-z
1/3+x,2/3+y,2/3+z
1/3-y,2/3+x-y,2/3+z
1/3-x+y,2/3-x,2/3+z
1/3-x,2/3-y,2/3-z
1/3+y,2/3-x+y,2/3-z
1/3+x-y,2/3+x,2/3-z
loop_
_atom_site_type_symbol
_atom_site_label
_atom_site_fract_x
_atom_site_fract_y
_atom_site_fract_z
Si Si1 0.067665 0.908229 0.876429
Si Si2 0.666667 0.333333 0.737949
Si Si3 0.171288 0.744160 0.198527
Si Si4 0.666667 0.333334 0.626135
Si Si5 0.561499 0.832367 0.894757
O O1 0.123268 0.831437 0.901800
O O2 0.083787 0.898984 0.820207
O O3 0.921631 0.863394 0.887178
O O4 0.761400 0.290727 0.760005
O O5 0.666668 0.333334 0.682045
O O6 0.285549 0.852045 0.167697
O O7 0.070989 0.780312 0.217396
O O8 0.805030 0.420100 0.603771
#
# Coordination Sequence:
#
# PCOD9575240 Si02
#       5
#    18   6  18   6  18
#     4   9  18  33  51  85 118 142 188 247 293 331
#     4   9  22  43  51  81 126 153 210 223 286 369
#     4   9  19  35  60  84 110 153 197 251 285 331
#     4  12  24  37  55  90 126 159 190 232 300 363
#     4  11  19  32  56  87 116 151 190 240 299 341
#
# _framework density 18.014409000000001
#
# number of rings (size 3 to 8) (size 9 to 14) (size 15 to 20)
#    0.545    1.636    2.727    2.727    3.818    1.091 
#    0.000    0.000    0.000    0.000    0.000    1.909 
#    0.000    0.000    0.000    0.000    0.000    0.000 
#
# Total GULP energy -122740.261026 kJ/mol
# GULP energy per Si atom -5579.102774 kJ/mol
# Density = 1.797341 g / cm^3
# Si number density = 18.014409 Si / 1000 Ang^3
#
#
#
# Elastic Constant Matrix: (Units=GPa)
#
#
# Indices 1 2 3 4 5 6 
#
# 1 93.8950 39.6717 43.0509 -1.0787 -2.4745 0.0000
# 2 39.6717 93.8937 43.0507 1.0786 2.4744 0.0003
# 3 43.0509 43.0507 113.7792 -0.0001 -0.0003 0.0000
# 4 -1.0787 1.0786 -0.0001 7.7478 0.0000 2.4744
# 5 -2.4745 2.4744 -0.0003 0.0000 7.7479 -1.0787
# 6 0.0000 0.0003 0.0000 2.4744 -1.0787 27.1116
#
#
#
# Elastic Compliance Matrix: (Units=1/GPa)
#
#
# Indices 1 2 3 4 5 6 
#
# 1 0.014504 -0.004601 -0.003747 0.002660 0.006101 0.000000
# 2 -0.004601 0.014504 -0.003747 -0.002660 -0.006102 0.000000
# 3 -0.003747 -0.003747 0.011624 0.000000 0.000000 0.000000
# 4 0.002660 -0.002660 0.000000 0.133706 -0.000001 -0.012203
# 5 0.006101 -0.006102 0.000000 -0.000001 0.133706 0.005320
# 6 0.000000 0.000000 0.000000 -0.012203 0.005320 0.038210
#
#
# Mechanical properties :
#
#
# Convention : Reuss Voigt Hill
#
# Bulk Modulus (GPa) = 60.82057 61.45719 61.13888
# Shear Modulus (GPa) = 13.30056 20.24109 16.77082
#
# Velocity S-wave (km/s) = 2.72017 3.35566 3.05449
# Velocity P-wave (km/s) = 6.61069 7.01453 6.81560
#
# Compressibility (1/GPa) = 0.01644181
#
# Stress axis : x y z
#
# Youngs Moduli (GPa) = 68.94851 68.94737 86.02702
#
# Poissons Ratio (x) = 0.31726 0.32231
# Poissons Ratio (y) = 0.31727 0.32232
# Poissons Ratio (z) = 0.25833 0.25833
#
# Static dielectric constant tensor:
#      x y z
#    x 1.650240 0.000000 0.000000 
#    y 0.000000 1.650240 0.000000 
#    z 0.000000 0.000000 1.556380 
# 
# From -- ./inp_files/3908.got.cif
#   From: 2010.05.17/outbox.cif.g08.bks.cpg/sg148_2_cif.got.tgz:3908.got - 2010.05.20 13:50:20.
