data_PCOD9575272
_publ_section_title
;
Structure prediction by ZEFSAII (Michael W. Deem and Ramdas Pophale) SiO2 
 PCOD9575272
Probable space group: R -3
;
_chemical_formula_sum "Si O2"
_cell_formula_units_Z 108
_cell_length_a 16.546172
_cell_length_b 16.546172
_cell_length_c 21.973362
_cell_angle_alpha 90.000000
_cell_angle_beta 90.000000
_cell_angle_gamma 120.000000
_cell_volume 5209.813915
_symmetry_space_group_name_H-M "R -3"
_symmetry_group_IT_number 148
_symmetry_cell_setting 'hexagonal'
loop_
_space_group_symop_operation_xyz
x,y,z
-y,x-y,z
-x+y,-x,z
-x,-y,-z
y,-x+y,-z
x-y,x,-z
2/3+x,1/3+y,1/3+z
2/3-y,1/3+x-y,1/3+z
2/3-x+y,1/3-x,1/3+z
2/3-x,1/3-y,1/3-z
2/3+y,1/3-x+y,1/3-z
2/3+x-y,1/3+x,1/3-z
1/3+x,2/3+y,2/3+z
1/3-y,2/3+x-y,2/3+z
1/3-x+y,2/3-x,2/3+z
1/3-x,2/3-y,2/3-z
1/3+y,2/3-x+y,2/3-z
1/3+x-y,2/3+x,2/3-z
loop_
_atom_site_type_symbol
_atom_site_label
_atom_site_fract_x
_atom_site_fract_y
_atom_site_fract_z
Si Si1 0.459627 0.210382 0.356303
Si Si2 0.552815 0.609242 0.937240
Si Si3 0.121899 0.235153 0.669088
Si Si4 0.949366 0.366313 0.052375
Si Si5 0.430889 0.863620 0.199002
Si Si6 0.045364 0.433621 0.801088
O O1 0.505034 0.321450 0.348491
O O2 0.348666 0.159622 0.338712
O O3 0.460191 0.175589 0.425253
O O4 0.525732 0.675416 0.973965
O O5 0.466997 0.504259 0.934242
O O6 0.583658 0.648460 0.869653
O O7 0.630769 0.609971 0.981403
O O8 0.079128 0.187191 0.604337
O O9 0.045316 0.220745 0.718507
O O10 0.008424 0.337250 0.095582
O O11 0.488633 0.816198 0.174462
O O12 0.501794 0.972821 0.191606
#
# Coordination Sequence:
#
# PCOD9575272 Si02
#       6
#    18  18  18  18  18  18
#     4  11  22  43  68  96 126 169 229 292 345 394
#     4  11  24  42  66  98 132 177 222 275 339 398
#     4  11  23  42  65  97 136 176 219 280 344 406
#     4  11  23  45  67  96 138 176 223 281 333 408
#     4  11  23  38  62 101 133 177 223 268 333 415
#     4  11  23  42  69  97 123 183 226 277 336 412
#
# _framework density 20.730108000000001
#
# number of rings (size 3 to 8) (size 9 to 14) (size 15 to 20)
#    0.000    1.000    5.000    2.333    4.667    4.667 
#    4.000    0.000    0.000    0.000    0.000    0.000 
#    0.000    0.000    0.000    0.000    0.000    0.000 
#
# Total GULP energy -200921.568187 kJ/mol
# GULP energy per Si atom -5581.154672 kJ/mol
# Density = 2.068292 g / cm^3
# Si number density = 20.730108 Si / 1000 Ang^3
#
#
#
# Elastic Constant Matrix: (Units=GPa)
#
#
# Indices 1 2 3 4 5 6 
#
# 1 63.1737 14.7049 37.1089 6.3636 2.1398 0.0000
# 2 14.7049 63.1737 37.1089 -6.3636 -2.1398 0.0000
# 3 37.1089 37.1089 124.6247 0.0000 0.0000 0.0000
# 4 6.3636 -6.3636 0.0000 19.7019 0.0000 -2.1398
# 5 2.1398 -2.1398 0.0000 0.0000 19.7019 6.3636
# 6 0.0000 0.0000 0.0000 -2.1398 6.3636 24.2344
#
#
#
# Elastic Compliance Matrix: (Units=1/GPa)
#
#
# Indices 1 2 3 4 5 6 
#
# 1 0.020355 -0.002427 -0.005338 -0.007359 -0.002474 0.000000
# 2 -0.002427 0.020355 -0.005338 0.007359 0.002474 0.000000
# 3 -0.005338 -0.005338 0.011203 0.000000 0.000000 0.000000
# 4 -0.007359 0.007359 0.000000 0.056048 0.000000 0.004949
# 5 -0.002474 0.002474 0.000000 0.000000 0.056048 -0.014717
# 6 0.000000 0.000000 0.000000 0.004949 -0.014717 0.045565
#
#
# Mechanical properties :
#
#
# Convention : Reuss Voigt Hill
#
# Bulk Modulus (GPa) = 38.90178 47.64639 43.27408
# Shear Modulus (GPa) = 20.46242 23.53093 21.99668
#
# Velocity S-wave (km/s) = 3.14520 3.37279 3.26098
# Velocity P-wave (km/s) = 5.65653 6.18075 5.92444
#
# Compressibility (1/GPa) = 0.02570576
#
# Stress axis : x y z
#
# Youngs Moduli (GPa) = 49.12745 49.12745 89.26011
#
# Poissons Ratio (x) = 0.11925 0.47650
# Poissons Ratio (y) = 0.11925 0.47650
# Poissons Ratio (z) = 0.26226 0.26226
#
# Static dielectric constant tensor:
#      x y z
#    x 1.757980 0.000000 0.000000 
#    y 0.000000 1.757980 0.000000 
#    z 0.000000 0.000000 1.795340 
# 
# From -- ./inp_files/3123.got.cif
#   From: 2010.05.17/outbox.cif.g08.bks.cpg/sg148_2_cif.got.tgz:3123.got - 2010.05.20 13:50:20.
