data_PCOD9575988
_publ_section_title
;
Structure prediction by ZEFSAII (Michael W. Deem and Ramdas Pophale) SiO2 
 PCOD9575988
Probable space group: P 31 2 1
;
_chemical_formula_sum "Si O2"
_cell_formula_units_Z 42
_cell_length_a 11.666170
_cell_length_b 11.666170
_cell_length_c 17.630818
_cell_angle_alpha 90.000000
_cell_angle_beta 90.000000
_cell_angle_gamma 120.000000
_cell_volume 2078.067716
_symmetry_space_group_name_H-M "P 31 2 1"
_symmetry_group_IT_number 152
_symmetry_cell_setting 'hexagonal'
loop_
_space_group_symop_operation_xyz
x,y,z
-y,x-y,1/3+z
-x+y,-x,2/3+z
x-y,-y,2/3-z
-x,-x+y,1/3-z
y,x,-z
loop_
_atom_site_type_symbol
_atom_site_label
_atom_site_fract_x
_atom_site_fract_y
_atom_site_fract_z
Si Si1 0.583076 0.583076 0.500000
Si Si2 0.629116 0.560086 0.160592
Si Si3 0.586170 0.586170 0.000000
Si Si4 0.309832 0.095026 0.053390
Si Si5 0.215757 0.687591 0.713953
Si Si6 0.317855 0.145942 0.715403
Si Si7 0.198386 0.688571 0.088822
Si Si8 0.673121 0.004814 0.491968
O O1 0.705380 0.620480 0.442299
O O2 0.454670 0.539644 0.447996
O O3 0.640293 0.659244 0.226043
O O4 0.754571 0.541943 0.173800
O O5 0.491525 0.419416 0.169245
O O6 0.642608 0.637477 0.082250
O O7 0.565957 0.440375 0.001715
O O8 0.289786 0.200907 0.103147
O O9 0.433422 0.185331 0.000677
O O10 0.193655 0.983092 0.999988
O O11 0.343998 0.683003 0.737147
O O12 0.127808 0.691197 0.782515
O O13 0.419421 0.243698 0.651251
O O14 0.281575 0.238480 0.766961
#
# Coordination Sequence:
#
# PCOD9575988 Si02
#       8
#     3   6   3   6   6   6   6   6
#     4  12  24  44  68 100 140 174 228 278 336 416
#     4  10  24  39  61  97 135 178 218 274 340 402
#     4  10  22  34  56  96 128 172 214 272 330 390
#     4  11  21  40  63  95 134 166 228 274 321 407
#     4  11  19  37  63  94 130 166 219 268 329 392
#     4  11  24  42  68 101 134 178 226 279 344 395
#     4  11  25  40  66  99 138 178 218 282 339 406
#     4  11  22  38  67 100 132 175 222 280 332 402
#
# _framework density 20.211085000000001
#
# number of rings (size 3 to 8) (size 9 to 14) (size 15 to 20)
#    0.000    1.143    5.714    0.857    8.000    0.000 
#    2.571    0.000    0.000   20.571    0.000    0.000 
#    0.000    0.000    0.000    0.000    0.000    0.000 
#
# Total GULP energy -233900.403744 kJ/mol
# GULP energy per Si atom -5569.057232 kJ/mol
# Density = 2.016508 g / cm^3
# Si number density = 20.211085 Si / 1000 Ang^3
#
#
#
# Elastic Constant Matrix: (Units=GPa)
#
#
# Indices 1 2 3 4 5 6 
#
# 1 39.6486 8.5299 30.7303 -1.8368 0.0000 0.0000
# 2 8.5299 39.6486 30.7303 1.8368 0.0000 0.0000
# 3 30.7303 30.7303 100.7981 0.0000 0.0000 0.0000
# 4 -1.8368 1.8368 0.0000 39.2540 0.0000 0.0000
# 5 0.0000 0.0000 0.0000 0.0000 39.2540 -1.8368
# 6 0.0000 0.0000 0.0000 0.0000 -1.8368 15.5593
#
#
#
# Elastic Compliance Matrix: (Units=1/GPa)
#
#
# Indices 1 2 3 4 5 6 
#
# 1 0.033140 0.000826 -0.010355 0.001512 0.000000 0.000000
# 2 0.000826 0.033140 -0.010355 -0.001512 0.000000 0.000000
# 3 -0.010355 -0.010355 0.016235 0.000000 0.000000 0.000000
# 4 0.001512 -0.001512 0.000000 0.025617 0.000000 0.000000
# 5 0.000000 0.000000 0.000000 0.000000 0.025617 0.003024
# 6 0.000000 0.000000 0.000000 0.000000 0.003024 0.064627
#
#
# Mechanical properties :
#
#
# Convention : Reuss Voigt Hill
#
# Bulk Modulus (GPa) = 23.39389 35.56402 29.47895
# Shear Modulus (GPa) = 19.81044 26.15380 22.98212
#
# Velocity S-wave (km/s) = 3.13417 3.60117 3.37576
# Velocity P-wave (km/s) = 4.96964 5.90980 5.45999
#
# Compressibility (1/GPa) = 0.04274620
#
# Stress axis : x y z
#
# Youngs Moduli (GPa) = 30.17511 30.17511 61.59594
#
# Poissons Ratio (x) = -0.02493 0.63784
# Poissons Ratio (y) = -0.02493 0.63784
# Poissons Ratio (z) = 0.31247 0.31247
#
# Static dielectric constant tensor:
#      x y z
#    x 1.742340 0.000000 0.000000 
#    y 0.000000 1.742340 0.000000 
#    z 0.000000 0.000000 1.792110 
# 
# From -- ./inp_files/2482.got.cif
#   From: 2010.05.17/outbox.cif.g08.bks.cpg/sg152_2_cif.got.tgz:2482.got - 2010.05.20 10:36:06.
