data_PCOD9575480
_publ_section_title
;
Structure prediction by ZEFSAII (Michael W. Deem and Ramdas Pophale) SiO2 
 PCOD9575480
Probable space group: P 3 2 1
;
_chemical_formula_sum "Si O2"
_cell_formula_units_Z 20
_cell_length_a 11.430939
_cell_length_b 11.430939
_cell_length_c 7.495666
_cell_angle_alpha 90.000000
_cell_angle_beta 90.000000
_cell_angle_gamma 120.000000
_cell_volume 848.212508
_symmetry_space_group_name_H-M "P 3 2 1"
_symmetry_group_IT_number 150
_symmetry_cell_setting 'hexagonal'
loop_
_space_group_symop_operation_xyz
x,y,z
-y,x-y,z
-x+y,-x,z
x-y,-y,-z
-x,-x+y,-z
y,x,-z
loop_
_atom_site_type_symbol
_atom_site_label
_atom_site_fract_x
_atom_site_fract_y
_atom_site_fract_z
Si Si1 0.000000 0.000000 0.716664
Si Si2 0.387245 0.946635 0.312211
Si Si3 0.845223 0.695680 0.170497
Si Si4 0.112318 0.718871 0.219782
O O1 0.852967 0.896675 0.793109
O O2 0.000000 0.000000 0.500000
O O3 0.382540 0.072259 0.224679
O O4 0.459857 0.000000 0.500000
O O5 0.234006 0.825350 0.341837
O O6 0.467862 0.889410 0.202977
O O7 0.960847 0.680422 0.273618
O O8 0.856957 0.653632 0.969568
#
# Coordination Sequence:
#
# PCOD9575480 Si02
#       4
#     2   6   6   6
#     4  12  24  46  86 124 154 188 265 348 397 449
#     4  12  28  50  79 112 161 203 261 329 393 462
#     4  11  26  47  81 110 151 202 259 325 389 467
#     4  11  28  48  75 111 157 203 265 313 389 475
#
# _framework density 23.578996
#
# number of rings (size 3 to 8) (size 9 to 14) (size 15 to 20)
#    0.000    0.600    3.000    2.400   16.800    0.000 
#    1.800    0.000    0.000    0.000    0.000    0.000 
#    0.000    0.000    0.000    0.000    0.000    0.000 
#
# Total GULP energy -111909.994992 kJ/mol
# GULP energy per Si atom -5595.499750 kJ/mol
# Density = 2.352533 g / cm^3
# Si number density = 23.578996 Si / 1000 Ang^3
#
#
#
# Elastic Constant Matrix: (Units=GPa)
#
#
# Indices 1 2 3 4 5 6 
#
# 1 130.4968 33.3642 39.3922 -8.6598 0.0000 0.0000
# 2 33.3642 130.4968 39.3922 8.6598 0.0000 0.0000
# 3 39.3922 39.3922 106.6508 0.0000 0.0000 0.0000
# 4 -8.6598 8.6598 0.0000 28.1476 0.0000 0.0000
# 5 0.0000 0.0000 0.0000 0.0000 28.1476 -8.6598
# 6 0.0000 0.0000 0.0000 0.0000 -8.6598 48.5663
#
#
#
# Elastic Compliance Matrix: (Units=1/GPa)
#
#
# Indices 1 2 3 4 5 6 
#
# 1 0.009157 -0.001736 -0.002741 0.003351 0.000000 0.000000
# 2 -0.001736 0.009157 -0.002741 -0.003351 0.000000 0.000000
# 3 -0.002741 -0.002741 0.011401 0.000000 0.000000 0.000000
# 4 0.003351 -0.003351 0.000000 0.037589 0.000000 0.000000
# 5 0.000000 0.000000 0.000000 0.000000 0.037589 0.006702
# 6 0.000000 0.000000 0.000000 0.000000 0.006702 0.021786
#
#
# Mechanical properties :
#
#
# Convention : Reuss Voigt Hill
#
# Bulk Modulus (GPa) = 65.45000 65.77128 65.61064
# Shear Modulus (GPa) = 34.19822 38.00537 36.10179
#
# Velocity S-wave (km/s) = 3.81250 4.01912 3.91717
# Velocity P-wave (km/s) = 6.87010 7.03508 6.95308
#
# Compressibility (1/GPa) = 0.01527884
#
# Stress axis : x y z
#
# Youngs Moduli (GPa) = 109.21041 109.21041 87.71108
#
# Poissons Ratio (x) = 0.18960 0.24040
# Poissons Ratio (y) = 0.18960 0.24040
# Poissons Ratio (z) = 0.29933 0.29933
#
# Static dielectric constant tensor:
#      x y z
#    x 1.899640 0.000000 0.000000 
#    y 0.000000 1.899640 0.000000 
#    z 0.000000 0.000000 1.923820 
# 
# From -- ./inp_files/455.got.cif
#   From: 2010.05.17/outbox.cif.g08.bks.cpg/sg150_cif.got.tgz:455.got - 2010.05.20 13:53:18.
