data_PCOD9575011
_publ_section_title
;
Structure prediction by ZEFSAII (Michael W. Deem and Ramdas Pophale) SiO2 
 PCOD9575011
Probable space group: R -3
;
_chemical_formula_sum "Si O2"
_cell_formula_units_Z 108
_cell_length_a 15.592549
_cell_length_b 15.592549
_cell_length_c 20.478650
_cell_angle_alpha 90.000000
_cell_angle_beta 90.000000
_cell_angle_gamma 120.000000
_cell_volume 4311.875278
_symmetry_space_group_name_H-M "R -3"
_symmetry_group_IT_number 148
_symmetry_cell_setting 'hexagonal'
loop_
_space_group_symop_operation_xyz
x,y,z
-y,x-y,z
-x+y,-x,z
-x,-y,-z
y,-x+y,-z
x-y,x,-z
2/3+x,1/3+y,1/3+z
2/3-y,1/3+x-y,1/3+z
2/3-x+y,1/3-x,1/3+z
2/3-x,1/3-y,1/3-z
2/3+y,1/3-x+y,1/3-z
2/3+x-y,1/3+x,1/3-z
1/3+x,2/3+y,2/3+z
1/3-y,2/3+x-y,2/3+z
1/3-x+y,2/3-x,2/3+z
1/3-x,2/3-y,2/3-z
1/3+y,2/3-x+y,2/3-z
1/3+x-y,2/3+x,2/3-z
loop_
_atom_site_type_symbol
_atom_site_label
_atom_site_fract_x
_atom_site_fract_y
_atom_site_fract_z
Si Si1 0.157682 0.948325 0.364455
Si Si2 0.397366 0.488840 0.566368
Si Si3 0.021465 0.490983 0.692155
Si Si4 0.033419 0.189111 0.221460
Si Si5 0.366505 0.278474 0.546353
Si Si6 0.585416 0.668900 0.241554
O O1 0.121693 0.966919 0.294723
O O2 0.228916 0.900988 0.382246
O O3 0.059094 0.865255 0.402666
O O4 0.248505 0.061120 0.376459
O O5 0.484246 0.545904 0.618070
O O6 0.289778 0.439251 0.601884
O O7 0.383559 0.532487 0.498790
O O8 0.404928 0.392755 0.548223
O O9 0.992508 0.573405 0.711669
O O10 0.138470 0.217574 0.190950
O O11 0.046579 0.298158 0.234661
O O12 0.273205 0.225167 0.496990
#
# Coordination Sequence:
#
# PCOD9575011 Si02
#       6
#    18  18  18  18  18  18
#     4  10  21  32  54  82 123 162 204 260 317 382
#     4  10  21  34  62  87 124 168 215 276 314 384
#     4  11  21  39  56  92 124 168 220 265 322 379
#     4  10  18  35  56  87 118 164 208 258 326 378
#     4   9  17  33  57  89 116 163 207 248 326 396
#     4  10  18  33  57  82 119 158 199 255 317 386
#
# _framework density 25.047107
#
# number of rings (size 3 to 8) (size 9 to 14) (size 15 to 20)
#    0.000    2.000    1.667    5.000    2.333    0.667 
#    1.000    0.000    0.000    4.333    0.000    0.000 
#    0.000    0.000    0.000    0.000    0.000    0.000 
#
# Total GULP energy -200445.536064 kJ/mol
# GULP energy per Si atom -5567.931557 kJ/mol
# Density = 2.499010 g / cm^3
# Si number density = 25.047107 Si / 1000 Ang^3
#
#
#
# Elastic Constant Matrix: (Units=GPa)
#
#
# Indices 1 2 3 4 5 6 
#
# 1 74.4198 33.9500 34.2275 -2.2631 -2.6035 0.0000
# 2 33.9500 74.4198 34.2275 2.2631 2.6035 0.0000
# 3 34.2275 34.2275 139.5219 0.0000 0.0000 0.0000
# 4 -2.2631 2.2631 0.0000 26.5945 0.0000 2.6035
# 5 -2.6035 2.6035 0.0000 0.0000 26.5945 -2.2631
# 6 0.0000 0.0000 0.0000 2.6035 -2.2631 20.2349
#
#
#
# Elastic Compliance Matrix: (Units=1/GPa)
#
#
# Indices 1 2 3 4 5 6 
#
# 1 0.018094 -0.007174 -0.002679 0.002150 0.002474 0.000000
# 2 -0.007174 0.018094 -0.002679 -0.002150 -0.002474 0.000000
# 3 -0.002679 -0.002679 0.008482 0.000000 0.000000 0.000000
# 4 0.002150 -0.002150 0.000000 0.038452 0.000000 -0.004947
# 5 0.002474 -0.002474 0.000000 0.000000 0.038452 0.004300
# 6 0.000000 0.000000 0.000000 -0.004947 0.004300 0.050537
#
#
# Mechanical properties :
#
#
# Convention : Reuss Voigt Hill
#
# Bulk Modulus (GPa) = 51.00496 54.79685 52.90090
# Shear Modulus (GPa) = 24.54462 27.08189 25.81325
#
# Velocity S-wave (km/s) = 3.13379 3.29179 3.21376
# Velocity P-wave (km/s) = 5.78809 6.03099 5.91079
#
# Compressibility (1/GPa) = 0.01960594
#
# Stress axis : x y z
#
# Youngs Moduli (GPa) = 55.26636 55.26636 117.90110
#
# Poissons Ratio (x) = 0.39650 0.31584
# Poissons Ratio (y) = 0.39650 0.31584
# Poissons Ratio (z) = 0.14805 0.14805
#
# Static dielectric constant tensor:
#      x y z
#    x 2.018310 0.000000 0.000000 
#    y 0.000000 2.018310 0.000000 
#    z 0.000000 0.000000 2.233900 
# 
# From -- ./inp_files/3115.got.cif
#   From: 2010.05.17/outbox.cif.g08.bks.cpg/sg148_2_cif.got.tgz:3115.got - 2010.05.20 13:50:20.
