data_PCOD9575144
_publ_section_title
;
Structure prediction by ZEFSAII (Michael W. Deem and Ramdas Pophale) SiO2 
 PCOD9575144
Probable space group: R -3
;
_chemical_formula_sum "Si O2"
_cell_formula_units_Z 108
_cell_length_a 23.769642
_cell_length_b 23.769642
_cell_length_c 10.044572
_cell_angle_alpha 90.000000
_cell_angle_beta 90.000000
_cell_angle_gamma 120.000000
_cell_volume 4914.816973
_symmetry_space_group_name_H-M "R -3"
_symmetry_group_IT_number 148
_symmetry_cell_setting 'hexagonal'
loop_
_space_group_symop_operation_xyz
x,y,z
-y,x-y,z
-x+y,-x,z
-x,-y,-z
y,-x+y,-z
x-y,x,-z
2/3+x,1/3+y,1/3+z
2/3-y,1/3+x-y,1/3+z
2/3-x+y,1/3-x,1/3+z
2/3-x,1/3-y,1/3-z
2/3+y,1/3-x+y,1/3-z
2/3+x-y,1/3+x,1/3-z
1/3+x,2/3+y,2/3+z
1/3-y,2/3+x-y,2/3+z
1/3-x+y,2/3-x,2/3+z
1/3-x,2/3-y,2/3-z
1/3+y,2/3-x+y,2/3-z
1/3+x-y,2/3+x,2/3-z
loop_
_atom_site_type_symbol
_atom_site_label
_atom_site_fract_x
_atom_site_fract_y
_atom_site_fract_z
Si Si1 0.619424 0.594274 0.389770
Si Si2 0.561929 0.921566 0.897481
Si Si3 0.225823 0.130656 0.817728
Si Si4 0.100742 0.355076 0.149505
Si Si5 0.944650 0.858221 0.055592
Si Si6 0.619263 0.493203 0.595208
O O1 0.612613 0.577398 0.234978
O O2 0.569776 0.617973 0.436654
O O3 0.695002 0.650660 0.416694
O O4 0.609568 0.533779 0.476697
O O5 0.484563 0.876897 0.889042
O O6 0.425892 0.045167 0.959829
O O7 0.190186 0.159579 0.728381
O O8 0.302176 0.180313 0.818324
O O9 0.204430 0.133485 0.968540
O O10 0.152753 0.414020 0.058518
O O11 0.912539 0.836341 0.201096
O O12 0.907827 0.888616 0.972794
#
# Coordination Sequence:
#
# PCOD9575144 Si02
#       6
#    18  18  18  18  18  18
#     4  11  20  34  59  85 119 168 206 242 306 371
#     4  12  21  38  57  88 125 175 206 248 311 368
#     4  10  23  38  59  88 128 158 207 262 304 370
#     4  11  22  37  59  87 126 165 205 252 308 369
#     4  10  21  40  64  89 121 156 204 264 322 374
#     4  10  21  41  61  90 121 157 207 263 305 373
#
# _framework density 21.974367999999998
#
# number of rings (size 3 to 8) (size 9 to 14) (size 15 to 20)
#    0.000    1.333    5.000    1.667    0.000    0.667 
#    3.000    0.000    0.000    0.000    0.000    0.000 
#    0.000    6.667    0.000    0.000    0.000    0.000 
#
# Total GULP energy -200831.945616 kJ/mol
# GULP energy per Si atom -5578.665156 kJ/mol
# Density = 2.192435 g / cm^3
# Si number density = 21.974368 Si / 1000 Ang^3
#
#
#
# Elastic Constant Matrix: (Units=GPa)
#
#
# Indices 1 2 3 4 5 6 
#
# 1 49.4201 25.3417 11.5321 -3.6439 -0.5588 0.0001
# 2 25.3417 49.4201 11.5309 3.6439 0.5592 0.0001
# 3 11.5321 11.5309 107.1055 0.0001 0.0026 0.0004
# 4 -3.6439 3.6439 0.0001 14.9170 -0.0003 0.5592
# 5 -0.5588 0.5592 0.0026 -0.0003 14.9185 -3.6436
# 6 0.0001 0.0001 0.0004 0.5592 -3.6436 12.0391
#
#
#
# Elastic Compliance Matrix: (Units=1/GPa)
#
#
# Indices 1 2 3 4 5 6 
#
# 1 0.029383 -0.015548 -0.001490 0.010976 0.001684 0.000000
# 2 -0.015548 0.029383 -0.001489 -0.010976 -0.001684 0.000000
# 3 -0.001490 -0.001489 0.009657 0.000000 -0.000002 -0.000001
# 4 0.010976 -0.010976 0.000000 0.072526 0.000001 -0.003369
# 5 0.001684 -0.001684 -0.000002 0.000001 0.072517 0.021947
# 6 0.000000 0.000000 -0.000001 -0.003369 0.021947 0.089861
#
#
# Mechanical properties :
#
#
# Convention : Reuss Voigt Hill
#
# Bulk Modulus (GPa) = 31.87790 33.63945 32.75867
# Shear Modulus (GPa) = 14.25153 18.87766 16.56459
#
# Velocity S-wave (km/s) = 2.54943 2.93418 2.74855
# Velocity P-wave (km/s) = 4.81710 5.17889 5.00127
#
# Compressibility (1/GPa) = 0.03136970
#
# Stress axis : x y z
#
# Youngs Moduli (GPa) = 34.03289 34.03305 103.54823
#
# Poissons Ratio (x) = 0.52914 0.15427
# Poissons Ratio (y) = 0.52914 0.15421
# Poissons Ratio (z) = 0.05070 0.05068
#
# Static dielectric constant tensor:
#      x y z
#    x 1.882500 0.000000 0.000000 
#    y 0.000000 1.882500 0.000000 
#    z 0.000000 0.000000 1.795730 
# 
# From -- ./inp_files/2192.got.cif
#   From: 2010.05.17/outbox.cif.g08.bks.cpg/sg148_2_cif.got.tgz:2192.got - 2010.05.20 13:50:20.
