data_PCOD9575197
_publ_section_title
;
Structure prediction by ZEFSAII (Michael W. Deem and Ramdas Pophale) SiO2 
 PCOD9575197
Probable space group: R -3
;
_chemical_formula_sum "Si O2"
_cell_formula_units_Z 72
_cell_length_a 15.148025
_cell_length_b 15.148025
_cell_length_c 15.487881
_cell_angle_alpha 90.000000
_cell_angle_beta 90.000000
_cell_angle_gamma 120.000000
_cell_volume 3077.759363
_symmetry_space_group_name_H-M "R -3"
_symmetry_group_IT_number 148
_symmetry_cell_setting 'hexagonal'
loop_
_space_group_symop_operation_xyz
x,y,z
-y,x-y,z
-x+y,-x,z
-x,-y,-z
y,-x+y,-z
x-y,x,-z
2/3+x,1/3+y,1/3+z
2/3-y,1/3+x-y,1/3+z
2/3-x+y,1/3-x,1/3+z
2/3-x,1/3-y,1/3-z
2/3+y,1/3-x+y,1/3-z
2/3+x-y,1/3+x,1/3-z
1/3+x,2/3+y,2/3+z
1/3-y,2/3+x-y,2/3+z
1/3-x+y,2/3-x,2/3+z
1/3-x,2/3-y,2/3-z
1/3+y,2/3-x+y,2/3-z
1/3+x-y,2/3+x,2/3-z
loop_
_atom_site_type_symbol
_atom_site_label
_atom_site_fract_x
_atom_site_fract_y
_atom_site_fract_z
Si Si1 0.073946 0.630360 0.872156
Si Si2 0.187894 0.735431 0.696029
Si Si3 0.304449 0.538292 0.023165
Si Si4 0.036370 0.566204 0.218928
O O1 0.134635 0.691128 0.786587
O O2 0.150608 0.678998 0.951533
O O3 0.036179 0.511501 0.854269
O O4 0.968651 0.630937 0.879669
O O5 0.308323 0.808126 0.699883
O O6 0.141968 0.794851 0.646075
O O7 0.413249 0.643282 0.016488
O O8 0.250835 0.469129 0.107545
#
# Coordination Sequence:
#
# PCOD9575197 Si02
#       4
#    18  18  18  18
#     4  11  25  43  74 102 141 191 235 299 360 420
#     4  10  23  40  67 104 144 181 236 298 355 426
#     4  10  27  47  71 102 145 188 241 290 358 425
#     4  11  26  44  70 107 142 189 241 294 355 431
#
# _framework density 23.393643000000001
#
# number of rings (size 3 to 8) (size 9 to 14) (size 15 to 20)
#    0.500    1.000    0.000    3.250   14.000    3.000 
#    0.000    1.250    0.000    0.000    0.000    0.000 
#    0.000    0.000    0.000    0.000    0.000    0.000 
#
# Total GULP energy -133734.537946 kJ/mol
# GULP energy per Si atom -5572.272414 kJ/mol
# Density = 2.334040 g / cm^3
# Si number density = 23.393643 Si / 1000 Ang^3
#
#
#
# Elastic Constant Matrix: (Units=GPa)
#
#
# Indices 1 2 3 4 5 6 
#
# 1 244.2177 -59.6961 57.8411 110.0261 -44.4130 0.0000
# 2 -59.6961 244.2177 57.8411 -110.0261 44.4130 0.0000
# 3 57.8411 57.8411 65.2472 0.0000 0.0000 0.0000
# 4 110.0261 -110.0261 0.0000 144.3402 0.0000 44.4130
# 5 -44.4130 44.4130 0.0000 0.0000 144.3402 110.0261
# 6 0.0000 0.0000 0.0000 44.4130 110.0261 151.9569
#
#
#
# Elastic Compliance Matrix: (Units=1/GPa)
#
#
# Indices 1 2 3 4 5 6 
#
# 1 0.010694 0.001506 -0.010815 -0.007003 0.002827 0.000000
# 2 0.001506 0.010694 -0.010815 0.007003 -0.002827 0.000000
# 3 -0.010815 -0.010815 0.034501 0.000000 0.000000 0.000000
# 4 -0.007003 0.007003 0.000000 0.019345 0.000000 -0.005654
# 5 0.002827 -0.002827 0.000000 0.000000 0.019345 -0.014007
# 6 0.000000 0.000000 0.000000 -0.005654 -0.014007 0.018375
#
#
# Mechanical properties :
#
#
# Convention : Reuss Voigt Hill
#
# Bulk Modulus (GPa) = 63.93582 73.96164 68.94873
# Shear Modulus (GPa) = 31.56305 121.30723 76.43514
#
# Velocity S-wave (km/s) = 3.67715 7.20884 5.72227
# Velocity P-wave (km/s) = 6.73931 10.04861 8.55549
#
# Compressibility (1/GPa) = 0.01564069
#
# Stress axis : x y z
#
# Youngs Moduli (GPa) = 93.51437 93.51437 28.98482
#
# Poissons Ratio (x) = -0.14083 0.31347
# Poissons Ratio (y) = -0.14083 0.31347
# Poissons Ratio (z) = 1.01134 1.01134
#
# Static dielectric constant tensor:
#      x y z
#    x 1.921410 0.000000 0.000000 
#    y 0.000000 1.921410 0.000000 
#    z 0.000000 0.000000 1.836300 
# 
# From -- ./inp_files/2538.got.cif
#   From: 2010.05.17/outbox.cif.g08.bks.cpg/sg148_2_cif.got.tgz:2538.got - 2010.05.20 13:50:20.
