data_PCOD9575432
_publ_section_title
;
Structure prediction by ZEFSAII (Michael W. Deem and Ramdas Pophale) SiO2 
 PCOD9575432
Probable space group: P 3 2 1
;
_chemical_formula_sum "Si O2"
_cell_formula_units_Z 32
_cell_length_a 15.383662
_cell_length_b 15.383662
_cell_length_c 7.859598
_cell_angle_alpha 90.000000
_cell_angle_beta 90.000000
_cell_angle_gamma 120.000000
_cell_volume 1610.832650
_symmetry_space_group_name_H-M "P 3 2 1"
_symmetry_group_IT_number 150
_symmetry_cell_setting 'hexagonal'
loop_
_space_group_symop_operation_xyz
x,y,z
-y,x-y,z
-x+y,-x,z
x-y,-y,-z
-x,-x+y,-z
y,x,-z
loop_
_atom_site_type_symbol
_atom_site_label
_atom_site_fract_x
_atom_site_fract_y
_atom_site_fract_z
Si Si1 0.508020 0.000000 0.000000
Si Si2 0.665919 0.596212 0.749507
Si Si3 0.273325 0.273325 0.500000
Si Si4 0.000000 0.000000 0.200670
Si Si5 0.217256 0.063792 0.666997
Si Si6 0.530968 0.863549 0.719524
Si Si7 0.516702 0.667231 0.603111
O O1 0.529655 0.926409 0.883359
O O2 0.478820 0.072605 0.893373
O O3 0.768398 0.697708 0.794459
O O4 0.593424 0.634328 0.674089
O O5 0.694176 0.545055 0.595260
O O6 0.248208 0.174809 0.606521
O O7 0.302513 0.367367 0.620263
O O8 0.092403 0.988039 0.265200
O O9 0.000000 0.000000 0.000000
O O10 0.212965 0.000000 0.500000
O O11 0.524505 0.755867 0.721676
O O12 0.431919 0.840931 0.614453
#
# Coordination Sequence:
#
# PCOD9575432 Si02
#       7
#     3   6   3   2   6   6   6
#     4  10  24  42  64  96 148 168 218 308 358 412
#     4  10  20  41  65  94 124 180 223 274 342 416
#     4  12  22  40  70  98 128 184 238 282 322 434
#     4  12  28  41  61 105 157 173 220 300 355 413
#     4  12  21  42  70  99 133 185 236 275 330 426
#     4  11  22  42  62  99 129 177 229 287 343 408
#     4  10  20  39  69  86 127 174 231 272 329 414
#
# _framework density 19.865503
#
# number of rings (size 3 to 8) (size 9 to 14) (size 15 to 20)
#    0.000    1.125    5.625    2.625    1.312    0.000 
#    8.438    0.000    0.000    0.000    0.000    0.000 
#    0.000    0.000    0.000    0.000    0.000    0.000 
#
# Total GULP energy -178514.292892 kJ/mol
# GULP energy per Si atom -5578.571653 kJ/mol
# Density = 1.982029 g / cm^3
# Si number density = 19.865503 Si / 1000 Ang^3
#
#
#
# Elastic Constant Matrix: (Units=GPa)
#
#
# Indices 1 2 3 4 5 6 
#
# 1 90.2674 11.6322 12.1951 -7.7719 0.0000 0.0000
# 2 11.6322 90.2674 12.1951 7.7719 0.0000 0.0000
# 3 12.1951 12.1951 48.9663 0.0000 0.0000 0.0000
# 4 -7.7719 7.7719 0.0000 24.4410 0.0000 0.0000
# 5 0.0000 0.0000 0.0000 0.0000 24.4410 -7.7719
# 6 0.0000 0.0000 0.0000 0.0000 -7.7719 39.3176
#
#
#
# Elastic Compliance Matrix: (Units=1/GPa)
#
#
# Indices 1 2 3 4 5 6 
#
# 1 0.012003 -0.001567 -0.002599 0.004315 0.000000 0.000000
# 2 -0.001567 0.012003 -0.002599 -0.004315 0.000000 0.000000
# 3 -0.002599 -0.002599 0.021717 0.000000 0.000000 0.000000
# 4 0.004315 -0.004315 0.000000 0.043659 0.000000 0.000000
# 5 0.000000 0.000000 0.000000 0.000000 0.043659 0.008630
# 6 0.000000 0.000000 0.000000 0.000000 0.008630 0.027140
#
#
# Mechanical properties :
#
#
# Convention : Reuss Voigt Hill
#
# Bulk Modulus (GPa) = 31.06357 33.50511 32.28434
# Shear Modulus (GPa) = 27.10886 30.53848 28.82367
#
# Velocity S-wave (km/s) = 3.69808 3.92505 3.81325
# Velocity P-wave (km/s) = 5.82283 6.11914 5.97282
#
# Compressibility (1/GPa) = 0.03219205
#
# Stress axis : x y z
#
# Youngs Moduli (GPa) = 83.31393 83.31393 46.04731
#
# Poissons Ratio (x) = 0.13056 0.11968
# Poissons Ratio (y) = 0.13056 0.11968
# Poissons Ratio (z) = 0.21653 0.21653
#
# Static dielectric constant tensor:
#      x y z
#    x 1.717720 0.000000 0.000000 
#    y 0.000000 1.717720 0.000000 
#    z 0.000000 0.000000 1.736550 
# 
# From -- ./inp_files/671.got.cif
#   From: 2010.05.17/outbox.cif.g08.bks.cpg/sg150_cif.got.tgz:671.got - 2010.05.20 13:53:18.
