data_PCOD9575166
_publ_section_title
;
Structure prediction by ZEFSAII (Michael W. Deem and Ramdas Pophale) SiO2 
 PCOD9575166
Probable space group: R -3
;
_chemical_formula_sum "Si O2"
_cell_formula_units_Z 108
_cell_length_a 20.641611
_cell_length_b 20.641611
_cell_length_c 13.878949
_cell_angle_alpha 90.000000
_cell_angle_beta 90.000000
_cell_angle_gamma 120.000000
_cell_volume 5121.231289
_symmetry_space_group_name_H-M "R -3"
_symmetry_group_IT_number 148
_symmetry_cell_setting 'hexagonal'
loop_
_space_group_symop_operation_xyz
x,y,z
-y,x-y,z
-x+y,-x,z
-x,-y,-z
y,-x+y,-z
x-y,x,-z
2/3+x,1/3+y,1/3+z
2/3-y,1/3+x-y,1/3+z
2/3-x+y,1/3-x,1/3+z
2/3-x,1/3-y,1/3-z
2/3+y,1/3-x+y,1/3-z
2/3+x-y,1/3+x,1/3-z
1/3+x,2/3+y,2/3+z
1/3-y,2/3+x-y,2/3+z
1/3-x+y,2/3-x,2/3+z
1/3-x,2/3-y,2/3-z
1/3+y,2/3-x+y,2/3-z
1/3+x-y,2/3+x,2/3-z
loop_
_atom_site_type_symbol
_atom_site_label
_atom_site_fract_x
_atom_site_fract_y
_atom_site_fract_z
Si Si1 0.215585 0.707583 0.194224
Si Si2 0.587606 0.872300 0.022781
Si Si3 0.730323 0.019670 0.051428
Si Si4 0.891251 0.310120 0.488103
Si Si5 0.748915 0.887836 0.295665
Si Si6 0.780479 0.577815 0.162071
O O1 0.291280 0.757116 0.134673
O O2 0.150920 0.706423 0.129265
O O3 0.223184 0.747407 0.295072
O O4 0.674725 0.931396 0.034110
O O5 0.545731 0.910201 0.967945
O O6 0.565649 0.803012 0.951662
O O7 0.680361 0.049406 0.106833
O O8 0.807576 0.044190 0.108568
O O9 0.753173 0.049367 0.942604
O O10 0.818304 0.241273 0.534111
O O11 0.875931 0.379134 0.470097
O O12 0.666667 0.833334 0.333334
O O13 0.833334 0.666667 0.166667
#
# Coordination Sequence:
#
# PCOD9575166 Si02
#       6
#    18  18  18  18  18  18
#     4  10  23  41  65  89 125 169 210 263 312 389
#     4  11  22  39  59  94 126 158 207 260 318 372
#     4  11  22  38  60  87 124 163 203 256 307 383
#     4  11  24  42  60  91 125 167 210 253 317 384
#     4  11  24  36  59  94 126 164 204 260 318 370
#     4  10  22  40  60  86 121 167 209 248 310 383
#
# _framework density 21.088678999999999
#
# number of rings (size 3 to 8) (size 9 to 14) (size 15 to 20)
#    0.000    1.333    5.000    1.167    4.667    4.000 
#    0.000    0.000    0.000    0.667    0.000    1.167 
#    0.000    0.000    0.000    0.000    0.000    0.000 
#
# Total GULP energy -200839.335075 kJ/mol
# GULP energy per Si atom -5578.870419 kJ/mol
# Density = 2.104068 g / cm^3
# Si number density = 21.088679 Si / 1000 Ang^3
#
#
#
# Elastic Constant Matrix: (Units=GPa)
#
#
# Indices 1 2 3 4 5 6 
#
# 1 51.0751 7.4519 9.2545 9.8921 -0.3525 0.0000
# 2 7.4519 51.0751 9.2545 -9.8921 0.3525 0.0000
# 3 9.2545 9.2545 92.7157 0.0000 0.0000 0.0000
# 4 9.8921 -9.8921 0.0000 18.4006 0.0000 0.3525
# 5 -0.3525 0.3525 0.0000 0.0000 18.4006 9.8921
# 6 0.0000 0.0000 0.0000 0.3525 9.8921 21.8116
#
#
#
# Elastic Compliance Matrix: (Units=1/GPa)
#
#
# Indices 1 2 3 4 5 6 
#
# 1 0.023985 -0.006342 -0.001761 -0.016304 0.000581 0.000000
# 2 -0.006342 0.023985 -0.001761 0.016304 -0.000581 0.000000
# 3 -0.001761 -0.001761 0.011137 0.000000 0.000000 0.000000
# 4 -0.016304 0.016304 0.000000 0.071898 0.000000 -0.001162
# 5 0.000581 -0.000581 0.000000 0.000000 0.071898 -0.032608
# 6 0.000000 0.000000 0.000000 -0.001162 -0.032608 0.060654
#
#
# Mechanical properties :
#
#
# Convention : Reuss Voigt Hill
#
# Bulk Modulus (GPa) = 25.39418 27.42086 26.40752
# Shear Modulus (GPa) = 16.86838 22.98292 19.92565
#
# Velocity S-wave (km/s) = 2.83128 3.30483 3.07718
# Velocity P-wave (km/s) = 4.77032 5.25294 5.01744
#
# Compressibility (1/GPa) = 0.03937910
#
# Stress axis : x y z
#
# Youngs Moduli (GPa) = 41.69250 41.69250 89.78906
#
# Poissons Ratio (x) = 0.26442 0.15812
# Poissons Ratio (y) = 0.26442 0.15812
# Poissons Ratio (z) = 0.07342 0.07342
#
# Static dielectric constant tensor:
#      x y z
#    x 1.795500 0.000000 0.000000 
#    y 0.000000 1.795500 0.000000 
#    z 0.000000 0.000000 1.796830 
# 
# From -- ./inp_files/2026.got.cif
#   From: 2010.05.17/outbox.cif.g08.bks.cpg/sg148_2_cif.got.tgz:2026.got - 2010.05.20 13:50:20.
