data_PCOD9575431
_publ_section_title
;
Structure prediction by ZEFSAII (Michael W. Deem and Ramdas Pophale) SiO2 
 PCOD9575431
Probable space group: P 3 2 1
;
_chemical_formula_sum "Si O2"
_cell_formula_units_Z 45
_cell_length_a 15.584482
_cell_length_b 15.584482
_cell_length_c 10.654836
_cell_angle_alpha 90.000000
_cell_angle_beta 90.000000
_cell_angle_gamma 120.000000
_cell_volume 2241.104690
_symmetry_space_group_name_H-M "P 3 2 1"
_symmetry_group_IT_number 150
_symmetry_cell_setting 'hexagonal'
loop_
_space_group_symop_operation_xyz
x,y,z
-y,x-y,z
-x+y,-x,z
x-y,-y,-z
-x,-x+y,-z
y,x,-z
loop_
_atom_site_type_symbol
_atom_site_label
_atom_site_fract_x
_atom_site_fract_y
_atom_site_fract_z
Si Si1 0.102620 0.243110 0.442453
Si Si2 0.657739 0.603954 0.692196
Si Si3 0.000000 0.514485 0.500000
Si Si4 0.787709 0.893678 0.955007
Si Si5 0.945762 0.747654 0.301941
Si Si6 0.333345 0.468154 0.693575
Si Si7 0.701896 0.589892 0.960806
Si Si8 0.510515 0.669318 0.785327
O O1 0.080516 0.324397 0.384167
O O2 0.162323 0.215866 0.340996
O O3 0.169442 0.282131 0.566635
O O4 0.000000 0.153932 0.500000
O O5 0.573341 0.523630 0.602423
O O6 0.683962 0.561695 0.815425
O O7 0.609681 0.668298 0.744224
O O8 0.084528 0.614287 0.562994
O O9 0.780065 0.895184 0.804685
O O10 0.874245 0.874245 0.000000
O O11 0.689500 0.806614 0.018452
O O12 0.809676 0.000000 0.000000
O O13 0.933696 0.643621 0.254425
O O14 0.421669 0.558478 0.768295
O O15 0.245254 0.493513 0.699784
O O16 0.618486 0.618486 0.000000
O O17 0.698193 0.517037 0.068774
#
# Coordination Sequence:
#
# PCOD9575431 Si02
#       8
#     6   6   3   6   6   6   6   6
#     4  11  23  39  64  89 132 181 213 264 332 388
#     4  10  20  37  66  94 120 169 216 258 327 400
#     4  10  22  36  64  94 134 162 218 274 330 396
#     4  11  23  38  61  92 130 177 218 269 325 393
#     4  11  25  41  60  94 139 167 225 278 315 396
#     4  11  22  41  63  98 123 171 215 278 332 388
#     4   9  19  36  63  88 117 160 213 260 312 388
#     4  10  21  40  69  92 122 166 223 265 326 404
#
# _framework density 20.079384999999998
#
# number of rings (size 3 to 8) (size 9 to 14) (size 15 to 20)
#    0.000    1.600    2.000    2.800    7.467    0.000 
#    3.200    3.333    2.933    0.000    0.000    0.000 
#    0.000    0.000    0.000    0.000    0.000    0.000 
#
# Total GULP energy -251019.966107 kJ/mol
# GULP energy per Si atom -5578.221469 kJ/mol
# Density = 2.003368 g / cm^3
# Si number density = 20.079385 Si / 1000 Ang^3
#
#
#
# Elastic Constant Matrix: (Units=GPa)
#
#
# Indices 1 2 3 4 5 6 
#
# 1 88.6449 40.3847 38.6876 -5.4872 0.0000 0.0000
# 2 40.3847 88.6449 38.6876 5.4872 0.0000 0.0000
# 3 38.6876 38.6876 117.7591 0.0000 0.0000 0.0000
# 4 -5.4872 5.4872 0.0000 21.0942 0.0000 0.0000
# 5 0.0000 0.0000 0.0000 0.0000 21.0942 -5.4872
# 6 0.0000 0.0000 0.0000 0.0000 -5.4872 24.1301
#
#
#
# Elastic Compliance Matrix: (Units=1/GPa)
#
#
# Indices 1 2 3 4 5 6 
#
# 1 0.015838 -0.006186 -0.003171 0.005729 0.000000 0.000000
# 2 -0.006186 0.015838 -0.003171 -0.005729 0.000000 0.000000
# 3 -0.003171 -0.003171 0.010575 0.000000 0.000000 0.000000
# 4 0.005729 -0.005729 0.000000 0.050387 0.000000 0.000000
# 5 0.000000 0.000000 0.000000 0.000000 0.050387 0.011458
# 6 0.000000 0.000000 0.000000 0.000000 0.011458 0.044048
#
#
# Mechanical properties :
#
#
# Convention : Reuss Voigt Hill
#
# Bulk Modulus (GPa) = 58.15588 58.95209 58.55398
# Shear Modulus (GPa) = 22.95054 25.08296 24.01675
#
# Velocity S-wave (km/s) = 3.38448 3.53822 3.46221
# Velocity P-wave (km/s) = 6.65573 6.79082 6.72362
#
# Compressibility (1/GPa) = 0.01719517
#
# Stress axis : x y z
#
# Youngs Moduli (GPa) = 63.14045 63.14045 94.55929
#
# Poissons Ratio (x) = 0.39059 0.29984
# Poissons Ratio (y) = 0.39059 0.29984
# Poissons Ratio (z) = 0.20021 0.20021
#
# Static dielectric constant tensor:
#      x y z
#    x 1.730580 0.000000 0.000000 
#    y 0.000000 1.730580 0.000000 
#    z 0.000000 0.000000 1.770760 
# 
# From -- ./inp_files/971.got.cif
#   From: 2010.05.17/outbox.cif.g08.bks.cpg/sg150_cif.got.tgz:971.got - 2010.05.20 13:53:18.
