data_PCOD9575565
_publ_section_title
;
Structure prediction by ZEFSAII (Michael W. Deem and Ramdas Pophale) SiO2 
 PCOD9575565
Probable space group: P 31 1 2
;
_chemical_formula_sum "Si O2"
_cell_formula_units_Z 27
_cell_length_a 13.575852
_cell_length_b 13.575852
_cell_length_c 7.429081
_cell_angle_alpha 90.000000
_cell_angle_beta 90.000000
_cell_angle_gamma 120.000000
_cell_volume 1185.768516
_symmetry_space_group_name_H-M "P 31 1 2"
_symmetry_group_IT_number 151
_symmetry_cell_setting 'hexagonal'
loop_
_space_group_symop_operation_xyz
x,y,z
-y,x-y,1/3+z
-x+y,-x,2/3+z
-y,-x,2/3-z
-x+y,y,1/3-z
x,x-y,-z
loop_
_atom_site_type_symbol
_atom_site_label
_atom_site_fract_x
_atom_site_fract_y
_atom_site_fract_z
Si Si1 0.188093 0.016082 0.284913
Si Si2 0.360859 0.993929 0.524436
Si Si3 0.580866 0.023323 0.398929
Si Si4 0.833711 0.166290 0.333334
Si Si5 0.218475 0.380254 0.962335
O O1 0.053959 0.946041 0.333334
O O2 0.272491 0.029928 0.448708
O O3 0.196573 0.925840 0.151163
O O4 0.246339 0.130705 0.169498
O O5 0.283564 0.856104 0.536059
O O6 0.471196 0.037332 0.399603
O O7 0.408508 0.028382 0.725865
O O8 0.699243 0.112751 0.308467
O O9 0.546647 0.899774 0.319670
O O10 0.173539 0.347078 0.166667
#
# Coordination Sequence:
#
# PCOD9575565 Si02
#       5
#     6   6   6   3   6
#     4   9  18  33  56  82 103 144 188 233 281 339
#     4   9  17  32  55  78 109 152 183 217 285 333
#     4   9  18  32  54  78 113 144 186 229 274 338
#     4  10  20  32  52  88 104 144 190 236 292 328
#     4   8  15  29  50  75 105 144 179 225 266 326
#
# _framework density 22.770045
#
# number of rings (size 3 to 8) (size 9 to 14) (size 15 to 20)
#    0.000    3.111    0.000    0.000    0.000    4.444 
#    0.000    0.000   63.556   10.667  309.111    0.000 
#    0.000    0.000    0.000    0.000    0.000    0.000 
#
# Total GULP energy -150388.383848 kJ/mol
# GULP energy per Si atom -5569.940143 kJ/mol
# Density = 2.271822 g / cm^3
# Si number density = 22.770045 Si / 1000 Ang^3
#
#
#
# Elastic Constant Matrix: (Units=GPa)
#
#
# Indices 1 2 3 4 5 6 
#
# 1 76.3512 39.6821 18.8636 0.0001 1.0905 0.0000
# 2 39.6821 76.3512 18.8636 -0.0001 -1.0905 0.0000
# 3 18.8636 18.8636 83.6337 0.0000 0.0000 0.0000
# 4 0.0001 -0.0001 0.0000 31.6635 0.0000 -1.0905
# 5 1.0905 -1.0905 0.0000 0.0000 31.6635 0.0001
# 6 0.0000 0.0000 0.0000 -1.0905 0.0001 18.3346
#
#
#
# Elastic Compliance Matrix: (Units=1/GPa)
#
#
# Indices 1 2 3 4 5 6 
#
# 1 0.018314 -0.009013 -0.002098 0.000000 -0.000941 0.000000
# 2 -0.009013 0.018314 -0.002098 0.000000 0.000941 0.000000
# 3 -0.002098 -0.002098 0.012903 0.000000 0.000000 0.000000
# 4 0.000000 0.000000 0.000000 0.031647 0.000000 0.001882
# 5 -0.000941 0.000941 0.000000 0.000000 0.031647 0.000000
# 6 0.000000 0.000000 0.000000 0.001882 0.000000 0.054654
#
#
# Mechanical properties :
#
#
# Convention : Reuss Voigt Hill
#
# Bulk Modulus (GPa) = 43.26574 43.46164 43.36369
# Shear Modulus (GPa) = 24.80166 26.92745 25.86456
#
# Velocity S-wave (km/s) = 3.30392 3.44260 3.37397
# Velocity P-wave (km/s) = 5.79629 5.91021 5.85353
#
# Compressibility (1/GPa) = 0.02311297
#
# Stress axis : x y z
#
# Youngs Moduli (GPa) = 54.60436 54.60436 77.50031
#
# Poissons Ratio (x) = 0.49217 0.16257
# Poissons Ratio (y) = 0.49217 0.16257
# Poissons Ratio (z) = 0.11454 0.11454
#
# Static dielectric constant tensor:
#      x y z
#    x 1.860710 0.000000 0.000000 
#    y 0.000000 1.860710 0.000000 
#    z 0.000000 0.000000 1.959880 
# 
# From -- ./inp_files/1515.got.cif
#   From: 2010.05.17/outbox.cif.g08.bks.cpg/sg151_1_cif.got.tgz:1515.got - 2010.05.20 10:33:20.
