data_PCOD9575283
_publ_section_title
;
Structure prediction by ZEFSAII (Michael W. Deem and Ramdas Pophale) SiO2 
 PCOD9575283
Probable space group: R -3
;
_chemical_formula_sum "Si O2"
_cell_formula_units_Z 72
_cell_length_a 12.109678
_cell_length_b 12.109678
_cell_length_c 26.983901
_cell_angle_alpha 90.000000
_cell_angle_beta 90.000000
_cell_angle_gamma 120.000000
_cell_volume 3426.893100
_symmetry_space_group_name_H-M "R -3"
_symmetry_group_IT_number 148
_symmetry_cell_setting 'hexagonal'
loop_
_space_group_symop_operation_xyz
x,y,z
-y,x-y,z
-x+y,-x,z
-x,-y,-z
y,-x+y,-z
x-y,x,-z
2/3+x,1/3+y,1/3+z
2/3-y,1/3+x-y,1/3+z
2/3-x+y,1/3-x,1/3+z
2/3-x,1/3-y,1/3-z
2/3+y,1/3-x+y,1/3-z
2/3+x-y,1/3+x,1/3-z
1/3+x,2/3+y,2/3+z
1/3-y,2/3+x-y,2/3+z
1/3-x+y,2/3-x,2/3+z
1/3-x,2/3-y,2/3-z
1/3+y,2/3-x+y,2/3-z
1/3+x-y,2/3+x,2/3-z
loop_
_atom_site_type_symbol
_atom_site_label
_atom_site_fract_x
_atom_site_fract_y
_atom_site_fract_z
Si Si1 0.333334 0.666667 0.404107
Si Si2 0.486775 0.428383 0.448662
Si Si3 0.333334 0.666668 0.810128
Si Si4 0.077721 0.425934 0.377347
Si Si5 0.602114 0.720783 0.264450
Si Si6 0.333334 0.666667 0.226086
O O1 0.333334 0.666667 0.463489
O O2 0.194846 0.569140 0.383966
O O3 0.500000 0.500000 0.500000
O O4 0.543762 0.336341 0.457430
O O5 0.568713 0.534879 0.407012
O O6 0.338265 0.349918 0.435400
O O7 0.063567 0.395987 0.319267
O O8 0.127190 0.335143 0.400222
O O9 0.458528 0.666733 0.246138
O O10 0.333335 0.666668 0.166667
#
# Coordination Sequence:
#
# PCOD9575283 Si02
#       6
#     6  18   6  18  18   6
#     4  12  19  46  72 103 131 193 241 283 342 424
#     4  12  27  45  75 104 145 187 240 287 352 426
#     4  12  27  43  68 112 144 185 230 291 354 427
#     4  11  23  45  77 101 138 185 246 290 345 422
#     4  11  27  46  73 107 138 189 236 297 354 417
#     4  12  31  44  73 105 153 175 230 304 364 416
#
# _framework density 21.010283999999999
#
# number of rings (size 3 to 8) (size 9 to 14) (size 15 to 20)
#    0.000    0.500    5.000    1.500   10.500    0.000 
#    0.000    1.250    0.000    0.000    0.000    0.000 
#    0.000    0.000    0.000    0.000    0.000    0.000 
#
# Total GULP energy -134322.010241 kJ/mol
# GULP energy per Si atom -5596.750427 kJ/mol
# Density = 2.096246 g / cm^3
# Si number density = 21.010284 Si / 1000 Ang^3
#
#
#
# Elastic Constant Matrix: (Units=GPa)
#
#
# Indices 1 2 3 4 5 6 
#
# 1 79.4891 28.5068 43.6420 3.3835 5.8023 0.0006
# 2 28.5068 79.4905 43.6425 -3.3828 -5.8024 -0.0004
# 3 43.6420 43.6425 89.9390 0.0009 0.0003 0.0007
# 4 3.3835 -3.3828 0.0009 21.0868 -0.0004 -5.8008
# 5 5.8023 -5.8024 0.0003 -0.0004 21.0834 3.3820
# 6 0.0006 -0.0004 0.0007 -5.8008 3.3820 25.4919
#
#
#
# Elastic Compliance Matrix: (Units=1/GPa)
#
#
# Indices 1 2 3 4 5 6 
#
# 1 0.018323 -0.003089 -0.007392 -0.003435 -0.005893 0.000000
# 2 -0.003089 0.018323 -0.007392 0.003436 0.005893 0.000001
# 3 -0.007392 -0.007392 0.018293 -0.000001 0.000000 -0.000001
# 4 -0.003435 0.003436 -0.000001 0.051766 0.000002 0.011779
# 5 -0.005893 0.005893 0.000000 0.000002 0.051776 -0.006868
# 6 0.000000 0.000001 -0.000001 0.011779 -0.006868 0.042820
#
#
# Mechanical properties :
#
#
# Convention : Reuss Voigt Hill
#
# Bulk Modulus (GPa) = 52.10523 53.38902 52.74713
# Shear Modulus (GPa) = 20.53866 22.40759 21.47313
#
# Velocity S-wave (km/s) = 3.12998 3.26928 3.20039
# Velocity P-wave (km/s) = 6.15760 6.30214 6.23029
#
# Compressibility (1/GPa) = 0.01919193
#
# Stress axis : x y z
#
# Youngs Moduli (GPa) = 54.57646 54.57709 54.66671
#
# Poissons Ratio (x) = 0.16858 0.40410
# Poissons Ratio (y) = 0.16857 0.40411
# Poissons Ratio (z) = 0.40344 0.40345
#
# Static dielectric constant tensor:
#      x y z
#    x 1.777190 0.000000 0.000010 
#    y 0.000000 1.777200 -0.000010 
#    z 0.000010 -0.000010 1.843660 
# 
# From -- ./inp_files/3945.got.cif
#   From: 2010.05.17/outbox.cif.g08.bks.cpg/sg148_2_cif.got.tgz:3945.got - 2010.05.20 13:50:20.
