data_PCOD9575408
_publ_section_title
;
Structure prediction by ZEFSAII (Michael W. Deem and Ramdas Pophale) SiO2 
 PCOD9575408
Probable space group: P 3 2 1
;
_chemical_formula_sum "Si O2"
_cell_formula_units_Z 45
_cell_length_a 14.081647
_cell_length_b 14.081647
_cell_length_c 12.163918
_cell_angle_alpha 90.000000
_cell_angle_beta 90.000000
_cell_angle_gamma 120.000000
_cell_volume 2088.868120
_symmetry_space_group_name_H-M "P 3 2 1"
_symmetry_group_IT_number 150
_symmetry_cell_setting 'hexagonal'
loop_
_space_group_symop_operation_xyz
x,y,z
-y,x-y,z
-x+y,-x,z
x-y,-y,-z
-x,-x+y,-z
y,x,-z
loop_
_atom_site_type_symbol
_atom_site_label
_atom_site_fract_x
_atom_site_fract_y
_atom_site_fract_z
Si Si1 0.907307 0.710233 0.419879
Si Si2 0.288217 0.318101 0.820585
Si Si3 0.254045 0.893152 0.886882
Si Si4 0.460242 0.552030 0.756066
Si Si5 0.000000 0.287108 0.500000
Si Si6 0.484148 0.868265 0.519314
Si Si7 0.222364 0.848277 0.132206
Si Si8 0.354269 0.866045 0.334799
O O1 0.964107 0.704334 0.308743
O O2 0.811119 0.737481 0.417215
O O3 0.854075 0.589114 0.473053
O O4 0.000000 0.793964 0.500000
O O5 0.176525 0.300911 0.871603
O O6 0.370375 0.450287 0.827769
O O7 0.327856 0.236291 0.864919
O O8 0.330469 0.865467 0.810924
O O9 0.289864 0.019563 0.856937
O O10 0.270726 0.858826 0.009666
O O11 0.413222 0.567312 0.640576
O O12 0.542161 0.507083 0.726288
O O13 0.925202 0.312153 0.580223
O O14 0.404209 0.812937 0.417260
O O15 0.539166 0.000000 0.500000
O O16 0.269632 0.810847 0.234784
#
# Coordination Sequence:
#
# PCOD9575408 Si02
#       8
#     6   6   6   6   3   6   6   6
#     4  10  21  34  56  93 128 166 218 268 319 406
#     4  11  22  40  67  96 130 181 230 274 345 397
#     4  10  22  43  65  94 132 174 231 284 332 397
#     4   9  18  37  64  92 119 167 216 278 330 396
#     4  12  20  34  64  88 126 174 208 262 338 382
#     4   8  15  32  57  86 116 159 212 255 321 399
#     4  10  22  41  63  97 131 173 226 274 332 403
#     4  10  18  34  62  87 119 166 207 258 334 391
#
# _framework density 21.542767000000001
#
# number of rings (size 3 to 8) (size 9 to 14) (size 15 to 20)
#    0.000    2.133    2.000    3.600    0.000    0.000 
#   11.600    0.000    2.933    9.600    0.000    0.000 
#    0.000    0.000    0.000    0.000    0.000    0.000 
#
# Total GULP energy -250694.833738 kJ/mol
# GULP energy per Si atom -5570.996305 kJ/mol
# Density = 2.149374 g / cm^3
# Si number density = 21.542767 Si / 1000 Ang^3
#
#
#
# Elastic Constant Matrix: (Units=GPa)
#
#
# Indices 1 2 3 4 5 6 
#
# 1 52.6394 13.1786 21.7579 0.3308 0.0000 0.0000
# 2 13.1786 52.6394 21.7579 -0.3308 0.0000 0.0000
# 3 21.7579 21.7579 82.2961 0.0000 0.0000 0.0000
# 4 0.3308 -0.3308 0.0000 16.0127 0.0000 0.0000
# 5 0.0000 0.0000 0.0000 0.0000 16.0127 0.3308
# 6 0.0000 0.0000 0.0000 0.0000 0.3308 19.7304
#
#
#
# Elastic Compliance Matrix: (Units=1/GPa)
#
#
# Indices 1 2 3 4 5 6 
#
# 1 0.021881 -0.003469 -0.004868 -0.000524 0.000000 0.000000
# 2 -0.003469 0.021881 -0.004868 0.000524 0.000000 0.000000
# 3 -0.004868 -0.004868 0.014725 0.000000 0.000000 0.000000
# 4 -0.000524 0.000524 0.000000 0.062472 0.000000 0.000000
# 5 0.000000 0.000000 0.000000 0.000000 0.062472 -0.001047
# 6 0.000000 0.000000 0.000000 0.000000 -0.001047 0.050701
#
#
# Mechanical properties :
#
#
# Convention : Reuss Voigt Hill
#
# Bulk Modulus (GPa) = 31.17446 33.44041 32.30744
# Shear Modulus (GPa) = 18.43422 19.07652 18.75537
#
# Velocity S-wave (km/s) = 2.92841 2.97899 2.95381
# Velocity P-wave (km/s) = 5.09279 5.23345 5.16360
#
# Compressibility (1/GPa) = 0.03207754
#
# Stress axis : x y z
#
# Youngs Moduli (GPa) = 45.70155 45.70155 67.91068
#
# Poissons Ratio (x) = 0.15855 0.33058
# Poissons Ratio (y) = 0.15855 0.33058
# Poissons Ratio (z) = 0.22247 0.22247
#
# Static dielectric constant tensor:
#      x y z
#    x 1.840910 0.000000 0.000000 
#    y 0.000000 1.840910 0.000000 
#    z 0.000000 0.000000 1.757660 
# 
# From -- ./inp_files/964.got.cif
#   From: 2010.05.17/outbox.cif.g08.bks.cpg/sg150_cif.got.tgz:964.got - 2010.05.20 13:53:18.
