data_PCOD9575266
_publ_section_title
;
Structure prediction by ZEFSAII (Michael W. Deem and Ramdas Pophale) SiO2 
 PCOD9575266
Probable space group: R -3
;
_chemical_formula_sum "Si O2"
_cell_formula_units_Z 126
_cell_length_a 23.912456
_cell_length_b 23.912456
_cell_length_c 12.019606
_cell_angle_alpha 90.000000
_cell_angle_beta 90.000000
_cell_angle_gamma 120.000000
_cell_volume 5952.086463
_symmetry_space_group_name_H-M "R -3"
_symmetry_group_IT_number 148
_symmetry_cell_setting 'hexagonal'
loop_
_space_group_symop_operation_xyz
x,y,z
-y,x-y,z
-x+y,-x,z
-x,-y,-z
y,-x+y,-z
x-y,x,-z
2/3+x,1/3+y,1/3+z
2/3-y,1/3+x-y,1/3+z
2/3-x+y,1/3-x,1/3+z
2/3-x,1/3-y,1/3-z
2/3+y,1/3-x+y,1/3-z
2/3+x-y,1/3+x,1/3-z
1/3+x,2/3+y,2/3+z
1/3-y,2/3+x-y,2/3+z
1/3-x+y,2/3-x,2/3+z
1/3-x,2/3-y,2/3-z
1/3+y,2/3-x+y,2/3-z
1/3+x-y,2/3+x,2/3-z
loop_
_atom_site_type_symbol
_atom_site_label
_atom_site_fract_x
_atom_site_fract_y
_atom_site_fract_z
Si Si1 0.843589 0.226943 0.309409
Si Si2 0.186797 0.591886 0.213827
Si Si3 0.711437 0.878850 0.185020
Si Si4 0.410754 0.247537 0.747019
Si Si5 0.737895 0.722477 0.114171
Si Si6 0.768345 0.199343 0.092214
Si Si7 0.723502 0.028724 0.424899
O O1 0.787006 0.195786 0.400815
O O2 0.898131 0.291231 0.365953
O O3 0.819259 0.237649 0.191379
O O4 0.868630 0.175032 0.300565
O O5 0.224924 0.664481 0.160832
O O6 0.119430 0.559953 0.150056
O O7 0.158165 0.584721 0.341697
O O8 0.663143 0.805084 0.223635
O O9 0.759330 0.911541 0.285382
O O10 0.669822 0.914268 0.174227
O O11 0.423506 0.318774 0.769686
O O12 0.806743 0.763516 0.173658
O O13 0.683549 0.687728 0.207931
O O14 0.725145 0.663841 0.030644
#
# Coordination Sequence:
#
# PCOD9575266 Si02
#       7
#    18  18  18  18  18  18  18
#     4  11  23  41  63  97 143 177 219 272 332 403
#     4  12  28  50  74  98 124 173 233 302 355 404
#     4  11  22  37  58  96 136 179 224 273 319 402
#     4  11  24  37  63  95 135 174 226 277 328 394
#     4  12  23  38  61  93 136 180 221 261 333 405
#     4  11  25  44  66  98 137 180 220 279 339 406
#     4  12  22  37  57  93 135 180 218 261 331 400
#
# _framework density 21.169048
#
# number of rings (size 3 to 8) (size 9 to 14) (size 15 to 20)
#    0.000    0.571    7.143    1.000    2.000    1.143 
#    0.000    0.000    0.000    0.000    0.000    1.000 
#    0.000    0.000    0.000    0.000    0.000    0.000 
#
# Total GULP energy -234311.370044 kJ/mol
# GULP energy per Si atom -5578.842144 kJ/mol
# Density = 2.112087 g / cm^3
# Si number density = 21.169048 Si / 1000 Ang^3
#
#
#
# Elastic Constant Matrix: (Units=GPa)
#
#
# Indices 1 2 3 4 5 6 
#
# 1 61.6574 34.5661 34.9819 1.7991 1.2663 0.0000
# 2 34.5661 61.6573 34.9818 -1.7991 -1.2663 0.0000
# 3 34.9819 34.9818 136.5081 0.0000 0.0000 0.0000
# 4 1.7991 -1.7991 0.0000 30.1561 0.0000 -1.2663
# 5 1.2663 -1.2663 0.0000 0.0000 30.1561 1.7991
# 6 0.0000 0.0000 0.0000 -1.2663 1.7991 13.5456
#
#
#
# Elastic Compliance Matrix: (Units=1/GPa)
#
#
# Indices 1 2 3 4 5 6 
#
# 1 0.025064 -0.012291 -0.003273 -0.002229 -0.001569 0.000000
# 2 -0.012291 0.025064 -0.003273 0.002229 0.001569 0.000000
# 3 -0.003273 -0.003273 0.009003 0.000000 0.000000 0.000000
# 4 -0.002229 0.002229 0.000000 0.033558 0.000000 0.003137
# 5 -0.001569 0.001569 0.000000 0.000000 0.033558 -0.004457
# 6 0.000000 0.000000 0.000000 0.003137 -0.004457 0.074710
#
#
# Mechanical properties :
#
#
# Convention : Reuss Voigt Hill
#
# Bulk Modulus (GPa) = 46.60814 52.09803 49.35309
# Shear Modulus (GPa) = 20.34307 25.12443 22.73375
#
# Velocity S-wave (km/s) = 3.10333 3.44880 3.28062
# Velocity P-wave (km/s) = 5.90811 6.36576 6.14120
#
# Compressibility (1/GPa) = 0.02145548
#
# Stress axis : x y z
#
# Youngs Moduli (GPa) = 39.89845 39.89844 111.07295
#
# Poissons Ratio (x) = 0.49040 0.36355
# Poissons Ratio (y) = 0.49040 0.36355
# Poissons Ratio (z) = 0.13059 0.13059
#
# Static dielectric constant tensor:
#      x y z
#    x 1.813180 0.000000 0.000000 
#    y 0.000000 1.813180 0.000000 
#    z 0.000000 0.000000 1.853750 
# 
# From -- ./inp_files/1614.got.cif
#   From: 2010.05.17/outbox.cif.g08.bks.cpg/sg148_1_cif.got.tgz:1614.got - 2010.05.20 13:50:20.
