data_PCOD9575298
_publ_section_title
;
Structure prediction by ZEFSAII (Michael W. Deem and Ramdas Pophale) SiO2 
 PCOD9575298
Probable space group: R -3
;
_chemical_formula_sum "Si O2"
_cell_formula_units_Z 126
_cell_length_a 19.813975
_cell_length_b 19.813975
_cell_length_c 16.338847
_cell_angle_alpha 90.000000
_cell_angle_beta 90.000000
_cell_angle_gamma 120.000000
_cell_volume 5555.143206
_symmetry_space_group_name_H-M "R -3"
_symmetry_group_IT_number 148
_symmetry_cell_setting 'hexagonal'
loop_
_space_group_symop_operation_xyz
x,y,z
-y,x-y,z
-x+y,-x,z
-x,-y,-z
y,-x+y,-z
x-y,x,-z
2/3+x,1/3+y,1/3+z
2/3-y,1/3+x-y,1/3+z
2/3-x+y,1/3-x,1/3+z
2/3-x,1/3-y,1/3-z
2/3+y,1/3-x+y,1/3-z
2/3+x-y,1/3+x,1/3-z
1/3+x,2/3+y,2/3+z
1/3-y,2/3+x-y,2/3+z
1/3-x+y,2/3-x,2/3+z
1/3-x,2/3-y,2/3-z
1/3+y,2/3-x+y,2/3-z
1/3+x-y,2/3+x,2/3-z
loop_
_atom_site_type_symbol
_atom_site_label
_atom_site_fract_x
_atom_site_fract_y
_atom_site_fract_z
Si Si1 0.854660 0.008315 0.036169
Si Si2 0.543807 0.660132 0.910439
Si Si3 0.598291 0.149611 0.835383
Si Si4 0.051400 0.648794 0.598902
Si Si5 0.902532 0.258889 0.722122
Si Si6 0.247081 0.149056 0.326103
Si Si7 0.150636 0.621090 0.890885
O O1 0.841287 0.986939 0.132036
O O2 0.850862 0.935513 0.986845
O O3 0.783818 0.017901 0.001647
O O4 0.574833 0.681985 0.819244
O O5 0.450131 0.615563 0.905892
O O6 0.569100 0.603914 0.957485
O O7 0.578928 0.738990 0.961615
O O8 0.546334 0.190352 0.836080
O O9 0.584394 0.094849 0.912994
O O10 0.575505 0.093757 0.756456
O O11 0.005267 0.694530 0.582752
O O12 0.987269 0.561585 0.626616
O O13 0.917708 0.192833 0.758287
O O14 0.169862 0.144367 0.287045
#
# Coordination Sequence:
#
# PCOD9575298 Si02
#       7
#    18  18  18  18  18  18  18
#     4  12  26  48  74 106 145 192 242 299 363 431
#     4  12  24  48  72 108 140 194 234 300 364 426
#     4  12  26  48  74 106 145 192 242 299 363 431
#     4  11  27  44  75 107 146 187 241 298 362 430
#     4  11  27  44  75 107 146 187 241 298 362 430
#     4  11  26  45  72 107 148 185 241 300 357 437
#     4  11  26  45  72 107 148 185 241 300 357 437
#
# _framework density 22.681684000000001
#
# number of rings (size 3 to 8) (size 9 to 14) (size 15 to 20)
#    0.000    0.571    2.857    3.714   12.000    0.000 
#    0.857    0.000    0.000    0.000    0.000    0.000 
#    0.000    0.000    0.000    0.000    0.000    0.000 
#
# Total GULP energy -235159.943947 kJ/mol
# GULP energy per Si atom -5599.046284 kJ/mol
# Density = 2.263006 g / cm^3
# Si number density = 22.681684 Si / 1000 Ang^3
#
#
#
# Elastic Constant Matrix: (Units=GPa)
#
#
# Indices 1 2 3 4 5 6 
#
# 1 50.3719 9.4991 -11.5794 -8.7885 -0.7348 0.0000
# 2 9.4991 50.3719 -11.5794 8.7885 0.7348 0.0000
# 3 -11.5794 -11.5794 98.2119 0.0000 0.0000 0.0000
# 4 -8.7885 8.7885 0.0000 25.4498 0.0000 0.7348
# 5 -0.7348 0.7348 0.0000 0.0000 25.4498 -8.7885
# 6 0.0000 0.0000 0.0000 0.7348 -8.7885 20.4364
#
#
#
# Elastic Compliance Matrix: (Units=1/GPa)
#
#
# Indices 1 2 3 4 5 6 
#
# 1 0.023134 -0.005634 0.002063 0.009934 0.000831 0.000000
# 2 -0.005634 0.023134 0.002063 -0.009934 -0.000831 0.000000
# 3 0.002063 0.002063 0.010669 0.000000 0.000000 0.000000
# 4 0.009934 -0.009934 0.000000 0.046202 0.000000 -0.001661
# 5 0.000831 -0.000831 0.000000 0.000000 0.046202 0.019869
# 6 0.000000 0.000000 0.000000 -0.001661 0.019869 0.057536
#
#
# Mechanical properties :
#
#
# Convention : Reuss Voigt Hill
#
# Bulk Modulus (GPa) = 18.54479 19.07071 18.80775
# Shear Modulus (GPa) = 21.94264 28.44158 25.19211
#
# Velocity S-wave (km/s) = 3.11371 3.54495 3.33630
# Velocity P-wave (km/s) = 4.59573 5.01815 4.81158
#
# Compressibility (1/GPa) = 0.05392350
#
# Stress axis : x y z
#
# Youngs Moduli (GPa) = 43.22558 43.22558 93.73286
#
# Poissons Ratio (x) = 0.24352 -0.19341
# Poissons Ratio (y) = 0.24352 -0.19341
# Poissons Ratio (z) = -0.08919 -0.08919
#
# Static dielectric constant tensor:
#      x y z
#    x 1.849210 0.000000 0.000000 
#    y 0.000000 1.849210 0.000000 
#    z 0.000000 0.000000 1.799090 
# 
# From -- ./inp_files/2754.got.cif
#   From: 2010.05.17/outbox.cif.g08.bks.cpg/sg148_2_cif.got.tgz:2754.got - 2010.05.20 13:50:20.
