data_PCOD9575173
_publ_section_title
;
Structure prediction by ZEFSAII (Michael W. Deem and Ramdas Pophale) SiO2 
 PCOD9575173
Probable space group: R -3
;
_chemical_formula_sum "Si O2"
_cell_formula_units_Z 84
_cell_length_a 13.792578
_cell_length_b 13.792578
_cell_length_c 23.324474
_cell_angle_alpha 90.000000
_cell_angle_beta 90.000000
_cell_angle_gamma 120.000000
_cell_volume 3842.672635
_symmetry_space_group_name_H-M "R -3"
_symmetry_group_IT_number 148
_symmetry_cell_setting 'hexagonal'
loop_
_space_group_symop_operation_xyz
x,y,z
-y,x-y,z
-x+y,-x,z
-x,-y,-z
y,-x+y,-z
x-y,x,-z
2/3+x,1/3+y,1/3+z
2/3-y,1/3+x-y,1/3+z
2/3-x+y,1/3-x,1/3+z
2/3-x,1/3-y,1/3-z
2/3+y,1/3-x+y,1/3-z
2/3+x-y,1/3+x,1/3-z
1/3+x,2/3+y,2/3+z
1/3-y,2/3+x-y,2/3+z
1/3-x+y,2/3-x,2/3+z
1/3-x,2/3-y,2/3-z
1/3+y,2/3-x+y,2/3-z
1/3+x-y,2/3+x,2/3-z
loop_
_atom_site_type_symbol
_atom_site_label
_atom_site_fract_x
_atom_site_fract_y
_atom_site_fract_z
Si Si1 0.646447 0.001264 0.956048
Si Si2 0.584287 0.459444 0.372488
Si Si3 0.000000 0.000000 0.249433
Si Si4 0.418883 0.141207 0.593773
Si Si5 0.469502 0.078208 0.822866
Si Si6 0.000000 0.000000 0.114838
O O1 0.672104 0.900246 0.945942
O O2 0.719203 0.096320 0.909211
O O3 0.519500 0.960393 0.939603
O O4 0.655537 0.039084 0.022142
O O5 0.706806 0.527842 0.343010
O O6 0.597251 0.389774 0.423471
O O7 0.885686 0.887571 0.265652
O O8 0.000000 0.000000 0.181292
O O9 0.359651 0.087270 0.532669
O O10 0.448557 0.181475 0.837570
#
# Coordination Sequence:
#
# PCOD9575173 Si02
#       6
#    18  18   6  18  18   6
#     4  10  22  41  61  90 129 157 211 257 303 370
#     4   9  19  34  61  89 116 158 204 246 308 359
#     4  12  24  43  61  84 136 169 201 256 323 352
#     4  10  25  40  60  92 124 165 212 254 304 381
#     4  10  22  42  66  94 125 161 208 258 313 369
#     4   9  19  40  57  93 123 154 208 253 290 388
#
# _framework density 21.859786
#
# number of rings (size 3 to 8) (size 9 to 14) (size 15 to 20)
#    0.000    2.143    0.000    2.357    6.000    3.429 
#    3.857    5.357    0.000    0.000    0.000    0.000 
#    0.000    0.000    0.000    0.000    0.000    0.000 
#
# Total GULP energy -156188.256716 kJ/mol
# GULP energy per Si atom -5578.152026 kJ/mol
# Density = 2.181003 g / cm^3
# Si number density = 21.859786 Si / 1000 Ang^3
#
#
#
# Elastic Constant Matrix: (Units=GPa)
#
#
# Indices 1 2 3 4 5 6 
#
# 1 64.6581 19.4822 7.8385 -8.0306 -6.4918 0.0000
# 2 19.4822 64.6581 7.8385 8.0306 6.4918 0.0000
# 3 7.8385 7.8385 74.5649 0.0000 0.0000 0.0000
# 4 -8.0306 8.0306 0.0000 21.2539 0.0000 6.4918
# 5 -6.4918 6.4918 0.0000 0.0000 21.2539 -8.0306
# 6 0.0000 0.0000 0.0000 6.4918 -8.0306 22.5879
#
#
#
# Elastic Compliance Matrix: (Units=1/GPa)
#
#
# Indices 1 2 3 4 5 6 
#
# 1 0.020289 -0.008167 -0.001274 0.010752 0.008692 0.000000
# 2 -0.008167 0.020289 -0.001274 -0.010752 -0.008692 0.000000
# 3 -0.001274 -0.001274 0.013679 0.000000 0.000000 0.000000
# 4 0.010752 -0.010752 0.000000 0.060485 0.000000 -0.017384
# 5 0.008692 -0.008692 0.000000 0.000000 0.060485 0.021504
# 6 0.000000 0.000000 0.000000 -0.017384 0.021504 0.056913
#
#
# Mechanical properties :
#
#
# Convention : Reuss Voigt Hill
#
# Bulk Modulus (GPa) = 30.46330 30.46662 30.46496
# Shear Modulus (GPa) = 18.90258 24.26728 21.58493
#
# Velocity S-wave (km/s) = 2.94380 3.33548 3.14574
# Velocity P-wave (km/s) = 5.05180 5.36670 5.21163
#
# Compressibility (1/GPa) = 0.03282638
#
# Stress axis : x y z
#
# Youngs Moduli (GPa) = 49.28690 49.28690 73.10444
#
# Poissons Ratio (x) = 0.40253 0.09316
# Poissons Ratio (y) = 0.40253 0.09316
# Poissons Ratio (z) = 0.06281 0.06281
#
# Static dielectric constant tensor:
#      x y z
#    x 1.902110 0.000000 0.000000 
#    y 0.000000 1.902110 0.000000 
#    z 0.000000 0.000000 1.758160 
# 
# From -- ./inp_files/3339.got.cif
#   From: 2010.05.17/outbox.cif.g08.bks.cpg/sg148_2_cif.got.tgz:3339.got - 2010.05.20 13:50:20.
