data_PCOD9575668
_publ_section_title
;
Structure prediction by ZEFSAII (Michael W. Deem and Ramdas Pophale) SiO2 
 PCOD9575668
Probable space group: P 31 1 2
;
_chemical_formula_sum "Si O2"
_cell_formula_units_Z 36
_cell_length_a 9.012002
_cell_length_b 9.012002
_cell_length_c 26.765649
_cell_angle_alpha 90.000000
_cell_angle_beta 90.000000
_cell_angle_gamma 120.000000
_cell_volume 1882.569286
_symmetry_space_group_name_H-M "P 31 1 2"
_symmetry_group_IT_number 151
_symmetry_cell_setting 'hexagonal'
loop_
_space_group_symop_operation_xyz
x,y,z
-y,x-y,1/3+z
-x+y,-x,2/3+z
-y,-x,2/3-z
-x+y,y,1/3-z
x,x-y,-z
loop_
_atom_site_type_symbol
_atom_site_label
_atom_site_fract_x
_atom_site_fract_y
_atom_site_fract_z
Si Si1 0.202622 0.125720 0.056373
Si Si2 0.092723 0.343312 0.113078
Si Si3 0.616611 0.365522 0.217727
Si Si4 0.899743 0.430702 0.705686
Si Si5 0.975433 0.538056 0.590508
Si Si6 0.270437 0.604650 0.725120
O O1 0.080732 0.175405 0.086507
O O2 0.387799 0.302094 0.053894
O O3 0.272025 0.003026 0.076439
O O4 0.139879 0.069940 0.000000
O O5 0.176097 0.352194 0.166667
O O6 0.228996 0.508487 0.082199
O O7 0.919221 0.351568 0.116152
O O8 0.722016 0.444031 0.166667
O O9 0.736922 0.457000 0.266302
O O10 0.585514 0.173430 0.221097
O O11 0.910030 0.447320 0.645605
O O12 0.075736 0.449269 0.725367
O O13 0.157866 0.556365 0.581957
O O14 0.320290 0.640579 0.666667
#
# Coordination Sequence:
#
# PCOD9575668 Si02
#       6
#     6   6   6   6   6   6
#     4   8  15  32  55  77 106 144 185 227 280 350
#     4  11  22  36  55  82 116 151 194 249 301 362
#     4  11  21  34  53  76 107 149 189 231 286 345
#     4   8  16  33  55  77 105 140 183 224 271 341
#     4   9  17  33  56  79 105 142 182 228 281 346
#     4   9  18  34  57  83 110 144 186 233 288 352
#
# _framework density 19.122802
#
# number of rings (size 3 to 8) (size 9 to 14) (size 15 to 20)
#    0.000    2.667    0.000    5.500    0.000    2.000 
#    0.000    4.167    0.000    2.000    0.000    0.000 
#    0.000    0.000    0.000    0.000    0.000    0.000 
#
# Total GULP energy -200448.107193 kJ/mol
# GULP energy per Si atom -5568.002978 kJ/mol
# Density = 1.907928 g / cm^3
# Si number density = 19.122802 Si / 1000 Ang^3
#
#
#
# Elastic Constant Matrix: (Units=GPa)
#
#
# Indices 1 2 3 4 5 6 
#
# 1 90.1310 21.8940 34.2354 -0.0002 3.0429 0.0000
# 2 21.8940 90.1310 34.2354 0.0002 -3.0429 0.0000
# 3 34.2354 34.2354 61.3673 0.0000 0.0000 0.0000
# 4 -0.0002 0.0002 0.0000 19.0763 0.0000 -3.0429
# 5 3.0429 -3.0429 0.0000 0.0000 19.0763 -0.0002
# 6 0.0000 0.0000 0.0000 -3.0429 -0.0002 34.1185
#
#
#
# Elastic Compliance Matrix: (Units=1/GPa)
#
#
# Indices 1 2 3 4 5 6 
#
# 1 0.014206 -0.000661 -0.007557 0.000000 -0.002371 0.000000
# 2 -0.000661 0.014206 -0.007557 0.000000 0.002371 0.000000
# 3 -0.007557 -0.007557 0.024727 0.000000 0.000000 0.000000
# 4 0.000000 0.000000 0.000000 0.053177 0.000000 0.004743
# 5 -0.002371 0.002371 0.000000 0.000000 0.053177 0.000000
# 6 0.000000 0.000000 0.000000 0.004743 0.000000 0.029733
#
#
# Mechanical properties :
#
#
# Convention : Reuss Voigt Hill
#
# Bulk Modulus (GPa) = 46.31608 46.92877 46.62243
# Shear Modulus (GPa) = 21.93272 24.53853 23.23563
#
# Velocity S-wave (km/s) = 3.39033 3.58608 3.48957
# Velocity P-wave (km/s) = 6.29275 6.46070 6.37727
#
# Compressibility (1/GPa) = 0.02159077
#
# Stress axis : x y z
#
# Youngs Moduli (GPa) = 70.39399 70.39399 40.44226
#
# Poissons Ratio (x) = 0.04650 0.30560
# Poissons Ratio (y) = 0.04650 0.30560
# Poissons Ratio (z) = 0.53194 0.53194
#
# Static dielectric constant tensor:
#      x y z
#    x 1.692820 0.000000 0.000000 
#    y 0.000000 1.692820 0.000000 
#    z 0.000000 0.000000 1.729710 
# 
# From -- ./inp_files/4850.got.cif
#   From: 2010.05.17/outbox.cif.g08.bks.cpg/sg151_3_cif.got.tgz:4850.got - 2010.05.20 10:33:20.
