data_PCOD9575704
_publ_section_title
;
Structure prediction by ZEFSAII (Michael W. Deem and Ramdas Pophale) SiO2 
 PCOD9575704
Probable space group: P 31 2 1
;
_chemical_formula_sum "Si O2"
_cell_formula_units_Z 33
_cell_length_a 10.528705
_cell_length_b 10.528705
_cell_length_c 20.431161
_cell_angle_alpha 90.000000
_cell_angle_beta 90.000000
_cell_angle_gamma 120.000000
_cell_volume 1961.433520
_symmetry_space_group_name_H-M "P 31 2 1"
_symmetry_group_IT_number 152
_symmetry_cell_setting 'hexagonal'
loop_
_space_group_symop_operation_xyz
x,y,z
-y,x-y,1/3+z
-x+y,-x,2/3+z
x-y,-y,2/3-z
-x,-x+y,1/3-z
y,x,-z
loop_
_atom_site_type_symbol
_atom_site_label
_atom_site_fract_x
_atom_site_fract_y
_atom_site_fract_z
Si Si1 0.120319 0.870734 0.613653
Si Si2 0.000000 0.257978 0.166667
Si Si3 0.799860 0.066773 0.523690
Si Si4 0.644137 0.988379 0.655408
Si Si5 0.115302 0.158237 0.571285
Si Si6 0.406496 0.072570 0.695173
O O1 0.275493 0.962626 0.648017
O O2 0.000000 0.766881 0.666667
O O3 0.134334 0.799018 0.546469
O O4 0.078486 0.994303 0.591684
O O5 0.140804 0.237053 0.169392
O O6 0.982208 0.330572 0.101574
O O7 0.692186 0.048797 0.581887
O O8 0.961420 0.149152 0.556445
O O9 0.783215 0.045067 0.704511
O O10 0.541859 0.048767 0.681537
O O11 0.577121 0.810634 0.650222
O O12 0.193253 0.193253 0.500000
#
# Coordination Sequence:
#
# PCOD9575704 Si02
#       6
#     6   3   6   6   6   6
#     4  10  15  29  54  79  98 127 175 228 266 304
#     4  10  16  30  54  84 102 128 178 234 268 312
#     4  10  16  30  55  81 100 126 180 240 269 298
#     4  10  21  34  50  78 110 145 176 219 272 333
#     4   9  16  27  52  83 104 125 172 233 273 302
#     4  10  21  34  53  76 111 142 179 220 273 334
#
# _framework density 16.82443
#
# number of rings (size 3 to 8) (size 9 to 14) (size 15 to 20)
#    0.000    2.182    4.545    2.727    1.273    0.000 
#    0.000    3.636    0.000    0.000    0.000    0.000 
#    0.000    0.000    0.000    0.000    0.000    0.000 
#
# Total GULP energy -183713.338304 kJ/mol
# GULP energy per Si atom -5567.070858 kJ/mol
# Density = 1.678614 g / cm^3
# Si number density = 16.824430 Si / 1000 Ang^3
#
#
#
# Elastic Constant Matrix: (Units=GPa)
#
#
# Indices 1 2 3 4 5 6 
#
# 1 52.7365 21.6996 36.3735 3.0176 -0.0002 0.0000
# 2 21.6996 52.7365 36.3735 -3.0176 0.0002 0.0000
# 3 36.3735 36.3735 144.5684 0.0000 0.0000 0.0000
# 4 3.0176 -3.0176 0.0000 1.4494 0.0000 0.0002
# 5 -0.0002 0.0002 0.0000 0.0000 1.4494 3.0176
# 6 0.0000 0.0000 0.0000 0.0002 3.0176 15.5184
#
#
#
# Elastic Compliance Matrix: (Units=1/GPa)
#
#
# Indices 1 2 3 4 5 6 
#
# 1 0.035975 -0.018160 -0.004482 -0.112707 0.000008 0.000000
# 2 -0.018160 0.035975 -0.004482 0.112707 -0.000008 0.000000
# 3 -0.004482 -0.004482 0.009173 0.000000 0.000000 0.000000
# 4 -0.112707 0.112707 0.000000 1.159240 0.000000 -0.000016
# 5 0.000008 -0.000008 0.000000 0.000000 1.159240 -0.225414
# 6 0.000000 0.000000 0.000000 -0.000016 -0.225414 0.108271
#
#
# Mechanical properties :
#
#
# Convention : Reuss Voigt Hill
#
# Bulk Modulus (GPa) = 37.21151 48.77051 42.99101
# Shear Modulus (GPa) = 1.94471 14.05642 8.00057
#
# Velocity S-wave (km/s) = 1.07629 2.89360 2.18304
# Velocity P-wave (km/s) = 4.86930 6.34151 5.65353
#
# Compressibility (1/GPa) = 0.02687340
#
# Stress axis : x y z
#
# Youngs Moduli (GPa) = 27.79687 27.79687 109.02033
#
# Poissons Ratio (x) = 0.50480 0.48865
# Poissons Ratio (y) = 0.50480 0.48865
# Poissons Ratio (z) = 0.12459 0.12459
#
# Static dielectric constant tensor:
#      x y z
#    x 1.572180 0.000000 0.000000 
#    y 0.000000 1.572180 0.000000 
#    z 0.000000 0.000000 1.638280 
# 
# From -- ./inp_files/2728.got.cif
#   From: 2010.05.17/outbox.cif.g08.bks.cpg/sg152_2_cif.got.tgz:2728.got - 2010.05.20 10:36:06.
