data_PCOD9575959
_publ_section_title
;
Structure prediction by ZEFSAII (Michael W. Deem and Ramdas Pophale) SiO2 
 PCOD9575959
Probable space group: P 31 2 1
;
_chemical_formula_sum "Si O2"
_cell_formula_units_Z 42
_cell_length_a 14.716049
_cell_length_b 14.716049
_cell_length_c 9.594034
_cell_angle_alpha 90.000000
_cell_angle_beta 90.000000
_cell_angle_gamma 120.000000
_cell_volume 1799.344561
_symmetry_space_group_name_H-M "P 31 2 1"
_symmetry_group_IT_number 152
_symmetry_cell_setting 'hexagonal'
loop_
_space_group_symop_operation_xyz
x,y,z
-y,x-y,1/3+z
-x+y,-x,2/3+z
x-y,-y,2/3-z
-x,-x+y,1/3-z
y,x,-z
loop_
_atom_site_type_symbol
_atom_site_label
_atom_site_fract_x
_atom_site_fract_y
_atom_site_fract_z
Si Si1 0.126764 0.001548 0.994897
Si Si2 0.838706 0.185422 0.298540
Si Si3 0.402675 0.900247 0.745620
Si Si4 0.733351 0.220768 0.852691
Si Si5 0.703682 0.135329 0.559197
Si Si6 0.284095 0.228239 0.690116
Si Si7 0.468144 0.041196 0.487388
O O1 0.070752 0.880846 0.034615
O O2 0.152235 0.000000 0.833334
O O3 0.243904 0.074952 0.049954
O O4 0.054775 0.054775 0.000000
O O5 0.874144 0.288194 0.203715
O O6 0.764242 0.186385 0.418065
O O7 0.785145 0.092454 0.185957
O O8 0.614799 0.871697 0.736389
O O9 0.490761 0.000000 0.833334
O O10 0.423136 0.802875 0.752328
O O11 0.712097 0.209382 0.686108
O O12 0.404009 0.947689 0.594896
O O13 0.847688 0.325170 0.863721
O O14 0.585315 0.062688 0.508985
O O15 0.742854 0.062683 0.632683
O O16 0.424790 0.000000 0.333334
#
# Coordination Sequence:
#
# PCOD9575959 Si02
#       7
#     6   6   6   6   6   6   6
#     4  10  21  39  64 103 137 178 242 295 351 440
#     4  11  23  41  72 100 139 188 244 298 367 443
#     4  12  23  48  72 102 147 197 246 315 386 451
#     4  12  26  44  72 103 142 189 244 304 374 448
#     4  12  25  46  67 101 147 189 235 305 375 444
#     4  11  22  43  71 100 139 191 231 293 374 439
#     4  12  26  47  72 103 147 193 255 322 373 457
#
# _framework density 23.341830000000002
#
# number of rings (size 3 to 8) (size 9 to 14) (size 15 to 20)
#    0.000    0.571    2.857    7.286    0.000    2.286 
#    0.000    2.143    0.000    0.000    0.000    0.000 
#    0.000    0.000    0.000    0.000    0.000    0.000 
#
# Total GULP energy -234481.105612 kJ/mol
# GULP energy per Si atom -5582.883467 kJ/mol
# Density = 2.328870 g / cm^3
# Si number density = 23.341830 Si / 1000 Ang^3
#
#
#
# Elastic Constant Matrix: (Units=GPa)
#
#
# Indices 1 2 3 4 5 6 
#
# 1 74.4285 32.0858 -2.7611 -1.0920 0.0013 0.0000
# 2 32.0858 74.4285 -2.7611 1.0920 -0.0013 0.0000
# 3 -2.7611 -2.7611 105.8149 0.0000 0.0000 0.0000
# 4 -1.0920 1.0920 0.0000 17.5902 0.0000 -0.0013
# 5 0.0013 -0.0013 0.0000 0.0000 17.5902 -1.0920
# 6 0.0000 0.0000 0.0000 -0.0013 -1.0920 21.1714
#
#
#
# Elastic Compliance Matrix: (Units=1/GPa)
#
#
# Indices 1 2 3 4 5 6 
#
# 1 0.016547 -0.007146 0.000245 0.001471 -0.000002 0.000000
# 2 -0.007146 0.016547 0.000245 -0.001471 0.000002 0.000000
# 3 0.000245 0.000245 0.009463 0.000000 0.000000 0.000000
# 4 0.001471 -0.001471 0.000000 0.057032 0.000000 0.000003
# 5 -0.000002 0.000002 0.000000 0.000000 0.057032 0.002942
# 6 0.000000 0.000000 0.000000 0.000003 0.002942 0.047385
#
#
# Mechanical properties :
#
#
# Convention : Reuss Voigt Hill
#
# Bulk Modulus (GPa) = 34.19181 34.19989 34.19585
# Shear Modulus (GPa) = 22.01998 26.47759 24.24879
#
# Velocity S-wave (km/s) = 3.07477 3.37165 3.22662
# Velocity P-wave (km/s) = 5.22357 5.46269 5.34447
#
# Compressibility (1/GPa) = 0.02924677
#
# Stress axis : x y z
#
# Youngs Moduli (GPa) = 60.43430 60.43430 105.67177
#
# Poissons Ratio (x) = 0.43185 -0.02592
# Poissons Ratio (y) = 0.43185 -0.02592
# Poissons Ratio (z) = -0.01483 -0.01483
#
# Static dielectric constant tensor:
#      x y z
#    x 2.404320 0.000000 0.000000 
#    y 0.000000 2.404320 0.000000 
#    z 0.000000 0.000000 1.907860 
# 
# From -- ./inp_files/1823.got.cif
#   From: 2010.05.17/outbox.cif.g08.bks.cpg/sg152_1_cif.got.tgz:1823.got - 2010.05.20 10:36:06.
