data_PCOD9575584
_publ_section_title
;
Structure prediction by ZEFSAII (Michael W. Deem and Ramdas Pophale) SiO2 
 PCOD9575584
Probable space group: P 31 1 2
;
_chemical_formula_sum "Si O2"
_cell_formula_units_Z 24
_cell_length_a 7.561443
_cell_length_b 7.561443
_cell_length_c 21.343511
_cell_angle_alpha 90.000000
_cell_angle_beta 90.000000
_cell_angle_gamma 120.000000
_cell_volume 1056.831767
_symmetry_space_group_name_H-M "P 31 1 2"
_symmetry_group_IT_number 151
_symmetry_cell_setting 'hexagonal'
loop_
_space_group_symop_operation_xyz
x,y,z
-y,x-y,1/3+z
-x+y,-x,2/3+z
-y,-x,2/3-z
-x+y,y,1/3-z
x,x-y,-z
loop_
_atom_site_type_symbol
_atom_site_label
_atom_site_fract_x
_atom_site_fract_y
_atom_site_fract_z
Si Si1 0.607202 0.428731 0.264119
Si Si2 0.231010 0.908358 0.514125
Si Si3 0.402409 0.039415 0.046583
Si Si4 0.087753 0.396594 0.715088
O O1 0.541800 0.458201 0.333334
O O2 0.553917 0.538495 0.209656
O O3 0.567459 0.198744 0.259976
O O4 0.852453 0.562133 0.266142
O O5 0.231171 0.804621 0.448152
O O6 0.075635 0.756686 0.565456
O O7 0.177824 0.088912 0.500000
O O8 0.347432 0.173716 0.000000
O O9 0.426823 0.888433 0.998722
O O10 0.129002 0.258003 0.666667
#
# Coordination Sequence:
#
# PCOD9575584 Si02
#       4
#     6   6   6   6
#     4   8  18  39  61  89 123 168 215 264 333 396
#     4  10  20  37  65  89 122 169 222 266 333 411
#     4   9  20  41  63  89 131 168 212 279 332 402
#     4   9  19  37  55  89 123 158 214 264 324 399
#
# _framework density 22.709387
#
# number of rings (size 3 to 8) (size 9 to 14) (size 15 to 20)
#    0.000    3.500    0.000    0.000    0.000    6.000 
#   45.000    0.000   33.000    0.000    0.000    0.000 
#    0.000    0.000    0.000    0.000    0.000    0.000 
#
# Total GULP energy -133635.543723 kJ/mol
# GULP energy per Si atom -5568.147655 kJ/mol
# Density = 2.265770 g / cm^3
# Si number density = 22.709387 Si / 1000 Ang^3
#
#
#
# Elastic Constant Matrix: (Units=GPa)
#
#
# Indices 1 2 3 4 5 6 
#
# 1 74.9317 41.3311 63.3740 0.0000 0.5950 0.0000
# 2 41.3311 74.9317 63.3740 0.0000 -0.5950 0.0000
# 3 63.3740 63.3740 236.5213 0.0000 0.0000 0.0000
# 4 0.0000 0.0000 0.0000 46.2445 0.0000 -0.5950
# 5 0.5950 -0.5950 0.0000 0.0000 46.2445 0.0000
# 6 0.0000 0.0000 0.0000 -0.5950 0.0000 16.8003
#
#
#
# Elastic Compliance Matrix: (Units=1/GPa)
#
#
# Indices 1 2 3 4 5 6 
#
# 1 0.020963 -0.008812 -0.003256 0.000000 -0.000383 0.000000
# 2 -0.008812 0.020963 -0.003256 0.000000 0.000383 0.000000
# 3 -0.003256 -0.003256 0.005973 0.000000 0.000000 0.000000
# 4 0.000000 0.000000 0.000000 0.021634 0.000000 0.000766
# 5 -0.000383 0.000383 0.000000 0.000000 0.021634 0.000000
# 6 0.000000 0.000000 0.000000 0.000766 0.000000 0.059550
#
#
# Mechanical properties :
#
#
# Convention : Reuss Voigt Hill
#
# Bulk Modulus (GPa) = 57.96769 80.28252 69.12510
# Shear Modulus (GPa) = 26.72179 36.41158 31.56669
#
# Velocity S-wave (km/s) = 3.43401 4.00856 3.73235
# Velocity P-wave (km/s) = 6.42686 7.54013 7.00564
#
# Compressibility (1/GPa) = 0.01725099
#
# Stress axis : x y z
#
# Youngs Moduli (GPa) = 47.70381 47.70381 167.43199
#
# Poissons Ratio (x) = 0.42038 0.54509
# Poissons Ratio (y) = 0.42038 0.54509
# Poissons Ratio (z) = 0.15530 0.15530
#
# Static dielectric constant tensor:
#      x y z
#    x 2.036280 0.000000 0.000000 
#    y 0.000000 2.036280 0.000000 
#    z 0.000000 0.000000 1.983150 
# 
# From -- ./inp_files/3699.got.cif
#   From: 2010.05.17/outbox.cif.g08.bks.cpg/sg151_2_cif.got.tgz:3699.got - 2010.05.20 10:33:20.
