data_PCOD9575142
_publ_section_title
;
Structure prediction by ZEFSAII (Michael W. Deem and Ramdas Pophale) SiO2 
 PCOD9575142
Probable space group: R -3
;
_chemical_formula_sum "Si O2"
_cell_formula_units_Z 135
_cell_length_a 21.944350
_cell_length_b 21.944350
_cell_length_c 15.062564
_cell_angle_alpha 90.000000
_cell_angle_beta 90.000000
_cell_angle_gamma 120.000000
_cell_volume 6281.668007
_symmetry_space_group_name_H-M "R -3"
_symmetry_group_IT_number 148
_symmetry_cell_setting 'hexagonal'
loop_
_space_group_symop_operation_xyz
x,y,z
-y,x-y,z
-x+y,-x,z
-x,-y,-z
y,-x+y,-z
x-y,x,-z
2/3+x,1/3+y,1/3+z
2/3-y,1/3+x-y,1/3+z
2/3-x+y,1/3-x,1/3+z
2/3-x,1/3-y,1/3-z
2/3+y,1/3-x+y,1/3-z
2/3+x-y,1/3+x,1/3-z
1/3+x,2/3+y,2/3+z
1/3-y,2/3+x-y,2/3+z
1/3-x+y,2/3-x,2/3+z
1/3-x,2/3-y,2/3-z
1/3+y,2/3-x+y,2/3-z
1/3+x-y,2/3+x,2/3-z
loop_
_atom_site_type_symbol
_atom_site_label
_atom_site_fract_x
_atom_site_fract_y
_atom_site_fract_z
Si Si1 0.084704 0.608802 0.969682
Si Si2 0.553358 0.826174 0.457737
Si Si3 0.595468 0.911465 0.288537
Si Si4 0.833334 0.166667 0.166667
Si Si5 0.588061 0.638100 0.604157
Si Si6 0.428371 0.480149 0.161712
Si Si7 0.463957 0.649203 0.693543
Si Si8 0.903714 0.699379 0.358041
O O1 0.081242 0.572562 0.064359
O O2 0.122113 0.691342 0.986296
O O3 0.003113 0.581211 0.946943
O O4 0.118407 0.581455 0.897506
O O5 0.546462 0.858656 0.365418
O O6 0.635234 0.878265 0.483605
O O7 0.501098 0.817928 0.536221
O O8 0.556839 0.905742 0.197443
O O9 0.614938 0.988105 0.324939
O O10 0.897180 0.248785 0.191037
O O11 0.815666 0.149257 0.274157
O O12 0.519050 0.636016 0.640443
O O13 0.644116 0.721509 0.595739
O O14 0.477544 0.534497 0.235038
O O15 0.387286 0.584844 0.672421
#
# Coordination Sequence:
#
# PCOD9575142 Si02
#       8
#    18  18  18   9  18  18  18  18
#     4  10  26  40  69  92 144 188 227 285 355 423
#     4  11  24  45  64 100 139 180 233 283 361 418
#     4  10  21  39  65  99 134 181 216 283 347 446
#     4  12  24  42  64 100 148 178 244 282 362 438
#     4  11  24  41  66 103 140 178 221 298 358 427
#     4  11  21  42  63  99 137 180 230 278 354 428
#     4  12  27  47  70  94 134 186 239 293 346 422
#     4  11  26  41  69 103 141 190 234 293 358 436
#
# _framework density 21.491107
#
# number of rings (size 3 to 8) (size 9 to 14) (size 15 to 20)
#    0.000    1.067    2.667    3.333   11.200    2.133 
#    0.000    0.000    0.000    0.000    0.000    0.000 
#    0.000    2.133    0.000    0.000    0.000    0.000 
#
# Total GULP energy -251011.891733 kJ/mol
# GULP energy per Si atom -5578.042039 kJ/mol
# Density = 2.144219 g / cm^3
# Si number density = 21.491107 Si / 1000 Ang^3
#
#
#
# Elastic Constant Matrix: (Units=GPa)
#
#
# Indices 1 2 3 4 5 6 
#
# 1 66.5075 15.8870 11.1401 -5.6828 0.5361 0.0000
# 2 15.8870 66.5075 11.1401 5.6828 -0.5361 0.0000
# 3 11.1401 11.1401 86.7974 0.0000 0.0000 0.0000
# 4 -5.6828 5.6828 0.0000 31.6540 0.0000 -0.5361
# 5 0.5361 -0.5361 0.0000 0.0000 31.6540 -5.6828
# 6 0.0000 0.0000 0.0000 -0.5361 -5.6828 25.3103
#
#
#
# Elastic Compliance Matrix: (Units=1/GPa)
#
#
# Indices 1 2 3 4 5 6 
#
# 1 0.016583 -0.004010 -0.001614 0.003697 -0.000349 0.000000
# 2 -0.004010 0.016583 -0.001614 -0.003697 0.000349 0.000000
# 3 -0.001614 -0.001614 0.011935 0.000000 0.000000 0.000000
# 4 0.003697 -0.003697 0.000000 0.032931 0.000000 0.000697
# 5 -0.000349 0.000349 0.000000 0.000000 0.032931 0.007394
# 6 0.000000 0.000000 0.000000 0.000697 0.007394 0.041185
#
#
# Mechanical properties :
#
#
# Convention : Reuss Voigt Hill
#
# Bulk Modulus (GPa) = 32.65126 32.90517 32.77822
# Shear Modulus (GPa) = 28.27577 29.83332 29.05455
#
# Velocity S-wave (km/s) = 3.63119 3.72986 3.68085
# Velocity P-wave (km/s) = 5.72770 5.82181 5.77495
#
# Compressibility (1/GPa) = 0.03062669
#
# Stress axis : x y z
#
# Youngs Moduli (GPa) = 60.30386 60.30386 83.78499
#
# Poissons Ratio (x) = 0.24179 0.13520
# Poissons Ratio (y) = 0.24179 0.13520
# Poissons Ratio (z) = 0.09731 0.09731
#
# Static dielectric constant tensor:
#      x y z
#    x 1.797190 0.000000 0.000000 
#    y 0.000000 1.797190 0.000000 
#    z 0.000000 0.000000 1.986080 
# 
# From -- ./inp_files/2252.got.cif
#   From: 2010.05.17/outbox.cif.g08.bks.cpg/sg148_2_cif.got.tgz:2252.got - 2010.05.20 13:50:20.
