data_PCOD9575767
_publ_section_title
;
Structure prediction by ZEFSAII (Michael W. Deem and Ramdas Pophale) SiO2 
 PCOD9575767
Probable space group: P 31 2 1
;
_chemical_formula_sum "Si O2"
_cell_formula_units_Z 24
_cell_length_a 16.867919
_cell_length_b 16.867919
_cell_length_c 4.921672
_cell_angle_alpha 90.000000
_cell_angle_beta 90.000000
_cell_angle_gamma 120.000000
_cell_volume 1212.736120
_symmetry_space_group_name_H-M "P 31 2 1"
_symmetry_group_IT_number 152
_symmetry_cell_setting 'hexagonal'
loop_
_space_group_symop_operation_xyz
x,y,z
-y,x-y,1/3+z
-x+y,-x,2/3+z
x-y,-y,2/3-z
-x,-x+y,1/3-z
y,x,-z
loop_
_atom_site_type_symbol
_atom_site_label
_atom_site_fract_x
_atom_site_fract_y
_atom_site_fract_z
Si Si1 0.314288 0.219141 0.344169
Si Si2 0.794788 0.303842 0.254445
Si Si3 0.304822 0.106257 0.852139
Si Si4 0.518428 0.320523 0.410752
O O1 0.256389 0.256389 0.500000
O O2 0.316666 0.146853 0.551849
O O3 0.419337 0.301177 0.311400
O O4 0.281005 0.166127 0.059135
O O5 0.874751 0.279074 0.287605
O O6 0.736522 0.281051 0.532175
O O7 0.825732 0.402157 0.125869
O O8 0.725635 0.231215 0.037068
O O9 0.232400 0.000000 0.833334
#
# Coordination Sequence:
#
# PCOD9575767 Si02
#       4
#     6   6   6   6
#     4  10  21  37  57  80 106 139 178 223 278 334
#     4  10  19  31  50  77 110 148 185 219 257 306
#     4  10  21  37  57  80 106 139 178 223 278 334
#     4  10  19  31  50  77 110 148 185 219 257 306
#
# _framework density 19.789961999999999
#
# number of rings (size 3 to 8) (size 9 to 14) (size 15 to 20)
#    0.000    2.000    0.000    4.500    0.000    1.000 
#    0.000    0.000    0.000   25.500    0.000    0.000 
#    0.000    0.000    0.000    0.000    0.000    0.000 
#
# Total GULP energy -133822.864464 kJ/mol
# GULP energy per Si atom -5575.952686 kJ/mol
# Density = 1.974492 g / cm^3
# Si number density = 19.789962 Si / 1000 Ang^3
#
#
#
# Elastic Constant Matrix: (Units=GPa)
#
#
# Indices 1 2 3 4 5 6 
#
# 1 54.2483 38.2431 0.4773 -2.7620 0.0000 0.0000
# 2 38.2431 54.2483 0.4773 2.7620 0.0000 0.0000
# 3 0.4773 0.4773 95.1761 0.0000 0.0000 0.0000
# 4 -2.7620 2.7620 0.0000 26.2168 0.0000 0.0000
# 5 0.0000 0.0000 0.0000 0.0000 26.2168 -2.7620
# 6 0.0000 0.0000 0.0000 0.0000 -2.7620 8.0026
#
#
#
# Elastic Compliance Matrix: (Units=1/GPa)
#
#
# Indices 1 2 3 4 5 6 
#
# 1 0.037825 -0.027012 -0.000054 0.006831 0.000000 0.000000
# 2 -0.027012 0.037825 -0.000054 -0.006831 0.000000 0.000000
# 3 -0.000054 -0.000054 0.010507 0.000000 0.000000 0.000000
# 4 0.006831 -0.006831 0.000000 0.039583 0.000000 0.000000
# 5 0.000000 0.000000 0.000000 0.000000 0.039583 0.013662
# 6 0.000000 0.000000 0.000000 0.000000 0.013662 0.129675
#
#
# Mechanical properties :
#
#
# Convention : Reuss Voigt Hill
#
# Bulk Modulus (GPa) = 31.33299 31.34090 31.33694
# Shear Modulus (GPa) = 13.89363 23.05226 18.47294
#
# Velocity S-wave (km/s) = 2.65250 3.41669 3.05856
# Velocity P-wave (km/s) = 5.02476 5.60679 5.32374
#
# Compressibility (1/GPa) = 0.03191524
#
# Stress axis : x y z
#
# Youngs Moduli (GPa) = 26.43766 26.43766 95.17113
#
# Poissons Ratio (x) = 0.71415 0.00516
# Poissons Ratio (y) = 0.71415 0.00516
# Poissons Ratio (z) = 0.00143 0.00143
#
# Static dielectric constant tensor:
#      x y z
#    x 1.720160 0.000000 0.000000 
#    y 0.000000 1.720160 0.000000 
#    z 0.000000 0.000000 1.693500 
# 
# From -- ./inp_files/174.got.cif
#   From: 2010.05.17/outbox.cif.g08.bks.cpg/sg152_1_cif.got.tgz:174.got - 2010.05.20 10:36:06.
