data_PCOD9575513
_publ_section_title
;
Structure prediction by ZEFSAII (Michael W. Deem and Ramdas Pophale) SiO2 
 PCOD9575513
Probable space group: P 31 1 2
;
_chemical_formula_sum "Si O2"
_cell_formula_units_Z 33
_cell_length_a 11.754181
_cell_length_b 11.754181
_cell_length_c 14.206105
_cell_angle_alpha 90.000000
_cell_angle_beta 90.000000
_cell_angle_gamma 120.000000
_cell_volume 1699.770940
_symmetry_space_group_name_H-M "P 31 1 2"
_symmetry_group_IT_number 151
_symmetry_cell_setting 'hexagonal'
loop_
_space_group_symop_operation_xyz
x,y,z
-y,x-y,1/3+z
-x+y,-x,2/3+z
-y,-x,2/3-z
-x+y,y,1/3-z
x,x-y,-z
loop_
_atom_site_type_symbol
_atom_site_label
_atom_site_fract_x
_atom_site_fract_y
_atom_site_fract_z
Si Si1 0.259425 0.284377 0.225961
Si Si2 0.890517 0.371495 0.365426
Si Si3 0.949676 0.175686 0.433417
Si Si4 0.763954 0.766508 0.217745
Si Si5 0.656221 0.312441 0.166667
Si Si6 0.502276 0.472150 0.508610
O O1 0.271767 0.171985 0.170093
O O2 0.233496 0.243007 0.334821
O O3 0.393643 0.422410 0.216128
O O4 0.146364 0.292728 0.166667
O O5 0.774547 0.225454 0.333334
O O6 0.976211 0.324019 0.422095
O O7 0.794177 0.411136 0.416411
O O8 0.977661 0.470696 0.285603
O O9 0.905672 0.094329 0.333334
O O10 0.083040 0.189861 0.473403
O O11 0.867835 0.735669 0.166667
O O12 0.623157 0.647724 0.184379
O O13 0.811335 0.408811 0.163200
#
# Coordination Sequence:
#
# PCOD9575513 Si02
#       6
#     6   6   6   6   3   6
#     4  12  23  42  69  88 124 179 223 257 316 402
#     4   9  18  35  62  86 114 166 212 252 294 395
#     4  11  20  42  64  90 118 170 223 253 307 397
#     4  12  27  36  59 101 136 156 206 281 332 368
#     4  10  18  34  62  92 124 160 208 252 320 376
#     4  11  22  38  60  94 132 159 205 266 329 370
#
# _framework density 19.414380999999999
#
# number of rings (size 3 to 8) (size 9 to 14) (size 15 to 20)
#    0.000    1.091    8.182    1.091    2.545    1.455 
#    0.000    0.000    2.000    0.000    4.727    0.000 
#    0.000    0.000    0.000    0.000    0.000    0.000 
#
# Total GULP energy -183702.399586 kJ/mol
# GULP energy per Si atom -5566.739381 kJ/mol
# Density = 1.937019 g / cm^3
# Si number density = 19.414381 Si / 1000 Ang^3
#
#
#
# Elastic Constant Matrix: (Units=GPa)
#
#
# Indices 1 2 3 4 5 6 
#
# 1 76.5277 33.1739 16.9878 0.0001 0.7646 0.0000
# 2 33.1739 76.5277 16.9878 -0.0001 -0.7646 0.0000
# 3 16.9878 16.9878 36.5862 0.0000 0.0000 0.0000
# 4 0.0001 -0.0001 0.0000 21.6029 0.0000 -0.7646
# 5 0.7646 -0.7646 0.0000 0.0000 21.6029 0.0001
# 6 0.0000 0.0000 0.0000 -0.7646 0.0001 21.6769
#
#
#
# Elastic Compliance Matrix: (Units=1/GPa)
#
#
# Indices 1 2 3 4 5 6 
#
# 1 0.016871 -0.006224 -0.004944 0.000000 -0.000817 0.000000
# 2 -0.006224 0.016871 -0.004944 0.000000 0.000817 0.000000
# 3 -0.004944 -0.004944 0.031924 0.000000 0.000000 0.000000
# 4 0.000000 0.000000 0.000000 0.046348 0.000000 0.001635
# 5 -0.000817 0.000817 0.000000 0.000000 0.046348 0.000000
# 6 0.000000 0.000000 0.000000 0.001635 0.000000 0.046190
#
#
# Mechanical properties :
#
#
# Convention : Reuss Voigt Hill
#
# Bulk Modulus (GPa) = 29.90175 35.99340 32.94757
# Shear Modulus (GPa) = 20.16774 21.14266 20.65520
#
# Velocity S-wave (km/s) = 3.22655 3.30361 3.26531
# Velocity P-wave (km/s) = 5.41443 5.75601 5.58783
#
# Compressibility (1/GPa) = 0.03344286
#
# Stress axis : x y z
#
# Youngs Moduli (GPa) = 59.27403 59.27403 31.32488
#
# Poissons Ratio (x) = 0.36893 0.15485
# Poissons Ratio (y) = 0.36893 0.15485
# Poissons Ratio (z) = 0.29302 0.29302
#
# Static dielectric constant tensor:
#      x y z
#    x 1.728060 0.000000 0.000000 
#    y 0.000000 1.728060 0.000000 
#    z 0.000000 0.000000 1.821330 
# 
# From -- ./inp_files/2889.got.cif
#   From: 2010.05.17/outbox.cif.g08.bks.cpg/sg151_2_cif.got.tgz:2889.got - 2010.05.20 10:33:20.
