data_PCOD9575019
_publ_section_title
;
Structure prediction by ZEFSAII (Michael W. Deem and Ramdas Pophale) SiO2 
 PCOD9575019
Probable space group: R -3
;
_chemical_formula_sum "Si O2"
_cell_formula_units_Z 108
_cell_length_a 23.891716
_cell_length_b 23.891716
_cell_length_c 12.232905
_cell_angle_alpha 90.000000
_cell_angle_beta 90.000000
_cell_angle_gamma 120.000000
_cell_volume 6047.208212
_symmetry_space_group_name_H-M "R -3"
_symmetry_group_IT_number 148
_symmetry_cell_setting 'hexagonal'
loop_
_space_group_symop_operation_xyz
x,y,z
-y,x-y,z
-x+y,-x,z
-x,-y,-z
y,-x+y,-z
x-y,x,-z
2/3+x,1/3+y,1/3+z
2/3-y,1/3+x-y,1/3+z
2/3-x+y,1/3-x,1/3+z
2/3-x,1/3-y,1/3-z
2/3+y,1/3-x+y,1/3-z
2/3+x-y,1/3+x,1/3-z
1/3+x,2/3+y,2/3+z
1/3-y,2/3+x-y,2/3+z
1/3-x+y,2/3-x,2/3+z
1/3-x,2/3-y,2/3-z
1/3+y,2/3-x+y,2/3-z
1/3+x-y,2/3+x,2/3-z
loop_
_atom_site_type_symbol
_atom_site_label
_atom_site_fract_x
_atom_site_fract_y
_atom_site_fract_z
Si Si1 0.516061 0.284975 0.354466
Si Si2 0.784718 0.600746 0.791762
Si Si3 0.415235 0.316501 0.839521
Si Si4 0.353837 0.362724 0.392639
Si Si5 0.867067 0.116952 0.800872
Si Si6 0.681344 0.105653 0.245490
O O1 0.571855 0.360626 0.346580
O O2 0.476773 0.260506 0.470184
O O3 0.461182 0.280057 0.270769
O O4 0.832377 0.578276 0.837037
O O5 0.715289 0.567768 0.845781
O O6 0.820458 0.678388 0.814006
O O7 0.775694 0.581569 0.663323
O O8 0.362444 0.311964 0.753563
O O9 0.386083 0.319520 0.956164
O O10 0.399474 0.334825 0.356646
O O11 0.379366 0.410427 0.495807
O O12 0.807012 0.054225 0.856506
#
# Coordination Sequence:
#
# PCOD9575019 Si02
#       6
#    18  18  18  18  18  18
#     4  10  22  40  61  85 121 162 201 243 288 354
#     4  11  20  37  59  85 115 155 194 242 292 359
#     4  11  21  35  60  84 120 153 199 234 298 354
#     4  10  18  35  57  84 113 159 186 243 299 351
#     4  10  19  37  58  82 112 155 196 237 296 340
#     4  10  19  35  58  84 123 149 195 247 296 342
#
# _framework density 17.859480999999999
#
# number of rings (size 3 to 8) (size 9 to 14) (size 15 to 20)
#    0.000    1.667    5.000    2.167    0.000    1.333 
#    3.000    3.333    0.000    0.333    0.000    0.000 
#    0.000    0.000    0.000    0.000    0.000    0.000 
#
# Total GULP energy -200628.322064 kJ/mol
# GULP energy per Si atom -5573.008946 kJ/mol
# Density = 1.781883 g / cm^3
# Si number density = 17.859481 Si / 1000 Ang^3
#
#
#
# Elastic Constant Matrix: (Units=GPa)
#
#
# Indices 1 2 3 4 5 6 
#
# 1 104.7169 49.8332 30.4576 2.5970 -0.5446 0.0000
# 2 49.8332 104.7170 30.4576 -2.5970 0.5447 0.0000
# 3 30.4576 30.4576 54.3599 0.0000 0.0003 0.0000
# 4 2.5970 -2.5970 0.0000 11.2529 0.0000 0.5446
# 5 -0.5446 0.5447 0.0003 0.0000 11.2531 2.5970
# 6 0.0000 0.0000 0.0000 0.5446 2.5970 27.4419
#
#
#
# Elastic Compliance Matrix: (Units=1/GPa)
#
#
# Indices 1 2 3 4 5 6 
#
# 1 0.013475 -0.005171 -0.004653 -0.004303 0.000903 0.000000
# 2 -0.005171 0.013475 -0.004653 0.004303 -0.000902 0.000000
# 3 -0.004653 -0.004653 0.023610 0.000000 -0.000001 0.000000
# 4 -0.004303 0.004303 0.000000 0.090939 0.000000 -0.001805
# 5 0.000903 -0.000902 -0.000001 0.000000 0.090938 -0.008606
# 6 0.000000 0.000000 0.000000 -0.001805 -0.008606 0.037291
#
#
# Mechanical properties :
#
#
# Convention : Reuss Voigt Hill
#
# Bulk Modulus (GPa) = 46.28126 53.92117 50.10122
# Shear Modulus (GPa) = 16.34614 20.19261 18.26938
#
# Velocity S-wave (km/s) = 3.02862 3.36614 3.20183
# Velocity P-wave (km/s) = 6.18065 6.73538 6.46397
#
# Compressibility (1/GPa) = 0.02160702
#
# Stress axis : x y z
#
# Youngs Moduli (GPa) = 74.21220 74.21218 42.35523
#
# Poissons Ratio (x) = 0.38372 0.19707
# Poissons Ratio (y) = 0.38372 0.19707
# Poissons Ratio (z) = 0.34530 0.34530
#
# Static dielectric constant tensor:
#      x y z
#    x 1.629070 0.000000 0.000000 
#    y 0.000000 1.629070 0.000000 
#    z 0.000000 0.000000 1.627090 
# 
# From -- ./inp_files/1581.got.cif
#   From: 2010.05.17/outbox.cif.g08.bks.cpg/sg148_1_cif.got.tgz:1581.got - 2010.05.20 13:50:20.
