data_PCOD9575575
_publ_section_title
;
Structure prediction by ZEFSAII (Michael W. Deem and Ramdas Pophale) SiO2 
 PCOD9575575
Probable space group: P 31 1 2
;
_chemical_formula_sum "Si O2"
_cell_formula_units_Z 36
_cell_length_a 11.014896
_cell_length_b 11.014896
_cell_length_c 18.568849
_cell_angle_alpha 90.000000
_cell_angle_beta 90.000000
_cell_angle_gamma 120.000000
_cell_volume 1951.086025
_symmetry_space_group_name_H-M "P 31 1 2"
_symmetry_group_IT_number 151
_symmetry_cell_setting 'hexagonal'
loop_
_space_group_symop_operation_xyz
x,y,z
-y,x-y,1/3+z
-x+y,-x,2/3+z
-y,-x,2/3-z
-x+y,y,1/3-z
x,x-y,-z
loop_
_atom_site_type_symbol
_atom_site_label
_atom_site_fract_x
_atom_site_fract_y
_atom_site_fract_z
Si Si1 0.455937 0.588175 0.022427
Si Si2 0.736327 0.592692 0.396078
Si Si3 0.305097 0.846522 0.513785
Si Si4 0.386861 0.000451 0.211428
Si Si5 0.453185 0.144821 0.569730
Si Si6 0.558364 0.736256 0.422556
O O1 0.542847 0.577055 0.957220
O O2 0.445528 0.722764 0.000000
O O3 0.521966 0.620637 0.102307
O O4 0.298547 0.462030 0.034446
O O5 0.766379 0.572877 0.313290
O O6 0.607628 0.445814 0.424716
O O7 0.662420 0.686407 0.395346
O O8 0.876539 0.649054 0.443001
O O9 0.145121 0.728765 0.494665
O O10 0.401778 0.797407 0.557593
O O11 0.333931 0.982907 0.557553
O O12 0.528662 0.057324 0.166667
O O13 0.448963 0.224482 0.500000
O O14 0.612277 0.806139 0.500000
#
# Coordination Sequence:
#
# PCOD9575575 Si02
#       6
#     6   6   6   6   6   6
#     4   9  17  29  54  83 113 133 177 235 279 329
#     4  10  22  34  55  81 115 150 188 235 284 344
#     4   9  18  33  56  84 107 141 186 235 285 327
#     4  11  21  33  51  83 115 145 180 238 292 328
#     4  10  20  36  56  79 112 155 192 224 283 351
#     4   9  18  34  56  82 107 144 188 238 277 333
#
# _framework density 18.451263999999998
#
# number of rings (size 3 to 8) (size 9 to 14) (size 15 to 20)
#    0.000    2.333    0.000    4.000    7.000    0.000 
#    0.000    0.833    0.000    0.000    0.000    0.000 
#    0.000    0.000    0.000    0.000    0.000    0.000 
#
# Total GULP energy -200543.414248 kJ/mol
# GULP energy per Si atom -5570.650396 kJ/mol
# Density = 1.840927 g / cm^3
# Si number density = 18.451264 Si / 1000 Ang^3
#
#
#
# Elastic Constant Matrix: (Units=GPa)
#
#
# Indices 1 2 3 4 5 6 
#
# 1 70.6903 34.6868 27.0413 0.0000 -2.7278 0.0000
# 2 34.6868 70.6903 27.0413 0.0000 2.7278 0.0000
# 3 27.0413 27.0413 70.7413 0.0000 0.0000 0.0000
# 4 0.0000 0.0000 0.0000 20.8516 0.0000 2.7278
# 5 -2.7278 2.7278 0.0000 0.0000 20.8516 0.0000
# 6 0.0000 0.0000 0.0000 2.7278 0.0000 18.0018
#
#
#
# Elastic Compliance Matrix: (Units=1/GPa)
#
#
# Indices 1 2 3 4 5 6 
#
# 1 0.020071 -0.008265 -0.004513 0.000000 0.003707 0.000000
# 2 -0.008265 0.020071 -0.004513 0.000000 -0.003707 0.000000
# 3 -0.004513 -0.004513 0.017586 0.000000 0.000000 0.000000
# 4 0.000000 0.000000 0.000000 0.048928 0.000000 -0.007414
# 5 0.003707 -0.003707 0.000000 0.000000 0.048928 0.000000
# 6 0.000000 0.000000 0.000000 -0.007414 0.000000 0.056674
#
#
# Mechanical properties :
#
#
# Convention : Reuss Voigt Hill
#
# Bulk Modulus (GPa) = 43.20325 43.29566 43.24945
# Shear Modulus (GPa) = 19.64204 20.16449 19.90326
#
# Velocity S-wave (km/s) = 3.26626 3.30942 3.28791
# Velocity P-wave (km/s) = 6.13924 6.17404 6.15667
#
# Compressibility (1/GPa) = 0.02314641
#
# Stress axis : x y z
#
# Youngs Moduli (GPa) = 49.82235 49.82235 56.86291
#
# Poissons Ratio (x) = 0.41180 0.25661
# Poissons Ratio (y) = 0.41180 0.25661
# Poissons Ratio (z) = 0.22484 0.22484
#
# Static dielectric constant tensor:
#      x y z
#    x 1.659780 0.000000 0.000000 
#    y 0.000000 1.659780 0.000000 
#    z 0.000000 0.000000 1.682240 
# 
# From -- ./inp_files/3458.got.cif
#   From: 2010.05.17/outbox.cif.g08.bks.cpg/sg151_2_cif.got.tgz:3458.got - 2010.05.20 10:33:20.
