data_PCOD9575841
_publ_section_title
;
Structure prediction by ZEFSAII (Michael W. Deem and Ramdas Pophale) SiO2 
 PCOD9575841
Probable space group: P 31 2 1
;
_chemical_formula_sum "Si O2"
_cell_formula_units_Z 42
_cell_length_a 8.297583
_cell_length_b 8.297583
_cell_length_c 35.407188
_cell_angle_alpha 90.000000
_cell_angle_beta 90.000000
_cell_angle_gamma 120.000000
_cell_volume 2111.180079
_symmetry_space_group_name_H-M "P 31 2 1"
_symmetry_group_IT_number 152
_symmetry_cell_setting 'hexagonal'
loop_
_space_group_symop_operation_xyz
x,y,z
-y,x-y,1/3+z
-x+y,-x,2/3+z
x-y,-y,2/3-z
-x,-x+y,1/3-z
y,x,-z
loop_
_atom_site_type_symbol
_atom_site_label
_atom_site_fract_x
_atom_site_fract_y
_atom_site_fract_z
Si Si1 0.284252 0.819612 0.264043
Si Si2 0.932213 0.516643 0.886485
Si Si3 0.557403 0.649850 0.353124
Si Si4 0.022510 0.397538 0.811077
Si Si5 0.483147 0.483147 0.000000
Si Si6 0.114819 0.690837 0.087716
Si Si7 0.709563 0.000000 0.833334
Si Si8 0.285520 0.444655 0.289083
O O1 0.390442 0.965662 0.296832
O O2 0.286680 0.633507 0.276171
O O3 0.067502 0.763039 0.260425
O O4 0.389393 0.895282 0.224270
O O5 0.757196 0.532761 0.872560
O O6 0.867977 0.319002 0.907453
O O7 0.033725 0.516622 0.847722
O O8 0.042770 0.672655 0.917655
O O9 0.547357 0.827541 0.340541
O O10 0.450015 0.580868 0.392870
O O11 0.442132 0.495432 0.320993
O O12 0.760348 0.676249 0.358753
O O13 0.908586 0.181366 0.824760
O O14 0.051572 0.626176 0.130750
#
# Coordination Sequence:
#
# PCOD9575841 Si02
#       8
#     6   6   6   6   3   6   3   6
#     4   9  19  37  59  83 110 144 183 228 282 340
#     4  11  21  36  58  83 113 148 188 232 278 335
#     4  10  20  37  58  83 112 148 189 235 284 338
#     4  10  20  36  57  82 111 146 185 229 282 332
#     4  10  20  36  60  88 120 146 184 242 288 332
#     4   9  18  34  59  83 110 146 184 222 278 344
#     4   8  18  36  54  80 114 146 182 230 280 336
#     4  10  21  37  56  79 111 149 190 229 280 334
#
# _framework density 19.894085
#
# number of rings (size 3 to 8) (size 9 to 14) (size 15 to 20)
#    0.000    2.286    0.000    2.571    0.000    3.429 
#    0.000   17.143    0.000    1.714    0.000    0.000 
#    0.000    0.000    0.000    0.000    0.000    0.000 
#
# Total GULP energy -234045.438772 kJ/mol
# GULP energy per Si atom -5572.510447 kJ/mol
# Density = 1.984881 g / cm^3
# Si number density = 19.894085 Si / 1000 Ang^3
#
#
#
# Elastic Constant Matrix: (Units=GPa)
#
#
# Indices 1 2 3 4 5 6 
#
# 1 42.5481 20.5992 39.2400 0.8836 0.0000 0.0000
# 2 20.5992 42.5481 39.2400 -0.8836 0.0000 0.0000
# 3 39.2400 39.2400 109.5517 0.0000 0.0000 0.0000
# 4 0.8836 -0.8836 0.0000 34.7665 0.0000 0.0000
# 5 0.0000 0.0000 0.0000 0.0000 34.7665 0.8836
# 6 0.0000 0.0000 0.0000 0.0000 0.8836 10.9745
#
#
#
# Elastic Compliance Matrix: (Units=1/GPa)
#
#
# Indices 1 2 3 4 5 6 
#
# 1 0.037098 -0.008556 -0.010223 -0.001160 0.000000 0.000000
# 2 -0.008556 0.037098 -0.010223 0.001160 0.000000 0.000000
# 3 -0.010223 -0.010223 0.016452 0.000000 0.000000 0.000000
# 4 -0.001160 0.001160 0.000000 0.028822 0.000000 0.000000
# 5 0.000000 0.000000 0.000000 0.000000 0.028822 -0.002321
# 6 0.000000 0.000000 0.000000 0.000000 -0.002321 0.091307
#
#
# Mechanical properties :
#
#
# Convention : Reuss Voigt Hill
#
# Bulk Modulus (GPa) = 30.63541 43.64514 37.14028
# Shear Modulus (GPa) = 16.20826 22.47275 19.34050
#
# Velocity S-wave (km/s) = 2.85744 3.36463 3.12135
# Velocity P-wave (km/s) = 5.13023 6.08939 5.63027
#
# Compressibility (1/GPa) = 0.03264196
#
# Stress axis : x y z
#
# Youngs Moduli (GPa) = 26.95590 26.95590 60.78375
#
# Poissons Ratio (x) = 0.23064 0.62141
# Poissons Ratio (y) = 0.23064 0.62141
# Poissons Ratio (z) = 0.27558 0.27558
#
# Static dielectric constant tensor:
#      x y z
#    x 1.717170 0.000000 0.000000 
#    y 0.000000 1.717170 0.000000 
#    z 0.000000 0.000000 1.717310 
# 
# From -- ./inp_files/3751.got.cif
#   From: 2010.05.17/outbox.cif.g08.bks.cpg/sg152_2_cif.got.tgz:3751.got - 2010.05.20 10:36:06.
