data_PCOD9575125
_publ_section_title
;
Structure prediction by ZEFSAII (Michael W. Deem and Ramdas Pophale) SiO2 
 PCOD9575125
Probable space group: R -3
;
_chemical_formula_sum "Si O2"
_cell_formula_units_Z 120
_cell_length_a 20.628225
_cell_length_b 20.628225
_cell_length_c 14.361882
_cell_angle_alpha 90.000000
_cell_angle_beta 90.000000
_cell_angle_gamma 120.000000
_cell_volume 5292.558967
_symmetry_space_group_name_H-M "R -3"
_symmetry_group_IT_number 148
_symmetry_cell_setting 'hexagonal'
loop_
_space_group_symop_operation_xyz
x,y,z
-y,x-y,z
-x+y,-x,z
-x,-y,-z
y,-x+y,-z
x-y,x,-z
2/3+x,1/3+y,1/3+z
2/3-y,1/3+x-y,1/3+z
2/3-x+y,1/3-x,1/3+z
2/3-x,1/3-y,1/3-z
2/3+y,1/3-x+y,1/3-z
2/3+x-y,1/3+x,1/3-z
1/3+x,2/3+y,2/3+z
1/3-y,2/3+x-y,2/3+z
1/3-x+y,2/3-x,2/3+z
1/3-x,2/3-y,2/3-z
1/3+y,2/3-x+y,2/3-z
1/3+x-y,2/3+x,2/3-z
loop_
_atom_site_type_symbol
_atom_site_label
_atom_site_fract_x
_atom_site_fract_y
_atom_site_fract_z
Si Si1 0.666668 0.333334 0.166509
Si Si2 0.372329 0.901551 0.190794
Si Si3 0.255972 0.834203 0.462214
Si Si4 0.730006 0.645279 0.488350
Si Si5 0.867003 0.992446 0.055986
Si Si6 0.672281 0.650264 0.000031
Si Si7 0.666668 0.333334 0.949239
Si Si8 0.090268 0.162807 0.384238
O O1 0.732597 0.323329 0.206795
O O2 0.666668 0.333334 0.058815
O O3 0.300226 0.898592 0.142104
O O4 0.393289 0.965984 0.268468
O O5 0.420655 0.893902 0.110152
O O6 0.338796 0.827378 0.252050
O O7 0.170772 0.791784 0.499890
O O8 0.312415 0.847477 0.546620
O O9 0.289060 0.910935 0.401204
O O10 0.252331 0.772370 0.389291
O O11 0.675197 0.618951 0.398888
O O12 0.685751 0.633895 0.586799
O O13 0.847093 0.911476 0.011276
O O14 0.647314 0.249968 0.925416
#
# Coordination Sequence:
#
# PCOD9575125 Si02
#       8
#     6  18  18  18  18  18   6  18
#     4   9  16  34  55  82 112 161 196 253 304 367
#     4   9  22  35  58  82 125 155 206 245 311 371
#     4  11  21  36  63  91 120 164 215 251 318 373
#     4  10  21  37  62  83 121 161 213 259 299 369
#     4   9  19  36  58  84 120 160 211 252 304 375
#     4   9  22  38  59  87 119 160 211 255 311 366
#     4  12  21  32  62  93 130 155 199 258 335 371
#     4  11  21  37  57  94 124 163 197 257 315 395
#
# _framework density 22.673342999999999
#
# number of rings (size 3 to 8) (size 9 to 14) (size 15 to 20)
#    0.900    1.200    1.500    2.850    2.100    1.800 
#    0.000    0.000    0.000    0.000    0.000   10.500 
#    0.000    0.000    0.000    0.000    0.000    0.000 
#
# Total GULP energy -222720.696174 kJ/mol
# GULP energy per Si atom -5568.017404 kJ/mol
# Density = 2.262174 g / cm^3
# Si number density = 22.673343 Si / 1000 Ang^3
#
#
#
# Elastic Constant Matrix: (Units=GPa)
#
#
# Indices 1 2 3 4 5 6 
#
# 1 48.0764 9.8179 17.3253 -4.5812 -0.6821 -0.0002
# 2 9.8179 48.0776 17.3235 4.5794 0.6823 0.0010
# 3 17.3253 17.3235 119.9823 -0.0003 0.0020 0.0006
# 4 -4.5812 4.5794 -0.0003 26.3730 -0.0008 0.6841
# 5 -0.6821 0.6823 0.0020 -0.0008 26.3764 -4.5815
# 6 -0.0002 0.0010 0.0006 0.6841 -4.5815 19.1278
#
#
#
# Elastic Compliance Matrix: (Units=1/GPa)
#
#
# Indices 1 2 3 4 5 6 
#
# 1 0.023103 -0.004196 -0.002730 0.004742 0.000706 0.000000
# 2 -0.004196 0.023102 -0.002730 -0.004740 -0.000706 -0.000001
# 3 -0.002730 -0.002730 0.009123 0.000000 -0.000001 0.000000
# 4 0.004742 -0.004740 0.000000 0.039601 0.000000 -0.001416
# 5 0.000706 -0.000706 -0.000001 0.000000 0.039597 0.009484
# 6 0.000000 -0.000001 0.000000 -0.001416 0.009484 0.054602
#
#
# Mechanical properties :
#
#
# Convention : Reuss Voigt Hill
#
# Bulk Modulus (GPa) = 27.76530 33.89663 30.83096
# Shear Modulus (GPa) = 22.68152 25.82008 24.25080
#
# Velocity S-wave (km/s) = 3.16628 3.37825 3.27398
# Velocity P-wave (km/s) = 5.06354 5.49538 5.28388
#
# Compressibility (1/GPa) = 0.03601617
#
# Stress axis : x y z
#
# Youngs Moduli (GPa) = 43.28482 43.28705 109.61404
#
# Poissons Ratio (x) = 0.18162 0.29927
# Poissons Ratio (y) = 0.18161 0.29921
# Poissons Ratio (z) = 0.11818 0.11816
#
# Static dielectric constant tensor:
#      x y z
#    x 1.909450 0.000000 0.000000 
#    y 0.000000 1.909470 0.000000 
#    z 0.000000 0.000000 1.891560 
# 
# From -- ./inp_files/2231.got.cif
#   From: 2010.05.17/outbox.cif.g08.bks.cpg/sg148_2_cif.got.tgz:2231.got - 2010.05.20 13:50:20.
