data_PCOD9575738
_publ_section_title
;
Structure prediction by ZEFSAII (Michael W. Deem and Ramdas Pophale) SiO2 
 PCOD9575738
Probable space group: P 31 2 1
;
_chemical_formula_sum "Si O2"
_cell_formula_units_Z 36
_cell_length_a 11.613593
_cell_length_b 11.613593
_cell_length_c 18.655775
_cell_angle_alpha 90.000000
_cell_angle_beta 90.000000
_cell_angle_gamma 120.000000
_cell_volume 2179.099851
_symmetry_space_group_name_H-M "P 31 2 1"
_symmetry_group_IT_number 152
_symmetry_cell_setting 'hexagonal'
loop_
_space_group_symop_operation_xyz
x,y,z
-y,x-y,1/3+z
-x+y,-x,2/3+z
x-y,-y,2/3-z
-x,-x+y,1/3-z
y,x,-z
loop_
_atom_site_type_symbol
_atom_site_label
_atom_site_fract_x
_atom_site_fract_y
_atom_site_fract_z
Si Si1 0.083694 0.583444 0.374495
Si Si2 0.629320 0.299623 0.907509
Si Si3 0.148627 0.726568 0.866352
Si Si4 0.220803 0.352050 0.042547
Si Si5 0.758351 0.684861 0.335355
Si Si6 0.313563 0.368200 0.421011
O O1 0.234366 0.663492 0.403485
O O2 0.056610 0.435336 0.361423
O O3 0.055593 0.636328 0.300102
O O4 0.975941 0.578998 0.430009
O O5 0.566755 0.309377 0.831641
O O6 0.508517 0.266787 0.962070
O O7 0.650650 0.172988 0.907886
O O8 0.105525 0.772012 0.794572
O O9 0.213292 0.844039 0.924034
O O10 0.071084 0.263419 0.015581
O O11 0.317053 0.317053 0.000000
O O12 0.876679 0.708110 0.282066
O O13 0.320405 0.320405 0.500000
#
# Coordination Sequence:
#
# PCOD9575738 Si02
#       6
#     6   6   6   6   6   6
#     4  10  18  34  55  84 111 143 181 237 278 334
#     4   9  20  33  55  84 111 146 184 233 288 323
#     4   9  20  34  55  82 110 144 186 223 283 331
#     4  10  21  38  56  80 113 150 187 232 271 335
#     4  10  19  35  56  80 110 151 189 222 273 339
#     4  10  19  34  56  84 114 146 190 234 281 329
#
# _framework density 16.520582000000001
#
# number of rings (size 3 to 8) (size 9 to 14) (size 15 to 20)
#    1.000    1.333    1.667    1.500    0.000    1.333 
#    6.000    1.667    0.000    6.000    0.000    0.000 
#    0.000    0.000    0.000    0.000    0.000    0.000 
#
# Total GULP energy -200445.595526 kJ/mol
# GULP energy per Si atom -5567.933209 kJ/mol
# Density = 1.648298 g / cm^3
# Si number density = 16.520582 Si / 1000 Ang^3
#
#
#
# Elastic Constant Matrix: (Units=GPa)
#
#
# Indices 1 2 3 4 5 6 
#
# 1 58.4583 23.3482 30.4180 8.5901 0.0000 0.0000
# 2 23.3482 58.4583 30.4180 -8.5901 0.0000 0.0000
# 3 30.4180 30.4180 84.0252 0.0000 0.0000 0.0000
# 4 8.5901 -8.5901 0.0000 24.3215 0.0000 0.0000
# 5 0.0000 0.0000 0.0000 0.0000 24.3215 8.5901
# 6 0.0000 0.0000 0.0000 0.0000 8.5901 17.5551
#
#
#
# Elastic Compliance Matrix: (Units=1/GPa)
#
#
# Indices 1 2 3 4 5 6 
#
# 1 0.025580 -0.008853 -0.006055 -0.012161 0.000000 0.000000
# 2 -0.008853 0.025580 -0.006055 0.012161 0.000000 0.000000
# 3 -0.006055 -0.006055 0.016285 0.000000 0.000000 0.000000
# 4 -0.012161 0.012161 0.000000 0.049706 0.000000 0.000000
# 5 0.000000 0.000000 0.000000 0.000000 0.049706 -0.024322
# 6 0.000000 0.000000 0.000000 0.000000 -0.024322 0.068865
#
#
# Mechanical properties :
#
#
# Convention : Reuss Voigt Hill
#
# Bulk Modulus (GPa) = 39.18790 41.03446 40.11118
# Shear Modulus (GPa) = 17.47302 21.02345 19.24824
#
# Velocity S-wave (km/s) = 3.25568 3.57117 3.41707
# Velocity P-wave (km/s) = 6.15669 6.47276 6.31670
#
# Compressibility (1/GPa) = 0.02551808
#
# Stress axis : x y z
#
# Youngs Moduli (GPa) = 39.09333 39.09333 61.40459
#
# Poissons Ratio (x) = 0.34608 0.37183
# Poissons Ratio (y) = 0.34608 0.37183
# Poissons Ratio (z) = 0.23673 0.23673
#
# Static dielectric constant tensor:
#      x y z
#    x 1.541360 0.000000 0.000000 
#    y 0.000000 1.541360 0.000000 
#    z 0.000000 0.000000 1.566890 
# 
# From -- ./inp_files/2397.got.cif
#   From: 2010.05.17/outbox.cif.g08.bks.cpg/sg152_2_cif.got.tgz:2397.got - 2010.05.20 10:36:06.
