data_PCOD9575753
_publ_section_title
;
Structure prediction by ZEFSAII (Michael W. Deem and Ramdas Pophale) SiO2 
 PCOD9575753
Probable space group: P 31 2 1
;
_chemical_formula_sum "Si O2"
_cell_formula_units_Z 36
_cell_length_a 8.933325
_cell_length_b 8.933325
_cell_length_c 22.969747
_cell_angle_alpha 90.000000
_cell_angle_beta 90.000000
_cell_angle_gamma 120.000000
_cell_volume 1587.497726
_symmetry_space_group_name_H-M "P 31 2 1"
_symmetry_group_IT_number 152
_symmetry_cell_setting 'hexagonal'
loop_
_space_group_symop_operation_xyz
x,y,z
-y,x-y,1/3+z
-x+y,-x,2/3+z
x-y,-y,2/3-z
-x,-x+y,1/3-z
y,x,-z
loop_
_atom_site_type_symbol
_atom_site_label
_atom_site_fract_x
_atom_site_fract_y
_atom_site_fract_z
Si Si1 0.782420 0.000000 0.333334
Si Si2 0.072666 0.621694 0.085738
Si Si3 0.000000 0.349355 0.166667
Si Si4 0.007747 0.248490 0.425892
Si Si5 0.182641 0.620760 0.736197
Si Si6 0.542031 0.934467 0.042519
Si Si7 0.681041 0.011372 0.494154
O O1 0.837822 0.910069 0.285448
O O2 0.597252 0.862126 0.360200
O O3 0.943538 0.438634 0.115950
O O4 0.251882 0.621848 0.097600
O O5 0.101420 0.800051 0.111632
O O6 0.034939 0.621151 0.017345
O O7 0.149323 0.310218 0.148838
O O8 0.037455 0.417416 0.390262
O O9 0.855090 0.180968 0.473537
O O10 0.233622 0.496500 0.701813
O O11 0.029397 0.549375 0.784272
O O12 0.640377 0.989230 0.104152
#
# Coordination Sequence:
#
# PCOD9575753 Si02
#       7
#     3   6   3   6   6   6   6
#     4  10  18  38  62  88 128 168 212 268 328 408
#     4  10  22  39  62  91 125 170 217 276 325 401
#     4  10  24  42  60  88 132 174 216 270 352 384
#     4  10  22  38  63  93 128 168 223 271 333 402
#     4   9  20  37  57  93 122 165 212 264 332 380
#     4  11  21  37  65  94 125 165 224 270 331 396
#     4  10  22  39  64  89 128 175 214 274 332 405
#
# _framework density 22.677199000000002
#
# number of rings (size 3 to 8) (size 9 to 14) (size 15 to 20)
#    0.000    2.000    1.667    1.000    4.667    0.667 
#    0.000    5.833    0.000    0.000    0.000    0.000 
#    0.000    0.000    0.000    0.000    0.000    0.000 
#
# Total GULP energy -200426.533677 kJ/mol
# GULP energy per Si atom -5567.403713 kJ/mol
# Density = 2.262558 g / cm^3
# Si number density = 22.677199 Si / 1000 Ang^3
#
#
#
# Elastic Constant Matrix: (Units=GPa)
#
#
# Indices 1 2 3 4 5 6 
#
# 1 85.4907 35.2935 22.5306 -3.4653 0.0000 0.0000
# 2 35.2935 85.4907 22.5306 3.4653 0.0000 0.0000
# 3 22.5306 22.5306 88.9191 0.0000 0.0000 0.0000
# 4 -3.4653 3.4653 0.0000 25.9744 0.0000 0.0000
# 5 0.0000 0.0000 0.0000 0.0000 25.9744 -3.4653
# 6 0.0000 0.0000 0.0000 0.0000 -3.4653 25.0986
#
#
#
# Elastic Compliance Matrix: (Units=1/GPa)
#
#
# Indices 1 2 3 4 5 6 
#
# 1 0.014719 -0.005576 -0.002317 0.002708 0.000000 0.000000
# 2 -0.005576 0.014719 -0.002317 -0.002708 0.000000 0.000000
# 3 -0.002317 -0.002317 0.012420 0.000000 0.000000 0.000000
# 4 0.002708 -0.002708 0.000000 0.039222 0.000000 0.000000
# 5 0.000000 0.000000 0.000000 0.000000 0.039222 0.005415
# 6 0.000000 0.000000 0.000000 0.000000 0.005415 0.040591
#
#
# Mechanical properties :
#
#
# Convention : Reuss Voigt Hill
#
# Bulk Modulus (GPa) = 46.64158 46.73445 46.68802
# Shear Modulus (GPa) = 26.53095 27.37920 26.95508
#
# Velocity S-wave (km/s) = 3.42415 3.47846 3.45141
# Velocity P-wave (km/s) = 6.02041 6.06516 6.04283
#
# Compressibility (1/GPa) = 0.02144010
#
# Stress axis : x y z
#
# Youngs Moduli (GPa) = 67.93747 67.93747 80.51357
#
# Poissons Ratio (x) = 0.37881 0.18654
# Poissons Ratio (y) = 0.37881 0.18654
# Poissons Ratio (z) = 0.15740 0.15740
#
# Static dielectric constant tensor:
#      x y z
#    x 1.910150 0.000000 0.000000 
#    y 0.000000 1.910150 0.000000 
#    z 0.000000 0.000000 1.953100 
# 
# From -- ./inp_files/3431.got.cif
#   From: 2010.05.17/outbox.cif.g08.bks.cpg/sg152_2_cif.got.tgz:3431.got - 2010.05.20 10:36:06.
