data_PCOD9575871
_publ_section_title
;
Structure prediction by ZEFSAII (Michael W. Deem and Ramdas Pophale) SiO2 
 PCOD9575871
Probable space group: P 31 2 1
;
_chemical_formula_sum "Si O2"
_cell_formula_units_Z 45
_cell_length_a 16.404227
_cell_length_b 16.404227
_cell_length_c 9.043477
_cell_angle_alpha 90.000000
_cell_angle_beta 90.000000
_cell_angle_gamma 120.000000
_cell_volume 2107.548661
_symmetry_space_group_name_H-M "P 31 2 1"
_symmetry_group_IT_number 152
_symmetry_cell_setting 'hexagonal'
loop_
_space_group_symop_operation_xyz
x,y,z
-y,x-y,1/3+z
-x+y,-x,2/3+z
x-y,-y,2/3-z
-x,-x+y,1/3-z
y,x,-z
loop_
_atom_site_type_symbol
_atom_site_label
_atom_site_fract_x
_atom_site_fract_y
_atom_site_fract_z
Si Si1 0.765224 0.271593 0.868308
Si Si2 0.796096 0.900898 0.805673
Si Si3 0.643420 0.916444 0.620193
Si Si4 0.427192 0.427192 0.500000
Si Si5 0.647383 0.759896 0.026399
Si Si6 0.069941 0.176557 0.043208
Si Si7 0.813141 0.197495 0.304978
Si Si8 0.624442 0.443441 0.486622
O O1 0.743829 0.177380 0.959239
O O2 0.825726 0.276201 0.728011
O O3 0.664528 0.262872 0.839106
O O4 0.823611 0.354266 0.981988
O O5 0.740169 0.925246 0.680845
O O6 0.725805 0.852645 0.940991
O O7 0.835687 0.834146 0.757608
O O8 0.886720 0.000000 0.833334
O O9 0.632973 0.000942 0.690525
O O10 0.619004 0.892232 0.446818
O O11 0.529550 0.442520 0.523280
O O12 0.685232 0.685232 0.000000
O O13 0.629258 0.788825 0.189106
O O14 0.107127 0.283732 0.093551
O O15 0.000000 0.106073 0.166667
O O16 0.148308 0.148308 0.000000
O O17 0.811005 0.289032 0.247791
#
# Coordination Sequence:
#
# PCOD9575871 Si02
#       8
#     6   6   6   3   6   6   6   6
#     4   9  22  43  68 102 131 179 224 284 359 444
#     4  11  22  39  66  86 143 199 240 284 352 433
#     4   9  19  40  65  94 131 178 234 279 352 423
#     4  10  20  38  70 108 126 178 236 294 360 442
#     4  11  24  41  68 105 143 183 237 299 373 429
#     4  12  26  41  62 101 143 193 255 299 352 427
#     4  11  24  42  68 104 138 184 236 305 358 437
#     4  10  23  42  76  97 134 179 237 286 367 448
#
# _framework density 21.351818999999999
#
# number of rings (size 3 to 8) (size 9 to 14) (size 15 to 20)
#    0.000    1.600    3.333    0.400    4.667    1.600 
#    0.000    2.667    0.000    0.000    0.000    0.000 
#    0.000    0.000    0.000    0.000    0.000    0.000 
#
# Total GULP energy -250550.340728 kJ/mol
# GULP energy per Si atom -5567.785350 kJ/mol
# Density = 2.130322 g / cm^3
# Si number density = 21.351819 Si / 1000 Ang^3
#
#
#
# Elastic Constant Matrix: (Units=GPa)
#
#
# Indices 1 2 3 4 5 6 
#
# 1 65.5924 23.1262 12.0726 -0.4884 0.0000 0.0000
# 2 23.1262 65.5924 12.0726 0.4884 0.0000 0.0000
# 3 12.0726 12.0726 123.5432 0.0000 0.0000 0.0000
# 4 -0.4884 0.4884 0.0000 23.5425 0.0000 0.0000
# 5 0.0000 0.0000 0.0000 0.0000 23.5425 -0.4884
# 6 0.0000 0.0000 0.0000 0.0000 -0.4884 21.2331
#
#
#
# Elastic Compliance Matrix: (Units=1/GPa)
#
#
# Indices 1 2 3 4 5 6 
#
# 1 0.017569 -0.005990 -0.001132 0.000489 0.000000 0.000000
# 2 -0.005990 0.017569 -0.001132 -0.000489 0.000000 0.000000
# 3 -0.001132 -0.001132 0.008315 0.000000 0.000000 0.000000
# 4 0.000489 -0.000489 0.000000 0.042497 0.000000 0.000000
# 5 0.000000 0.000000 0.000000 0.000000 0.042497 0.000977
# 6 0.000000 0.000000 0.000000 0.000000 0.000977 0.047119
#
#
# Mechanical properties :
#
#
# Convention : Reuss Voigt Hill
#
# Bulk Modulus (GPa) = 37.10800 38.80789 37.95795
# Shear Modulus (GPa) = 24.86877 27.49405 26.18141
#
# Velocity S-wave (km/s) = 3.41649 3.59230 3.50550
# Velocity P-wave (km/s) = 5.74285 5.95156 5.84814
#
# Compressibility (1/GPa) = 0.02694836
#
# Stress axis : x y z
#
# Youngs Moduli (GPa) = 56.91695 56.91695 120.25760
#
# Poissons Ratio (x) = 0.34093 0.13608
# Poissons Ratio (y) = 0.34093 0.13608
# Poissons Ratio (z) = 0.06440 0.06440
#
# Static dielectric constant tensor:
#      x y z
#    x 1.811490 0.000000 0.000000 
#    y 0.000000 1.811490 0.000000 
#    z 0.000000 0.000000 1.887730 
# 
# From -- ./inp_files/1336.got.cif
#   From: 2010.05.17/outbox.cif.g08.bks.cpg/sg152_1_cif.got.tgz:1336.got - 2010.05.20 10:36:06.
