data_PCOD9575309
_publ_section_title
;
Structure prediction by ZEFSAII (Michael W. Deem and Ramdas Pophale) SiO2 
 PCOD9575309
Probable space group: R -3
;
_chemical_formula_sum "Si O2"
_cell_formula_units_Z 108
_cell_length_a 14.333646
_cell_length_b 14.333646
_cell_length_c 28.987303
_cell_angle_alpha 90.000000
_cell_angle_beta 90.000000
_cell_angle_gamma 120.000000
_cell_volume 5157.649089
_symmetry_space_group_name_H-M "R -3"
_symmetry_group_IT_number 148
_symmetry_cell_setting 'hexagonal'
loop_
_space_group_symop_operation_xyz
x,y,z
-y,x-y,z
-x+y,-x,z
-x,-y,-z
y,-x+y,-z
x-y,x,-z
2/3+x,1/3+y,1/3+z
2/3-y,1/3+x-y,1/3+z
2/3-x+y,1/3-x,1/3+z
2/3-x,1/3-y,1/3-z
2/3+y,1/3-x+y,1/3-z
2/3+x-y,1/3+x,1/3-z
1/3+x,2/3+y,2/3+z
1/3-y,2/3+x-y,2/3+z
1/3-x+y,2/3-x,2/3+z
1/3-x,2/3-y,2/3-z
1/3+y,2/3-x+y,2/3-z
1/3+x-y,2/3+x,2/3-z
loop_
_atom_site_type_symbol
_atom_site_label
_atom_site_fract_x
_atom_site_fract_y
_atom_site_fract_z
Si Si1 0.100061 0.249785 0.291905
Si Si2 0.664443 0.924702 0.863332
Si Si3 0.785776 0.235225 0.763936
Si Si4 0.985628 0.483339 0.178018
Si Si5 0.804172 0.226331 0.936224
Si Si6 0.095756 0.248567 0.706620
O O1 0.166667 0.333334 0.333334
O O2 0.140542 0.330355 0.249262
O O3 0.143589 0.166575 0.290309
O O4 0.972084 0.186705 0.291864
O O5 0.666667 0.833334 0.833334
O O6 0.555778 0.924896 0.847869
O O7 0.655342 0.891366 0.917548
O O8 0.766875 0.041383 0.850202
O O9 0.791857 0.227667 0.818820
O O10 0.671380 0.198014 0.741343
O O11 0.875590 0.346578 0.741310
O O12 0.005174 0.459857 0.230313
O O13 0.848422 0.227928 0.986916
#
# Coordination Sequence:
#
# PCOD9575309 Si02
#       6
#    18  18  18  18  18  18
#     4  12  23  42  66 100 149 181 235 298 360 440
#     4  12  28  49  73 104 143 200 258 305 378 447
#     4  12  22  41  65 102 149 189 232 294 364 445
#     4  12  24  47  70 100 146 193 242 307 368 442
#     4  12  22  37  69 104 145 185 234 296 373 444
#     4  12  25  40  70 103 140 188 237 298 371 436
#
# _framework density 20.939772000000001
#
# number of rings (size 3 to 8) (size 9 to 14) (size 15 to 20)
#    0.000    0.000    8.333    1.667    0.000    0.000 
#    1.000    1.667    0.000    0.000    0.000    1.167 
#    0.000    0.000    0.000    0.000    0.000    0.000 
#
# Total GULP energy -200819.241783 kJ/mol
# GULP energy per Si atom -5578.312272 kJ/mol
# Density = 2.089211 g / cm^3
# Si number density = 20.939772 Si / 1000 Ang^3
#
#
#
# Elastic Constant Matrix: (Units=GPa)
#
#
# Indices 1 2 3 4 5 6 
#
# 1 100.9899 34.5603 40.4902 5.6462 1.2240 0.0000
# 2 34.5603 100.9899 40.4902 -5.6462 -1.2240 0.0000
# 3 40.4902 40.4902 169.4865 0.0000 0.0000 0.0000
# 4 5.6462 -5.6462 0.0000 32.6077 0.0000 -1.2240
# 5 1.2240 -1.2240 0.0000 0.0000 32.6077 5.6462
# 6 0.0000 0.0000 0.0000 -1.2240 5.6462 33.2148
#
#
#
# Elastic Compliance Matrix: (Units=1/GPa)
#
#
# Indices 1 2 3 4 5 6 
#
# 1 0.012069 -0.003463 -0.002056 -0.002689 -0.000583 0.000000
# 2 -0.003463 0.012069 -0.002056 0.002689 0.000583 0.000000
# 3 -0.002056 -0.002056 0.006882 0.000000 0.000000 0.000000
# 4 -0.002689 0.002689 0.000000 0.031643 0.000000 0.001166
# 5 -0.000583 0.000583 0.000000 0.000000 0.031643 -0.005379
# 6 0.000000 0.000000 0.000000 0.001166 -0.005379 0.031064
#
#
# Mechanical properties :
#
#
# Convention : Reuss Voigt Hill
#
# Bulk Modulus (GPa) = 63.01147 66.94974 64.98061
# Shear Modulus (GPa) = 34.29111 36.74773 35.51942
#
# Velocity S-wave (km/s) = 4.05113 4.19373 4.12304
# Velocity P-wave (km/s) = 7.21382 7.44928 7.33250
#
# Compressibility (1/GPa) = 0.01587013
#
# Stress axis : x y z
#
# Youngs Moduli (GPa) = 82.85766 82.85766 145.29680
#
# Poissons Ratio (x) = 0.28696 0.29871
# Poissons Ratio (y) = 0.28696 0.29871
# Poissons Ratio (z) = 0.17034 0.17034
#
# Static dielectric constant tensor:
#      x y z
#    x 1.785720 0.000000 0.000000 
#    y 0.000000 1.785720 0.000000 
#    z 0.000000 0.000000 1.967390 
# 
# From -- ./inp_files/4001.got.cif
#   From: 2010.05.17/outbox.cif.g08.bks.cpg/sg148_3_cif.got.tgz:4001.got - 2010.05.20 13:50:20.
