data_PCOD9575381
_publ_section_title
;
Structure prediction by ZEFSAII (Michael W. Deem and Ramdas Pophale) SiO2 
 PCOD9575381
Probable space group: P 3 1 2
;
_chemical_formula_sum "Si O2"
_cell_formula_units_Z 32
_cell_length_a 16.244593
_cell_length_b 16.244593
_cell_length_c 8.223008
_cell_angle_alpha 90.000000
_cell_angle_beta 90.000000
_cell_angle_gamma 120.000000
_cell_volume 1879.226007
_symmetry_space_group_name_H-M "P 3 1 2"
_symmetry_group_IT_number 149
_symmetry_cell_setting 'hexagonal'
loop_
_space_group_symop_operation_xyz
x,y,z
-y,x-y,z
-x+y,-x,z
-y,-x,-z
-x+y,y,-z
x,x-y,-z
loop_
_atom_site_type_symbol
_atom_site_label
_atom_site_fract_x
_atom_site_fract_y
_atom_site_fract_z
Si Si1 0.333335 0.666668 0.195313
Si Si2 0.823890 0.858621 0.336157
Si Si3 0.628471 0.892120 0.787060
Si Si4 0.639391 0.708245 0.830195
Si Si5 0.119444 0.565313 0.307817
Si Si6 0.853138 0.038100 0.166773
O O1 0.228941 0.636120 0.258030
O O2 0.333334 0.666667 0.000000
O O3 0.826698 0.913349 0.500000
O O4 0.722929 0.763832 0.313313
O O5 0.903534 0.830904 0.308116
O O6 0.838588 0.932079 0.187861
O O7 0.619482 0.789313 0.755111
O O8 0.536937 0.899818 0.748754
O O9 0.642727 0.915179 0.977678
O O10 0.550093 0.609341 0.772447
O O11 0.746239 0.729864 0.797262
O O12 0.109431 0.554716 0.500000
O O13 0.903266 0.096735 0.000000
#
# Coordination Sequence:
#
# PCOD9575381 Si02
#       6
#     2   6   6   6   6   6
#     4  12  22  35  55  72 109 158 199 231 286 353
#     4  11  23  36  58  85 117 155 195 253 305 352
#     4  10  21  36  55  79 112 151 196 240 288 347
#     4  10  21  37  57  80 108 158 197 244 287 352
#     4  12  24  35  55  83 114 152 198 245 295 347
#     4  11  21  39  58  80 112 154 209 245 295 362
#
# _framework density 17.028286000000001
#
# number of rings (size 3 to 8) (size 9 to 14) (size 15 to 20)
#    0.000    1.125    3.750    3.750    5.250    0.000 
#    0.000    0.000    0.000    0.000    0.000    0.000 
#    1.875    0.375    0.000    0.000    0.000    0.000 
#
# Total GULP energy -178414.209070 kJ/mol
# GULP energy per Si atom -5575.444033 kJ/mol
# Density = 1.698953 g / cm^3
# Si number density = 17.028286 Si / 1000 Ang^3
#
#
#
# Elastic Constant Matrix: (Units=GPa)
#
#
# Indices 1 2 3 4 5 6 
#
# 1 105.1079 49.7635 27.2307 0.0001 -1.8533 0.0002
# 2 49.7635 105.1082 27.2310 0.0002 1.8536 -0.0002
# 3 27.2307 27.2310 80.7715 0.0002 0.0001 0.0002
# 4 0.0001 0.0002 0.0002 21.5980 0.0002 1.8535
# 5 -1.8533 1.8536 0.0001 0.0002 21.5977 0.0002
# 6 0.0002 -0.0002 0.0002 1.8535 0.0002 27.6721
#
#
#
# Elastic Compliance Matrix: (Units=1/GPa)
#
#
# Indices 1 2 3 4 5 6 
#
# 1 0.012749 -0.005424 -0.002470 0.000000 0.001560 0.000000
# 2 -0.005424 0.012749 -0.002470 0.000000 -0.001560 0.000000
# 3 -0.002470 -0.002470 0.014046 0.000000 0.000000 0.000000
# 4 0.000000 0.000000 0.000000 0.046568 0.000000 -0.003119
# 5 0.001560 -0.001560 0.000000 0.000000 0.046569 0.000000
# 6 0.000000 0.000000 0.000000 -0.003119 0.000000 0.036346
#
#
# Mechanical properties :
#
#
# Convention : Reuss Voigt Hill
#
# Bulk Modulus (GPa) = 53.14042 55.49309 54.31676
# Shear Modulus (GPa) = 25.50669 26.62438 26.06553
#
# Velocity S-wave (km/s) = 3.87447 3.95845 3.91669
# Velocity P-wave (km/s) = 7.16172 7.31792 7.24024
#
# Compressibility (1/GPa) = 0.01881807
#
# Stress axis : x y z
#
# Youngs Moduli (GPa) = 78.43592 78.43596 71.19559
#
# Poissons Ratio (x) = 0.42542 0.17583
# Poissons Ratio (y) = 0.42542 0.17583
# Poissons Ratio (z) = 0.19371 0.19371
#
# Static dielectric constant tensor:
#      x y z
#    x 1.605380 0.000000 0.000000 
#    y 0.000000 1.605380 0.000000 
#    z 0.000000 0.000000 1.721510 
# 
# From -- ./inp_files/614.got.cif
#   From: 2010.05.17/outbox.cif.g08.bks.cpg/sg149_cif.got.tgz:614.got - 2010.05.20 13:52:34.
