data_PCOD9575808
_publ_section_title
;
Structure prediction by ZEFSAII (Michael W. Deem and Ramdas Pophale) SiO2 
 PCOD9575808
Probable space group: P 31 2 1
;
_chemical_formula_sum "Si O2"
_cell_formula_units_Z 36
_cell_length_a 9.300919
_cell_length_b 9.300919
_cell_length_c 22.761363
_cell_angle_alpha 90.000000
_cell_angle_beta 90.000000
_cell_angle_gamma 120.000000
_cell_volume 1705.220799
_symmetry_space_group_name_H-M "P 31 2 1"
_symmetry_group_IT_number 152
_symmetry_cell_setting 'hexagonal'
loop_
_space_group_symop_operation_xyz
x,y,z
-y,x-y,1/3+z
-x+y,-x,2/3+z
x-y,-y,2/3-z
-x,-x+y,1/3-z
y,x,-z
loop_
_atom_site_type_symbol
_atom_site_label
_atom_site_fract_x
_atom_site_fract_y
_atom_site_fract_z
Si Si1 0.417330 0.032938 0.625643
Si Si2 0.264869 0.051911 0.161025
Si Si3 0.489808 0.750067 0.611945
Si Si4 0.706419 0.311022 0.556205
Si Si5 0.717390 0.163445 0.797322
Si Si6 0.190262 0.345073 0.155676
O O1 0.300839 0.998984 0.569314
O O2 0.421897 0.865012 0.638962
O O3 0.375501 0.113926 0.680612
O O4 0.600669 0.188285 0.608491
O O5 0.431396 0.151596 0.198953
O O6 0.203095 0.181482 0.148535
O O7 0.159558 0.888040 0.201038
O O8 0.361308 0.557718 0.593636
O O9 0.566684 0.843595 0.550379
O O10 0.570740 0.253146 0.504208
O O11 0.785567 0.510433 0.559884
O O12 0.591009 0.000000 0.833334
O O13 0.000000 0.286256 0.166667
#
# Coordination Sequence:
#
# PCOD9575808 Si02
#       6
#     6   6   6   6   6   6
#     4  11  24  38  66  92 130 166 216 272 325 383
#     4  11  20  41  66  95 118 169 219 265 302 386
#     4  11  23  40  61  94 128 168 211 269 330 380
#     4  10  19  39  64  88 116 167 217 254 300 383
#     4  10  21  37  64  91 123 165 215 256 314 385
#     4  11  22  39  68  93 127 165 219 261 320 386
#
# _framework density 21.111633999999999
#
# number of rings (size 3 to 8) (size 9 to 14) (size 15 to 20)
#    0.000    1.333    5.000    3.500    7.000    0.000 
#    0.000    1.667    0.000    0.000    0.000    0.000 
#    0.000    0.000    0.000    0.000    0.000    0.000 
#
# Total GULP energy -200592.149696 kJ/mol
# GULP energy per Si atom -5572.004158 kJ/mol
# Density = 2.106358 g / cm^3
# Si number density = 21.111634 Si / 1000 Ang^3
#
#
#
# Elastic Constant Matrix: (Units=GPa)
#
#
# Indices 1 2 3 4 5 6 
#
# 1 113.2528 33.2488 13.5742 5.6180 0.0001 0.0000
# 2 33.2488 113.2528 13.5742 -5.6180 -0.0001 0.0000
# 3 13.5742 13.5742 55.6829 0.0000 0.0000 0.0000
# 4 5.6180 -5.6180 0.0000 22.9820 0.0000 -0.0001
# 5 0.0001 -0.0001 0.0000 0.0000 22.9820 5.6180
# 6 0.0000 0.0000 0.0000 -0.0001 5.6180 40.0020
#
#
#
# Elastic Compliance Matrix: (Units=1/GPa)
#
#
# Indices 1 2 3 4 5 6 
#
# 1 0.010046 -0.002897 -0.001743 -0.003164 0.000000 0.000000
# 2 -0.002897 0.010046 -0.001743 0.003164 0.000000 0.000000
# 3 -0.001743 -0.001743 0.018808 0.000000 0.000000 0.000000
# 4 -0.003164 0.003164 0.000000 0.045059 0.000000 0.000000
# 5 0.000000 0.000000 0.000000 0.000000 0.045059 -0.006328
# 6 0.000000 0.000000 0.000000 0.000000 -0.006328 0.025887
#
#
# Mechanical properties :
#
#
# Convention : Reuss Voigt Hill
#
# Bulk Modulus (GPa) = 38.26251 44.77590 41.51920
# Shear Modulus (GPa) = 28.34716 31.97930 30.16323
#
# Velocity S-wave (km/s) = 3.66830 3.89623 3.78398
# Velocity P-wave (km/s) = 6.00875 6.44174 6.22901
#
# Compressibility (1/GPa) = 0.02613525
#
# Stress axis : x y z
#
# Youngs Moduli (GPa) = 99.53940 99.53940 53.16749
#
# Poissons Ratio (x) = 0.28841 0.09266
# Poissons Ratio (y) = 0.28841 0.09266
# Poissons Ratio (z) = 0.17347 0.17347
#
# Static dielectric constant tensor:
#      x y z
#    x 1.814040 0.000000 0.000000 
#    y 0.000000 1.814040 0.000000 
#    z 0.000000 0.000000 1.929600 
# 
# From -- ./inp_files/3421.got.cif
#   From: 2010.05.17/outbox.cif.g08.bks.cpg/sg152_2_cif.got.tgz:3421.got - 2010.05.20 10:36:06.
