data_PCOD9575580
_publ_section_title
;
Structure prediction by ZEFSAII (Michael W. Deem and Ramdas Pophale) SiO2 
 PCOD9575580
Probable space group: P 31 1 2
;
_chemical_formula_sum "Si O2"
_cell_formula_units_Z 36
_cell_length_a 9.361357
_cell_length_b 9.361357
_cell_length_c 26.346448
_cell_angle_alpha 90.000000
_cell_angle_beta 90.000000
_cell_angle_gamma 120.000000
_cell_volume 1999.541026
_symmetry_space_group_name_H-M "P 31 1 2"
_symmetry_group_IT_number 151
_symmetry_cell_setting 'hexagonal'
loop_
_space_group_symop_operation_xyz
x,y,z
-y,x-y,1/3+z
-x+y,-x,2/3+z
-y,-x,2/3-z
-x+y,y,1/3-z
x,x-y,-z
loop_
_atom_site_type_symbol
_atom_site_label
_atom_site_fract_x
_atom_site_fract_y
_atom_site_fract_z
Si Si1 0.251682 0.397847 0.369057
Si Si2 0.891908 0.814143 0.364267
Si Si3 0.307348 0.317335 0.877207
Si Si4 0.326780 0.570315 0.060652
Si Si5 0.324772 0.924725 0.236865
Si Si6 0.207023 0.248164 0.115039
O O1 0.283896 0.267403 0.339147
O O2 0.394937 0.567200 0.393815
O O3 0.181962 0.478336 0.327172
O O4 0.125708 0.302777 0.413960
O O5 0.955618 0.708368 0.394653
O O6 0.834416 0.906598 0.403927
O O7 0.046224 0.953776 0.333334
O O8 0.473164 0.482450 0.893237
O O9 0.257378 0.338332 0.820199
O O10 0.319655 0.154116 0.880745
O O11 0.307650 0.441120 0.102807
O O12 0.491237 0.743536 0.071125
O O13 0.108519 0.217038 0.166667
#
# Coordination Sequence:
#
# PCOD9575580 Si02
#       6
#     6   6   6   6   6   6
#     4   9  19  37  58  84 116 156 200 252 297 357
#     4  11  21  35  62  88 118 155 209 256 298 362
#     4  10  20  37  58  86 124 158 195 247 313 364
#     4   9  21  36  62  86 116 155 209 245 294 373
#     4  10  22  37  61  90 121 163 201 254 309 367
#     4  11  21  37  61  88 114 160 201 244 300 367
#
# _framework density 18.004131000000001
#
# number of rings (size 3 to 8) (size 9 to 14) (size 15 to 20)
#    0.000    2.000    3.333    0.000    9.333    0.000 
#    0.000    0.000   14.667    4.000    0.000    0.000 
#    0.000    0.000    0.000    0.000    0.000    0.000 
#
# Total GULP energy -200461.347625 kJ/mol
# GULP energy per Si atom -5568.370767 kJ/mol
# Density = 1.796315 g / cm^3
# Si number density = 18.004131 Si / 1000 Ang^3
#
#
#
# Elastic Constant Matrix: (Units=GPa)
#
#
# Indices 1 2 3 4 5 6 
#
# 1 73.9146 31.0919 42.2240 -0.0002 -3.8537 0.0000
# 2 31.0919 73.9146 42.2240 0.0002 3.8537 0.0000
# 3 42.2240 42.2240 92.7157 0.0000 0.0000 0.0000
# 4 -0.0002 0.0002 0.0000 32.3667 0.0000 3.8537
# 5 -3.8537 3.8537 0.0000 0.0000 32.3667 -0.0002
# 6 0.0000 0.0000 0.0000 3.8537 -0.0002 21.4114
#
#
#
# Elastic Compliance Matrix: (Units=1/GPa)
#
#
# Indices 1 2 3 4 5 6 
#
# 1 0.019445 -0.004418 -0.006843 0.000000 0.002841 0.000000
# 2 -0.004418 0.019445 -0.006843 0.000000 -0.002841 0.000000
# 3 -0.006843 -0.006843 0.017019 0.000000 0.000000 0.000000
# 4 0.000000 0.000000 0.000000 0.031573 0.000000 -0.005682
# 5 0.002841 -0.002841 0.000000 0.000000 0.031573 0.000000
# 6 0.000000 0.000000 0.000000 -0.005682 0.000000 0.047727
#
#
# Mechanical properties :
#
#
# Convention : Reuss Voigt Hill
#
# Bulk Modulus (GPa) = 50.76451 52.40271 51.58361
# Shear Modulus (GPa) = 23.85977 25.56260 24.71119
#
# Velocity S-wave (km/s) = 3.64433 3.77214 3.70878
# Velocity P-wave (km/s) = 6.77978 6.93838 6.85954
#
# Compressibility (1/GPa) = 0.01969880
#
# Stress axis : x y z
#
# Youngs Moduli (GPa) = 51.42673 51.42673 58.75845
#
# Poissons Ratio (x) = 0.22722 0.40211
# Poissons Ratio (y) = 0.22722 0.40211
# Poissons Ratio (z) = 0.35193 0.35193
#
# Static dielectric constant tensor:
#      x y z
#    x 1.625170 0.000000 0.000000 
#    y 0.000000 1.625170 0.000000 
#    z 0.000000 0.000000 1.671120 
# 
# From -- ./inp_files/4863.got.cif
#   From: 2010.05.17/outbox.cif.g08.bks.cpg/sg151_3_cif.got.tgz:4863.got - 2010.05.20 10:33:20.
