data_PCOD9575411
_publ_section_title
;
Structure prediction by ZEFSAII (Michael W. Deem and Ramdas Pophale) SiO2 
 PCOD9575411
Probable space group: P 3 2 1
;
_chemical_formula_sum "Si O2"
_cell_formula_units_Z 34
_cell_length_a 13.353166
_cell_length_b 13.353166
_cell_length_c 12.692534
_cell_angle_alpha 90.000000
_cell_angle_beta 90.000000
_cell_angle_gamma 120.000000
_cell_volume 1959.961151
_symmetry_space_group_name_H-M "P 3 2 1"
_symmetry_group_IT_number 150
_symmetry_cell_setting 'hexagonal'
loop_
_space_group_symop_operation_xyz
x,y,z
-y,x-y,z
-x+y,-x,z
x-y,-y,-z
-x,-x+y,-z
y,x,-z
loop_
_atom_site_type_symbol
_atom_site_label
_atom_site_fract_x
_atom_site_fract_y
_atom_site_fract_z
Si Si1 0.286962 0.864569 0.305534
Si Si2 0.729731 0.863729 0.499999
Si Si3 0.134949 0.863769 0.124289
Si Si4 0.864572 0.286964 0.305534
Si Si5 0.666668 0.333334 0.627038
Si Si6 0.271178 0.136230 0.124289
Si Si7 0.666668 0.333334 0.372951
O O1 0.197136 0.848649 0.398041
O O2 0.215872 0.836159 0.196913
O O3 0.337708 0.782041 0.331042
O O4 0.383424 0.999998 0.304616
O O5 0.830442 0.830442 0.500000
O O6 0.651509 0.802859 0.601956
O O7 0.782680 0.000000 0.500000
O O8 0.000000 0.787874 0.152326
O O9 0.179315 1.000000 0.141490
O O10 0.147506 0.848524 1.000000
O O11 0.836161 0.215870 0.196916
O O12 0.782045 0.337713 0.331034
O O13 0.666668 0.333334 0.499995
#
# Coordination Sequence:
#
# PCOD9575411 Si02
#       7
#     6   6   6   6   2   6   2
#     4  10  22  38  55  81 112 141 184 235 277 326
#     4  10  19  32  52  80 113 144 176 222 278 328
#     4   9  17  32  56  86 119 153 187 225 273 330
#     4  10  22  38  55  81 112 141 184 235 277 326
#     4  12  24  42  61  80 103 147 192 232 281 343
#     4   9  17  32  56  86 119 153 187 225 273 330
#     4  12  24  42  61  80 103 147 192 232 281 343
#
# _framework density 17.347282
#
# number of rings (size 3 to 8) (size 9 to 14) (size 15 to 20)
#    0.000    2.118    1.765    1.588    0.000    4.235 
#    0.000    5.294    0.000    4.235    0.000    0.000 
#    0.000    0.000    0.000    0.000    0.000    0.000 
#
# Total GULP energy -189762.646283 kJ/mol
# GULP energy per Si atom -5581.254302 kJ/mol
# Density = 1.730780 g / cm^3
# Si number density = 17.347282 Si / 1000 Ang^3
#
#
#
# Elastic Constant Matrix: (Units=GPa)
#
#
# Indices 1 2 3 4 5 6 
#
# 1 82.4992 54.4208 35.7038 0.0003 0.0000 0.0000
# 2 54.4208 82.4948 35.7021 -0.0003 0.0000 0.0000
# 3 35.7038 35.7021 66.4957 0.0000 0.0000 0.0000
# 4 0.0003 -0.0003 0.0000 23.3547 0.0000 0.0000
# 5 0.0000 0.0000 0.0000 0.0000 23.3550 0.0003
# 6 0.0000 0.0000 0.0000 0.0000 0.0003 14.0371
#
#
#
# Elastic Compliance Matrix: (Units=1/GPa)
#
#
# Indices 1 2 3 4 5 6 
#
# 1 0.022880 -0.012737 -0.005447 0.000000 0.000000 0.000000
# 2 -0.012737 0.022881 -0.005446 0.000000 0.000000 0.000000
# 3 -0.005447 -0.005446 0.020887 0.000000 0.000000 0.000000
# 4 0.000000 0.000000 0.000000 0.042818 0.000000 0.000000
# 5 0.000000 0.000000 0.000000 0.000000 0.042817 -0.000001
# 6 0.000000 0.000000 0.000000 0.000000 -0.000001 0.071240
#
#
# Mechanical properties :
#
#
# Convention : Reuss Voigt Hill
#
# Bulk Modulus (GPa) = 51.57496 53.68256 52.62876
# Shear Modulus (GPa) = 18.03446 19.19355 18.61400
#
# Velocity S-wave (km/s) = 3.22780 3.32991 3.27925
# Velocity P-wave (km/s) = 6.60961 6.76738 6.68896
#
# Compressibility (1/GPa) = 0.01938925
#
# Stress axis : x y z
#
# Youngs Moduli (GPa) = 43.70561 43.70382 47.87578
#
# Poissons Ratio (x) = 0.55664 0.26077
# Poissons Ratio (y) = 0.55666 0.26075
# Poissons Ratio (z) = 0.23806 0.23803
#
# Static dielectric constant tensor:
#      x y z
#    x 1.565510 0.000000 0.000000 
#    y 0.000000 1.565520 0.000000 
#    z 0.000000 0.000000 1.596440 
# 
# From -- ./inp_files/1037.got.cif
#   From: 2010.05.17/outbox.cif.g08.bks.cpg/sg150_cif.got.tgz:1037.got - 2010.05.20 13:53:18.
