data_PCOD9575051
_publ_section_title
;
Structure prediction by ZEFSAII (Michael W. Deem and Ramdas Pophale) SiO2 
 PCOD9575051
Probable space group: R -3
;
_chemical_formula_sum "Si O2"
_cell_formula_units_Z 108
_cell_length_a 24.994880
_cell_length_b 24.994880
_cell_length_c 11.936364
_cell_angle_alpha 90.000000
_cell_angle_beta 90.000000
_cell_angle_gamma 120.000000
_cell_volume 6458.100482
_symmetry_space_group_name_H-M "R -3"
_symmetry_group_IT_number 148
_symmetry_cell_setting 'hexagonal'
loop_
_space_group_symop_operation_xyz
x,y,z
-y,x-y,z
-x+y,-x,z
-x,-y,-z
y,-x+y,-z
x-y,x,-z
2/3+x,1/3+y,1/3+z
2/3-y,1/3+x-y,1/3+z
2/3-x+y,1/3-x,1/3+z
2/3-x,1/3-y,1/3-z
2/3+y,1/3-x+y,1/3-z
2/3+x-y,1/3+x,1/3-z
1/3+x,2/3+y,2/3+z
1/3-y,2/3+x-y,2/3+z
1/3-x+y,2/3-x,2/3+z
1/3-x,2/3-y,2/3-z
1/3+y,2/3-x+y,2/3-z
1/3+x-y,2/3+x,2/3-z
loop_
_atom_site_type_symbol
_atom_site_label
_atom_site_fract_x
_atom_site_fract_y
_atom_site_fract_z
Si Si1 0.580094 0.963661 0.953315
Si Si2 0.694226 0.956978 0.544936
Si Si3 0.530739 0.643385 0.734066
Si Si4 0.300853 0.208483 0.253765
Si Si5 0.258812 0.849153 0.915871
Si Si6 0.242151 0.828542 0.579852
O O1 0.600114 0.911844 0.950613
O O2 0.518502 0.939112 0.880274
O O3 0.636835 0.022569 0.892208
O O4 0.578256 0.976857 0.084222
O O5 0.624560 0.920477 0.592772
O O6 0.736382 0.941403 0.624173
O O7 0.539627 0.684408 0.844630
O O8 0.542840 0.689048 0.629859
O O9 0.468717 0.577600 0.735860
O O10 0.343645 0.238502 0.144636
O O11 0.253607 0.136381 0.237422
O O12 0.350880 0.215317 0.346643
#
# Coordination Sequence:
#
# PCOD9575051 Si02
#       6
#    18  18  18  18  18  18
#     4  12  21  34  51  83 117 150 190 227 275 339
#     4  12  19  33  52  80 118 152 180 230 278 339
#     4  11  22  37  57  81 114 146 196 234 282 339
#     4  10  19  33  56  78 106 148 193 230 274 346
#     4  10  20  33  52  75 105 148 191 228 278 327
#     4  11  23  36  57  85 113 153 193 236 283 337
#
# _framework density 16.723184
#
# number of rings (size 3 to 8) (size 9 to 14) (size 15 to 20)
#    0.000    1.000    8.333    1.000    4.667    0.667 
#    3.000    0.000    0.000    0.333    0.000    0.000 
#    0.000    0.000    0.000    3.000    0.000    0.000 
#
# Total GULP energy -200928.526042 kJ/mol
# GULP energy per Si atom -5581.347946 kJ/mol
# Density = 1.668512 g / cm^3
# Si number density = 16.723184 Si / 1000 Ang^3
#
#
#
# Elastic Constant Matrix: (Units=GPa)
#
#
# Indices 1 2 3 4 5 6 
#
# 1 57.0335 17.3179 18.3958 -3.8795 0.3040 0.0001
# 2 17.3179 57.0332 18.3953 3.8799 -0.3036 0.0000
# 3 18.3958 18.3953 104.9831 0.0008 0.0009 0.0003
# 4 -3.8795 3.8799 0.0008 14.4861 0.0003 -0.3036
# 5 0.3040 -0.3036 0.0009 0.0003 14.4862 -3.8797
# 6 0.0001 0.0000 0.0003 -0.3036 -3.8797 19.8577
#
#
#
# Elastic Compliance Matrix: (Units=1/GPa)
#
#
# Indices 1 2 3 4 5 6 
#
# 1 0.020652 -0.005926 -0.002581 0.007118 -0.000558 0.000000
# 2 -0.005926 0.020652 -0.002580 -0.007118 0.000558 0.000000
# 3 -0.002581 -0.002580 0.010430 -0.000001 -0.000001 0.000000
# 4 0.007118 -0.007118 -0.000001 0.072868 -0.000002 0.001113
# 5 -0.000558 0.000558 -0.000001 -0.000002 0.072867 0.014236
# 6 0.000000 0.000000 0.000000 0.001113 0.014236 0.053157
#
#
# Mechanical properties :
#
#
# Convention : Reuss Voigt Hill
#
# Bulk Modulus (GPa) = 33.82840 36.36309 35.09574
# Shear Modulus (GPa) = 17.68952 20.76208 19.22580
#
# Velocity S-wave (km/s) = 3.25589 3.52734 3.39433
# Velocity P-wave (km/s) = 5.86573 6.19522 6.03273
#
# Compressibility (1/GPa) = 0.02956096
#
# Stress axis : x y z
#
# Youngs Moduli (GPa) = 48.42049 48.42033 95.88045
#
# Poissons Ratio (x) = 0.28693 0.24742
# Poissons Ratio (y) = 0.28694 0.24740
# Poissons Ratio (z) = 0.12495 0.12494
#
# Static dielectric constant tensor:
#      x y z
#    x 1.569250 0.000000 0.000000 
#    y 0.000000 1.569250 0.000000 
#    z 0.000000 0.000000 1.630950 
# 
# From -- ./inp_files/1546.got.cif
#   From: 2010.05.17/outbox.cif.g08.bks.cpg/sg148_1_cif.got.tgz:1546.got - 2010.05.20 13:50:20.
