data_PCOD9575000
_publ_section_title
;
Structure prediction by ZEFSAII (Michael W. Deem and Ramdas Pophale) SiO2 
 PCOD9575000
Probable space group: R -3
;
_chemical_formula_sum "Si O2"
_cell_formula_units_Z 126
_cell_length_a 27.565868
_cell_length_b 27.565868
_cell_length_c 10.654930
_cell_angle_alpha 90.000000
_cell_angle_beta 90.000000
_cell_angle_gamma 120.000000
_cell_volume 7011.720192
_symmetry_space_group_name_H-M "R -3"
_symmetry_group_IT_number 148
_symmetry_cell_setting 'hexagonal'
loop_
_space_group_symop_operation_xyz
x,y,z
-y,x-y,z
-x+y,-x,z
-x,-y,-z
y,-x+y,-z
x-y,x,-z
2/3+x,1/3+y,1/3+z
2/3-y,1/3+x-y,1/3+z
2/3-x+y,1/3-x,1/3+z
2/3-x,1/3-y,1/3-z
2/3+y,1/3-x+y,1/3-z
2/3+x-y,1/3+x,1/3-z
1/3+x,2/3+y,2/3+z
1/3-y,2/3+x-y,2/3+z
1/3-x+y,2/3-x,2/3+z
1/3-x,2/3-y,2/3-z
1/3+y,2/3-x+y,2/3-z
1/3+x-y,2/3+x,2/3-z
loop_
_atom_site_type_symbol
_atom_site_label
_atom_site_fract_x
_atom_site_fract_y
_atom_site_fract_z
Si Si1 0.743002 0.558469 0.748450
Si Si2 0.297225 0.019912 0.630235
Si Si3 0.832959 0.214237 0.313693
Si Si4 0.339559 0.238459 0.457083
Si Si5 0.041523 0.833446 0.502980
Si Si6 0.412804 0.104639 0.511844
Si Si7 0.413887 0.240431 0.099915
O O1 0.767538 0.617712 0.821145
O O2 0.789160 0.540261 0.738531
O O3 0.687820 0.511729 0.819708
O O4 0.721663 0.569288 0.617972
O O5 0.300715 0.051194 0.760561
O O6 0.260194 0.032958 0.532785
O O7 0.359104 0.049981 0.569920
O O8 0.268633 0.952669 0.636171
O O9 0.785875 0.162257 0.396982
O O10 0.870826 0.269806 0.391092
O O11 0.801522 0.221438 0.193915
O O12 0.874098 0.192114 0.269257
O O13 0.072501 0.853762 0.637203
O O14 0.463593 0.093565 0.495252
#
# Coordination Sequence:
#
# PCOD9575000 Si02
#       7
#    18  18  18  18  18  18  18
#     4   9  18  31  54  70  99 131 168 216 260 316
#     4  10  20  31  51  77 104 139 180 224 250 321
#     4  11  21  36  51  72 106 141 183 227 269 314
#     4  10  20  32  49  75 104 139 181 219 263 302
#     4  10  17  35  51  76 100 131 174 211 274 312
#     4  10  20  35  53  72 101 145 180 218 265 314
#     4  10  22  34  50  71 103 139 169 225 266 310
#
# _framework density 17.969912999999998
#
# number of rings (size 3 to 8) (size 9 to 14) (size 15 to 20)
#    0.000    2.000    2.857    1.714    2.000    2.286 
#    2.571    1.429    0.000    0.286    0.000    0.000 
#    0.000    0.000    0.000    7.857    0.000    0.143 
#
# Total GULP energy -234343.238714 kJ/mol
# GULP energy per Si atom -5579.600922 kJ/mol
# Density = 1.792901 g / cm^3
# Si number density = 17.969913 Si / 1000 Ang^3
#
#
#
# Elastic Constant Matrix: (Units=GPa)
#
#
# Indices 1 2 3 4 5 6 
#
# 1 25.3140 -3.8199 3.2496 -3.8092 1.8278 -0.0024
# 2 -3.8199 25.3250 3.2707 3.8058 -1.8386 0.0009
# 3 3.2496 3.2707 42.7930 -0.0050 -0.0185 -0.0073
# 4 -3.8092 3.8058 -0.0050 23.8925 -0.0014 -1.8425
# 5 1.8278 -1.8386 -0.0185 -0.0014 23.8864 -3.8094
# 6 -0.0024 0.0009 -0.0073 -1.8425 -3.8094 14.5644
#
#
#
# Elastic Compliance Matrix: (Units=1/GPa)
#
#
# Indices 1 2 3 4 5 6 
#
# 1 0.041899 0.005720 -0.003619 0.005769 -0.002767 0.000011
# 2 0.005720 0.041887 -0.003635 -0.005761 0.002783 -0.000004
# 3 -0.003619 -0.003635 0.023921 0.000008 0.000019 0.000017
# 4 0.005769 -0.005761 0.000008 0.044122 0.000008 0.005585
# 5 -0.002767 0.002783 0.000019 0.000008 0.044132 0.011543
# 6 0.000011 -0.000004 0.000017 0.005585 0.011543 0.072386
#
#
# Mechanical properties :
#
#
# Convention : Reuss Voigt Hill
#
# Bulk Modulus (GPa) = 9.55684 10.98140 10.26912
# Shear Modulus (GPa) = 16.32406 18.51744 17.42075
#
# Velocity S-wave (km/s) = 3.01725 3.21358 3.11696
# Velocity P-wave (km/s) = 4.17950 4.46023 4.32215
#
# Compressibility (1/GPa) = 0.10463711
#
# Stress axis : x y z
#
# Youngs Moduli (GPa) = 23.86669 23.87391 41.80424
#
# Poissons Ratio (x) = -0.13655 0.15131
# Poissons Ratio (y) = -0.13651 0.15197
# Poissons Ratio (z) = 0.08638 0.08679
#
# Static dielectric constant tensor:
#      x y z
#    x 1.611090 0.000000 0.000000 
#    y 0.000000 1.611090 0.000000 
#    z 0.000000 0.000000 1.695040 
# 
# From -- ./inp_files/1619.got.cif
#   From: 2010.05.17/outbox.cif.g08.bks.cpg/sg148_1_cif.got.tgz:1619.got - 2010.05.20 13:50:20.
