data_PCOD9575024
_publ_section_title
;
Structure prediction by ZEFSAII (Michael W. Deem and Ramdas Pophale) SiO2 
 PCOD9575024
Probable space group: R -3
;
_chemical_formula_sum "Si O2"
_cell_formula_units_Z 54
_cell_length_a 15.179610
_cell_length_b 15.179610
_cell_length_c 9.778922
_cell_angle_alpha 90.000000
_cell_angle_beta 90.000000
_cell_angle_gamma 120.000000
_cell_volume 1951.384455
_symmetry_space_group_name_H-M "R -3"
_symmetry_group_IT_number 148
_symmetry_cell_setting 'hexagonal'
loop_
_space_group_symop_operation_xyz
x,y,z
-y,x-y,z
-x+y,-x,z
-x,-y,-z
y,-x+y,-z
x-y,x,-z
2/3+x,1/3+y,1/3+z
2/3-y,1/3+x-y,1/3+z
2/3-x+y,1/3-x,1/3+z
2/3-x,1/3-y,1/3-z
2/3+y,1/3-x+y,1/3-z
2/3+x-y,1/3+x,1/3-z
1/3+x,2/3+y,2/3+z
1/3-y,2/3+x-y,2/3+z
1/3-x+y,2/3-x,2/3+z
1/3-x,2/3-y,2/3-z
1/3+y,2/3-x+y,2/3-z
1/3+x-y,2/3+x,2/3-z
loop_
_atom_site_type_symbol
_atom_site_label
_atom_site_fract_x
_atom_site_fract_y
_atom_site_fract_z
Si Si1 0.205389 0.918063 0.513159
Si Si2 0.454920 0.158474 0.538864
Si Si3 0.703098 0.536454 0.140770
O O1 0.139911 0.793650 0.513929
O O2 0.186680 0.955447 0.368671
O O3 0.320568 0.936518 0.527289
O O4 0.176103 0.957683 0.644432
O O5 0.520430 0.110144 0.481723
O O6 0.523076 0.278740 0.503465
#
# Coordination Sequence:
#
# PCOD9575024 Si02
#       3
#    18  18  18
#     4   9  20  32  54  87 122 146 186 251 287 345
#     4   9  19  32  58  83 116 151 193 243 290 340
#     4  10  18  36  57  86 119 149 194 239 295 345
#
# _framework density 27.672658999999999
#
# number of rings (size 3 to 8) (size 9 to 14) (size 15 to 20)
#    2.000    0.667    0.000    2.667    0.000    0.000 
#    0.000    5.000    0.000    0.000    0.000    0.000 
#    0.000   14.000    0.000    0.000    0.000    0.000 
#
# Total GULP energy -100619.015021 kJ/mol
# GULP energy per Si atom -5589.945279 kJ/mol
# Density = 2.760968 g / cm^3
# Si number density = 27.672659 Si / 1000 Ang^3
#
#
#
# Elastic Constant Matrix: (Units=GPa)
#
#
# Indices 1 2 3 4 5 6 
#
# 1 138.8021 28.8594 4.9995 2.7254 -1.2956 0.0000
# 2 28.8594 138.8021 4.9995 -2.7254 1.2956 0.0000
# 3 4.9995 4.9995 122.2543 0.0000 0.0000 0.0000
# 4 2.7254 -2.7254 0.0000 19.3406 0.0000 1.2956
# 5 -1.2956 1.2956 0.0000 0.0000 19.3406 2.7254
# 6 0.0000 0.0000 0.0000 1.2956 2.7254 54.9713
#
#
#
# Elastic Compliance Matrix: (Units=1/GPa)
#
#
# Indices 1 2 3 4 5 6 
#
# 1 0.007577 -0.001598 -0.000245 -0.001293 0.000615 0.000000
# 2 -0.001598 0.007577 -0.000245 0.001293 -0.000615 0.000000
# 3 -0.000245 -0.000245 0.008200 0.000000 0.000000 0.000000
# 4 -0.001293 0.001293 0.000000 0.052151 0.000000 -0.001229
# 5 0.000615 -0.000615 0.000000 0.000000 0.052151 -0.002586
# 6 0.000000 0.000000 0.000000 -0.001229 -0.002586 0.018348
#
#
# Mechanical properties :
#
#
# Convention : Reuss Voigt Hill
#
# Bulk Modulus (GPa) = 52.13871 53.06392 52.60131
# Shear Modulus (GPa) = 31.93447 42.79718 37.36583
#
# Velocity S-wave (km/s) = 3.40075 3.93689 3.67860
# Velocity P-wave (km/s) = 5.85682 6.31527 6.09036
#
# Compressibility (1/GPa) = 0.01917961
#
# Stress axis : x y z
#
# Youngs Moduli (GPa) = 131.98525 131.98525 121.95611
#
# Poissons Ratio (x) = 0.21086 0.02982
# Poissons Ratio (y) = 0.21086 0.02982
# Poissons Ratio (z) = 0.03227 0.03227
#
# Static dielectric constant tensor:
#      x y z
#    x 2.221780 0.000000 0.000000 
#    y 0.000000 2.221780 0.000000 
#    z 0.000000 0.000000 2.028410 
# 
# From -- ./inp_files/1293.got.cif
#   From: 2010.05.17/outbox.cif.g08.bks.cpg/sg148_1_cif.got.tgz:1293.got - 2010.05.20 13:50:20.
