data_PCOD9575078
_publ_section_title
;
Structure prediction by ZEFSAII (Michael W. Deem and Ramdas Pophale) SiO2 
 PCOD9575078
Probable space group: R -3
;
_chemical_formula_sum "Si O2"
_cell_formula_units_Z 66
_cell_length_a 12.655683
_cell_length_b 12.655683
_cell_length_c 23.795026
_cell_angle_alpha 90.000000
_cell_angle_beta 90.000000
_cell_angle_gamma 120.000000
_cell_volume 3300.562732
_symmetry_space_group_name_H-M "R -3"
_symmetry_group_IT_number 148
_symmetry_cell_setting 'hexagonal'
loop_
_space_group_symop_operation_xyz
x,y,z
-y,x-y,z
-x+y,-x,z
-x,-y,-z
y,-x+y,-z
x-y,x,-z
2/3+x,1/3+y,1/3+z
2/3-y,1/3+x-y,1/3+z
2/3-x+y,1/3-x,1/3+z
2/3-x,1/3-y,1/3-z
2/3+y,1/3-x+y,1/3-z
2/3+x-y,1/3+x,1/3-z
1/3+x,2/3+y,2/3+z
1/3-y,2/3+x-y,2/3+z
1/3-x+y,2/3-x,2/3+z
1/3-x,2/3-y,2/3-z
1/3+y,2/3-x+y,2/3-z
1/3+x-y,2/3+x,2/3-z
loop_
_atom_site_type_symbol
_atom_site_label
_atom_site_fract_x
_atom_site_fract_y
_atom_site_fract_z
Si Si1 0.764861 0.168705 0.825386
Si Si2 0.268646 0.070050 0.114752
Si Si3 0.934209 0.411624 0.052314
Si Si4 0.000000 0.000000 0.749182
Si Si5 0.333334 0.666667 0.781350
O O1 0.628699 0.132207 0.808030
O O2 0.847011 0.197205 0.771147
O O3 0.768815 0.060973 0.858310
O O4 0.333334 0.166667 0.166667
O O5 0.361833 0.087264 0.063911
O O6 0.142361 0.063439 0.097450
O O7 0.803281 0.398717 0.060461
O O8 0.000000 0.500000 0.000000
O O9 0.000000 0.000000 0.816946
#
# Coordination Sequence:
#
# PCOD9575078 Si02
#       5
#    18  18  18   6   6
#     4  10  20  35  57  85 120 165 222 274 327 404
#     4  11  20  37  64  97 125 172 236 289 329 414
#     4  11  24  39  61  95 137 174 219 283 362 413
#     4  12  21  42  66  93 128 179 228 276 342 418
#     4  12  18  36  72  99 128 172 250 291 327 400
#
# _framework density 19.996590999999999
#
# number of rings (size 3 to 8) (size 9 to 14) (size 15 to 20)
#    0.000    1.091    5.455    1.909    0.000    4.364 
#    0.000    0.000    0.000    3.273    0.000    9.545 
#    0.000    0.000    0.000    0.000    0.000    0.000 
#
# Total GULP energy -122661.780370 kJ/mol
# GULP energy per Si atom -5575.535471 kJ/mol
# Density = 1.995108 g / cm^3
# Si number density = 19.996591 Si / 1000 Ang^3
#
#
#
# Elastic Constant Matrix: (Units=GPa)
#
#
# Indices 1 2 3 4 5 6 
#
# 1 122.1954 30.5069 17.6256 -7.5734 -4.9418 0.0001
# 2 30.5069 122.1952 17.6256 7.5734 4.9418 0.0001
# 3 17.6256 17.6256 51.2552 0.0000 0.0000 0.0000
# 4 -7.5734 7.5734 0.0000 25.8280 0.0000 4.9418
# 5 -4.9418 4.9418 0.0000 0.0000 25.8281 -7.5734
# 6 0.0001 0.0001 0.0000 4.9418 -7.5734 45.8442
#
#
#
# Elastic Compliance Matrix: (Units=1/GPa)
#
#
# Indices 1 2 3 4 5 6 
#
# 1 0.009415 -0.002301 -0.002446 0.003435 0.002242 0.000000
# 2 -0.002301 0.009415 -0.002446 -0.003435 -0.002242 0.000000
# 3 -0.002446 -0.002446 0.021193 0.000000 0.000000 0.000000
# 4 0.003435 -0.003435 0.000000 0.041590 0.000000 -0.004483
# 5 0.002242 -0.002242 0.000000 0.000000 0.041590 0.006871
# 6 0.000000 0.000000 0.000000 -0.004483 0.006871 0.023431
#
#
# Mechanical properties :
#
#
# Convention : Reuss Voigt Hill
#
# Bulk Modulus (GPa) = 39.00954 47.46245 43.23599
# Shear Modulus (GPa) = 29.48726 34.82592 32.15659
#
# Velocity S-wave (km/s) = 3.84424 4.17777 4.01447
# Velocity P-wave (km/s) = 6.26535 6.85992 6.56936
#
# Compressibility (1/GPa) = 0.02563476
#
# Stress axis : x y z
#
# Youngs Moduli (GPa) = 106.21903 106.21886 47.18636
#
# Poissons Ratio (x) = 0.24442 0.11542
# Poissons Ratio (y) = 0.24442 0.11542
# Poissons Ratio (z) = 0.25983 0.25983
#
# Static dielectric constant tensor:
#      x y z
#    x 1.779420 0.000000 0.000000 
#    y 0.000000 1.779420 0.000000 
#    z 0.000000 0.000000 1.709770 
# 
# From -- ./inp_files/3912.got.cif
#   From: 2010.05.17/outbox.cif.g08.bks.cpg/sg148_2_cif.got.tgz:3912.got - 2010.05.20 13:50:20.
