data_PCOD9575026
_publ_section_title
;
Structure prediction by ZEFSAII (Michael W. Deem and Ramdas Pophale) SiO2 
 PCOD9575026
Probable space group: R -3
;
_chemical_formula_sum "Si O2"
_cell_formula_units_Z 120
_cell_length_a 16.574608
_cell_length_b 16.574608
_cell_length_c 35.182973
_cell_angle_alpha 90.000000
_cell_angle_beta 90.000000
_cell_angle_gamma 120.000000
_cell_volume 8370.467191
_symmetry_space_group_name_H-M "R -3"
_symmetry_group_IT_number 148
_symmetry_cell_setting 'hexagonal'
loop_
_space_group_symop_operation_xyz
x,y,z
-y,x-y,z
-x+y,-x,z
-x,-y,-z
y,-x+y,-z
x-y,x,-z
2/3+x,1/3+y,1/3+z
2/3-y,1/3+x-y,1/3+z
2/3-x+y,1/3-x,1/3+z
2/3-x,1/3-y,1/3-z
2/3+y,1/3-x+y,1/3-z
2/3+x-y,1/3+x,1/3-z
1/3+x,2/3+y,2/3+z
1/3-y,2/3+x-y,2/3+z
1/3-x+y,2/3-x,2/3+z
1/3-x,2/3-y,2/3-z
1/3+y,2/3-x+y,2/3-z
1/3+x-y,2/3+x,2/3-z
loop_
_atom_site_type_symbol
_atom_site_label
_atom_site_fract_x
_atom_site_fract_y
_atom_site_fract_z
Si Si1 0.233810 0.459026 0.869879
Si Si2 0.645984 0.505666 0.251527
Si Si3 0.000000 0.000000 0.194847
Si Si4 0.666667 0.333334 0.231825
Si Si5 0.944101 0.405853 0.172624
Si Si6 0.910019 0.201502 0.081176
Si Si7 0.210793 0.044471 0.000251
Si Si8 0.385346 0.073817 0.489156
O O1 0.258631 0.564615 0.876349
O O2 0.321495 0.473078 0.844659
O O3 0.229909 0.395738 0.905286
O O4 0.136623 0.408797 0.846730
O O5 0.628024 0.399954 0.246970
O O6 0.600748 0.530769 0.217483
O O7 0.757160 0.565838 0.247070
O O8 0.614233 0.529032 0.291002
O O9 0.000000 0.000000 0.147978
O O10 0.957500 0.506185 0.163310
O O11 0.018633 0.375866 0.161027
O O12 0.942351 0.215818 0.037209
O O13 0.993432 0.249011 0.111966
O O14 0.178678 0.120932 0.000936
#
# Coordination Sequence:
#
# PCOD9575026 Si02
#       8
#    18  18   6   6  18  18  18  18
#     4  11  18  30  46  70  98 129 157 190 234 287
#     4  11  17  27  41  61  94 129 154 183 225 281
#     4  12  18  27  51  76  97 132 156 183 252 289
#     4  12  18  24  43  70  99 126 159 186 225 297
#     4  11  19  29  46  69  95 124 157 189 236 290
#     4  10  19  30  40  64  98 126 161 192 216 277
#     4  10  19  27  39  60  90 130 165 190 224 276
#     4  11  19  31  46  68  96 128 156 193 241 283
#
# _framework density 14.336118000000001
#
# number of rings (size 3 to 8) (size 9 to 14) (size 15 to 20)
#    0.000    1.200    6.000    4.650    0.000    0.000 
#    0.000    0.000    0.000    0.300    0.000   18.900 
#    0.000    0.000    0.000    0.000    0.000    0.000 
#
# Total GULP energy -222772.930846 kJ/mol
# GULP energy per Si atom -5569.323271 kJ/mol
# Density = 1.430349 g / cm^3
# Si number density = 14.336118 Si / 1000 Ang^3
#
#
#
# Elastic Constant Matrix: (Units=GPa)
#
#
# Indices 1 2 3 4 5 6 
#
# 1 64.7922 25.9377 27.2289 1.6827 2.8375 0.0000
# 2 25.9377 64.7920 27.2289 -1.6827 -2.8374 0.0000
# 3 27.2289 27.2289 97.8666 0.0000 0.0000 0.0000
# 4 1.6827 -1.6827 0.0000 11.9226 0.0001 -2.8374
# 5 2.8375 -2.8374 0.0000 0.0001 11.9226 1.6828
# 6 0.0000 0.0000 0.0000 -2.8374 1.6828 19.4272
#
#
#
# Elastic Compliance Matrix: (Units=1/GPa)
#
#
# Indices 1 2 3 4 5 6 
#
# 1 0.020119 -0.006887 -0.003681 -0.003812 -0.006427 0.000000
# 2 -0.006887 0.020119 -0.003681 0.003812 0.006427 0.000000
# 3 -0.003681 -0.003681 0.012266 0.000000 0.000000 0.000000
# 4 -0.003812 0.003812 0.000000 0.088009 -0.000001 0.012854
# 5 -0.006427 0.006427 0.000000 -0.000001 0.088010 -0.007623
# 6 0.000000 0.000000 0.000000 0.012854 -0.007623 0.054012
#
#
# Mechanical properties :
#
#
# Convention : Reuss Voigt Hill
#
# Bulk Modulus (GPa) = 41.65980 43.13797 42.39889
# Shear Modulus (GPa) = 15.67223 18.45816 17.06519
#
# Velocity S-wave (km/s) = 3.30994 3.59211 3.45391
# Velocity P-wave (km/s) = 6.61287 6.88186 6.74871
#
# Compressibility (1/GPa) = 0.02400396
#
# Stress axis : x y z
#
# Youngs Moduli (GPa) = 49.70524 49.70507 81.52321
#
# Poissons Ratio (x) = 0.34233 0.30011
# Poissons Ratio (y) = 0.34234 0.30011
# Poissons Ratio (z) = 0.18298 0.18298
#
# Static dielectric constant tensor:
#      x y z
#    x 1.498290 0.000000 0.000000 
#    y 0.000000 1.498290 0.000000 
#    z 0.000000 0.000000 1.515030 
# 
# From -- ./inp_files/4066.got.cif
#   From: 2010.05.17/outbox.cif.g08.bks.cpg/sg148_3_cif.got.tgz:4066.got - 2010.05.20 13:50:20.
