data_PCOD9575723
_publ_section_title
;
Structure prediction by ZEFSAII (Michael W. Deem and Ramdas Pophale) SiO2 
 PCOD9575723
Probable space group: P 31 2 1
;
_chemical_formula_sum "Si O2"
_cell_formula_units_Z 45
_cell_length_a 12.081644
_cell_length_b 12.081644
_cell_length_c 18.256746
_cell_angle_alpha 90.000000
_cell_angle_beta 90.000000
_cell_angle_gamma 120.000000
_cell_volume 2307.842008
_symmetry_space_group_name_H-M "P 31 2 1"
_symmetry_group_IT_number 152
_symmetry_cell_setting 'hexagonal'
loop_
_space_group_symop_operation_xyz
x,y,z
-y,x-y,1/3+z
-x+y,-x,2/3+z
x-y,-y,2/3-z
-x,-x+y,1/3-z
y,x,-z
loop_
_atom_site_type_symbol
_atom_site_label
_atom_site_fract_x
_atom_site_fract_y
_atom_site_fract_z
Si Si1 0.000000 0.517821 0.166667
Si Si2 0.787621 0.486449 0.864969
Si Si3 0.130840 0.390928 0.262656
Si Si4 0.216020 0.699013 0.065575
Si Si5 0.124626 0.890887 0.706123
Si Si6 0.328861 0.401269 0.148370
Si Si7 0.275869 0.774895 0.622219
Si Si8 0.617751 0.483936 0.973730
O O1 0.930661 0.399246 0.109066
O O2 0.902805 0.543739 0.213093
O O3 0.737920 0.339516 0.884143
O O4 0.708619 0.501104 0.797676
O O5 0.754976 0.534079 0.939681
O O6 0.935419 0.569176 0.845840
O O7 0.182925 0.433315 0.345036
O O8 0.253247 0.424523 0.212670
O O9 0.024983 0.240057 0.264758
O O10 0.189219 0.581964 0.010359
O O11 0.069836 0.784934 0.770071
O O12 0.195586 0.838330 0.652118
O O13 0.000000 0.879773 0.666667
O O14 0.399658 0.514499 0.089294
O O15 0.198076 0.620292 0.629402
O O16 0.594220 0.594220 0.000000
#
# Coordination Sequence:
#
# PCOD9575723 Si02
#       8
#     3   6   6   6   6   6   6   6
#     4  12  22  46  66  94 142 166 218 284 334 428
#     4  11  22  35  62  93 127 162 207 265 319 391
#     4  12  24  41  67  94 123 178 220 269 337 393
#     4  11  25  37  63  99 132 170 206 269 347 401
#     4  11  20  39  67  91 123 165 225 277 305 373
#     4  11  20  39  63  90 119 164 225 263 308 383
#     4  10  17  38  60  89 120 162 207 258 318 378
#     4  10  19  35  56  86 124 158 199 261 314 368
#
# _framework density 19.498736000000001
#
# number of rings (size 3 to 8) (size 9 to 14) (size 15 to 20)
#    0.000    1.067    5.333    4.000    1.867    1.067 
#    0.000    0.667    2.933    0.000    0.000    0.000 
#    0.000    0.000    0.000    0.000    0.000    0.000 
#
# Total GULP energy -251084.429142 kJ/mol
# GULP energy per Si atom -5579.653981 kJ/mol
# Density = 1.945436 g / cm^3
# Si number density = 19.498736 Si / 1000 Ang^3
#
#
#
# Elastic Constant Matrix: (Units=GPa)
#
#
# Indices 1 2 3 4 5 6 
#
# 1 54.5785 17.3768 26.4846 -1.4769 -0.0001 0.0000
# 2 17.3768 54.5785 26.4846 1.4769 0.0001 0.0000
# 3 26.4846 26.4846 67.6840 0.0000 0.0000 0.0000
# 4 -1.4769 1.4769 0.0000 34.7216 0.0000 0.0001
# 5 -0.0001 0.0001 0.0000 0.0000 34.7216 -1.4769
# 6 0.0000 0.0000 0.0000 0.0001 -1.4769 18.6009
#
#
#
# Elastic Compliance Matrix: (Units=1/GPa)
#
#
# Indices 1 2 3 4 5 6 
#
# 1 0.023246 -0.003726 -0.007638 0.001147 0.000000 0.000000
# 2 -0.003726 0.023246 -0.007638 -0.001147 0.000000 0.000000
# 3 -0.007638 -0.007638 0.020752 0.000000 0.000000 0.000000
# 4 0.001147 -0.001147 0.000000 0.028898 0.000000 0.000000
# 5 0.000000 0.000000 0.000000 0.000000 0.028898 0.002295
# 6 0.000000 0.000000 0.000000 0.000000 0.002295 0.053943
#
#
# Mechanical properties :
#
#
# Convention : Reuss Voigt Hill
#
# Bulk Modulus (GPa) = 34.19990 35.28144 34.74067
# Shear Modulus (GPa) = 22.05223 24.70849 23.38036
#
# Velocity S-wave (km/s) = 3.36662 3.56361 3.46652
# Velocity P-wave (km/s) = 5.71750 5.92165 5.82047
#
# Compressibility (1/GPa) = 0.02923985
#
# Stress axis : x y z
#
# Youngs Moduli (GPa) = 43.01821 43.01821 48.18764
#
# Poissons Ratio (x) = 0.16027 0.36807
# Poissons Ratio (y) = 0.16027 0.36807
# Poissons Ratio (z) = 0.32858 0.32858
#
# Static dielectric constant tensor:
#      x y z
#    x 1.692620 0.000000 0.000000 
#    y 0.000000 1.692620 0.000000 
#    z 0.000000 0.000000 1.719070 
# 
# From -- ./inp_files/2530.got.cif
#   From: 2010.05.17/outbox.cif.g08.bks.cpg/sg152_2_cif.got.tgz:2530.got - 2010.05.20 10:36:06.
