data_PCOD9575634
_publ_section_title
;
Structure prediction by ZEFSAII (Michael W. Deem and Ramdas Pophale) SiO2 
 PCOD9575634
Probable space group: P 31 1 2
;
_chemical_formula_sum "Si O2"
_cell_formula_units_Z 18
_cell_length_a 7.147303
_cell_length_b 7.147303
_cell_length_c 17.755573
_cell_angle_alpha 90.000000
_cell_angle_beta 90.000000
_cell_angle_gamma 120.000000
_cell_volume 785.506370
_symmetry_space_group_name_H-M "P 31 1 2"
_symmetry_group_IT_number 151
_symmetry_cell_setting 'hexagonal'
loop_
_space_group_symop_operation_xyz
x,y,z
-y,x-y,1/3+z
-x+y,-x,2/3+z
-y,-x,2/3-z
-x+y,y,1/3-z
x,x-y,-z
loop_
_atom_site_type_symbol
_atom_site_label
_atom_site_fract_x
_atom_site_fract_y
_atom_site_fract_z
Si Si1 0.010642 0.285112 0.515930
Si Si2 0.650219 0.570633 0.596626
Si Si3 0.377884 0.188942 0.500000
Si Si4 0.555406 0.777703 0.000000
O O1 0.019384 0.509692 0.500000
O O2 0.217752 0.280254 0.483095
O O3 0.043912 0.291047 0.605658
O O4 0.798409 0.101614 0.474623
O O5 0.805467 0.610934 0.666667
O O6 0.529051 0.321434 0.569038
O O7 0.447942 0.592063 0.623869
#
# Coordination Sequence:
#
# PCOD9575634 Si02
#       4
#     6   6   3   3
#     4  11  22  45  67 101 142 186 237 297 358 428
#     4  11  20  44  68  96 143 186 232 306 360 418
#     4  10  24  42  64  98 138 178 238 290 350 436
#     4  10  22  40  72 102 140 188 246 290 358 448
#
# _framework density 22.915156
#
# number of rings (size 3 to 8) (size 9 to 14) (size 15 to 20)
#    0.000    1.333    5.000    0.000    0.000    0.000 
#   27.000    0.000    0.000    0.000    0.000    0.000 
#    0.000    0.000    0.000    0.000    0.000    0.000 
#
# Total GULP energy -100469.402068 kJ/mol
# GULP energy per Si atom -5581.633448 kJ/mol
# Density = 2.286300 g / cm^3
# Si number density = 22.915156 Si / 1000 Ang^3
#
#
#
# Elastic Constant Matrix: (Units=GPa)
#
#
# Indices 1 2 3 4 5 6 
#
# 1 100.5777 37.6926 57.4621 0.0001 0.9599 0.0000
# 2 37.6926 100.5777 57.4621 -0.0001 -0.9599 0.0000
# 3 57.4621 57.4621 148.1758 0.0000 0.0000 0.0000
# 4 0.0001 -0.0001 0.0000 21.8315 0.0000 -0.9599
# 5 0.9599 -0.9599 0.0000 0.0000 21.8315 0.0001
# 6 0.0000 0.0000 0.0000 -0.9599 0.0001 31.4425
#
#
#
# Elastic Compliance Matrix: (Units=1/GPa)
#
#
# Indices 1 2 3 4 5 6 
#
# 1 0.013298 -0.002626 -0.004139 0.000000 -0.000700 0.000000
# 2 -0.002626 0.013298 -0.004139 0.000000 0.000700 0.000000
# 3 -0.004139 -0.004139 0.009959 0.000000 0.000000 0.000000
# 4 0.000000 0.000000 0.000000 0.045867 0.000000 0.001400
# 5 -0.000700 0.000700 0.000000 0.000000 0.045867 0.000000
# 6 0.000000 0.000000 0.000000 0.001400 0.000000 0.031847
#
#
# Mechanical properties :
#
#
# Convention : Reuss Voigt Hill
#
# Bulk Modulus (GPa) = 67.80431 72.72941 70.26686
# Shear Modulus (GPa) = 26.75848 28.13538 27.44693
#
# Velocity S-wave (km/s) = 3.42090 3.50781 3.46463
# Velocity P-wave (km/s) = 6.72733 6.94361 6.83632
#
# Compressibility (1/GPa) = 0.01474832
#
# Stress axis : x y z
#
# Youngs Moduli (GPa) = 75.20094 75.20094 100.41589
#
# Poissons Ratio (x) = 0.19746 0.41558
# Poissons Ratio (y) = 0.19746 0.41558
# Poissons Ratio (z) = 0.31122 0.31122
#
# Static dielectric constant tensor:
#      x y z
#    x 1.876350 0.000000 0.000000 
#    y 0.000000 1.876350 0.000000 
#    z 0.000000 0.000000 1.891830 
# 
# From -- ./inp_files/3221.got.cif
#   From: 2010.05.17/outbox.cif.g08.bks.cpg/sg151_2_cif.got.tgz:3221.got - 2010.05.20 10:33:20.
