data_PCOD9575717
_publ_section_title
;
Structure prediction by ZEFSAII (Michael W. Deem and Ramdas Pophale) SiO2 
 PCOD9575717
Probable space group: P 31 2 1
;
_chemical_formula_sum "Si O2"
_cell_formula_units_Z 36
_cell_length_a 10.509937
_cell_length_b 10.509937
_cell_length_c 18.881523
_cell_angle_alpha 90.000000
_cell_angle_beta 90.000000
_cell_angle_gamma 120.000000
_cell_volume 1806.208489
_symmetry_space_group_name_H-M "P 31 2 1"
_symmetry_group_IT_number 152
_symmetry_cell_setting 'hexagonal'
loop_
_space_group_symop_operation_xyz
x,y,z
-y,x-y,1/3+z
-x+y,-x,2/3+z
x-y,-y,2/3-z
-x,-x+y,1/3-z
y,x,-z
loop_
_atom_site_type_symbol
_atom_site_label
_atom_site_fract_x
_atom_site_fract_y
_atom_site_fract_z
Si Si1 0.513830 0.277126 0.602393
Si Si2 0.693711 0.142092 0.433897
Si Si3 0.946577 0.561558 0.989841
Si Si4 0.421715 0.200480 0.454879
Si Si5 0.669571 0.168690 0.270743
Si Si6 0.760143 0.641511 0.901934
O O1 0.536596 0.140946 0.624961
O O2 0.471173 0.350379 0.665823
O O3 0.404295 0.228549 0.536518
O O4 0.668257 0.412842 0.574069
O O5 0.562601 0.174841 0.452812
O O6 0.725780 0.175099 0.350583
O O7 0.826076 0.229820 0.487875
O O8 0.627631 0.965729 0.439096
O O9 0.902049 0.658596 0.940943
O O10 0.875579 0.548273 0.067000
O O11 0.281808 0.048654 0.429871
O O12 0.498867 0.126245 0.274626
#
# Coordination Sequence:
#
# PCOD9575717 Si02
#       6
#     6   6   6   6   6   6
#     4  11  23  36  59  87 118 153 190 249 300 345
#     4  10  17  32  54  84 118 148 193 234 289 342
#     4  11  23  38  58  89 118 153 196 246 296 349
#     4  11  20  36  54  84 123 152 191 241 292 348
#     4   9  19  31  52  85 119 143 186 249 284 332
#     4  10  20  33  60  84 111 160 197 233 284 360
#
# _framework density 19.931256000000001
#
# number of rings (size 3 to 8) (size 9 to 14) (size 15 to 20)
#    0.000    1.667    6.667    1.000    2.333    1.333 
#    0.000    0.000    0.000    6.000    0.000    0.000 
#    0.000    0.000    0.000    0.000    0.000    0.000 
#
# Total GULP energy -200660.701671 kJ/mol
# GULP energy per Si atom -5573.908380 kJ/mol
# Density = 1.988589 g / cm^3
# Si number density = 19.931256 Si / 1000 Ang^3
#
#
#
# Elastic Constant Matrix: (Units=GPa)
#
#
# Indices 1 2 3 4 5 6 
#
# 1 31.8385 9.1952 6.3606 3.7567 0.0000 0.0000
# 2 9.1952 31.8385 6.3606 -3.7567 0.0000 0.0000
# 3 6.3606 6.3606 75.6023 0.0000 0.0000 0.0000
# 4 3.7567 -3.7567 0.0000 30.4798 0.0000 0.0000
# 5 0.0000 0.0000 0.0000 0.0000 30.4798 3.7567
# 6 0.0000 0.0000 0.0000 0.0000 3.7567 11.3216
#
#
#
# Elastic Compliance Matrix: (Units=1/GPa)
#
#
# Indices 1 2 3 4 5 6 
#
# 1 0.035535 -0.010512 -0.002105 -0.005675 0.000000 0.000000
# 2 -0.010512 0.035535 -0.002105 0.005675 0.000000 0.000000
# 3 -0.002105 -0.002105 0.013581 0.000000 0.000000 0.000000
# 4 -0.005675 0.005675 0.000000 0.034208 0.000000 0.000000
# 5 0.000000 0.000000 0.000000 0.000000 0.034208 -0.011351
# 6 0.000000 0.000000 0.000000 0.000000 -0.011351 0.092093
#
#
# Mechanical properties :
#
#
# Convention : Reuss Voigt Hill
#
# Bulk Modulus (GPa) = 18.11391 20.34577 19.22984
# Shear Modulus (GPa) = 17.06454 22.28045 19.67249
#
# Velocity S-wave (km/s) = 2.92921 3.34708 3.14509
# Velocity P-wave (km/s) = 4.53302 5.01671 4.78099
#
# Compressibility (1/GPa) = 0.05520620
#
# Stress axis : x y z
#
# Youngs Moduli (GPa) = 28.14153 28.14153 73.63041
#
# Poissons Ratio (x) = 0.29582 0.15501
# Poissons Ratio (y) = 0.29582 0.15501
# Poissons Ratio (z) = 0.05924 0.05924
#
# Static dielectric constant tensor:
#      x y z
#    x 1.735760 0.000000 0.000000 
#    y 0.000000 1.735760 0.000000 
#    z 0.000000 0.000000 1.738800 
# 
# From -- ./inp_files/2748.got.cif
#   From: 2010.05.17/outbox.cif.g08.bks.cpg/sg152_2_cif.got.tgz:2748.got - 2010.05.20 10:36:06.
