data_PCOD9575253
_publ_section_title
;
Structure prediction by ZEFSAII (Michael W. Deem and Ramdas Pophale) SiO2 
 PCOD9575253
Probable space group: R -3
;
_chemical_formula_sum "Si O2"
_cell_formula_units_Z 108
_cell_length_a 17.672649
_cell_length_b 17.672649
_cell_length_c 20.665963
_cell_angle_alpha 90.000000
_cell_angle_beta 90.000000
_cell_angle_gamma 120.000000
_cell_volume 5589.713942
_symmetry_space_group_name_H-M "R -3"
_symmetry_group_IT_number 148
_symmetry_cell_setting 'hexagonal'
loop_
_space_group_symop_operation_xyz
x,y,z
-y,x-y,z
-x+y,-x,z
-x,-y,-z
y,-x+y,-z
x-y,x,-z
2/3+x,1/3+y,1/3+z
2/3-y,1/3+x-y,1/3+z
2/3-x+y,1/3-x,1/3+z
2/3-x,1/3-y,1/3-z
2/3+y,1/3-x+y,1/3-z
2/3+x-y,1/3+x,1/3-z
1/3+x,2/3+y,2/3+z
1/3-y,2/3+x-y,2/3+z
1/3-x+y,2/3-x,2/3+z
1/3-x,2/3-y,2/3-z
1/3+y,2/3-x+y,2/3-z
1/3+x-y,2/3+x,2/3-z
loop_
_atom_site_type_symbol
_atom_site_label
_atom_site_fract_x
_atom_site_fract_y
_atom_site_fract_z
Si Si1 0.972222 0.147376 0.120553
Si Si2 0.431487 0.987544 0.114812
Si Si3 0.401115 0.236284 0.344094
Si Si4 0.175309 0.026624 0.849830
Si Si5 0.937691 0.278688 0.530223
Si Si6 0.685877 0.973504 0.666235
O O1 0.947287 0.137340 0.044439
O O2 0.043975 0.122693 0.144036
O O3 0.014123 0.247815 0.143462
O O4 0.881654 0.077062 0.152093
O O5 0.485152 0.092776 0.122850
O O6 0.509328 0.967900 0.124928
O O7 0.362529 0.959011 0.172871
O O8 0.371701 0.948640 0.051846
O O9 0.439261 0.273366 0.415025
O O10 0.351545 0.130859 0.342545
O O11 0.343275 0.280371 0.327060
O O12 0.945221 0.330902 0.595183
#
# Coordination Sequence:
#
# PCOD9575253 Si02
#       6
#    18  18  18  18  18  18
#     4  11  21  36  56  89 124 165 193 237 290 364
#     4  11  23  41  61  88 116 153 204 258 301 361
#     4  12  20  35  59  89 124 157 197 242 292 358
#     4  11  21  36  56  88 127 162 198 233 293 360
#     4  11  24  40  63  87 117 153 206 252 308 359
#     4  12  24  38  60  89 120 161 204 249 302 356
#
# _framework density 19.321203000000001
#
# number of rings (size 3 to 8) (size 9 to 14) (size 15 to 20)
#    0.000    0.667    6.667    1.833    2.333    1.333 
#    0.000    1.667    0.000    0.333    0.000    0.000 
#    0.000    0.000    0.000    0.000    0.000    0.000 
#
# Total GULP energy -200648.412436 kJ/mol
# GULP energy per Si atom -5573.567012 kJ/mol
# Density = 1.927723 g / cm^3
# Si number density = 19.321203 Si / 1000 Ang^3
#
#
#
# Elastic Constant Matrix: (Units=GPa)
#
#
# Indices 1 2 3 4 5 6 
#
# 1 87.2173 39.4499 24.3947 8.0460 -3.6574 0.0000
# 2 39.4499 87.2173 24.3947 -8.0460 3.6574 0.0000
# 3 24.3947 24.3947 76.6212 0.0000 0.0000 0.0000
# 4 8.0460 -8.0460 0.0000 17.9042 0.0000 3.6574
# 5 -3.6574 3.6574 0.0000 0.0000 17.9042 8.0460
# 6 0.0000 0.0000 0.0000 3.6574 8.0460 23.8837
#
#
#
# Elastic Compliance Matrix: (Units=1/GPa)
#
#
# Indices 1 2 3 4 5 6 
#
# 1 0.017306 -0.008308 -0.002865 -0.011511 0.005232 0.000000
# 2 -0.008308 0.017306 -0.002865 0.011511 -0.005232 0.000000
# 3 -0.002865 -0.002865 0.014875 0.000000 0.000000 0.000000
# 4 -0.011511 0.011511 0.000000 0.068336 0.000000 -0.010464
# 5 0.005232 -0.005232 0.000000 0.000000 0.068336 -0.023021
# 6 0.000000 0.000000 0.000000 -0.010464 -0.023021 0.051227
#
#
# Mechanical properties :
#
#
# Convention : Reuss Voigt Hill
#
# Bulk Modulus (GPa) = 46.70190 47.50384 47.10287
# Shear Modulus (GPa) = 18.34198 22.79285 20.56741
#
# Velocity S-wave (km/s) = 3.08444 3.43837 3.26621
# Velocity P-wave (km/s) = 6.07527 6.35633 6.21739
#
# Compressibility (1/GPa) = 0.02141241
#
# Stress axis : x y z
#
# Youngs Moduli (GPa) = 57.78368 57.78368 67.22494
#
# Poissons Ratio (x) = 0.48005 0.19259
# Poissons Ratio (y) = 0.48005 0.19259
# Poissons Ratio (z) = 0.16554 0.16554
#
# Static dielectric constant tensor:
#      x y z
#    x 1.719170 0.000000 0.000000 
#    y 0.000000 1.719170 0.000000 
#    z 0.000000 0.000000 1.720360 
# 
# From -- ./inp_files/3131.got.cif
#   From: 2010.05.17/outbox.cif.g08.bks.cpg/sg148_2_cif.got.tgz:3131.got - 2010.05.20 13:50:20.
