data_PCOD9575162
_publ_section_title
;
Structure prediction by ZEFSAII (Michael W. Deem and Ramdas Pophale) SiO2 
 PCOD9575162
Probable space group: R -3
;
_chemical_formula_sum "Si O2"
_cell_formula_units_Z 72
_cell_length_a 12.864249
_cell_length_b 12.864249
_cell_length_c 18.152308
_cell_angle_alpha 90.000000
_cell_angle_beta 90.000000
_cell_angle_gamma 120.000000
_cell_volume 2601.545098
_symmetry_space_group_name_H-M "R -3"
_symmetry_group_IT_number 148
_symmetry_cell_setting 'hexagonal'
loop_
_space_group_symop_operation_xyz
x,y,z
-y,x-y,z
-x+y,-x,z
-x,-y,-z
y,-x+y,-z
x-y,x,-z
2/3+x,1/3+y,1/3+z
2/3-y,1/3+x-y,1/3+z
2/3-x+y,1/3-x,1/3+z
2/3-x,1/3-y,1/3-z
2/3+y,1/3-x+y,1/3-z
2/3+x-y,1/3+x,1/3-z
1/3+x,2/3+y,2/3+z
1/3-y,2/3+x-y,2/3+z
1/3-x+y,2/3-x,2/3+z
1/3-x,2/3-y,2/3-z
1/3+y,2/3-x+y,2/3-z
1/3+x-y,2/3+x,2/3-z
loop_
_atom_site_type_symbol
_atom_site_label
_atom_site_fract_x
_atom_site_fract_y
_atom_site_fract_z
Si Si1 0.721344 0.711408 0.971872
Si Si2 0.709463 0.228251 0.071310
Si Si3 0.394587 0.504767 0.134465
Si Si4 0.714099 0.536916 0.448035
O O1 0.607858 0.731178 0.957586
O O2 0.679640 0.584635 0.931113
O O3 0.851861 0.802728 0.935499
O O4 0.748504 0.732511 0.058314
O O5 0.791579 0.368828 0.050618
O O6 0.710832 0.226291 0.161021
O O7 0.312504 0.498049 0.204784
O O8 0.480005 0.456680 0.161723
#
# Coordination Sequence:
#
# PCOD9575162 Si02
#       4
#    18  18  18  18
#     4  10  22  42  63 100 131 170 224 278 331 397
#     4   9  22  45  67  94 135 178 219 273 337 392
#     4   9  19  40  61  90 129 174 219 275 335 390
#     4  10  22  39  63  98 128 175 220 274 331 399
#
# _framework density 27.675858999999999
#
# number of rings (size 3 to 8) (size 9 to 14) (size 15 to 20)
#    0.500    2.000    0.000    0.250    3.500    2.000 
#   22.500    1.250    0.000    0.000    0.000    0.000 
#    0.000    0.000    0.000    0.000    0.000    0.000 
#
# Total GULP energy -133855.028093 kJ/mol
# GULP energy per Si atom -5577.292837 kJ/mol
# Density = 2.761287 g / cm^3
# Si number density = 27.675859 Si / 1000 Ang^3
#
#
#
# Elastic Constant Matrix: (Units=GPa)
#
#
# Indices 1 2 3 4 5 6 
#
# 1 80.8843 51.3442 17.2693 12.9767 -6.6845 0.0000
# 2 51.3442 80.8843 17.2693 -12.9767 6.6845 0.0000
# 3 17.2693 17.2693 80.8991 0.0000 0.0000 0.0000
# 4 12.9767 -12.9767 0.0000 40.7717 0.0000 6.6845
# 5 -6.6845 6.6845 0.0000 0.0000 40.7717 12.9767
# 6 0.0000 0.0000 0.0000 6.6845 12.9767 14.7700
#
#
#
# Elastic Compliance Matrix: (Units=1/GPa)
#
#
# Indices 1 2 3 4 5 6 
#
# 1 0.030199 -0.022190 -0.001710 -0.016674 0.008589 0.000000
# 2 -0.022190 0.030199 -0.001710 0.016674 -0.008589 0.000000
# 3 -0.001710 -0.001710 0.013091 0.000000 0.000000 0.000000
# 4 -0.016674 0.016674 0.000000 0.037957 0.000000 -0.017178
# 5 0.008589 -0.008589 0.000000 0.000000 0.037957 -0.033349
# 6 0.000000 0.000000 0.000000 -0.017178 -0.033349 0.104779
#
#
# Mechanical properties :
#
#
# Convention : Reuss Voigt Hill
#
# Bulk Modulus (GPa) = 44.90213 46.04816 45.47515
# Shear Modulus (GPa) = 15.98331 29.71498 22.84915
#
# Velocity S-wave (km/s) = 2.40577 3.28026 2.87644
# Velocity P-wave (km/s) = 4.89658 5.56968 5.24394
#
# Compressibility (1/GPa) = 0.02227066
#
# Stress axis : x y z
#
# Youngs Moduli (GPa) = 33.11327 33.11327 76.38822
#
# Poissons Ratio (x) = 0.73479 0.13060
# Poissons Ratio (y) = 0.73479 0.13060
# Poissons Ratio (z) = 0.05661 0.05661
#
# Static dielectric constant tensor:
#      x y z
#    x 2.234380 0.000000 0.000000 
#    y 0.000000 2.234380 0.000000 
#    z 0.000000 0.000000 2.220780 
# 
# From -- ./inp_files/2530.got.cif
#   From: 2010.05.17/outbox.cif.g08.bks.cpg/sg148_2_cif.got.tgz:2530.got - 2010.05.20 13:50:20.
