data_PCOD9575033
_publ_section_title
;
Structure prediction by ZEFSAII (Michael W. Deem and Ramdas Pophale) SiO2 
 PCOD9575033
Probable space group: R -3
;
_chemical_formula_sum "Si O2"
_cell_formula_units_Z 126
_cell_length_a 18.039513
_cell_length_b 18.039513
_cell_length_c 25.548027
_cell_angle_alpha 90.000000
_cell_angle_beta 90.000000
_cell_angle_gamma 120.000000
_cell_volume 7200.084879
_symmetry_space_group_name_H-M "R -3"
_symmetry_group_IT_number 148
_symmetry_cell_setting 'hexagonal'
loop_
_space_group_symop_operation_xyz
x,y,z
-y,x-y,z
-x+y,-x,z
-x,-y,-z
y,-x+y,-z
x-y,x,-z
2/3+x,1/3+y,1/3+z
2/3-y,1/3+x-y,1/3+z
2/3-x+y,1/3-x,1/3+z
2/3-x,1/3-y,1/3-z
2/3+y,1/3-x+y,1/3-z
2/3+x-y,1/3+x,1/3-z
1/3+x,2/3+y,2/3+z
1/3-y,2/3+x-y,2/3+z
1/3-x+y,2/3-x,2/3+z
1/3-x,2/3-y,2/3-z
1/3+y,2/3-x+y,2/3-z
1/3+x-y,2/3+x,2/3-z
loop_
_atom_site_type_symbol
_atom_site_label
_atom_site_fract_x
_atom_site_fract_y
_atom_site_fract_z
Si Si1 0.175163 0.000347 0.302267
Si Si2 0.175163 0.174817 0.302267
Si Si3 0.581930 0.993537 0.437686
Si Si4 0.568503 0.964483 0.266853
Si Si5 0.964483 0.568503 0.733147
Si Si6 0.084737 0.744941 0.895647
Si Si7 0.333333 0.841038 0.166667
O O1 0.091304 0.908696 0.303944
O O2 0.152394 0.076197 0.307503
O O3 0.230063 0.017981 0.249452
O O4 0.240190 0.014740 0.349524
O O5 0.240190 0.225451 0.349524
O O6 0.230063 0.212083 0.249452
O O7 0.594059 1.000000 0.500000
O O8 0.671565 0.049700 0.408719
O O9 0.508049 0.016098 0.424300
O O10 0.494404 0.988808 0.271215
O O11 0.546865 0.903364 0.216217
O O12 0.661768 0.044801 0.257947
O O13 0.903364 0.546865 0.783783
O O14 0.415657 0.831314 0.155139
#
# Coordination Sequence:
#
# PCOD9575033 Si02
#       7
#    18  18  18  18  18  18  18
#     4  10  21  36  57  84 115 149 184 224 274 334
#     4  10  21  36  57  84 115 149 184 224 274 334
#     4  10  21  37  54  75 104 141 187 239 286 323
#     4  10  20  34  53  79 110 145 184 227 277 335
#     4  10  20  34  53  79 110 145 184 227 277 335
#     4  10  21  37  54  75 104 141 187 239 286 323
#     4  10  19  30  47  74 112 152 186 220 263 324
#
# _framework density 17.499794000000001
#
# number of rings (size 3 to 8) (size 9 to 14) (size 15 to 20)
#    0.000    2.000    1.429    2.143    0.000    4.571 
#    0.000    2.857    0.000    0.571    0.000    0.000 
#    0.000    6.857    0.000    0.000    0.000    0.000 
#
# Total GULP energy -234464.797302 kJ/mol
# GULP energy per Si atom -5582.495174 kJ/mol
# Density = 1.745996 g / cm^3
# Si number density = 17.499794 Si / 1000 Ang^3
#
#
#
# Elastic Constant Matrix: (Units=GPa)
#
#
# Indices 1 2 3 4 5 6 
#
# 1 121.9282 89.4140 53.1485 2.5945 0.0000 0.0000
# 2 89.4140 121.9282 53.1485 -2.5945 0.0000 0.0000
# 3 53.1485 53.1485 100.5345 0.0000 0.0000 0.0000
# 4 2.5945 -2.5945 0.0000 22.1356 0.0000 0.0000
# 5 0.0000 0.0000 0.0000 0.0000 22.1356 2.5945
# 6 0.0000 0.0000 0.0000 0.0000 2.5945 16.2571
#
#
#
# Elastic Compliance Matrix: (Units=1/GPa)
#
#
# Indices 1 2 3 4 5 6 
#
# 1 0.018894 -0.012448 -0.003407 -0.003674 0.000000 0.000000
# 2 -0.012448 0.018894 -0.003407 0.003674 0.000000 0.000000
# 3 -0.003407 -0.003407 0.013550 0.000000 0.000000 0.000000
# 4 -0.003674 0.003674 0.000000 0.046037 0.000000 0.000000
# 5 0.000000 0.000000 0.000000 0.000000 0.046037 -0.007347
# 6 0.000000 0.000000 0.000000 0.000000 -0.007347 0.062684
#
#
# Mechanical properties :
#
#
# Convention : Reuss Voigt Hill
#
# Bulk Modulus (GPa) = 78.05965 81.75701 79.90833
# Shear Modulus (GPa) = 20.08900 22.01765 21.05333
#
# Velocity S-wave (km/s) = 3.39183 3.55091 3.47228
# Velocity P-wave (km/s) = 7.74869 7.97698 7.86366
#
# Compressibility (1/GPa) = 0.01281072
#
# Stress axis : x y z
#
# Youngs Moduli (GPa) = 52.92749 52.92749 73.80290
#
# Poissons Ratio (x) = 0.65886 0.25148
# Poissons Ratio (y) = 0.65886 0.25148
# Poissons Ratio (z) = 0.18035 0.18035
#
# Static dielectric constant tensor:
#      x y z
#    x 1.584090 0.000000 0.000000 
#    y 0.000000 1.584090 0.000000 
#    z 0.000000 0.000000 1.614290 
# 
# From -- ./inp_files/3445.got.cif
#   From: 2010.05.17/outbox.cif.g08.bks.cpg/sg148_2_cif.got.tgz:3445.got - 2010.05.20 13:50:20.
