data_PCOD9575215
_publ_section_title
;
Structure prediction by ZEFSAII (Michael W. Deem and Ramdas Pophale) SiO2 
 PCOD9575215
Probable space group: R -3
;
_chemical_formula_sum "Si O2"
_cell_formula_units_Z 60
_cell_length_a 11.811760
_cell_length_b 11.811760
_cell_length_c 19.127825
_cell_angle_alpha 90.000000
_cell_angle_beta 90.000000
_cell_angle_gamma 120.000000
_cell_volume 2311.135718
_symmetry_space_group_name_H-M "R -3"
_symmetry_group_IT_number 148
_symmetry_cell_setting 'hexagonal'
loop_
_space_group_symop_operation_xyz
x,y,z
-y,x-y,z
-x+y,-x,z
-x,-y,-z
y,-x+y,-z
x-y,x,-z
2/3+x,1/3+y,1/3+z
2/3-y,1/3+x-y,1/3+z
2/3-x+y,1/3-x,1/3+z
2/3-x,1/3-y,1/3-z
2/3+y,1/3-x+y,1/3-z
2/3+x-y,1/3+x,1/3-z
1/3+x,2/3+y,2/3+z
1/3-y,2/3+x-y,2/3+z
1/3-x+y,2/3-x,2/3+z
1/3-x,2/3-y,2/3-z
1/3+y,2/3-x+y,2/3-z
1/3+x-y,2/3+x,2/3-z
loop_
_atom_site_type_symbol
_atom_site_label
_atom_site_fract_x
_atom_site_fract_y
_atom_site_fract_z
Si Si1 0.233762 0.729666 0.070330
Si Si2 0.000000 0.000000 0.081146
Si Si3 0.043635 0.260825 0.135030
Si Si4 0.496126 0.091444 0.061682
O O1 0.173637 0.813532 0.099993
O O2 0.196070 0.583151 0.093744
O O3 0.209651 0.705576 0.986809
O O4 0.000000 0.500000 0.000000
O O5 0.884410 0.862645 0.106084
O O6 0.000000 0.000000 0.000000
O O7 0.067592 0.239233 0.215423
O O8 0.959046 0.323624 0.107397
#
# Coordination Sequence:
#
# PCOD9575215 Si02
#       4
#    18   6  18  18
#     4  10  23  48  84 110 161 205 276 323 408 471
#     4  12  30  51  75 111 171 214 269 331 414 489
#     4  12  28  48  82 119 162 216 276 335 413 487
#     4  12  25  48  78 120 161 212 271 339 404 486
#
# _framework density 25.961262999999999
#
# number of rings (size 3 to 8) (size 9 to 14) (size 15 to 20)
#    0.600    0.000    3.000    3.600    4.200    1.200 
#    0.000    3.000    0.000    0.000    0.000    0.000 
#    0.000    0.000    0.000    0.000    0.000    0.000 
#
# Total GULP energy -111559.280534 kJ/mol
# GULP energy per Si atom -5577.964027 kJ/mol
# Density = 2.590217 g / cm^3
# Si number density = 25.961263 Si / 1000 Ang^3
#
#
#
# Elastic Constant Matrix: (Units=GPa)
#
#
# Indices 1 2 3 4 5 6 
#
# 1 60.4722 1.1012 12.3975 -2.8116 4.7196 0.0000
# 2 1.1012 60.4722 12.3975 2.8116 -4.7196 0.0000
# 3 12.3975 12.3975 180.4902 0.0000 0.0000 0.0000
# 4 -2.8116 2.8116 0.0000 54.8068 0.0000 -4.7196
# 5 4.7196 -4.7196 0.0000 0.0000 54.8068 -2.8116
# 6 0.0000 0.0000 0.0000 -4.7196 -2.8116 29.6855
#
#
#
# Elastic Compliance Matrix: (Units=1/GPa)
#
#
# Indices 1 2 3 4 5 6 
#
# 1 0.016932 -0.000229 -0.001147 0.000880 -0.001478 0.000000
# 2 -0.000229 0.016932 -0.001147 -0.000880 0.001478 0.000000
# 3 -0.001147 -0.001147 0.005698 0.000000 0.000000 0.000000
# 4 0.000880 -0.000880 0.000000 0.018591 0.000000 0.002956
# 5 -0.001478 0.001478 0.000000 0.000000 0.018591 0.001761
# 6 0.000000 0.000000 0.000000 0.002956 0.001761 0.034323
#
#
# Mechanical properties :
#
#
# Convention : Reuss Voigt Hill
#
# Bulk Modulus (GPa) = 28.97334 39.24745 34.11040
# Shear Modulus (GPa) = 39.17886 46.22906 42.70396
#
# Velocity S-wave (km/s) = 3.88896 4.22440 4.06015
# Velocity P-wave (km/s) = 5.59909 6.24056 5.92851
#
# Compressibility (1/GPa) = 0.03451449
#
# Stress axis : x y z
#
# Youngs Moduli (GPa) = 59.05917 59.05917 175.49786
#
# Poissons Ratio (x) = 0.01355 0.20134
# Poissons Ratio (y) = 0.01355 0.20134
# Poissons Ratio (z) = 0.06776 0.06776
#
# Static dielectric constant tensor:
#      x y z
#    x 2.117570 0.000000 0.000000 
#    y 0.000000 2.117570 0.000000 
#    z 0.000000 0.000000 2.131830 
# 
# From -- ./inp_files/2983.got.cif
#   From: 2010.05.17/outbox.cif.g08.bks.cpg/sg148_2_cif.got.tgz:2983.got - 2010.05.20 13:50:20.
