data_PCOD9575909
_publ_section_title
;
Structure prediction by ZEFSAII (Michael W. Deem and Ramdas Pophale) SiO2 
 PCOD9575909
Probable space group: P 31 2 1
;
_chemical_formula_sum "Si O2"
_cell_formula_units_Z 33
_cell_length_a 13.648283
_cell_length_b 13.648283
_cell_length_c 9.014796
_cell_angle_alpha 90.000000
_cell_angle_beta 90.000000
_cell_angle_gamma 120.000000
_cell_volume 1454.261722
_symmetry_space_group_name_H-M "P 31 2 1"
_symmetry_group_IT_number 152
_symmetry_cell_setting 'hexagonal'
loop_
_space_group_symop_operation_xyz
x,y,z
-y,x-y,1/3+z
-x+y,-x,2/3+z
x-y,-y,2/3-z
-x,-x+y,1/3-z
y,x,-z
loop_
_atom_site_type_symbol
_atom_site_label
_atom_site_fract_x
_atom_site_fract_y
_atom_site_fract_z
Si Si1 0.131096 0.313962 0.156685
Si Si2 0.858930 0.979720 0.002089
Si Si3 0.545402 0.723704 0.758592
Si Si4 0.512847 0.894349 0.946930
Si Si5 0.000000 0.306282 0.666667
Si Si6 0.177640 0.818902 0.485369
O O1 0.133036 0.205406 0.220036
O O2 0.202689 0.412443 0.270686
O O3 0.000000 0.281918 0.166667
O O4 0.177678 0.343763 0.991527
O O5 0.764034 0.859091 0.072951
O O6 0.834998 0.000000 0.833334
O O7 0.971899 0.971899 0.000000
O O8 0.490025 0.784025 0.851839
O O9 0.465946 0.595413 0.708517
O O10 0.655955 0.739051 0.845680
O O11 0.560466 0.000000 0.833334
O O12 0.603408 0.900558 0.068706
O O13 0.108369 0.413635 0.760616
#
# Coordination Sequence:
#
# PCOD9575909 Si02
#       6
#     6   6   6   6   3   6
#     4  12  23  40  67 100 139 190 238 290 363 434
#     4  12  23  38  59  98 145 187 232 285 343 427
#     4  11  25  48  74 103 145 190 243 316 371 451
#     4  11  26  49  74 107 146 196 249 309 382 442
#     4  10  20  44  70  94 130 184 224 294 378 424
#     4  11  22  42  68  97 139 183 240 293 358 433
#
# _framework density 22.691927
#
# number of rings (size 3 to 8) (size 9 to 14) (size 15 to 20)
#    0.000    0.727    2.727    6.545    0.000    1.455 
#    9.818    0.000    0.000    0.000    0.000    0.000 
#    0.000    0.000    0.000    0.000    0.000    0.000 
#
# Total GULP energy -183794.601737 kJ/mol
# GULP energy per Si atom -5569.533386 kJ/mol
# Density = 2.264028 g / cm^3
# Si number density = 22.691927 Si / 1000 Ang^3
#
#
#
# Elastic Constant Matrix: (Units=GPa)
#
#
# Indices 1 2 3 4 5 6 
#
# 1 70.4500 19.3303 34.9783 -11.2439 0.0001 0.0000
# 2 19.3303 70.4500 34.9783 11.2439 -0.0001 0.0000
# 3 34.9783 34.9783 208.9225 0.0000 0.0000 0.0000
# 4 -11.2439 11.2439 0.0000 31.3761 0.0000 -0.0001
# 5 0.0001 -0.0001 0.0000 0.0000 31.3761 -11.2439
# 6 0.0000 0.0000 0.0000 -0.0001 -11.2439 25.5599
#
#
#
# Elastic Compliance Matrix: (Units=1/GPa)
#
#
# Indices 1 2 3 4 5 6 
#
# 1 0.018016 -0.005207 -0.002145 0.008322 0.000000 0.000000
# 2 -0.005207 0.018016 -0.002145 -0.008322 0.000000 0.000000
# 3 -0.002145 -0.002145 0.005505 0.000000 0.000000 0.000000
# 4 0.008322 -0.008322 0.000000 0.037836 0.000000 0.000000
# 5 0.000000 0.000000 0.000000 0.000000 0.037836 0.016644
# 6 0.000000 0.000000 0.000000 0.000000 0.016644 0.046446
#
#
# Mechanical properties :
#
#
# Convention : Reuss Voigt Hill
#
# Bulk Modulus (GPa) = 44.35580 58.71071 51.53325
# Shear Modulus (GPa) = 26.29348 35.03143 30.66246
#
# Velocity S-wave (km/s) = 3.40768 3.93336 3.67992
# Velocity P-wave (km/s) = 5.92220 6.82331 6.38866
#
# Compressibility (1/GPa) = 0.02254497
#
# Stress axis : x y z
#
# Youngs Moduli (GPa) = 55.50593 55.50593 181.66748
#
# Poissons Ratio (x) = 0.28901 0.38960
# Poissons Ratio (y) = 0.28901 0.38960
# Poissons Ratio (z) = 0.11904 0.11904
#
# Static dielectric constant tensor:
#      x y z
#    x 2.157990 0.000000 0.000000 
#    y 0.000000 2.157990 0.000000 
#    z 0.000000 0.000000 2.044480 
# 
# From -- ./inp_files/1140.got.cif
#   From: 2010.05.17/outbox.cif.g08.bks.cpg/sg152_1_cif.got.tgz:1140.got - 2010.05.20 10:36:06.
