data_PCOD9575875
_publ_section_title
;
Structure prediction by ZEFSAII (Michael W. Deem and Ramdas Pophale) SiO2 
 PCOD9575875
Probable space group: P 31 2 1
;
_chemical_formula_sum "Si O2"
_cell_formula_units_Z 42
_cell_length_a 9.033902
_cell_length_b 9.033902
_cell_length_c 29.325226
_cell_angle_alpha 90.000000
_cell_angle_beta 90.000000
_cell_angle_gamma 120.000000
_cell_volume 2072.634627
_symmetry_space_group_name_H-M "P 31 2 1"
_symmetry_group_IT_number 152
_symmetry_cell_setting 'hexagonal'
loop_
_space_group_symop_operation_xyz
x,y,z
-y,x-y,1/3+z
-x+y,-x,2/3+z
x-y,-y,2/3-z
-x,-x+y,1/3-z
y,x,-z
loop_
_atom_site_type_symbol
_atom_site_label
_atom_site_fract_x
_atom_site_fract_y
_atom_site_fract_z
Si Si1 0.016817 0.544254 0.544477
Si Si2 0.379601 0.356570 0.378600
Si Si3 0.060090 0.825611 0.856565
Si Si4 0.631671 0.024519 0.055123
Si Si5 0.669968 0.266926 0.370051
Si Si6 0.692834 0.360217 0.601732
Si Si7 0.270546 0.127830 0.464992
O O1 0.126499 0.612285 0.590902
O O2 0.081314 0.418627 0.524772
O O3 0.022590 0.683120 0.509849
O O4 0.820258 0.447735 0.560269
O O5 0.296853 0.313736 0.328153
O O6 0.564426 0.369637 0.373546
O O7 0.379882 0.525385 0.396285
O O8 0.291466 0.207212 0.415112
O O9 0.104125 0.766582 0.903983
O O10 0.907473 0.861183 0.867558
O O11 0.208357 0.000000 0.833334
O O12 0.484658 0.834775 0.067129
O O13 0.541709 0.135894 0.046638
O O14 0.648952 0.213698 0.317244
O O15 0.257657 0.257657 0.500000
#
# Coordination Sequence:
#
# PCOD9575875 Si02
#       7
#     6   6   6   6   6   6   6
#     4  11  23  40  65  91 125 171 205 262 325 373
#     4   9  21  40  66  93 120 160 213 266 306 374
#     4  11  26  41  60  90 133 170 211 261 313 390
#     4  10  21  39  64  91 126 164 206 260 314 371
#     4   9  21  39  64  94 126 155 212 263 316 373
#     4  10  20  39  66  94 121 165 211 255 316 383
#     4  10  23  42  62  92 124 161 216 260 316 383
#
# _framework density 20.264061999999999
#
# number of rings (size 3 to 8) (size 9 to 14) (size 15 to 20)
#    0.000    2.000    1.429    0.429    6.000    1.714 
#    2.571    0.000    6.286    0.000    0.000    0.000 
#    0.000    0.000    0.000    0.000    0.000    0.000 
#
# Total GULP energy -234218.519689 kJ/mol
# GULP energy per Si atom -5576.631421 kJ/mol
# Density = 2.021794 g / cm^3
# Si number density = 20.264062 Si / 1000 Ang^3
#
#
#
# Elastic Constant Matrix: (Units=GPa)
#
#
# Indices 1 2 3 4 5 6 
#
# 1 54.5329 10.6650 35.9753 4.5082 0.0000 0.0000
# 2 10.6650 54.5329 35.9753 -4.5082 0.0000 0.0000
# 3 35.9753 35.9753 72.1082 0.0000 0.0000 0.0000
# 4 4.5082 -4.5082 0.0000 27.8070 0.0000 0.0000
# 5 0.0000 0.0000 0.0000 0.0000 27.8070 4.5082
# 6 0.0000 0.0000 0.0000 0.0000 4.5082 21.9340
#
#
#
# Elastic Compliance Matrix: (Units=1/GPa)
#
#
# Indices 1 2 3 4 5 6 
#
# 1 0.028855 0.005273 -0.017027 -0.003823 0.000000 0.000000
# 2 0.005273 0.028855 -0.017027 0.003823 0.000000 0.000000
# 3 -0.017027 -0.017027 0.030858 0.000000 0.000000 0.000000
# 4 -0.003823 0.003823 0.000000 0.037202 0.000000 0.000000
# 5 0.000000 0.000000 0.000000 0.000000 0.037202 -0.007646
# 6 0.000000 0.000000 0.000000 0.000000 -0.007646 0.047163
#
#
# Mechanical properties :
#
#
# Convention : Reuss Voigt Hill
#
# Bulk Modulus (GPa) = 32.25092 38.48945 35.37019
# Shear Modulus (GPa) = 17.98367 22.08015 20.03191
#
# Velocity S-wave (km/s) = 2.98227 3.30452 3.14752
# Velocity P-wave (km/s) = 5.27337 5.79612 5.54091
#
# Compressibility (1/GPa) = 0.03100687
#
# Stress axis : x y z
#
# Youngs Moduli (GPa) = 34.65622 34.65622 32.40693
#
# Poissons Ratio (x) = -0.18276 0.55179
# Poissons Ratio (y) = -0.18276 0.55179
# Poissons Ratio (z) = 0.59008 0.59008
#
# Static dielectric constant tensor:
#      x y z
#    x 1.712710 0.000000 0.000000 
#    y 0.000000 1.712710 0.000000 
#    z 0.000000 0.000000 1.755420 
# 
# From -- ./inp_files/3733.got.cif
#   From: 2010.05.17/outbox.cif.g08.bks.cpg/sg152_2_cif.got.tgz:3733.got - 2010.05.20 10:36:06.
