data_PCOD9575241
_publ_section_title
;
Structure prediction by ZEFSAII (Michael W. Deem and Ramdas Pophale) SiO2 
 PCOD9575241
Probable space group: R -3
;
_chemical_formula_sum "Si O2"
_cell_formula_units_Z 120
_cell_length_a 16.845207
_cell_length_b 16.845207
_cell_length_c 29.268104
_cell_angle_alpha 90.000000
_cell_angle_beta 90.000000
_cell_angle_gamma 120.000000
_cell_volume 7192.467787
_symmetry_space_group_name_H-M "R -3"
_symmetry_group_IT_number 148
_symmetry_cell_setting 'hexagonal'
loop_
_space_group_symop_operation_xyz
x,y,z
-y,x-y,z
-x+y,-x,z
-x,-y,-z
y,-x+y,-z
x-y,x,-z
2/3+x,1/3+y,1/3+z
2/3-y,1/3+x-y,1/3+z
2/3-x+y,1/3-x,1/3+z
2/3-x,1/3-y,1/3-z
2/3+y,1/3-x+y,1/3-z
2/3+x-y,1/3+x,1/3-z
1/3+x,2/3+y,2/3+z
1/3-y,2/3+x-y,2/3+z
1/3-x+y,2/3-x,2/3+z
1/3-x,2/3-y,2/3-z
1/3+y,2/3-x+y,2/3-z
1/3+x-y,2/3+x,2/3-z
loop_
_atom_site_type_symbol
_atom_site_label
_atom_site_fract_x
_atom_site_fract_y
_atom_site_fract_z
Si Si1 0.875241 0.434393 0.053700
Si Si2 0.096949 0.709684 0.008039
Si Si3 0.776241 0.725763 0.336169
Si Si4 0.501675 0.014857 0.862220
Si Si5 0.666668 0.333334 0.604253
Si Si6 0.000000 0.000000 0.379459
Si Si7 0.281444 0.406789 0.117485
Si Si8 0.502807 0.324379 0.907090
O O1 0.894348 0.371231 0.018211
O O2 0.883908 0.522934 0.026988
O O3 0.772798 0.376055 0.073850
O O4 0.943653 0.467726 0.096634
O O5 0.181860 0.806456 0.990936
O O6 0.106204 0.708399 0.063100
O O7 0.994159 0.689848 0.000446
O O8 0.794338 0.757756 0.388689
O O9 0.429215 0.050724 0.861254
O O10 0.530292 0.993103 0.812997
O O11 0.595941 0.103959 0.877167
O O12 0.666668 0.333334 0.659238
O O13 0.901026 0.928588 0.397690
O O14 0.251497 0.484794 0.119065
#
# Coordination Sequence:
#
# PCOD9575241 Si02
#       8
#    18  18  18  18   6   6  18  18
#     4  12  21  36  59  85 117 153 192 239 285 343
#     4  11  22  37  59  86 119 151 193 244 289 340
#     4  11  21  34  56  86 117 148 192 240 284 330
#     4  12  22  33  51  76 119 157 193 225 280 349
#     4  12  21  36  57  85 112 144 192 244 295 324
#     4  12  18  27  49  82 111 147 186 216 268 355
#     4  11  22  33  49  78 118 162 186 223 285 351
#     4  11  20  29  48  77 115 154 183 218 269 341
#
# _framework density 16.684121999999999
#
# number of rings (size 3 to 8) (size 9 to 14) (size 15 to 20)
#    0.000    0.600    9.000    2.250    0.000    0.000 
#    0.000    1.500    0.000    7.500    0.000    0.000 
#    0.000    0.000    0.000    0.000    0.000    0.000 
#
# Total GULP energy -222931.554433 kJ/mol
# GULP energy per Si atom -5573.288861 kJ/mol
# Density = 1.664615 g / cm^3
# Si number density = 16.684122 Si / 1000 Ang^3
#
#
#
# Elastic Constant Matrix: (Units=GPa)
#
#
# Indices 1 2 3 4 5 6 
#
# 1 89.5643 46.7337 38.0651 3.2406 -0.8900 0.0001
# 2 46.7337 89.5647 38.0651 -3.2404 0.8895 -0.0001
# 3 38.0651 38.0651 87.9965 -0.0001 0.0003 0.0000
# 4 3.2406 -3.2404 -0.0001 15.5778 -0.0005 0.8899
# 5 -0.8900 0.8895 0.0003 -0.0005 15.5769 3.2399
# 6 0.0001 -0.0001 0.0000 0.8899 3.2399 21.4151
#
#
#
# Elastic Compliance Matrix: (Units=1/GPa)
#
#
# Indices 1 2 3 4 5 6 
#
# 1 0.016920 -0.007246 -0.004185 -0.005027 0.001380 0.000000
# 2 -0.007246 0.016920 -0.004185 0.005027 -0.001380 0.000000
# 3 -0.004185 -0.004185 0.014985 0.000000 0.000000 0.000000
# 4 -0.005027 0.005027 0.000000 0.066443 0.000002 -0.002761
# 5 0.001380 -0.001380 0.000000 0.000002 0.066446 -0.010053
# 6 0.000000 0.000000 0.000000 -0.002761 -0.010053 0.048332
#
#
# Mechanical properties :
#
#
# Convention : Reuss Voigt Hill
#
# Bulk Modulus (GPa) = 56.83819 56.98370 56.91095
# Shear Modulus (GPa) = 18.71670 20.13141 19.42406
#
# Velocity S-wave (km/s) = 3.35300 3.47741 3.41577
# Velocity P-wave (km/s) = 7.00938 7.09590 7.05277
#
# Compressibility (1/GPa) = 0.01759380
#
# Stress axis : x y z
#
# Youngs Moduli (GPa) = 59.10137 59.10183 66.73506
#
# Poissons Ratio (x) = 0.42823 0.27928
# Poissons Ratio (y) = 0.42823 0.27928
# Poissons Ratio (z) = 0.24733 0.24733
#
# Static dielectric constant tensor:
#      x y z
#    x 1.593500 0.000000 0.000000 
#    y 0.000000 1.593500 0.000000 
#    z 0.000000 0.000000 1.640370 
# 
# From -- ./inp_files/3750.got.cif
#   From: 2010.05.17/outbox.cif.g08.bks.cpg/sg148_2_cif.got.tgz:3750.got - 2010.05.20 13:50:20.
