data_PCOD9575391
_publ_section_title
;
Structure prediction by ZEFSAII (Michael W. Deem and Ramdas Pophale) SiO2 
 PCOD9575391
Probable space group: P 3 1 2
;
_chemical_formula_sum "Si O2"
_cell_formula_units_Z 32
_cell_length_a 17.139535
_cell_length_b 17.139535
_cell_length_c 7.829536
_cell_angle_alpha 90.000000
_cell_angle_beta 90.000000
_cell_angle_gamma 120.000000
_cell_volume 1991.887139
_symmetry_space_group_name_H-M "P 3 1 2"
_symmetry_group_IT_number 149
_symmetry_cell_setting 'hexagonal'
loop_
_space_group_symop_operation_xyz
x,y,z
-y,x-y,z
-x+y,-x,z
-y,-x,-z
-x+y,y,-z
x,x-y,-z
loop_
_atom_site_type_symbol
_atom_site_label
_atom_site_fract_x
_atom_site_fract_y
_atom_site_fract_z
Si Si1 0.767884 0.712881 0.704785
Si Si2 0.000000 0.000000 0.789977
Si Si3 0.845545 0.510625 0.291496
Si Si4 0.794528 0.897264 0.797973
Si Si5 0.767884 0.055003 0.704785
Si Si6 0.845545 0.334920 0.291497
O O1 0.696252 0.612317 0.765042
O O2 0.749982 0.793332 0.747987
O O3 0.866887 0.733775 0.768064
O O4 0.770206 0.708562 0.500000
O O5 0.897084 0.948541 0.728757
O O6 0.000000 0.000000 0.000000
O O7 0.861468 0.430734 0.231134
O O8 0.746391 0.492782 0.244261
O O9 0.847605 0.510134 0.500000
O O10 0.749983 0.956650 0.747986
O O11 0.801589 0.900795 0.000000
O O12 0.696252 0.083934 0.765042
#
# Coordination Sequence:
#
# PCOD9575391 Si02
#       6
#     6   2   6   6   6   6
#     4   9  17  27  39  59  84 108 136 169 203 238
#     4   9  18  27  37  53  73 105 145 173 193 228
#     4   8  13  22  38  60  85 110 135 163 197 238
#     4  11  19  29  41  55  79 111 145 173 199 236
#     4   9  17  27  39  59  84 108 136 169 203 238
#     4   8  13  22  38  60  85 110 135 163 197 238
#
# _framework density 16.065166999999999
#
# number of rings (size 3 to 8) (size 9 to 14) (size 15 to 20)
#    0.000    3.000    1.875    3.188    0.000    1.500 
#    0.000    0.000    0.000    1.125    0.000    0.000 
#    1.875    3.000    3.375    0.000    1.125    0.000 
#
# Total GULP energy -178255.357357 kJ/mol
# GULP energy per Si atom -5570.479917 kJ/mol
# Density = 1.602860 g / cm^3
# Si number density = 16.065167 Si / 1000 Ang^3
#
#
#
# Elastic Constant Matrix: (Units=GPa)
#
#
# Indices 1 2 3 4 5 6 
#
# 1 129.7119 78.9679 7.2642 0.0000 0.0001 0.0000
# 2 78.9679 129.7119 7.2642 0.0000 -0.0001 0.0000
# 3 7.2642 7.2642 18.0964 0.0000 0.0000 0.0000
# 4 0.0000 0.0000 0.0000 -2.6066 0.0000 -0.0001
# 5 0.0001 -0.0001 0.0000 0.0000 -2.6066 0.0000
# 6 0.0000 0.0000 0.0000 -0.0001 0.0000 25.3720
#
#
#
# Elastic Compliance Matrix: (Units=1/GPa)
#
#
# Indices 1 2 3 4 5 6 
#
# 1 0.012318 -0.007388 -0.001979 0.000000 0.000000 0.000000
# 2 -0.007388 0.012318 -0.001979 0.000000 0.000000 0.000000
# 3 -0.001979 -0.001979 0.056849 0.000000 0.000000 0.000000
# 4 0.000000 0.000000 0.000000 -0.383636 0.000000 -0.000001
# 5 0.000000 0.000000 0.000000 0.000000 -0.383636 0.000000
# 6 0.000000 0.000000 0.000000 -0.000001 0.000000 0.039414
#
#
# Mechanical properties :
#
#
# Convention : Reuss Voigt Hill
#
# Bulk Modulus (GPa) = 17.00900 51.61253 34.31077
# Shear Modulus (GPa) = -8.27701 16.29999 4.01149
#
# Velocity S-wave (km/s) = -2.27230 3.18876 1.58191
# Velocity P-wave (km/s) = 1.93030 6.76419 4.97395
#
# Compressibility (1/GPa) = 0.05879242
#
# Stress axis : x y z
#
# Youngs Moduli (GPa) = 81.18013 81.18013 17.59061
#
# Poissons Ratio (x) = 0.59980 0.03481
# Poissons Ratio (y) = 0.59980 0.03481
# Poissons Ratio (z) = 0.16065 0.16065
#
# Static dielectric constant tensor:
#      x y z
#    x 1.550980 0.000000 0.000000 
#    y 0.000000 1.550980 0.000000 
#    z 0.000000 0.000000 1.578810 
# 
# From -- ./inp_files/873.got.cif
#   From: 2010.05.17/outbox.cif.g08.bks.cpg/sg149_cif.got.tgz:873.got - 2010.05.20 13:52:34.
