data_PCOD9575042
_publ_section_title
;
Structure prediction by ZEFSAII (Michael W. Deem and Ramdas Pophale) SiO2 
 PCOD9575042
Probable space group: R -3
;
_chemical_formula_sum "Si O2"
_cell_formula_units_Z 126
_cell_length_a 21.901933
_cell_length_b 21.901933
_cell_length_c 17.420632
_cell_angle_alpha 90.000000
_cell_angle_beta 90.000000
_cell_angle_gamma 120.000000
_cell_volume 7237.014296
_symmetry_space_group_name_H-M "R -3"
_symmetry_group_IT_number 148
_symmetry_cell_setting 'hexagonal'
loop_
_space_group_symop_operation_xyz
x,y,z
-y,x-y,z
-x+y,-x,z
-x,-y,-z
y,-x+y,-z
x-y,x,-z
2/3+x,1/3+y,1/3+z
2/3-y,1/3+x-y,1/3+z
2/3-x+y,1/3-x,1/3+z
2/3-x,1/3-y,1/3-z
2/3+y,1/3-x+y,1/3-z
2/3+x-y,1/3+x,1/3-z
1/3+x,2/3+y,2/3+z
1/3-y,2/3+x-y,2/3+z
1/3-x+y,2/3-x,2/3+z
1/3-x,2/3-y,2/3-z
1/3+y,2/3-x+y,2/3-z
1/3+x-y,2/3+x,2/3-z
loop_
_atom_site_type_symbol
_atom_site_label
_atom_site_fract_x
_atom_site_fract_y
_atom_site_fract_z
Si Si1 0.921175 0.700461 0.793388
Si Si2 0.260866 0.235911 0.394945
Si Si3 0.870109 0.849210 0.506840
Si Si4 0.426231 0.438647 0.872085
Si Si5 0.876303 0.273246 0.113778
Si Si6 0.622591 0.564998 0.731854
Si Si7 0.068582 0.806720 0.775527
O O1 0.938397 0.646221 0.747979
O O2 0.845928 0.688749 0.768088
O O3 0.917250 0.675758 0.881340
O O4 0.985939 0.778917 0.785205
O O5 0.179312 0.183448 0.418065
O O6 0.306278 0.221740 0.457123
O O7 0.281659 0.227171 0.310120
O O8 0.866348 0.917335 0.481425
O O9 0.833975 0.789649 0.441178
O O10 0.354885 0.441654 0.863093
O O11 0.409563 0.370734 0.924473
O O12 0.911780 0.237896 0.165304
O O13 0.792676 0.221441 0.121844
O O14 0.594300 0.546772 0.646157
#
# Coordination Sequence:
#
# PCOD9575042 Si02
#       7
#    18  18  18  18  18  18  18
#     4  10  20  34  57  82 104 137 180 221 270 328
#     4  10  19  36  52  76 107 140 174 227 275 317
#     4  10  19  32  52  78 109 146 182 218 266 330
#     4  10  20  34  57  82 104 137 180 221 270 328
#     4  11  22  35  51  75 108 143 179 221 271 320
#     4  10  19  36  52  76 107 140 174 227 275 317
#     4  11  22  35  51  75 108 143 179 221 271 320
#
# _framework density 17.410495999999998
#
# number of rings (size 3 to 8) (size 9 to 14) (size 15 to 20)
#    0.000    2.000    2.857    6.143    0.000    3.429 
#    0.000    0.000    0.000    0.571    0.000    0.000 
#    0.000    0.000    0.000    9.143    0.000    0.000 
#
# Total GULP energy -234204.122870 kJ/mol
# GULP energy per Si atom -5576.288640 kJ/mol
# Density = 1.737087 g / cm^3
# Si number density = 17.410496 Si / 1000 Ang^3
#
#
#
# Elastic Constant Matrix: (Units=GPa)
#
#
# Indices 1 2 3 4 5 6 
#
# 1 76.8377 31.5879 3.6526 -0.0722 -0.6346 0.0000
# 2 31.5879 76.8377 3.6526 0.0722 0.6346 0.0000
# 3 3.6526 3.6526 96.1134 0.0000 0.0000 0.0000
# 4 -0.0722 0.0722 0.0000 8.4270 0.0000 0.6346
# 5 -0.6346 0.6346 0.0000 0.0000 8.4270 -0.0722
# 6 0.0000 0.0000 0.0000 0.6346 -0.0722 22.6249
#
#
#
# Elastic Compliance Matrix: (Units=1/GPa)
#
#
# Indices 1 2 3 4 5 6 
#
# 1 0.015697 -0.006450 -0.000351 0.000190 0.001668 0.000000
# 2 -0.006450 0.015697 -0.000351 -0.000190 -0.001668 0.000000
# 3 -0.000351 -0.000351 0.010431 0.000000 0.000000 0.000000
# 4 0.000190 -0.000190 0.000000 0.118921 0.000000 -0.003336
# 5 0.001668 -0.001668 0.000000 0.000000 0.118921 0.000380
# 6 0.000000 0.000000 0.000000 -0.003336 0.000380 0.044294
#
#
# Mechanical properties :
#
#
# Convention : Reuss Voigt Hill
#
# Bulk Modulus (GPa) = 36.33898 36.39724 36.36811
# Shear Modulus (GPa) = 14.39099 21.95546 18.17322
#
# Velocity S-wave (km/s) = 2.87813 3.55498 3.23431
# Velocity P-wave (km/s) = 5.65350 6.14827 5.90607
#
# Compressibility (1/GPa) = 0.02751866
#
# Stress axis : x y z
#
# Youngs Moduli (GPa) = 63.70732 63.70732 95.86729
#
# Poissons Ratio (x) = 0.41092 0.03369
# Poissons Ratio (y) = 0.41092 0.03369
# Poissons Ratio (z) = 0.02239 0.02239
#
# Static dielectric constant tensor:
#      x y z
#    x 1.620230 0.000000 0.000000 
#    y 0.000000 1.620230 0.000000 
#    z 0.000000 0.000000 1.628930 
# 
# From -- ./inp_files/2735.got.cif
#   From: 2010.05.17/outbox.cif.g08.bks.cpg/sg148_2_cif.got.tgz:2735.got - 2010.05.20 13:50:20.
