data_PCOD9575837
_publ_section_title
;
Structure prediction by ZEFSAII (Michael W. Deem and Ramdas Pophale) SiO2 
 PCOD9575837
Probable space group: P 31 2 1
;
_chemical_formula_sum "Si O2"
_cell_formula_units_Z 39
_cell_length_a 14.460729
_cell_length_b 14.460729
_cell_length_c 11.132900
_cell_angle_alpha 90.000000
_cell_angle_beta 90.000000
_cell_angle_gamma 120.000000
_cell_volume 2016.133633
_symmetry_space_group_name_H-M "P 31 2 1"
_symmetry_group_IT_number 152
_symmetry_cell_setting 'hexagonal'
loop_
_space_group_symop_operation_xyz
x,y,z
-y,x-y,1/3+z
-x+y,-x,2/3+z
x-y,-y,2/3-z
-x,-x+y,1/3-z
y,x,-z
loop_
_atom_site_type_symbol
_atom_site_label
_atom_site_fract_x
_atom_site_fract_y
_atom_site_fract_z
Si Si1 0.296130 0.000000 0.333334
Si Si2 0.402951 0.554498 0.622769
Si Si3 0.105436 0.765296 0.386361
Si Si4 0.103811 0.684308 0.872910
Si Si5 0.733227 0.390241 0.290757
Si Si6 0.550510 0.782553 0.296859
Si Si7 0.424016 0.984301 0.553666
O O1 0.181365 0.891595 0.357467
O O2 0.353038 0.976269 0.220131
O O3 0.305723 0.434433 0.626388
O O4 0.398813 0.602071 0.495603
O O5 0.385262 0.621984 0.725533
O O6 0.514711 0.568919 0.663474
O O7 0.143286 0.747077 0.516508
O O8 0.976785 0.694670 0.399643
O O9 0.155021 0.752088 0.753659
O O10 0.045129 0.557350 0.838146
O O11 0.192508 0.688701 0.964757
O O12 0.701430 0.278391 0.353951
O O13 0.563573 0.680503 0.272298
#
# Coordination Sequence:
#
# PCOD9575837 Si02
#       7
#     3   6   6   6   6   6   6
#     4  10  20  38  52  84 114 154 206 244 304 344
#     4  11  21  35  54  84 116 157 192 237 293 352
#     4  10  22  34  57  78 114 153 196 247 289 353
#     4  10  21  36  53  82 110 159 192 241 291 356
#     4  11  21  35  56  78 121 152 192 233 293 357
#     4  10  20  36  52  79 112 153 196 233 292 355
#     4   9  22  33  54  79 117 154 194 250 286 357
#
# _framework density 19.343955999999999
#
# number of rings (size 3 to 8) (size 9 to 14) (size 15 to 20)
#    0.000    1.846    1.538    2.308    8.615    5.538 
#    0.000    0.000    0.000    0.000    0.000    0.000 
#   27.692    0.000    0.615    0.308    0.000    0.000 
#
# Total GULP energy -217192.142958 kJ/mol
# GULP energy per Si atom -5569.029307 kJ/mol
# Density = 1.929993 g / cm^3
# Si number density = 19.343956 Si / 1000 Ang^3
#
#
#
# Elastic Constant Matrix: (Units=GPa)
#
#
# Indices 1 2 3 4 5 6 
#
# 1 33.8710 37.4950 4.2360 -16.1542 0.0000 0.0000
# 2 37.4950 33.8710 4.2360 16.1542 0.0000 0.0000
# 3 4.2360 4.2360 71.1280 0.0000 0.0000 0.0000
# 4 -16.1542 16.1542 0.0000 11.7011 0.0000 0.0000
# 5 0.0000 0.0000 0.0000 0.0000 11.7011 -16.1542
# 6 0.0000 0.0000 0.0000 0.0000 -16.1542 -1.8120
#
#
#
# Elastic Compliance Matrix: (Units=1/GPa)
#
#
# Indices 1 2 3 4 5 6 
#
# 1 -0.003311 0.017423 -0.000840 -0.028626 0.000000 0.000000
# 2 0.017423 -0.003311 -0.000840 0.028626 0.000000 0.000000
# 3 -0.000840 -0.000840 0.014159 0.000000 0.000000 0.000000
# 4 -0.028626 0.028626 0.000000 0.006422 0.000000 0.000000
# 5 0.000000 0.000000 0.000000 0.000000 0.006422 -0.057252
# 6 0.000000 0.000000 0.000000 0.000000 -0.057252 -0.041470
#
#
# Mechanical properties :
#
#
# Convention : Reuss Voigt Hill
#
# Bulk Modulus (GPa) = 25.62682 25.64488 25.63585
# Shear Modulus (GPa) = -126.36594 10.51159 -57.92718
#
# Velocity S-wave (km/s) = -8.09121 2.33363 -5.47822
# Velocity P-wave (km/s) = 8.60311 4.53290 5.17041
#
# Compressibility (1/GPa) = 0.03902162
#
# Stress axis : x y z
#
# Youngs Moduli (GPa) = -301.98567 -301.98567 70.62515
#
# Poissons Ratio (x) = 5.26164 0.05936
# Poissons Ratio (y) = 5.26164 0.05936
# Poissons Ratio (z) = -0.25380 -0.25380
#
# Static dielectric constant tensor:
#      x y z
#    x 1.740080 0.000000 0.000000 
#    y 0.000000 1.740080 0.000000 
#    z 0.000000 0.000000 1.731720 
# 
# From -- ./inp_files/1764.got.cif
#   From: 2010.05.17/outbox.cif.g08.bks.cpg/sg152_1_cif.got.tgz:1764.got - 2010.05.20 10:36:06.
