data_PCOD9575768
_publ_section_title
;
Structure prediction by ZEFSAII (Michael W. Deem and Ramdas Pophale) SiO2 
 PCOD9575768
Probable space group: P 31 2 1
;
_chemical_formula_sum "Si O2"
_cell_formula_units_Z 36
_cell_length_a 9.521698
_cell_length_b 9.521698
_cell_length_c 26.926797
_cell_angle_alpha 90.000000
_cell_angle_beta 90.000000
_cell_angle_gamma 120.000000
_cell_volume 2114.190581
_symmetry_space_group_name_H-M "P 31 2 1"
_symmetry_group_IT_number 152
_symmetry_cell_setting 'hexagonal'
loop_
_space_group_symop_operation_xyz
x,y,z
-y,x-y,1/3+z
-x+y,-x,2/3+z
x-y,-y,2/3-z
-x,-x+y,1/3-z
y,x,-z
loop_
_atom_site_type_symbol
_atom_site_label
_atom_site_fract_x
_atom_site_fract_y
_atom_site_fract_z
Si Si1 0.459722 0.310293 0.462289
Si Si2 0.518401 0.840655 0.539691
Si Si3 0.830789 0.936536 0.606648
Si Si4 0.228282 0.158016 0.869076
Si Si5 0.185113 0.198147 0.388902
Si Si6 0.691804 0.701878 0.797589
O O1 0.417880 0.417880 0.500000
O O2 0.650166 0.398965 0.453182
O O3 0.365575 0.280567 0.410353
O O4 0.383135 0.137727 0.490619
O O5 0.675487 0.910326 0.575573
O O6 0.591888 0.862463 0.484142
O O7 0.422528 0.936206 0.546007
O O8 0.869295 0.794615 0.589604
O O9 0.798023 0.950974 0.664178
O O10 0.007206 0.093476 0.595510
O O11 0.131613 0.254200 0.861317
O O12 0.143435 0.000000 0.833334
O O13 0.105539 0.287756 0.418236
#
# Coordination Sequence:
#
# PCOD9575768 Si02
#       6
#     6   6   6   6   6   6
#     4  10  19  32  50  74  99 126 161 202 247 293
#     4  11  20  30  50  79 105 125 159 214 258 289
#     4   9  18  34  54  71  94 134 176 202 241 302
#     4   9  17  33  53  71  95 133 172 201 239 302
#     4   9  19  35  54  69  94 137 174 201 240 305
#     4  10  19  32  51  75 101 130 166 206 250 297
#
# _framework density 17.027792999999999
#
# number of rings (size 3 to 8) (size 9 to 14) (size 15 to 20)
#    0.000    2.333    0.000    6.000    0.000    1.333 
#    0.000    0.000    0.000   16.000    0.000    0.000 
#    0.000    0.000    0.000    0.000    0.000    0.000 
#
# Total GULP energy -200460.491651 kJ/mol
# GULP energy per Si atom -5568.346990 kJ/mol
# Density = 1.698904 g / cm^3
# Si number density = 17.027793 Si / 1000 Ang^3
#
#
#
# Elastic Constant Matrix: (Units=GPa)
#
#
# Indices 1 2 3 4 5 6 
#
# 1 96.4784 60.0953 35.8961 -3.7821 0.0000 0.0000
# 2 60.0953 96.4784 35.8961 3.7821 0.0000 0.0000
# 3 35.8961 35.8961 82.7713 0.0000 0.0000 0.0000
# 4 -3.7821 3.7821 0.0000 16.1461 0.0000 0.0000
# 5 0.0000 0.0000 0.0000 0.0000 16.1461 -3.7821
# 6 0.0000 0.0000 0.0000 0.0000 -3.7821 18.1916
#
#
#
# Elastic Compliance Matrix: (Units=1/GPa)
#
#
# Indices 1 2 3 4 5 6 
#
# 1 0.018432 -0.010460 -0.003457 0.006768 0.000000 0.000000
# 2 -0.010460 0.018432 -0.003457 -0.006768 0.000000 0.000000
# 3 -0.003457 -0.003457 0.015080 0.000000 0.000000 0.000000
# 4 0.006768 -0.006768 0.000000 0.065105 0.000000 0.000000
# 5 0.000000 0.000000 0.000000 0.000000 0.065105 0.013536
# 6 0.000000 0.000000 0.000000 0.000000 0.013536 0.057785
#
#
# Mechanical properties :
#
#
# Convention : Reuss Voigt Hill
#
# Bulk Modulus (GPa) = 58.15627 59.94478 59.05053
# Shear Modulus (GPa) = 17.83037 19.68612 18.75825
#
# Velocity S-wave (km/s) = 3.23945 3.40386 3.32267
# Velocity P-wave (km/s) = 6.94406 7.12242 7.03381
#
# Compressibility (1/GPa) = 0.01719505
#
# Stress axis : x y z
#
# Youngs Moduli (GPa) = 54.25307 54.25307 66.31226
#
# Poissons Ratio (x) = 0.56749 0.22926
# Poissons Ratio (y) = 0.56749 0.22926
# Poissons Ratio (z) = 0.18757 0.18757
#
# Static dielectric constant tensor:
#      x y z
#    x 1.571490 0.000000 0.000000 
#    y 0.000000 1.571490 0.000000 
#    z 0.000000 0.000000 1.611170 
# 
# From -- ./inp_files/3558.got.cif
#   From: 2010.05.17/outbox.cif.g08.bks.cpg/sg152_2_cif.got.tgz:3558.got - 2010.05.20 10:36:06.
