data_PCOD9575659
_publ_section_title
;
Structure prediction by ZEFSAII (Michael W. Deem and Ramdas Pophale) SiO2 
 PCOD9575659
Probable space group: P 31 1 2
;
_chemical_formula_sum "Si O2"
_cell_formula_units_Z 39
_cell_length_a 8.478552
_cell_length_b 8.478552
_cell_length_c 27.907372
_cell_angle_alpha 90.000000
_cell_angle_beta 90.000000
_cell_angle_gamma 120.000000
_cell_volume 1737.372525
_symmetry_space_group_name_H-M "P 31 1 2"
_symmetry_group_IT_number 151
_symmetry_cell_setting 'hexagonal'
loop_
_space_group_symop_operation_xyz
x,y,z
-y,x-y,1/3+z
-x+y,-x,2/3+z
-y,-x,2/3-z
-x+y,y,1/3-z
x,x-y,-z
loop_
_atom_site_type_symbol
_atom_site_label
_atom_site_fract_x
_atom_site_fract_y
_atom_site_fract_z
Si Si1 0.197356 0.381958 0.221232
Si Si2 0.580437 0.169766 0.748428
Si Si3 0.823227 0.176774 0.833334
Si Si4 0.042002 0.290647 0.327675
Si Si5 0.266084 0.411309 0.554312
Si Si6 0.573760 0.557976 0.946230
Si Si7 0.876425 0.723781 0.305071
O O1 0.148985 0.297969 0.166667
O O2 0.393232 0.403221 0.235550
O O3 0.090002 0.299528 0.271543
O O4 0.170623 0.558738 0.215984
O O5 0.721700 0.209773 0.790438
O O6 0.569315 0.349201 0.738374
O O7 0.681764 0.135853 0.704671
O O8 0.038390 0.281623 0.823594
O O9 0.122967 0.180904 0.356473
O O10 0.084482 0.476406 0.354477
O O11 0.826570 0.173431 0.333334
O O12 0.270671 0.286666 0.598270
O O13 0.102879 0.444585 0.566934
O O14 0.742760 0.698765 0.978961
#
# Coordination Sequence:
#
# PCOD9575659 Si02
#       7
#     6   6   3   6   6   6   6
#     4  12  25  45  74 101 143 194 246 292 385 459
#     4  11  24  44  70 102 138 191 237 303 364 446
#     4  10  24  48  66  94 148 192 232 284 376 438
#     4  12  26  43  72 110 147 190 250 321 375 438
#     4  11  24  45  69 101 141 192 237 299 359 445
#     4  12  24  41  70 107 137 180 251 306 359 429
#     4  11  23  42  70  98 140 183 242 298 366 414
#
# _framework density 22.447689
#
# number of rings (size 3 to 8) (size 9 to 14) (size 15 to 20)
#    0.000    0.615    4.615    3.692    2.154    1.231 
#    2.769    0.000    0.000    0.000    0.000    0.000 
#    0.000    0.000    0.000    0.000    0.000    0.000 
#
# Total GULP energy -217304.215566 kJ/mol
# GULP energy per Si atom -5571.902963 kJ/mol
# Density = 2.239660 g / cm^3
# Si number density = 22.447689 Si / 1000 Ang^3
#
#
#
# Elastic Constant Matrix: (Units=GPa)
#
#
# Indices 1 2 3 4 5 6 
#
# 1 67.4640 17.7110 33.4277 0.0002 -0.6103 0.0000
# 2 17.7110 67.4640 33.4277 -0.0002 0.6103 0.0000
# 3 33.4277 33.4277 71.9925 0.0000 0.0000 0.0000
# 4 0.0002 -0.0002 0.0000 29.3783 0.0000 0.6103
# 5 -0.6103 0.6103 0.0000 0.0000 29.3783 0.0002
# 6 0.0000 0.0000 0.0000 0.6103 0.0002 24.8765
#
#
#
# Elastic Compliance Matrix: (Units=1/GPa)
#
#
# Indices 1 2 3 4 5 6 
#
# 1 0.019291 -0.000818 -0.008578 0.000000 0.000418 0.000000
# 2 -0.000818 0.019291 -0.008578 0.000000 -0.000418 0.000000
# 3 -0.008578 -0.008578 0.021856 0.000000 0.000000 0.000000
# 4 0.000000 0.000000 0.000000 0.034056 0.000000 -0.000836
# 5 0.000418 -0.000418 0.000000 0.000000 0.034056 0.000000
# 6 0.000000 0.000000 0.000000 -0.000836 0.000000 0.040219
#
#
# Mechanical properties :
#
#
# Convention : Reuss Voigt Hill
#
# Bulk Modulus (GPa) = 40.82948 41.78373 41.30661
# Shear Modulus (GPa) = 23.48740 24.88357 24.18549
#
# Velocity S-wave (km/s) = 3.23819 3.33305 3.28596
# Velocity P-wave (km/s) = 5.67533 5.78502 5.73044
#
# Compressibility (1/GPa) = 0.02449211
#
# Stress axis : x y z
#
# Youngs Moduli (GPa) = 51.83671 51.83671 45.75450
#
# Poissons Ratio (x) = 0.04241 0.39246
# Poissons Ratio (y) = 0.04241 0.39246
# Poissons Ratio (z) = 0.44463 0.44463
#
# Static dielectric constant tensor:
#      x y z
#    x 1.857140 0.000000 0.000000 
#    y 0.000000 1.857140 0.000000 
#    z 0.000000 0.000000 2.051970 
# 
# From -- ./inp_files/4960.got.cif
#   From: 2010.05.17/outbox.cif.g08.bks.cpg/sg151_3_cif.got.tgz:4960.got - 2010.05.20 10:33:20.
