data_PCOD9575743
_publ_section_title
;
Structure prediction by ZEFSAII (Michael W. Deem and Ramdas Pophale) SiO2 
 PCOD9575743
Probable space group: P 31 2 1
;
_chemical_formula_sum "Si O2"
_cell_formula_units_Z 24
_cell_length_a 7.656733
_cell_length_b 7.656733
_cell_length_c 19.526708
_cell_angle_alpha 90.000000
_cell_angle_beta 90.000000
_cell_angle_gamma 120.000000
_cell_volume 991.394875
_symmetry_space_group_name_H-M "P 31 2 1"
_symmetry_group_IT_number 152
_symmetry_cell_setting 'hexagonal'
loop_
_space_group_symop_operation_xyz
x,y,z
-y,x-y,1/3+z
-x+y,-x,2/3+z
x-y,-y,2/3-z
-x,-x+y,1/3-z
y,x,-z
loop_
_atom_site_type_symbol
_atom_site_label
_atom_site_fract_x
_atom_site_fract_y
_atom_site_fract_z
Si Si1 0.780381 0.121394 0.969768
Si Si2 0.319844 0.919325 0.256398
Si Si3 0.156018 0.517859 0.920156
Si Si4 0.786896 0.978759 0.548096
O O1 0.958959 0.301134 0.928675
O O2 0.658644 0.915569 0.927414
O O3 0.624155 0.180089 0.004035
O O4 0.870464 0.073742 0.038240
O O5 0.221165 0.905053 0.453528
O O6 0.459119 0.828050 0.236616
O O7 0.380571 0.000000 0.333334
O O8 0.116521 0.665584 0.872564
O O9 0.886936 0.886936 0.500000
#
# Coordination Sequence:
#
# PCOD9575743 Si02
#       4
#     6   6   6   6
#     4   9  17  33  59  82 112 148 203 236 278 354
#     4  10  19  34  57  86 111 153 200 242 286 354
#     4  10  18  34  60  84 111 157 195 239 290 350
#     4   9  20  36  57  83 125 151 191 257 299 343
#
# _framework density 24.208316
#
# number of rings (size 3 to 8) (size 9 to 14) (size 15 to 20)
#    1.500    1.000    2.500    0.000    0.000    4.000 
#    0.000    0.000   27.500    0.000    0.000    0.000 
#    0.000    0.000    0.000    0.000    0.000    0.000 
#
# Total GULP energy -134142.882788 kJ/mol
# GULP energy per Si atom -5589.286783 kJ/mol
# Density = 2.415322 g / cm^3
# Si number density = 24.208316 Si / 1000 Ang^3
#
#
#
# Elastic Constant Matrix: (Units=GPa)
#
#
# Indices 1 2 3 4 5 6 
#
# 1 92.7039 12.7161 6.7344 0.7625 -0.0004 0.0000
# 2 12.7161 92.7039 6.7344 -0.7625 0.0004 0.0000
# 3 6.7344 6.7344 54.7407 0.0000 0.0000 0.0000
# 4 0.7625 -0.7625 0.0000 33.8960 0.0000 0.0004
# 5 -0.0004 0.0004 0.0000 0.0000 33.8960 0.7625
# 6 0.0000 0.0000 0.0000 0.0004 0.7625 39.9939
#
#
#
# Elastic Compliance Matrix: (Units=1/GPa)
#
#
# Indices 1 2 3 4 5 6 
#
# 1 0.011072 -0.001435 -0.001186 -0.000281 0.000000 0.000000
# 2 -0.001435 0.011072 -0.001186 0.000281 0.000000 0.000000
# 3 -0.001186 -0.001186 0.018560 0.000000 0.000000 0.000000
# 4 -0.000281 0.000281 0.000000 0.029515 0.000000 0.000000
# 5 0.000000 0.000000 0.000000 0.000000 0.029515 -0.000563
# 6 0.000000 0.000000 0.000000 0.000000 -0.000563 0.025015
#
#
# Mechanical properties :
#
#
# Convention : Reuss Voigt Hill
#
# Bulk Modulus (GPa) = 30.21891 32.50204 31.36048
# Shear Modulus (GPa) = 34.86962 35.82139 35.34550
#
# Velocity S-wave (km/s) = 3.79938 3.85088 3.82521
# Velocity P-wave (km/s) = 5.63533 5.76433 5.70020
#
# Compressibility (1/GPa) = 0.03309186
#
# Stress axis : x y z
#
# Youngs Moduli (GPa) = 90.31537 90.31537 53.88029
#
# Poissons Ratio (x) = 0.12960 0.06388
# Poissons Ratio (y) = 0.12960 0.06388
# Poissons Ratio (z) = 0.10708 0.10708
#
# Static dielectric constant tensor:
#      x y z
#    x 1.901890 0.000000 0.000000 
#    y 0.000000 1.901890 0.000000 
#    z 0.000000 0.000000 2.001950 
# 
# From -- ./inp_files/2617.got.cif
#   From: 2010.05.17/outbox.cif.g08.bks.cpg/sg152_2_cif.got.tgz:2617.got - 2010.05.20 10:36:06.
