data_PCOD9575653
_publ_section_title
;
Structure prediction by ZEFSAII (Michael W. Deem and Ramdas Pophale) SiO2 
 PCOD9575653
Probable space group: P 31 1 2
;
_chemical_formula_sum "Si O2"
_cell_formula_units_Z 33
_cell_length_a 11.524926
_cell_length_b 11.524926
_cell_length_c 16.093465
_cell_angle_alpha 90.000000
_cell_angle_beta 90.000000
_cell_angle_gamma 120.000000
_cell_volume 1851.213389
_symmetry_space_group_name_H-M "P 31 1 2"
_symmetry_group_IT_number 151
_symmetry_cell_setting 'hexagonal'
loop_
_space_group_symop_operation_xyz
x,y,z
-y,x-y,1/3+z
-x+y,-x,2/3+z
-y,-x,2/3-z
-x+y,y,1/3-z
x,x-y,-z
loop_
_atom_site_type_symbol
_atom_site_label
_atom_site_fract_x
_atom_site_fract_y
_atom_site_fract_z
Si Si1 0.089936 0.912376 0.169509
Si Si2 0.836608 0.659547 0.878221
Si Si3 0.549447 0.541762 0.927419
Si Si4 0.663262 0.831631 0.000000
Si Si5 0.110825 0.937849 0.675497
Si Si6 0.363860 0.303237 0.048663
O O1 0.082312 0.838412 0.255435
O O2 0.978790 0.957580 0.166667
O O3 0.238337 0.039566 0.162400
O O4 0.064774 0.835801 0.083348
O O5 0.696979 0.555644 0.920749
O O6 0.893597 0.598676 0.811029
O O7 0.947161 0.766742 0.940446
O O8 0.491129 0.508872 0.833334
O O9 0.578520 0.685107 0.961499
O O10 0.454691 0.433858 0.994688
O O11 0.977912 0.955824 0.666667
O O12 0.054237 0.792064 0.715596
O O13 0.372335 0.186168 0.000000
#
# Coordination Sequence:
#
# PCOD9575653 Si02
#       6
#     6   6   6   3   6   6
#     4  11  16  29  53  87 124 137 179 249 316 367
#     4  11  20  33  58  90 120 157 198 251 314 368
#     4  11  22  39  61  86 121 167 207 245 304 391
#     4  10  24  36  58  88 116 166 210 246 308 366
#     4  11  19  31  59  96 125 144 184 263 331 365
#     4  11  19  35  59  89 118 155 201 253 309 366
#
# _framework density 17.826145
#
# number of rings (size 3 to 8) (size 9 to 14) (size 15 to 20)
#    0.000    1.091    7.273    3.818    1.273    0.000 
#    0.000    1.818   12.000    0.000    0.000    0.000 
#    0.000    0.000    0.000    0.000    0.000    0.000 
#
# Total GULP energy -183840.372204 kJ/mol
# GULP energy per Si atom -5570.920370 kJ/mol
# Density = 1.778557 g / cm^3
# Si number density = 17.826145 Si / 1000 Ang^3
#
#
#
# Elastic Constant Matrix: (Units=GPa)
#
#
# Indices 1 2 3 4 5 6 
#
# 1 68.5597 32.5385 45.7329 0.0000 4.2636 0.0000
# 2 32.5385 68.5597 45.7329 0.0000 -4.2636 0.0000
# 3 45.7329 45.7329 145.2871 0.0000 0.0000 0.0000
# 4 0.0000 0.0000 0.0000 30.8389 0.0000 -4.2636
# 5 4.2636 -4.2636 0.0000 0.0000 30.8389 0.0000
# 6 0.0000 0.0000 0.0000 -4.2636 0.0000 18.0106
#
#
#
# Elastic Compliance Matrix: (Units=1/GPa)
#
#
# Indices 1 2 3 4 5 6 
#
# 1 0.021265 -0.007435 -0.004353 0.000000 -0.003968 0.000000
# 2 -0.007435 0.021265 -0.004353 0.000000 0.003968 0.000000
# 3 -0.004353 -0.004353 0.009624 0.000000 0.000000 0.000000
# 4 0.000000 0.000000 0.000000 0.033524 0.000000 0.007936
# 5 -0.003968 0.003968 0.000000 0.000000 0.033524 0.000000
# 6 0.000000 0.000000 0.000000 0.007936 0.000000 0.057402
#
#
# Mechanical properties :
#
#
# Convention : Reuss Voigt Hill
#
# Bulk Modulus (GPa) = 50.32685 58.93501 54.63093
# Shear Modulus (GPa) = 23.20064 26.49780 24.84922
#
# Velocity S-wave (km/s) = 3.61154 3.85964 3.73765
# Velocity P-wave (km/s) = 6.75901 7.27978 7.02423
#
# Compressibility (1/GPa) = 0.01987011
#
# Stress axis : x y z
#
# Youngs Moduli (GPa) = 47.02479 47.02479 103.91151
#
# Poissons Ratio (x) = 0.34965 0.45236
# Poissons Ratio (y) = 0.34965 0.45236
# Poissons Ratio (z) = 0.20471 0.20471
#
# Static dielectric constant tensor:
#      x y z
#    x 1.625080 0.000000 0.000000 
#    y 0.000000 1.625080 0.000000 
#    z 0.000000 0.000000 1.723300 
# 
# From -- ./inp_files/3382.got.cif
#   From: 2010.05.17/outbox.cif.g08.bks.cpg/sg151_2_cif.got.tgz:3382.got - 2010.05.20 10:33:20.
