data_PCOD9575794
_publ_section_title
;
Structure prediction by ZEFSAII (Michael W. Deem and Ramdas Pophale) SiO2 
 PCOD9575794
Probable space group: P 31 2 1
;
_chemical_formula_sum "Si O2"
_cell_formula_units_Z 18
_cell_length_a 7.735746
_cell_length_b 7.735746
_cell_length_c 12.230310
_cell_angle_alpha 90.000000
_cell_angle_beta 90.000000
_cell_angle_gamma 120.000000
_cell_volume 633.829575
_symmetry_space_group_name_H-M "P 31 2 1"
_symmetry_group_IT_number 152
_symmetry_cell_setting 'hexagonal'
loop_
_space_group_symop_operation_xyz
x,y,z
-y,x-y,1/3+z
-x+y,-x,2/3+z
x-y,-y,2/3-z
-x,-x+y,1/3-z
y,x,-z
loop_
_atom_site_type_symbol
_atom_site_label
_atom_site_fract_x
_atom_site_fract_y
_atom_site_fract_z
Si Si1 0.327547 0.540479 0.057618
Si Si2 0.034818 0.698822 0.407483
Si Si3 0.791090 0.795416 0.264529
O O1 0.440941 0.778265 0.065342
O O2 0.293227 0.435670 0.174763
O O3 0.479662 0.479662 0.000000
O O4 0.123899 0.428741 0.988135
O O5 0.148838 0.912909 0.475266
O O6 0.931606 0.707171 0.295967
O O7 0.892757 0.000000 0.333334
#
# Coordination Sequence:
#
# PCOD9575794 Si02
#       3
#     6   6   6
#     4   9  19  35  58  85 124 160 202 263 315 371
#     4  10  19  37  60  89 125 164 208 260 321 384
#     4   9  18  34  60  84 120 167 201 253 322 381
#
# _framework density 28.398800000000001
#
# number of rings (size 3 to 8) (size 9 to 14) (size 15 to 20)
#    0.000    3.333    0.000    5.000    0.000    0.000 
#   12.000    0.000    0.000    8.000    0.000    0.000 
#    0.000    0.000    0.000    0.000    0.000    0.000 
#
# Total GULP energy -100711.829148 kJ/mol
# GULP energy per Si atom -5595.101619 kJ/mol
# Density = 2.833416 g / cm^3
# Si number density = 28.398800 Si / 1000 Ang^3
#
#
#
# Elastic Constant Matrix: (Units=GPa)
#
#
# Indices 1 2 3 4 5 6 
#
# 1 135.5840 47.2570 43.6255 -8.9788 0.0001 0.0000
# 2 47.2570 135.5840 43.6255 8.9788 -0.0001 0.0000
# 3 43.6255 43.6255 120.4975 0.0000 0.0000 0.0000
# 4 -8.9788 8.9788 0.0000 50.3349 0.0000 -0.0001
# 5 0.0001 -0.0001 0.0000 0.0000 50.3349 -8.9788
# 6 0.0000 0.0000 0.0000 -0.0001 -8.9788 44.1635
#
#
#
# Elastic Compliance Matrix: (Units=1/GPa)
#
#
# Indices 1 2 3 4 5 6 
#
# 1 0.009180 -0.002568 -0.002394 0.002096 0.000000 0.000000
# 2 -0.002568 0.009180 -0.002394 -0.002096 0.000000 0.000000
# 3 -0.002394 -0.002394 0.010032 0.000000 0.000000 0.000000
# 4 0.002096 -0.002096 0.000000 0.020615 0.000000 0.000000
# 5 0.000000 0.000000 0.000000 0.000000 0.020615 0.004191
# 6 0.000000 0.000000 0.000000 0.000000 0.004191 0.023495
#
#
# Mechanical properties :
#
#
# Convention : Reuss Voigt Hill
#
# Bulk Modulus (GPa) = 73.09680 73.40907 73.25293
# Shear Modulus (GPa) = 44.48935 46.11049 45.29992
#
# Velocity S-wave (km/s) = 3.96231 4.03386 3.99825
# Velocity P-wave (km/s) = 6.83583 6.89938 6.86768
#
# Compressibility (1/GPa) = 0.01368049
#
# Stress axis : x y z
#
# Youngs Moduli (GPa) = 108.93784 108.93784 99.67955
#
# Poissons Ratio (x) = 0.27976 0.23860
# Poissons Ratio (y) = 0.27976 0.23860
# Poissons Ratio (z) = 0.26076 0.26076
#
# Static dielectric constant tensor:
#      x y z
#    x 2.392940 0.000000 0.000000 
#    y 0.000000 2.392940 0.000000 
#    z 0.000000 0.000000 2.120060 
# 
# From -- ./inp_files/1495.got.cif
#   From: 2010.05.17/outbox.cif.g08.bks.cpg/sg152_1_cif.got.tgz:1495.got - 2010.05.20 10:36:06.
