data_PCOD9575819
_publ_section_title
;
Structure prediction by ZEFSAII (Michael W. Deem and Ramdas Pophale) SiO2 
 PCOD9575819
Probable space group: P 31 2 1
;
_chemical_formula_sum "Si O2"
_cell_formula_units_Z 42
_cell_length_a 14.478021
_cell_length_b 14.478021
_cell_length_c 12.575918
_cell_angle_alpha 90.000000
_cell_angle_beta 90.000000
_cell_angle_gamma 120.000000
_cell_volume 2282.909698
_symmetry_space_group_name_H-M "P 31 2 1"
_symmetry_group_IT_number 152
_symmetry_cell_setting 'hexagonal'
loop_
_space_group_symop_operation_xyz
x,y,z
-y,x-y,1/3+z
-x+y,-x,2/3+z
x-y,-y,2/3-z
-x,-x+y,1/3-z
y,x,-z
loop_
_atom_site_type_symbol
_atom_site_label
_atom_site_fract_x
_atom_site_fract_y
_atom_site_fract_z
Si Si1 0.704055 0.107356 0.819708
Si Si2 0.341638 0.385049 0.114324
Si Si3 0.559716 0.671050 0.769938
Si Si4 0.677991 0.162473 0.582761
Si Si5 0.259860 0.786602 0.893966
Si Si6 0.104964 0.479766 0.815682
Si Si7 0.831201 0.414922 0.298070
O O1 0.808382 0.211418 0.857300
O O2 0.676575 0.137193 0.706705
O O3 0.614179 0.089953 0.906229
O O4 0.708318 0.000000 0.833334
O O5 0.392010 0.331226 0.188053
O O6 0.246434 0.390270 0.177310
O O7 0.427787 0.512755 0.101240
O O8 0.329921 0.329921 0.000000
O O9 0.432085 0.590318 0.784071
O O10 0.574163 0.686102 0.640409
O O11 0.619134 0.627754 0.846962
O O12 0.787478 0.272500 0.558356
O O13 0.329167 0.788711 0.794251
O O14 0.247511 0.690402 0.970146
O O15 0.117531 0.500012 0.942436
#
# Coordination Sequence:
#
# PCOD9575819 Si02
#       7
#     6   6   6   6   6   6   6
#     4  11  22  36  56  77 113 152 198 245 286 340
#     4  10  22  37  53  77 117 149 194 235 287 348
#     4  10  22  36  55  83 113 155 196 241 282 341
#     4  11  22  36  56  81 115 158 187 239 290 347
#     4  10  20  34  54  77 111 155 193 237 283 342
#     4  10  23  35  53  80 116 154 194 235 288 346
#     4  10  21  32  51  77 111 145 198 226 283 337
#
# _framework density 18.397573000000001
#
# number of rings (size 3 to 8) (size 9 to 14) (size 15 to 20)
#    0.000    1.714    1.429    4.286   12.000    0.000 
#    0.000    0.000    0.000    0.000    0.000    0.000 
#   25.714    0.000    0.000    0.000    0.000    0.000 
#
# Total GULP energy -233847.097770 kJ/mol
# GULP energy per Si atom -5567.788042 kJ/mol
# Density = 1.835570 g / cm^3
# Si number density = 18.397573 Si / 1000 Ang^3
#
#
#
# Elastic Constant Matrix: (Units=GPa)
#
#
# Indices 1 2 3 4 5 6 
#
# 1 55.7274 23.5096 1.2584 -4.2715 0.0000 0.0000
# 2 23.5096 55.7274 1.2584 4.2715 0.0000 0.0000
# 3 1.2584 1.2584 62.3602 0.0000 0.0000 0.0000
# 4 -4.2715 4.2715 0.0000 26.2951 0.0000 0.0000
# 5 0.0000 0.0000 0.0000 0.0000 26.2951 -4.2715
# 6 0.0000 0.0000 0.0000 0.0000 -4.2715 16.1089
#
#
#
# Elastic Compliance Matrix: (Units=1/GPa)
#
#
# Indices 1 2 3 4 5 6 
#
# 1 0.022532 -0.009904 -0.000255 0.005269 0.000000 0.000000
# 2 -0.009904 0.022532 -0.000255 -0.005269 0.000000 0.000000
# 3 -0.000255 -0.000255 0.016046 0.000000 0.000000 0.000000
# 4 0.005269 -0.005269 0.000000 0.039742 0.000000 0.000000
# 5 0.000000 0.000000 0.000000 0.000000 0.039742 0.010538
# 6 0.000000 0.000000 0.000000 0.000000 0.010538 0.064872
#
#
# Mechanical properties :
#
#
# Convention : Reuss Voigt Hill
#
# Bulk Modulus (GPa) = 24.82392 25.09643 24.96017
# Shear Modulus (GPa) = 20.85762 23.59241 22.22501
#
# Velocity S-wave (km/s) = 3.37072 3.58490 3.47946
# Velocity P-wave (km/s) = 5.35456 5.55032 5.45332
#
# Compressibility (1/GPa) = 0.04028373
#
# Stress axis : x y z
#
# Youngs Moduli (GPa) = 44.38093 44.38093 62.32024
#
# Poissons Ratio (x) = 0.43954 0.01588
# Poissons Ratio (y) = 0.43954 0.01588
# Poissons Ratio (z) = 0.01131 0.01131
#
# Static dielectric constant tensor:
#      x y z
#    x 1.721710 0.000000 0.000000 
#    y 0.000000 1.721710 0.000000 
#    z 0.000000 0.000000 1.701320 
# 
# From -- ./inp_files/1802.got.cif
#   From: 2010.05.17/outbox.cif.g08.bks.cpg/sg152_1_cif.got.tgz:1802.got - 2010.05.20 10:36:06.
