data_PCOD9575617
_publ_section_title
;
Structure prediction by ZEFSAII (Michael W. Deem and Ramdas Pophale) SiO2 
 PCOD9575617
Probable space group: P 31 1 2
;
_chemical_formula_sum "Si O2"
_cell_formula_units_Z 30
_cell_length_a 18.044492
_cell_length_b 18.044492
_cell_length_c 4.901382
_cell_angle_alpha 90.000000
_cell_angle_beta 90.000000
_cell_angle_gamma 120.000000
_cell_volume 1382.096933
_symmetry_space_group_name_H-M "P 31 1 2"
_symmetry_group_IT_number 151
_symmetry_cell_setting 'hexagonal'
loop_
_space_group_symop_operation_xyz
x,y,z
-y,x-y,1/3+z
-x+y,-x,2/3+z
-y,-x,2/3-z
-x+y,y,1/3-z
x,x-y,-z
loop_
_atom_site_type_symbol
_atom_site_label
_atom_site_fract_x
_atom_site_fract_y
_atom_site_fract_z
Si Si1 0.263888 0.354833 0.666752
Si Si2 0.909055 0.263890 0.833422
Si Si3 0.383073 0.616928 0.833334
Si Si4 0.616927 0.233854 0.666667
Si Si5 0.632960 0.541159 0.659058
Si Si6 0.541160 0.908199 0.492389
O O1 0.170081 0.340162 0.666667
O O2 0.275884 0.275883 0.583332
O O3 0.330658 0.431362 0.463859
O O4 0.296699 0.385311 0.969252
O O5 0.829918 0.170083 0.833334
O O6 0.899296 0.330660 0.630530
O O7 0.911388 0.296700 0.135923
O O8 0.296630 0.593259 0.666667
O O9 0.454790 0.626807 0.617111
O O10 0.703371 0.296630 0.833334
O O11 0.545211 0.172016 0.882891
O O12 0.549607 0.549607 0.583334
#
# Coordination Sequence:
#
# PCOD9575617 Si02
#       6
#     6   6   3   3   6   6
#     4  10  21  39  66  94 125 165 215 267 315 378
#     4  10  21  39  66  94 125 165 215 267 315 378
#     4  12  30  44  64  96 134 166 210 268 340 376
#     4  12  30  44  64  96 134 166 210 268 340 376
#     4  10  24  44  65  88 123 172 217 263 314 384
#     4  10  24  44  65  88 123 172 217 263 314 384
#
# _framework density 21.706150000000001
#
# number of rings (size 3 to 8) (size 9 to 14) (size 15 to 20)
#    0.000    1.600    0.000    2.400   11.200    4.800 
#    0.000    0.000    0.000    0.000    0.000    8.400 
#    0.000    0.000    0.000    0.000    0.000    0.000 
#
# Total GULP energy -167902.688718 kJ/mol
# GULP energy per Si atom -5596.756291 kJ/mol
# Density = 2.165675 g / cm^3
# Si number density = 21.706150 Si / 1000 Ang^3
#
#
#
# Elastic Constant Matrix: (Units=GPa)
#
#
# Indices 1 2 3 4 5 6 
#
# 1 144.0758 74.2674 16.8439 -0.0001 -0.0001 0.0000
# 2 74.2674 144.0758 16.8439 0.0001 0.0001 0.0000
# 3 16.8439 16.8439 62.9750 0.0000 0.0000 0.0000
# 4 -0.0001 0.0001 0.0000 30.5499 0.0000 0.0001
# 5 -0.0001 0.0001 0.0000 0.0000 30.5499 -0.0001
# 6 0.0000 0.0000 0.0000 0.0001 -0.0001 34.9042
#
#
#
# Elastic Compliance Matrix: (Units=1/GPa)
#
#
# Indices 1 2 3 4 5 6 
#
# 1 0.009551 -0.004774 -0.001278 0.000000 0.000000 0.000000
# 2 -0.004774 0.009551 -0.001278 0.000000 0.000000 0.000000
# 3 -0.001278 -0.001278 0.016563 0.000000 0.000000 0.000000
# 4 0.000000 0.000000 0.000000 0.032733 0.000000 0.000000
# 5 0.000000 0.000000 0.000000 0.000000 0.032733 0.000000
# 6 0.000000 0.000000 0.000000 0.000000 0.000000 0.028650
#
#
# Mechanical properties :
#
#
# Convention : Reuss Voigt Hill
#
# Bulk Modulus (GPa) = 47.60523 63.00411 55.30467
# Shear Modulus (GPa) = 33.01591 35.41221 34.21406
#
# Velocity S-wave (km/s) = 3.90428 4.04349 3.97449
# Velocity P-wave (km/s) = 6.50414 7.13363 6.82614
#
# Compressibility (1/GPa) = 0.02100609
#
# Stress axis : x y z
#
# Youngs Moduli (GPa) = 104.70095 104.70095 60.37615
#
# Poissons Ratio (x) = 0.49983 0.07714
# Poissons Ratio (y) = 0.49983 0.07714
# Poissons Ratio (z) = 0.13378 0.13378
#
# Static dielectric constant tensor:
#      x y z
#    x 1.822140 0.000000 0.000000 
#    y 0.000000 1.822140 0.000000 
#    z 0.000000 0.000000 1.804710 
# 
# From -- ./inp_files/466.got.cif
#   From: 2010.05.17/outbox.cif.g08.bks.cpg/sg151_1_cif.got.tgz:466.got - 2010.05.20 10:33:20.
