data_PCOD9575496
_publ_section_title
;
Structure prediction by ZEFSAII (Michael W. Deem and Ramdas Pophale) SiO2 
 PCOD9575496
Probable space group: P 31 1 2
;
_chemical_formula_sum "Si O2"
_cell_formula_units_Z 36
_cell_length_a 9.231389
_cell_length_b 9.231389
_cell_length_c 21.040078
_cell_angle_alpha 90.000000
_cell_angle_beta 90.000000
_cell_angle_gamma 120.000000
_cell_volume 1552.787696
_symmetry_space_group_name_H-M "P 31 1 2"
_symmetry_group_IT_number 151
_symmetry_cell_setting 'hexagonal'
loop_
_space_group_symop_operation_xyz
x,y,z
-y,x-y,1/3+z
-x+y,-x,2/3+z
-y,-x,2/3-z
-x+y,y,1/3-z
x,x-y,-z
loop_
_atom_site_type_symbol
_atom_site_label
_atom_site_fract_x
_atom_site_fract_y
_atom_site_fract_z
Si Si1 0.768347 0.410888 0.264765
Si Si2 0.622615 0.647865 0.979851
Si Si3 0.105143 0.434073 0.449277
Si Si4 0.409928 0.989510 0.576546
Si Si5 0.991971 0.258074 0.044901
Si Si6 0.832214 0.103930 0.408492
O O1 0.668043 0.331958 0.333334
O O2 0.939306 0.563589 0.288021
O O3 0.672401 0.486542 0.226583
O O4 0.827094 0.289705 0.235377
O O5 0.443909 0.523425 0.946538
O O6 0.797455 0.685576 0.945589
O O7 0.635538 0.817769 0.000000
O O8 0.050195 0.525098 0.500000
O O9 0.288206 0.462048 0.463407
O O10 0.996898 0.234738 0.444952
O O11 0.291826 0.984896 0.635990
O O12 0.563824 0.964688 0.594851
O O13 0.123421 0.210434 0.074766
O O14 0.854979 0.145022 0.333334
#
# Coordination Sequence:
#
# PCOD9575496 Si02
#       6
#     6   6   6   6   6   6
#     4  10  17  35  62  93 114 147 203 265 296 351
#     4  11  22  36  64  93 124 155 214 264 306 366
#     4  12  26  41  58  91 138 168 197 264 335 376
#     4  10  19  35  59  90 124 150 201 263 311 367
#     4  10  19  35  65  96 111 152 217 270 298 354
#     4  11  19  36  63  90 118 157 216 250 301 377
#
# _framework density 23.184108999999999
#
# number of rings (size 3 to 8) (size 9 to 14) (size 15 to 20)
#    0.000    1.333    8.333    0.500    7.000    0.000 
#    0.000    4.167    0.000    0.000    0.000    0.000 
#    0.000    0.000    0.000    0.000    0.000    0.000 
#
# Total GULP energy -200453.466403 kJ/mol
# GULP energy per Si atom -5568.151845 kJ/mol
# Density = 2.313134 g / cm^3
# Si number density = 23.184109 Si / 1000 Ang^3
#
#
#
# Elastic Constant Matrix: (Units=GPa)
#
#
# Indices 1 2 3 4 5 6 
#
# 1 157.8472 25.0917 4.6954 0.0004 -14.8917 0.0000
# 2 25.0917 157.8472 4.6954 -0.0004 14.8917 0.0000
# 3 4.6954 4.6954 18.4242 0.0000 0.0000 0.0000
# 4 0.0004 -0.0004 0.0000 3.8233 0.0000 14.8917
# 5 -14.8917 14.8917 0.0000 0.0000 3.8233 0.0004
# 6 0.0000 0.0000 0.0000 14.8917 0.0004 66.3778
#
#
#
# Elastic Compliance Matrix: (Units=1/GPa)
#
#
# Indices 1 2 3 4 5 6 
#
# 1 0.032621 -0.027082 -0.001412 -0.000006 0.232539 0.000000
# 2 -0.027082 0.032621 -0.001412 0.000006 -0.232539 0.000000
# 3 -0.001412 -0.001412 0.054996 0.000000 0.000000 0.000000
# 4 -0.000006 0.000006 0.000000 2.073019 0.000000 -0.465078
# 5 0.232539 -0.232539 0.000000 0.000000 2.073019 -0.000012
# 6 0.000000 0.000000 0.000000 -0.465078 -0.000012 0.119405
#
#
# Mechanical properties :
#
#
# Convention : Reuss Voigt Hill
#
# Bulk Modulus (GPa) = 16.54882 44.78708 30.66795
# Shear Modulus (GPa) = 1.11966 34.78062 17.95014
#
# Velocity S-wave (km/s) = 0.69570 3.87743 2.78554
# Velocity P-wave (km/s) = 2.79264 6.27741 4.85823
#
# Compressibility (1/GPa) = 0.06042728
#
# Stress axis : x y z
#
# Youngs Moduli (GPa) = 30.65550 30.65550 18.18314
#
# Poissons Ratio (x) = 0.83021 0.02567
# Poissons Ratio (y) = 0.83021 0.02567
# Poissons Ratio (z) = 0.04327 0.04327
#
# Static dielectric constant tensor:
#      x y z
#    x 1.577620 0.000000 0.000000 
#    y 0.000000 1.577620 0.000000 
#    z 0.000000 0.000000 2.089760 
# 
# From -- ./inp_files/4659.got.cif
#   From: 2010.05.17/outbox.cif.g08.bks.cpg/sg151_3_cif.got.tgz:4659.got - 2010.05.20 10:33:20.
