data_PCOD9575058
_publ_section_title
;
Structure prediction by ZEFSAII (Michael W. Deem and Ramdas Pophale) SiO2 
 PCOD9575058
Probable space group: R -3
;
_chemical_formula_sum "Si O2"
_cell_formula_units_Z 114
_cell_length_a 14.516765
_cell_length_b 14.516765
_cell_length_c 31.703923
_cell_angle_alpha 90.000000
_cell_angle_beta 90.000000
_cell_angle_gamma 120.000000
_cell_volume 5786.065280
_symmetry_space_group_name_H-M "R -3"
_symmetry_group_IT_number 148
_symmetry_cell_setting 'hexagonal'
loop_
_space_group_symop_operation_xyz
x,y,z
-y,x-y,z
-x+y,-x,z
-x,-y,-z
y,-x+y,-z
x-y,x,-z
2/3+x,1/3+y,1/3+z
2/3-y,1/3+x-y,1/3+z
2/3-x+y,1/3-x,1/3+z
2/3-x,1/3-y,1/3-z
2/3+y,1/3-x+y,1/3-z
2/3+x-y,1/3+x,1/3-z
1/3+x,2/3+y,2/3+z
1/3-y,2/3+x-y,2/3+z
1/3-x+y,2/3-x,2/3+z
1/3-x,2/3-y,2/3-z
1/3+y,2/3-x+y,2/3-z
1/3+x-y,2/3+x,2/3-z
loop_
_atom_site_type_symbol
_atom_site_label
_atom_site_fract_x
_atom_site_fract_y
_atom_site_fract_z
Si Si1 0.333334 0.666667 0.716689
Si Si2 0.173140 0.897936 0.648815
Si Si3 0.137756 0.429647 0.170249
Si Si4 0.339862 0.966243 0.918828
Si Si5 0.572316 0.486219 0.035139
Si Si6 0.610439 0.981233 0.253499
Si Si7 0.217586 0.789476 0.725751
O O1 0.333335 0.666668 0.666667
O O2 0.243343 0.695049 0.728882
O O3 0.078941 0.826147 0.616783
O O4 0.186374 0.817386 0.680160
O O5 0.278248 0.965515 0.620245
O O6 0.164691 0.986283 0.677399
O O7 0.127483 0.534066 0.164707
O O8 0.077300 0.363662 0.212033
O O9 0.085659 0.363418 0.128221
O O10 0.380831 0.891468 0.939894
O O11 0.214082 0.899864 0.910948
O O12 0.606917 0.582467 0.067981
O O13 0.500000 0.500000 0.000000
O O14 0.673050 0.104830 0.264316
#
# Coordination Sequence:
#
# PCOD9575058 Si02
#       7
#     6  18  18  18  18  18  18
#     4  12  21  33  57  96 129 159 201 267 327 381
#     4  10  19  35  61  94 129 160 210 265 328 389
#     4  12  25  43  67  89 123 166 220 272 318 386
#     4  11  21  39  62  89 128 172 215 262 321 391
#     4   9  19  34  58  89 123 168 205 256 326 390
#     4  11  21  38  62  94 124 169 216 262 325 387
#     4  11  23  36  62  96 130 165 215 268 329 382
#
# _framework density 19.702508999999999
#
# number of rings (size 3 to 8) (size 9 to 14) (size 15 to 20)
#    0.000    1.263    3.158    5.842    0.000    0.632 
#    0.000    0.000    0.000   24.632    0.000    0.000 
#    0.000    0.000    0.000    0.000    0.000    0.000 
#
# Total GULP energy -212033.064746 kJ/mol
# GULP energy per Si atom -5579.817493 kJ/mol
# Density = 1.965766 g / cm^3
# Si number density = 19.702509 Si / 1000 Ang^3
#
#
#
# Elastic Constant Matrix: (Units=GPa)
#
#
# Indices 1 2 3 4 5 6 
#
# 1 74.6654 34.0311 29.6565 0.5320 -10.0856 0.0002
# 2 34.0311 74.6660 29.6566 -0.5319 10.0856 0.0001
# 3 29.6565 29.6566 96.0656 0.0001 0.0000 0.0000
# 4 0.5320 -0.5319 0.0001 20.2814 0.0000 10.0856
# 5 -10.0856 10.0856 0.0000 0.0000 20.2812 0.5319
# 6 0.0002 0.0001 0.0000 10.0856 0.5319 20.3174
#
#
#
# Elastic Compliance Matrix: (Units=1/GPa)
#
#
# Indices 1 2 3 4 5 6 
#
# 1 0.021885 -0.010821 -0.003415 -0.000858 0.016264 0.000000
# 2 -0.010821 0.021884 -0.003415 0.000858 -0.016264 0.000000
# 3 -0.003415 -0.003415 0.012518 0.000000 0.000000 0.000000
# 4 -0.000858 0.000858 0.000000 0.065527 0.000000 -0.032528
# 5 0.016264 -0.016264 0.000000 0.000000 0.065527 -0.001716
# 6 0.000000 0.000000 0.000000 -0.032528 -0.001716 0.065411
#
#
# Mechanical properties :
#
#
# Convention : Reuss Voigt Hill
#
# Bulk Modulus (GPa) = 47.65597 48.00950 47.83274
# Shear Modulus (GPa) = 16.94624 22.31287 19.62955
#
# Velocity S-wave (km/s) = 2.93594 3.36890 3.15984
# Velocity P-wave (km/s) = 5.97773 6.28910 6.13539
#
# Compressibility (1/GPa) = 0.02098373
#
# Stress axis : x y z
#
# Youngs Moduli (GPa) = 45.69401 45.69450 79.88273
#
# Poissons Ratio (x) = 0.49446 0.27284
# Poissons Ratio (y) = 0.49445 0.27284
# Poissons Ratio (z) = 0.15607 0.15607
#
# Static dielectric constant tensor:
#      x y z
#    x 2.024950 -0.000070 0.000000 
#    y -0.000070 2.024440 0.000000 
#    z 0.000000 0.000000 1.678410 
# 
# From -- ./inp_files/4031.got.cif
#   From: 2010.05.17/outbox.cif.g08.bks.cpg/sg148_3_cif.got.tgz:4031.got - 2010.05.20 13:50:20.
