data_PCOD9575177
_publ_section_title
;
Structure prediction by ZEFSAII (Michael W. Deem and Ramdas Pophale) SiO2 
 PCOD9575177
Probable space group: R -3
;
_chemical_formula_sum "Si O2"
_cell_formula_units_Z 120
_cell_length_a 17.619600
_cell_length_b 17.619600
_cell_length_c 22.485132
_cell_angle_alpha 90.000000
_cell_angle_beta 90.000000
_cell_angle_gamma 120.000000
_cell_volume 6045.304247
_symmetry_space_group_name_H-M "R -3"
_symmetry_group_IT_number 148
_symmetry_cell_setting 'hexagonal'
loop_
_space_group_symop_operation_xyz
x,y,z
-y,x-y,z
-x+y,-x,z
-x,-y,-z
y,-x+y,-z
x-y,x,-z
2/3+x,1/3+y,1/3+z
2/3-y,1/3+x-y,1/3+z
2/3-x+y,1/3-x,1/3+z
2/3-x,1/3-y,1/3-z
2/3+y,1/3-x+y,1/3-z
2/3+x-y,1/3+x,1/3-z
1/3+x,2/3+y,2/3+z
1/3-y,2/3+x-y,2/3+z
1/3-x+y,2/3-x,2/3+z
1/3-x,2/3-y,2/3-z
1/3+y,2/3-x+y,2/3-z
1/3+x-y,2/3+x,2/3-z
loop_
_atom_site_type_symbol
_atom_site_label
_atom_site_fract_x
_atom_site_fract_y
_atom_site_fract_z
Si Si1 0.666668 0.333334 0.462087
Si Si2 0.520262 0.736646 0.354567
Si Si3 0.333334 0.666668 0.937806
Si Si4 0.362960 0.147261 0.746714
Si Si5 0.199057 0.678126 0.622935
Si Si6 0.767234 0.606302 0.985708
Si Si7 0.116457 0.916861 0.520897
Si Si8 0.700451 0.650998 0.354137
O O1 0.666668 0.333334 0.532942
O O2 0.743869 0.322036 0.432205
O O3 0.430158 0.731242 0.370265
O O4 0.558264 0.771906 0.288868
O O5 0.603136 0.801397 0.394445
O O6 0.503147 0.638309 0.361356
O O7 0.379218 0.163940 0.815686
O O8 0.366067 0.062634 0.722904
O O9 0.259566 0.754391 0.669709
O O10 0.117261 0.687985 0.604852
O O11 0.759351 0.558906 0.922861
O O12 0.729343 0.674057 0.980833
O O13 0.868269 0.645376 0.005911
O O14 0.015283 0.861678 0.502500
#
# Coordination Sequence:
#
# PCOD9575177 Si02
#       8
#     6  18   6  18  18  18  18  18
#     4   9  22  37  57  93 124 160 207 265 302 361
#     4  10  23  42  62  83 123 168 207 254 310 394
#     4  12  24  40  64  88 118 171 222 250 314 382
#     4  10  22  42  61  89 126 160 202 262 329 372
#     4   9  17  35  60  87 122 158 202 253 307 362
#     4  11  23  39  63  93 124 162 211 260 316 383
#     4  12  24  41  65  98 123 158 211 278 323 367
#     4  11  20  36  63  93 120 163 205 249 313 392
#
# _framework density 19.850117999999998
#
# number of rings (size 3 to 8) (size 9 to 14) (size 15 to 20)
#    0.000    1.500    4.500    1.650    0.000    1.200 
#    0.000    0.000    0.000    3.600    0.000    0.000 
#    0.000    0.000    0.000    0.000    0.000    0.000 
#
# Total GULP energy -222969.551838 kJ/mol
# GULP energy per Si atom -5574.238796 kJ/mol
# Density = 1.980494 g / cm^3
# Si number density = 19.850118 Si / 1000 Ang^3
#
#
#
# Elastic Constant Matrix: (Units=GPa)
#
#
# Indices 1 2 3 4 5 6 
#
# 1 94.5099 21.1903 2.0605 1.4173 2.7900 -0.0006
# 2 21.1903 94.5091 2.0604 -1.4174 -2.7904 -0.0003
# 3 2.0605 2.0604 25.2510 0.0002 -0.0001 0.0000
# 4 1.4173 -1.4174 0.0002 13.3274 -0.0001 -2.7903
# 5 2.7900 -2.7904 -0.0001 -0.0001 13.3273 1.4175
# 6 -0.0006 -0.0003 0.0000 -2.7903 1.4175 36.6592
#
#
#
# Elastic Compliance Matrix: (Units=1/GPa)
#
#
# Indices 1 2 3 4 5 6 
#
# 1 0.011293 -0.002625 -0.000707 -0.001480 -0.002914 0.000000
# 2 -0.002625 0.011293 -0.000707 0.001480 0.002914 0.000000
# 3 -0.000707 -0.000707 0.039718 -0.000001 0.000000 0.000000
# 4 -0.001480 0.001480 -0.000001 0.076568 0.000000 0.005828
# 5 -0.002914 0.002914 0.000000 0.000000 0.076569 -0.002961
# 6 0.000000 0.000000 0.000000 0.005828 -0.002961 0.027836
#
#
# Mechanical properties :
#
#
# Convention : Reuss Voigt Hill
#
# Bulk Modulus (GPa) = 18.44168 29.43249 23.93709
# Shear Modulus (GPa) = 18.55760 25.26003 21.90882
#
# Velocity S-wave (km/s) = 3.06091 3.57114 3.32582
# Velocity P-wave (km/s) = 4.66935 5.64478 5.18008
#
# Compressibility (1/GPa) = 0.05422499
#
# Stress axis : x y z
#
# Youngs Moduli (GPa) = 88.54990 88.54895 25.17765
#
# Poissons Ratio (x) = 0.23243 0.01781
# Poissons Ratio (y) = 0.23243 0.01781
# Poissons Ratio (z) = 0.06263 0.06263
#
# Static dielectric constant tensor:
#      x y z
#    x 1.752650 0.000000 0.000000 
#    y 0.000000 1.752650 0.000000 
#    z 0.000000 0.000000 1.656180 
# 
# From -- ./inp_files/3490.got.cif
#   From: 2010.05.17/outbox.cif.g08.bks.cpg/sg148_2_cif.got.tgz:3490.got - 2010.05.20 13:50:20.
