data_PCOD9575967
_publ_section_title
;
Structure prediction by ZEFSAII (Michael W. Deem and Ramdas Pophale) SiO2 
 PCOD9575967
Probable space group: P 31 2 1
;
_chemical_formula_sum "Si O2"
_cell_formula_units_Z 33
_cell_length_a 13.665408
_cell_length_b 13.665408
_cell_length_c 9.743451
_cell_angle_alpha 90.000000
_cell_angle_beta 90.000000
_cell_angle_gamma 120.000000
_cell_volume 1575.754814
_symmetry_space_group_name_H-M "P 31 2 1"
_symmetry_group_IT_number 152
_symmetry_cell_setting 'hexagonal'
loop_
_space_group_symop_operation_xyz
x,y,z
-y,x-y,1/3+z
-x+y,-x,2/3+z
x-y,-y,2/3-z
-x,-x+y,1/3-z
y,x,-z
loop_
_atom_site_type_symbol
_atom_site_label
_atom_site_fract_x
_atom_site_fract_y
_atom_site_fract_z
Si Si1 0.888728 0.437943 0.349744
Si Si2 0.364834 0.074106 0.604047
Si Si3 0.782076 0.535886 0.513302
Si Si4 0.118802 0.246224 0.980465
Si Si5 0.000000 0.658855 0.166667
Si Si6 0.123284 0.280115 0.666882
O O1 0.844895 0.466594 0.486775
O O2 0.794414 0.326649 0.274922
O O3 0.990719 0.414334 0.376724
O O4 0.924533 0.545218 0.251890
O O5 0.438178 0.179462 0.702005
O O6 0.355773 0.100263 0.444196
O O7 0.234855 0.007911 0.662418
O O8 0.859111 0.657136 0.582468
O O9 0.146784 0.301376 0.827923
O O10 0.142657 0.142657 0.000000
O O11 0.057094 0.762772 0.271542
O O12 0.000000 0.164272 0.666667
#
# Coordination Sequence:
#
# PCOD9575967 Si02
#       6
#     6   6   6   6   3   6
#     4  11  22  41  69  98 128 183 225 276 352 408
#     4  10  21  43  70  92 136 177 223 282 338 404
#     4  11  22  44  65  95 135 175 225 283 339 407
#     4  10  21  40  64  95 133 171 217 269 343 400
#     4  12  20  40  72  90 132 178 228 270 342 418
#     4  10  23  42  65  99 133 173 221 280 338 402
#
# _framework density 20.942343999999999
#
# number of rings (size 3 to 8) (size 9 to 14) (size 15 to 20)
#    0.000    1.455    3.636    2.727    0.000    0.000 
#    9.818   17.273    0.000    0.000    0.000    0.000 
#    0.000    0.000    0.000    0.000    0.000    0.000 
#
# Total GULP energy -183912.630214 kJ/mol
# GULP energy per Si atom -5573.110006 kJ/mol
# Density = 2.089468 g / cm^3
# Si number density = 20.942344 Si / 1000 Ang^3
#
#
#
# Elastic Constant Matrix: (Units=GPa)
#
#
# Indices 1 2 3 4 5 6 
#
# 1 37.2064 34.2772 -2.7879 4.6717 -0.0002 0.0000
# 2 34.2772 37.2064 -2.7879 -4.6717 0.0002 0.0000
# 3 -2.7879 -2.7879 85.6737 0.0000 0.0000 0.0000
# 4 4.6717 -4.6717 0.0000 29.9657 0.0000 0.0002
# 5 -0.0002 0.0002 0.0000 0.0000 29.9657 4.6717
# 6 0.0000 0.0000 0.0000 0.0002 4.6717 1.4646
#
#
#
# Elastic Compliance Matrix: (Units=1/GPa)
#
#
# Indices 1 2 3 4 5 6 
#
# 1 0.346565 -0.332540 0.000456 -0.105873 0.000005 0.000000
# 2 -0.332540 0.346565 0.000456 0.105873 -0.000005 0.000000
# 3 0.000456 0.000456 0.011702 0.000000 0.000000 0.000000
# 4 -0.105873 0.105873 0.000000 0.066383 0.000000 -0.000009
# 5 0.000005 -0.000005 0.000000 0.000000 0.066383 -0.211746
# 6 0.000000 0.000000 0.000000 -0.000009 -0.211746 1.358211
#
#
# Mechanical properties :
#
#
# Convention : Reuss Voigt Hill
#
# Bulk Modulus (GPa) = 24.05172 24.16548 24.10860
# Shear Modulus (GPa) = 1.74039 21.03820 11.38929
#
# Velocity S-wave (km/s) = 0.91260 3.17294 2.33457
# Velocity P-wave (km/s) = 3.55248 4.99875 4.33634
#
# Compressibility (1/GPa) = 0.04157706
#
# Stress axis : x y z
#
# Youngs Moduli (GPa) = 2.88546 2.88546 85.45625
#
# Poissons Ratio (x) = 0.95953 -0.03900
# Poissons Ratio (y) = 0.95953 -0.03900
# Poissons Ratio (z) = -0.00132 -0.00132
#
# Static dielectric constant tensor:
#      x y z
#    x 1.803310 0.000000 0.000000 
#    y 0.000000 1.803310 0.000000 
#    z 0.000000 0.000000 1.831220 
# 
# From -- ./inp_files/1124.got.cif
#   From: 2010.05.17/outbox.cif.g08.bks.cpg/sg152_1_cif.got.tgz:1124.got - 2010.05.20 10:36:06.
