data_PCOD9575383
_publ_section_title
;
Structure prediction by ZEFSAII (Michael W. Deem and Ramdas Pophale) SiO2 
 PCOD9575383
Probable space group: P 3 1 2
;
_chemical_formula_sum "Si O2"
_cell_formula_units_Z 14
_cell_length_a 10.993968
_cell_length_b 10.993968
_cell_length_c 7.091941
_cell_angle_alpha 90.000000
_cell_angle_beta 90.000000
_cell_angle_gamma 120.000000
_cell_volume 742.343111
_symmetry_space_group_name_H-M "P 3 1 2"
_symmetry_group_IT_number 149
_symmetry_cell_setting 'hexagonal'
loop_
_space_group_symop_operation_xyz
x,y,z
-y,x-y,z
-x+y,-x,z
-y,-x,-z
-x+y,y,-z
x,x-y,-z
loop_
_atom_site_type_symbol
_atom_site_label
_atom_site_fract_x
_atom_site_fract_y
_atom_site_fract_z
Si Si1 0.339447 0.384875 0.500000
Si Si2 0.837908 0.675816 0.774965
Si Si3 0.000000 0.000000 0.224821
O O1 0.450851 0.549150 0.500000
O O2 0.180668 0.361336 0.500000
O O3 0.371792 0.310996 0.676788
O O4 0.371792 0.310996 0.323212
O O5 0.920050 0.840101 0.720211
O O6 0.828192 0.656384 0.000000
O O7 0.000000 0.000000 0.000000
#
# Coordination Sequence:
#
# PCOD9575383 Si02
#       3
#     6   6   2
#     4  11  23  38  60  88 123 157 196 242 296 357
#     4  10  21  39  64  89 115 150 197 250 299 347
#     4   9  15  31  65  94 103 131 190 250 296 334
#
# _framework density 18.859204999999999
#
# number of rings (size 3 to 8) (size 9 to 14) (size 15 to 20)
#    0.000    1.714    4.286    0.429    0.000    1.714 
#   10.286    0.000    0.000    5.143    0.000    0.000 
#    0.000    0.000    0.000    0.000    0.000    0.000 
#
# Total GULP energy -77952.603406 kJ/mol
# GULP energy per Si atom -5568.043100 kJ/mol
# Density = 1.881628 g / cm^3
# Si number density = 18.859205 Si / 1000 Ang^3
#
#
#
# Elastic Constant Matrix: (Units=GPa)
#
#
# Indices 1 2 3 4 5 6 
#
# 1 93.4384 18.9357 32.7836 0.0000 0.0000 0.0000
# 2 18.9357 93.4384 32.7836 0.0000 0.0000 0.0000
# 3 32.7836 32.7836 165.4356 0.0000 0.0000 0.0000
# 4 0.0000 0.0000 0.0000 15.7576 0.0000 0.0000
# 5 0.0000 0.0000 0.0000 0.0000 15.7576 0.0000
# 6 0.0000 0.0000 0.0000 0.0000 0.0000 37.2513
#
#
#
# Elastic Compliance Matrix: (Units=1/GPa)
#
#
# Indices 1 2 3 4 5 6 
#
# 1 0.011742 -0.001680 -0.001994 0.000000 0.000000 0.000000
# 2 -0.001680 0.011742 -0.001994 0.000000 0.000000 0.000000
# 3 -0.001994 -0.001994 0.006835 0.000000 0.000000 0.000000
# 4 0.000000 0.000000 0.000000 0.063461 0.000000 0.000000
# 5 0.000000 0.000000 0.000000 0.000000 0.063461 0.000000
# 6 0.000000 0.000000 0.000000 0.000000 0.000000 0.026845
#
#
# Mechanical properties :
#
#
# Convention : Reuss Voigt Hill
#
# Bulk Modulus (GPa) = 52.67726 57.92425 55.30075
# Shear Modulus (GPa) = 24.78301 31.60726 28.19513
#
# Velocity S-wave (km/s) = 3.62899 4.09829 3.87076
# Velocity P-wave (km/s) = 6.74922 7.29214 7.02593
#
# Compressibility (1/GPa) = 0.01898352
#
# Stress axis : x y z
#
# Youngs Moduli (GPa) = 85.16206 85.16206 146.30720
#
# Poissons Ratio (x) = 0.14307 0.29174
# Poissons Ratio (y) = 0.14307 0.29174
# Poissons Ratio (z) = 0.16981 0.16981
#
# Static dielectric constant tensor:
#      x y z
#    x 1.660250 0.000000 0.000000 
#    y 0.000000 1.660250 0.000000 
#    z 0.000000 0.000000 1.663150 
# 
# From -- ./inp_files/334.got.cif
#   From: 2010.05.17/outbox.cif.g08.bks.cpg/sg149_cif.got.tgz:334.got - 2010.05.20 13:52:34.
