data_PCOD9575842
_publ_section_title
;
Structure prediction by ZEFSAII (Michael W. Deem and Ramdas Pophale) SiO2 
 PCOD9575842
Probable space group: P 31 2 1
;
_chemical_formula_sum "Si O2"
_cell_formula_units_Z 30
_cell_length_a 8.287038
_cell_length_b 8.287038
_cell_length_c 25.541494
_cell_angle_alpha 90.000000
_cell_angle_beta 90.000000
_cell_angle_gamma 120.000000
_cell_volume 1519.062313
_symmetry_space_group_name_H-M "P 31 2 1"
_symmetry_group_IT_number 152
_symmetry_cell_setting 'hexagonal'
loop_
_space_group_symop_operation_xyz
x,y,z
-y,x-y,1/3+z
-x+y,-x,2/3+z
x-y,-y,2/3-z
-x,-x+y,1/3-z
y,x,-z
loop_
_atom_site_type_symbol
_atom_site_label
_atom_site_fract_x
_atom_site_fract_y
_atom_site_fract_z
Si Si1 0.079297 0.475596 0.973617
Si Si2 0.545672 0.532082 0.903228
Si Si3 0.173955 0.634331 0.270706
Si Si4 0.832325 0.398725 0.872726
Si Si5 0.294612 0.294612 0.000000
Si Si6 0.464981 0.464981 0.500000
O O1 0.279729 0.651932 0.961875
O O2 0.969235 0.426859 0.919696
O O3 0.108534 0.305270 0.991878
O O4 0.982764 0.531198 0.018853
O O5 0.591072 0.738752 0.921909
O O6 0.708605 0.488035 0.891223
O O7 0.439933 0.506152 0.848238
O O8 0.419633 0.392348 0.948636
O O9 0.100222 0.509970 0.217775
O O10 0.710227 0.177638 0.860199
#
# Coordination Sequence:
#
# PCOD9575842 Si02
#       6
#     6   6   6   6   3   3
#     4  11  22  38  60  87 119 157 202 247 303 364
#     4  10  20  36  61  88 118 157 202 241 301 371
#     4  10  21  37  60  87 118 159 199 249 303 360
#     4  11  21  38  62  88 118 155 201 249 302 368
#     4  10  20  36  58  84 118 158 200 248 298 358
#     4  10  20  36  60  86 116 150 192 242 300 352
#
# _framework density 19.749027000000002
#
# number of rings (size 3 to 8) (size 9 to 14) (size 15 to 20)
#    0.000    1.600    0.000    8.400    0.000    0.000 
#    0.000    6.000    0.000   24.000    0.000    0.000 
#    0.000    0.000    0.000    0.000    0.000    0.000 
#
# Total GULP energy -167179.760541 kJ/mol
# GULP energy per Si atom -5572.658685 kJ/mol
# Density = 1.970408 g / cm^3
# Si number density = 19.749027 Si / 1000 Ang^3
#
#
#
# Elastic Constant Matrix: (Units=GPa)
#
#
# Indices 1 2 3 4 5 6 
#
# 1 61.1851 47.2541 28.9965 0.0393 0.0000 0.0000
# 2 47.2541 61.1851 28.9965 -0.0393 0.0000 0.0000
# 3 28.9965 28.9965 131.2708 0.0000 0.0000 0.0000
# 4 0.0393 -0.0393 0.0000 41.6716 0.0000 0.0000
# 5 0.0000 0.0000 0.0000 0.0000 41.6716 0.0393
# 6 0.0000 0.0000 0.0000 0.0000 0.0393 6.9655
#
#
#
# Elastic Compliance Matrix: (Units=1/GPa)
#
#
# Indices 1 2 3 4 5 6 
#
# 1 0.041120 -0.030663 -0.002310 -0.000068 0.000000 0.000000
# 2 -0.030663 0.041120 -0.002310 0.000068 0.000000 0.000000
# 3 -0.002310 -0.002310 0.008638 0.000000 0.000000 0.000000
# 4 -0.000068 0.000068 0.000000 0.023997 0.000000 0.000000
# 5 0.000000 0.000000 0.000000 0.000000 0.023997 -0.000135
# 6 0.000000 0.000000 0.000000 0.000000 -0.000135 0.143565
#
#
# Mechanical properties :
#
#
# Convention : Reuss Voigt Hill
#
# Bulk Modulus (GPa) = 49.22963 51.57055 50.40009
# Shear Modulus (GPa) = 13.89760 27.95465 20.92613
#
# Velocity S-wave (km/s) = 2.65563 3.76639 3.25869
# Velocity P-wave (km/s) = 5.86387 6.71445 6.30352
#
# Compressibility (1/GPa) = 0.02031297
#
# Stress axis : x y z
#
# Youngs Moduli (GPa) = 24.31912 24.31912 115.76356
#
# Poissons Ratio (x) = 0.74569 0.26740
# Poissons Ratio (y) = 0.74569 0.26740
# Poissons Ratio (z) = 0.05617 0.05617
#
# Static dielectric constant tensor:
#      x y z
#    x 1.725860 0.000000 0.000000 
#    y 0.000000 1.725860 0.000000 
#    z 0.000000 0.000000 1.701810 
# 
# From -- ./inp_files/3034.got.cif
#   From: 2010.05.17/outbox.cif.g08.bks.cpg/sg152_2_cif.got.tgz:3034.got - 2010.05.20 10:36:06.
