data_PCOD9575880
_publ_section_title
;
Structure prediction by ZEFSAII (Michael W. Deem and Ramdas Pophale) SiO2 
 PCOD9575880
Probable space group: P 31 2 1
;
_chemical_formula_sum "Si O2"
_cell_formula_units_Z 39
_cell_length_a 8.637739
_cell_length_b 8.637739
_cell_length_c 29.529130
_cell_angle_alpha 90.000000
_cell_angle_beta 90.000000
_cell_angle_gamma 120.000000
_cell_volume 1908.013476
_symmetry_space_group_name_H-M "P 31 2 1"
_symmetry_group_IT_number 152
_symmetry_cell_setting 'hexagonal'
loop_
_space_group_symop_operation_xyz
x,y,z
-y,x-y,1/3+z
-x+y,-x,2/3+z
x-y,-y,2/3-z
-x,-x+y,1/3-z
y,x,-z
loop_
_atom_site_type_symbol
_atom_site_label
_atom_site_fract_x
_atom_site_fract_y
_atom_site_fract_z
Si Si1 0.407864 0.000000 0.333334
Si Si2 0.235494 0.358025 0.455855
Si Si3 0.303096 0.395819 0.932238
Si Si4 0.437824 0.768895 0.457082
Si Si5 0.659283 0.878105 0.077157
Si Si6 0.572928 0.479826 0.785182
Si Si7 0.958336 0.022512 0.948140
O O1 0.464407 0.880726 0.303984
O O2 0.248167 0.871365 0.366745
O O3 0.271992 0.271992 0.500000
O O4 0.387930 0.565116 0.451790
O O5 0.203107 0.238536 0.410428
O O6 0.059697 0.377373 0.463055
O O7 0.421513 0.316749 0.912873
O O8 0.263629 0.504835 0.894916
O O9 0.118979 0.225594 0.946752
O O10 0.261629 0.788760 0.448224
O O11 0.506189 0.852252 0.506280
O O12 0.872741 0.971442 0.082192
O O13 0.592747 0.021567 0.077772
O O14 0.963028 0.963028 0.000000
#
# Coordination Sequence:
#
# PCOD9575880 Si02
#       7
#     3   6   6   6   6   6   6
#     4  10  20  40  56  82 120 166 212 248 306 376
#     4  10  22  39  63  93 127 166 211 264 321 381
#     4  10  21  39  62  85 126 162 197 264 314 369
#     4  10  21  40  63  92 125 159 207 261 317 384
#     4  10  21  39  61  89 118 167 207 249 310 381
#     4  10  21  40  63  95 121 161 208 257 326 381
#     4  11  22  41  60  91 126 167 209 263 317 379
#
# _framework density 20.440110000000001
#
# number of rings (size 3 to 8) (size 9 to 14) (size 15 to 20)
#    0.000    1.846    1.538    2.769    0.000    3.692 
#   11.077    0.769    0.000    0.000    0.000    0.000 
#    0.000    0.000    0.000    0.000    0.000    0.000 
#
# Total GULP energy -217145.809553 kJ/mol
# GULP energy per Si atom -5567.841271 kJ/mol
# Density = 2.039359 g / cm^3
# Si number density = 20.440110 Si / 1000 Ang^3
#
#
#
# Elastic Constant Matrix: (Units=GPa)
#
#
# Indices 1 2 3 4 5 6 
#
# 1 59.8748 17.1910 24.5840 7.8117 -0.0004 0.0000
# 2 17.1910 59.8748 24.5840 -7.8117 0.0004 0.0000
# 3 24.5840 24.5840 81.3368 0.0000 0.0000 0.0000
# 4 7.8117 -7.8117 0.0000 -20.6999 0.0000 0.0004
# 5 -0.0004 0.0004 0.0000 0.0000 -20.6999 7.8117
# 6 0.0000 0.0000 0.0000 0.0004 7.8117 21.3419
#
#
#
# Elastic Compliance Matrix: (Units=1/GPa)
#
#
# Indices 1 2 3 4 5 6 
#
# 1 0.018330 -0.002254 -0.004859 0.007768 0.000000 0.000000
# 2 -0.002254 0.018330 -0.004859 -0.007768 0.000000 0.000000
# 3 -0.004859 -0.004859 0.015232 0.000000 0.000000 0.000000
# 4 0.007768 -0.007768 0.000000 -0.042446 0.000000 0.000001
# 5 0.000000 0.000000 0.000000 0.000000 -0.042446 0.015536
# 6 0.000000 0.000000 0.000000 0.000001 0.015536 0.041170
#
#
# Mechanical properties :
#
#
# Convention : Reuss Voigt Hill
#
# Bulk Modulus (GPa) = 35.78088 37.08937 36.43512
# Shear Modulus (GPa) = 120.68528 4.97022 62.82775
#
# Velocity S-wave (km/s) = 7.69230 1.56105 5.55015
# Velocity P-wave (km/s) = 9.82032 4.62968 7.67700
#
# Compressibility (1/GPa) = 0.02794789
#
# Stress axis : x y z
#
# Youngs Moduli (GPa) = 54.55435 54.55435 65.65227
#
# Poissons Ratio (x) = 0.12299 0.31900
# Poissons Ratio (y) = 0.12299 0.31900
# Poissons Ratio (z) = 0.26508 0.26508
#
# Static dielectric constant tensor:
#      x y z
#    x 1.747840 0.000000 0.000000 
#    y 0.000000 1.747840 0.000000 
#    z 0.000000 0.000000 1.737970 
# 
# From -- ./inp_files/3644.got.cif
#   From: 2010.05.17/outbox.cif.g08.bks.cpg/sg152_2_cif.got.tgz:3644.got - 2010.05.20 10:36:06.
