data_PCOD9575664
_publ_section_title
;
Structure prediction by ZEFSAII (Michael W. Deem and Ramdas Pophale) SiO2 
 PCOD9575664
Probable space group: P 31 1 2
;
_chemical_formula_sum "Si O2"
_cell_formula_units_Z 33
_cell_length_a 14.940775
_cell_length_b 14.940775
_cell_length_c 9.863010
_cell_angle_alpha 90.000000
_cell_angle_beta 90.000000
_cell_angle_gamma 120.000000
_cell_volume 1906.717516
_symmetry_space_group_name_H-M "P 31 1 2"
_symmetry_group_IT_number 151
_symmetry_cell_setting 'hexagonal'
loop_
_space_group_symop_operation_xyz
x,y,z
-y,x-y,1/3+z
-x+y,-x,2/3+z
-y,-x,2/3-z
-x+y,y,1/3-z
x,x-y,-z
loop_
_atom_site_type_symbol
_atom_site_label
_atom_site_fract_x
_atom_site_fract_y
_atom_site_fract_z
Si Si1 0.020304 0.179318 0.783202
Si Si2 0.603221 0.903827 0.956993
Si Si3 0.178293 0.687419 0.005256
Si Si4 0.030249 0.850679 0.700501
Si Si5 0.480996 0.961991 0.166667
Si Si6 0.332364 0.403915 0.059714
O O1 0.072237 0.144474 0.666667
O O2 0.011353 0.276350 0.729203
O O3 0.097488 0.208963 0.910651
O O4 0.913153 0.086848 0.833334
O O5 0.547937 0.880692 0.812993
O O6 0.611066 0.805533 0.000000
O O7 0.535788 0.916223 0.071595
O O8 0.229352 0.614676 0.000000
O O9 0.096539 0.653255 0.881614
O O10 0.263131 0.808752 0.993906
O O11 0.079944 0.920057 0.833334
O O12 0.021251 0.740441 0.724876
O O13 0.922602 0.845204 0.666667
O O14 0.562277 0.993403 0.295476
#
# Coordination Sequence:
#
# PCOD9575664 Si02
#       6
#     6   6   6   6   3   6
#     4  11  21  36  56  81 114 154 199 238 282 345
#     4  11  21  36  50  77 116 150 188 240 282 342
#     4  11  20  34  53  73 105 150 189 231 290 338
#     4  12  22  37  58  83 118 157 202 246 298 350
#     4  12  22  34  54  74 110 154 188 230 300 340
#     4  11  22  36  52  80 115 149 192 249 284 351
#
# _framework density 17.307230000000001
#
# number of rings (size 3 to 8) (size 9 to 14) (size 15 to 20)
#    0.000    0.727    7.273    3.273    0.000    2.182 
#    0.000    0.000    0.000    0.000    0.000    0.000 
#    2.727    0.000    0.000    0.000    0.000    0.000 
#
# Total GULP energy -183755.133789 kJ/mol
# GULP energy per Si atom -5568.337388 kJ/mol
# Density = 1.726784 g / cm^3
# Si number density = 17.307230 Si / 1000 Ang^3
#
#
#
# Elastic Constant Matrix: (Units=GPa)
#
#
# Indices 1 2 3 4 5 6 
#
# 1 64.1191 32.9492 13.6359 0.0009 4.2610 0.0000
# 2 32.9492 64.1191 13.6359 -0.0009 -4.2610 0.0000
# 3 13.6359 13.6359 128.7017 0.0000 0.0000 0.0000
# 4 0.0009 -0.0009 0.0000 27.0368 0.0000 -4.2610
# 5 4.2610 -4.2610 0.0000 0.0000 27.0368 0.0009
# 6 0.0000 0.0000 0.0000 -4.2610 0.0009 15.5850
#
#
#
# Elastic Compliance Matrix: (Units=1/GPa)
#
#
# Indices 1 2 3 4 5 6 
#
# 1 0.022072 -0.011454 -0.001125 -0.000001 -0.005284 0.000000
# 2 -0.011454 0.022072 -0.001125 0.000001 0.005284 0.000000
# 3 -0.001125 -0.001125 0.008008 0.000000 0.000000 0.000000
# 4 -0.000001 0.000001 0.000000 0.038652 0.000000 0.010568
# 5 -0.005284 0.005284 0.000000 0.000000 0.038652 -0.000002
# 6 0.000000 0.000000 0.000000 0.010568 -0.000002 0.067054
#
#
# Mechanical properties :
#
#
# Convention : Reuss Voigt Hill
#
# Bulk Modulus (GPa) = 40.41295 41.93133 41.17214
# Shear Modulus (GPa) = 21.53612 27.04630 24.29121
#
# Velocity S-wave (km/s) = 3.53135 3.95741 3.75044
# Velocity P-wave (km/s) = 6.32679 6.72024 6.52648
#
# Compressibility (1/GPa) = 0.02474455
#
# Stress axis : x y z
#
# Youngs Moduli (GPa) = 45.30530 45.30530 124.87066
#
# Poissons Ratio (x) = 0.51894 0.14048
# Poissons Ratio (y) = 0.51894 0.14048
# Poissons Ratio (z) = 0.05097 0.05097
#
# Static dielectric constant tensor:
#      x y z
#    x 1.625190 0.000000 0.000000 
#    y 0.000000 1.625190 0.000000 
#    z 0.000000 0.000000 1.176090 
# 
# From -- ./inp_files/1726.got.cif
#   From: 2010.05.17/outbox.cif.g08.bks.cpg/sg151_1_cif.got.tgz:1726.got - 2010.05.20 10:33:20.
