data_PCOD9575587
_publ_section_title
;
Structure prediction by ZEFSAII (Michael W. Deem and Ramdas Pophale) SiO2 
 PCOD9575587
Probable space group: P 31 1 2
;
_chemical_formula_sum "Si O2"
_cell_formula_units_Z 18
_cell_length_a 9.321824
_cell_length_b 9.321824
_cell_length_c 8.708864
_cell_angle_alpha 90.000000
_cell_angle_beta 90.000000
_cell_angle_gamma 120.000000
_cell_volume 655.381138
_symmetry_space_group_name_H-M "P 31 1 2"
_symmetry_group_IT_number 151
_symmetry_cell_setting 'hexagonal'
loop_
_space_group_symop_operation_xyz
x,y,z
-y,x-y,1/3+z
-x+y,-x,2/3+z
-y,-x,2/3-z
-x+y,y,1/3-z
x,x-y,-z
loop_
_atom_site_type_symbol
_atom_site_label
_atom_site_fract_x
_atom_site_fract_y
_atom_site_fract_z
Si Si1 0.882541 0.426831 0.169317
Si Si2 0.946881 0.280214 0.583333
Si Si3 0.122377 0.906503 0.664017
O O1 0.730352 0.460704 0.166667
O O2 0.785012 0.227727 0.174322
O O3 0.980383 0.543071 0.312209
O O4 0.966459 0.483230 0.000000
O O5 0.103979 0.313716 0.478876
O O6 0.881656 0.105606 0.674322
O O7 0.149897 0.850104 0.833334
O O8 0.936315 0.872629 0.666667
#
# Coordination Sequence:
#
# PCOD9575587 Si02
#       3
#     6   6   6
#     4   9  20  36  58  93 141 184 227 286 353 419
#     4  10  20  38  62  96 148 186 228 288 356 422
#     4   9  20  36  58  93 141 184 227 286 353 419
#
# _framework density 27.464932000000001
#
# number of rings (size 3 to 8) (size 9 to 14) (size 15 to 20)
#    0.000    2.667    0.000    0.000    0.000   24.000 
#    0.000    0.000    0.000    0.000    0.000    0.000 
#    0.000 1824.000    0.000    0.000    0.000    0.000 
#
# Total GULP energy -100364.425372 kJ/mol
# GULP energy per Si atom -5575.801410 kJ/mol
# Density = 2.740242 g / cm^3
# Si number density = 27.464932 Si / 1000 Ang^3
#
#
#
# Elastic Constant Matrix: (Units=GPa)
#
#
# Indices 1 2 3 4 5 6 
#
# 1 93.8882 19.4471 58.9174 0.0000 0.0000 0.0000
# 2 19.4471 93.8882 58.9174 0.0000 0.0000 0.0000
# 3 58.9174 58.9174 255.9346 0.0000 0.0000 0.0000
# 4 0.0000 0.0000 0.0000 57.3706 0.0000 0.0000
# 5 0.0000 0.0000 0.0000 0.0000 57.3706 0.0000
# 6 0.0000 0.0000 0.0000 0.0000 0.0000 37.2205
#
#
#
# Elastic Compliance Matrix: (Units=1/GPa)
#
#
# Indices 1 2 3 4 5 6 
#
# 1 0.012517 -0.000917 -0.002670 0.000000 0.000000 0.000000
# 2 -0.000917 0.012517 -0.002670 0.000000 0.000000 0.000000
# 3 -0.002670 -0.002670 0.005137 0.000000 0.000000 0.000000
# 4 0.000000 0.000000 0.000000 0.017431 0.000000 0.000000
# 5 0.000000 0.000000 0.000000 0.000000 0.017431 0.000000
# 6 0.000000 0.000000 0.000000 0.000000 0.000000 0.026867
#
#
# Mechanical properties :
#
#
# Convention : Reuss Voigt Hill
#
# Bulk Modulus (GPa) = 56.64170 79.80833 68.22502
# Shear Modulus (GPa) = 45.33187 50.82095 48.07641
#
# Velocity S-wave (km/s) = 4.06709 4.30629 4.18839
# Velocity P-wave (km/s) = 6.53628 7.33804 6.94873
#
# Compressibility (1/GPa) = 0.01765484
#
# Stress axis : x y z
#
# Youngs Moduli (GPa) = 79.89412 79.89412 194.67810
#
# Poissons Ratio (x) = 0.07325 0.51985
# Poissons Ratio (y) = 0.07325 0.51985
# Poissons Ratio (z) = 0.21334 0.21334
#
# Static dielectric constant tensor:
#      x y z
#    x 2.166690 0.000000 0.000000 
#    y 0.000000 2.166690 0.000000 
#    z 0.000000 0.000000 2.682290 
# 
# From -- ./inp_files/1256.got.cif
#   From: 2010.05.17/outbox.cif.g08.bks.cpg/sg151_1_cif.got.tgz:1256.got - 2010.05.20 10:33:20.
