data_PCOD9575082
_publ_section_title
;
Structure prediction by ZEFSAII (Michael W. Deem and Ramdas Pophale) SiO2 
 PCOD9575082
Probable space group: R -3
;
_chemical_formula_sum "Si O2"
_cell_formula_units_Z 144
_cell_length_a 23.050236
_cell_length_b 23.050236
_cell_length_c 17.796788
_cell_angle_alpha 90.000000
_cell_angle_beta 90.000000
_cell_angle_gamma 120.000000
_cell_volume 8188.851798
_symmetry_space_group_name_H-M "R -3"
_symmetry_group_IT_number 148
_symmetry_cell_setting 'hexagonal'
loop_
_space_group_symop_operation_xyz
x,y,z
-y,x-y,z
-x+y,-x,z
-x,-y,-z
y,-x+y,-z
x-y,x,-z
2/3+x,1/3+y,1/3+z
2/3-y,1/3+x-y,1/3+z
2/3-x+y,1/3-x,1/3+z
2/3-x,1/3-y,1/3-z
2/3+y,1/3-x+y,1/3-z
2/3+x-y,1/3+x,1/3-z
1/3+x,2/3+y,2/3+z
1/3-y,2/3+x-y,2/3+z
1/3-x+y,2/3-x,2/3+z
1/3-x,2/3-y,2/3-z
1/3+y,2/3-x+y,2/3-z
1/3+x-y,2/3+x,2/3-z
loop_
_atom_site_type_symbol
_atom_site_label
_atom_site_fract_x
_atom_site_fract_y
_atom_site_fract_z
Si Si1 0.596058 0.881829 0.302146
Si Si2 0.584084 0.639718 0.870082
Si Si3 0.281013 0.011842 0.797542
Si Si4 0.589903 0.755466 0.247694
Si Si5 0.091875 0.473977 0.332815
Si Si6 0.583563 0.496481 0.748442
Si Si7 0.397918 0.272448 0.379919
Si Si8 0.522980 0.594389 0.719609
O O1 0.578080 0.903059 0.381554
O O2 0.664424 0.939097 0.263771
O O3 0.597648 0.813456 0.303111
O O4 0.536261 0.873218 0.249388
O O5 0.657555 0.689194 0.835924
O O6 0.578810 0.569749 0.894706
O O7 0.531756 0.625440 0.803345
O O8 0.270074 0.051458 0.864211
O O9 0.212496 0.969430 0.752436
O O10 0.543615 0.683777 0.285173
O O11 0.573102 0.772281 0.165345
O O12 0.109308 0.548069 0.312242
O O13 0.013572 0.426761 0.309379
O O14 0.562090 0.552301 0.729048
O O15 0.441098 0.343526 0.337806
O O16 0.421741 0.218427 0.364597
#
# Coordination Sequence:
#
# PCOD9575082 Si02
#       8
#    18  18  18  18  18  18  18  18
#     4  12  21  33  54  80 109 144 184 223 270 326
#     4  11  20  33  52  79 112 141 179 217 270 324
#     4  12  19  34  56  80 116 145 174 225 273 333
#     4  11  20  31  55  78 108 143 180 223 270 321
#     4  11  21  34  52  79 112 143 182 218 279 327
#     4  10  20  36  51  77 112 146 178 223 270 327
#     4  11  21  38  56  79 112 146 182 225 277 331
#     4  10  21  37  55  77 108 149 180 227 273 329
#
# _framework density 17.584883000000001
#
# number of rings (size 3 to 8) (size 9 to 14) (size 15 to 20)
#    0.000    1.000    6.250    4.125    1.750    0.000 
#    2.250    1.875    0.000    0.750    0.000    1.750 
#    3.750    0.000    0.000    0.000    0.000    0.000 
#
# Total GULP energy -267528.860110 kJ/mol
# GULP energy per Si atom -5573.517919 kJ/mol
# Density = 1.754486 g / cm^3
# Si number density = 17.584883 Si / 1000 Ang^3
#
#
#
# Elastic Constant Matrix: (Units=GPa)
#
#
# Indices 1 2 3 4 5 6 
#
# 1 63.5982 27.5754 15.0347 5.0018 -1.6637 0.0000
# 2 27.5754 63.5982 15.0347 -5.0018 1.6637 0.0000
# 3 15.0347 15.0347 70.3856 0.0000 0.0000 0.0000
# 4 5.0018 -5.0018 0.0000 21.7067 0.0000 1.6637
# 5 -1.6637 1.6637 0.0000 0.0000 21.7067 5.0018
# 6 0.0000 0.0000 0.0000 1.6637 5.0018 18.0114
#
#
#
# Elastic Compliance Matrix: (Units=1/GPa)
#
#
# Indices 1 2 3 4 5 6 
#
# 1 0.020842 -0.009042 -0.002520 -0.006886 0.002290 0.000000
# 2 -0.009042 0.020842 -0.002520 0.006886 -0.002290 0.000000
# 3 -0.002520 -0.002520 0.015284 0.000000 0.000000 0.000000
# 4 -0.006886 0.006886 0.000000 0.049593 0.000000 -0.004581
# 5 0.002290 -0.002290 0.000000 0.000000 0.049593 -0.013772
# 6 0.000000 0.000000 0.000000 -0.004581 -0.013772 0.059768
#
#
# Mechanical properties :
#
#
# Convention : Reuss Voigt Hill
#
# Bulk Modulus (GPa) = 34.72070 34.76352 34.74211
# Shear Modulus (GPa) = 19.70915 21.61410 20.66162
#
# Velocity S-wave (km/s) = 3.35147 3.50970 3.43150
# Velocity P-wave (km/s) = 5.89610 6.01962 5.95818
#
# Compressibility (1/GPa) = 0.02880126
#
# Stress axis : x y z
#
# Youngs Moduli (GPa) = 47.98068 47.98068 65.42704
#
# Poissons Ratio (x) = 0.43386 0.16490
# Poissons Ratio (y) = 0.43386 0.16490
# Poissons Ratio (z) = 0.12093 0.12093
#
# Static dielectric constant tensor:
#      x y z
#    x 1.608930 0.000000 0.000000 
#    y 0.000000 1.608930 0.000000 
#    z 0.000000 0.000000 1.700500 
# 
# From -- ./inp_files/2817.got.cif
#   From: 2010.05.17/outbox.cif.g08.bks.cpg/sg148_2_cif.got.tgz:2817.got - 2010.05.20 13:50:20.
