data_PCOD9575153
_publ_section_title
;
Structure prediction by ZEFSAII (Michael W. Deem and Ramdas Pophale) SiO2 
 PCOD9575153
Probable space group: R -3
;
_chemical_formula_sum "Si O2"
_cell_formula_units_Z 60
_cell_length_a 15.163302
_cell_length_b 15.163302
_cell_length_c 11.114484
_cell_angle_alpha 90.000000
_cell_angle_beta 90.000000
_cell_angle_gamma 120.000000
_cell_volume 2213.132960
_symmetry_space_group_name_H-M "R -3"
_symmetry_group_IT_number 148
_symmetry_cell_setting 'hexagonal'
loop_
_space_group_symop_operation_xyz
x,y,z
-y,x-y,z
-x+y,-x,z
-x,-y,-z
y,-x+y,-z
x-y,x,-z
2/3+x,1/3+y,1/3+z
2/3-y,1/3+x-y,1/3+z
2/3-x+y,1/3-x,1/3+z
2/3-x,1/3-y,1/3-z
2/3+y,1/3-x+y,1/3-z
2/3+x-y,1/3+x,1/3-z
1/3+x,2/3+y,2/3+z
1/3-y,2/3+x-y,2/3+z
1/3-x+y,2/3-x,2/3+z
1/3-x,2/3-y,2/3-z
1/3+y,2/3-x+y,2/3-z
1/3+x-y,2/3+x,2/3-z
loop_
_atom_site_type_symbol
_atom_site_label
_atom_site_fract_x
_atom_site_fract_y
_atom_site_fract_z
Si Si1 0.432279 0.207219 0.993028
Si Si2 0.976346 0.413630 0.904661
Si Si3 0.938825 0.777684 0.974866
Si Si4 0.666668 0.333335 0.684459
O O1 0.434724 0.254424 0.861466
O O2 0.330870 0.204997 0.043176
O O3 0.549908 0.267665 0.030827
O O4 0.395574 0.087772 0.973101
O O5 0.076499 0.453586 0.822829
O O6 0.000000 0.500000 0.000000
O O7 0.861167 0.820086 0.964545
O O8 0.666668 0.333335 0.833334
#
# Coordination Sequence:
#
# PCOD9575153 Si02
#       4
#    18  18  18   6
#     4  10  22  36  70  97 138 180 230 285 352 413
#     4  10  22  40  68 102 141 177 232 286 351 420
#     4  10  24  46  72 100 139 187 239 296 353 423
#     4  12  15  39  60  96 129 180 217 285 330 420
#
# _framework density 27.110887999999999
#
# number of rings (size 3 to 8) (size 9 to 14) (size 15 to 20)
#    1.800    0.000    3.000    0.300    4.200    0.000 
#    0.000   15.000    0.000    0.000    0.000    0.000 
#    0.000    0.000    0.000    0.300    0.000    0.000 
#
# Total GULP energy -111684.527489 kJ/mol
# GULP energy per Si atom -5584.226374 kJ/mol
# Density = 2.704918 g / cm^3
# Si number density = 27.110888 Si / 1000 Ang^3
#
#
#
# Elastic Constant Matrix: (Units=GPa)
#
#
# Indices 1 2 3 4 5 6 
#
# 1 203.9501 94.1000 20.7655 -0.7352 -9.6617 0.0001
# 2 94.1000 203.9493 20.7652 0.7347 9.6617 0.0003
# 3 20.7655 20.7652 56.0306 -0.0001 0.0000 -0.0001
# 4 -0.7352 0.7347 -0.0001 26.0171 0.0000 9.6616
# 5 -9.6617 9.6617 0.0000 0.0000 26.0173 -0.7352
# 6 0.0001 0.0003 -0.0001 9.6616 -0.7352 54.9251
#
#
#
# Elastic Compliance Matrix: (Units=1/GPa)
#
#
# Indices 1 2 3 4 5 6 
#
# 1 0.006641 -0.003103 -0.001311 0.000275 0.003618 0.000000
# 2 -0.003103 0.006641 -0.001311 -0.000275 -0.003618 0.000000
# 3 -0.001311 -0.001311 0.018819 0.000000 0.000000 0.000000
# 4 0.000275 -0.000275 0.000000 0.041139 0.000000 -0.007237
# 5 0.003618 -0.003618 0.000000 0.000000 0.041139 0.000551
# 6 0.000000 0.000000 0.000000 -0.007237 0.000551 0.019487
#
#
# Mechanical properties :
#
#
# Convention : Reuss Voigt Hill
#
# Bulk Modulus (GPa) = 48.42542 81.68794 65.05668
# Shear Modulus (GPa) = 32.85167 43.27852 38.06509
#
# Velocity S-wave (km/s) = 3.48480 3.99977 3.75113
# Velocity P-wave (km/s) = 5.83888 7.17826 6.54293
#
# Compressibility (1/GPa) = 0.02065031
#
# Stress axis : x y z
#
# Youngs Moduli (GPa) = 150.58712 150.58663 53.13715
#
# Poissons Ratio (x) = 0.46725 0.06967
# Poissons Ratio (y) = 0.46725 0.06967
# Poissons Ratio (z) = 0.19744 0.19744
#
# Static dielectric constant tensor:
#      x y z
#    x 2.109150 0.000000 0.000000 
#    y 0.000000 2.109150 0.000000 
#    z 0.000000 0.000000 2.073640 
# 
# From -- ./inp_files/1837.got.cif
#   From: 2010.05.17/outbox.cif.g08.bks.cpg/sg148_1_cif.got.tgz:1837.got - 2010.05.20 13:50:20.
