data_PCOD9575740
_publ_section_title
;
Structure prediction by ZEFSAII (Michael W. Deem and Ramdas Pophale) SiO2 
 PCOD9575740
Probable space group: P 31 2 1
;
_chemical_formula_sum "Si O2"
_cell_formula_units_Z 45
_cell_length_a 15.009629
_cell_length_b 15.009629
_cell_length_c 9.966087
_cell_angle_alpha 90.000000
_cell_angle_beta 90.000000
_cell_angle_gamma 120.000000
_cell_volume 1944.443020
_symmetry_space_group_name_H-M "P 31 2 1"
_symmetry_group_IT_number 152
_symmetry_cell_setting 'hexagonal'
loop_
_space_group_symop_operation_xyz
x,y,z
-y,x-y,1/3+z
-x+y,-x,2/3+z
x-y,-y,2/3-z
-x,-x+y,1/3-z
y,x,-z
loop_
_atom_site_type_symbol
_atom_site_label
_atom_site_fract_x
_atom_site_fract_y
_atom_site_fract_z
Si Si1 0.980030 0.887945 0.323777
Si Si2 0.841309 0.698150 0.990185
Si Si3 0.803453 0.669761 0.307980
Si Si4 0.747079 0.400830 0.658923
Si Si5 0.000000 0.382873 0.666667
Si Si6 0.525326 0.356598 0.701033
Si Si7 0.429091 0.966702 0.042481
Si Si8 0.314228 0.500727 0.722907
O O1 0.080798 0.893166 0.391495
O O2 0.000000 0.878521 0.166667
O O3 0.880344 0.782773 0.368362
O O4 0.990395 0.000000 0.333334
O O5 0.817969 0.689688 0.148260
O O6 0.726793 0.646326 0.931605
O O7 0.882548 0.620804 0.960387
O O8 0.833275 0.580878 0.334418
O O9 0.683113 0.624043 0.340908
O O10 0.626410 0.361762 0.636074
O O11 0.810758 0.456610 0.527562
O O12 0.784612 0.471255 0.788856
O O13 0.749465 0.296002 0.683230
O O14 0.034092 0.457603 0.539519
O O15 0.535681 0.466643 0.668465
O O16 0.444032 0.872315 0.001334
#
# Coordination Sequence:
#
# PCOD9575740 Si02
#       8
#     6   6   6   6   3   6   6   6
#     4  10  21  42  66  92 121 161 212 273 320 365
#     4  10  20  35  65  92 115 155 211 261 312 365
#     4  10  22  39  62  94 126 159 212 259 315 380
#     4  10  22  37  58  86 131 169 204 253 313 382
#     4  10  18  34  56  90 114 152 216 264 294 350
#     4  11  22  40  59  90 131 170 205 252 324 380
#     4  11  21  35  59  89 123 164 210 255 300 376
#     4  11  20  36  59  89 126 169 210 251 310 366
#
# _framework density 23.142873000000002
#
# number of rings (size 3 to 8) (size 9 to 14) (size 15 to 20)
#    0.000    1.600    2.000    4.800    1.867    0.000 
#    0.000    3.333    0.000    0.000    0.000    0.000 
#    0.000    0.000    0.000    0.000    0.000    0.000 
#
# Total GULP energy -251307.739157 kJ/mol
# GULP energy per Si atom -5584.616426 kJ/mol
# Density = 2.309020 g / cm^3
# Si number density = 23.142873 Si / 1000 Ang^3
#
#
#
# Elastic Constant Matrix: (Units=GPa)
#
#
# Indices 1 2 3 4 5 6 
#
# 1 140.6915 68.0486 1.3254 -0.2089 0.0000 0.0000
# 2 68.0486 140.6915 1.3254 0.2089 0.0000 0.0000
# 3 1.3254 1.3254 36.0407 0.0000 0.0000 0.0000
# 4 -0.2089 0.2089 0.0000 17.9392 0.0000 0.0000
# 5 0.0000 0.0000 0.0000 0.0000 17.9392 -0.2089
# 6 0.0000 0.0000 0.0000 0.0000 -0.2089 36.3215
#
#
#
# Elastic Compliance Matrix: (Units=1/GPa)
#
#
# Indices 1 2 3 4 5 6 
#
# 1 0.009280 -0.004487 -0.000176 0.000160 0.000000 0.000000
# 2 -0.004487 0.009280 -0.000176 -0.000160 0.000000 0.000000
# 3 -0.000176 -0.000176 0.027759 0.000000 0.000000 0.000000
# 4 0.000160 -0.000160 0.000000 0.055748 0.000000 0.000000
# 5 0.000000 0.000000 0.000000 0.000000 0.055748 0.000321
# 6 0.000000 0.000000 0.000000 0.000000 0.000321 0.027534
#
#
# Mechanical properties :
#
#
# Convention : Reuss Voigt Hill
#
# Bulk Modulus (GPa) = 27.29250 50.98029 39.13640
# Shear Modulus (GPa) = 24.12654 30.88825 27.50740
#
# Velocity S-wave (km/s) = 3.23229 3.65729 3.45133
# Velocity P-wave (km/s) = 5.07434 6.31749 5.72973
#
# Compressibility (1/GPa) = 0.03664010
#
# Stress axis : x y z
#
# Youngs Moduli (GPa) = 107.75997 107.75997 36.02385
#
# Poissons Ratio (x) = 0.48352 0.00635
# Poissons Ratio (y) = 0.48352 0.00635
# Poissons Ratio (z) = 0.01899 0.01899
#
# Static dielectric constant tensor:
#      x y z
#    x 1.953100 0.000000 0.000000 
#    y 0.000000 1.953100 0.000000 
#    z 0.000000 0.000000 1.870730 
# 
# From -- ./inp_files/1888.got.cif
#   From: 2010.05.17/outbox.cif.g08.bks.cpg/sg152_1_cif.got.tgz:1888.got - 2010.05.20 10:36:06.
