data_PCOD9575613
_publ_section_title
;
Structure prediction by ZEFSAII (Michael W. Deem and Ramdas Pophale) SiO2 
 PCOD9575613
Probable space group: P 31 1 2
;
_chemical_formula_sum "Si O2"
_cell_formula_units_Z 42
_cell_length_a 10.768334
_cell_length_b 10.768334
_cell_length_c 19.801842
_cell_angle_alpha 90.000000
_cell_angle_beta 90.000000
_cell_angle_gamma 120.000000
_cell_volume 1988.535084
_symmetry_space_group_name_H-M "P 31 1 2"
_symmetry_group_IT_number 151
_symmetry_cell_setting 'hexagonal'
loop_
_space_group_symop_operation_xyz
x,y,z
-y,x-y,1/3+z
-x+y,-x,2/3+z
-y,-x,2/3-z
-x+y,y,1/3-z
x,x-y,-z
loop_
_atom_site_type_symbol
_atom_site_label
_atom_site_fract_x
_atom_site_fract_y
_atom_site_fract_z
Si Si1 0.521611 0.198920 0.822064
Si Si2 0.036598 0.769764 0.664622
Si Si3 0.367296 0.353273 0.857351
Si Si4 0.248340 0.189993 0.398699
Si Si5 0.702267 0.798339 0.123566
Si Si6 0.491354 0.527606 0.587374
Si Si7 0.709166 0.216400 0.006949
O O1 0.688413 0.311588 0.833334
O O2 0.435380 0.252504 0.868350
O O3 0.492873 0.050107 0.850869
O O4 0.476209 0.226629 0.748811
O O5 0.877496 0.754991 0.666667
O O6 0.074260 0.685543 0.721270
O O7 0.052420 0.700183 0.595348
O O8 0.151813 0.937781 0.655679
O O9 0.494810 0.505191 0.833334
O O10 0.240943 0.294655 0.802522
O O11 0.192676 0.021139 0.410040
O O12 0.242690 0.259169 0.469978
O O13 0.410953 0.254610 0.374345
O O14 0.545413 0.677417 0.096870
O O15 0.487545 0.420170 0.646635
O O16 0.652047 0.326023 0.000000
#
# Coordination Sequence:
#
# PCOD9575613 Si02
#       7
#     6   6   6   6   6   6   6
#     4  11  20  32  57  90 115 147 193 256 302 351
#     4  11  21  39  59  86 120 156 195 254 312 360
#     4  10  21  38  59  87 120 154 203 247 305 364
#     4   9  21  38  59  84 119 161 202 246 308 376
#     4   9  20  39  61  84 117 164 203 247 308 372
#     4  11  20  36  61  90 117 153 205 255 311 358
#     4  11  20  34  58  89 117 147 199 255 306 354
#
# _framework density 21.121075999999999
#
# number of rings (size 3 to 8) (size 9 to 14) (size 15 to 20)
#    0.000    1.714    2.857    3.000    2.000    1.143 
#    0.000   10.714    0.000    0.000    0.000    0.000 
#    0.000    0.000    0.000    0.000    0.000    0.000 
#
# Total GULP energy -234046.171980 kJ/mol
# GULP energy per Si atom -5572.527904 kJ/mol
# Density = 2.107300 g / cm^3
# Si number density = 21.121076 Si / 1000 Ang^3
#
#
#
# Elastic Constant Matrix: (Units=GPa)
#
#
# Indices 1 2 3 4 5 6 
#
# 1 60.9410 27.2289 5.4725 -0.0002 0.3464 0.0000
# 2 27.2289 60.9410 5.4725 0.0002 -0.3464 0.0000
# 3 5.4725 5.4725 50.3991 0.0000 0.0000 0.0000
# 4 -0.0002 0.0002 0.0000 23.1910 0.0000 -0.3464
# 5 0.3464 -0.3464 0.0000 0.0000 23.1910 -0.0002
# 6 0.0000 0.0000 0.0000 -0.3464 -0.0002 16.8561
#
#
#
# Elastic Compliance Matrix: (Units=1/GPa)
#
#
# Indices 1 2 3 4 5 6 
#
# 1 0.020584 -0.009088 -0.001248 0.000000 -0.000443 0.000000
# 2 -0.009088 0.020584 -0.001248 0.000000 0.000443 0.000000
# 3 -0.001248 -0.001248 0.020113 0.000000 0.000000 0.000000
# 4 0.000000 0.000000 0.000000 0.043133 0.000000 0.000886
# 5 -0.000443 0.000443 0.000000 0.000000 0.043133 0.000001
# 6 0.000000 0.000000 0.000000 0.000886 0.000001 0.059344
#
#
# Mechanical properties :
#
#
# Convention : Reuss Voigt Hill
#
# Bulk Modulus (GPa) = 26.23796 27.62544 26.93170
# Shear Modulus (GPa) = 20.59601 21.58808 21.09205
#
# Velocity S-wave (km/s) = 3.12611 3.20052 3.16353
# Velocity P-wave (km/s) = 5.04774 5.17356 5.11104
#
# Compressibility (1/GPa) = 0.03811272
#
# Stress axis : x y z
#
# Youngs Moduli (GPa) = 48.58055 48.58055 49.71973
#
# Poissons Ratio (x) = 0.44148 0.06207
# Poissons Ratio (y) = 0.44148 0.06207
# Poissons Ratio (z) = 0.06065 0.06065
#
# Static dielectric constant tensor:
#      x y z
#    x 1.764150 0.000000 0.000000 
#    y 0.000000 1.764150 0.000000 
#    z 0.000000 0.000000 1.848610 
# 
# From -- ./inp_files/3940.got.cif
#   From: 2010.05.17/outbox.cif.g08.bks.cpg/sg151_2_cif.got.tgz:3940.got - 2010.05.20 10:33:20.
