data_PCOD9575399
_publ_section_title
;
Structure prediction by ZEFSAII (Michael W. Deem and Ramdas Pophale) SiO2 
 PCOD9575399
Probable space group: P 3 2 1
;
_chemical_formula_sum "Si O2"
_cell_formula_units_Z 30
_cell_length_a 15.377460
_cell_length_b 15.377460
_cell_length_c 5.666666
_cell_angle_alpha 90.000000
_cell_angle_beta 90.000000
_cell_angle_gamma 120.000000
_cell_volume 1160.452743
_symmetry_space_group_name_H-M "P 3 2 1"
_symmetry_group_IT_number 150
_symmetry_cell_setting 'hexagonal'
loop_
_space_group_symop_operation_xyz
x,y,z
-y,x-y,z
-x+y,-x,z
x-y,-y,-z
-x,-x+y,-z
y,x,-z
loop_
_atom_site_type_symbol
_atom_site_label
_atom_site_fract_x
_atom_site_fract_y
_atom_site_fract_z
Si Si1 0.797902 0.497076 0.750000
Si Si2 0.736386 0.752451 0.750000
Si Si3 0.450448 0.241683 0.250000
Si Si4 0.717496 0.992506 0.250000
Si Si5 0.053887 0.472331 0.250000
O O1 0.751772 0.488264 0.490723
O O2 0.848611 0.428500 0.750000
O O3 0.888831 0.613676 0.750000
O O4 0.751772 0.488264 0.009277
O O5 0.790458 0.790458 0.500000
O O6 0.639622 0.766600 0.750000
O O7 0.689232 0.630881 0.750000
O O8 0.790459 0.790459 0.000000
O O9 0.389708 0.303452 0.250000
O O10 0.769627 0.000000 0.500000
O O11 0.769627 0.000000 0.000000
O O12 0.000000 0.465990 0.500000
O O13 0.000000 0.465990 0.000000
#
# Coordination Sequence:
#
# PCOD9575399 Si02
#       5
#     6   6   6   6   6
#     4  10  17  28  48  74 100 119 168 222 274 315
#     4  10  21  34  47  68 107 141 175 209 265 354
#     4  10  18  29  46  69 101 130 162 207 269 329
#     4   8  14  23  39  64  92 114 145 197 251 300
#     4  10  18  30  48  71 104 130 172 223 273 328
#
# _framework density 25.851980000000001
#
# number of rings (size 3 to 8) (size 9 to 14) (size 15 to 20)
#    0.000    2.400    0.000    6.000    0.000    0.000 
#    0.000    0.000    0.000    0.000    0.000    0.000 
#  490.000    0.000    0.000  324.000    0.000    0.000 
#
# Total GULP energy -167622.308795 kJ/mol
# GULP energy per Si atom -5587.410293 kJ/mol
# Density = 2.579314 g / cm^3
# Si number density = 25.851980 Si / 1000 Ang^3
#
#
#
# Elastic Constant Matrix: (Units=GPa)
#
#
# Indices 1 2 3 4 5 6 
#
# 1 74.4944 10.9894 34.8143 0.0000 0.0000 0.0000
# 2 10.9894 74.4944 34.8143 0.0000 0.0000 0.0000
# 3 34.8143 34.8143 368.6549 0.0000 0.0000 0.0000
# 4 0.0000 0.0000 0.0000 26.0004 0.0000 0.0000
# 5 0.0000 0.0000 0.0000 0.0000 26.0004 0.0000
# 6 0.0000 0.0000 0.0000 0.0000 0.0000 31.7525
#
#
#
# Elastic Compliance Matrix: (Units=1/GPa)
#
#
# Indices 1 2 3 4 5 6 
#
# 1 0.014210 -0.001537 -0.001197 0.000000 0.000000 0.000000
# 2 -0.001537 0.014210 -0.001197 0.000000 0.000000 0.000000
# 3 -0.001197 -0.001197 0.002939 0.000000 0.000000 0.000000
# 4 0.000000 0.000000 0.000000 0.038461 0.000000 0.000000
# 5 0.000000 0.000000 0.000000 0.000000 0.038461 0.000000
# 6 0.000000 0.000000 0.000000 0.000000 0.000000 0.031494
#
#
# Mechanical properties :
#
#
# Convention : Reuss Voigt Hill
#
# Bulk Modulus (GPa) = 42.55802 75.43109 58.99455
# Shear Modulus (GPa) = 32.16112 45.88571 39.02341
#
# Velocity S-wave (km/s) = 3.53093 4.21757 3.88944
# Velocity P-wave (km/s) = 5.75511 7.27727 6.56048
#
# Compressibility (1/GPa) = 0.02349734
#
# Stress axis : x y z
#
# Youngs Moduli (GPa) = 70.37370 70.37370 340.29773
#
# Poissons Ratio (x) = 0.10816 0.40726
# Poissons Ratio (y) = 0.10816 0.40726
# Poissons Ratio (z) = 0.08422 0.08422
#
# Static dielectric constant tensor:
#      x y z
#    x 2.051670 0.000000 0.000000 
#    y 0.000000 2.051670 0.000000 
#    z 0.000000 0.000000 2.127050 
# 
# From -- ./inp_files/186.got.cif
#   From: 2010.05.17/outbox.cif.g08.bks.cpg/sg150_cif.got.tgz:186.got - 2010.05.20 13:53:18.
