data_PCOD9575963
_publ_section_title
;
Structure prediction by ZEFSAII (Michael W. Deem and Ramdas Pophale) SiO2 
 PCOD9575963
Probable space group: P 31 2 1
;
_chemical_formula_sum "Si O2"
_cell_formula_units_Z 42
_cell_length_a 8.884025
_cell_length_b 8.884025
_cell_length_c 27.884441
_cell_angle_alpha 90.000000
_cell_angle_beta 90.000000
_cell_angle_gamma 120.000000
_cell_volume 1905.952699
_symmetry_space_group_name_H-M "P 31 2 1"
_symmetry_group_IT_number 152
_symmetry_cell_setting 'hexagonal'
loop_
_space_group_symop_operation_xyz
x,y,z
-y,x-y,1/3+z
-x+y,-x,2/3+z
x-y,-y,2/3-z
-x,-x+y,1/3-z
y,x,-z
loop_
_atom_site_type_symbol
_atom_site_label
_atom_site_fract_x
_atom_site_fract_y
_atom_site_fract_z
Si Si1 0.580119 0.306682 0.284405
Si Si2 0.427044 0.078311 0.202801
Si Si3 0.374998 0.686946 0.859898
Si Si4 0.827797 0.137451 0.290425
Si Si5 0.255562 0.394141 0.439750
Si Si6 0.856559 0.933226 0.202177
Si Si7 0.879705 0.396613 0.050471
O O1 0.420359 0.162527 0.253355
O O2 0.699887 0.217482 0.289568
O O3 0.675492 0.483688 0.252771
O O4 0.560640 0.368595 0.336322
O O5 0.604139 0.214851 0.176645
O O6 0.292527 0.085180 0.165607
O O7 0.414503 0.892414 0.207673
O O8 0.525637 0.831552 0.826265
O O9 0.311504 0.735499 0.908114
O O10 0.017996 0.311286 0.293766
O O11 0.776461 0.000000 0.333334
O O12 0.811780 0.032155 0.242072
O O13 0.421888 0.432291 0.409272
O O14 0.111639 0.192190 0.440098
O O15 0.000000 0.070382 0.166667
#
# Coordination Sequence:
#
# PCOD9575963 Si02
#       7
#     6   6   6   6   6   6   6
#     4  10  23  41  67  98 131 176 220 274 339 404
#     4  10  22  40  65 103 135 172 226 287 330 407
#     4  10  21  39  67  96 133 176 223 279 336 401
#     4  11  26  45  66  96 141 173 225 284 339 402
#     4   9  20  43  66  94 136 169 219 274 334 396
#     4  11  23  43  67  96 134 178 222 280 339 397
#     4  11  23  42  70  94 131 184 224 270 347 416
#
# _framework density 22.036223
#
# number of rings (size 3 to 8) (size 9 to 14) (size 15 to 20)
#    0.000    1.714    0.000    3.857    4.000    4.571 
#   12.857    0.000    0.000    0.000    0.000    0.000 
#    0.000    0.000    0.000    0.000    0.000    0.000 
#
# Total GULP energy -234392.019954 kJ/mol
# GULP energy per Si atom -5580.762380 kJ/mol
# Density = 2.198607 g / cm^3
# Si number density = 22.036223 Si / 1000 Ang^3
#
#
#
# Elastic Constant Matrix: (Units=GPa)
#
#
# Indices 1 2 3 4 5 6 
#
# 1 65.3729 37.6330 45.5842 -0.7210 0.0002 0.0000
# 2 37.6330 65.3729 45.5842 0.7210 -0.0002 0.0000
# 3 45.5842 45.5842 151.2128 0.0000 0.0000 0.0000
# 4 -0.7210 0.7210 0.0000 32.0619 0.0000 -0.0002
# 5 0.0002 -0.0002 0.0000 0.0000 32.0619 -0.7210
# 6 0.0000 0.0000 0.0000 -0.0002 -0.7210 13.8700
#
#
#
# Elastic Compliance Matrix: (Units=1/GPa)
#
#
# Indices 1 2 3 4 5 6 
#
# 1 0.024666 -0.011425 -0.003992 0.000812 0.000000 0.000000
# 2 -0.011425 0.024666 -0.003992 -0.000812 0.000000 0.000000
# 3 -0.003992 -0.003992 0.009020 0.000000 0.000000 0.000000
# 4 0.000812 -0.000812 0.000000 0.031226 0.000000 0.000000
# 5 0.000000 0.000000 0.000000 0.000000 0.031226 0.001623
# 6 0.000000 0.000000 0.000000 0.000000 0.001623 0.072183
#
#
# Mechanical properties :
#
#
# Convention : Reuss Voigt Hill
#
# Bulk Modulus (GPa) = 51.18886 59.95123 55.57005
# Shear Modulus (GPa) = 20.98057 25.80924 23.39491
#
# Velocity S-wave (km/s) = 3.08895 3.42602 3.26184
# Velocity P-wave (km/s) = 6.00017 6.55095 6.28160
#
# Compressibility (1/GPa) = 0.01953550
#
# Stress axis : x y z
#
# Youngs Moduli (GPa) = 40.54129 40.54129 110.86714
#
# Poissons Ratio (x) = 0.46319 0.44254
# Poissons Ratio (y) = 0.46319 0.44254
# Poissons Ratio (z) = 0.16183 0.16183
#
# Static dielectric constant tensor:
#      x y z
#    x 1.874380 0.000000 0.000000 
#    y 0.000000 1.874380 0.000000 
#    z 0.000000 0.000000 1.804730 
# 
# From -- ./inp_files/3710.got.cif
#   From: 2010.05.17/outbox.cif.g08.bks.cpg/sg152_2_cif.got.tgz:3710.got - 2010.05.20 10:36:06.
