data_PCOD9575878
_publ_section_title
;
Structure prediction by ZEFSAII (Michael W. Deem and Ramdas Pophale) SiO2 
 PCOD9575878
Probable space group: P 31 2 1
;
_chemical_formula_sum "Si O2"
_cell_formula_units_Z 42
_cell_length_a 8.374652
_cell_length_b 8.374652
_cell_length_c 31.597204
_cell_angle_alpha 90.000000
_cell_angle_beta 90.000000
_cell_angle_gamma 120.000000
_cell_volume 1919.167253
_symmetry_space_group_name_H-M "P 31 2 1"
_symmetry_group_IT_number 152
_symmetry_cell_setting 'hexagonal'
loop_
_space_group_symop_operation_xyz
x,y,z
-y,x-y,1/3+z
-x+y,-x,2/3+z
x-y,-y,2/3-z
-x,-x+y,1/3-z
y,x,-z
loop_
_atom_site_type_symbol
_atom_site_label
_atom_site_fract_x
_atom_site_fract_y
_atom_site_fract_z
Si Si1 0.484226 0.172404 0.614710
Si Si2 0.310522 0.205946 0.843599
Si Si3 0.681352 0.191288 0.856499
Si Si4 0.825431 0.820967 0.353714
Si Si5 0.552457 0.860912 0.582781
Si Si6 0.853287 0.455849 0.779191
Si Si7 0.117534 0.608151 0.705859
O O1 0.442037 0.231332 0.569214
O O2 0.322017 0.080690 0.648230
O O3 0.667383 0.348314 0.631937
O O4 0.543600 0.022726 0.605942
O O5 0.490824 0.200008 0.861675
O O6 0.380994 0.299236 0.798215
O O7 0.260623 0.333560 0.871940
O O8 0.152325 0.000000 0.833334
O O9 0.816378 0.343217 0.822676
O O10 0.618856 0.000000 0.833334
O O11 0.831903 0.702563 0.392825
O O12 0.688290 0.892301 0.369788
O O13 0.000074 0.000000 0.333334
O O14 0.341093 0.694082 0.578784
O O15 0.018756 0.489245 0.747815
O O16 0.000000 0.485874 0.666667
#
# Coordination Sequence:
#
# PCOD9575878 Si02
#       7
#     6   6   6   6   6   6   6
#     4  12  23  43  66  98 140 174 231 289 349 419
#     4  10  20  39  68  97 133 180 229 280 340 417
#     4  10  23  42  66 102 137 185 224 283 353 417
#     4  11  25  47  67  96 133 185 238 289 348 418
#     4  11  24  41  66  99 136 177 227 286 348 412
#     4  11  21  42  72 100 139 178 234 290 348 429
#     4  11  24  44  70  96 130 183 236 285 355 419
#
# _framework density 21.884494
#
# number of rings (size 3 to 8) (size 9 to 14) (size 15 to 20)
#    0.000    1.143    2.857    4.286    4.000    0.571 
#    5.143    0.714    0.000    0.000    0.000    0.000 
#    0.000    0.000    0.000    0.000    0.000    0.000 
#
# Total GULP energy -234480.510670 kJ/mol
# GULP energy per Si atom -5582.869302 kJ/mol
# Density = 2.183468 g / cm^3
# Si number density = 21.884494 Si / 1000 Ang^3
#
#
#
# Elastic Constant Matrix: (Units=GPa)
#
#
# Indices 1 2 3 4 5 6 
#
# 1 45.1023 30.0575 17.5144 -4.3153 0.0006 0.0000
# 2 30.0575 45.1023 17.5144 4.3153 -0.0006 0.0000
# 3 17.5144 17.5144 61.3985 0.0000 0.0000 0.0000
# 4 -4.3153 4.3153 0.0000 28.9605 0.0000 -0.0006
# 5 0.0006 -0.0006 0.0000 0.0000 28.9605 -4.3153
# 6 0.0000 0.0000 0.0000 -0.0006 -4.3153 7.5224
#
#
#
# Elastic Compliance Matrix: (Units=1/GPa)
#
#
# Indices 1 2 3 4 5 6 
#
# 1 0.044013 -0.028668 -0.004377 0.010830 -0.000001 0.000000
# 2 -0.028668 0.044013 -0.004377 -0.010830 0.000001 0.000000
# 3 -0.004377 -0.004377 0.018784 0.000000 0.000000 0.000000
# 4 0.010830 -0.010830 0.000000 0.037757 0.000000 0.000003
# 5 -0.000001 0.000001 0.000000 0.000000 0.037757 0.021660
# 6 0.000000 0.000000 0.000000 0.000003 0.021660 0.145362
#
#
# Mechanical properties :
#
#
# Convention : Reuss Voigt Hill
#
# Bulk Modulus (GPa) = 31.28393 31.30841 31.29617
# Shear Modulus (GPa) = 12.10107 18.85647 15.47877
#
# Velocity S-wave (km/s) = 2.35404 2.93855 2.66239
# Velocity P-wave (km/s) = 4.65991 5.08436 4.87675
#
# Compressibility (1/GPa) = 0.03196529
#
# Stress axis : x y z
#
# Youngs Moduli (GPa) = 22.72058 22.72058 53.23575
#
# Poissons Ratio (x) = 0.65135 0.23303
# Poissons Ratio (y) = 0.65135 0.23303
# Poissons Ratio (z) = 0.09945 0.09945
#
# Static dielectric constant tensor:
#      x y z
#    x 1.924690 0.000000 0.000000 
#    y 0.000000 1.924690 0.000000 
#    z 0.000000 0.000000 1.819500 
# 
# From -- ./inp_files/3706.got.cif
#   From: 2010.05.17/outbox.cif.g08.bks.cpg/sg152_2_cif.got.tgz:3706.got - 2010.05.20 10:36:06.
