data_PCOD9575908
_publ_section_title
;
Structure prediction by ZEFSAII (Michael W. Deem and Ramdas Pophale) SiO2 
 PCOD9575908
Probable space group: P 31 2 1
;
_chemical_formula_sum "Si O2"
_cell_formula_units_Z 42
_cell_length_a 7.896840
_cell_length_b 7.896840
_cell_length_c 29.525201
_cell_angle_alpha 90.000000
_cell_angle_beta 90.000000
_cell_angle_gamma 120.000000
_cell_volume 1594.520738
_symmetry_space_group_name_H-M "P 31 2 1"
_symmetry_group_IT_number 152
_symmetry_cell_setting 'hexagonal'
loop_
_space_group_symop_operation_xyz
x,y,z
-y,x-y,1/3+z
-x+y,-x,2/3+z
x-y,-y,2/3-z
-x,-x+y,1/3-z
y,x,-z
loop_
_atom_site_type_symbol
_atom_site_label
_atom_site_fract_x
_atom_site_fract_y
_atom_site_fract_z
Si Si1 0.231792 0.466087 0.924839
Si Si2 0.978659 0.975887 0.719098
Si Si3 0.794683 0.000000 0.833334
Si Si4 0.511150 0.191709 0.800353
Si Si5 0.000000 0.432459 0.666667
Si Si6 0.360657 0.395896 0.406125
Si Si7 0.541695 0.372266 0.279228
Si Si8 0.716374 0.914905 0.125766
O O1 0.120600 0.230032 0.920929
O O2 0.314859 0.601603 0.879319
O O3 0.404404 0.511550 0.960354
O O4 0.053707 0.499378 0.943933
O O5 0.818606 0.047089 0.719325
O O6 0.000000 0.937623 0.666667
O O7 0.155157 0.138575 0.748516
O O8 0.730011 0.074931 0.876509
O O9 0.996841 0.181765 0.817675
O O10 0.371142 0.271794 0.816114
O O11 0.427499 0.000000 0.833334
O O12 0.508585 0.095609 0.750688
O O13 0.185180 0.430910 0.689147
O O14 0.305975 0.534886 0.379288
O O15 0.494226 0.279509 0.228863
#
# Coordination Sequence:
#
# PCOD9575908 Si02
#       8
#     6   6   3   6   3   6   6   6
#     4  10  25  46  67 105 145 188 259 301 387 469
#     4  10  22  43  68  98 140 189 235 307 373 455
#     4  10  20  44  64  98 136 192 242 308 376 452
#     4  11  23  44  67 101 143 186 240 321 374 450
#     4  12  26  44  80 106 154 200 254 318 394 470
#     4  10  23  42  68  99 144 180 245 309 378 449
#     4  10  26  46  66 111 143 195 245 310 376 470
#     4  10  23  43  69 100 139 189 252 292 389 455
#
# _framework density 26.340199999999999
#
# number of rings (size 3 to 8) (size 9 to 14) (size 15 to 20)
#    0.000    1.714    2.143    0.000    7.000    5.714 
#   10.286    0.000    0.000    0.000    0.000    0.000 
#    0.000    0.000    0.000    0.000    0.000    0.000 
#
# Total GULP energy -233931.154546 kJ/mol
# GULP energy per Si atom -5569.789394 kJ/mol
# Density = 2.628025 g / cm^3
# Si number density = 26.340200 Si / 1000 Ang^3
#
#
#
# Elastic Constant Matrix: (Units=GPa)
#
#
# Indices 1 2 3 4 5 6 
#
# 1 69.8428 -1.2049 -3.9736 6.8565 -0.0001 0.0000
# 2 -1.2049 69.8428 -3.9736 -6.8565 0.0001 0.0000
# 3 -3.9736 -3.9736 64.7640 0.0000 0.0000 0.0000
# 4 6.8565 -6.8565 0.0000 72.3337 0.0000 0.0001
# 5 -0.0001 0.0001 0.0000 0.0000 72.3337 6.8565
# 6 0.0000 0.0000 0.0000 0.0001 6.8565 35.5239
#
#
#
# Elastic Compliance Matrix: (Units=1/GPa)
#
#
# Indices 1 2 3 4 5 6 
#
# 1 0.014505 0.000168 0.000900 -0.001359 0.000000 0.000000
# 2 0.000168 0.014505 0.000900 0.001359 0.000000 0.000000
# 3 0.000900 0.000900 0.015551 0.000000 0.000000 0.000000
# 4 -0.001359 0.001359 0.000000 0.014082 0.000000 0.000000
# 5 0.000000 0.000000 0.000000 0.000000 0.014082 -0.002718
# 6 0.000000 0.000000 0.000000 0.000000 -0.002718 0.028675
#
#
# Mechanical properties :
#
#
# Convention : Reuss Voigt Hill
#
# Bulk Modulus (GPa) = 20.61893 20.68286 20.65089
# Shear Modulus (GPa) = 44.00218 50.27835 47.14026
#
# Velocity S-wave (km/s) = 4.09165 4.37373 4.23504
# Velocity P-wave (km/s) = 5.49245 5.77713 5.63659
#
# Compressibility (1/GPa) = 0.04849913
#
# Stress axis : x y z
#
# Youngs Moduli (GPa) = 68.93988 68.93988 64.30394
#
# Poissons Ratio (x) = -0.01158 -0.05789
# Poissons Ratio (y) = -0.01158 -0.05789
# Poissons Ratio (z) = -0.06207 -0.06207
#
# Static dielectric constant tensor:
#      x y z
#    x 2.136570 0.000000 0.000000 
#    y 0.000000 2.136570 0.000000 
#    z 0.000000 0.000000 2.170770 
# 
# From -- ./inp_files/3769.got.cif
#   From: 2010.05.17/outbox.cif.g08.bks.cpg/sg152_2_cif.got.tgz:3769.got - 2010.05.20 10:36:06.
