data_PCOD9575742
_publ_section_title
;
Structure prediction by ZEFSAII (Michael W. Deem and Ramdas Pophale) SiO2 
 PCOD9575742
Probable space group: P 31 2 1
;
_chemical_formula_sum "Si O2"
_cell_formula_units_Z 39
_cell_length_a 13.814437
_cell_length_b 13.814437
_cell_length_c 9.605796
_cell_angle_alpha 90.000000
_cell_angle_beta 90.000000
_cell_angle_gamma 120.000000
_cell_volume 1587.560816
_symmetry_space_group_name_H-M "P 31 2 1"
_symmetry_group_IT_number 152
_symmetry_cell_setting 'hexagonal'
loop_
_space_group_symop_operation_xyz
x,y,z
-y,x-y,1/3+z
-x+y,-x,2/3+z
x-y,-y,2/3-z
-x,-x+y,1/3-z
y,x,-z
loop_
_atom_site_type_symbol
_atom_site_label
_atom_site_fract_x
_atom_site_fract_y
_atom_site_fract_z
Si Si1 0.323877 0.513224 0.792729
Si Si2 0.584776 0.346473 0.498321
Si Si3 0.741023 0.022946 0.526304
Si Si4 0.177916 0.704029 0.880997
Si Si5 0.203920 0.985971 0.502179
Si Si6 0.927479 0.377644 0.530097
Si Si7 0.789230 0.000000 0.833334
O O1 0.376809 0.631823 0.868553
O O2 0.375839 0.540079 0.638799
O O3 0.321910 0.408974 0.863250
O O4 0.193133 0.466205 0.768043
O O5 0.496383 0.291581 0.621071
O O6 0.703905 0.456735 0.532147
O O7 0.867850 0.090530 0.472708
O O8 0.654702 0.892781 0.504784
O O9 0.748996 0.035289 0.695429
O O10 0.104168 0.569372 0.865475
O O11 0.315088 0.983735 0.551815
O O12 0.216908 0.000000 0.333334
O O13 0.196236 0.092475 0.549257
O O14 0.000000 0.429875 0.666667
#
# Coordination Sequence:
#
# PCOD9575742 Si02
#       7
#     6   6   6   6   6   6   3
#     4   9  18  32  53  76 104 143 180 226 264 336
#     4   9  19  35  51  74 114 148 174 214 297 324
#     4  10  19  32  55  84 103 137 192 224 275 332
#     4  10  20  34  54  79 115 144 177 229 271 350
#     4   8  17  34  55  78 100 134 190 231 262 314
#     4   9  18  32  53  81 104 137 185 226 269 314
#     4  10  18  34  60  76 108 140 184 238 272 318
#
# _framework density 24.565987
#
# number of rings (size 3 to 8) (size 9 to 14) (size 15 to 20)
#    0.000    2.769    0.000    1.846    2.154    0.000 
#    5.538    0.000   10.154    0.000    0.000    0.000 
#    0.000    0.000    0.000    0.000    0.000    0.000 
#
# Total GULP energy -217678.676473 kJ/mol
# GULP energy per Si atom -5581.504525 kJ/mol
# Density = 2.451007 g / cm^3
# Si number density = 24.565987 Si / 1000 Ang^3
#
#
#
# Elastic Constant Matrix: (Units=GPa)
#
#
# Indices 1 2 3 4 5 6 
#
# 1 103.2606 34.2962 -3.0346 6.3490 0.0000 0.0000
# 2 34.2962 103.2606 -3.0346 -6.3490 0.0000 0.0000
# 3 -3.0346 -3.0346 59.5512 0.0000 0.0000 0.0000
# 4 6.3490 -6.3490 0.0000 16.8450 0.0000 0.0000
# 5 0.0000 0.0000 0.0000 0.0000 16.8450 6.3490
# 6 0.0000 0.0000 0.0000 0.0000 6.3490 34.4822
#
#
#
# Elastic Compliance Matrix: (Units=1/GPa)
#
#
# Indices 1 2 3 4 5 6 
#
# 1 0.011434 -0.004148 0.000371 -0.005873 0.000000 0.000000
# 2 -0.004148 0.011434 0.000371 0.005873 0.000000 0.000000
# 3 0.000371 0.000371 0.016830 0.000000 0.000000 0.000000
# 4 -0.005873 0.005873 0.000000 0.063792 0.000000 0.000000
# 5 0.000000 0.000000 0.000000 0.000000 0.063792 -0.011746
# 6 0.000000 0.000000 0.000000 0.000000 -0.011746 0.031163
#
#
# Mechanical properties :
#
#
# Convention : Reuss Voigt Hill
#
# Bulk Modulus (GPa) = 30.40674 35.83627 33.12150
# Shear Modulus (GPa) = 23.12487 29.49078 26.30783
#
# Velocity S-wave (km/s) = 3.07145 3.46854 3.27602
# Velocity P-wave (km/s) = 4.99828 5.53719 5.27462
#
# Compressibility (1/GPa) = 0.03288745
#
# Stress axis : x y z
#
# Youngs Moduli (GPa) = 87.45974 87.45974 59.41734
#
# Poissons Ratio (x) = 0.36276 -0.02206
# Poissons Ratio (y) = 0.36276 -0.02206
# Poissons Ratio (z) = -0.03247 -0.03247
#
# Static dielectric constant tensor:
#      x y z
#    x 1.983940 0.000000 0.000000 
#    y 0.000000 1.983940 0.000000 
#    z 0.000000 0.000000 1.957770 
# 
# From -- ./inp_files/1771.got.cif
#   From: 2010.05.17/outbox.cif.g08.bks.cpg/sg152_1_cif.got.tgz:1771.got - 2010.05.20 10:36:06.
