data_PCOD9575230
_publ_section_title
;
Structure prediction by ZEFSAII (Michael W. Deem and Ramdas Pophale) SiO2 
 PCOD9575230
Probable space group: R -3
;
_chemical_formula_sum "Si O2"
_cell_formula_units_Z 54
_cell_length_a 16.234822
_cell_length_b 16.234822
_cell_length_c 10.281055
_cell_angle_alpha 90.000000
_cell_angle_beta 90.000000
_cell_angle_gamma 120.000000
_cell_volume 2346.731359
_symmetry_space_group_name_H-M "R -3"
_symmetry_group_IT_number 148
_symmetry_cell_setting 'hexagonal'
loop_
_space_group_symop_operation_xyz
x,y,z
-y,x-y,z
-x+y,-x,z
-x,-y,-z
y,-x+y,-z
x-y,x,-z
2/3+x,1/3+y,1/3+z
2/3-y,1/3+x-y,1/3+z
2/3-x+y,1/3-x,1/3+z
2/3-x,1/3-y,1/3-z
2/3+y,1/3-x+y,1/3-z
2/3+x-y,1/3+x,1/3-z
1/3+x,2/3+y,2/3+z
1/3-y,2/3+x-y,2/3+z
1/3-x+y,2/3-x,2/3+z
1/3-x,2/3-y,2/3-z
1/3+y,2/3-x+y,2/3-z
1/3+x-y,2/3+x,2/3-z
loop_
_atom_site_type_symbol
_atom_site_label
_atom_site_fract_x
_atom_site_fract_y
_atom_site_fract_z
Si Si1 0.105828 0.385003 0.967626
Si Si2 0.855985 0.345299 0.358301
Si Si3 0.531062 0.409164 0.840006
O O1 0.149296 0.430076 0.830766
O O2 0.021885 0.278053 0.955506
O O3 0.077109 0.454279 0.044767
O O4 0.186565 0.387405 0.062711
O O5 0.755361 0.250007 0.379285
O O6 0.640883 0.466214 0.887029
#
# Coordination Sequence:
#
# PCOD9575230 Si02
#       3
#    18  18  18
#     4  10  25  45  75 108 150 188 254 294 378 423
#     4  12  29  49  74 108 154 197 242 309 367 447
#     4   8  19  39  72 110 141 189 234 313 346 447
#
# _framework density 23.010729999999999
#
# number of rings (size 3 to 8) (size 9 to 14) (size 15 to 20)
#    2.000    0.000    0.000    1.667    9.333    1.333 
#    0.000    0.000    0.000    0.000    0.000    0.000 
#    0.000    0.000    0.000    0.000    0.000    0.000 
#
# Total GULP energy -100474.128634 kJ/mol
# GULP energy per Si atom -5581.896035 kJ/mol
# Density = 2.295836 g / cm^3
# Si number density = 23.010730 Si / 1000 Ang^3
#
#
#
# Elastic Constant Matrix: (Units=GPa)
#
#
# Indices 1 2 3 4 5 6 
#
# 1 69.5052 11.1990 3.0275 -1.9101 -8.7675 0.0000
# 2 11.1990 69.5052 3.0275 1.9101 8.7675 0.0000
# 3 3.0275 3.0275 47.1132 0.0000 0.0000 0.0000
# 4 -1.9101 1.9101 0.0000 24.0870 0.0000 8.7675
# 5 -8.7675 8.7675 0.0000 0.0000 24.0870 -1.9101
# 6 0.0000 0.0000 0.0000 8.7675 -1.9101 29.1531
#
#
#
# Elastic Compliance Matrix: (Units=1/GPa)
#
#
# Indices 1 2 3 4 5 6 
#
# 1 0.015912 -0.003461 -0.000800 0.001536 0.007051 0.000000
# 2 -0.003461 0.015912 -0.000800 -0.001536 -0.007051 0.000000
# 3 -0.000800 -0.000800 0.021328 0.000000 0.000000 0.000000
# 4 0.001536 -0.001536 0.000000 0.046893 0.000000 -0.014103
# 5 0.007051 -0.007051 0.000000 0.000000 0.046893 0.003072
# 6 0.000000 0.000000 0.000000 -0.014103 0.003072 0.038744
#
#
# Mechanical properties :
#
#
# Convention : Reuss Voigt Hill
#
# Bulk Modulus (GPa) = 23.23968 24.51462 23.87715
# Shear Modulus (GPa) = 23.79288 26.72336 25.25812
#
# Velocity S-wave (km/s) = 3.21906 3.41155 3.31670
# Velocity P-wave (km/s) = 4.89264 5.11809 5.00663
#
# Compressibility (1/GPa) = 0.04302985
#
# Stress axis : x y z
#
# Youngs Moduli (GPa) = 62.84747 62.84747 46.88601
#
# Poissons Ratio (x) = 0.21749 0.03751
# Poissons Ratio (y) = 0.21749 0.03751
# Poissons Ratio (z) = 0.05028 0.05028
#
# Static dielectric constant tensor:
#      x y z
#    x 1.894880 0.000000 0.000000 
#    y 0.000000 1.894880 0.000000 
#    z 0.000000 0.000000 1.808150 
# 
# From -- ./inp_files/1798.got.cif
#   From: 2010.05.17/outbox.cif.g08.bks.cpg/sg148_1_cif.got.tgz:1798.got - 2010.05.20 13:50:20.
