data_PCOD9575302
_publ_section_title
;
Structure prediction by ZEFSAII (Michael W. Deem and Ramdas Pophale) SiO2 
 PCOD9575302
Probable space group: R -3
;
_chemical_formula_sum "Si O2"
_cell_formula_units_Z 72
_cell_length_a 11.740609
_cell_length_b 11.740609
_cell_length_c 26.069877
_cell_angle_alpha 90.000000
_cell_angle_beta 90.000000
_cell_angle_gamma 120.000000
_cell_volume 3112.080796
_symmetry_space_group_name_H-M "R -3"
_symmetry_group_IT_number 148
_symmetry_cell_setting 'hexagonal'
loop_
_space_group_symop_operation_xyz
x,y,z
-y,x-y,z
-x+y,-x,z
-x,-y,-z
y,-x+y,-z
x-y,x,-z
2/3+x,1/3+y,1/3+z
2/3-y,1/3+x-y,1/3+z
2/3-x+y,1/3-x,1/3+z
2/3-x,1/3-y,1/3-z
2/3+y,1/3-x+y,1/3-z
2/3+x-y,1/3+x,1/3-z
1/3+x,2/3+y,2/3+z
1/3-y,2/3+x-y,2/3+z
1/3-x+y,2/3-x,2/3+z
1/3-x,2/3-y,2/3-z
1/3+y,2/3-x+y,2/3-z
1/3+x-y,2/3+x,2/3-z
loop_
_atom_site_type_symbol
_atom_site_label
_atom_site_fract_x
_atom_site_fract_y
_atom_site_fract_z
Si Si1 0.278713 0.205768 0.890817
Si Si2 0.366954 0.426268 0.113551
Si Si3 0.066248 0.599642 0.953472
Si Si4 0.000000 0.000000 0.561294
Si Si5 0.666668 0.333334 0.481125
Si Si6 0.333334 0.666668 0.938071
O O1 0.314046 0.091683 0.902585
O O2 0.370431 0.284129 0.841467
O O3 0.321036 0.316127 0.934504
O O4 0.127797 0.131522 0.873173
O O5 0.499544 0.441311 0.091262
O O6 0.368792 0.556429 0.092224
O O7 0.220969 0.693679 0.960327
O O8 0.000000 0.500000 0.000000
O O9 0.000000 0.000000 0.500000
O O10 0.666668 0.333334 0.542834
#
# Coordination Sequence:
#
# PCOD9575302 Si02
#       6
#    18  18  18   6   6   6
#     4  12  24  44  72 108 141 195 249 306 364 447
#     4  12  20  39  71 101 140 185 246 299 362 429
#     4  12  29  45  70 108 152 193 240 313 379 438
#     4  12  15  31  65 109 126 171 232 296 352 408
#     4  12  27  45  76 107 148 196 251 307 369 451
#     4  12  27  49  70 111 149 194 258 307 367 442
#
# _framework density 23.135645
#
# number of rings (size 3 to 8) (size 9 to 14) (size 15 to 20)
#    0.000    0.000   10.000    0.000    7.000    2.000 
#    0.000    0.000    0.000    1.500    0.000    0.000 
#    0.000    0.000    0.000    0.000    0.000    0.000 
#
# Total GULP energy -134088.348398 kJ/mol
# GULP energy per Si atom -5587.014517 kJ/mol
# Density = 2.308299 g / cm^3
# Si number density = 23.135645 Si / 1000 Ang^3
#
#
#
# Elastic Constant Matrix: (Units=GPa)
#
#
# Indices 1 2 3 4 5 6 
#
# 1 117.3485 35.0749 18.0533 -5.1744 -2.9745 -0.0001
# 2 35.0749 117.3468 18.0535 5.1745 2.9742 0.0002
# 3 18.0533 18.0535 68.8429 -0.0002 0.0001 -0.0001
# 4 -5.1744 5.1745 -0.0002 27.7826 0.0002 2.9745
# 5 -2.9745 2.9742 0.0001 0.0002 27.7832 -5.1745
# 6 -0.0001 0.0002 -0.0001 2.9745 -5.1745 41.1359
#
#
#
# Elastic Compliance Matrix: (Units=1/GPa)
#
#
# Indices 1 2 3 4 5 6 
#
# 1 0.009770 -0.002775 -0.001834 0.002337 0.001343 0.000000
# 2 -0.002775 0.009771 -0.001834 -0.002337 -0.001343 0.000000
# 3 -0.001834 -0.001834 0.015488 0.000000 0.000000 0.000000
# 4 0.002337 -0.002337 0.000000 0.037152 0.000000 -0.002686
# 5 0.001343 -0.001343 0.000000 0.000000 0.037151 0.004673
# 6 0.000000 0.000000 0.000000 -0.002686 0.004673 0.025092
#
#
# Mechanical properties :
#
#
# Convention : Reuss Voigt Hill
#
# Bulk Modulus (GPa) = 45.16567 49.54464 47.35516
# Shear Modulus (GPa) = 32.32233 34.83077 33.57655
#
# Velocity S-wave (km/s) = 3.74181 3.88429 3.81371
# Velocity P-wave (km/s) = 6.18326 6.44812 6.31708
#
# Compressibility (1/GPa) = 0.02214071
#
# Stress axis : x y z
#
# Youngs Moduli (GPa) = 102.34975 102.34817 64.56625
#
# Poissons Ratio (x) = 0.28404 0.11844
# Poissons Ratio (y) = 0.28404 0.11845
# Poissons Ratio (z) = 0.18775 0.18776
#
# Static dielectric constant tensor:
#      x y z
#    x 1.918440 0.000000 0.000000 
#    y 0.000000 1.918450 0.000000 
#    z 0.000000 0.000000 1.926260 
# 
# From -- ./inp_files/3953.got.cif
#   From: 2010.05.17/outbox.cif.g08.bks.cpg/sg148_2_cif.got.tgz:3953.got - 2010.05.20 13:50:20.
