data_PCOD9575356
_publ_section_title
;
Structure prediction by ZEFSAII (Michael W. Deem and Ramdas Pophale) SiO2 
 PCOD9575356
Probable space group: P 3 1 2
;
_chemical_formula_sum "Si O2"
_cell_formula_units_Z 48
_cell_length_a 12.940930
_cell_length_b 12.940930
_cell_length_c 20.741649
_cell_angle_alpha 90.000000
_cell_angle_beta 90.000000
_cell_angle_gamma 120.000000
_cell_volume 3008.187404
_symmetry_space_group_name_H-M "P 3 1 2"
_symmetry_group_IT_number 149
_symmetry_cell_setting 'hexagonal'
loop_
_space_group_symop_operation_xyz
x,y,z
-y,x-y,z
-x+y,-x,z
-y,-x,-z
-x+y,y,-z
x,x-y,-z
loop_
_atom_site_type_symbol
_atom_site_label
_atom_site_fract_x
_atom_site_fract_y
_atom_site_fract_z
Si Si1 0.756654 0.756895 0.885015
Si Si2 0.244259 0.243778 0.264109
Si Si3 0.911806 0.333914 0.000000
Si Si4 0.245551 0.999296 0.500000
Si Si5 0.000241 0.756895 0.885015
Si Si6 0.333158 0.421013 0.620452
Si Si7 0.578987 0.912145 0.379548
Si Si8 0.244259 0.000481 0.264109
O O1 0.722378 0.720315 0.810527
O O2 0.893182 0.786363 0.891738
O O3 0.749196 0.874598 0.897665
O O4 0.681267 0.655838 0.936653
O O5 0.319678 0.350227 0.313362
O O6 0.251891 0.125945 0.278935
O O7 0.107102 0.214204 0.270092
O O8 0.974571 0.318733 0.063347
O O9 0.777131 0.222870 0.000000
O O10 0.913476 0.456738 0.000000
O O11 0.107586 0.892414 0.500000
O O12 0.306750 0.978351 0.437596
O O13 0.306750 0.978351 0.562404
O O14 0.253253 0.126627 0.500000
O O15 0.997937 0.720315 0.810527
O O16 0.225208 0.450417 0.618777
O O17 0.459524 0.540476 0.614271
O O18 0.319678 0.350228 0.686638
#
# Coordination Sequence:
#
# PCOD9575356 Si02
#       8
#     6   6   6   6   6   6   6   6
#     4   9  17  30  50  75  98 120 150 193 245 292
#     4   9  17  30  50  75 100 124 152 192 242 290
#     4  10  20  32  46  64  90 126 164 198 230 272
#     4  10  20  34  54  78 100 122 152 196 248 294
#     4   9  17  30  50  75  98 120 150 193 245 292
#     4  10  20  33  50  71  97 130 165 198 229 269
#     4  10  20  33  50  71  97 130 165 198 229 269
#     4   9  17  30  50  75 100 124 152 192 242 290
#
# _framework density 15.956452000000001
#
# number of rings (size 3 to 8) (size 9 to 14) (size 15 to 20)
#    0.000    2.500    0.000    2.500    0.000    3.000 
#    0.000    5.000    0.000    9.000    0.000    0.000 
#    0.000    0.000    0.000    0.000    0.000    0.000 
#
# Total GULP energy -267703.297586 kJ/mol
# GULP energy per Si atom -5577.152033 kJ/mol
# Density = 1.592013 g / cm^3
# Si number density = 15.956452 Si / 1000 Ang^3
#
#
#
# Elastic Constant Matrix: (Units=GPa)
#
#
# Indices 1 2 3 4 5 6 
#
# 1 117.1331 79.7859 81.4065 0.0000 0.0000 0.0000
# 2 79.7859 117.1331 81.4065 0.0000 0.0000 0.0000
# 3 81.4065 81.4065 113.1081 0.0000 0.0000 0.0000
# 4 0.0000 0.0000 0.0000 15.8056 0.0000 0.0000
# 5 0.0000 0.0000 0.0000 0.0000 15.8056 0.0000
# 6 0.0000 0.0000 0.0000 0.0000 0.0000 18.6736
#
#
#
# Elastic Compliance Matrix: (Units=1/GPa)
#
#
# Indices 1 2 3 4 5 6 
#
# 1 0.019658 -0.007117 -0.009026 0.000000 0.000000 0.000000
# 2 -0.007117 0.019658 -0.009026 0.000000 0.000000 0.000000
# 3 -0.009026 -0.009026 0.021834 0.000000 0.000000 0.000000
# 4 0.000000 0.000000 0.000000 0.063269 0.000000 0.000000
# 5 0.000000 0.000000 0.000000 0.000000 0.063269 0.000000
# 6 0.000000 0.000000 0.000000 0.000000 0.000000 0.053552
#
#
# Mechanical properties :
#
#
# Convention : Reuss Voigt Hill
#
# Bulk Modulus (GPa) = 92.49482 92.50800 92.50141
# Shear Modulus (GPa) = 16.93869 17.04197 16.99033
#
# Velocity S-wave (km/s) = 3.26169 3.27162 3.26666
# Velocity P-wave (km/s) = 8.50163 8.50720 8.50442
#
# Compressibility (1/GPa) = 0.01081142
#
# Stress axis : x y z
#
# Youngs Moduli (GPa) = 50.86888 50.86888 45.80102
#
# Poissons Ratio (x) = 0.36206 0.41340
# Poissons Ratio (y) = 0.36206 0.41340
# Poissons Ratio (z) = 0.45914 0.45914
#
# Static dielectric constant tensor:
#      x y z
#    x 1.500990 0.000000 0.000000 
#    y 0.000000 1.500990 0.000000 
#    z 0.000000 0.000000 1.551460 
# 
# From -- ./inp_files/1151.got.cif
#   From: 2010.05.17/outbox.cif.g08.bks.cpg/sg149_cif.got.tgz:1151.got - 2010.05.20 13:52:34.
