data_PCOD9575135
_publ_section_title
;
Structure prediction by ZEFSAII (Michael W. Deem and Ramdas Pophale) SiO2 
 PCOD9575135
Probable space group: R -3
;
_chemical_formula_sum "Si O2"
_cell_formula_units_Z 114
_cell_length_a 15.350662
_cell_length_b 15.350662
_cell_length_c 28.713972
_cell_angle_alpha 90.000000
_cell_angle_beta 90.000000
_cell_angle_gamma 120.000000
_cell_volume 5859.736980
_symmetry_space_group_name_H-M "R -3"
_symmetry_group_IT_number 148
_symmetry_cell_setting 'hexagonal'
loop_
_space_group_symop_operation_xyz
x,y,z
-y,x-y,z
-x+y,-x,z
-x,-y,-z
y,-x+y,-z
x-y,x,-z
2/3+x,1/3+y,1/3+z
2/3-y,1/3+x-y,1/3+z
2/3-x+y,1/3-x,1/3+z
2/3-x,1/3-y,1/3-z
2/3+y,1/3-x+y,1/3-z
2/3+x-y,1/3+x,1/3-z
1/3+x,2/3+y,2/3+z
1/3-y,2/3+x-y,2/3+z
1/3-x+y,2/3-x,2/3+z
1/3-x,2/3-y,2/3-z
1/3+y,2/3-x+y,2/3-z
1/3+x-y,2/3+x,2/3-z
loop_
_atom_site_type_symbol
_atom_site_label
_atom_site_fract_x
_atom_site_fract_y
_atom_site_fract_z
Si Si1 0.333334 0.666667 0.610643
Si Si2 0.276808 0.270062 0.865400
Si Si3 0.281094 0.476017 0.782892
Si Si4 0.261680 0.898877 0.038209
Si Si5 0.379155 0.379608 0.717551
Si Si6 0.164721 0.248869 0.192092
Si Si7 0.972640 0.492109 0.946199
O O1 0.333335 0.666668 0.666667
O O2 0.377360 0.776843 0.588468
O O3 0.166376 0.257233 0.866906
O O4 0.291756 0.246924 0.918288
O O5 0.284244 0.190028 0.832527
O O6 0.362161 0.381681 0.852175
O O7 0.332281 0.419229 0.756910
O O8 0.344500 0.529133 0.829771
O O9 0.155220 0.798283 0.033175
O O10 0.360825 0.893837 0.054575
O O11 0.291678 0.966676 0.991938
O O12 0.393456 0.287584 0.734721
O O13 0.158868 0.263226 0.247411
O O14 0.000000 0.500000 0.000000
#
# Coordination Sequence:
#
# PCOD9575135 Si02
#       7
#     6  18  18  18  18  18  18
#     4  12  27  39  60  99 150 174 213 273 327 406
#     4  11  23  40  60  98 126 174 214 273 329 400
#     4  12  23  39  62  97 135 169 219 264 329 404
#     4  10  21  38  62  92 129 165 218 263 327 399
#     4  11  21  39  65  94 127 174 213 266 333 399
#     4  11  22  39  64  85 129 169 217 267 330 394
#     4   9  22  42  61  85 120 164 219 273 318 384
#
# _framework density 19.454798
#
# number of rings (size 3 to 8) (size 9 to 14) (size 15 to 20)
#    0.000    1.263    3.158    2.368    4.421    0.000 
#    0.947    3.158    0.000    0.316    0.000    0.000 
#    0.000    0.000    0.000    0.000    0.000    0.000 
#
# Total GULP energy -211668.984206 kJ/mol
# GULP energy per Si atom -5570.236426 kJ/mol
# Density = 1.941052 g / cm^3
# Si number density = 19.454798 Si / 1000 Ang^3
#
#
#
# Elastic Constant Matrix: (Units=GPa)
#
#
# Indices 1 2 3 4 5 6 
#
# 1 102.0780 68.0705 28.1695 9.4913 -8.3598 -0.0001
# 2 68.0705 102.0782 28.1697 -9.4914 8.3599 -0.0002
# 3 28.1695 28.1697 121.7296 0.0002 0.0000 -0.0001
# 4 9.4913 -9.4914 0.0002 17.0516 -0.0001 8.3597
# 5 -8.3598 8.3599 0.0000 -0.0001 17.0514 9.4914
# 6 -0.0001 -0.0002 -0.0001 8.3597 9.4914 17.0037
#
#
#
# Elastic Compliance Matrix: (Units=1/GPa)
#
#
# Indices 1 2 3 4 5 6 
#
# 1 0.035982 -0.029617 -0.001473 -0.036513 0.032162 -0.000002
# 2 -0.029617 0.035982 -0.001473 0.036513 -0.032162 0.000002
# 3 -0.001473 -0.001473 0.008897 0.000000 0.000000 0.000000
# 4 -0.036513 0.036513 0.000000 0.130826 0.000000 -0.064319
# 5 0.032162 -0.032162 0.000000 0.000000 0.130835 -0.073031
# 6 -0.000002 0.000002 0.000000 -0.064319 -0.073031 0.131198
#
#
# Mechanical properties :
#
#
# Convention : Reuss Voigt Hill
#
# Bulk Modulus (GPa) = 63.55335 63.85614 63.70474
# Shear Modulus (GPa) = 9.18967 23.65309 16.42138
#
# Velocity S-wave (km/s) = 2.17574 3.49061 2.90845
# Velocity P-wave (km/s) = 6.24899 7.00999 6.64040
#
# Compressibility (1/GPa) = 0.01573481
#
# Stress axis : x y z
#
# Youngs Moduli (GPa) = 27.79188 27.79184 112.40217
#
# Poissons Ratio (x) = 0.82311 0.16554
# Poissons Ratio (y) = 0.82311 0.16557
# Poissons Ratio (z) = 0.04093 0.04094
#
# Static dielectric constant tensor:
#      x y z
#    x 1.724090 0.000000 0.000000 
#    y 0.000000 1.724090 0.000000 
#    z 0.000000 0.000000 1.709840 
# 
# From -- ./inp_files/4040.got.cif
#   From: 2010.05.17/outbox.cif.g08.bks.cpg/sg148_3_cif.got.tgz:4040.got - 2010.05.20 13:50:20.
