data_PCOD9575754
_publ_section_title
;
Structure prediction by ZEFSAII (Michael W. Deem and Ramdas Pophale) SiO2 
 PCOD9575754
Probable space group: P 31 2 1
;
_chemical_formula_sum "Si O2"
_cell_formula_units_Z 42
_cell_length_a 8.465230
_cell_length_b 8.465230
_cell_length_c 30.270921
_cell_angle_alpha 90.000000
_cell_angle_beta 90.000000
_cell_angle_gamma 120.000000
_cell_volume 1878.597721
_symmetry_space_group_name_H-M "P 31 2 1"
_symmetry_group_IT_number 152
_symmetry_cell_setting 'hexagonal'
loop_
_space_group_symop_operation_xyz
x,y,z
-y,x-y,1/3+z
-x+y,-x,2/3+z
x-y,-y,2/3-z
-x,-x+y,1/3-z
y,x,-z
loop_
_atom_site_type_symbol
_atom_site_label
_atom_site_fract_x
_atom_site_fract_y
_atom_site_fract_z
Si Si1 0.016093 0.356200 0.952357
Si Si2 0.566539 0.598257 0.811866
Si Si3 0.096874 0.125992 0.592265
Si Si4 0.064340 0.540867 0.236339
Si Si5 0.427264 0.710592 0.479275
Si Si6 0.700054 0.700054 0.000000
Si Si7 0.333355 0.710111 0.990302
Si Si8 0.096490 0.096490 0.500000
O O1 0.994166 0.157128 0.952052
O O2 0.064874 0.425104 0.901900
O O3 0.160235 0.513051 0.983399
O O4 0.819740 0.319951 0.968427
O O5 0.383763 0.599221 0.801440
O O6 0.515534 0.433814 0.845464
O O7 0.716496 0.802920 0.827890
O O8 0.282942 0.316893 0.577021
O O9 0.000732 0.024896 0.546999
O O10 0.983979 0.182258 0.623575
O O11 0.185566 0.565802 0.192791
O O12 0.167379 0.532907 0.279795
O O13 0.873849 0.360391 0.224122
O O14 0.687774 0.508331 0.005077
#
# Coordination Sequence:
#
# PCOD9575754 Si02
#       8
#     6   6   6   6   6   3   6   3
#     4  11  23  41  67  93 132 175 227 272 330 407
#     4  11  22  39  66  97 125 172 217 275 330 407
#     4  10  19  40  64  93 124 177 218 269 338 405
#     4  10  18  38  65  88 126 174 214 261 332 404
#     4  11  20  38  65  94 127 166 217 270 333 400
#     4  10  24  38  68  98 132 170 226 274 346 408
#     4  11  23  42  64  98 129 178 222 273 334 406
#     4  10  18  38  64  86 132 168 212 260 348 388
#
# _framework density 22.357102000000001
#
# number of rings (size 3 to 8) (size 9 to 14) (size 15 to 20)
#    0.000    1.429    5.714    1.714    0.000    1.714 
#    0.000    1.429   12.571    0.000    0.000    0.000 
#    0.000    0.000    0.000    0.000    0.000    0.000 
#
# Total GULP energy -234428.458900 kJ/mol
# GULP energy per Si atom -5581.629974 kJ/mol
# Density = 2.230622 g / cm^3
# Si number density = 22.357102 Si / 1000 Ang^3
#
#
#
# Elastic Constant Matrix: (Units=GPa)
#
#
# Indices 1 2 3 4 5 6 
#
# 1 65.9290 25.7740 31.9430 -6.3804 0.0000 0.0000
# 2 25.7740 65.9290 31.9430 6.3804 0.0000 0.0000
# 3 31.9430 31.9430 89.0108 0.0000 0.0000 0.0000
# 4 -6.3804 6.3804 0.0000 27.4132 0.0000 0.0000
# 5 0.0000 0.0000 0.0000 0.0000 27.4132 -6.3804
# 6 0.0000 0.0000 0.0000 0.0000 -6.3804 20.0775
#
#
#
# Elastic Compliance Matrix: (Units=1/GPa)
#
#
# Indices 1 2 3 4 5 6 
#
# 1 0.020716 -0.006176 -0.005218 0.006259 0.000000 0.000000
# 2 -0.006176 0.020716 -0.005218 -0.006259 0.000000 0.000000
# 3 -0.005218 -0.005218 0.014980 0.000000 0.000000 0.000000
# 4 0.006259 -0.006259 0.000000 0.039392 0.000000 0.000000
# 5 0.000000 0.000000 0.000000 0.000000 0.039392 0.012518
# 6 0.000000 0.000000 0.000000 0.000000 0.012518 0.053785
#
#
# Mechanical properties :
#
#
# Convention : Reuss Voigt Hill
#
# Bulk Modulus (GPa) = 43.12599 44.46542 43.79570
# Shear Modulus (GPa) = 21.74520 23.72803 22.73661
#
# Velocity S-wave (km/s) = 3.12209 3.26132 3.19246
# Velocity P-wave (km/s) = 5.68578 5.84068 5.76375
#
# Compressibility (1/GPa) = 0.02318787
#
# Stress axis : x y z
#
# Youngs Moduli (GPa) = 48.27126 48.27126 66.75725
#
# Poissons Ratio (x) = 0.29814 0.34833
# Poissons Ratio (y) = 0.29814 0.34833
# Poissons Ratio (z) = 0.25187 0.25187
#
# Static dielectric constant tensor:
#      x y z
#    x 1.836840 0.000000 0.000000 
#    y 0.000000 1.836840 0.000000 
#    z 0.000000 0.000000 1.892360 
# 
# From -- ./inp_files/3752.got.cif
#   From: 2010.05.17/outbox.cif.g08.bks.cpg/sg152_2_cif.got.tgz:3752.got - 2010.05.20 10:36:06.
