data_PCOD9575389
_publ_section_title
;
Structure prediction by ZEFSAII (Michael W. Deem and Ramdas Pophale) SiO2 
 PCOD9575389
Probable space group: P 3 1 2
;
_chemical_formula_sum "Si O2"
_cell_formula_units_Z 44
_cell_length_a 8.735433
_cell_length_b 8.735433
_cell_length_c 32.937428
_cell_angle_alpha 90.000000
_cell_angle_beta 90.000000
_cell_angle_gamma 120.000000
_cell_volume 2176.652946
_symmetry_space_group_name_H-M "P 3 1 2"
_symmetry_group_IT_number 149
_symmetry_cell_setting 'hexagonal'
loop_
_space_group_symop_operation_xyz
x,y,z
-y,x-y,z
-x+y,-x,z
-y,-x,-z
-x+y,y,-z
x,x-y,-z
loop_
_atom_site_type_symbol
_atom_site_label
_atom_site_fract_x
_atom_site_fract_y
_atom_site_fract_z
Si Si1 0.344175 0.333661 0.352709
Si Si2 0.668003 0.676135 0.386112
Si Si3 0.348517 0.013145 0.742785
Si Si4 0.667205 0.978378 0.774474
Si Si5 0.332176 0.333740 0.516899
Si Si6 0.038555 0.333664 0.132518
Si Si7 0.366346 0.033531 0.897470
Si Si8 0.666668 0.333334 0.951801
O O1 0.523740 0.479739 0.373085
O O2 0.191561 0.377539 0.364657
O O3 0.380366 0.333282 0.304935
O O4 0.284254 0.141698 0.370458
O O5 0.668251 0.682338 0.434634
O O6 0.186221 0.815666 0.746858
O O7 0.517107 0.029205 0.766125
O O8 0.294871 0.147358 0.762753
O O9 0.665231 0.915248 0.820501
O O10 0.523820 0.476181 0.500000
O O11 0.191880 0.383760 0.500000
O O12 0.287184 0.143592 0.500000
O O13 0.177514 0.325320 0.101348
O O14 0.023814 0.506766 0.124575
O O15 0.843615 0.167791 0.126434
O O16 0.490913 0.158060 0.934490
O O17 0.666668 0.333334 0.000000
#
# Coordination Sequence:
#
# PCOD9575389 Si02
#       8
#     6   6   6   6   6   6   6   2
#     4  12  25  44  64  88 123 160 210 244 293 363
#     4  12  25  44  67  90 117 160 192 241 301 364
#     4  12  25  41  59  89 120 166 209 263 301 354
#     4  12  24  39  61  87 125 163 211 260 317 355
#     4  12  25  44  67  96 124 147 186 241 301 369
#     4  11  20  38  58  91 123 167 210 262 315 378
#     4  10  22  37  63  91 129 167 213 262 319 378
#     4   9  21  45  69  96 129 168 213 267 321 381
#
# _framework density 20.214524000000001
#
# number of rings (size 3 to 8) (size 9 to 14) (size 15 to 20)
#    0.000    0.545    0.000   10.227    0.000    0.000 
#    0.000    2.727    0.000    0.000    0.000    0.000 
#    0.000    0.000    0.000    0.000    0.000    0.000 
#
# Total GULP energy -246032.078197 kJ/mol
# GULP energy per Si atom -5591.638141 kJ/mol
# Density = 2.016851 g / cm^3
# Si number density = 20.214524 Si / 1000 Ang^3
#
#
#
# Elastic Constant Matrix: (Units=GPa)
#
#
# Indices 1 2 3 4 5 6 
#
# 1 86.3286 -7.2515 16.1439 0.0003 -12.2148 0.0000
# 2 -7.2515 86.3285 16.1439 -0.0003 12.2148 -0.0001
# 3 16.1439 16.1439 129.8704 -0.0003 -0.0002 0.0000
# 4 0.0003 -0.0003 -0.0003 31.5171 0.0000 12.2148
# 5 -12.2148 12.2148 -0.0002 0.0000 31.5170 0.0003
# 6 0.0000 -0.0001 0.0000 12.2148 0.0003 46.7900
#
#
#
# Elastic Compliance Matrix: (Units=1/GPa)
#
#
# Indices 1 2 3 4 5 6 
#
# 1 0.012605 0.000717 -0.001656 0.000000 0.004608 0.000000
# 2 0.000717 0.012605 -0.001656 0.000000 -0.004608 0.000000
# 3 -0.001656 -0.001656 0.008112 0.000000 0.000000 0.000000
# 4 0.000000 0.000000 0.000000 0.035300 0.000000 -0.009215
# 5 0.004608 -0.004608 0.000000 0.000000 0.035300 0.000000
# 6 0.000000 0.000000 0.000000 -0.009215 0.000000 0.023778
#
#
# Mechanical properties :
#
#
# Convention : Reuss Voigt Hill
#
# Bulk Modulus (GPa) = 35.54709 39.17777 37.36243
# Shear Modulus (GPa) = 35.14460 40.46424 37.80442
#
# Velocity S-wave (km/s) = 4.17415 4.47894 4.32923
# Velocity P-wave (km/s) = 6.39175 6.79492 6.59642
#
# Compressibility (1/GPa) = 0.02813170
#
# Stress axis : x y z
#
# Youngs Moduli (GPa) = 79.33064 79.33048 123.27868
#
# Poissons Ratio (x) = -0.05685 0.20415
# Poissons Ratio (y) = -0.05685 0.20415
# Poissons Ratio (z) = 0.13137 0.13137
#
# Static dielectric constant tensor:
#      x y z
#    x 1.677210 0.000000 0.000000 
#    y 0.000000 1.677210 0.000000 
#    z 0.000000 0.000000 1.660950 
# 
# From -- ./inp_files/1177.got.cif
#   From: 2010.05.17/outbox.cif.g08.bks.cpg/sg149_cif.got.tgz:1177.got - 2010.05.20 13:52:34.
