data_PCOD9575881
_publ_section_title
;
Structure prediction by ZEFSAII (Michael W. Deem and Ramdas Pophale) SiO2 
 PCOD9575881
Probable space group: P 31 2 1
;
_chemical_formula_sum "Si O2"
_cell_formula_units_Z 36
_cell_length_a 9.140569
_cell_length_b 9.140569
_cell_length_c 25.902019
_cell_angle_alpha 90.000000
_cell_angle_beta 90.000000
_cell_angle_gamma 120.000000
_cell_volume 1874.177467
_symmetry_space_group_name_H-M "P 31 2 1"
_symmetry_group_IT_number 152
_symmetry_cell_setting 'hexagonal'
loop_
_space_group_symop_operation_xyz
x,y,z
-y,x-y,1/3+z
-x+y,-x,2/3+z
x-y,-y,2/3-z
-x,-x+y,1/3-z
y,x,-z
loop_
_atom_site_type_symbol
_atom_site_label
_atom_site_fract_x
_atom_site_fract_y
_atom_site_fract_z
Si Si1 0.497046 0.164741 0.103143
Si Si2 0.132624 0.302981 0.621494
Si Si3 0.962374 0.446183 0.795998
Si Si4 0.010121 0.218853 0.357404
Si Si5 0.136144 0.712505 0.709058
Si Si6 0.414249 0.675220 0.652393
O O1 0.558741 0.343995 0.129840
O O2 0.457059 0.029621 0.146953
O O3 0.645942 0.202447 0.062964
O O4 0.328922 0.112783 0.069282
O O5 0.156411 0.138610 0.624200
O O6 0.302246 0.479633 0.635024
O O7 0.000000 0.267427 0.666667
O O8 0.061021 0.344389 0.569541
O O9 0.081635 0.617133 0.763285
O O10 0.127710 0.414694 0.344576
O O11 0.892570 0.148829 0.305220
O O12 0.308176 0.720781 0.692153
O O13 0.000000 0.590080 0.666667
#
# Coordination Sequence:
#
# PCOD9575881 Si02
#       6
#     6   6   6   6   6   6
#     4  10  24  39  61  88 124 163 200 251 314 368
#     4  11  20  36  65  93 116 159 208 248 307 364
#     4  11  22  41  62  85 126 165 201 244 319 371
#     4  11  23  36  65  95 119 151 212 264 292 359
#     4  11  18  41  63  83 119 164 200 246 303 368
#     4  10  20  40  60  92 119 156 210 244 301 366
#
# _framework density 19.208427
#
# number of rings (size 3 to 8) (size 9 to 14) (size 15 to 20)
#    0.000    1.333    6.667    2.500    2.333    2.000 
#    0.000    0.833    3.667    0.000    0.000    0.000 
#    0.000    0.000    0.000    0.000    0.000    0.000 
#
# Total GULP energy -200644.496182 kJ/mol
# GULP energy per Si atom -5573.458227 kJ/mol
# Density = 1.916471 g / cm^3
# Si number density = 19.208427 Si / 1000 Ang^3
#
#
#
# Elastic Constant Matrix: (Units=GPa)
#
#
# Indices 1 2 3 4 5 6 
#
# 1 82.6434 16.9987 12.1681 5.3496 0.0000 0.0000
# 2 16.9987 82.6434 12.1681 -5.3496 0.0000 0.0000
# 3 12.1681 12.1681 50.5430 0.0000 0.0000 0.0000
# 4 5.3496 -5.3496 0.0000 18.1061 0.0000 0.0000
# 5 0.0000 0.0000 0.0000 0.0000 18.1061 5.3496
# 6 0.0000 0.0000 0.0000 0.0000 5.3496 32.8223
#
#
#
# Elastic Compliance Matrix: (Units=1/GPa)
#
#
# Indices 1 2 3 4 5 6 
#
# 1 0.013334 -0.002671 -0.002567 -0.004729 0.000000 0.000000
# 2 -0.002671 0.013334 -0.002567 0.004729 0.000000 0.000000
# 3 -0.002567 -0.002567 0.021021 0.000000 0.000000 0.000000
# 4 -0.004729 0.004729 0.000000 0.058024 0.000000 0.000000
# 5 0.000000 0.000000 0.000000 0.000000 0.058024 -0.009457
# 6 0.000000 0.000000 0.000000 0.000000 -0.009457 0.032008
#
#
# Mechanical properties :
#
#
# Convention : Reuss Voigt Hill
#
# Bulk Modulus (GPa) = 31.17336 33.16663 32.16999
# Shear Modulus (GPa) = 22.51767 25.43987 23.97877
#
# Velocity S-wave (km/s) = 3.42757 3.64320 3.53703
# Velocity P-wave (km/s) = 5.65054 5.91619 5.78489
#
# Compressibility (1/GPa) = 0.03207868
#
# Stress axis : x y z
#
# Youngs Moduli (GPa) = 74.99872 74.99872 47.57107
#
# Poissons Ratio (x) = 0.20030 0.12212
# Poissons Ratio (y) = 0.20030 0.12212
# Poissons Ratio (z) = 0.19253 0.19253
#
# Static dielectric constant tensor:
#      x y z
#    x 1.746900 0.000000 0.000000 
#    y 0.000000 1.746900 0.000000 
#    z 0.000000 0.000000 1.679800 
# 
# From -- ./inp_files/3398.got.cif
#   From: 2010.05.17/outbox.cif.g08.bks.cpg/sg152_2_cif.got.tgz:3398.got - 2010.05.20 10:36:06.
