data_PCOD9575300
_publ_section_title
;
Structure prediction by ZEFSAII (Michael W. Deem and Ramdas Pophale) SiO2 
 PCOD9575300
Probable space group: R -3
;
_chemical_formula_sum "Si O2"
_cell_formula_units_Z 60
_cell_length_a 15.755962
_cell_length_b 15.755962
_cell_length_c 11.505675
_cell_angle_alpha 90.000000
_cell_angle_beta 90.000000
_cell_angle_gamma 120.000000
_cell_volume 2473.617721
_symmetry_space_group_name_H-M "R -3"
_symmetry_group_IT_number 148
_symmetry_cell_setting 'hexagonal'
loop_
_space_group_symop_operation_xyz
x,y,z
-y,x-y,z
-x+y,-x,z
-x,-y,-z
y,-x+y,-z
x-y,x,-z
2/3+x,1/3+y,1/3+z
2/3-y,1/3+x-y,1/3+z
2/3-x+y,1/3-x,1/3+z
2/3-x,1/3-y,1/3-z
2/3+y,1/3-x+y,1/3-z
2/3+x-y,1/3+x,1/3-z
1/3+x,2/3+y,2/3+z
1/3-y,2/3+x-y,2/3+z
1/3-x+y,2/3-x,2/3+z
1/3-x,2/3-y,2/3-z
1/3+y,2/3-x+y,2/3-z
1/3+x-y,2/3+x,2/3-z
loop_
_atom_site_type_symbol
_atom_site_label
_atom_site_fract_x
_atom_site_fract_y
_atom_site_fract_z
Si Si1 0.718526 0.908910 0.228625
Si Si2 0.131134 0.795903 0.979768
Si Si3 0.666668 0.333334 0.690320
Si Si4 0.699930 0.186322 0.124245
O O1 0.666667 0.833334 0.333334
O O2 0.798626 0.880113 0.188466
O O3 0.758400 0.022159 0.255645
O O4 0.654338 0.883269 0.114169
O O5 0.247153 0.860455 0.951941
O O6 0.080458 0.851512 0.916670
O O7 0.666668 0.333335 0.833334
O O8 0.620113 0.393617 0.630057
#
# Coordination Sequence:
#
# PCOD9575300 Si02
#       4
#    18  18   6  18
#     4  12  28  47  81 107 158 209 262 327 391 479
#     4  11  28  51  74 117 154 206 264 327 407 473
#     4  12  27  51  85 119 154 210 271 338 397 492
#     4  11  27  49  75 112 156 198 260 329 399 471
#
# _framework density 24.255970000000001
#
# number of rings (size 3 to 8) (size 9 to 14) (size 15 to 20)
#    0.000    0.600    3.000    1.800   21.000    0.000 
#    0.000    1.500    0.000    0.000    0.000    0.000 
#    0.000    0.000    0.000    0.000    0.000    0.000 
#
# Total GULP energy -111355.719825 kJ/mol
# GULP energy per Si atom -5567.785991 kJ/mol
# Density = 2.420076 g / cm^3
# Si number density = 24.255970 Si / 1000 Ang^3
#
#
#
# Elastic Constant Matrix: (Units=GPa)
#
#
# Indices 1 2 3 4 5 6 
#
# 1 93.6161 23.2859 44.7287 -8.4726 4.1721 0.0000
# 2 23.2859 93.6158 44.7285 8.4722 -4.1723 -0.0001
# 3 44.7287 44.7285 182.4431 -0.0002 -0.0001 0.0000
# 4 -8.4726 8.4722 -0.0002 38.2986 0.0000 -4.1722
# 5 4.1721 -4.1723 -0.0001 0.0000 38.2988 -8.4726
# 6 0.0000 -0.0001 0.0000 -4.1722 -8.4726 35.1648
#
#
#
# Elastic Compliance Matrix: (Units=1/GPa)
#
#
# Indices 1 2 3 4 5 6 
#
# 1 0.012878 -0.002349 -0.002581 0.003369 -0.001659 0.000000
# 2 -0.002349 0.012878 -0.002581 -0.003368 0.001659 0.000000
# 3 -0.002581 -0.002581 0.006747 0.000000 0.000000 0.000000
# 4 0.003369 -0.003368 0.000000 0.027962 0.000000 0.003318
# 5 -0.001659 0.001659 0.000000 0.000000 0.027962 0.006737
# 6 0.000000 0.000000 0.000000 0.003318 0.006737 0.030454
#
#
# Mechanical properties :
#
#
# Convention : Reuss Voigt Hill
#
# Bulk Modulus (GPa) = 57.20747 66.12901 61.66824
# Shear Modulus (GPa) = 35.78254 39.48123 37.63189
#
# Velocity S-wave (km/s) = 3.84501 4.03884 3.94312
# Velocity P-wave (km/s) = 6.58394 7.00513 6.79780
#
# Compressibility (1/GPa) = 0.01748023
#
# Stress axis : x y z
#
# Youngs Moduli (GPa) = 77.64980 77.64962 148.21523
#
# Poissons Ratio (x) = 0.18238 0.38262
# Poissons Ratio (y) = 0.18238 0.38262
# Poissons Ratio (z) = 0.20045 0.20045
#
# Static dielectric constant tensor:
#      x y z
#    x 2.015980 0.000000 0.000000 
#    y 0.000000 2.015990 0.000000 
#    z 0.000000 0.000000 1.952100 
# 
# From -- ./inp_files/1349.got.cif
#   From: 2010.05.17/outbox.cif.g08.bks.cpg/sg148_1_cif.got.tgz:1349.got - 2010.05.20 13:50:20.
