data_PCOD9575191
_publ_section_title
;
Structure prediction by ZEFSAII (Michael W. Deem and Ramdas Pophale) SiO2 
 PCOD9575191
Probable space group: R -3
;
_chemical_formula_sum "Si O2"
_cell_formula_units_Z 108
_cell_length_a 17.154761
_cell_length_b 17.154761
_cell_length_c 22.797513
_cell_angle_alpha 90.000000
_cell_angle_beta 90.000000
_cell_angle_gamma 120.000000
_cell_volume 5810.151375
_symmetry_space_group_name_H-M "R -3"
_symmetry_group_IT_number 148
_symmetry_cell_setting 'hexagonal'
loop_
_space_group_symop_operation_xyz
x,y,z
-y,x-y,z
-x+y,-x,z
-x,-y,-z
y,-x+y,-z
x-y,x,-z
2/3+x,1/3+y,1/3+z
2/3-y,1/3+x-y,1/3+z
2/3-x+y,1/3-x,1/3+z
2/3-x,1/3-y,1/3-z
2/3+y,1/3-x+y,1/3-z
2/3+x-y,1/3+x,1/3-z
1/3+x,2/3+y,2/3+z
1/3-y,2/3+x-y,2/3+z
1/3-x+y,2/3-x,2/3+z
1/3-x,2/3-y,2/3-z
1/3+y,2/3-x+y,2/3-z
1/3+x-y,2/3+x,2/3-z
loop_
_atom_site_type_symbol
_atom_site_label
_atom_site_fract_x
_atom_site_fract_y
_atom_site_fract_z
Si Si1 0.001201 0.347146 0.216338
Si Si2 0.133967 0.506210 0.020305
Si Si3 0.236382 0.260058 0.336625
Si Si4 0.351375 0.509252 0.436435
Si Si5 0.838713 0.807991 0.481324
Si Si6 0.013899 0.819596 0.206564
O O1 0.028743 0.399551 0.278934
O O2 0.965865 0.241591 0.224463
O O3 0.094041 0.387077 0.179712
O O4 0.930755 0.359198 0.177237
O O5 0.158261 0.473521 0.078685
O O6 0.031251 0.434932 0.002821
O O7 0.131090 0.598382 0.027242
O O8 0.195885 0.512043 0.966224
O O9 0.231857 0.227888 0.269700
O O10 0.250000 0.480039 0.455224
O O11 0.428689 0.595316 0.469046
O O12 0.936301 0.825467 0.496058
#
# Coordination Sequence:
#
# PCOD9575191 Si02
#       6
#    18  18  18  18  18  18
#     4  11  21  38  58  82 115 152 201 240 287 349
#     4   9  18  35  53  79 115 147 190 228 286 346
#     4   9  18  35  56  83 108 148 192 239 283 342
#     4  10  23  37  59  86 115 153 195 248 291 353
#     4  12  23  34  51  81 117 155 186 231 287 349
#     4  11  21  39  61  87 120 155 199 245 302 352
#
# _framework density 18.588155
#
# number of rings (size 3 to 8) (size 9 to 14) (size 15 to 20)
#    0.000    1.667    3.333    3.000    2.333    0.000 
#    0.000    0.000    0.000    0.000    0.000    0.000 
#    0.000    4.000    0.000    0.000    0.000    0.000 
#
# Total GULP energy -200888.658490 kJ/mol
# GULP energy per Si atom -5580.240514 kJ/mol
# Density = 1.854585 g / cm^3
# Si number density = 18.588155 Si / 1000 Ang^3
#
#
#
# Elastic Constant Matrix: (Units=GPa)
#
#
# Indices 1 2 3 4 5 6 
#
# 1 44.9961 6.9711 21.3917 -5.7000 8.3839 0.0000
# 2 6.9711 44.9961 21.3917 5.7000 -8.3839 0.0000
# 3 21.3917 21.3917 98.3936 0.0000 0.0000 0.0000
# 4 -5.7000 5.7000 0.0000 0.2809 0.0000 -8.3839
# 5 8.3839 -8.3839 0.0000 0.0000 0.2809 -5.7000
# 6 0.0000 0.0000 0.0000 -8.3839 -5.7000 19.0125
#
#
#
# Elastic Compliance Matrix: (Units=1/GPa)
#
#
# Indices 1 2 3 4 5 6 
#
# 1 0.010998 0.012440 -0.005096 -0.029249 0.043021 0.000000
# 2 0.012440 0.010998 -0.005096 0.029249 -0.043021 0.000000
# 3 -0.005096 -0.005096 0.012379 0.000000 0.000000 0.000000
# 4 -0.029249 0.029249 0.000000 -0.195122 0.000000 -0.086042
# 5 0.043021 -0.043021 0.000000 0.000000 -0.195122 -0.058497
# 6 0.000000 0.000000 0.000000 -0.086042 -0.058497 -0.002883
#
#
# Mechanical properties :
#
#
# Convention : Reuss Voigt Hill
#
# Bulk Modulus (GPa) = 25.72519 31.98831 28.85675
# Shear Modulus (GPa) = -14.27391 13.15695 -0.55848
#
# Velocity S-wave (km/s) = -2.77411 2.66336 -0.54873
# Velocity P-wave (km/s) = 1.89965 5.16762 3.89313
#
# Compressibility (1/GPa) = 0.03887241
#
# Stress axis : x y z
#
# Youngs Moduli (GPa) = 90.92261 90.92261 80.78228
#
# Poissons Ratio (x) = -1.13105 0.41164
# Poissons Ratio (y) = -1.13105 0.41164
# Poissons Ratio (z) = 0.46331 0.46331
#
# Static dielectric constant tensor:
#      x y z
#    x 1.632830 0.000000 0.000000 
#    y 0.000000 1.632830 0.000000 
#    z 0.000000 0.000000 1.674250 
# 
# From -- ./inp_files/3088.got.cif
#   From: 2010.05.17/outbox.cif.g08.bks.cpg/sg148_2_cif.got.tgz:3088.got - 2010.05.20 13:50:20.
