data_PCOD9575993
_publ_section_title
;
Structure prediction by ZEFSAII (Michael W. Deem and Ramdas Pophale) SiO2 
 PCOD9575993
Probable space group: P 31 2 1
;
_chemical_formula_sum "Si O2"
_cell_formula_units_Z 48
_cell_length_a 12.125415
_cell_length_b 12.125415
_cell_length_c 19.474573
_cell_angle_alpha 90.000000
_cell_angle_beta 90.000000
_cell_angle_gamma 120.000000
_cell_volume 2479.658073
_symmetry_space_group_name_H-M "P 31 2 1"
_symmetry_group_IT_number 152
_symmetry_cell_setting 'hexagonal'
loop_
_space_group_symop_operation_xyz
x,y,z
-y,x-y,1/3+z
-x+y,-x,2/3+z
x-y,-y,2/3-z
-x,-x+y,1/3-z
y,x,-z
loop_
_atom_site_type_symbol
_atom_site_label
_atom_site_fract_x
_atom_site_fract_y
_atom_site_fract_z
Si Si1 0.748366 0.709855 0.250750
Si Si2 0.400744 0.771934 0.301795
Si Si3 0.991587 0.847653 0.004661
Si Si4 0.521594 0.676218 0.105354
Si Si5 0.971709 0.682975 0.884381
Si Si6 0.463870 0.565282 0.257731
Si Si7 0.118810 0.360737 0.570920
Si Si8 0.061662 0.753567 0.594825
O O1 0.608694 0.606800 0.279461
O O2 0.774947 0.664612 0.177644
O O3 0.727379 0.831085 0.240748
O O4 0.870098 0.758968 0.298909
O O5 0.380144 0.796647 0.380152
O O6 0.405271 0.642776 0.293848
O O7 0.295084 0.787439 0.258927
O O8 0.541339 0.876517 0.275991
O O9 0.882323 0.736812 0.052626
O O10 0.962646 0.962646 0.000000
O O11 0.977122 0.796110 0.927747
O O12 0.571212 0.824475 0.118892
O O13 0.478296 0.603868 0.177226
O O14 0.642207 0.665479 0.079428
O O15 0.021832 0.721651 0.806941
O O16 0.045105 0.628503 0.927556
O O17 0.000000 0.756831 0.666667
#
# Coordination Sequence:
#
# PCOD9575993 Si02
#       8
#     6   6   6   6   6   6   6   6
#     4  10  22  37  59  87 125 159 202 258 306 371
#     4  11  20  35  63  90 117 159 204 263 306 370
#     4  12  22  38  60  91 123 162 207 246 316 368
#     4  11  20  37  64  90 121 156 210 268 302 361
#     4  12  22  40  61  91 130 156 205 270 306 381
#     4  10  24  39  57  93 125 162 205 249 324 365
#     4  11  19  37  60  91 117 152 213 259 302 358
#     4  11  20  37  61  90 119 158 209 255 310 361
#
# _framework density 19.357509
#
# number of rings (size 3 to 8) (size 9 to 14) (size 15 to 20)
#    0.000    1.000    6.250    4.125    0.000    1.000 
#    0.000    1.875    0.000    0.000    0.000    1.750 
#    0.000    0.000    0.000    0.000    0.000    0.000 
#
# Total GULP energy -268002.289864 kJ/mol
# GULP energy per Si atom -5583.381039 kJ/mol
# Density = 1.931345 g / cm^3
# Si number density = 19.357509 Si / 1000 Ang^3
#
#
#
# Elastic Constant Matrix: (Units=GPa)
#
#
# Indices 1 2 3 4 5 6 
#
# 1 57.1027 17.4867 17.3890 3.5721 -0.0001 0.0000
# 2 17.4867 57.1027 17.3890 -3.5721 0.0001 0.0000
# 3 17.3890 17.3890 73.9464 0.0000 0.0000 0.0000
# 4 3.5721 -3.5721 0.0000 26.0958 0.0000 0.0001
# 5 -0.0001 0.0001 0.0000 0.0000 26.0958 3.5721
# 6 0.0000 0.0000 0.0000 0.0001 3.5721 19.8080
#
#
#
# Elastic Compliance Matrix: (Units=1/GPa)
#
#
# Indices 1 2 3 4 5 6 
#
# 1 0.020469 -0.005412 -0.003541 -0.003543 0.000000 0.000000
# 2 -0.005412 0.020469 -0.003541 0.003543 0.000000 0.000000
# 3 -0.003541 -0.003541 0.015189 0.000000 0.000000 0.000000
# 4 -0.003543 0.003543 0.000000 0.039290 0.000000 0.000000
# 5 0.000000 0.000000 0.000000 0.000000 0.039290 -0.007086
# 6 0.000000 0.000000 0.000000 0.000000 -0.007086 0.051762
#
#
# Mechanical properties :
#
#
# Convention : Reuss Voigt Hill
#
# Bulk Modulus (GPa) = 32.11266 32.52016 32.31641
# Shear Modulus (GPa) = 22.53899 23.45907 22.99903
#
# Velocity S-wave (km/s) = 3.41596 3.48499 3.45065
# Velocity P-wave (km/s) = 5.67307 5.74715 5.71023
#
# Compressibility (1/GPa) = 0.03114037
#
# Stress axis : x y z
#
# Youngs Moduli (GPa) = 48.85325 48.85325 65.83863
#
# Poissons Ratio (x) = 0.26438 0.23313
# Poissons Ratio (y) = 0.26438 0.23313
# Poissons Ratio (z) = 0.17299 0.17299
#
# Static dielectric constant tensor:
#      x y z
#    x 1.690670 0.000000 0.000000 
#    y 0.000000 1.690670 0.000000 
#    z 0.000000 0.000000 1.690820 
# 
# From -- ./inp_files/2835.got.cif
#   From: 2010.05.17/outbox.cif.g08.bks.cpg/sg152_2_cif.got.tgz:2835.got - 2010.05.20 10:36:06.
