data_PCOD9575387
_publ_section_title
;
Structure prediction by ZEFSAII (Michael W. Deem and Ramdas Pophale) SiO2 
 PCOD9575387
Probable space group: P 3 1 2
;
_chemical_formula_sum "Si O2"
_cell_formula_units_Z 15
_cell_length_a 9.755863
_cell_length_b 9.755863
_cell_length_c 7.129450
_cell_angle_alpha 90.000000
_cell_angle_beta 90.000000
_cell_angle_gamma 120.000000
_cell_volume 587.649059
_symmetry_space_group_name_H-M "P 3 1 2"
_symmetry_group_IT_number 149
_symmetry_cell_setting 'hexagonal'
loop_
_space_group_symop_operation_xyz
x,y,z
-y,x-y,z
-x+y,-x,z
-y,-x,-z
-x+y,y,-z
x,x-y,-z
loop_
_atom_site_type_symbol
_atom_site_label
_atom_site_fract_x
_atom_site_fract_y
_atom_site_fract_z
Si Si1 0.702298 0.899857 0.798151
Si Si2 0.964235 0.482118 0.000000
Si Si3 0.887882 0.638293 0.321207
O O1 0.669387 0.748632 0.674538
O O2 0.830265 0.065945 0.714885
O O3 0.763926 0.881963 0.000000
O O4 0.559447 0.927955 0.864565
O O5 0.867040 0.527810 0.145027
O O6 0.776921 0.553841 0.500000
#
# Coordination Sequence:
#
# PCOD9575387 Si02
#       3
#     6   3   6
#     4  10  21  42  69 104 141 202 263 321 382 455
#     4  10  22  40  64 108 152 196 250 312 426 462
#     4  11  23  43  73 109 149 205 272 334 380 464
#
# _framework density 25.525441000000001
#
# number of rings (size 3 to 8) (size 9 to 14) (size 15 to 20)
#    0.000    1.600    0.000    6.800    0.000    4.800 
#   42.000    0.000    0.000    0.000    0.000    0.000 
#    0.000    0.000    0.000    0.000    0.000    0.000 
#
# Total GULP energy -83635.047091 kJ/mol
# GULP energy per Si atom -5575.669806 kJ/mol
# Density = 2.546734 g / cm^3
# Si number density = 25.525441 Si / 1000 Ang^3
#
#
#
# Elastic Constant Matrix: (Units=GPa)
#
#
# Indices 1 2 3 4 5 6 
#
# 1 124.0082 38.2061 66.4423 0.0000 3.3998 0.0000
# 2 38.2061 124.0082 66.4423 0.0000 -3.3998 0.0000
# 3 66.4423 66.4423 143.4745 0.0000 0.0000 0.0000
# 4 0.0000 0.0000 0.0000 45.0027 0.0000 -3.3998
# 5 3.3998 -3.3998 0.0000 0.0000 45.0027 0.0000
# 6 0.0000 0.0000 0.0000 -3.3998 0.0000 42.9011
#
#
#
# Elastic Compliance Matrix: (Units=1/GPa)
#
#
# Indices 1 2 3 4 5 6 
#
# 1 0.010829 -0.000896 -0.004600 0.000000 -0.000886 0.000000
# 2 -0.000896 0.010829 -0.004600 0.000000 0.000886 0.000000
# 3 -0.004600 -0.004600 0.011230 0.000000 0.000000 0.000000
# 4 0.000000 0.000000 0.000000 0.022355 0.000000 0.001772
# 5 -0.000886 0.000886 0.000000 0.000000 0.022355 0.000000
# 6 0.000000 0.000000 0.000000 0.001772 0.000000 0.023450
#
#
# Mechanical properties :
#
#
# Convention : Reuss Voigt Hill
#
# Bulk Modulus (GPa) = 78.76187 81.51917 80.14052
# Shear Modulus (GPa) = 39.84988 41.27464 40.56226
#
# Velocity S-wave (km/s) = 3.95547 4.02556 3.99067
# Velocity P-wave (km/s) = 7.19612 7.32206 7.25936
#
# Compressibility (1/GPa) = 0.01269650
#
# Stress axis : x y z
#
# Youngs Moduli (GPa) = 92.34565 92.34565 89.04545
#
# Poissons Ratio (x) = 0.08275 0.40960
# Poissons Ratio (y) = 0.08275 0.40960
# Poissons Ratio (z) = 0.42478 0.42478
#
# Static dielectric constant tensor:
#      x y z
#    x 2.038070 0.000000 0.000000 
#    y 0.000000 2.038070 0.000000 
#    z 0.000000 0.000000 2.222810 
# 
# From -- ./inp_files/42.got.cif
#   From: 2010.05.17/outbox.cif.g08.bks.cpg/sg149_cif.got.tgz:42.got - 2010.05.20 13:52:34.
