data_PCOD9575267
_publ_section_title
;
Structure prediction by ZEFSAII (Michael W. Deem and Ramdas Pophale) SiO2 
 PCOD9575267
Probable space group: R -3
;
_chemical_formula_sum "Si O2"
_cell_formula_units_Z 84
_cell_length_a 14.081864
_cell_length_b 14.081864
_cell_length_c 24.718875
_cell_angle_alpha 90.000000
_cell_angle_beta 90.000000
_cell_angle_gamma 120.000000
_cell_volume 4245.018863
_symmetry_space_group_name_H-M "R -3"
_symmetry_group_IT_number 148
_symmetry_cell_setting 'hexagonal'
loop_
_space_group_symop_operation_xyz
x,y,z
-y,x-y,z
-x+y,-x,z
-x,-y,-z
y,-x+y,-z
x-y,x,-z
2/3+x,1/3+y,1/3+z
2/3-y,1/3+x-y,1/3+z
2/3-x+y,1/3-x,1/3+z
2/3-x,1/3-y,1/3-z
2/3+y,1/3-x+y,1/3-z
2/3+x-y,1/3+x,1/3-z
1/3+x,2/3+y,2/3+z
1/3-y,2/3+x-y,2/3+z
1/3-x+y,2/3-x,2/3+z
1/3-x,2/3-y,2/3-z
1/3+y,2/3-x+y,2/3-z
1/3+x-y,2/3+x,2/3-z
loop_
_atom_site_type_symbol
_atom_site_label
_atom_site_fract_x
_atom_site_fract_y
_atom_site_fract_z
Si Si1 0.920983 0.683614 0.560257
Si Si2 0.785161 0.208954 0.091359
Si Si3 0.033734 0.362182 0.223358
Si Si4 0.219239 0.795190 0.037925
Si Si5 0.000000 0.000000 0.366361
Si Si6 0.000000 0.000000 0.764228
O O1 0.917956 0.568246 0.566271
O O2 0.803397 0.676437 0.569401
O O3 0.961749 0.723359 0.499228
O O4 0.014657 0.765659 0.601329
O O5 0.699786 0.244722 0.113408
O O6 0.743219 0.089160 0.115498
O O7 0.776136 0.191419 0.026384
O O8 0.017166 0.433988 0.269200
O O9 0.244812 0.697821 0.051288
O O10 0.000000 0.000000 0.301310
#
# Coordination Sequence:
#
# PCOD9575267 Si02
#       6
#    18  18  18  18   6   6
#     4  12  24  40  62  90 127 162 198 252 311 362
#     4  11  23  40  61  89 123 162 208 248 293 362
#     4  12  24  40  62  90 127 162 198 252 311 362
#     4  11  22  37  63  95 124 155 198 252 309 364
#     4   9  18  30  55  94 123 144 183 241 307 366
#     4   9  18  33  57  88 112 147 202 253 285 336
#
# _framework density 19.787896
#
# number of rings (size 3 to 8) (size 9 to 14) (size 15 to 20)
#    0.000    0.857    6.429    1.929    0.000    1.714 
#    0.000    2.143    0.000    0.857    0.000    3.000 
#    0.000    0.000    0.000    0.000    0.000    0.000 
#
# Total GULP energy -156214.377073 kJ/mol
# GULP energy per Si atom -5579.084895 kJ/mol
# Density = 1.974286 g / cm^3
# Si number density = 19.787896 Si / 1000 Ang^3
#
#
#
# Elastic Constant Matrix: (Units=GPa)
#
#
# Indices 1 2 3 4 5 6 
#
# 1 54.8421 10.6431 -8.7937 -0.9629 -4.3134 0.0000
# 2 10.6431 54.8421 -8.7937 0.9629 4.3134 0.0000
# 3 -8.7937 -8.7937 51.3668 0.0000 0.0000 0.0000
# 4 -0.9629 0.9629 0.0000 21.6108 0.0000 4.3134
# 5 -4.3134 4.3134 0.0000 0.0000 21.6108 -0.9629
# 6 0.0000 0.0000 0.0000 4.3134 -0.9629 22.0995
#
#
#
# Elastic Compliance Matrix: (Units=1/GPa)
#
#
# Indices 1 2 3 4 5 6 
#
# 1 0.019798 -0.003792 0.002740 0.001051 0.004708 0.000000
# 2 -0.003792 0.019798 0.002740 -0.001051 -0.004708 0.000000
# 3 0.002740 0.002740 0.020406 0.000000 0.000000 0.000000
# 4 0.001051 -0.001051 0.000000 0.048246 0.000000 -0.009417
# 5 0.004708 -0.004708 0.000000 0.000000 0.048246 0.002102
# 6 0.000000 0.000000 0.000000 -0.009417 0.002102 0.047179
#
#
# Mechanical properties :
#
#
# Convention : Reuss Voigt Hill
#
# Bulk Modulus (GPa) = 15.77782 16.35138 16.06460
# Shear Modulus (GPa) = 22.58117 24.26391 23.42254
#
# Velocity S-wave (km/s) = 3.38177 3.50551 3.44420
# Velocity P-wave (km/s) = 4.82071 4.96650 4.89415
#
# Compressibility (1/GPa) = 0.06338010
#
# Stress axis : x y z
#
# Youngs Moduli (GPa) = 50.50975 50.50975 49.00508
#
# Poissons Ratio (x) = 0.19151 -0.13428
# Poissons Ratio (y) = 0.19151 -0.13428
# Poissons Ratio (z) = -0.13841 -0.13841
#
# Static dielectric constant tensor:
#      x y z
#    x 1.707440 0.000000 0.000000 
#    y 0.000000 1.707440 0.000000 
#    z 0.000000 0.000000 1.681210 
# 
# From -- ./inp_files/3652.got.cif
#   From: 2010.05.17/outbox.cif.g08.bks.cpg/sg148_2_cif.got.tgz:3652.got - 2010.05.20 13:50:20.
