data_PCOD9575974
_publ_section_title
;
Structure prediction by ZEFSAII (Michael W. Deem and Ramdas Pophale) SiO2 
 PCOD9575974
Probable space group: P 31 2 1
;
_chemical_formula_sum "Si O2"
_cell_formula_units_Z 33
_cell_length_a 14.068556
_cell_length_b 14.068556
_cell_length_c 9.008257
_cell_angle_alpha 90.000000
_cell_angle_beta 90.000000
_cell_angle_gamma 120.000000
_cell_volume 1544.082308
_symmetry_space_group_name_H-M "P 31 2 1"
_symmetry_group_IT_number 152
_symmetry_cell_setting 'hexagonal'
loop_
_space_group_symop_operation_xyz
x,y,z
-y,x-y,1/3+z
-x+y,-x,2/3+z
x-y,-y,2/3-z
-x,-x+y,1/3-z
y,x,-z
loop_
_atom_site_type_symbol
_atom_site_label
_atom_site_fract_x
_atom_site_fract_y
_atom_site_fract_z
Si Si1 0.792893 0.000000 0.333334
Si Si2 0.566359 0.847807 0.496781
Si Si3 0.389962 0.176110 0.542165
Si Si4 0.441858 0.564064 0.930079
Si Si5 0.852507 0.868062 0.834030
Si Si6 0.391553 0.445097 0.635757
O O1 0.775159 0.095812 0.263918
O O2 0.894917 0.063123 0.443162
O O3 0.554807 0.765257 0.627510
O O4 0.465639 0.810269 0.382173
O O5 0.585707 0.950532 0.597498
O O6 0.458485 0.143106 0.433003
O O7 0.265082 0.083512 0.576548
O O8 0.390997 0.276030 0.450734
O O9 0.394865 0.525500 0.763883
O O10 0.494542 0.494542 0.000000
O O11 0.913548 0.000000 0.833334
O O12 0.825310 0.825310 0.000000
O O13 0.479036 0.479036 0.500000
#
# Coordination Sequence:
#
# PCOD9575974 Si02
#       6
#     3   6   6   6   6   6
#     4  12  22  40  66  96 142 180 222 276 340 438
#     4  10  21  41  69  89 128 182 222 278 353 400
#     4  11  23  40  66  99 130 176 229 287 352 415
#     4  10  21  43  64  93 126 174 230 280 337 412
#     4  12  24  38  62 103 145 182 222 279 346 441
#     4   9  18  40  65  86 121 170 220 268 337 409
#
# _framework density 21.371917
#
# number of rings (size 3 to 8) (size 9 to 14) (size 15 to 20)
#    0.000    1.455    3.636    4.364    0.000    0.000 
#    6.545    1.818    0.000    0.000    0.000    0.000 
#    0.000    0.000    0.000    0.000    0.000    0.000 
#
# Total GULP energy -183732.040420 kJ/mol
# GULP energy per Si atom -5567.637588 kJ/mol
# Density = 2.132327 g / cm^3
# Si number density = 21.371917 Si / 1000 Ang^3
#
#
#
# Elastic Constant Matrix: (Units=GPa)
#
#
# Indices 1 2 3 4 5 6 
#
# 1 35.0232 16.6375 16.8427 -3.7276 0.0001 0.0000
# 2 16.6375 35.0232 16.8427 3.7276 -0.0001 0.0000
# 3 16.8427 16.8427 96.5794 0.0000 0.0000 0.0000
# 4 -3.7276 3.7276 0.0000 13.5863 0.0000 -0.0001
# 5 0.0001 -0.0001 0.0000 0.0000 13.5863 -3.7276
# 6 0.0000 0.0000 0.0000 -0.0001 -3.7276 9.1929
#
#
#
# Elastic Compliance Matrix: (Units=1/GPa)
#
#
# Indices 1 2 3 4 5 6 
#
# 1 0.041520 -0.019679 -0.003809 0.016791 0.000000 0.000000
# 2 -0.019679 0.041520 -0.003809 -0.016791 0.000000 0.000000
# 3 -0.003809 -0.003809 0.011683 0.000000 0.000000 0.000000
# 4 0.016791 -0.016791 0.000000 0.082817 0.000000 0.000001
# 5 0.000000 0.000000 0.000000 0.000000 0.082817 0.033582
# 6 0.000000 0.000000 0.000000 0.000001 0.033582 0.122397
#
#
# Mechanical properties :
#
#
# Convention : Reuss Voigt Hill
#
# Bulk Modulus (GPa) = 24.91990 29.69683 27.30837
# Shear Modulus (GPa) = 11.09329 15.02661 13.05995
#
# Velocity S-wave (km/s) = 2.28076 2.65448 2.47468
# Velocity P-wave (km/s) = 4.31523 4.82913 4.57939
#
# Compressibility (1/GPa) = 0.04012856
#
# Stress axis : x y z
#
# Youngs Moduli (GPa) = 24.08502 24.08502 85.59709
#
# Poissons Ratio (x) = 0.47397 0.32603
# Poissons Ratio (y) = 0.47397 0.32603
# Poissons Ratio (z) = 0.09174 0.09174
#
# Static dielectric constant tensor:
#      x y z
#    x 1.883450 0.000000 0.000000 
#    y 0.000000 1.883450 0.000000 
#    z 0.000000 0.000000 0.865010 
# 
# From -- ./inp_files/1137.got.cif
#   From: 2010.05.17/outbox.cif.g08.bks.cpg/sg152_1_cif.got.tgz:1137.got - 2010.05.20 10:36:06.
