data_PCOD9575696
_publ_section_title
;
Structure prediction by ZEFSAII (Michael W. Deem and Ramdas Pophale) SiO2 
 PCOD9575696
Probable space group: P 31 1 2
;
_chemical_formula_sum "Si O2"
_cell_formula_units_Z 24
_cell_length_a 15.982676
_cell_length_b 15.982676
_cell_length_c 5.019994
_cell_angle_alpha 90.000000
_cell_angle_beta 90.000000
_cell_angle_gamma 120.000000
_cell_volume 1110.536459
_symmetry_space_group_name_H-M "P 31 1 2"
_symmetry_group_IT_number 151
_symmetry_cell_setting 'hexagonal'
loop_
_space_group_symop_operation_xyz
x,y,z
-y,x-y,1/3+z
-x+y,-x,2/3+z
-y,-x,2/3-z
-x+y,y,1/3-z
x,x-y,-z
loop_
_atom_site_type_symbol
_atom_site_label
_atom_site_fract_x
_atom_site_fract_y
_atom_site_fract_z
Si Si1 0.475589 0.335142 0.935518
Si Si2 0.501308 0.692484 0.253439
Si Si3 0.974096 0.331257 0.898388
Si Si4 0.859849 0.834949 0.413844
O O1 0.574026 0.425975 0.833334
O O2 0.398146 0.309259 0.700451
O O3 0.488999 0.244500 0.000000
O O4 0.434851 0.359252 0.199147
O O5 0.403214 0.596787 0.333334
O O6 0.533209 0.766605 0.500000
O O7 0.582276 0.664553 0.186984
O O8 0.483791 0.741896 0.000000
O O9 0.977550 0.237010 0.988917
O O10 0.905606 0.811211 0.666667
O O11 0.841053 0.920527 0.500000
O O12 0.933830 0.867659 0.166667
#
# Coordination Sequence:
#
# PCOD9575696 Si02
#       4
#     6   6   6   6
#     4  12  26  46  71 101 135 176 222 276 336 400
#     4  12  25  44  69 100 136 178 224 276 333 396
#     4  12  26  46  70 100 136 178 224 276 334 398
#     4  12  25  44  68  99 137 180 226 276 331 394
#
# _framework density 21.611177000000001
#
# number of rings (size 3 to 8) (size 9 to 14) (size 15 to 20)
#    0.000    0.000    0.000   12.000    0.000    4.000 
#    0.000    0.000    0.000    0.000    0.000    0.000 
#    0.000    0.000    0.000    0.000    0.000    0.000 
#
# Total GULP energy -134687.100765 kJ/mol
# GULP energy per Si atom -5611.962532 kJ/mol
# Density = 2.156199 g / cm^3
# Si number density = 21.611177 Si / 1000 Ang^3
#
#
#
# Elastic Constant Matrix: (Units=GPa)
#
#
# Indices 1 2 3 4 5 6 
#
# 1 111.4420 60.0185 20.0942 -0.0007 0.4476 0.0000
# 2 60.0185 111.4420 20.0942 0.0007 -0.4476 0.0000
# 3 20.0942 20.0942 107.7004 0.0000 0.0000 0.0000
# 4 -0.0007 0.0007 0.0000 42.7330 0.0000 -0.4476
# 5 0.4476 -0.4476 0.0000 0.0000 42.7330 -0.0007
# 6 0.0000 0.0000 0.0000 -0.4476 -0.0007 25.7117
#
#
#
# Elastic Compliance Matrix: (Units=1/GPa)
#
#
# Indices 1 2 3 4 5 6 
#
# 1 0.012774 -0.006675 -0.001138 0.000000 -0.000204 0.000000
# 2 -0.006675 0.012774 -0.001138 0.000000 0.000204 0.000000
# 3 -0.001138 -0.001138 0.009710 0.000000 0.000000 0.000000
# 4 0.000000 0.000000 0.000000 0.023405 0.000000 0.000407
# 5 -0.000204 0.000204 0.000000 0.000000 0.023405 0.000001
# 6 0.000000 0.000000 0.000000 0.000407 0.000001 0.038900
#
#
# Mechanical properties :
#
#
# Convention : Reuss Voigt Hill
#
# Bulk Modulus (GPa) = 57.61731 58.99981 58.30856
# Shear Modulus (GPa) = 34.56452 37.59405 36.07929
#
# Velocity S-wave (km/s) = 4.00357 4.17533 4.09035
# Velocity P-wave (km/s) = 6.93471 7.11368 7.02476
#
# Compressibility (1/GPa) = 0.01735590
#
# Stress axis : x y z
#
# Youngs Moduli (GPa) = 78.28134 78.28134 102.99059
#
# Poissons Ratio (x) = 0.52257 0.11719
# Poissons Ratio (y) = 0.52257 0.11719
# Poissons Ratio (z) = 0.08908 0.08908
#
# Static dielectric constant tensor:
#      x y z
#    x 1.749590 0.000000 0.000000 
#    y 0.000000 1.749590 0.000000 
#    z 0.000000 0.000000 1.753860 
# 
# From -- ./inp_files/182.got.cif
#   From: 2010.05.17/outbox.cif.g08.bks.cpg/sg151_1_cif.got.tgz:182.got - 2010.05.20 10:33:20.
