data_PCOD9575583
_publ_section_title
;
Structure prediction by ZEFSAII (Michael W. Deem and Ramdas Pophale) SiO2 
 PCOD9575583
Probable space group: P 31 1 2
;
_chemical_formula_sum "Si O2"
_cell_formula_units_Z 18
_cell_length_a 8.747528
_cell_length_b 8.747528
_cell_length_c 11.166497
_cell_angle_alpha 90.000000
_cell_angle_beta 90.000000
_cell_angle_gamma 120.000000
_cell_volume 739.977080
_symmetry_space_group_name_H-M "P 31 1 2"
_symmetry_group_IT_number 151
_symmetry_cell_setting 'hexagonal'
loop_
_space_group_symop_operation_xyz
x,y,z
-y,x-y,1/3+z
-x+y,-x,2/3+z
-y,-x,2/3-z
-x+y,y,1/3-z
x,x-y,-z
loop_
_atom_site_type_symbol
_atom_site_label
_atom_site_fract_x
_atom_site_fract_y
_atom_site_fract_z
Si Si1 0.506606 0.841723 0.329342
Si Si2 0.243959 0.281514 0.775907
Si Si3 0.869497 0.371665 0.130215
O O1 0.364622 0.635379 0.333334
O O2 0.671698 0.878895 0.243564
O O3 0.387292 0.913692 0.270067
O O4 0.555213 0.960472 0.449010
O O5 0.350426 0.180878 0.789472
O O6 0.103708 0.207415 0.666667
O O7 0.691107 0.382213 0.166667
O O8 0.909106 0.454553 0.000000
#
# Coordination Sequence:
#
# PCOD9575583 Si02
#       3
#     6   6   6
#     4  10  21  37  63 102 148 195 263 323 381 458
#     4  10  20  37  64  99 149 187 253 329 382 446
#     4  12  20  38  69 110 145 204 263 316 382 470
#
# _framework density 24.325075999999999
#
# number of rings (size 3 to 8) (size 9 to 14) (size 15 to 20)
#    0.000    1.333    6.667    1.000    0.000    1.333 
#    0.000    5.000    0.000    4.000    0.000   28.000 
#    0.000    0.000    0.000    0.000    0.000    0.000 
#
# Total GULP energy -100295.598393 kJ/mol
# GULP energy per Si atom -5571.977688 kJ/mol
# Density = 2.426971 g / cm^3
# Si number density = 24.325076 Si / 1000 Ang^3
#
#
#
# Elastic Constant Matrix: (Units=GPa)
#
#
# Indices 1 2 3 4 5 6 
#
# 1 109.3295 89.0124 95.2569 -0.0005 0.3860 0.0000
# 2 89.0124 109.3295 95.2569 0.0005 -0.3860 0.0000
# 3 95.2569 95.2569 221.2317 0.0000 0.0000 0.0000
# 4 -0.0005 0.0005 0.0000 28.4195 0.0000 -0.3860
# 5 0.3860 -0.3860 0.0000 0.0000 28.4195 -0.0005
# 6 0.0000 0.0000 0.0000 -0.3860 -0.0005 10.1586
#
#
#
# Elastic Compliance Matrix: (Units=1/GPa)
#
#
# Indices 1 2 3 4 5 6 
#
# 1 0.028921 -0.020324 -0.003702 0.000001 -0.000669 0.000000
# 2 -0.020324 0.028921 -0.003702 -0.000001 0.000669 0.000000
# 3 -0.003702 -0.003702 0.007708 0.000000 0.000000 0.000000
# 4 0.000001 -0.000001 0.000000 0.035205 0.000000 0.001338
# 5 -0.000669 0.000669 0.000000 0.000000 0.035205 0.000002
# 6 0.000000 0.000000 0.000000 0.001338 0.000002 0.098490
#
#
# Mechanical properties :
#
#
# Convention : Reuss Voigt Hill
#
# Bulk Modulus (GPa) = 99.05300 110.99367 105.02333
# Shear Modulus (GPa) = 17.04907 24.09048 20.56977
#
# Velocity S-wave (km/s) = 2.65029 3.15041 2.91111
# Velocity P-wave (km/s) = 7.08339 7.67866 7.38702
#
# Compressibility (1/GPa) = 0.01009561
#
# Stress axis : x y z
#
# Youngs Moduli (GPa) = 34.57666 34.57666 129.73444
#
# Poissons Ratio (x) = 0.70272 0.48027
# Poissons Ratio (y) = 0.70272 0.48027
# Poissons Ratio (z) = 0.12800 0.12800
#
# Static dielectric constant tensor:
#      x y z
#    x 2.039750 0.000000 0.000000 
#    y 0.000000 2.039750 0.000000 
#    z 0.000000 0.000000 2.319780 
# 
# From -- ./inp_files/2184.got.cif
#   From: 2010.05.17/outbox.cif.g08.bks.cpg/sg151_2_cif.got.tgz:2184.got - 2010.05.20 10:33:20.
