data_PCOD9575882
_publ_section_title
;
Structure prediction by ZEFSAII (Michael W. Deem and Ramdas Pophale) SiO2 
 PCOD9575882
Probable space group: P 31 2 1
;
_chemical_formula_sum "Si O2"
_cell_formula_units_Z 30
_cell_length_a 16.831507
_cell_length_b 16.831507
_cell_length_c 5.873399
_cell_angle_alpha 90.000000
_cell_angle_beta 90.000000
_cell_angle_gamma 120.000000
_cell_volume 1441.007167
_symmetry_space_group_name_H-M "P 31 2 1"
_symmetry_group_IT_number 152
_symmetry_cell_setting 'hexagonal'
loop_
_space_group_symop_operation_xyz
x,y,z
-y,x-y,1/3+z
-x+y,-x,2/3+z
x-y,-y,2/3-z
-x,-x+y,1/3-z
y,x,-z
loop_
_atom_site_type_symbol
_atom_site_label
_atom_site_fract_x
_atom_site_fract_y
_atom_site_fract_z
Si Si1 0.126295 0.706114 0.844399
Si Si2 0.281762 0.855237 0.123076
Si Si3 0.259160 0.000000 0.833334
Si Si4 0.700518 0.840807 0.145818
Si Si5 0.767781 0.388896 0.729533
Si Si6 0.723061 0.000000 0.833334
O O1 0.135238 0.778481 0.654962
O O2 0.162961 0.644076 0.736474
O O3 0.196832 0.758119 0.049288
O O4 0.031621 0.678956 0.967096
O O5 0.254597 0.881691 0.360943
O O6 0.363738 0.834469 0.131276
O O7 0.281093 0.926527 0.946755
O O8 0.182694 0.947751 0.636520
O O9 0.737653 0.919752 0.949368
O O10 0.704647 0.305080 0.555474
#
# Coordination Sequence:
#
# PCOD9575882 Si02
#       6
#     6   6   3   6   6   3
#     4  10  21  38  63  89 127 171 227 270 327 384
#     4  10  21  38  63  89 127 171 227 270 327 384
#     4  10  22  40  65  92 132 171 214 286 328 405
#     4  10  20  40  62  92 126 171 216 271 336 390
#     4  12  22  38  65  90 128 194 232 270 319 376
#     4  10  22  40  65  92 132 171 214 286 328 405
#
# _framework density 20.818771999999999
#
# number of rings (size 3 to 8) (size 9 to 14) (size 15 to 20)
#    0.000    1.600    4.000    1.200    0.000    0.000 
#    0.000    6.000    8.800    0.000    0.000    0.000 
#    0.000  944.000    0.000    0.000    0.000    0.000 
#
# Total GULP energy -167097.719095 kJ/mol
# GULP energy per Si atom -5569.923970 kJ/mol
# Density = 2.077139 g / cm^3
# Si number density = 20.818772 Si / 1000 Ang^3
#
#
#
# Elastic Constant Matrix: (Units=GPa)
#
#
# Indices 1 2 3 4 5 6 
#
# 1 71.7568 32.3664 18.5773 1.6440 0.0000 0.0000
# 2 32.3664 71.7568 18.5773 -1.6440 0.0000 0.0000
# 3 18.5773 18.5773 65.3391 0.0000 0.0000 0.0000
# 4 1.6440 -1.6440 0.0000 24.5235 0.0000 0.0000
# 5 0.0000 0.0000 0.0000 0.0000 24.5235 1.6440
# 6 0.0000 0.0000 0.0000 0.0000 1.6440 19.6952
#
#
#
# Elastic Compliance Matrix: (Units=1/GPa)
#
#
# Indices 1 2 3 4 5 6 
#
# 1 0.018109 -0.007421 -0.003039 -0.001711 0.000000 0.000000
# 2 -0.007421 0.018109 -0.003039 0.001711 0.000000 0.000000
# 3 -0.003039 -0.003039 0.017033 0.000000 0.000000 0.000000
# 4 -0.001711 0.001711 0.000000 0.041007 0.000000 0.000000
# 5 0.000000 0.000000 0.000000 0.000000 0.041007 -0.003423
# 6 0.000000 0.000000 0.000000 0.000000 -0.003423 0.051059
#
#
# Mechanical properties :
#
#
# Convention : Reuss Voigt Hill
#
# Bulk Modulus (GPa) = 38.08962 38.65498 38.37230
# Shear Modulus (GPa) = 22.51521 23.03723 22.77622
#
# Velocity S-wave (km/s) = 3.29216 3.33011 3.31119
# Velocity P-wave (km/s) = 5.72596 5.77874 5.75241
#
# Compressibility (1/GPa) = 0.02625387
#
# Stress axis : x y z
#
# Youngs Moduli (GPa) = 55.22098 55.22098 58.71011
#
# Poissons Ratio (x) = 0.40978 0.17842
# Poissons Ratio (y) = 0.40978 0.17842
# Poissons Ratio (z) = 0.16781 0.16781
#
# Static dielectric constant tensor:
#      x y z
#    x 1.816550 0.000000 0.000000 
#    y 0.000000 1.816550 0.000000 
#    z 0.000000 0.000000 1.826640 
# 
# From -- ./inp_files/371.got.cif
#   From: 2010.05.17/outbox.cif.g08.bks.cpg/sg152_1_cif.got.tgz:371.got - 2010.05.20 10:36:06.
