data_PCOD9575007
_publ_section_title
;
Structure prediction by ZEFSAII (Michael W. Deem and Ramdas Pophale) SiO2 
 PCOD9575007
Probable space group: R -3
;
_chemical_formula_sum "Si O2"
_cell_formula_units_Z 102
_cell_length_a 17.236030
_cell_length_b 17.236030
_cell_length_c 18.388495
_cell_angle_alpha 90.000000
_cell_angle_beta 90.000000
_cell_angle_gamma 120.000000
_cell_volume 4730.982051
_symmetry_space_group_name_H-M "R -3"
_symmetry_group_IT_number 148
_symmetry_cell_setting 'hexagonal'
loop_
_space_group_symop_operation_xyz
x,y,z
-y,x-y,z
-x+y,-x,z
-x,-y,-z
y,-x+y,-z
x-y,x,-z
2/3+x,1/3+y,1/3+z
2/3-y,1/3+x-y,1/3+z
2/3-x+y,1/3-x,1/3+z
2/3-x,1/3-y,1/3-z
2/3+y,1/3-x+y,1/3-z
2/3+x-y,1/3+x,1/3-z
1/3+x,2/3+y,2/3+z
1/3-y,2/3+x-y,2/3+z
1/3-x+y,2/3-x,2/3+z
1/3-x,2/3-y,2/3-z
1/3+y,2/3-x+y,2/3-z
1/3+x-y,2/3+x,2/3-z
loop_
_atom_site_type_symbol
_atom_site_label
_atom_site_fract_x
_atom_site_fract_y
_atom_site_fract_z
Si Si1 0.666668 0.333334 0.719779
Si Si2 0.582436 0.534044 0.087193
Si Si3 0.666668 0.333334 0.119248
Si Si4 0.453680 0.925560 0.402323
Si Si5 0.428779 0.842532 0.787409
Si Si6 0.544474 0.759571 0.760400
Si Si7 0.856613 0.485919 0.972025
O O1 0.666668 0.333334 0.632290
O O2 0.561089 0.264384 0.735668
O O3 0.686797 0.575693 0.068303
O O4 0.566102 0.497013 0.169723
O O5 0.539538 0.447765 0.033570
O O6 0.547292 0.604011 0.077630
O O7 0.619375 0.233891 0.150066
O O8 0.464943 0.902446 0.486018
O O9 0.478092 0.869482 0.346878
O O10 0.515835 0.029924 0.386988
O O11 0.480127 0.800233 0.745800
O O12 0.346311 0.840660 0.747594
#
# Coordination Sequence:
#
# PCOD9575007 Si02
#       7
#     6  18   6  18  18  18  18
#     4  12  15  30  51  69  87 118 169 196 244 285
#     4  10  19  29  47  70 102 122 158 206 249 294
#     4   9  12  21  45  69  87 111 155 206 234 261
#     4  10  18  32  46  74 102 126 163 208 257 284
#     4   9  14  28  46  73  96 125 161 197 246 287
#     4   9  17  27  52  73  97 128 163 213 245 289
#     4  11  19  29  49  74  94 129 156 205 253 290
#
# _framework density 21.560005
#
# number of rings (size 3 to 8) (size 9 to 14) (size 15 to 20)
#    0.000    2.118    5.294    1.412    0.000    0.000 
#    0.000    1.765    0.000    0.000    0.000    1.235 
#    0.000    1.412    0.000    0.000    0.000    0.000 
#
# Total GULP energy -189605.778344 kJ/mol
# GULP energy per Si atom -5576.640540 kJ/mol
# Density = 2.151093 g / cm^3
# Si number density = 21.560005 Si / 1000 Ang^3
#
#
#
# Elastic Constant Matrix: (Units=GPa)
#
#
# Indices 1 2 3 4 5 6 
#
# 1 143.2098 56.9417 17.1832 -13.1307 6.3552 -0.0001
# 2 56.9417 143.2106 17.1833 13.1305 -6.3553 -0.0001
# 3 17.1832 17.1833 41.4385 -0.0002 -0.0002 0.0000
# 4 -13.1307 13.1305 -0.0002 -7.5926 0.0005 -6.3552
# 5 6.3552 -6.3553 -0.0002 0.0005 -7.5933 -13.1303
# 6 -0.0001 -0.0001 0.0000 -6.3552 -13.1303 43.1340
#
#
#
# Elastic Compliance Matrix: (Units=1/GPa)
#
#
# Indices 1 2 3 4 5 6 
#
# 1 0.006203 -0.000824 -0.002231 -0.012151 0.005880 0.000000
# 2 -0.000824 0.006203 -0.002231 0.012151 -0.005880 0.000000
# 3 -0.002231 -0.002231 0.025982 0.000000 0.000000 0.000000
# 4 -0.012151 0.012151 0.000000 -0.079834 -0.000004 -0.011763
# 5 0.005880 -0.005880 0.000000 -0.000004 -0.079830 -0.024301
# 6 0.000000 0.000000 0.000000 -0.011763 -0.024301 0.014053
#
#
# Mechanical properties :
#
#
# Convention : Reuss Voigt Hill
#
# Bulk Modulus (GPa) = 35.94781 56.71947 46.33364
# Shear Modulus (GPa) = -57.22066 21.35968 -17.93049
#
# Velocity S-wave (km/s) = -5.15731 3.15097 -2.88697
# Velocity P-wave (km/s) = 4.33061 6.29309 3.22868
#
# Compressibility (1/GPa) = 0.02781811
#
# Stress axis : x y z
#
# Youngs Moduli (GPa) = 161.21698 161.21732 38.48813
#
# Poissons Ratio (x) = 0.13278 0.08585
# Poissons Ratio (y) = 0.13278 0.08585
# Poissons Ratio (z) = 0.35961 0.35961
#
# Static dielectric constant tensor:
#      x y z
#    x 1.820460 0.000000 0.000000 
#    y 0.000000 1.820460 0.000000 
#    z 0.000000 0.000000 1.835280 
# 
# From -- ./inp_files/4055.got.cif
#   From: 2010.05.17/outbox.cif.g08.bks.cpg/sg148_3_cif.got.tgz:4055.got - 2010.05.20 13:50:20.
