data_PCOD9575484
_publ_section_title
;
Structure prediction by ZEFSAII (Michael W. Deem and Ramdas Pophale) SiO2 
 PCOD9575484
Probable space group: P 3 2 1
;
_chemical_formula_sum "Si O2"
_cell_formula_units_Z 21
_cell_length_a 8.757661
_cell_length_b 8.757661
_cell_length_c 16.958354
_cell_angle_alpha 90.000000
_cell_angle_beta 90.000000
_cell_angle_gamma 120.000000
_cell_volume 1126.394675
_symmetry_space_group_name_H-M "P 3 2 1"
_symmetry_group_IT_number 150
_symmetry_cell_setting 'hexagonal'
loop_
_space_group_symop_operation_xyz
x,y,z
-y,x-y,z
-x+y,-x,z
x-y,-y,-z
-x,-x+y,-z
y,x,-z
loop_
_atom_site_type_symbol
_atom_site_label
_atom_site_fract_x
_atom_site_fract_y
_atom_site_fract_z
Si Si1 0.335094 0.999730 0.594240
Si Si2 0.203085 0.202675 0.827291
Si Si3 0.332979 0.332517 0.659229
Si Si4 0.202290 0.202290 0.000000
O O1 0.188686 0.809299 0.625191
O O2 0.343540 0.000000 0.500000
O O3 0.286518 0.143982 0.623859
O O4 0.522016 0.046462 0.630717
O O5 0.313310 0.313094 0.753442
O O6 0.277907 0.277623 0.914204
O O7 0.000317 0.163655 0.821719
O O8 0.163613 0.000000 0.000000
#
# Coordination Sequence:
#
# PCOD9575484 Si02
#       4
#     6   6   6   3
#     4  12  24  39  57  82 111 153 196 246 293 337
#     4   8  13  30  55  88 114 146 185 222 285 338
#     4  12  23  40  60  82 117 149 197 241 286 351
#     4   6  10  20  50  86 116 140 178 224 264 346
#
# _framework density 18.643554999999999
#
# number of rings (size 3 to 8) (size 9 to 14) (size 15 to 20)
#    0.857    1.143    2.857    4.286    0.000    0.000 
#    0.000    0.000    0.000    3.429    0.000    0.000 
#    0.000    0.000    0.000    0.000    0.000    0.000 
#
# Total GULP energy -116965.941602 kJ/mol
# GULP energy per Si atom -5569.806743 kJ/mol
# Density = 1.860112 g / cm^3
# Si number density = 18.643555 Si / 1000 Ang^3
#
#
#
# Elastic Constant Matrix: (Units=GPa)
#
#
# Indices 1 2 3 4 5 6 
#
# 1 36.1278 -11.5197 21.1084 -2.7883 0.0000 0.0000
# 2 -11.5197 36.1278 21.1084 2.7883 0.0000 0.0000
# 3 21.1084 21.1084 235.5205 0.0000 0.0000 0.0000
# 4 -2.7883 2.7883 0.0000 19.5579 0.0000 0.0000
# 5 0.0000 0.0000 0.0000 0.0000 19.5579 -2.7883
# 6 0.0000 0.0000 0.0000 0.0000 -2.7883 23.8237
#
#
#
# Elastic Compliance Matrix: (Units=1/GPa)
#
#
# Indices 1 2 3 4 5 6 
#
# 1 0.034682 0.013338 -0.004304 0.003043 0.000000 0.000000
# 2 0.013338 0.034682 -0.004304 -0.003043 0.000000 0.000000
# 3 -0.004304 -0.004304 0.005017 0.000000 0.000000 0.000000
# 4 0.003043 -0.003043 0.000000 0.051998 0.000000 0.000000
# 5 0.000000 0.000000 0.000000 0.000000 0.051998 0.006086
# 6 0.000000 0.000000 0.000000 0.000000 0.006086 0.042687
#
#
# Mechanical properties :
#
#
# Convention : Reuss Voigt Hill
#
# Bulk Modulus (GPa) = 11.92704 41.01892 26.47298
# Shear Modulus (GPa) = 20.87243 31.05983 25.96613
#
# Velocity S-wave (km/s) = 3.34960 4.08607 3.73603
# Velocity P-wave (km/s) = 4.62288 6.65663 5.73070
#
# Compressibility (1/GPa) = 0.08384312
#
# Stress axis : x y z
#
# Youngs Moduli (GPa) = 28.83335 28.83335 199.30769
#
# Poissons Ratio (x) = -0.38459 0.85778
# Poissons Ratio (y) = -0.38459 0.85778
# Poissons Ratio (z) = 0.12409 0.12409
#
# Static dielectric constant tensor:
#      x y z
#    x 1.642180 0.000000 0.000000 
#    y 0.000000 1.642180 0.000000 
#    z 0.000000 0.000000 1.668680 
# 
# From -- ./inp_files/1079.got.cif
#   From: 2010.05.17/outbox.cif.g08.bks.cpg/sg150_cif.got.tgz:1079.got - 2010.05.20 13:53:18.
