data_PCOD9575847
_publ_section_title
;
Structure prediction by ZEFSAII (Michael W. Deem and Ramdas Pophale) SiO2 
 PCOD9575847
Probable space group: P 31 2 1
;
_chemical_formula_sum "Si O2"
_cell_formula_units_Z 45
_cell_length_a 11.018538
_cell_length_b 11.018538
_cell_length_c 20.704107
_cell_angle_alpha 90.000000
_cell_angle_beta 90.000000
_cell_angle_gamma 120.000000
_cell_volume 2176.882974
_symmetry_space_group_name_H-M "P 31 2 1"
_symmetry_group_IT_number 152
_symmetry_cell_setting 'hexagonal'
loop_
_space_group_symop_operation_xyz
x,y,z
-y,x-y,1/3+z
-x+y,-x,2/3+z
x-y,-y,2/3-z
-x,-x+y,1/3-z
y,x,-z
loop_
_atom_site_type_symbol
_atom_site_label
_atom_site_fract_x
_atom_site_fract_y
_atom_site_fract_z
Si Si1 0.944640 0.643241 0.912729
Si Si2 0.654588 0.753034 0.824946
Si Si3 0.104706 0.150889 0.866638
Si Si4 0.150787 0.348395 0.633901
Si Si5 0.754343 0.431707 0.698728
Si Si6 0.739784 0.000000 0.333334
Si Si7 0.375806 0.680092 0.757481
Si Si8 0.564090 0.147366 0.148103
O O1 0.932617 0.737908 0.856744
O O2 0.815532 0.483993 0.909731
O O3 0.080217 0.635059 0.894931
O O4 0.930576 0.683370 0.985729
O O5 0.796889 0.817705 0.784604
O O6 0.691252 0.833108 0.892865
O O7 0.525607 0.756933 0.791485
O O8 0.607386 0.587510 0.836916
O O9 0.188592 0.176598 0.933723
O O10 0.046310 0.000000 0.833334
O O11 0.191826 0.511944 0.632246
O O12 0.000000 0.265875 0.666667
O O13 0.869027 0.584047 0.675038
O O14 0.628900 0.362534 0.646825
O O15 0.707622 0.453460 0.768583
O O16 0.243558 0.668433 0.796209
#
# Coordination Sequence:
#
# PCOD9575847 Si02
#       8
#     6   6   6   6   6   3   6   6
#     4  10  22  38  62  97 131 167 214 269 318 383
#     4  11  21  39  64  93 131 166 212 271 322 380
#     4  12  26  45  63  91 131 178 220 264 314 393
#     4  11  19  35  66  99 124 163 218 272 327 380
#     4  11  21  37  66  99 126 165 212 271 333 389
#     4  12  24  42  70  90 124 174 224 262 330 394
#     4  10  20  36  65  98 128 161 208 272 335 378
#     4  11  20  38  65  97 133 158 210 282 330 374
#
# _framework density 20.671756999999999
#
# number of rings (size 3 to 8) (size 9 to 14) (size 15 to 20)
#    0.000    1.067    6.000    1.600    1.867    1.067 
#    4.800    0.000    0.000    0.800    0.000    0.000 
#    0.000    0.000    0.000    0.000    0.000    0.000 
#
# Total GULP energy -251243.648607 kJ/mol
# GULP energy per Si atom -5583.192191 kJ/mol
# Density = 2.062471 g / cm^3
# Si number density = 20.671757 Si / 1000 Ang^3
#
#
#
# Elastic Constant Matrix: (Units=GPa)
#
#
# Indices 1 2 3 4 5 6 
#
# 1 37.5396 6.7219 3.3358 -0.1825 0.0002 0.0000
# 2 6.7219 37.5396 3.3358 0.1825 -0.0002 0.0000
# 3 3.3358 3.3358 88.5625 0.0000 0.0000 0.0000
# 4 -0.1825 0.1825 0.0000 33.1894 0.0000 -0.0002
# 5 0.0002 -0.0002 0.0000 0.0000 33.1894 -0.1825
# 6 0.0000 0.0000 0.0000 -0.0002 -0.1825 15.4089
#
#
#
# Elastic Compliance Matrix: (Units=1/GPa)
#
#
# Indices 1 2 3 4 5 6 
#
# 1 0.027586 -0.004865 -0.000856 0.000178 0.000000 0.000000
# 2 -0.004865 0.027586 -0.000856 -0.000178 0.000000 0.000000
# 3 -0.000856 -0.000856 0.011356 0.000000 0.000000 0.000000
# 4 0.000178 -0.000178 0.000000 0.030132 0.000000 0.000000
# 5 0.000000 0.000000 0.000000 0.000000 0.030132 0.000357
# 6 0.000000 0.000000 0.000000 0.000000 0.000357 0.064902
#
#
# Mechanical properties :
#
#
# Convention : Reuss Voigt Hill
#
# Bulk Modulus (GPa) = 18.73483 21.15874 19.94678
# Shear Modulus (GPa) = 22.45783 26.37408 24.41596
#
# Velocity S-wave (km/s) = 3.29964 3.57578 3.44048
# Velocity P-wave (km/s) = 4.85793 5.22552 5.04507
#
# Compressibility (1/GPa) = 0.05337652
#
# Stress axis : x y z
#
# Youngs Moduli (GPa) = 36.24964 36.24964 88.05971
#
# Poissons Ratio (x) = 0.17634 0.07536
# Poissons Ratio (y) = 0.17634 0.07536
# Poissons Ratio (z) = 0.03102 0.03102
#
# Static dielectric constant tensor:
#      x y z
#    x 1.767760 0.000000 0.000000 
#    y 0.000000 1.767760 0.000000 
#    z 0.000000 0.000000 1.902040 
# 
# From -- ./inp_files/2522.got.cif
#   From: 2010.05.17/outbox.cif.g08.bks.cpg/sg152_2_cif.got.tgz:2522.got - 2010.05.20 10:36:06.
