data_PCOD9575348
_publ_section_title
;
Structure prediction by ZEFSAII (Michael W. Deem and Ramdas Pophale) SiO2 
 PCOD9575348
Probable space group: P 3 1 2
;
_chemical_formula_sum "Si O2"
_cell_formula_units_Z 36
_cell_length_a 20.211653
_cell_length_b 20.211653
_cell_length_c 5.449261
_cell_angle_alpha 90.000000
_cell_angle_beta 90.000000
_cell_angle_gamma 120.000000
_cell_volume 1927.844089
_symmetry_space_group_name_H-M "P 3 1 2"
_symmetry_group_IT_number 149
_symmetry_cell_setting 'hexagonal'
loop_
_space_group_symop_operation_xyz
x,y,z
-y,x-y,z
-x+y,-x,z
-y,-x,-z
-x+y,y,-z
x,x-y,-z
loop_
_atom_site_type_symbol
_atom_site_label
_atom_site_fract_x
_atom_site_fract_y
_atom_site_fract_z
Si Si1 0.052981 0.247573 0.453524
Si Si2 0.196975 0.023981 0.954636
Si Si3 0.136360 0.493674 0.454634
Si Si4 0.138743 0.719648 0.046478
Si Si5 0.976338 0.620112 0.543986
Si Si6 0.356996 0.310443 0.043985
O O1 0.143224 0.286448 0.500000
O O2 0.020062 0.305706 0.454347
O O3 0.030823 0.204976 0.192010
O O4 0.014870 0.191285 0.686717
O O5 0.289643 0.066025 0.956630
O O6 0.170884 0.085442 0.000000
O O7 0.162453 0.581227 0.500000
O O8 0.156921 0.475384 0.186713
O O9 0.043693 0.443051 0.456628
O O10 0.159182 0.461692 0.692007
O O11 0.047690 0.686728 0.045654
O O12 0.190110 0.809891 0.000000
O O13 0.930038 0.596450 0.794284
O O14 0.929785 0.596703 0.294284
#
# Coordination Sequence:
#
# PCOD9575348 Si02
#       6
#     6   6   6   6   6   6
#     4  10  19  31  48  65  79 100 135 175 207 235
#     4  10  19  30  44  62  82 102 123 155 207 255
#     4  10  19  30  44  62  82 102 123 155 207 255
#     4  10  19  31  48  65  79 100 135 175 207 235
#     4   8  16  27  42  63  81  96 122 160 199 234
#     4   8  16  27  42  63  81  96 122 160 199 234
#
# _framework density 18.67371
#
# number of rings (size 3 to 8) (size 9 to 14) (size 15 to 20)
#    0.000    2.667    0.000    2.000    0.000   12.000 
#    0.000    0.000    0.000   13.333    0.000    0.000 
#    0.000    0.000    0.000    0.000    0.000    0.000 
#
# Total GULP energy -200573.521363 kJ/mol
# GULP energy per Si atom -5571.486705 kJ/mol
# Density = 1.863121 g / cm^3
# Si number density = 18.673710 Si / 1000 Ang^3
#
#
#
# Elastic Constant Matrix: (Units=GPa)
#
#
# Indices 1 2 3 4 5 6 
#
# 1 18.6367 6.0281 -1.7774 -0.0001 1.9127 0.0000
# 2 6.0281 18.6367 -1.7774 0.0001 -1.9127 0.0000
# 3 -1.7774 -1.7774 167.7311 0.0000 0.0000 0.0000
# 4 -0.0001 0.0001 0.0000 15.6134 0.0000 -1.9127
# 5 1.9127 -1.9127 0.0000 0.0000 15.6134 -0.0001
# 6 0.0000 0.0000 0.0000 -1.9127 -0.0001 6.3043
#
#
#
# Elastic Compliance Matrix: (Units=1/GPa)
#
#
# Indices 1 2 3 4 5 6 
#
# 1 0.061489 -0.020884 0.000430 0.000001 -0.010091 0.000000
# 2 -0.020884 0.061489 0.000430 -0.000001 0.010091 0.000000
# 3 0.000430 0.000430 0.005971 0.000000 0.000000 0.000000
# 4 0.000001 -0.000001 0.000000 0.066520 0.000000 0.020182
# 5 -0.010091 0.010091 0.000000 0.000000 0.066520 0.000001
# 6 0.000000 0.000000 0.000000 0.020182 0.000001 0.164746
#
#
# Mechanical properties :
#
#
# Convention : Reuss Voigt Hill
#
# Bulk Modulus (GPa) = 11.24818 23.32790 17.28804
# Shear Modulus (GPa) = 10.07221 21.00831 15.54026
#
# Velocity S-wave (km/s) = 2.32497 3.35777 2.88792
# Velocity P-wave (km/s) = 3.63922 5.24903 4.51643
#
# Compressibility (1/GPa) = 0.08890328
#
# Stress axis : x y z
#
# Youngs Moduli (GPa) = 16.26302 16.26302 167.47497
#
# Poissons Ratio (x) = 0.33963 -0.07206
# Poissons Ratio (y) = 0.33963 -0.07206
# Poissons Ratio (z) = -0.00700 -0.00700
#
# Static dielectric constant tensor:
#      x y z
#    x 1.648380 0.000000 0.000000 
#    y 0.000000 1.648380 0.000000 
#    z 0.000000 0.000000 1.766170 
# 
# From -- ./inp_files/172.got.cif
#   From: 2010.05.17/outbox.cif.g08.bks.cpg/sg149_cif.got.tgz:172.got - 2010.05.20 13:52:34.
