data_PCOD9575056
_publ_section_title
;
Structure prediction by ZEFSAII (Michael W. Deem and Ramdas Pophale) SiO2 
 PCOD9575056
Probable space group: R -3
;
_chemical_formula_sum "Si O2"
_cell_formula_units_Z 120
_cell_length_a 17.825574
_cell_length_b 17.825574
_cell_length_c 21.829532
_cell_angle_alpha 90.000000
_cell_angle_beta 90.000000
_cell_angle_gamma 120.000000
_cell_volume 6007.061851
_symmetry_space_group_name_H-M "R -3"
_symmetry_group_IT_number 148
_symmetry_cell_setting 'hexagonal'
loop_
_space_group_symop_operation_xyz
x,y,z
-y,x-y,z
-x+y,-x,z
-x,-y,-z
y,-x+y,-z
x-y,x,-z
2/3+x,1/3+y,1/3+z
2/3-y,1/3+x-y,1/3+z
2/3-x+y,1/3-x,1/3+z
2/3-x,1/3-y,1/3-z
2/3+y,1/3-x+y,1/3-z
2/3+x-y,1/3+x,1/3-z
1/3+x,2/3+y,2/3+z
1/3-y,2/3+x-y,2/3+z
1/3-x+y,2/3-x,2/3+z
1/3-x,2/3-y,2/3-z
1/3+y,2/3-x+y,2/3-z
1/3+x-y,2/3+x,2/3-z
loop_
_atom_site_type_symbol
_atom_site_label
_atom_site_fract_x
_atom_site_fract_y
_atom_site_fract_z
Si Si1 0.489196 0.402727 0.065518
Si Si2 0.225852 0.254960 0.335261
Si Si3 0.666667 0.333334 0.525633
Si Si4 0.690471 0.725952 0.059272
Si Si5 0.174331 0.667745 0.693355
Si Si6 0.530126 0.735503 0.019165
Si Si7 0.785778 0.267966 0.473668
Si Si8 0.666667 0.333334 0.676957
O O1 0.561336 0.464710 0.016695
O O2 0.465886 0.306206 0.046218
O O3 0.534283 0.435968 0.130041
O O4 0.404746 0.410640 0.054483
O O5 0.292697 0.297785 0.279111
O O6 0.225902 0.168799 0.351165
O O7 0.747766 0.328143 0.497572
O O8 0.666668 0.333334 0.600692
O O9 0.759877 0.786219 0.109587
O O10 0.745210 0.770700 0.996857
O O11 0.600806 0.727442 0.060155
O O12 0.266996 0.754708 0.688258
O O13 0.151981 0.615975 0.757024
O O14 0.427837 0.688339 0.033210
#
# Coordination Sequence:
#
# PCOD9575056 Si02
#       8
#    18  18   6  18  18  18  18   6
#     4  10  22  37  62  92 123 159 216 273 324 382
#     4  10  20  40  60  86 124 162 211 268 330 379
#     4  12  21  33  64  97 141 163 211 285 304 377
#     4  10  23  38  58  89 130 172 211 252 322 401
#     4  10  19  35  56  85 129 181 213 246 308 388
#     4  11  20  40  66  87 118 165 213 265 322 381
#     4  11  21  38  58  99 131 171 217 260 322 382
#     4  12  21  39  69  94 113 160 228 279 316 368
#
# _framework density 19.976489000000001
#
# number of rings (size 3 to 8) (size 9 to 14) (size 15 to 20)
#    0.000    1.500    3.000    3.750    0.000    0.000 
#    8.100    0.750    0.000    0.000    0.000    1.050 
#    0.000    0.000    0.000    0.000    0.000    0.000 
#
# Total GULP energy -222812.614798 kJ/mol
# GULP energy per Si atom -5570.315370 kJ/mol
# Density = 1.993102 g / cm^3
# Si number density = 19.976489 Si / 1000 Ang^3
#
#
#
# Elastic Constant Matrix: (Units=GPa)
#
#
# Indices 1 2 3 4 5 6 
#
# 1 96.9277 34.0787 1.0292 0.0951 4.0447 -0.0002
# 2 34.0787 96.9269 1.0290 -0.0955 -4.0447 -0.0004
# 3 1.0292 1.0290 39.5105 0.0000 0.0001 0.0000
# 4 0.0951 -0.0955 0.0000 18.7931 -0.0001 -4.0447
# 5 4.0447 -4.0447 0.0001 -0.0001 18.7936 0.0950
# 6 -0.0002 -0.0004 0.0000 -4.0447 0.0950 31.4246
#
#
#
# Elastic Compliance Matrix: (Units=1/GPa)
#
#
# Indices 1 2 3 4 5 6 
#
# 1 0.012001 -0.004364 -0.000199 -0.000083 -0.003522 0.000000
# 2 -0.004364 0.012001 -0.000199 0.000083 0.003522 0.000000
# 3 -0.000199 -0.000199 0.025320 0.000000 0.000000 0.000000
# 4 -0.000083 0.000083 0.000000 0.054728 0.000000 0.007044
# 5 -0.003522 0.003522 0.000000 0.000000 0.054727 -0.000165
# 6 0.000000 0.000000 0.000000 0.007044 -0.000165 0.032729
#
#
# Mechanical properties :
#
#
# Convention : Reuss Voigt Hill
#
# Bulk Modulus (GPa) = 25.12742 33.95991 29.54366
# Shear Modulus (GPa) = 23.33234 26.95081 25.14157
#
# Velocity S-wave (km/s) = 3.42129 3.67703 3.55146
# Velocity P-wave (km/s) = 5.31157 5.92151 5.62481
#
# Compressibility (1/GPa) = 0.03979717
#
# Stress axis : x y z
#
# Youngs Moduli (GPa) = 83.32951 83.32881 39.49436
#
# Poissons Ratio (x) = 0.36367 0.00786
# Poissons Ratio (y) = 0.36367 0.00785
# Poissons Ratio (z) = 0.01658 0.01657
#
# Static dielectric constant tensor:
#      x y z
#    x 1.731370 0.000000 0.000000 
#    y 0.000000 1.731370 0.000000 
#    z 0.000000 0.000000 1.730290 
# 
# From -- ./inp_files/3473.got.cif
#   From: 2010.05.17/outbox.cif.g08.bks.cpg/sg148_2_cif.got.tgz:3473.got - 2010.05.20 13:50:20.
