data_PCOD9575854
_publ_section_title
;
Structure prediction by ZEFSAII (Michael W. Deem and Ramdas Pophale) SiO2 
 PCOD9575854
Probable space group: P 31 2 1
;
_chemical_formula_sum "Si O2"
_cell_formula_units_Z 33
_cell_length_a 9.160613
_cell_length_b 9.160613
_cell_length_c 24.116381
_cell_angle_alpha 90.000000
_cell_angle_beta 90.000000
_cell_angle_gamma 120.000000
_cell_volume 1752.636454
_symmetry_space_group_name_H-M "P 31 2 1"
_symmetry_group_IT_number 152
_symmetry_cell_setting 'hexagonal'
loop_
_space_group_symop_operation_xyz
x,y,z
-y,x-y,1/3+z
-x+y,-x,2/3+z
x-y,-y,2/3-z
-x,-x+y,1/3-z
y,x,-z
loop_
_atom_site_type_symbol
_atom_site_label
_atom_site_fract_x
_atom_site_fract_y
_atom_site_fract_z
Si Si1 0.447038 0.000000 0.333334
Si Si2 0.522955 0.723078 0.109736
Si Si3 0.273741 0.088090 0.512159
Si Si4 0.378149 0.805103 0.845395
Si Si5 0.465722 0.088268 0.610321
Si Si6 0.278253 0.633019 0.963623
O O1 0.419721 0.096978 0.281589
O O2 0.604475 0.153771 0.364037
O O3 0.664544 0.748087 0.153570
O O4 0.335041 0.589349 0.133541
O O5 0.498385 0.882856 0.098820
O O6 0.121552 0.121552 0.500000
O O7 0.442999 0.250004 0.488531
O O8 0.318518 0.093843 0.576672
O O9 0.304267 0.730400 0.905685
O O10 0.430199 0.000000 0.833334
O O11 0.554777 0.235471 0.654083
O O12 0.396998 0.910389 0.637681
#
# Coordination Sequence:
#
# PCOD9575854 Si02
#       6
#     3   6   6   6   6   6
#     4  10  22  36  62  84 120 156 200 244 312 368
#     4  10  20  39  59  90 117 161 200 254 311 371
#     4  10  20  37  61  87 117 160 205 249 315 378
#     4  10  21  36  64  88 120 160 207 254 309 373
#     4  10  24  37  61  87 121 157 203 255 306 372
#     4  11  22  40  60  90 123 157 206 256 304 376
#
# _framework density 18.828775
#
# number of rings (size 3 to 8) (size 9 to 14) (size 15 to 20)
#    0.000    1.818    3.636    0.000   10.182    0.000 
#    0.000    2.727    0.000    0.000    0.000    0.000 
#    0.000    0.000    0.000    0.000    0.000    0.000 
#
# Total GULP energy -183771.801451 kJ/mol
# GULP energy per Si atom -5568.842468 kJ/mol
# Density = 1.878592 g / cm^3
# Si number density = 18.828775 Si / 1000 Ang^3
#
#
#
# Elastic Constant Matrix: (Units=GPa)
#
#
# Indices 1 2 3 4 5 6 
#
# 1 68.1689 26.6455 13.3074 -1.6256 0.0000 0.0000
# 2 26.6455 68.1689 13.3074 1.6256 0.0000 0.0000
# 3 13.3074 13.3074 65.6944 0.0000 0.0000 0.0000
# 4 -1.6256 1.6256 0.0000 27.1103 0.0000 0.0000
# 5 0.0000 0.0000 0.0000 0.0000 27.1103 -1.6256
# 6 0.0000 0.0000 0.0000 0.0000 -1.6256 20.7617
#
#
#
# Elastic Compliance Matrix: (Units=1/GPa)
#
#
# Indices 1 2 3 4 5 6 
#
# 1 0.017690 -0.006507 -0.002265 0.001451 0.000000 0.000000
# 2 -0.006507 0.017690 -0.002265 -0.001451 0.000000 0.000000
# 3 -0.002265 -0.002265 0.016140 0.000000 0.000000 0.000000
# 4 0.001451 -0.001451 0.000000 0.037060 0.000000 0.000000
# 5 0.000000 0.000000 0.000000 0.000000 0.037060 0.002902
# 6 0.000000 0.000000 0.000000 0.000000 0.002902 0.048393
#
#
# Mechanical properties :
#
#
# Convention : Reuss Voigt Hill
#
# Bulk Modulus (GPa) = 33.96241 34.28364 34.12303
# Shear Modulus (GPa) = 24.28108 24.91461 24.59785
#
# Velocity S-wave (km/s) = 3.59496 3.64156 3.61833
# Velocity P-wave (km/s) = 5.94208 5.99407 5.96813
#
# Compressibility (1/GPa) = 0.02944432
#
# Stress axis : x y z
#
# Youngs Moduli (GPa) = 56.53043 56.53043 61.95897
#
# Poissons Ratio (x) = 0.36783 0.14035
# Poissons Ratio (y) = 0.36783 0.14035
# Poissons Ratio (z) = 0.12806 0.12806
#
# Static dielectric constant tensor:
#      x y z
#    x 1.648610 0.000000 0.000000 
#    y 0.000000 1.648610 0.000000 
#    z 0.000000 0.000000 1.683850 
# 
# From -- ./inp_files/3377.got.cif
#   From: 2010.05.17/outbox.cif.g08.bks.cpg/sg152_2_cif.got.tgz:3377.got - 2010.05.20 10:36:06.
