data_PCOD9575092
_publ_section_title
;
Structure prediction by ZEFSAII (Michael W. Deem and Ramdas Pophale) SiO2 
 PCOD9575092
Probable space group: R -3
;
_chemical_formula_sum "Si O2"
_cell_formula_units_Z 66
_cell_length_a 16.254672
_cell_length_b 16.254672
_cell_length_c 13.922128
_cell_angle_alpha 90.000000
_cell_angle_beta 90.000000
_cell_angle_gamma 120.000000
_cell_volume 3185.610505
_symmetry_space_group_name_H-M "R -3"
_symmetry_group_IT_number 148
_symmetry_cell_setting 'hexagonal'
loop_
_space_group_symop_operation_xyz
x,y,z
-y,x-y,z
-x+y,-x,z
-x,-y,-z
y,-x+y,-z
x-y,x,-z
2/3+x,1/3+y,1/3+z
2/3-y,1/3+x-y,1/3+z
2/3-x+y,1/3-x,1/3+z
2/3-x,1/3-y,1/3-z
2/3+y,1/3-x+y,1/3-z
2/3+x-y,1/3+x,1/3-z
1/3+x,2/3+y,2/3+z
1/3-y,2/3+x-y,2/3+z
1/3-x+y,2/3-x,2/3+z
1/3-x,2/3-y,2/3-z
1/3+y,2/3-x+y,2/3-z
1/3+x-y,2/3+x,2/3-z
loop_
_atom_site_type_symbol
_atom_site_label
_atom_site_fract_x
_atom_site_fract_y
_atom_site_fract_z
Si Si1 0.666667 0.333334 0.221567
Si Si2 0.901193 0.824028 0.244835
Si Si3 0.570137 0.591949 0.879116
Si Si4 0.624382 0.707338 0.423798
Si Si5 0.666668 0.333334 0.718004
O O1 0.666668 0.333335 0.333334
O O2 0.730077 0.437034 0.177738
O O3 0.789029 0.774024 0.242225
O O4 0.947681 0.758869 0.230692
O O5 0.944608 0.894127 0.337692
O O6 0.649522 0.626179 0.796998
O O7 0.466146 0.502440 0.857309
O O8 0.604899 0.567426 0.977222
O O9 0.666668 0.333335 0.833334
#
# Coordination Sequence:
#
# PCOD9575092 Si02
#       5
#     6  18  18  18   6
#     4  10  20  37  67  92 133 172 212 259 328 386
#     4  10  21  46  61 101 135 162 227 271 306 410
#     4  11  25  44  67  98 134 172 220 275 332 395
#     4  11  25  44  67  98 134 172 220 275 332 395
#     4  10  20  37  70 101 142 181 209 268 340 386
#
# _framework density 20.718163000000001
#
# number of rings (size 3 to 8) (size 9 to 14) (size 15 to 20)
#    0.000    1.636    5.455    0.818    3.818    4.364 
#    0.000    0.000    0.000    0.545    0.000    0.000 
#    0.000    0.000    0.000    0.000    0.000    0.000 
#
# Total GULP energy -122850.842018 kJ/mol
# GULP energy per Si atom -5584.129183 kJ/mol
# Density = 2.067101 g / cm^3
# Si number density = 20.718163 Si / 1000 Ang^3
#
#
#
# Elastic Constant Matrix: (Units=GPa)
#
#
# Indices 1 2 3 4 5 6 
#
# 1 61.8161 33.1181 -5.5359 5.8251 10.2250 0.0003
# 2 33.1181 61.8164 -5.5383 -5.8247 -10.2261 0.0007
# 3 -5.5359 -5.5383 101.2663 -0.0018 -0.0012 0.0003
# 4 5.8251 -5.8247 -0.0018 -1.5704 0.0000 -10.2255
# 5 10.2250 -10.2261 -0.0012 0.0000 -1.5704 5.8252
# 6 0.0003 0.0007 0.0003 -10.2255 5.8252 14.3485
#
#
#
# Elastic Compliance Matrix: (Units=1/GPa)
#
#
# Indices 1 2 3 4 5 6 
#
# 1 0.007739 0.002862 0.000580 0.018088 0.031750 0.000000
# 2 0.002862 0.007738 0.000579 -0.018087 -0.031752 0.000000
# 3 0.000580 0.000579 0.009938 -0.000002 -0.000002 -0.000001
# 4 0.018088 -0.018087 -0.000002 -0.089110 -0.000003 -0.063502
# 5 0.031750 -0.031752 -0.000002 -0.000003 -0.089107 0.036174
# 6 0.000000 0.000000 -0.000001 -0.063502 0.036174 0.009753
#
#
# Mechanical properties :
#
#
# Convention : Reuss Voigt Hill
#
# Bulk Modulus (GPa) = 29.88694 29.88738 29.88716
# Shear Modulus (GPa) = -35.72990 15.76520 -9.98235
#
# Velocity S-wave (km/s) = -4.15730 2.76150 -2.19741
# Velocity P-wave (km/s) = 2.93042 4.96234 2.83174
#
# Compressibility (1/GPa) = 0.03345943
#
# Stress axis : x y z
#
# Youngs Moduli (GPa) = 129.21344 129.22639 100.62039
#
# Poissons Ratio (x) = -0.36991 -0.05839
# Poissons Ratio (y) = -0.36987 -0.05826
# Poissons Ratio (z) = -0.07499 -0.07482
#
# Static dielectric constant tensor:
#      x y z
#    x 1.822330 -0.000020 -0.000010 
#    y -0.000020 1.822360 0.000000 
#    z -0.000010 0.000000 1.741800 
# 
# From -- ./inp_files/1891.got.cif
#   From: 2010.05.17/outbox.cif.g08.bks.cpg/sg148_1_cif.got.tgz:1891.got - 2010.05.20 13:50:20.
