data_PCOD9575818
_publ_section_title
;
Structure prediction by ZEFSAII (Michael W. Deem and Ramdas Pophale) SiO2 
 PCOD9575818
Probable space group: P 31 2 1
;
_chemical_formula_sum "Si O2"
_cell_formula_units_Z 18
_cell_length_a 8.161705
_cell_length_b 8.161705
_cell_length_c 11.652474
_cell_angle_alpha 90.000000
_cell_angle_beta 90.000000
_cell_angle_gamma 120.000000
_cell_volume 672.218656
_symmetry_space_group_name_H-M "P 31 2 1"
_symmetry_group_IT_number 152
_symmetry_cell_setting 'hexagonal'
loop_
_space_group_symop_operation_xyz
x,y,z
-y,x-y,1/3+z
-x+y,-x,2/3+z
x-y,-y,2/3-z
-x,-x+y,1/3-z
y,x,-z
loop_
_atom_site_type_symbol
_atom_site_label
_atom_site_fract_x
_atom_site_fract_y
_atom_site_fract_z
Si Si1 0.395262 0.716965 0.578925
Si Si2 0.983357 0.716781 0.043961
Si Si3 0.273629 0.247851 0.124453
O O1 0.321116 0.499170 0.602611
O O2 0.547564 0.835133 0.478007
O O3 0.214868 0.740257 0.558184
O O4 0.532435 0.826232 0.686659
O O5 0.000000 0.810610 0.166667
O O6 0.951946 0.784700 0.920474
O O7 0.176811 0.176811 0.000000
#
# Coordination Sequence:
#
# PCOD9575818 Si02
#       3
#     6   6   6
#     4  10  22  36  60  90 116 150 196 244 286 344
#     4  10  20  33  57  83 119 145 197 235 286 330
#     4  10  20  33  57  83 119 145 197 235 286 330
#
# _framework density 26.777000000000001
#
# number of rings (size 3 to 8) (size 9 to 14) (size 15 to 20)
#    2.000    0.000    0.000    6.000    0.000    0.000 
#    0.000    0.000    0.000    0.000   34.667    0.000 
#    0.000    0.000    0.000    0.000    0.000    0.000 
#
# Total GULP energy -100392.914464 kJ/mol
# GULP energy per Si atom -5577.384137 kJ/mol
# Density = 2.671605 g / cm^3
# Si number density = 26.777000 Si / 1000 Ang^3
#
#
#
# Elastic Constant Matrix: (Units=GPa)
#
#
# Indices 1 2 3 4 5 6 
#
# 1 40.2618 109.7119 83.8956 -95.5197 0.0101 0.0000
# 2 109.7119 40.2618 83.8956 95.5197 -0.0101 0.0000
# 3 83.8956 83.8956 382.4752 0.0000 0.0000 0.0000
# 4 -95.5197 95.5197 0.0000 -131.3847 0.0000 -0.0101
# 5 0.0101 -0.0101 0.0000 0.0000 -131.3847 -95.5197
# 6 0.0000 0.0000 0.0000 -0.0101 -95.5197 -34.7250
#
#
#
# Elastic Compliance Matrix: (Units=1/GPa)
#
#
# Indices 1 2 3 4 5 6 
#
# 1 0.011619 -0.002782 -0.001938 -0.010470 0.000001 0.000000
# 2 -0.002782 0.011619 -0.001938 0.010470 -0.000001 0.000000
# 3 -0.001938 -0.001938 0.003465 0.000000 0.000000 0.000000
# 4 -0.010470 0.010470 0.000000 0.007612 0.000000 -0.000002
# 5 0.000001 -0.000001 0.000000 0.000000 0.007612 -0.020940
# 6 0.000000 0.000000 0.000000 -0.000002 -0.020940 0.028802
#
#
# Mechanical properties :
#
#
# Convention : Reuss Voigt Hill
#
# Bulk Modulus (GPa) = 74.71283 113.11166 93.91225
# Shear Modulus (GPa) = 56.49224 -47.13252 4.67986
#
# Velocity S-wave (km/s) = 4.59816 -4.20001 1.32345
# Velocity P-wave (km/s) = 7.49355 4.33748 6.12237
#
# Compressibility (1/GPa) = 0.01338458
#
# Stress axis : x y z
#
# Youngs Moduli (GPa) = 86.06860 86.06860 288.61232
#
# Poissons Ratio (x) = 0.23947 0.55940
# Poissons Ratio (y) = 0.23947 0.55940
# Poissons Ratio (z) = 0.16682 0.16682
#
# Static dielectric constant tensor:
#      x y z
#    x 2.051770 0.000000 0.000000 
#    y 0.000000 2.051770 0.000000 
#    z 0.000000 0.000000 2.147590 
# 
# From -- ./inp_files/1535.got.cif
#   From: 2010.05.17/outbox.cif.g08.bks.cpg/sg152_1_cif.got.tgz:1535.got - 2010.05.20 10:36:06.
