data_PCOD9575285
_publ_section_title
;
Structure prediction by ZEFSAII (Michael W. Deem and Ramdas Pophale) SiO2 
 PCOD9575285
Probable space group: R -3
;
_chemical_formula_sum "Si O2"
_cell_formula_units_Z 84
_cell_length_a 16.064841
_cell_length_b 16.064841
_cell_length_c 19.834376
_cell_angle_alpha 90.000000
_cell_angle_beta 90.000000
_cell_angle_gamma 120.000000
_cell_volume 4433.043946
_symmetry_space_group_name_H-M "R -3"
_symmetry_group_IT_number 148
_symmetry_cell_setting 'hexagonal'
loop_
_space_group_symop_operation_xyz
x,y,z
-y,x-y,z
-x+y,-x,z
-x,-y,-z
y,-x+y,-z
x-y,x,-z
2/3+x,1/3+y,1/3+z
2/3-y,1/3+x-y,1/3+z
2/3-x+y,1/3-x,1/3+z
2/3-x,1/3-y,1/3-z
2/3+y,1/3-x+y,1/3-z
2/3+x-y,1/3+x,1/3-z
1/3+x,2/3+y,2/3+z
1/3-y,2/3+x-y,2/3+z
1/3-x+y,2/3-x,2/3+z
1/3-x,2/3-y,2/3-z
1/3+y,2/3-x+y,2/3-z
1/3+x-y,2/3+x,2/3-z
loop_
_atom_site_type_symbol
_atom_site_label
_atom_site_fract_x
_atom_site_fract_y
_atom_site_fract_z
Si Si1 0.000000 0.000000 0.202502
Si Si2 0.704817 0.808116 0.933195
Si Si3 0.378859 0.215148 0.415517
Si Si4 0.666668 0.333334 0.695656
Si Si5 0.630329 0.160378 0.787653
Si Si6 0.850884 0.536488 0.166200
O O1 0.916588 0.894846 0.179380
O O2 0.000000 0.000000 0.283173
O O3 0.792326 0.786847 0.925162
O O4 0.606652 0.724212 0.898986
O O5 0.735181 0.905311 0.891493
O O6 0.696793 0.826646 0.011579
O O7 0.278992 0.209890 0.432560
O O8 0.411234 0.165589 0.472391
O O9 0.653683 0.234714 0.726671
O O10 0.541655 0.156223 0.828254
#
# Coordination Sequence:
#
# PCOD9575285 Si02
#       6
#     6  18  18   6  18  18
#     4  12  21  40  62  85 120 156 196 239 298 348
#     4  11  24  39  59  88 120 155 196 242 288 347
#     4  12  21  40  62  85 120 156 196 239 298 348
#     4   9  19  37  60  85 115 153 196 242 292 348
#     4   9  19  37  60  85 115 153 196 242 292 348
#     4  11  24  39  59  88 120 155 196 242 288 347
#
# _framework density 18.948606000000002
#
# number of rings (size 3 to 8) (size 9 to 14) (size 15 to 20)
#    0.000    1.286    4.286    3.429    0.000    0.000 
#    0.000    2.143    0.000   10.286    0.000    0.000 
#    0.000    0.000    0.000    0.000    0.000    0.000 
#
# Total GULP energy -156277.813480 kJ/mol
# GULP energy per Si atom -5581.350481 kJ/mol
# Density = 1.890548 g / cm^3
# Si number density = 18.948606 Si / 1000 Ang^3
#
#
#
# Elastic Constant Matrix: (Units=GPa)
#
#
# Indices 1 2 3 4 5 6 
#
# 1 60.9121 -1.6413 4.8859 -3.2787 -0.1880 -0.0004
# 2 -1.6413 60.9125 4.8858 3.2788 0.1874 0.0002
# 3 4.8859 4.8858 61.1464 0.0006 -0.0001 0.0003
# 4 -3.2787 3.2788 0.0006 9.1521 0.0001 0.1868
# 5 -0.1880 0.1874 -0.0001 0.0001 9.1527 -3.2785
# 6 -0.0004 0.0002 0.0003 0.1868 -3.2785 31.2760
#
#
#
# Elastic Compliance Matrix: (Units=1/GPa)
#
#
# Indices 1 2 3 4 5 6 
#
# 1 0.016855 0.000242 -0.001366 0.005951 0.000341 0.000000
# 2 0.000242 0.016854 -0.001366 -0.005951 -0.000340 0.000000
# 3 -0.001366 -0.001366 0.016573 -0.000001 0.000000 0.000000
# 4 0.005951 -0.005951 -0.000001 0.113543 0.000000 -0.000678
# 5 0.000341 -0.000340 0.000000 0.000000 0.113534 0.011901
# 6 0.000000 0.000000 0.000000 -0.000678 0.011901 0.033225
#
#
# Mechanical properties :
#
#
# Convention : Reuss Voigt Hill
#
# Bulk Modulus (GPa) = 22.07419 22.13689 22.10554
# Shear Modulus (GPa) = 15.12107 21.57219 18.34663
#
# Velocity S-wave (km/s) = 2.82796 3.37776 3.11502
# Velocity P-wave (km/s) = 4.72630 5.18848 4.96278
#
# Compressibility (1/GPa) = 0.04530179
#
# Stress axis : x y z
#
# Youngs Moduli (GPa) = 59.33095 59.33141 60.34091
#
# Poissons Ratio (x) = -0.01438 0.08244
# Poissons Ratio (y) = -0.01438 0.08243
# Poissons Ratio (z) = 0.08106 0.08105
#
# Static dielectric constant tensor:
#      x y z
#    x 1.658020 0.000000 0.000000 
#    y 0.000000 1.658010 0.000000 
#    z 0.000000 0.000000 1.631250 
# 
# From -- ./inp_files/1981.got.cif
#   From: 2010.05.17/outbox.cif.g08.bks.cpg/sg148_1_cif.got.tgz:1981.got - 2010.05.20 13:50:20.
