data_PCOD9575287
_publ_section_title
;
Structure prediction by ZEFSAII (Michael W. Deem and Ramdas Pophale) SiO2 
 PCOD9575287
Probable space group: R -3
;
_chemical_formula_sum "Si O2"
_cell_formula_units_Z 108
_cell_length_a 20.142767
_cell_length_b 20.142767
_cell_length_c 14.766474
_cell_angle_alpha 90.000000
_cell_angle_beta 90.000000
_cell_angle_gamma 120.000000
_cell_volume 5188.546281
_symmetry_space_group_name_H-M "R -3"
_symmetry_group_IT_number 148
_symmetry_cell_setting 'hexagonal'
loop_
_space_group_symop_operation_xyz
x,y,z
-y,x-y,z
-x+y,-x,z
-x,-y,-z
y,-x+y,-z
x-y,x,-z
2/3+x,1/3+y,1/3+z
2/3-y,1/3+x-y,1/3+z
2/3-x+y,1/3-x,1/3+z
2/3-x,1/3-y,1/3-z
2/3+y,1/3-x+y,1/3-z
2/3+x-y,1/3+x,1/3-z
1/3+x,2/3+y,2/3+z
1/3-y,2/3+x-y,2/3+z
1/3-x+y,2/3-x,2/3+z
1/3-x,2/3-y,2/3-z
1/3+y,2/3-x+y,2/3-z
1/3+x-y,2/3+x,2/3-z
loop_
_atom_site_type_symbol
_atom_site_label
_atom_site_fract_x
_atom_site_fract_y
_atom_site_fract_z
Si Si1 0.046474 0.389838 0.586773
Si Si2 0.704755 0.203175 0.933581
Si Si3 0.181635 0.419246 0.887387
Si Si4 0.079150 0.409972 0.393081
Si Si5 0.467999 0.843691 0.075359
Si Si6 0.639327 0.467419 0.360141
O O1 0.065497 0.368647 0.488838
O O2 0.009338 0.318854 0.654947
O O3 0.125724 0.447769 0.634998
O O4 0.993654 0.427950 0.564723
O O5 0.622459 0.194690 0.923877
O O6 0.774189 0.289557 0.934171
O O7 0.716925 0.168046 0.840653
O O8 0.705620 0.170757 0.030832
O O9 0.255382 0.411385 0.917172
O O10 0.194367 0.464232 0.791326
O O11 0.158497 0.435041 0.342563
O O12 0.722842 0.474402 0.360208
#
# Coordination Sequence:
#
# PCOD9575287 Si02
#       6
#    18  18  18  18  18  18
#     4  12  24  44  66  92 132 182 222 276 338 412
#     4   9  19  35  62  88 130 163 212 265 330 392
#     4  11  24  44  66  97 132 181 223 281 346 410
#     4  11  24  42  66  93 132 172 233 276 339 406
#     4   9  19  37  59  93 125 167 210 265 324 401
#     4  12  26  45  73 104 141 177 233 293 355 415
#
# _framework density 20.815078
#
# number of rings (size 3 to 8) (size 9 to 14) (size 15 to 20)
#    0.000    1.333    3.333    2.000    4.667    1.333 
#    0.000    0.833    0.000    0.000    0.000    0.000 
#    0.000    0.000    0.000    0.000    0.000    0.000 
#
# Total GULP energy -200561.926376 kJ/mol
# GULP energy per Si atom -5571.164622 kJ/mol
# Density = 2.076770 g / cm^3
# Si number density = 20.815078 Si / 1000 Ang^3
#
#
#
# Elastic Constant Matrix: (Units=GPa)
#
#
# Indices 1 2 3 4 5 6 
#
# 1 55.1329 -18.4184 23.5651 -4.6624 -6.8113 0.0000
# 2 -18.4184 55.1329 23.5651 4.6624 6.8113 0.0000
# 3 23.5651 23.5651 159.6594 0.0000 0.0000 0.0000
# 4 -4.6624 4.6624 0.0000 32.8467 0.0000 6.8113
# 5 -6.8113 6.8113 0.0000 0.0000 32.8467 -4.6624
# 6 0.0000 0.0000 0.0000 6.8113 -4.6624 36.7757
#
#
#
# Elastic Compliance Matrix: (Units=1/GPa)
#
#
# Indices 1 2 3 4 5 6 
#
# 1 0.024006 0.009598 -0.004960 0.002045 0.002988 0.000000
# 2 0.009598 0.024006 -0.004960 -0.002045 -0.002988 0.000000
# 3 -0.004960 -0.004960 0.007727 0.000000 0.000000 0.000000
# 4 0.002045 -0.002045 0.000000 0.032264 0.000000 -0.005976
# 5 0.002988 -0.002988 0.000000 0.000000 0.032264 0.004090
# 6 0.000000 0.000000 0.000000 -0.005976 0.004090 0.028817
#
#
# Mechanical properties :
#
#
# Convention : Reuss Voigt Hill
#
# Bulk Modulus (GPa) = 18.15008 36.37209 27.26109
# Shear Modulus (GPa) = 29.74506 36.57470 33.15988
#
# Velocity S-wave (km/s) = 3.78433 4.19636 3.99566
# Velocity P-wave (km/s) = 5.27575 6.40243 5.86620
#
# Compressibility (1/GPa) = 0.05509619
#
# Stress axis : x y z
#
# Youngs Moduli (GPa) = 41.65570 41.65570 129.40916
#
# Poissons Ratio (x) = -0.39980 0.64185
# Poissons Ratio (y) = -0.39980 0.64185
# Poissons Ratio (z) = 0.20660 0.20660
#
# Static dielectric constant tensor:
#      x y z
#    x 1.770320 0.000000 0.000000 
#    y 0.000000 1.770320 0.000000 
#    z 0.000000 0.000000 1.818770 
# 
# From -- ./inp_files/2065.got.cif
#   From: 2010.05.17/outbox.cif.g08.bks.cpg/sg148_2_cif.got.tgz:2065.got - 2010.05.20 13:50:20.
