data_PCOD9575564
_publ_section_title
;
Structure prediction by ZEFSAII (Michael W. Deem and Ramdas Pophale) SiO2 
 PCOD9575564
Probable space group: P 31 1 2
;
_chemical_formula_sum "Si O2"
_cell_formula_units_Z 33
_cell_length_a 7.014520
_cell_length_b 7.014520
_cell_length_c 30.063084
_cell_angle_alpha 90.000000
_cell_angle_beta 90.000000
_cell_angle_gamma 120.000000
_cell_volume 1281.032293
_symmetry_space_group_name_H-M "P 31 1 2"
_symmetry_group_IT_number 151
_symmetry_cell_setting 'hexagonal'
loop_
_space_group_symop_operation_xyz
x,y,z
-y,x-y,1/3+z
-x+y,-x,2/3+z
-y,-x,2/3-z
-x+y,y,1/3-z
x,x-y,-z
loop_
_atom_site_type_symbol
_atom_site_label
_atom_site_fract_x
_atom_site_fract_y
_atom_site_fract_z
Si Si1 0.359008 0.196133 0.699076
Si Si2 0.399294 0.798588 0.666667
Si Si3 0.263088 0.350239 0.514830
Si Si4 0.547231 0.159867 0.212607
Si Si5 0.959059 0.270216 0.726170
Si Si6 0.201350 0.774403 0.088880
O O1 0.510130 0.251989 0.742674
O O2 0.444490 0.340690 0.653580
O O3 0.151470 0.216226 0.714031
O O4 0.307829 0.956329 0.683873
O O5 0.411793 0.690545 0.713166
O O6 0.036188 0.342498 0.529359
O O7 0.394957 0.409394 0.561584
O O8 0.347535 0.499565 0.470265
O O9 0.216365 0.108183 0.500000
O O10 0.645571 0.291141 0.166667
O O11 0.662496 0.026395 0.230849
O O12 0.760831 0.031282 0.739068
#
# Coordination Sequence:
#
# PCOD9575564 Si02
#       6
#     6   3   6   6   6   6
#     4   9  17  31  47  67  93 124 159 192 240 293
#     4  10  20  32  46  70 104 128 150 202 252 284
#     4   8  14  27  48  69  89 121 164 194 226 286
#     4   9  17  30  51  73  95 123 161 204 240 280
#     4   8  15  29  50  65  84 125 166 190 222 294
#     4   9  17  29  47  70  94 121 157 200 242 280
#
# _framework density 25.760472
#
# number of rings (size 3 to 8) (size 9 to 14) (size 15 to 20)
#    0.000    3.273    0.000    0.000    0.000    2.909 
#    0.000    8.182    0.000   32.727    0.000    0.000 
#    0.000    0.000    0.000    0.000    0.000    0.000 
#
# Total GULP energy -183956.775577 kJ/mol
# GULP energy per Si atom -5574.447745 kJ/mol
# Density = 2.570184 g / cm^3
# Si number density = 25.760472 Si / 1000 Ang^3
#
#
#
# Elastic Constant Matrix: (Units=GPa)
#
#
# Indices 1 2 3 4 5 6 
#
# 1 62.7056 28.9882 46.3099 -0.0001 2.4297 0.0000
# 2 28.9882 62.7056 46.3099 0.0001 -2.4297 0.0000
# 3 46.3099 46.3099 299.1432 0.0000 0.0000 0.0000
# 4 -0.0001 0.0001 0.0000 49.8083 0.0000 -2.4297
# 5 2.4297 -2.4297 0.0000 0.0000 49.8083 -0.0001
# 6 0.0000 0.0000 0.0000 -2.4297 -0.0001 16.8587
#
#
#
# Elastic Compliance Matrix: (Units=1/GPa)
#
#
# Indices 1 2 3 4 5 6 
#
# 1 0.021398 -0.008470 -0.002001 0.000000 -0.001457 0.000000
# 2 -0.008470 0.021398 -0.002001 0.000000 0.001457 0.000000
# 3 -0.002001 -0.002001 0.003963 0.000000 0.000000 0.000000
# 4 0.000000 0.000000 0.000000 0.020219 0.000000 0.002914
# 5 -0.001457 0.001457 0.000000 0.000000 0.020219 0.000000
# 6 0.000000 0.000000 0.000000 0.002914 0.000000 0.059737
#
#
# Mechanical properties :
#
#
# Convention : Reuss Voigt Hill
#
# Bulk Modulus (GPa) = 45.84606 74.19671 60.02139
# Shear Modulus (GPa) = 27.90963 43.49148 35.70056
#
# Velocity S-wave (km/s) = 3.29512 4.11335 3.72676
# Velocity P-wave (km/s) = 5.68443 7.17110 6.47060
#
# Compressibility (1/GPa) = 0.02181212
#
# Stress axis : x y z
#
# Youngs Moduli (GPa) = 46.73375 46.73375 252.36558
#
# Poissons Ratio (x) = 0.39586 0.50505
# Poissons Ratio (y) = 0.39586 0.50505
# Poissons Ratio (z) = 0.09353 0.09353
#
# Static dielectric constant tensor:
#      x y z
#    x 2.086840 0.000000 0.000000 
#    y 0.000000 2.086840 0.000000 
#    z 0.000000 0.000000 2.177670 
# 
# From -- ./inp_files/4873.got.cif
#   From: 2010.05.17/outbox.cif.g08.bks.cpg/sg151_3_cif.got.tgz:4873.got - 2010.05.20 10:33:20.
