data_PCOD9575086
_publ_section_title
;
Structure prediction by ZEFSAII (Michael W. Deem and Ramdas Pophale) SiO2 
 PCOD9575086
Probable space group: R -3
;
_chemical_formula_sum "Si O2"
_cell_formula_units_Z 72
_cell_length_a 12.440678
_cell_length_b 12.440678
_cell_length_c 21.835936
_cell_angle_alpha 90.000000
_cell_angle_beta 90.000000
_cell_angle_gamma 120.000000
_cell_volume 2926.783132
_symmetry_space_group_name_H-M "R -3"
_symmetry_group_IT_number 148
_symmetry_cell_setting 'hexagonal'
loop_
_space_group_symop_operation_xyz
x,y,z
-y,x-y,z
-x+y,-x,z
-x,-y,-z
y,-x+y,-z
x-y,x,-z
2/3+x,1/3+y,1/3+z
2/3-y,1/3+x-y,1/3+z
2/3-x+y,1/3-x,1/3+z
2/3-x,1/3-y,1/3-z
2/3+y,1/3-x+y,1/3-z
2/3+x-y,1/3+x,1/3-z
1/3+x,2/3+y,2/3+z
1/3-y,2/3+x-y,2/3+z
1/3-x+y,2/3-x,2/3+z
1/3-x,2/3-y,2/3-z
1/3+y,2/3-x+y,2/3-z
1/3+x-y,2/3+x,2/3-z
loop_
_atom_site_type_symbol
_atom_site_label
_atom_site_fract_x
_atom_site_fract_y
_atom_site_fract_z
Si Si1 0.955018 0.198029 0.233868
Si Si2 0.842610 0.747119 0.015876
Si Si3 0.575290 0.710832 0.391805
Si Si4 0.694957 0.115529 0.851976
O O1 0.859083 0.237056 0.261238
O O2 0.060965 0.217619 0.283083
O O3 0.031044 0.285332 0.178325
O O4 0.864099 0.050488 0.226727
O O5 0.719778 0.613370 0.005888
O O6 0.802495 0.847393 0.031322
O O7 0.709180 0.757340 0.421557
O O8 0.588225 0.114652 0.809137
#
# Coordination Sequence:
#
# PCOD9575086 Si02
#       4
#    18  18  18  18
#     4   9  20  36  60  84 117 151 195 244 289 352
#     4  10  23  39  60  84 121 158 202 247 290 350
#     4   9  20  36  60  84 117 151 195 244 289 352
#     4  10  20  36  60  88 118 152 190 242 300 356
#
# _framework density 24.600386
#
# number of rings (size 3 to 8) (size 9 to 14) (size 15 to 20)
#    1.500    1.000    0.000    1.750    3.500    1.000 
#    0.000    0.000    5.500    0.000    0.000    0.000 
#    0.000    0.000    0.000    0.000    0.000    0.000 
#
# Total GULP energy -133652.514990 kJ/mol
# GULP energy per Si atom -5568.854791 kJ/mol
# Density = 2.454439 g / cm^3
# Si number density = 24.600386 Si / 1000 Ang^3
#
#
#
# Elastic Constant Matrix: (Units=GPa)
#
#
# Indices 1 2 3 4 5 6 
#
# 1 136.1065 41.3575 21.6054 -5.7294 1.2216 0.0000
# 2 41.3575 136.1065 21.6054 5.7294 -1.2216 0.0000
# 3 21.6054 21.6054 41.3456 0.0000 0.0000 0.0000
# 4 -5.7294 5.7294 0.0000 12.2867 0.0000 -1.2216
# 5 1.2216 -1.2216 0.0000 0.0000 12.2867 -5.7294
# 6 0.0000 0.0000 0.0000 -1.2216 -5.7294 47.3745
#
#
#
# Elastic Compliance Matrix: (Units=1/GPa)
#
#
# Indices 1 2 3 4 5 6 
#
# 1 0.008836 -0.002379 -0.003374 0.005230 -0.001115 0.000000
# 2 -0.002379 0.008836 -0.003374 -0.005230 0.001115 0.000000
# 3 -0.003374 -0.003374 0.027712 0.000000 0.000000 0.000000
# 4 0.005230 -0.005230 0.000000 0.086488 0.000000 0.002230
# 5 -0.001115 0.001115 0.000000 0.000000 0.086488 0.010460
# 6 0.000000 0.000000 0.000000 0.002230 0.010460 0.022431
#
#
# Mechanical properties :
#
#
# Convention : Reuss Voigt Hill
#
# Bulk Modulus (GPa) = 36.85969 53.63280 45.24625
# Shear Modulus (GPa) = 18.65051 29.65558 24.15304
#
# Velocity S-wave (km/s) = 2.75642 3.47579 3.13679
# Velocity P-wave (km/s) = 5.01462 6.16093 5.61709
#
# Compressibility (1/GPa) = 0.02712990
#
# Stress axis : x y z
#
# Youngs Moduli (GPa) = 113.17403 113.17403 36.08483
#
# Poissons Ratio (x) = 0.26930 0.12175
# Poissons Ratio (y) = 0.26930 0.12175
# Poissons Ratio (z) = 0.38183 0.38183
#
# Static dielectric constant tensor:
#      x y z
#    x 2.007390 0.000000 0.000000 
#    y 0.000000 2.007390 0.000000 
#    z 0.000000 0.000000 2.094720 
# 
# From -- ./inp_files/3892.got.cif
#   From: 2010.05.17/outbox.cif.g08.bks.cpg/sg148_2_cif.got.tgz:3892.got - 2010.05.20 13:50:20.
