data_PCOD9575849
_publ_section_title
;
Structure prediction by ZEFSAII (Michael W. Deem and Ramdas Pophale) SiO2 
 PCOD9575849
Probable space group: P 31 2 1
;
_chemical_formula_sum "Si O2"
_cell_formula_units_Z 36
_cell_length_a 13.768451
_cell_length_b 13.768451
_cell_length_c 8.553030
_cell_angle_alpha 90.000000
_cell_angle_beta 90.000000
_cell_angle_gamma 120.000000
_cell_volume 1404.173568
_symmetry_space_group_name_H-M "P 31 2 1"
_symmetry_group_IT_number 152
_symmetry_cell_setting 'hexagonal'
loop_
_space_group_symop_operation_xyz
x,y,z
-y,x-y,1/3+z
-x+y,-x,2/3+z
x-y,-y,2/3-z
-x,-x+y,1/3-z
y,x,-z
loop_
_atom_site_type_symbol
_atom_site_label
_atom_site_fract_x
_atom_site_fract_y
_atom_site_fract_z
Si Si1 0.335760 0.781333 0.898278
Si Si2 0.236040 0.372777 0.926418
Si Si3 0.829304 0.706200 0.427329
Si Si4 0.109249 0.534979 0.525580
Si Si5 0.874241 0.191127 0.727793
Si Si6 0.400041 0.857745 0.592950
O O1 0.274262 0.853806 0.916450
O O2 0.430688 0.843645 0.770203
O O3 0.242942 0.655770 0.853596
O O4 0.393449 0.796157 0.062216
O O5 0.362397 0.471678 0.943523
O O6 0.206107 0.322398 0.748956
O O7 0.167949 0.440982 0.931391
O O8 0.202334 0.302883 0.090642
O O9 0.787931 0.787931 0.500000
O O10 0.859243 0.721985 0.239304
O O11 0.133154 0.439986 0.596604
O O12 0.015934 0.485183 0.874020
O O13 0.000000 0.232338 0.666667
#
# Coordination Sequence:
#
# PCOD9575849 Si02
#       6
#     6   6   6   6   6   6
#     4  10  21  35  55  79 120 167 217 282 342 399
#     4  11  23  36  58  82 118 165 213 278 344 403
#     4  10  20  37  54  80 109 147 204 269 328 396
#     4  11  24  37  57  88 125 167 231 291 339 421
#     4  11  20  38  60  81 114 161 214 271 339 407
#     4  11  22  38  56  87 124 169 230 286 342 416
#
# _framework density 25.637854000000001
#
# number of rings (size 3 to 8) (size 9 to 14) (size 15 to 20)
#    0.000    1.333    3.333    4.500   11.667    0.000 
#    0.000    0.000    0.000    0.000    0.000    0.000 
#    0.000    0.000    0.000   18.000    6.000    0.000 
#
# Total GULP energy -200702.060053 kJ/mol
# GULP energy per Si atom -5575.057224 kJ/mol
# Density = 2.557950 g / cm^3
# Si number density = 25.637854 Si / 1000 Ang^3
#
#
#
# Elastic Constant Matrix: (Units=GPa)
#
#
# Indices 1 2 3 4 5 6 
#
# 1 -53.1885 156.1760 57.1705 -47.1104 -0.0004 0.0000
# 2 156.1760 -53.1885 57.1705 47.1104 0.0004 0.0000
# 3 57.1705 57.1705 247.9880 0.0000 0.0000 0.0000
# 4 -47.1104 47.1104 0.0000 29.6515 0.0000 0.0004
# 5 -0.0004 0.0004 0.0000 0.0000 29.6515 -47.1104
# 6 0.0000 0.0000 0.0000 0.0004 -47.1104 -104.6822
#
#
#
# Elastic Compliance Matrix: (Units=1/GPa)
#
#
# Indices 1 2 3 4 5 6 
#
# 1 0.005133 0.007918 -0.003009 -0.004425 0.000000 0.000000
# 2 0.007918 0.005133 -0.003009 0.004425 0.000000 0.000000
# 3 -0.003009 -0.003009 0.005420 0.000000 0.000000 0.000000
# 4 -0.004425 0.004425 0.000000 0.019665 0.000000 0.000000
# 5 0.000000 0.000000 0.000000 0.000000 0.019665 -0.008850
# 6 0.000000 0.000000 0.000000 0.000000 -0.008850 -0.005570
#
#
# Mechanical properties :
#
#
# Convention : Reuss Voigt Hill
#
# Bulk Modulus (GPa) = 51.31969 75.84946 63.58458
# Shear Modulus (GPa) = 95.89900 -17.66958 39.11471
#
# Velocity S-wave (km/s) = 6.12262 -2.62811 3.91021
# Velocity P-wave (km/s) = 8.36914 4.52105 6.72616
#
# Compressibility (1/GPa) = 0.01948570
#
# Stress axis : x y z
#
# Youngs Moduli (GPa) = 194.83496 194.83496 184.51489
#
# Poissons Ratio (x) = -1.54262 0.55512
# Poissons Ratio (y) = -1.54262 0.55512
# Poissons Ratio (z) = 0.58617 0.58617
#
# Static dielectric constant tensor:
#      x y z
#    x 2.048800 0.000000 0.000000 
#    y 0.000000 2.048800 0.000000 
#    z 0.000000 0.000000 2.583660 
# 
# From -- ./inp_files/1243.got.cif
#   From: 2010.05.17/outbox.cif.g08.bks.cpg/sg152_1_cif.got.tgz:1243.got - 2010.05.20 10:36:06.
