data_PCOD9575901
_publ_section_title
;
Structure prediction by ZEFSAII (Michael W. Deem and Ramdas Pophale) SiO2 
 PCOD9575901
Probable space group: P 31 2 1
;
_chemical_formula_sum "Si O2"
_cell_formula_units_Z 15
_cell_length_a 8.955467
_cell_length_b 8.955467
_cell_length_c 7.898838
_cell_angle_alpha 90.000000
_cell_angle_beta 90.000000
_cell_angle_gamma 120.000000
_cell_volume 548.618331
_symmetry_space_group_name_H-M "P 31 2 1"
_symmetry_group_IT_number 152
_symmetry_cell_setting 'hexagonal'
loop_
_space_group_symop_operation_xyz
x,y,z
-y,x-y,1/3+z
-x+y,-x,2/3+z
x-y,-y,2/3-z
-x,-x+y,1/3-z
y,x,-z
loop_
_atom_site_type_symbol
_atom_site_label
_atom_site_fract_x
_atom_site_fract_y
_atom_site_fract_z
Si Si1 0.000000 0.320647 0.166667
Si Si2 0.660358 0.220890 0.658327
Si Si3 0.197925 0.197925 0.500000
Si Si4 0.167662 0.167662 0.000000
O O1 0.931308 0.396552 0.022970
O O2 0.827273 0.137132 0.211406
O O3 0.658479 0.288857 0.469499
O O4 0.763545 0.122017 0.711764
O O5 0.013908 0.138881 0.414902
#
# Coordination Sequence:
#
# PCOD9575901 Si02
#       4
#     3   6   3   3
#     4  10  22  42  68 104 138 186 246 290 356 430
#     4  11  24  46  68 105 142 186 240 305 358 422
#     4  10  22  42  68 104 138 186 246 290 356 430
#     4  10  20  42  70  98 138 192 230 292 346 450
#
# _framework density 27.341415999999999
#
# number of rings (size 3 to 8) (size 9 to 14) (size 15 to 20)
#    0.000    1.600    4.000    0.000    0.000    6.400 
#    0.000    0.000    0.000    0.000    0.000    0.000 
#    0.000    0.000    0.000    0.000    0.000    0.000 
#
# Total GULP energy -83628.758331 kJ/mol
# GULP energy per Si atom -5575.250555 kJ/mol
# Density = 2.727919 g / cm^3
# Si number density = 27.341416 Si / 1000 Ang^3
#
#
#
# Elastic Constant Matrix: (Units=GPa)
#
#
# Indices 1 2 3 4 5 6 
#
# 1 143.9490 42.5874 36.9165 3.0724 0.0000 0.0000
# 2 42.5874 143.9490 36.9165 -3.0724 0.0000 0.0000
# 3 36.9165 36.9165 106.3710 0.0000 0.0000 0.0000
# 4 3.0724 -3.0724 0.0000 51.7373 0.0000 0.0000
# 5 0.0000 0.0000 0.0000 0.0000 51.7373 3.0724
# 6 0.0000 0.0000 0.0000 0.0000 3.0724 50.6808
#
#
#
# Elastic Compliance Matrix: (Units=1/GPa)
#
#
# Indices 1 2 3 4 5 6 
#
# 1 0.008058 -0.001843 -0.002157 -0.000588 0.000000 0.000000
# 2 -0.001843 0.008058 -0.002157 0.000588 0.000000 0.000000
# 3 -0.002157 -0.002157 0.010898 0.000000 0.000000 0.000000
# 4 -0.000588 0.000588 0.000000 0.019398 0.000000 0.000000
# 5 0.000000 0.000000 0.000000 0.000000 0.019398 -0.001176
# 6 0.000000 0.000000 0.000000 0.000000 -0.001176 0.019803
#
#
# Mechanical properties :
#
#
# Convention : Reuss Voigt Hill
#
# Bulk Modulus (GPa) = 68.02690 69.67888 68.85289
# Shear Modulus (GPa) = 48.62534 49.35432 48.98983
#
# Velocity S-wave (km/s) = 4.22174 4.25327 4.23754
# Velocity P-wave (km/s) = 6.97844 7.04702 7.01282
#
# Compressibility (1/GPa) = 0.01470007
#
# Stress axis : x y z
#
# Youngs Moduli (GPa) = 124.10125 124.10125 91.75909
#
# Poissons Ratio (x) = 0.22876 0.19791
# Poissons Ratio (y) = 0.22876 0.19791
# Poissons Ratio (z) = 0.26766 0.26766
#
# Static dielectric constant tensor:
#      x y z
#    x 2.244460 0.000000 0.000000 
#    y 0.000000 2.244460 0.000000 
#    z 0.000000 0.000000 3.443610 
# 
# From -- ./inp_files/689.got.cif
#   From: 2010.05.17/outbox.cif.g08.bks.cpg/sg152_1_cif.got.tgz:689.got - 2010.05.20 10:36:06.
