data_PCOD9575519
_publ_section_title
;
Structure prediction by ZEFSAII (Michael W. Deem and Ramdas Pophale) SiO2 
 PCOD9575519
Probable space group: P 31 1 2
;
_chemical_formula_sum "Si O2"
_cell_formula_units_Z 42
_cell_length_a 9.414420
_cell_length_b 9.414420
_cell_length_c 29.911367
_cell_angle_alpha 90.000000
_cell_angle_beta 90.000000
_cell_angle_gamma 120.000000
_cell_volume 2295.905624
_symmetry_space_group_name_H-M "P 31 1 2"
_symmetry_group_IT_number 151
_symmetry_cell_setting 'hexagonal'
loop_
_space_group_symop_operation_xyz
x,y,z
-y,x-y,1/3+z
-x+y,-x,2/3+z
-y,-x,2/3-z
-x+y,y,1/3-z
x,x-y,-z
loop_
_atom_site_type_symbol
_atom_site_label
_atom_site_fract_x
_atom_site_fract_y
_atom_site_fract_z
Si Si1 0.064596 0.103885 0.451490
Si Si2 0.738354 0.028370 0.701348
Si Si3 0.254696 0.745305 0.333334
Si Si4 0.441332 0.060997 0.279748
Si Si5 0.709467 0.354734 0.000000
Si Si6 0.993045 0.793239 0.934842
Si Si7 0.342556 0.881439 0.125477
Si Si8 0.378989 0.589013 0.264049
O O1 0.204061 0.158162 0.412530
O O2 0.058087 0.269508 0.460605
O O3 0.095934 0.047967 0.500000
O O4 0.903766 0.955577 0.427938
O O5 0.707693 0.178402 0.690662
O O6 0.811293 0.996925 0.655830
O O7 0.552777 0.881128 0.709478
O O8 0.265072 0.637720 0.292667
O O9 0.068855 0.669110 0.349100
O O10 0.604833 0.213636 0.298588
O O11 0.330194 0.129814 0.258556
O O12 0.497965 0.962577 0.248856
O O13 0.095908 0.701021 0.926039
O O14 0.462145 0.924289 0.166667
O O15 0.251922 0.686387 0.115890
#
# Coordination Sequence:
#
# PCOD9575519 Si02
#       8
#     6   6   3   6   3   6   6   6
#     4  11  25  39  63  89 124 164 216 255 308 377
#     4  10  18  38  64  91 120 163 197 264 308 364
#     4  10  19  34  52  93 124 158 194 240 313 366
#     4  10  22  35  60  89 127 157 195 257 310 370
#     4  10  19  36  60  93 124 152 200 256 327 362
#     4  11  20  37  66  96 120 153 213 261 311 362
#     4  10  23  44  59  82 126 172 203 247 316 372
#     4  10  18  37  66  86 120 163 203 252 303 377
#
# _framework density 18.293434000000001
#
# number of rings (size 3 to 8) (size 9 to 14) (size 15 to 20)
#    0.000    1.714    4.286    1.286    4.000    1.714 
#    0.000    0.714    3.143    0.000    0.000    0.000 
#    0.000    0.000    0.000    0.000    0.000    0.000 
#
# Total GULP energy -234047.164985 kJ/mol
# GULP energy per Si atom -5572.551547 kJ/mol
# Density = 1.825180 g / cm^3
# Si number density = 18.293434 Si / 1000 Ang^3
#
#
#
# Elastic Constant Matrix: (Units=GPa)
#
#
# Indices 1 2 3 4 5 6 
#
# 1 102.7110 58.9600 44.7222 0.0001 -2.2241 0.0000
# 2 58.9600 102.7110 44.7222 -0.0001 2.2241 0.0000
# 3 44.7222 44.7222 98.3141 0.0000 0.0000 0.0000
# 4 0.0001 -0.0001 0.0000 16.4579 0.0000 2.2241
# 5 -2.2241 2.2241 0.0000 0.0000 16.4579 0.0001
# 6 0.0000 0.0000 0.0000 2.2241 0.0001 21.8755
#
#
#
# Elastic Compliance Matrix: (Units=1/GPa)
#
#
# Indices 1 2 3 4 5 6 
#
# 1 0.015720 -0.007455 -0.003760 0.000000 0.003132 0.000000
# 2 -0.007455 0.015720 -0.003760 0.000000 -0.003132 0.000000
# 3 -0.003760 -0.003760 0.013592 0.000000 0.000000 0.000000
# 4 0.000000 0.000000 0.000000 0.061607 0.000000 -0.006264
# 5 0.003132 -0.003132 0.000000 0.000000 0.061607 0.000000
# 6 0.000000 0.000000 0.000000 -0.006264 0.000000 0.046350
#
#
# Mechanical properties :
#
#
# Convention : Reuss Voigt Hill
#
# Bulk Modulus (GPa) = 66.29712 66.72723 66.51217
# Shear Modulus (GPa) = 20.03407 21.31372 20.67389
#
# Velocity S-wave (km/s) = 3.31290 3.41706 3.36538
# Velocity P-wave (km/s) = 7.13816 7.21967 7.17903
#
# Compressibility (1/GPa) = 0.01508361
#
# Stress axis : x y z
#
# Youngs Moduli (GPa) = 63.61203 63.61203 73.57154
#
# Poissons Ratio (x) = 0.47421 0.27662
# Poissons Ratio (y) = 0.47421 0.27662
# Poissons Ratio (z) = 0.23918 0.23918
#
# Static dielectric constant tensor:
#      x y z
#    x 1.632980 0.000000 0.000000 
#    y 0.000000 1.632980 0.000000 
#    z 0.000000 0.000000 1.723350 
# 
# From -- ./inp_files/5089.got.cif
#   From: 2010.05.17/outbox.cif.g08.bks.cpg/sg151_3_cif.got.tgz:5089.got - 2010.05.20 10:33:20.
