data_PCOD9575176
_publ_section_title
;
Structure prediction by ZEFSAII (Michael W. Deem and Ramdas Pophale) SiO2 
 PCOD9575176
Probable space group: R -3
;
_chemical_formula_sum "Si O2"
_cell_formula_units_Z 72
_cell_length_a 13.558989
_cell_length_b 13.558989
_cell_length_c 16.686346
_cell_angle_alpha 90.000000
_cell_angle_beta 90.000000
_cell_angle_gamma 120.000000
_cell_volume 2656.724331
_symmetry_space_group_name_H-M "R -3"
_symmetry_group_IT_number 148
_symmetry_cell_setting 'hexagonal'
loop_
_space_group_symop_operation_xyz
x,y,z
-y,x-y,z
-x+y,-x,z
-x,-y,-z
y,-x+y,-z
x-y,x,-z
2/3+x,1/3+y,1/3+z
2/3-y,1/3+x-y,1/3+z
2/3-x+y,1/3-x,1/3+z
2/3-x,1/3-y,1/3-z
2/3+y,1/3-x+y,1/3-z
2/3+x-y,1/3+x,1/3-z
1/3+x,2/3+y,2/3+z
1/3-y,2/3+x-y,2/3+z
1/3-x+y,2/3-x,2/3+z
1/3-x,2/3-y,2/3-z
1/3+y,2/3-x+y,2/3-z
1/3+x-y,2/3+x,2/3-z
loop_
_atom_site_type_symbol
_atom_site_label
_atom_site_fract_x
_atom_site_fract_y
_atom_site_fract_z
Si Si1 0.232555 0.232544 0.496594
Si Si2 0.796234 0.974705 0.215581
Si Si3 0.571111 0.802148 0.627833
Si Si4 0.561096 0.687662 0.940134
O O1 0.109081 0.216523 0.511549
O O2 0.337558 0.289936 0.560163
O O3 0.330397 0.037828 0.572707
O O4 0.894424 0.104400 0.213819
O O5 0.817239 0.901079 0.282622
O O6 0.783809 0.912896 0.129386
O O7 0.525761 0.696288 0.687308
O O8 0.698034 0.889343 0.658755
#
# Coordination Sequence:
#
# PCOD9575176 Si02
#       4
#    18  18  18  18
#     4  10  22  41  71 105 145 203 249 301 373 450
#     4  11  24  44  76 107 156 203 245 320 377 442
#     4  12  26  42  72 113 149 198 259 307 379 460
#     4  11  25  47  72 111 154 199 248 317 387 447
#
# _framework density 27.101043000000001
#
# number of rings (size 3 to 8) (size 9 to 14) (size 15 to 20)
#    0.000    1.000    2.500    3.250    7.000    0.000 
#    0.000    6.250    0.000    0.000    0.000    0.000 
#    0.000    0.000    0.000    0.000    0.000    0.000 
#
# Total GULP energy -134171.844165 kJ/mol
# GULP energy per Si atom -5590.493507 kJ/mol
# Density = 2.703936 g / cm^3
# Si number density = 27.101043 Si / 1000 Ang^3
#
#
#
# Elastic Constant Matrix: (Units=GPa)
#
#
# Indices 1 2 3 4 5 6 
#
# 1 185.9308 85.0480 63.1886 -4.0512 -21.5107 0.0000
# 2 85.0480 185.9308 63.1886 4.0512 21.5107 0.0000
# 3 63.1886 63.1886 108.3684 0.0000 0.0000 0.0000
# 4 -4.0512 4.0512 0.0000 37.5340 0.0000 21.5107
# 5 -21.5107 21.5107 0.0000 0.0000 37.5340 -4.0512
# 6 0.0000 0.0000 0.0000 21.5107 -4.0512 50.4414
#
#
#
# Elastic Compliance Matrix: (Units=1/GPa)
#
#
# Indices 1 2 3 4 5 6 
#
# 1 0.009170 -0.004101 -0.002956 0.001432 0.007606 0.000000
# 2 -0.004101 0.009170 -0.002956 -0.001432 -0.007606 0.000000
# 3 -0.002956 -0.002956 0.012674 0.000000 0.000000 0.000000
# 4 0.001432 -0.001432 0.000000 0.035669 0.000000 -0.015211
# 5 0.007606 -0.007606 0.000000 0.000000 0.035669 0.002865
# 6 0.000000 0.000000 0.000000 -0.015211 0.002865 0.026542
#
#
# Mechanical properties :
#
#
# Convention : Reuss Voigt Hill
#
# Bulk Modulus (GPa) = 90.99350 100.34226 95.66788
# Shear Modulus (GPa) = 32.76932 43.02220 37.89576
#
# Velocity S-wave (km/s) = 3.48106 3.98863 3.74346
# Velocity P-wave (km/s) = 7.05731 7.63661 7.35267
#
# Compressibility (1/GPa) = 0.01098980
#
# Stress axis : x y z
#
# Youngs Moduli (GPa) = 109.05354 109.05354 78.89902
#
# Poissons Ratio (x) = 0.44724 0.23319
# Poissons Ratio (y) = 0.44724 0.23319
# Poissons Ratio (z) = 0.32231 0.32231
#
# Static dielectric constant tensor:
#      x y z
#    x 2.131180 0.000000 0.000000 
#    y 0.000000 2.131180 0.000000 
#    z 0.000000 0.000000 2.310960 
# 
# From -- ./inp_files/2576.got.cif
#   From: 2010.05.17/outbox.cif.g08.bks.cpg/sg148_2_cif.got.tgz:2576.got - 2010.05.20 13:50:20.
