data_PCOD9575645
_publ_section_title
;
Structure prediction by ZEFSAII (Michael W. Deem and Ramdas Pophale) SiO2 
 PCOD9575645
Probable space group: P 31 1 2
;
_chemical_formula_sum "Si O2"
_cell_formula_units_Z 18
_cell_length_a 8.295521
_cell_length_b 8.295521
_cell_length_c 10.647556
_cell_angle_alpha 90.000000
_cell_angle_beta 90.000000
_cell_angle_gamma 120.000000
_cell_volume 634.552996
_symmetry_space_group_name_H-M "P 31 1 2"
_symmetry_group_IT_number 151
_symmetry_cell_setting 'hexagonal'
loop_
_space_group_symop_operation_xyz
x,y,z
-y,x-y,1/3+z
-x+y,-x,2/3+z
-y,-x,2/3-z
-x+y,y,1/3-z
x,x-y,-z
loop_
_atom_site_type_symbol
_atom_site_label
_atom_site_fract_x
_atom_site_fract_y
_atom_site_fract_z
Si Si1 0.304321 0.821612 0.544656
Si Si2 0.520384 0.149344 0.377073
Si Si3 0.185014 0.142942 0.788568
O O1 0.431871 0.863742 0.666667
O O2 0.224489 0.612245 0.500000
O O3 0.122532 0.844097 0.551359
O O4 0.437928 0.943432 0.429574
O O5 0.732876 0.267125 0.333334
O O6 0.493289 0.246645 0.500000
O O7 0.393862 0.156742 0.264035
O O8 0.077048 0.154095 0.666667
O O9 0.069662 0.930339 0.833334
#
# Coordination Sequence:
#
# PCOD9575645 Si02
#       3
#     6   6   6
#     4  11  23  44  74 112 155 200 249 306 371 449
#     4  11  25  48  77 109 150 198 257 315 372 445
#     4  10  22  46  75 107 148 194 248 313 375 444
#
# _framework density 28.366426000000001
#
# number of rings (size 3 to 8) (size 9 to 14) (size 15 to 20)
#    0.000    1.333    0.000    8.000    0.000    4.000 
#    0.000   33.333    0.000    0.000    0.000    2.333 
#    0.000    0.000    0.000    0.000    0.000    0.000 
#
# Total GULP energy -100939.005165 kJ/mol
# GULP energy per Si atom -5607.722509 kJ/mol
# Density = 2.830186 g / cm^3
# Si number density = 28.366426 Si / 1000 Ang^3
#
#
#
# Elastic Constant Matrix: (Units=GPa)
#
#
# Indices 1 2 3 4 5 6 
#
# 1 115.9392 28.6968 45.2343 0.0003 9.8864 0.0000
# 2 28.6968 115.9392 45.2343 -0.0003 -9.8864 0.0000
# 3 45.2343 45.2343 182.4265 0.0000 0.0000 0.0000
# 4 0.0003 -0.0003 0.0000 51.5538 0.0000 -9.8864
# 5 9.8864 -9.8864 0.0000 0.0000 51.5538 0.0003
# 6 0.0000 0.0000 0.0000 -9.8864 0.0003 43.6212
#
#
#
# Elastic Compliance Matrix: (Units=1/GPa)
#
#
# Indices 1 2 3 4 5 6 
#
# 1 0.010083 -0.001900 -0.002029 0.000000 -0.002298 0.000000
# 2 -0.001900 0.010083 -0.002029 0.000000 0.002298 0.000000
# 3 -0.002029 -0.002029 0.006488 0.000000 0.000000 0.000000
# 4 0.000000 0.000000 0.000000 0.020279 0.000000 0.004596
# 5 -0.002298 0.002298 0.000000 0.000000 0.020279 0.000000
# 6 0.000000 0.000000 0.000000 0.004596 0.000000 0.023966
#
#
# Mechanical properties :
#
#
# Convention : Reuss Voigt Hill
#
# Bulk Modulus (GPa) = 67.85279 72.51508 70.18393
# Shear Modulus (GPa) = 46.29352 49.02172 47.65762
#
# Velocity S-wave (km/s) = 4.04416 4.16162 4.10331
# Velocity P-wave (km/s) = 6.76602 6.97935 6.87351
#
# Compressibility (1/GPa) = 0.01473779
#
# Stress axis : x y z
#
# Youngs Moduli (GPa) = 99.17583 99.17583 154.13277
#
# Poissons Ratio (x) = 0.18844 0.31275
# Poissons Ratio (y) = 0.18844 0.31275
# Poissons Ratio (z) = 0.20123 0.20123
#
# Static dielectric constant tensor:
#      x y z
#    x 2.208460 0.000000 0.000000 
#    y 0.000000 2.208460 0.000000 
#    z 0.000000 0.000000 2.170470 
# 
# From -- ./inp_files/2178.got.cif
#   From: 2010.05.17/outbox.cif.g08.bks.cpg/sg151_2_cif.got.tgz:2178.got - 2010.05.20 10:33:20.
