data_PCOD9575933
_publ_section_title
;
Structure prediction by ZEFSAII (Michael W. Deem and Ramdas Pophale) SiO2 
 PCOD9575933
Probable space group: P 31 2 1
;
_chemical_formula_sum "Si O2"
_cell_formula_units_Z 30
_cell_length_a 8.502240
_cell_length_b 8.502240
_cell_length_c 24.260175
_cell_angle_alpha 90.000000
_cell_angle_beta 90.000000
_cell_angle_gamma 120.000000
_cell_volume 1518.767451
_symmetry_space_group_name_H-M "P 31 2 1"
_symmetry_group_IT_number 152
_symmetry_cell_setting 'hexagonal'
loop_
_space_group_symop_operation_xyz
x,y,z
-y,x-y,1/3+z
-x+y,-x,2/3+z
x-y,-y,2/3-z
-x,-x+y,1/3-z
y,x,-z
loop_
_atom_site_type_symbol
_atom_site_label
_atom_site_fract_x
_atom_site_fract_y
_atom_site_fract_z
Si Si1 0.840871 0.196072 0.303095
Si Si2 0.180609 0.974521 0.493742
Si Si3 0.795216 0.664447 0.457061
Si Si4 0.670641 0.498827 0.747890
Si Si5 0.016173 0.450620 0.730257
O O1 0.895249 0.342653 0.351746
O O2 0.662972 0.174333 0.271158
O O3 0.004092 0.241035 0.262474
O O4 0.767361 0.000000 0.333334
O O5 0.281880 0.949532 0.545776
O O6 0.287375 0.971917 0.439475
O O7 0.982628 0.796707 0.488105
O O8 0.140092 0.140092 0.500000
O O9 0.638174 0.638174 0.500000
O O10 0.811041 0.494979 0.437517
O O11 0.839502 0.463082 0.746168
O O12 0.000000 0.387855 0.666667
#
# Coordination Sequence:
#
# PCOD9575933 Si02
#       5
#     6   6   6   6   6
#     4   9  19  39  59  79 114 152 188 234 288 346
#     4  11  21  35  57  83 112 151 193 233 281 340
#     4  11  22  37  60  85 113 152 193 234 288 346
#     4  10  21  37  56  84 117 146 189 241 288 339
#     4   9  20  38  57  79 112 149 185 232 284 337
#
# _framework density 19.752860999999999
#
# number of rings (size 3 to 8) (size 9 to 14) (size 15 to 20)
#    0.000    2.400    0.000    7.200    0.000    6.400 
#    0.000    4.000    0.000    0.000    0.000    0.000 
#    0.000    0.000    0.000    0.000    0.000    0.000 
#
# Total GULP energy -167312.681597 kJ/mol
# GULP energy per Si atom -5577.089387 kJ/mol
# Density = 1.970790 g / cm^3
# Si number density = 19.752861 Si / 1000 Ang^3
#
#
#
# Elastic Constant Matrix: (Units=GPa)
#
#
# Indices 1 2 3 4 5 6 
#
# 1 76.6082 29.6888 44.1421 -12.0469 -0.0003 0.0000
# 2 29.6888 76.6082 44.1421 12.0469 0.0003 0.0000
# 3 44.1421 44.1421 83.9773 0.0000 0.0000 0.0000
# 4 -12.0469 12.0469 0.0000 35.4310 0.0000 0.0003
# 5 -0.0003 0.0003 0.0000 0.0000 35.4310 -12.0469
# 6 0.0000 0.0000 0.0000 0.0003 -12.0469 23.4597
#
#
#
# Elastic Compliance Matrix: (Units=1/GPa)
#
#
# Indices 1 2 3 4 5 6 
#
# 1 0.021259 -0.004562 -0.008777 0.008780 0.000000 0.000000
# 2 -0.004562 0.021259 -0.008777 -0.008780 0.000000 0.000000
# 3 -0.008777 -0.008777 0.021135 0.000000 0.000000 0.000000
# 4 0.008780 -0.008780 0.000000 0.034194 0.000000 0.000000
# 5 0.000000 0.000000 0.000000 0.000000 0.034194 0.017559
# 6 0.000000 0.000000 0.000000 0.000000 0.017559 0.051643
#
#
# Mechanical properties :
#
#
# Convention : Reuss Voigt Hill
#
# Bulk Modulus (GPa) = 51.48771 52.57107 52.02939
# Shear Modulus (GPa) = 21.33193 26.81237 24.07215
#
# Velocity S-wave (km/s) = 3.28981 3.68828 3.49473
# Velocity P-wave (km/s) = 6.36812 6.69403 6.53311
#
# Compressibility (1/GPa) = 0.01942211
#
# Stress axis : x y z
#
# Youngs Moduli (GPa) = 47.03819 47.03819 47.31533
#
# Poissons Ratio (x) = 0.21460 0.41527
# Poissons Ratio (y) = 0.21460 0.41527
# Poissons Ratio (z) = 0.41284 0.41284
#
# Static dielectric constant tensor:
#      x y z
#    x 1.710170 0.000000 0.000000 
#    y 0.000000 1.710170 0.000000 
#    z 0.000000 0.000000 1.769990 
# 
# From -- ./inp_files/2978.got.cif
#   From: 2010.05.17/outbox.cif.g08.bks.cpg/sg152_2_cif.got.tgz:2978.got - 2010.05.20 10:36:06.
