data_PCOD9575427
_publ_section_title
;
Structure prediction by ZEFSAII (Michael W. Deem and Ramdas Pophale) SiO2 
 PCOD9575427
Probable space group: P 3 2 1
;
_chemical_formula_sum "Si O2"
_cell_formula_units_Z 44
_cell_length_a 11.750257
_cell_length_b 11.750257
_cell_length_c 18.210838
_cell_angle_alpha 90.000000
_cell_angle_beta 90.000000
_cell_angle_gamma 120.000000
_cell_volume 2177.485611
_symmetry_space_group_name_H-M "P 3 2 1"
_symmetry_group_IT_number 150
_symmetry_cell_setting 'hexagonal'
loop_
_space_group_symop_operation_xyz
x,y,z
-y,x-y,z
-x+y,-x,z
x-y,-y,-z
-x,-x+y,-z
y,x,-z
loop_
_atom_site_type_symbol
_atom_site_label
_atom_site_fract_x
_atom_site_fract_y
_atom_site_fract_z
Si Si1 0.072049 0.652651 0.372428
Si Si2 0.279620 0.168446 0.434622
Si Si3 0.984316 0.727146 0.773657
Si Si4 0.667520 0.063109 0.076413
Si Si5 0.735083 0.745124 0.767721
Si Si6 0.000000 0.000000 0.591143
Si Si7 0.332196 0.935566 0.922256
Si Si8 0.384969 0.062019 0.611437
O O1 0.064118 0.673839 0.285571
O O2 0.188928 0.796681 0.400451
O O3 0.088593 0.532064 0.398059
O O4 0.928715 0.621712 0.400262
O O5 0.218922 0.218922 0.500000
O O6 0.148167 0.089291 0.385539
O O7 0.326980 0.060700 0.433888
O O8 0.887240 0.785419 0.767017
O O9 0.982664 0.675591 0.854945
O O10 0.132517 0.843588 0.760884
O O11 0.532431 0.064378 0.079445
O O12 0.788896 0.209857 0.079799
O O13 0.673340 0.000000 0.000000
O O14 0.680433 0.678743 0.846962
O O15 0.674222 0.652770 0.696689
O O16 0.000000 0.000000 0.500000
O O17 0.327988 0.000000 0.000000
#
# Coordination Sequence:
#
# PCOD9575427 Si02
#       8
#     6   6   6   6   6   2   6   6
#     4  11  23  41  63  93 131 169 211 261 322 390
#     4  11  22  42  69  96 126 165 217 265 316 379
#     4  10  20  35  58  86 117 161 210 261 324 379
#     4  10  20  34  52  77 111 152 205 261 321 392
#     4  10  20  35  58  87 121 159 210 271 319 387
#     4   9  18  36  69  99 117 150 211 269 295 360
#     4  10  20  34  52  77 112 158 207 262 327 388
#     4  11  23  41  66  96 134 171 215 265 327 390
#
# _framework density 20.206793999999999
#
# number of rings (size 3 to 8) (size 9 to 14) (size 15 to 20)
#    0.000    1.636    2.727    2.455    0.000    0.000 
#    3.273    0.000    0.000   13.091    0.000    0.000 
#    0.000    0.000    0.000    0.000    0.000    0.000 
#
# Total GULP energy -245169.414263 kJ/mol
# GULP energy per Si atom -5572.032142 kJ/mol
# Density = 2.016080 g / cm^3
# Si number density = 20.206794 Si / 1000 Ang^3
#
#
#
# Elastic Constant Matrix: (Units=GPa)
#
#
# Indices 1 2 3 4 5 6 
#
# 1 94.6953 28.1768 25.7355 2.2347 0.0000 0.0000
# 2 28.1768 94.6953 25.7355 -2.2347 0.0000 0.0000
# 3 25.7355 25.7355 98.1501 0.0000 0.0000 0.0000
# 4 2.2347 -2.2347 0.0000 28.5346 0.0000 0.0000
# 5 0.0000 0.0000 0.0000 0.0000 28.5346 2.2347
# 6 0.0000 0.0000 0.0000 0.0000 2.2347 33.2592
#
#
#
# Elastic Compliance Matrix: (Units=1/GPa)
#
#
# Indices 1 2 3 4 5 6 
#
# 1 0.012128 -0.002985 -0.002397 -0.001184 0.000000 0.000000
# 2 -0.002985 0.012128 -0.002397 0.001184 0.000000 0.000000
# 3 -0.002397 -0.002397 0.011446 0.000000 0.000000 0.000000
# 4 -0.001184 0.001184 0.000000 0.035231 0.000000 0.000000
# 5 0.000000 0.000000 0.000000 0.000000 0.035231 -0.002367
# 6 0.000000 0.000000 0.000000 0.000000 -0.002367 0.030226
#
#
# Mechanical properties :
#
#
# Convention : Reuss Voigt Hill
#
# Bulk Modulus (GPa) = 49.64742 49.64848 49.64795
# Shear Modulus (GPa) = 31.51360 31.92522 31.71941
#
# Velocity S-wave (km/s) = 3.95340 3.97914 3.96629
# Velocity P-wave (km/s) = 6.74257 6.76276 6.75267
#
# Compressibility (1/GPa) = 0.02014203
#
# Stress axis : x y z
#
# Youngs Moduli (GPa) = 82.45482 82.45482 87.36952
#
# Poissons Ratio (x) = 0.24614 0.20945
# Poissons Ratio (y) = 0.24614 0.20945
# Poissons Ratio (z) = 0.19767 0.19767
#
# Static dielectric constant tensor:
#      x y z
#    x 1.713720 0.000000 0.000000 
#    y 0.000000 1.713720 0.000000 
#    z 0.000000 0.000000 1.803000 
# 
# From -- ./inp_files/1126.got.cif
#   From: 2010.05.17/outbox.cif.g08.bks.cpg/sg150_cif.got.tgz:1126.got - 2010.05.20 13:53:18.
