data_PCOD9575008
_publ_section_title
;
Structure prediction by ZEFSAII (Michael W. Deem and Ramdas Pophale) SiO2 
 PCOD9575008
Probable space group: R -3
;
_chemical_formula_sum "Si O2"
_cell_formula_units_Z 144
_cell_length_a 20.228804
_cell_length_b 20.228804
_cell_length_c 19.058948
_cell_angle_alpha 90.000000
_cell_angle_beta 90.000000
_cell_angle_gamma 120.000000
_cell_volume 6754.138621
_symmetry_space_group_name_H-M "R -3"
_symmetry_group_IT_number 148
_symmetry_cell_setting 'hexagonal'
loop_
_space_group_symop_operation_xyz
x,y,z
-y,x-y,z
-x+y,-x,z
-x,-y,-z
y,-x+y,-z
x-y,x,-z
2/3+x,1/3+y,1/3+z
2/3-y,1/3+x-y,1/3+z
2/3-x+y,1/3-x,1/3+z
2/3-x,1/3-y,1/3-z
2/3+y,1/3-x+y,1/3-z
2/3+x-y,1/3+x,1/3-z
1/3+x,2/3+y,2/3+z
1/3-y,2/3+x-y,2/3+z
1/3-x+y,2/3-x,2/3+z
1/3-x,2/3-y,2/3-z
1/3+y,2/3-x+y,2/3-z
1/3+x-y,2/3+x,2/3-z
loop_
_atom_site_type_symbol
_atom_site_label
_atom_site_fract_x
_atom_site_fract_y
_atom_site_fract_z
Si Si1 0.603316 0.043011 0.240094
Si Si2 0.966795 0.726085 0.365968
Si Si3 0.909374 0.125427 0.443786
Si Si4 0.286322 0.236776 0.210139
Si Si5 0.207931 0.433019 0.458764
Si Si6 0.073629 0.323655 0.938954
Si Si7 0.192550 0.406136 0.257902
Si Si8 0.505143 0.662145 0.984660
O O1 0.581619 0.098019 0.197929
O O2 0.592525 0.051002 0.322816
O O3 0.544499 0.953431 0.226715
O O4 0.682609 0.049146 0.216258
O O5 0.923661 0.744338 0.425439
O O6 0.976268 0.655757 0.390820
O O7 0.926047 0.715858 0.290798
O O8 0.049866 0.800420 0.361680
O O9 0.914916 0.114791 0.526494
O O10 0.954637 0.114859 0.378706
O O11 0.204384 0.233203 0.202440
O O12 0.294495 0.206251 0.134297
O O13 0.183040 0.347456 0.432622
O O14 0.273598 0.495431 0.407121
O O15 0.129101 0.414492 0.947066
O O16 0.266653 0.422782 0.300084
#
# Coordination Sequence:
#
# PCOD9575008 Si02
#       8
#    18  18  18  18  18  18  18  18
#     4   9  19  30  47  71 100 134 162 200 253 302
#     4  11  20  31  47  74  98 134 169 201 252 297
#     4  10  21  31  45  70 106 130 165 209 250 296
#     4  11  20  32  52  73 102 133 172 210 248 301
#     4  11  18  30  51  74  96 130 172 208 245 299
#     4  10  18  32  48  71 105 130 162 205 249 305
#     4  11  18  31  50  75  96 130 170 213 248 296
#     4  11  19  32  50  73  98 136 170 209 253 303
#
# _framework density 21.320260999999999
#
# number of rings (size 3 to 8) (size 9 to 14) (size 15 to 20)
#    0.000    1.500    3.750    5.625    0.000    0.000 
#    0.000    2.500    2.750    0.500    0.000    1.750 
#    0.000    0.000    0.000    1.500    0.000    0.125 
#
# Total GULP energy -267336.120236 kJ/mol
# GULP energy per Si atom -5569.502505 kJ/mol
# Density = 2.127173 g / cm^3
# Si number density = 21.320261 Si / 1000 Ang^3
#
#
#
# Elastic Constant Matrix: (Units=GPa)
#
#
# Indices 1 2 3 4 5 6 
#
# 1 25.9520 17.1237 13.0089 -4.1174 1.2680 0.0000
# 2 17.1237 25.9520 13.0089 4.1174 -1.2680 0.0000
# 3 13.0089 13.0089 138.4819 0.0000 0.0000 0.0000
# 4 -4.1174 4.1174 0.0000 26.1239 0.0000 -1.2680
# 5 1.2680 -1.2680 0.0000 0.0000 26.1239 -4.1174
# 6 0.0000 0.0000 0.0000 -1.2680 -4.1174 4.4141
#
#
#
# Elastic Compliance Matrix: (Units=1/GPa)
#
#
# Indices 1 2 3 4 5 6 
#
# 1 0.079807 -0.055195 -0.002312 0.021278 -0.006553 0.000000
# 2 -0.055195 0.079807 -0.002312 -0.021278 0.006553 0.000000
# 3 -0.002312 -0.002312 0.007656 0.000000 0.000000 0.000000
# 4 0.021278 -0.021278 0.000000 0.045622 0.000000 0.013105
# 5 -0.006553 0.006553 0.000000 0.000000 0.045622 0.042556
# 6 0.000000 0.000000 0.000000 0.013105 0.042556 0.270004
#
#
# Mechanical properties :
#
#
# Convention : Reuss Voigt Hill
#
# Bulk Modulus (GPa) = 20.99496 30.74096 25.86796
# Shear Modulus (GPa) = 7.52974 21.14870 14.33922
#
# Velocity S-wave (km/s) = 1.88133 3.15295 2.59620
# Velocity P-wave (km/s) = 3.81942 5.26353 4.59852
#
# Compressibility (1/GPa) = 0.04763049
#
# Stress axis : x y z
#
# Youngs Moduli (GPa) = 12.53027 12.53027 130.62457
#
# Poissons Ratio (x) = 0.69161 0.30200
# Poissons Ratio (y) = 0.69161 0.30200
# Poissons Ratio (z) = 0.02897 0.02897
#
# Static dielectric constant tensor:
#      x y z
#    x 1.795410 0.000000 0.000000 
#    y 0.000000 1.795410 0.000000 
#    z 0.000000 0.000000 1.946790 
# 
# From -- ./inp_files/3163.got.cif
#   From: 2010.05.17/outbox.cif.g08.bks.cpg/sg148_2_cif.got.tgz:3163.got - 2010.05.20 13:50:20.
