data_PCOD9575951
_publ_section_title
;
Structure prediction by ZEFSAII (Michael W. Deem and Ramdas Pophale) SiO2 
 PCOD9575951
Probable space group: P 31 2 1
;
_chemical_formula_sum "Si O2"
_cell_formula_units_Z 36
_cell_length_a 8.654216
_cell_length_b 8.654216
_cell_length_c 24.860548
_cell_angle_alpha 90.000000
_cell_angle_beta 90.000000
_cell_angle_gamma 120.000000
_cell_volume 1612.489110
_symmetry_space_group_name_H-M "P 31 2 1"
_symmetry_group_IT_number 152
_symmetry_cell_setting 'hexagonal'
loop_
_space_group_symop_operation_xyz
x,y,z
-y,x-y,1/3+z
-x+y,-x,2/3+z
x-y,-y,2/3-z
-x,-x+y,1/3-z
y,x,-z
loop_
_atom_site_type_symbol
_atom_site_label
_atom_site_fract_x
_atom_site_fract_y
_atom_site_fract_z
Si Si1 0.893930 0.551529 0.619315
Si Si2 0.060470 0.650493 0.897495
Si Si3 0.097632 0.774833 0.214566
Si Si4 0.332863 0.522822 0.862646
Si Si5 0.024627 0.425909 0.250435
Si Si6 0.432683 0.271876 0.337154
O O1 0.730817 0.574041 0.603833
O O2 0.829203 0.353195 0.642206
O O3 0.000000 0.685822 0.666667
O O4 0.031016 0.611816 0.570983
O O5 0.165464 0.542592 0.882630
O O6 0.217572 0.852632 0.886443
O O7 0.885414 0.576138 0.860346
O O8 0.989725 0.639689 0.958062
O O9 0.285150 0.797977 0.195277
O O10 0.975697 0.561024 0.221315
O O11 0.129907 0.831774 0.278542
O O12 0.000000 0.821019 0.166667
O O13 0.147431 0.556490 0.298565
#
# Coordination Sequence:
#
# PCOD9575951 Si02
#       6
#     6   6   6   6   6   6
#     4  12  21  40  67  96 134 172 224 282 332 413
#     4  11  23  42  64  98 130 176 228 280 339 408
#     4   9  21  38  62  96 127 169 226 266 324 399
#     4  11  24  40  66  98 132 174 228 279 341 407
#     4   9  22  36  63  94 126 174 221 264 333 406
#     4  10  21  38  66  96 129 172 225 272 331 410
#
# _framework density 22.325733
#
# number of rings (size 3 to 8) (size 9 to 14) (size 15 to 20)
#    1.000    0.667    1.667    3.000    7.000    0.000 
#    0.000    0.833    7.333    0.000    0.000    0.000 
#    0.000    0.000    0.000    0.000    0.000    0.000 
#
# Total GULP energy -200498.027854 kJ/mol
# GULP energy per Si atom -5569.389663 kJ/mol
# Density = 2.227492 g / cm^3
# Si number density = 22.325733 Si / 1000 Ang^3
#
#
#
# Elastic Constant Matrix: (Units=GPa)
#
#
# Indices 1 2 3 4 5 6 
#
# 1 63.6656 2.6936 15.8731 0.9503 -0.0012 0.0000
# 2 2.6936 63.6656 15.8731 -0.9503 0.0012 0.0000
# 3 15.8731 15.8731 127.6195 0.0000 0.0000 0.0000
# 4 0.9503 -0.9503 0.0000 25.7464 0.0000 0.0012
# 5 -0.0012 0.0012 0.0000 0.0000 25.7464 0.9503
# 6 0.0000 0.0000 0.0000 0.0012 0.9503 30.4860
#
#
#
# Elastic Compliance Matrix: (Units=1/GPa)
#
#
# Indices 1 2 3 4 5 6 
#
# 1 0.016221 -0.000198 -0.001993 -0.000606 0.000001 0.000000
# 2 -0.000198 0.016221 -0.001993 0.000606 -0.000001 0.000000
# 3 -0.001993 -0.001993 0.008332 0.000000 0.000000 0.000000
# 4 -0.000606 0.000606 0.000000 0.038885 0.000000 -0.000002
# 5 0.000001 -0.000001 0.000000 0.000000 0.038885 -0.001212
# 6 0.000000 0.000000 0.000000 -0.000002 -0.001212 0.032840
#
#
# Mechanical properties :
#
#
# Convention : Reuss Voigt Hill
#
# Bulk Modulus (GPa) = 30.85873 35.98116 33.41994
# Shear Modulus (GPa) = 29.31610 31.09649 30.20630
#
# Velocity S-wave (km/s) = 3.62761 3.73615 3.68228
# Velocity P-wave (km/s) = 5.60341 5.89603 5.75158
#
# Compressibility (1/GPa) = 0.03240574
#
# Stress axis : x y z
#
# Youngs Moduli (GPa) = 61.64704 61.64704 120.02581
#
# Poissons Ratio (x) = 0.01223 0.23920
# Poissons Ratio (y) = 0.01223 0.23920
# Poissons Ratio (z) = 0.12286 0.12286
#
# Static dielectric constant tensor:
#      x y z
#    x 1.828370 0.000000 0.000000 
#    y 0.000000 1.828370 0.000000 
#    z 0.000000 0.000000 1.996870 
# 
# From -- ./inp_files/3343.got.cif
#   From: 2010.05.17/outbox.cif.g08.bks.cpg/sg152_2_cif.got.tgz:3343.got - 2010.05.20 10:36:06.
