data_PCOD9575100
_publ_section_title
;
Structure prediction by ZEFSAII (Michael W. Deem and Ramdas Pophale) SiO2 
 PCOD9575100
Probable space group: R -3
;
_chemical_formula_sum "Si O2"
_cell_formula_units_Z 144
_cell_length_a 33.358322
_cell_length_b 33.358322
_cell_length_c 7.570029
_cell_angle_alpha 90.000000
_cell_angle_beta 90.000000
_cell_angle_gamma 120.000000
_cell_volume 7295.189338
_symmetry_space_group_name_H-M "R -3"
_symmetry_group_IT_number 148
_symmetry_cell_setting 'hexagonal'
loop_
_space_group_symop_operation_xyz
x,y,z
-y,x-y,z
-x+y,-x,z
-x,-y,-z
y,-x+y,-z
x-y,x,-z
2/3+x,1/3+y,1/3+z
2/3-y,1/3+x-y,1/3+z
2/3-x+y,1/3-x,1/3+z
2/3-x,1/3-y,1/3-z
2/3+y,1/3-x+y,1/3-z
2/3+x-y,1/3+x,1/3-z
1/3+x,2/3+y,2/3+z
1/3-y,2/3+x-y,2/3+z
1/3-x+y,2/3-x,2/3+z
1/3-x,2/3-y,2/3-z
1/3+y,2/3-x+y,2/3-z
1/3+x-y,2/3+x,2/3-z
loop_
_atom_site_type_symbol
_atom_site_label
_atom_site_fract_x
_atom_site_fract_y
_atom_site_fract_z
Si Si1 0.903184 0.215980 0.292192
Si Si2 0.388102 0.834915 0.339735
Si Si3 0.180880 0.778638 0.837152
Si Si4 0.946717 0.890796 0.991712
Si Si5 0.452158 0.522390 0.881518
Si Si6 0.719731 0.220568 0.677389
Si Si7 0.001374 0.299189 0.331004
Si Si8 0.215429 0.899022 0.360154
O O1 0.870905 0.229601 0.176211
O O2 0.882565 0.162031 0.253774
O O3 0.957815 0.250137 0.270745
O O4 0.892628 0.221685 0.495261
O O5 0.406160 0.887562 0.395226
O O6 0.393571 0.809382 0.511321
O O7 0.334561 0.809051 0.288155
O O8 0.418004 0.832170 0.181173
O O9 0.198206 0.783453 0.635176
O O10 0.922153 0.861350 0.816934
O O11 0.923089 0.921513 0.034361
O O12 0.494688 0.549606 0.018290
O O13 0.406939 0.521554 0.950849
O O14 0.445215 0.471242 0.856392
O O15 0.984713 0.317559 0.497119
O O16 0.047126 0.297553 0.389691
#
# Coordination Sequence:
#
# PCOD9575100 Si02
#       8
#    18  18  18  18  18  18  18  18
#     4   9  20  39  60  87 123 165 209 259 304 377
#     4  11  23  41  62  92 126 161 205 260 309 378
#     4  10  20  39  64  88 123 167 208 252 318 371
#     4  10  21  40  63  90 122 158 199 248 309 372
#     4  10  20  39  62  88 122 168 205 254 311 379
#     4  11  23  41  62  94 125 162 205 256 310 373
#     4  10  22  40  59  92 126 162 212 262 310 364
#     4   9  20  39  60  85 125 163 209 252 315 373
#
# _framework density 19.739035000000001
#
# number of rings (size 3 to 8) (size 9 to 14) (size 15 to 20)
#    0.000    2.000    1.250    1.625    1.750    2.000 
#   13.500    0.000    0.000    4.000    0.000    0.000 
#    0.000    0.000    0.000    0.000    0.000    0.000 
#
# Total GULP energy -268171.149392 kJ/mol
# GULP energy per Si atom -5586.898946 kJ/mol
# Density = 1.969411 g / cm^3
# Si number density = 19.739035 Si / 1000 Ang^3
#
#
#
# Elastic Constant Matrix: (Units=GPa)
#
#
# Indices 1 2 3 4 5 6 
#
# 1 89.2157 38.8630 23.8665 -2.6000 -1.4087 0.0090
# 2 38.8630 89.1114 23.8223 2.6300 1.3789 0.0084
# 3 23.8665 23.8223 60.5318 0.0150 0.0505 0.0070
# 4 -2.6000 2.6300 0.0150 25.6603 0.0045 1.4280
# 5 -1.4087 1.3789 0.0505 0.0045 25.7776 -2.6617
# 6 0.0090 0.0084 0.0070 1.4280 -2.6617 25.1171
#
#
#
# Elastic Compliance Matrix: (Units=1/GPa)
#
#
# Indices 1 2 3 4 5 6 
#
# 1 0.014648 -0.005500 -0.003612 0.002050 0.001101 -0.000002
# 2 -0.005500 0.014660 -0.003600 -0.002058 -0.001077 0.000001
# 3 -0.003612 -0.003600 0.019361 -0.000008 -0.000044 -0.000007
# 4 0.002050 -0.002058 -0.000008 0.039514 -0.000017 -0.002248
# 5 0.001101 -0.001077 -0.000044 -0.000017 0.039342 0.004170
# 6 -0.000002 0.000001 -0.000007 -0.002248 0.004170 0.040383
#
#
# Mechanical properties :
#
#
# Convention : Reuss Voigt Hill
#
# Bulk Modulus (GPa) = 43.01899 45.77362 44.39631
# Shear Modulus (GPa) = 24.86550 25.46481 25.16515
#
# Velocity S-wave (km/s) = 3.55309 3.59566 3.57444
# Velocity P-wave (km/s) = 6.21883 6.36224 6.29094
#
# Compressibility (1/GPa) = 0.02324555
#
# Stress axis : x y z
#
# Youngs Moduli (GPa) = 68.26781 68.21146 51.64983
#
# Poissons Ratio (x) = 0.37518 0.18658
# Poissons Ratio (y) = 0.37549 0.18592
# Poissons Ratio (z) = 0.24661 0.24553
#
# Static dielectric constant tensor:
#      x y z
#    x 1.674390 0.000000 -0.000200 
#    y 0.000000 1.674480 0.000010 
#    z -0.000200 0.000010 1.706330 
# 
# From -- ./inp_files/1148.got.cif
#   From: 2010.05.17/outbox.cif.g08.bks.cpg/sg148_1_cif.got.tgz:1148.got - 2010.05.20 13:50:20.
