data_PCOD9575332
_publ_section_title
;
Structure prediction by ZEFSAII (Michael W. Deem and Ramdas Pophale) SiO2 
 PCOD9575332
Probable space group: R -3
;
_chemical_formula_sum "Si O2"
_cell_formula_units_Z 36
_cell_length_a 13.770734
_cell_length_b 13.770734
_cell_length_c 8.190929
_cell_angle_alpha 90.000000
_cell_angle_beta 90.000000
_cell_angle_gamma 120.000000
_cell_volume 1345.172474
_symmetry_space_group_name_H-M "R -3"
_symmetry_group_IT_number 148
_symmetry_cell_setting 'hexagonal'
loop_
_space_group_symop_operation_xyz
x,y,z
-y,x-y,z
-x+y,-x,z
-x,-y,-z
y,-x+y,-z
x-y,x,-z
2/3+x,1/3+y,1/3+z
2/3-y,1/3+x-y,1/3+z
2/3-x+y,1/3-x,1/3+z
2/3-x,1/3-y,1/3-z
2/3+y,1/3-x+y,1/3-z
2/3+x-y,1/3+x,1/3-z
1/3+x,2/3+y,2/3+z
1/3-y,2/3+x-y,2/3+z
1/3-x+y,2/3-x,2/3+z
1/3-x,2/3-y,2/3-z
1/3+y,2/3-x+y,2/3-z
1/3+x-y,2/3+x,2/3-z
loop_
_atom_site_type_symbol
_atom_site_label
_atom_site_fract_x
_atom_site_fract_y
_atom_site_fract_z
Si Si1 0.217947 0.757895 0.276391
Si Si2 0.551280 0.126719 0.443058
O O1 0.341025 0.847247 0.210527
O O2 0.166667 0.833334 0.333334
O O3 0.198252 0.666667 0.416667
O O4 0.493777 0.152753 0.289473
O O5 0.500000 0.000000 0.500000
#
# Coordination Sequence:
#
# PCOD9575332 Si02
#       2
#    18  18
#     4  12  29  54  86 128 173 228 291 360 434 518
#     4  12  29  54  86 128 173 228 291 360 434 518
#
# _framework density 26.762369
#
# number of rings (size 3 to 8) (size 9 to 14) (size 15 to 20)
#    0.000    0.000    0.000    7.000    0.000   24.000 
#    0.000    0.000    0.000    0.000    0.000    0.000 
#    0.000    0.000    0.000    0.000    0.000    0.000 
#
# Total GULP energy -67116.246896 kJ/mol
# GULP energy per Si atom -5593.020575 kJ/mol
# Density = 2.670146 g / cm^3
# Si number density = 26.762369 Si / 1000 Ang^3
#
#
#
# Elastic Constant Matrix: (Units=GPa)
#
#
# Indices 1 2 3 4 5 6 
#
# 1 243.6826 130.0076 104.0160 4.7196 0.0002 0.0000
# 2 130.0076 243.6826 104.0160 -4.7196 -0.0002 0.0000
# 3 104.0160 104.0160 159.6542 0.0000 0.0000 0.0000
# 4 4.7196 -4.7196 0.0000 66.8558 0.0000 -0.0002
# 5 0.0002 -0.0002 0.0000 0.0000 66.8558 4.7196
# 6 0.0000 0.0000 0.0000 -0.0002 4.7196 56.8375
#
#
#
# Elastic Compliance Matrix: (Units=1/GPa)
#
#
# Indices 1 2 3 4 5 6 
#
# 1 0.006524 -0.002325 -0.002736 -0.000625 0.000000 0.000000
# 2 -0.002325 0.006524 -0.002736 0.000625 0.000000 0.000000
# 3 -0.002736 -0.002736 0.009828 0.000000 0.000000 0.000000
# 4 -0.000625 0.000625 0.000000 0.015046 0.000000 0.000000
# 5 0.000000 0.000000 0.000000 0.000000 0.015046 -0.001249
# 6 0.000000 0.000000 0.000000 0.000000 -0.001249 0.017698
#
#
# Mechanical properties :
#
#
# Convention : Reuss Voigt Hill
#
# Bulk Modulus (GPa) = 137.29797 147.01098 142.15447
# Shear Modulus (GPa) = 56.37896 58.70845 57.54371
#
# Velocity S-wave (km/s) = 4.59481 4.68877 4.64203
# Velocity P-wave (km/s) = 8.91985 9.18499 9.05339
#
# Compressibility (1/GPa) = 0.00728343
#
# Stress axis : x y z
#
# Youngs Moduli (GPa) = 153.28235 153.28235 101.74882
#
# Poissons Ratio (x) = 0.35638 0.27835
# Poissons Ratio (y) = 0.35638 0.27835
# Poissons Ratio (z) = 0.41933 0.41933
#
# Static dielectric constant tensor:
#      x y z
#    x 2.097020 0.000000 0.000000 
#    y 0.000000 2.097020 0.000000 
#    z 0.000000 0.000000 2.323120 
# 
# From -- ./inp_files/526.got.cif
#   From: 2010.05.17/outbox.cif.g08.bks.cpg/sg148_1_cif.got.tgz:526.got - 2010.05.20 13:50:20.
