data_PCOD9575509
_publ_section_title
;
Structure prediction by ZEFSAII (Michael W. Deem and Ramdas Pophale) SiO2 
 PCOD9575509
Probable space group: P 31 1 2
;
_chemical_formula_sum "Si O2"
_cell_formula_units_Z 36
_cell_length_a 16.707788
_cell_length_b 16.707788
_cell_length_c 9.625418
_cell_angle_alpha 90.000000
_cell_angle_beta 90.000000
_cell_angle_gamma 120.000000
_cell_volume 2326.955844
_symmetry_space_group_name_H-M "P 31 1 2"
_symmetry_group_IT_number 151
_symmetry_cell_setting 'hexagonal'
loop_
_space_group_symop_operation_xyz
x,y,z
-y,x-y,1/3+z
-x+y,-x,2/3+z
-y,-x,2/3-z
-x+y,y,1/3-z
x,x-y,-z
loop_
_atom_site_type_symbol
_atom_site_label
_atom_site_fract_x
_atom_site_fract_y
_atom_site_fract_z
Si Si1 0.809121 0.679545 0.009176
Si Si2 0.549603 0.172994 0.813764
Si Si3 0.659965 0.176446 0.067814
Si Si4 0.886455 0.009964 0.110615
Si Si5 0.037587 0.195899 0.272438
Si Si6 0.740822 0.640380 0.573018
O O1 0.836354 0.672707 0.166667
O O2 0.710534 0.593434 0.960333
O O3 0.824423 0.779970 0.970781
O O4 0.880886 0.667036 0.912481
O O5 0.572586 0.145171 0.666667
O O6 0.537699 0.262330 0.793987
O O7 0.453478 0.099164 0.886296
O O8 0.630680 0.194969 0.918991
O O9 0.570464 0.140928 0.166667
O O10 0.965952 0.102307 0.186894
O O11 0.833073 0.945162 0.242677
O O12 0.918102 0.959051 0.000000
O O13 0.122053 0.244105 0.166667
O O14 0.986220 0.254124 0.297498
O O15 0.812188 0.624375 0.666667
#
# Coordination Sequence:
#
# PCOD9575509 Si02
#       6
#     6   6   6   6   6   6
#     4  10  20  32  45  65  94 122 153 192 242 279
#     4  11  20  29  44  67  91 120 161 198 225 261
#     4  11  20  29  46  65  90 124 163 198 226 262
#     4  10  22  33  48  67  89 117 151 194 236 273
#     4  10  21  34  48  67  87 116 157 190 229 283
#     4  10  18  34  47  60  91 128 151 189 241 283
#
# _framework density 15.470855999999999
#
# number of rings (size 3 to 8) (size 9 to 14) (size 15 to 20)
#    0.000    1.667    3.333    6.000    7.000    0.000 
#    0.000    0.000    0.000    0.000    0.000    0.000 
#    0.000    0.000    0.000    3.000    0.333    0.167 
#
# Total GULP energy -200617.831281 kJ/mol
# GULP energy per Si atom -5572.717536 kJ/mol
# Density = 1.543564 g / cm^3
# Si number density = 15.470856 Si / 1000 Ang^3
#
#
#
# Elastic Constant Matrix: (Units=GPa)
#
#
# Indices 1 2 3 4 5 6 
#
# 1 49.2797 23.7483 16.9053 0.0001 -1.4832 0.0000
# 2 23.7483 49.2797 16.9053 -0.0001 1.4832 0.0000
# 3 16.9053 16.9053 102.0607 0.0000 0.0000 0.0000
# 4 0.0001 -0.0001 0.0000 18.8251 0.0000 1.4832
# 5 -1.4832 1.4832 0.0000 0.0000 18.8251 0.0001
# 6 0.0000 0.0000 0.0000 1.4832 0.0001 12.7657
#
#
#
# Elastic Compliance Matrix: (Units=1/GPa)
#
#
# Indices 1 2 3 4 5 6 
#
# 1 0.027180 -0.012349 -0.002457 0.000000 0.003115 0.000000
# 2 -0.012349 0.027180 -0.002457 0.000000 -0.003115 0.000000
# 3 -0.002457 -0.002457 0.010612 0.000000 0.000000 0.000000
# 4 0.000000 0.000000 0.000000 0.053611 0.000000 -0.006229
# 5 0.003115 -0.003115 0.000000 0.000000 0.053611 0.000000
# 6 0.000000 0.000000 0.000000 -0.006229 0.000000 0.079058
#
#
# Mechanical properties :
#
#
# Convention : Reuss Voigt Hill
#
# Bulk Modulus (GPa) = 32.84384 35.08199 33.96292
# Shear Modulus (GPa) = 16.89607 19.62059 18.25833
#
# Velocity S-wave (km/s) = 3.30831 3.56508 3.43910
# Velocity P-wave (km/s) = 5.98906 6.29856 6.14576
#
# Compressibility (1/GPa) = 0.03044711
#
# Stress axis : x y z
#
# Youngs Moduli (GPa) = 36.79183 36.79183 94.23384
#
# Poissons Ratio (x) = 0.45435 0.23149
# Poissons Ratio (y) = 0.45435 0.23149
# Poissons Ratio (z) = 0.09038 0.09038
#
# Static dielectric constant tensor:
#      x y z
#    x 1.561500 0.000000 0.000000 
#    y 0.000000 1.561500 0.000000 
#    z 0.000000 0.000000 1.572200 
# 
# From -- ./inp_files/1805.got.cif
#   From: 2010.05.17/outbox.cif.g08.bks.cpg/sg151_1_cif.got.tgz:1805.got - 2010.05.20 10:33:20.
