data_PCOD9575286
_publ_section_title
;
Structure prediction by ZEFSAII (Michael W. Deem and Ramdas Pophale) SiO2 
 PCOD9575286
Probable space group: R -3
;
_chemical_formula_sum "Si O2"
_cell_formula_units_Z 60
_cell_length_a 16.959020
_cell_length_b 16.959020
_cell_length_c 11.442198
_cell_angle_alpha 90.000000
_cell_angle_beta 90.000000
_cell_angle_gamma 120.000000
_cell_volume 2849.978574
_symmetry_space_group_name_H-M "R -3"
_symmetry_group_IT_number 148
_symmetry_cell_setting 'hexagonal'
loop_
_space_group_symop_operation_xyz
x,y,z
-y,x-y,z
-x+y,-x,z
-x,-y,-z
y,-x+y,-z
x-y,x,-z
2/3+x,1/3+y,1/3+z
2/3-y,1/3+x-y,1/3+z
2/3-x+y,1/3-x,1/3+z
2/3-x,1/3-y,1/3-z
2/3+y,1/3-x+y,1/3-z
2/3+x-y,1/3+x,1/3-z
1/3+x,2/3+y,2/3+z
1/3-y,2/3+x-y,2/3+z
1/3-x+y,2/3-x,2/3+z
1/3-x,2/3-y,2/3-z
1/3+y,2/3-x+y,2/3-z
1/3+x-y,2/3+x,2/3-z
loop_
_atom_site_type_symbol
_atom_site_label
_atom_site_fract_x
_atom_site_fract_y
_atom_site_fract_z
Si Si1 0.768706 0.672461 0.067825
Si Si2 0.465819 0.444356 0.184565
Si Si3 0.000000 0.000000 0.362226
Si Si4 0.539432 0.726416 0.325437
O O1 0.833334 0.666667 0.166667
O O2 0.728233 0.737384 0.101230
O O3 0.681458 0.574474 0.046981
O O4 0.827655 0.699653 0.948923
O O5 0.515464 0.438442 0.068238
O O6 0.412140 0.495578 0.138437
O O7 0.077090 0.100134 0.328242
O O8 0.000000 0.000000 0.500000
#
# Coordination Sequence:
#
# PCOD9575286 Si02
#       4
#    18  18   6  18
#     4  12  24  42  67  96 130 169 215 266 321 385
#     4  11  24  43  67  95 129 171 217 266 324 385
#     4  12  24  39  63  94 131 169 213 267 322 383
#     4  11  24  42  65  95 130 170 215 266 323 386
#
# _framework density 21.052789000000001
#
# number of rings (size 3 to 8) (size 9 to 14) (size 15 to 20)
#    0.000    0.600    0.000    9.000    0.000    7.200 
#    0.000    0.000    0.000    6.000    0.000    0.000 
#    0.000    0.000    0.000    0.000    0.000    0.000 
#
# Total GULP energy -111917.571967 kJ/mol
# GULP energy per Si atom -5595.878598 kJ/mol
# Density = 2.100487 g / cm^3
# Si number density = 21.052789 Si / 1000 Ang^3
#
#
#
# Elastic Constant Matrix: (Units=GPa)
#
#
# Indices 1 2 3 4 5 6 
#
# 1 153.5673 83.0345 41.4092 4.6210 2.4352 0.0000
# 2 83.0345 153.5673 41.4092 -4.6210 -2.4352 0.0000
# 3 41.4092 41.4092 92.8069 0.0000 0.0000 0.0000
# 4 4.6210 -4.6210 0.0000 40.3243 0.0000 -2.4352
# 5 2.4352 -2.4352 0.0000 0.0000 40.3243 4.6210
# 6 0.0000 0.0000 0.0000 -2.4352 4.6210 35.2664
#
#
#
# Elastic Compliance Matrix: (Units=1/GPa)
#
#
# Indices 1 2 3 4 5 6 
#
# 1 0.009732 -0.004723 -0.002235 -0.001657 -0.000873 0.000000
# 2 -0.004723 0.009732 -0.002235 0.001657 0.000873 0.000000
# 3 -0.002235 -0.002235 0.012769 0.000000 0.000000 0.000000
# 4 -0.001657 0.001657 0.000000 0.025284 0.000000 0.001746
# 5 -0.000873 0.000873 0.000000 0.000000 0.025284 -0.003313
# 6 0.000000 0.000000 0.000000 0.001746 -0.003313 0.028910
#
#
# Mechanical properties :
#
#
# Convention : Reuss Voigt Hill
#
# Bulk Modulus (GPa) = 72.21496 81.29412 76.75454
# Shear Modulus (GPa) = 37.11588 38.78891 37.95239
#
# Velocity S-wave (km/s) = 4.20335 4.29704 4.25046
# Velocity P-wave (km/s) = 7.61143 7.95724 7.78626
#
# Compressibility (1/GPa) = 0.01384755
#
# Stress axis : x y z
#
# Youngs Moduli (GPa) = 102.75426 102.75426 78.31229
#
# Poissons Ratio (x) = 0.48533 0.17502
# Poissons Ratio (y) = 0.48533 0.17502
# Poissons Ratio (z) = 0.22964 0.22964
#
# Static dielectric constant tensor:
#      x y z
#    x 1.616240 0.000000 0.000000 
#    y 0.000000 1.616240 0.000000 
#    z 0.000000 0.000000 1.781850 
# 
# From -- ./inp_files/1331.got.cif
#   From: 2010.05.17/outbox.cif.g08.bks.cpg/sg148_1_cif.got.tgz:1331.got - 2010.05.20 13:50:20.
