data_PCOD9575164
_publ_section_title
;
Structure prediction by ZEFSAII (Michael W. Deem and Ramdas Pophale) SiO2 
 PCOD9575164
Probable space group: R -3
;
_chemical_formula_sum "Si O2"
_cell_formula_units_Z 114
_cell_length_a 20.146046
_cell_length_b 20.146046
_cell_length_c 15.382749
_cell_angle_alpha 90.000000
_cell_angle_beta 90.000000
_cell_angle_gamma 120.000000
_cell_volume 5406.848838
_symmetry_space_group_name_H-M "R -3"
_symmetry_group_IT_number 148
_symmetry_cell_setting 'hexagonal'
loop_
_space_group_symop_operation_xyz
x,y,z
-y,x-y,z
-x+y,-x,z
-x,-y,-z
y,-x+y,-z
x-y,x,-z
2/3+x,1/3+y,1/3+z
2/3-y,1/3+x-y,1/3+z
2/3-x+y,1/3-x,1/3+z
2/3-x,1/3-y,1/3-z
2/3+y,1/3-x+y,1/3-z
2/3+x-y,1/3+x,1/3-z
1/3+x,2/3+y,2/3+z
1/3-y,2/3+x-y,2/3+z
1/3-x+y,2/3-x,2/3+z
1/3-x,2/3-y,2/3-z
1/3+y,2/3-x+y,2/3-z
1/3+x-y,2/3+x,2/3-z
loop_
_atom_site_type_symbol
_atom_site_label
_atom_site_fract_x
_atom_site_fract_y
_atom_site_fract_z
Si Si1 0.432206 0.956262 0.432367
Si Si2 0.557273 0.803215 0.373761
Si Si3 0.333334 0.666667 0.768254
Si Si4 0.832632 0.358953 0.195958
Si Si5 0.391909 0.448791 0.092959
Si Si6 0.018154 0.729367 0.021805
Si Si7 0.930150 0.189422 0.369253
O O1 0.369043 0.880044 0.476308
O O2 0.455734 0.932964 0.342857
O O3 0.500000 0.000000 0.500000
O O4 0.403835 0.014148 0.405078
O O5 0.526878 0.765340 0.467331
O O6 0.642223 0.871763 0.395042
O O7 0.555571 0.739767 0.306936
O O8 0.518593 0.848078 0.330536
O O9 0.333335 0.666668 0.666667
O O10 0.256875 0.670107 0.791094
O O11 0.890405 0.370292 0.276638
O O12 0.315138 0.365750 0.081324
O O13 0.402138 0.473728 0.193308
O O14 0.929879 0.667469 0.005117
#
# Coordination Sequence:
#
# PCOD9575164 Si02
#       7
#    18  18   6  18  18  18  18
#     4  12  25  43  68 102 131 182 234 288 348 417
#     4  10  23  41  68  97 137 179 221 283 343 418
#     4  12  33  48  69  99 142 206 238 276 348 435
#     4  12  25  50  70  97 145 184 237 284 344 426
#     4  10  22  39  66 105 136 173 220 283 364 401
#     4  11  24  42  70  99 135 173 227 297 349 403
#     4  11  24  40  66 100 136 176 222 280 351 412
#
# _framework density 21.08437
#
# number of rings (size 3 to 8) (size 9 to 14) (size 15 to 20)
#    0.000    0.947    3.158    2.842   11.053    1.263 
#    0.000    0.000    0.000    0.000    0.000    3.316 
#    0.000    0.000    0.000    0.000    0.000    0.000 
#
# Total GULP energy -212031.811910 kJ/mol
# GULP energy per Si atom -5579.784524 kJ/mol
# Density = 2.103638 g / cm^3
# Si number density = 21.084370 Si / 1000 Ang^3
#
#
#
# Elastic Constant Matrix: (Units=GPa)
#
#
# Indices 1 2 3 4 5 6 
#
# 1 40.5939 63.7598 18.8020 2.9267 8.5829 0.0002
# 2 63.7598 40.5938 18.8024 -2.9268 -8.5828 -0.0002
# 3 18.8020 18.8024 72.2115 0.0000 0.0000 0.0000
# 4 2.9267 -2.9268 0.0000 37.1988 0.0000 -8.5828
# 5 8.5829 -8.5828 0.0000 0.0000 37.1987 2.9268
# 6 0.0002 -0.0002 0.0000 -8.5828 2.9268 -11.5835
#
#
#
# Elastic Compliance Matrix: (Units=1/GPa)
#
#
# Indices 1 2 3 4 5 6 
#
# 1 -0.012837 0.023412 -0.002754 0.002852 0.008364 0.000000
# 2 0.023412 -0.012837 -0.002753 -0.002852 -0.008364 0.000000
# 3 -0.002754 -0.002753 0.015282 0.000000 0.000000 0.000000
# 4 0.002852 -0.002852 0.000000 0.022575 0.000000 -0.016727
# 5 0.008364 -0.008364 0.000000 0.000000 0.022574 0.005704
# 6 0.000000 0.000000 0.000000 -0.016727 0.005704 -0.072495
#
#
# Mechanical properties :
#
#
# Convention : Reuss Voigt Hill
#
# Bulk Modulus (GPa) = 39.34189 39.56973 39.45581
# Shear Modulus (GPa) = -76.83463 16.03180 -30.40141
#
# Velocity S-wave (km/s) = -6.04323 2.76046 -3.80135
# Velocity P-wave (km/s) = 5.47671 5.38222 0.71628
#
# Compressibility (1/GPa) = 0.02541820
#
# Stress axis : x y z
#
# Youngs Moduli (GPa) = -77.90115 -77.90031 65.43602
#
# Poissons Ratio (x) = 1.82379 0.18019
# Poissons Ratio (y) = 1.82381 0.18017
# Poissons Ratio (z) = -0.21451 -0.21449
#
# Static dielectric constant tensor:
#      x y z
#    x 1.928630 0.000000 -0.000010 
#    y 0.000000 1.928650 0.000010 
#    z -0.000010 0.000010 1.238870 
# 
# From -- ./inp_files/2115.got.cif
#   From: 2010.05.17/outbox.cif.g08.bks.cpg/sg148_2_cif.got.tgz:2115.got - 2010.05.20 13:50:20.
