data_PCOD9575035
_publ_section_title
;
Structure prediction by ZEFSAII (Michael W. Deem and Ramdas Pophale) SiO2 
 PCOD9575035
Probable space group: R -3
;
_chemical_formula_sum "Si O2"
_cell_formula_units_Z 90
_cell_length_a 15.969647
_cell_length_b 15.969647
_cell_length_c 16.993081
_cell_angle_alpha 90.000000
_cell_angle_beta 90.000000
_cell_angle_gamma 120.000000
_cell_volume 3753.128137
_symmetry_space_group_name_H-M "R -3"
_symmetry_group_IT_number 148
_symmetry_cell_setting 'hexagonal'
loop_
_space_group_symop_operation_xyz
x,y,z
-y,x-y,z
-x+y,-x,z
-x,-y,-z
y,-x+y,-z
x-y,x,-z
2/3+x,1/3+y,1/3+z
2/3-y,1/3+x-y,1/3+z
2/3-x+y,1/3-x,1/3+z
2/3-x,1/3-y,1/3-z
2/3+y,1/3-x+y,1/3-z
2/3+x-y,1/3+x,1/3-z
1/3+x,2/3+y,2/3+z
1/3-y,2/3+x-y,2/3+z
1/3-x+y,2/3-x,2/3+z
1/3-x,2/3-y,2/3-z
1/3+y,2/3-x+y,2/3-z
1/3+x-y,2/3+x,2/3-z
loop_
_atom_site_type_symbol
_atom_site_label
_atom_site_fract_x
_atom_site_fract_y
_atom_site_fract_z
Si Si1 0.262876 0.040262 0.078857
Si Si2 0.668642 0.145819 0.662840
Si Si3 0.810508 0.812486 0.329506
Si Si4 0.040264 0.262876 0.921143
Si Si5 0.400750 0.333335 0.833334
O O1 0.247466 0.123732 0.114711
O O2 0.251124 0.957058 0.137260
O O3 0.374034 0.089233 0.045699
O O4 0.201552 0.999998 0.000001
O O5 0.590032 0.180065 0.657590
O O6 0.772683 0.227314 0.632409
O O7 0.682295 0.128588 0.755064
O O8 0.755899 0.707369 0.287633
O O9 0.779623 0.795256 0.421730
O O10 0.957059 0.251122 0.862740
#
# Coordination Sequence:
#
# PCOD9575035 Si02
#       5
#    18  18  18  18  18
#     4   9  19  34  52  74  99 131 170 210 252 297
#     4  10  20  33  50  75 107 140 170 202 245 296
#     4  10  20  33  50  75 107 140 170 202 245 296
#     4   9  19  34  52  74  99 131 170 210 252 297
#     4  10  19  30  49  72  98 130 168 208 247 290
#
# _framework density 23.979996
#
# number of rings (size 3 to 8) (size 9 to 14) (size 15 to 20)
#    0.000    2.400    0.000    2.200    0.000   10.400 
#    0.000    2.000    0.000    0.400    0.000    0.000 
#    0.000    0.000    0.000    0.000    0.000    0.000 
#
# Total GULP energy -167428.078030 kJ/mol
# GULP energy per Si atom -5580.935934 kJ/mol
# Density = 2.392542 g / cm^3
# Si number density = 23.979996 Si / 1000 Ang^3
#
#
#
# Elastic Constant Matrix: (Units=GPa)
#
#
# Indices 1 2 3 4 5 6 
#
# 1 70.9328 44.7669 -7.9045 -6.0668 -0.0001 0.0000
# 2 44.7669 70.9328 -7.9045 6.0668 0.0001 0.0000
# 3 -7.9045 -7.9045 83.5734 0.0000 0.0000 0.0000
# 4 -6.0668 6.0668 0.0000 13.9149 0.0000 0.0001
# 5 -0.0001 0.0001 0.0000 0.0000 13.9149 -6.0668
# 6 0.0000 0.0000 0.0000 0.0001 -6.0668 13.0830
#
#
#
# Elastic Compliance Matrix: (Units=1/GPa)
#
#
# Indices 1 2 3 4 5 6 
#
# 1 0.028329 -0.019573 0.000828 0.020885 0.000000 0.000000
# 2 -0.019573 0.028329 0.000828 -0.020885 0.000000 0.000000
# 3 0.000828 0.000828 0.012122 0.000000 0.000000 0.000000
# 4 0.020885 -0.020885 0.000000 0.090077 0.000000 -0.000001
# 5 0.000000 0.000000 0.000000 0.000000 0.090077 0.041770
# 6 0.000000 0.000000 0.000000 -0.000001 0.041770 0.095805
#
#
# Mechanical properties :
#
#
# Convention : Reuss Voigt Hill
#
# Bulk Modulus (GPa) = 30.35145 31.48387 30.91766
# Shear Modulus (GPa) = 12.76962 21.28131 17.02547
#
# Velocity S-wave (km/s) = 2.31012 2.98226 2.66745
# Velocity P-wave (km/s) = 4.44972 5.00162 4.73372
#
# Compressibility (1/GPa) = 0.03294735
#
# Stress axis : x y z
#
# Youngs Moduli (GPa) = 35.29917 35.29917 82.49332
#
# Poissons Ratio (x) = 0.69091 -0.06832
# Poissons Ratio (y) = 0.69091 -0.06832
# Poissons Ratio (z) = -0.02923 -0.02923
#
# Static dielectric constant tensor:
#      x y z
#    x 1.939360 0.000000 0.000000 
#    y 0.000000 1.939360 0.000000 
#    z 0.000000 0.000000 2.004210 
# 
# From -- ./inp_files/2660.got.cif
#   From: 2010.05.17/outbox.cif.g08.bks.cpg/sg148_2_cif.got.tgz:2660.got - 2010.05.20 13:50:20.
