data_PCOD9575780
_publ_section_title
;
Structure prediction by ZEFSAII (Michael W. Deem and Ramdas Pophale) SiO2 
 PCOD9575780
Probable space group: P 31 2 1
;
_chemical_formula_sum "Si O2"
_cell_formula_units_Z 42
_cell_length_a 8.240800
_cell_length_b 8.240800
_cell_length_c 34.194447
_cell_angle_alpha 90.000000
_cell_angle_beta 90.000000
_cell_angle_gamma 120.000000
_cell_volume 2011.059707
_symmetry_space_group_name_H-M "P 31 2 1"
_symmetry_group_IT_number 152
_symmetry_cell_setting 'hexagonal'
loop_
_space_group_symop_operation_xyz
x,y,z
-y,x-y,1/3+z
-x+y,-x,2/3+z
x-y,-y,2/3-z
-x,-x+y,1/3-z
y,x,-z
loop_
_atom_site_type_symbol
_atom_site_label
_atom_site_fract_x
_atom_site_fract_y
_atom_site_fract_z
Si Si1 0.830742 0.120921 0.367485
Si Si2 0.321590 0.508273 0.308580
Si Si3 0.223441 0.204000 0.841556
Si Si4 0.913522 0.565740 0.904610
Si Si5 0.092562 0.265062 0.438167
Si Si6 0.568231 0.018293 0.944096
Si Si7 0.663147 0.150304 0.249163
O O1 0.850632 0.317078 0.355660
O O2 0.964081 0.140240 0.402705
O O3 0.846455 0.000000 0.333334
O O4 0.621887 0.999873 0.384257
O O5 0.329161 0.378023 0.274371
O O6 0.294386 0.425120 0.352388
O O7 0.173324 0.570540 0.294632
O O8 0.285179 0.315019 0.801307
O O9 0.378836 0.307679 0.875039
O O10 0.023594 0.172101 0.857569
O O11 0.194002 0.000000 0.833334
O O12 0.916097 0.372874 0.896555
O O13 0.699951 0.498660 0.914119
O O14 0.302972 0.320353 0.425167
O O15 0.485310 0.146422 0.927961
#
# Coordination Sequence:
#
# PCOD9575780 Si02
#       7
#     6   6   6   6   6   6   6
#     4  10  19  35  58  85 119 158 196 244 310 375
#     4  11  22  36  62  88 126 159 203 257 308 386
#     4  11  22  39  60  87 121 154 209 261 311 370
#     4  10  21  40  61  88 115 162 207 246 312 378
#     4   9  22  39  58  84 117 163 201 248 311 370
#     4  11  21  39  58  89 121 159 206 254 315 370
#     4  10  21  37  63  84 119 161 201 254 313 373
#
# _framework density 20.884511
#
# number of rings (size 3 to 8) (size 9 to 14) (size 15 to 20)
#    0.000    1.714    1.429    4.286    0.000    1.143 
#    0.000    7.857    0.000    0.000    0.000    0.000 
#    0.000    0.000    0.000    0.000    0.000    0.000 
#
# Total GULP energy -234450.560491 kJ/mol
# GULP energy per Si atom -5582.156202 kJ/mol
# Density = 2.083698 g / cm^3
# Si number density = 20.884511 Si / 1000 Ang^3
#
#
#
# Elastic Constant Matrix: (Units=GPa)
#
#
# Indices 1 2 3 4 5 6 
#
# 1 53.2375 7.7966 8.9174 2.8739 -0.0003 0.0000
# 2 7.7966 53.2375 8.9174 -2.8739 0.0003 0.0000
# 3 8.9174 8.9174 64.4825 0.0000 0.0000 0.0000
# 4 2.8739 -2.8739 0.0000 32.1882 0.0000 0.0003
# 5 -0.0003 0.0003 0.0000 0.0000 32.1882 2.8739
# 6 0.0000 0.0000 0.0000 0.0003 2.8739 22.7205
#
#
#
# Elastic Compliance Matrix: (Units=1/GPa)
#
#
# Indices 1 2 3 4 5 6 
#
# 1 0.019666 -0.002592 -0.002361 -0.001987 0.000000 0.000000
# 2 -0.002592 0.019666 -0.002361 0.001987 0.000000 0.000000
# 3 -0.002361 -0.002361 0.016161 0.000000 0.000000 0.000000
# 4 -0.001987 0.001987 0.000000 0.031422 0.000000 0.000000
# 5 0.000000 0.000000 0.000000 0.000000 0.031422 -0.003975
# 6 0.000000 0.000000 0.000000 0.000000 -0.003975 0.044516
#
#
# Mechanical properties :
#
#
# Convention : Reuss Voigt Hill
#
# Bulk Modulus (GPa) = 24.47096 24.69115 24.58105
# Shear Modulus (GPa) = 26.16378 27.10777 26.63578
#
# Velocity S-wave (km/s) = 3.54331 3.60666 3.57513
# Velocity P-wave (km/s) = 5.33692 5.40300 5.37006
#
# Compressibility (1/GPa) = 0.04086476
#
# Stress axis : x y z
#
# Youngs Moduli (GPa) = 50.84891 50.84891 61.87679
#
# Poissons Ratio (x) = 0.13179 0.14611
# Poissons Ratio (y) = 0.13179 0.14611
# Poissons Ratio (z) = 0.12007 0.12007
#
# Static dielectric constant tensor:
#      x y z
#    x 1.764440 0.000000 0.000000 
#    y 0.000000 1.764440 0.000000 
#    z 0.000000 0.000000 1.779910 
# 
# From -- ./inp_files/3749.got.cif
#   From: 2010.05.17/outbox.cif.g08.bks.cpg/sg152_2_cif.got.tgz:3749.got - 2010.05.20 10:36:06.
