data_PCOD9575866
_publ_section_title
;
Structure prediction by ZEFSAII (Michael W. Deem and Ramdas Pophale) SiO2 
 PCOD9575866
Probable space group: P 31 2 1
;
_chemical_formula_sum "Si O2"
_cell_formula_units_Z 33
_cell_length_a 7.958735
_cell_length_b 7.958735
_cell_length_c 25.563201
_cell_angle_alpha 90.000000
_cell_angle_beta 90.000000
_cell_angle_gamma 120.000000
_cell_volume 1402.277466
_symmetry_space_group_name_H-M "P 31 2 1"
_symmetry_group_IT_number 152
_symmetry_cell_setting 'hexagonal'
loop_
_space_group_symop_operation_xyz
x,y,z
-y,x-y,1/3+z
-x+y,-x,2/3+z
x-y,-y,2/3-z
-x,-x+y,1/3-z
y,x,-z
loop_
_atom_site_type_symbol
_atom_site_label
_atom_site_fract_x
_atom_site_fract_y
_atom_site_fract_z
Si Si1 0.415481 0.112022 0.733894
Si Si2 0.123582 0.822897 0.373963
Si Si3 0.411780 0.619106 0.881561
Si Si4 0.938073 0.231447 0.505160
Si Si5 0.000000 0.163850 0.166667
Si Si6 0.660403 0.150702 0.287515
O O1 0.332148 0.229131 0.701521
O O2 0.645559 0.235820 0.742253
O O3 0.334933 0.102435 0.792552
O O4 0.308594 0.885576 0.718570
O O5 0.190680 0.000000 0.333334
O O6 0.157187 0.895806 0.434561
O O7 0.279005 0.750111 0.368697
O O8 0.583291 0.732858 0.839849
O O9 0.455253 0.457631 0.907235
O O10 0.210042 0.501662 0.851683
O O11 0.894843 0.041332 0.473226
O O12 0.630786 0.000000 0.333334
#
# Coordination Sequence:
#
# PCOD9575866 Si02
#       6
#     6   6   6   6   3   6
#     4  11  22  40  66  95 129 174 217 272 332 398
#     4   9  20  39  64  88 127 170 209 271 326 381
#     4  11  23  41  65  97 132 174 223 272 338 394
#     4  10  20  39  61  91 132 165 218 274 319 394
#     4  10  20  38  62  92 126 164 216 272 328 374
#     4  10  22  45  66  93 136 172 222 284 328 402
#
# _framework density 23.533145999999999
#
# number of rings (size 3 to 8) (size 9 to 14) (size 15 to 20)
#    0.000    1.818    1.818    2.727    2.545    0.727 
#   13.091    0.000    0.000    0.000    0.000    0.000 
#    0.000    0.000    0.000    0.000    0.000    0.000 
#
# Total GULP energy -184056.275371 kJ/mol
# GULP energy per Si atom -5577.462890 kJ/mol
# Density = 2.347958 g / cm^3
# Si number density = 23.533146 Si / 1000 Ang^3
#
#
#
# Elastic Constant Matrix: (Units=GPa)
#
#
# Indices 1 2 3 4 5 6 
#
# 1 103.3866 67.3983 11.5610 -11.0570 -0.0003 0.0000
# 2 67.3983 103.3866 11.5610 11.0570 0.0003 0.0000
# 3 11.5610 11.5610 51.6045 0.0000 0.0000 0.0000
# 4 -11.0570 11.0570 0.0000 30.4667 0.0000 0.0003
# 5 -0.0003 0.0003 0.0000 0.0000 30.4667 -11.0570
# 6 0.0000 0.0000 0.0000 0.0003 -11.0570 17.9941
#
#
#
# Elastic Compliance Matrix: (Units=1/GPa)
#
#
# Indices 1 2 3 4 5 6 
#
# 1 0.020900 -0.014862 -0.001353 0.012979 0.000000 0.000000
# 2 -0.014862 0.020900 -0.001353 -0.012979 0.000000 0.000000
# 3 -0.001353 -0.001353 0.019984 0.000000 0.000000 0.000000
# 4 0.012979 -0.012979 0.000000 0.042243 0.000000 -0.000001
# 5 0.000000 0.000000 0.000000 0.000000 0.042243 0.025958
# 6 0.000000 0.000000 0.000000 -0.000001 0.025958 0.071524
#
#
# Mechanical properties :
#
#
# Convention : Reuss Voigt Hill
#
# Bulk Modulus (GPa) = 37.52344 48.82428 43.17386
# Shear Modulus (GPa) = 19.09754 26.97599 23.03676
#
# Velocity S-wave (km/s) = 2.85180 3.38937 3.13214
# Velocity P-wave (km/s) = 5.17912 6.00909 5.60948
#
# Compressibility (1/GPa) = 0.02665001
#
# Stress axis : x y z
#
# Youngs Moduli (GPa) = 47.84626 47.84626 50.03929
#
# Poissons Ratio (x) = 0.71108 0.06769
# Poissons Ratio (y) = 0.71108 0.06769
# Poissons Ratio (z) = 0.06473 0.06473
#
# Static dielectric constant tensor:
#      x y z
#    x 1.956990 0.000000 0.000000 
#    y 0.000000 1.956990 0.000000 
#    z 0.000000 0.000000 1.958780 
# 
# From -- ./inp_files/3406.got.cif
#   From: 2010.05.17/outbox.cif.g08.bks.cpg/sg152_2_cif.got.tgz:3406.got - 2010.05.20 10:36:06.
