data_PCOD9575012
_publ_section_title
;
Structure prediction by ZEFSAII (Michael W. Deem and Ramdas Pophale) SiO2 
 PCOD9575012
Probable space group: R -3
;
_chemical_formula_sum "Si O2"
_cell_formula_units_Z 126
_cell_length_a 18.298695
_cell_length_b 18.298695
_cell_length_c 18.526442
_cell_angle_alpha 90.000000
_cell_angle_beta 90.000000
_cell_angle_gamma 120.000000
_cell_volume 5372.332573
_symmetry_space_group_name_H-M "R -3"
_symmetry_group_IT_number 148
_symmetry_cell_setting 'hexagonal'
loop_
_space_group_symop_operation_xyz
x,y,z
-y,x-y,z
-x+y,-x,z
-x,-y,-z
y,-x+y,-z
x-y,x,-z
2/3+x,1/3+y,1/3+z
2/3-y,1/3+x-y,1/3+z
2/3-x+y,1/3-x,1/3+z
2/3-x,1/3-y,1/3-z
2/3+y,1/3-x+y,1/3-z
2/3+x-y,1/3+x,1/3-z
1/3+x,2/3+y,2/3+z
1/3-y,2/3+x-y,2/3+z
1/3-x+y,2/3-x,2/3+z
1/3-x,2/3-y,2/3-z
1/3+y,2/3-x+y,2/3-z
1/3+x-y,2/3+x,2/3-z
loop_
_atom_site_type_symbol
_atom_site_label
_atom_site_fract_x
_atom_site_fract_y
_atom_site_fract_z
Si Si1 0.019818 0.619604 0.410366
Si Si2 0.249328 0.049708 0.630508
Si Si3 0.678489 0.037659 0.236111
Si Si4 0.196574 0.750602 0.948212
Si Si5 0.141901 0.346859 0.447501
Si Si6 0.950343 0.825995 0.118375
Si Si7 0.134387 0.934446 0.094231
O O1 0.932921 0.535135 0.430986
O O2 0.018707 0.699891 0.376236
O O3 0.059385 0.651024 0.490155
O O4 0.086502 0.599438 0.373435
O O5 0.268944 0.112092 0.564549
O O6 0.268165 0.103000 0.705148
O O7 0.158059 0.971745 0.646804
O O8 0.773870 0.080390 0.264952
O O9 0.617146 0.062480 0.278550
O O10 0.652097 0.941805 0.216782
O O11 0.210183 0.712439 0.873651
O O12 0.198116 0.407328 0.511299
O O13 0.874996 0.843603 0.101535
O O14 0.035312 0.888357 0.074959
#
# Coordination Sequence:
#
# PCOD9575012 Si02
#       7
#    18  18  18  18  18  18  18
#     4  11  18  35  56  81 115 155 197 236 296 349
#     4  10  20  34  55  82 119 156 189 249 283 349
#     4  10  18  33  58  80 111 152 186 248 288 342
#     4  10  18  36  54  79 114 150 197 236 300 338
#     4  10  20  35  56  85 116 151 197 242 298 337
#     4  11  21  33  57  88 113 153 195 251 295 346
#     4  12  19  35  59  86 119 147 196 253 296 342
#
# _framework density 23.453499999999998
#
# number of rings (size 3 to 8) (size 9 to 14) (size 15 to 20)
#    0.000    1.429    8.571    1.143    0.000    0.000 
#    5.143    0.000    0.000    0.000    0.000    1.000 
#    0.000    1.143    0.000    0.000    0.000    0.000 
#
# Total GULP energy -233851.892370 kJ/mol
# GULP energy per Si atom -5567.902199 kJ/mol
# Density = 2.340012 g / cm^3
# Si number density = 23.453500 Si / 1000 Ang^3
#
#
#
# Elastic Constant Matrix: (Units=GPa)
#
#
# Indices 1 2 3 4 5 6 
#
# 1 109.5925 38.3324 9.7904 0.4230 1.6618 0.0000
# 2 38.3324 109.5925 9.7904 -0.4230 -1.6618 0.0000
# 3 9.7904 9.7904 52.4419 0.0000 0.0000 0.0000
# 4 0.4230 -0.4230 0.0000 19.2820 0.0000 -1.6618
# 5 1.6618 -1.6618 0.0000 0.0000 19.2820 0.4230
# 6 0.0000 0.0000 0.0000 -1.6618 0.4230 35.6301
#
#
#
# Elastic Compliance Matrix: (Units=1/GPa)
#
#
# Indices 1 2 3 4 5 6 
#
# 1 0.010512 -0.003581 -0.001294 -0.000309 -0.001215 0.000000
# 2 -0.003581 0.010512 -0.001294 0.000309 0.001215 0.000000
# 3 -0.001294 -0.001294 0.019552 0.000000 0.000000 0.000000
# 4 -0.000309 0.000309 0.000000 0.052085 0.000000 0.002429
# 5 -0.001215 0.001215 0.000000 0.000000 0.052085 -0.000618
# 6 0.000000 0.000000 0.000000 0.002429 -0.000618 0.028187
#
#
# Mechanical properties :
#
#
# Convention : Reuss Voigt Hill
#
# Bulk Modulus (GPa) = 35.41241 43.05037 39.23139
# Shear Modulus (GPa) = 25.68261 29.08639 27.38450
#
# Velocity S-wave (km/s) = 3.31273 3.52543 3.42074
# Velocity P-wave (km/s) = 5.45564 5.91329 5.68907
#
# Compressibility (1/GPa) = 0.02823869
#
# Stress axis : x y z
#
# Youngs Moduli (GPa) = 95.12534 95.12534 51.14595
#
# Poissons Ratio (x) = 0.34064 0.06618
# Poissons Ratio (y) = 0.34064 0.06618
# Poissons Ratio (z) = 0.12310 0.12310
#
# Static dielectric constant tensor:
#      x y z
#    x 1.937240 0.000000 0.000000 
#    y 0.000000 1.937240 0.000000 
#    z 0.000000 0.000000 2.053900 
# 
# From -- ./inp_files/3441.got.cif
#   From: 2010.05.17/outbox.cif.g08.bks.cpg/sg148_2_cif.got.tgz:3441.got - 2010.05.20 13:50:20.
