data_PCOD9575912
_publ_section_title
;
Structure prediction by ZEFSAII (Michael W. Deem and Ramdas Pophale) SiO2 
 PCOD9575912
Probable space group: P 31 2 1
;
_chemical_formula_sum "Si O2"
_cell_formula_units_Z 21
_cell_length_a 7.239013
_cell_length_b 7.239013
_cell_length_c 16.479018
_cell_angle_alpha 90.000000
_cell_angle_beta 90.000000
_cell_angle_gamma 120.000000
_cell_volume 747.860633
_symmetry_space_group_name_H-M "P 31 2 1"
_symmetry_group_IT_number 152
_symmetry_cell_setting 'hexagonal'
loop_
_space_group_symop_operation_xyz
x,y,z
-y,x-y,1/3+z
-x+y,-x,2/3+z
x-y,-y,2/3-z
-x,-x+y,1/3-z
y,x,-z
loop_
_atom_site_type_symbol
_atom_site_label
_atom_site_fract_x
_atom_site_fract_y
_atom_site_fract_z
Si Si1 0.341982 0.266532 0.697554
Si Si2 0.678880 0.367035 0.908617
Si Si3 0.057419 0.000000 0.833334
Si Si4 0.607041 0.731306 0.887387
O O1 0.560537 0.328443 0.652902
O O2 0.385041 0.455236 0.758094
O O3 0.201997 0.298880 0.627132
O O4 0.058313 0.503868 0.752536
O O5 0.671631 0.250749 0.824965
O O6 0.004694 0.192802 0.839145
O O7 0.149490 0.945442 0.914228
#
# Coordination Sequence:
#
# PCOD9575912 Si02
#       4
#     6   6   3   6
#     4  11  25  46  72 108 148 199 257 319 384 465
#     4  11  25  43  74 105 146 198 254 316 386 464
#     4  10  20  44  72  96 146 198 240 306 400 432
#     4  11  24  46  72 106 151 199 252 320 387 461
#
# _framework density 28.080098
#
# number of rings (size 3 to 8) (size 9 to 14) (size 15 to 20)
#    0.000    1.143    2.857    3.429    4.000    4.571 
#    0.000    1.429    0.000    0.000    0.000    0.000 
#    0.000    0.000    0.000    0.000    0.000    0.000 
#
# Total GULP energy -117269.687807 kJ/mol
# GULP energy per Si atom -5584.270848 kJ/mol
# Density = 2.801619 g / cm^3
# Si number density = 28.080098 Si / 1000 Ang^3
#
#
#
# Elastic Constant Matrix: (Units=GPa)
#
#
# Indices 1 2 3 4 5 6 
#
# 1 82.4659 6.5773 36.8249 4.6696 0.0000 0.0000
# 2 6.5773 82.4659 36.8249 -4.6696 0.0000 0.0000
# 3 36.8249 36.8249 182.9535 0.0000 0.0000 0.0000
# 4 4.6696 -4.6696 0.0000 59.0768 0.0000 0.0000
# 5 0.0000 0.0000 0.0000 0.0000 59.0768 4.6696
# 6 0.0000 0.0000 0.0000 0.0000 4.6696 37.9443
#
#
#
# Elastic Compliance Matrix: (Units=1/GPa)
#
#
# Indices 1 2 3 4 5 6 
#
# 1 0.013390 0.000084 -0.002712 -0.001052 0.000000 0.000000
# 2 0.000084 0.013390 -0.002712 0.001052 0.000000 0.000000
# 3 -0.002712 -0.002712 0.006558 0.000000 0.000000 0.000000
# 4 -0.001052 0.001052 0.000000 0.017093 0.000000 0.000000
# 5 0.000000 0.000000 0.000000 0.000000 0.017093 -0.002104
# 6 0.000000 0.000000 0.000000 0.000000 -0.002104 0.026613
#
#
# Mechanical properties :
#
#
# Convention : Reuss Voigt Hill
#
# Bulk Modulus (GPa) = 44.13649 56.48218 50.30933
# Shear Modulus (GPa) = 44.49536 49.06344 46.77940
#
# Velocity S-wave (km/s) = 3.98501 4.18457 4.08601
# Velocity P-wave (km/s) = 6.07667 6.59589 6.34160
#
# Compressibility (1/GPa) = 0.02265699
#
# Stress axis : x y z
#
# Youngs Moduli (GPa) = 74.68175 74.68175 152.49466
#
# Poissons Ratio (x) = -0.00624 0.41356
# Poissons Ratio (y) = -0.00624 0.41356
# Poissons Ratio (z) = 0.20254 0.20254
#
# Static dielectric constant tensor:
#      x y z
#    x 2.326260 0.000000 0.000000 
#    y 0.000000 2.326260 0.000000 
#    z 0.000000 0.000000 2.425690 
# 
# From -- ./inp_files/2326.got.cif
#   From: 2010.05.17/outbox.cif.g08.bks.cpg/sg152_2_cif.got.tgz:2326.got - 2010.05.20 10:36:06.
