data_PCOD9575064
_publ_section_title
;
Structure prediction by ZEFSAII (Michael W. Deem and Ramdas Pophale) SiO2 
 PCOD9575064
Probable space group: R -3
;
_chemical_formula_sum "Si O2"
_cell_formula_units_Z 72
_cell_length_a 15.019116
_cell_length_b 15.019116
_cell_length_c 14.735005
_cell_angle_alpha 90.000000
_cell_angle_beta 90.000000
_cell_angle_gamma 120.000000
_cell_volume 2878.522725
_symmetry_space_group_name_H-M "R -3"
_symmetry_group_IT_number 148
_symmetry_cell_setting 'hexagonal'
loop_
_space_group_symop_operation_xyz
x,y,z
-y,x-y,z
-x+y,-x,z
-x,-y,-z
y,-x+y,-z
x-y,x,-z
2/3+x,1/3+y,1/3+z
2/3-y,1/3+x-y,1/3+z
2/3-x+y,1/3-x,1/3+z
2/3-x,1/3-y,1/3-z
2/3+y,1/3-x+y,1/3-z
2/3+x-y,1/3+x,1/3-z
1/3+x,2/3+y,2/3+z
1/3-y,2/3+x-y,2/3+z
1/3-x+y,2/3-x,2/3+z
1/3-x,2/3-y,2/3-z
1/3+y,2/3-x+y,2/3-z
1/3+x-y,2/3+x,2/3-z
loop_
_atom_site_type_symbol
_atom_site_label
_atom_site_fract_x
_atom_site_fract_y
_atom_site_fract_z
Si Si1 0.405696 0.256649 0.540502
Si Si2 0.146028 0.946429 0.944971
Si Si3 0.331081 0.913081 0.980909
Si Si4 0.133085 0.545531 0.213541
O O1 0.507761 0.340719 0.489943
O O2 0.417622 0.163081 0.577045
O O3 0.345599 0.282861 0.618480
O O4 0.317567 0.208176 0.463208
O O5 0.177037 0.035563 0.021184
O O6 0.232134 0.913537 0.943880
O O7 0.281795 0.806374 0.036016
O O8 0.162645 0.624897 0.128763
#
# Coordination Sequence:
#
# PCOD9575064 Si02
#       4
#    18  18  18  18
#     4  10  22  42  67 103 137 176 240 283 341 424
#     4  12  26  45  69  98 140 190 233 291 352 416
#     4  10  21  41  70  99 136 185 228 289 343 418
#     4  10  19  36  65 100 136 173 223 288 348 408
#
# _framework density 25.012830999999998
#
# number of rings (size 3 to 8) (size 9 to 14) (size 15 to 20)
#    0.000    1.500    2.500    3.500    0.000    1.000 
#    0.000    0.000    0.000    0.000    0.000    0.000 
#    0.000    0.000    0.000    0.000    0.000    0.000 
#
# Total GULP energy -134284.483426 kJ/mol
# GULP energy per Si atom -5595.186809 kJ/mol
# Density = 2.495590 g / cm^3
# Si number density = 25.012831 Si / 1000 Ang^3
#
#
#
# Elastic Constant Matrix: (Units=GPa)
#
#
# Indices 1 2 3 4 5 6 
#
# 1 49.7099 13.3912 6.8197 6.8227 -0.7445 0.0000
# 2 13.3912 49.7099 6.8197 -6.8227 0.7445 0.0000
# 3 6.8197 6.8197 65.6086 0.0000 0.0000 0.0000
# 4 6.8227 -6.8227 0.0000 25.5269 0.0000 0.7445
# 5 -0.7445 0.7445 0.0000 0.0000 25.5269 6.8227
# 6 0.0000 0.0000 0.0000 0.7445 6.8227 18.1593
#
#
#
# Elastic Compliance Matrix: (Units=1/GPa)
#
#
# Indices 1 2 3 4 5 6 
#
# 1 0.023430 -0.007218 -0.001685 -0.008192 0.000894 0.000000
# 2 -0.007218 0.023430 -0.001685 0.008192 -0.000894 0.000000
# 3 -0.001685 -0.001685 0.015592 0.000000 0.000000 0.000000
# 4 -0.008192 0.008192 0.000000 0.043605 0.000000 -0.001788
# 5 0.000894 -0.000894 0.000000 0.000000 0.043605 -0.016383
# 6 0.000000 0.000000 0.000000 -0.001788 -0.016383 0.061297
#
#
# Mechanical properties :
#
#
# Convention : Reuss Voigt Hill
#
# Bulk Modulus (GPa) = 24.22757 24.34331 24.28544
# Shear Modulus (GPa) = 20.33385 23.04248 21.68817
#
# Velocity S-wave (km/s) = 2.85430 3.03846 2.94782
# Velocity P-wave (km/s) = 4.53539 4.69714 4.61698
#
# Compressibility (1/GPa) = 0.04127529
#
# Stress axis : x y z
#
# Youngs Moduli (GPa) = 42.68012 42.68012 64.13450
#
# Poissons Ratio (x) = 0.30808 0.10808
# Poissons Ratio (y) = 0.30808 0.10808
# Poissons Ratio (z) = 0.07192 0.07192
#
# Static dielectric constant tensor:
#      x y z
#    x 1.978820 0.000000 0.000000 
#    y 0.000000 1.978820 0.000000 
#    z 0.000000 0.000000 2.063170 
# 
# From -- ./inp_files/1871.got.cif
#   From: 2010.05.17/outbox.cif.g08.bks.cpg/sg148_1_cif.got.tgz:1871.got - 2010.05.20 13:50:20.
