data_PCOD9575592
_publ_section_title
;
Structure prediction by ZEFSAII (Michael W. Deem and Ramdas Pophale) SiO2 
 PCOD9575592
Probable space group: P 31 1 2
;
_chemical_formula_sum "Si O2"
_cell_formula_units_Z 45
_cell_length_a 12.174293
_cell_length_b 12.174293
_cell_length_c 17.179743
_cell_angle_alpha 90.000000
_cell_angle_beta 90.000000
_cell_angle_gamma 120.000000
_cell_volume 2205.133027
_symmetry_space_group_name_H-M "P 31 1 2"
_symmetry_group_IT_number 151
_symmetry_cell_setting 'hexagonal'
loop_
_space_group_symop_operation_xyz
x,y,z
-y,x-y,1/3+z
-x+y,-x,2/3+z
-y,-x,2/3-z
-x+y,y,1/3-z
x,x-y,-z
loop_
_atom_site_type_symbol
_atom_site_label
_atom_site_fract_x
_atom_site_fract_y
_atom_site_fract_z
Si Si1 0.264682 0.566746 0.081861
Si Si2 0.404003 0.453835 0.994443
Si Si3 0.693175 0.980461 0.607760
Si Si4 0.805827 0.208224 0.495121
Si Si5 0.999754 0.808867 0.714513
Si Si6 0.496190 0.503811 0.833334
Si Si7 0.546766 0.154334 0.431393
Si Si8 0.457407 0.100807 0.599059
O O1 0.314354 0.628708 0.166667
O O2 0.122366 0.445681 0.090698
O O3 0.259445 0.629723 0.000000
O O4 0.358536 0.515767 0.058507
O O5 0.433850 0.519587 0.911224
O O6 0.289671 0.309088 0.994093
O O7 0.530986 0.461283 0.025395
O O8 0.774545 0.912590 0.590367
O O9 0.751797 0.120195 0.571349
O O10 0.685063 0.004133 0.699727
O O11 0.920113 0.350147 0.507820
O O12 0.694180 0.225095 0.456437
O O13 0.823084 0.107986 0.441586
O O14 0.937696 0.875392 0.666667
O O15 0.477004 0.074528 0.509487
O O16 0.494772 0.247105 0.408498
O O17 0.546233 0.092465 0.666667
#
# Coordination Sequence:
#
# PCOD9575592 Si02
#       8
#     6   6   6   6   6   3   6   6
#     4  11  25  43  67  90 124 173 224 281 324 393
#     4  10  23  38  60  92 128 163 216 261 339 397
#     4  11  22  38  66  92 125 168 230 272 322 396
#     4  11  21  35  62  96 130 165 215 266 348 402
#     4  10  20  40  60  88 124 169 222 276 308 393
#     4  12  22  36  64 100 140 170 194 278 344 426
#     4  10  22  35  56  88 133 162 205 265 340 414
#     4  11  21  34  57  92 127 165 206 268 338 402
#
# _framework density 20.406932999999999
#
# number of rings (size 3 to 8) (size 9 to 14) (size 15 to 20)
#    0.000    1.333    2.667    4.800    4.667    0.000 
#    0.000    0.000    5.867    1.600    0.000    0.000 
#    0.000    0.000    0.000    0.000    0.000    0.000 
#
# Total GULP energy -250786.748208 kJ/mol
# GULP energy per Si atom -5573.038849 kJ/mol
# Density = 2.036049 g / cm^3
# Si number density = 20.406933 Si / 1000 Ang^3
#
#
#
# Elastic Constant Matrix: (Units=GPa)
#
#
# Indices 1 2 3 4 5 6 
#
# 1 59.9207 26.2289 20.3875 -0.0001 -0.5704 0.0000
# 2 26.2289 59.9207 20.3875 0.0001 0.5704 0.0000
# 3 20.3875 20.3875 115.9485 0.0000 0.0000 0.0000
# 4 -0.0001 0.0001 0.0000 27.3214 0.0000 0.5704
# 5 -0.5704 0.5704 0.0000 0.0000 27.3214 -0.0001
# 6 0.0000 0.0000 0.0000 0.5704 -0.0001 16.8459
#
#
#
# Elastic Compliance Matrix: (Units=1/GPa)
#
#
# Indices 1 2 3 4 5 6 
#
# 1 0.021182 -0.008520 -0.002226 0.000000 0.000620 0.000000
# 2 -0.008520 0.021182 -0.002226 0.000000 -0.000620 0.000000
# 3 -0.002226 -0.002226 0.009407 0.000000 0.000000 0.000000
# 4 0.000000 0.000000 0.000000 0.036627 0.000000 -0.001240
# 5 0.000620 -0.000620 0.000000 0.000000 0.036627 0.000000
# 6 0.000000 0.000000 0.000000 -0.001240 0.000000 0.059404
#
#
# Mechanical properties :
#
#
# Convention : Reuss Voigt Hill
#
# Bulk Modulus (GPa) = 38.72199 41.08863 39.90531
# Shear Modulus (GPa) = 22.83286 25.55016 24.19151
#
# Velocity S-wave (km/s) = 3.34859 3.54225 3.44678
# Velocity P-wave (km/s) = 5.82811 6.07523 5.95295
#
# Compressibility (1/GPa) = 0.02582512
#
# Stress axis : x y z
#
# Youngs Moduli (GPa) = 47.21075 47.21075 106.29905
#
# Poissons Ratio (x) = 0.40225 0.23665
# Poissons Ratio (y) = 0.40225 0.23665
# Poissons Ratio (z) = 0.10510 0.10510
#
# Static dielectric constant tensor:
#      x y z
#    x 1.752180 0.000000 0.000000 
#    y 0.000000 1.752180 0.000000 
#    z 0.000000 0.000000 1.851820 
# 
# From -- ./inp_files/3569.got.cif
#   From: 2010.05.17/outbox.cif.g08.bks.cpg/sg151_2_cif.got.tgz:3569.got - 2010.05.20 10:33:20.
