data_PCOD9575358
_publ_section_title
;
Structure prediction by ZEFSAII (Michael W. Deem and Ramdas Pophale) SiO2 
 PCOD9575358
Probable space group: P 3 1 2
;
_chemical_formula_sum "Si O2"
_cell_formula_units_Z 42
_cell_length_a 13.425605
_cell_length_b 13.425605
_cell_length_c 17.831169
_cell_angle_alpha 90.000000
_cell_angle_beta 90.000000
_cell_angle_gamma 120.000000
_cell_volume 2783.416381
_symmetry_space_group_name_H-M "P 3 1 2"
_symmetry_group_IT_number 149
_symmetry_cell_setting 'hexagonal'
loop_
_space_group_symop_operation_xyz
x,y,z
-y,x-y,z
-x+y,-x,z
-y,-x,-z
-x+y,y,-z
x,x-y,-z
loop_
_atom_site_type_symbol
_atom_site_label
_atom_site_fract_x
_atom_site_fract_y
_atom_site_fract_z
Si Si1 0.333487 0.902815 0.585744
Si Si2 0.095189 0.666956 1.000000
Si Si3 0.766450 0.765564 0.702074
Si Si4 0.234697 0.234467 0.121647
Si Si5 0.569328 0.902815 0.585744
Si Si6 0.766450 0.000885 0.702074
Si Si7 0.999770 0.234467 0.121647
O O1 0.452139 0.904278 0.596037
O O2 0.226915 0.773085 0.593595
O O3 0.329288 0.939494 0.500000
O O4 0.314695 0.978206 0.647121
O O5 0.032763 0.687447 0.928904
O O6 0.227410 0.772591 0.000000
O O7 0.089870 0.544935 0.000000
O O8 0.032763 0.687447 0.071096
O O9 0.739164 0.738239 0.790188
O O10 0.880543 0.761086 0.685158
O O11 0.789128 0.894564 0.691149
O O12 0.244801 0.122400 0.102850
O O13 0.103043 0.206086 0.110107
O O14 0.663511 0.978206 0.647122
O O15 0.739164 0.000924 0.790188
#
# Coordination Sequence:
#
# PCOD9575358 Si02
#       7
#     6   6   6   6   6   6   6
#     4   9  17  29  45  65  89 118 152 188 223 259
#     4  10  20  32  46  66  94 124 150 178 216 262
#     4   9  17  29  46  69  95 119 143 176 222 272
#     4   9  17  30  49  71  92 115 145 183 224 264
#     4   9  17  29  45  65  89 118 152 188 223 259
#     4   9  17  29  46  69  95 119 143 176 222 272
#     4   9  17  30  49  71  92 115 145 183 224 264
#
# _framework density 15.089369
#
# number of rings (size 3 to 8) (size 9 to 14) (size 15 to 20)
#    0.000    2.857    0.000    1.429    0.000    5.143 
#    0.000    1.429    0.000    8.000    0.000    0.000 
#    0.000    0.000    0.000    0.000    0.000    0.000 
#
# Total GULP energy -233993.704180 kJ/mol
# GULP energy per Si atom -5571.278671 kJ/mol
# Density = 1.505503 g / cm^3
# Si number density = 15.089369 Si / 1000 Ang^3
#
#
#
# Elastic Constant Matrix: (Units=GPa)
#
#
# Indices 1 2 3 4 5 6 
#
# 1 100.6211 59.1298 71.6676 0.0000 0.0000 0.0000
# 2 59.1298 100.6211 71.6676 0.0000 0.0000 0.0000
# 3 71.6676 71.6676 92.1804 0.0000 0.0000 0.0000
# 4 0.0000 0.0000 0.0000 24.7011 0.0000 0.0000
# 5 0.0000 0.0000 0.0000 0.0000 24.7011 0.0000
# 6 0.0000 0.0000 0.0000 0.0000 0.0000 20.7457
#
#
#
# Elastic Compliance Matrix: (Units=1/GPa)
#
#
# Indices 1 2 3 4 5 6 
#
# 1 0.022400 -0.001701 -0.016093 0.000000 0.000000 0.000000
# 2 -0.001701 0.022400 -0.016093 0.000000 0.000000 0.000000
# 3 -0.016093 -0.016093 0.035872 0.000000 0.000000 0.000000
# 4 0.000000 0.000000 0.000000 0.040484 0.000000 0.000000
# 5 0.000000 0.000000 0.000000 0.000000 0.040484 0.000000
# 6 0.000000 0.000000 0.000000 0.000000 0.000000 0.048203
#
#
# Mechanical properties :
#
#
# Convention : Reuss Voigt Hill
#
# Bulk Modulus (GPa) = 77.52982 77.59476 77.56229
# Shear Modulus (GPa) = 17.73579 20.09341 18.91460
#
# Velocity S-wave (km/s) = 3.43211 3.65311 3.54433
# Velocity P-wave (km/s) = 8.19742 8.32638 8.26216
#
# Compressibility (1/GPa) = 0.01289826
#
# Stress axis : x y z
#
# Youngs Moduli (GPa) = 44.64260 44.64260 27.87722
#
# Poissons Ratio (x) = 0.07595 0.44862
# Poissons Ratio (y) = 0.07595 0.44862
# Poissons Ratio (z) = 0.71842 0.71842
#
# Static dielectric constant tensor:
#      x y z
#    x 1.472230 0.000000 0.000000 
#    y 0.000000 1.472230 0.000000 
#    z 0.000000 0.000000 1.519430 
# 
# From -- ./inp_files/1089.got.cif
#   From: 2010.05.17/outbox.cif.g08.bks.cpg/sg149_cif.got.tgz:1089.got - 2010.05.20 13:52:34.
