data_PCOD9575541
_publ_section_title
;
Structure prediction by ZEFSAII (Michael W. Deem and Ramdas Pophale) SiO2 
 PCOD9575541
Probable space group: P 31 1 2
;
_chemical_formula_sum "Si O2"
_cell_formula_units_Z 18
_cell_length_a 9.302521
_cell_length_b 9.302521
_cell_length_c 10.502750
_cell_angle_alpha 90.000000
_cell_angle_beta 90.000000
_cell_angle_gamma 120.000000
_cell_volume 787.109181
_symmetry_space_group_name_H-M "P 31 1 2"
_symmetry_group_IT_number 151
_symmetry_cell_setting 'hexagonal'
loop_
_space_group_symop_operation_xyz
x,y,z
-y,x-y,1/3+z
-x+y,-x,2/3+z
-y,-x,2/3-z
-x+y,y,1/3-z
x,x-y,-z
loop_
_atom_site_type_symbol
_atom_site_label
_atom_site_fract_x
_atom_site_fract_y
_atom_site_fract_z
Si Si1 0.510319 0.605538 0.574688
Si Si2 0.938873 0.176988 0.091978
Si Si3 0.166665 0.333333 0.479068
O O1 0.489929 0.744965 0.500000
O O2 0.666666 0.610901 0.499999
O O3 0.334651 0.443890 0.556188
O O4 0.559164 0.678601 0.716026
O O5 0.078298 0.156596 0.166667
O O6 0.777224 0.001321 0.110478
O O7 0.011938 0.225831 0.950641
#
# Coordination Sequence:
#
# PCOD9575541 Si02
#       3
#     6   6   6
#     4   9  17  33  57  92 126 164 208 268 323 393
#     4   9  17  33  57  92 126 164 208 268 323 393
#     4  10  19  34  61  96 132 166 213 272 339 402
#
# _framework density 22.868493000000001
#
# number of rings (size 3 to 8) (size 9 to 14) (size 15 to 20)
#    0.000    3.333    0.000    8.000    0.000    0.000 
#    0.000    6.667    0.000    2.000    0.000   88.667 
#    0.000    0.000    0.000    0.000    0.000    0.000 
#
# Total GULP energy -100545.167242 kJ/mol
# GULP energy per Si atom -5585.842625 kJ/mol
# Density = 2.281644 g / cm^3
# Si number density = 22.868493 Si / 1000 Ang^3
#
#
#
# Elastic Constant Matrix: (Units=GPa)
#
#
# Indices 1 2 3 4 5 6 
#
# 1 166.8327 76.9631 79.9936 0.0001 0.0004 0.0000
# 2 76.9631 166.8327 79.9936 -0.0001 -0.0004 0.0000
# 3 79.9936 79.9936 118.7151 0.0000 0.0000 0.0000
# 4 0.0001 -0.0001 0.0000 17.8091 0.0000 -0.0004
# 5 0.0004 -0.0004 0.0000 0.0000 17.8091 0.0001
# 6 0.0000 0.0000 0.0000 -0.0004 0.0001 44.9348
#
#
#
# Elastic Compliance Matrix: (Units=1/GPa)
#
#
# Indices 1 2 3 4 5 6 
#
# 1 0.009240 -0.001887 -0.004955 0.000000 0.000000 0.000000
# 2 -0.001887 0.009240 -0.004955 0.000000 0.000000 0.000000
# 3 -0.004955 -0.004955 0.015101 0.000000 0.000000 0.000000
# 4 0.000000 0.000000 0.000000 0.056151 0.000000 0.000001
# 5 0.000000 0.000000 0.000000 0.000000 0.056151 0.000000
# 6 0.000000 0.000000 0.000000 0.000001 0.000000 0.022254
#
#
# Mechanical properties :
#
#
# Convention : Reuss Voigt Hill
#
# Bulk Modulus (GPa) = 100.11864 102.92013 101.51938
# Shear Modulus (GPa) = 25.63299 30.47263 28.05281
#
# Velocity S-wave (km/s) = 3.35160 3.65432 3.50623
# Velocity P-wave (km/s) = 7.67156 7.93148 7.80260
#
# Compressibility (1/GPa) = 0.00998815
#
# Stress axis : x y z
#
# Youngs Moduli (GPa) = 108.22157 108.22157 66.22054
#
# Poissons Ratio (x) = 0.20421 0.32812
# Poissons Ratio (y) = 0.20421 0.32812
# Poissons Ratio (z) = 0.53623 0.53623
#
# Static dielectric constant tensor:
#      x y z
#    x 1.955930 0.000000 0.000000 
#    y 0.000000 1.955930 0.000000 
#    z 0.000000 0.000000 1.950110 
# 
# From -- ./inp_files/2173.got.cif
#   From: 2010.05.17/outbox.cif.g08.bks.cpg/sg151_2_cif.got.tgz:2173.got - 2010.05.20 10:33:20.
