data_PCOD9575932
_publ_section_title
;
Structure prediction by ZEFSAII (Michael W. Deem and Ramdas Pophale) SiO2 
 PCOD9575932
Probable space group: P 31 2 1
;
_chemical_formula_sum "Si O2"
_cell_formula_units_Z 39
_cell_length_a 13.644103
_cell_length_b 13.644103
_cell_length_c 12.627674
_cell_angle_alpha 90.000000
_cell_angle_beta 90.000000
_cell_angle_gamma 120.000000
_cell_volume 2035.841540
_symmetry_space_group_name_H-M "P 31 2 1"
_symmetry_group_IT_number 152
_symmetry_cell_setting 'hexagonal'
loop_
_space_group_symop_operation_xyz
x,y,z
-y,x-y,1/3+z
-x+y,-x,2/3+z
x-y,-y,2/3-z
-x,-x+y,1/3-z
y,x,-z
loop_
_atom_site_type_symbol
_atom_site_label
_atom_site_fract_x
_atom_site_fract_y
_atom_site_fract_z
Si Si1 0.468429 0.847004 0.155660
Si Si2 0.085261 0.642989 0.886153
Si Si3 0.725437 0.606311 0.444926
Si Si4 0.690040 0.690040 0.000000
Si Si5 0.731465 0.613133 0.196187
Si Si6 0.632467 0.436209 0.956225
Si Si7 0.873665 0.489853 0.202777
O O1 0.398292 0.912186 0.143731
O O2 0.437068 0.800158 0.275152
O O3 0.425781 0.740237 0.078333
O O4 0.591917 0.950743 0.129302
O O5 0.153413 0.776091 0.861534
O O6 0.139171 0.595398 0.803438
O O7 0.118790 0.617915 0.002611
O O8 0.683286 0.683286 0.500000
O O9 0.739760 0.636545 0.320379
O O10 0.629518 0.476458 0.481798
O O11 0.712080 0.755699 0.887611
O O12 0.677797 0.568646 0.975368
O O13 0.796922 0.543926 0.169903
O O14 0.000000 0.575296 0.166667
#
# Coordination Sequence:
#
# PCOD9575932 Si02
#       7
#     6   6   6   3   6   6   6
#     4  11  23  36  57  79 123 157 199 244 306 361
#     4  11  22  38  54  89 118 152 203 243 295 373
#     4  10  22  36  59  83 118 158 197 245 303 364
#     4  10  22  36  54  76 122 152 200 246 286 354
#     4  10  21  37  53  86 113 156 197 240 295 360
#     4  11  23  37  54  83 120 162 195 247 298 368
#     4  10  22  35  60  85 118 156 198 241 300 365
#
# _framework density 19.156697000000001
#
# number of rings (size 3 to 8) (size 9 to 14) (size 15 to 20)
#    0.000    1.538    3.077    2.769   15.077    0.000 
#    0.000    0.000    0.000    0.000    0.000    1.077 
#    4.615    0.000    0.000    0.000    0.000    0.000 
#
# Total GULP energy -217105.228421 kJ/mol
# GULP energy per Si atom -5566.800729 kJ/mol
# Density = 1.911310 g / cm^3
# Si number density = 19.156697 Si / 1000 Ang^3
#
#
#
# Elastic Constant Matrix: (Units=GPa)
#
#
# Indices 1 2 3 4 5 6 
#
# 1 68.0268 18.6579 35.8686 -0.1774 -0.0001 0.0000
# 2 18.6579 68.0268 35.8686 0.1774 0.0001 0.0000
# 3 35.8686 35.8686 98.1618 0.0000 0.0000 0.0000
# 4 -0.1774 0.1774 0.0000 24.8435 0.0000 0.0001
# 5 -0.0001 0.0001 0.0000 0.0000 24.8435 -0.1774
# 6 0.0000 0.0000 0.0000 0.0001 -0.1774 24.6844
#
#
#
# Elastic Compliance Matrix: (Units=1/GPa)
#
#
# Indices 1 2 3 4 5 6 
#
# 1 0.018397 -0.001860 -0.006043 0.000145 0.000000 0.000000
# 2 -0.001860 0.018397 -0.006043 -0.000145 0.000000 0.000000
# 3 -0.006043 -0.006043 0.014603 0.000000 0.000000 0.000000
# 4 0.000145 -0.000145 0.000000 0.040254 0.000000 0.000000
# 5 0.000000 0.000000 0.000000 0.000000 0.040254 0.000289
# 6 0.000000 0.000000 0.000000 0.000000 0.000289 0.040513
#
#
# Mechanical properties :
#
#
# Convention : Reuss Voigt Hill
#
# Bulk Modulus (GPa) = 42.54171 46.11171 44.32671
# Shear Modulus (GPa) = 24.02186 24.46231 24.24209
#
# Velocity S-wave (km/s) = 3.54498 3.57733 3.56119
# Velocity P-wave (km/s) = 6.24590 6.41764 6.33235
#
# Compressibility (1/GPa) = 0.02350634
#
# Stress axis : x y z
#
# Youngs Moduli (GPa) = 54.35763 54.35763 68.47825
#
# Poissons Ratio (x) = 0.10111 0.41378
# Poissons Ratio (y) = 0.10111 0.41378
# Poissons Ratio (z) = 0.32846 0.32846
#
# Static dielectric constant tensor:
#      x y z
#    x 1.693880 0.000000 0.000000 
#    y 0.000000 1.693880 0.000000 
#    z 0.000000 0.000000 1.815300 
# 
# From -- ./inp_files/1751.got.cif
#   From: 2010.05.17/outbox.cif.g08.bks.cpg/sg152_1_cif.got.tgz:1751.got - 2010.05.20 10:36:06.
