data_PCOD9575243
_publ_section_title
;
Structure prediction by ZEFSAII (Michael W. Deem and Ramdas Pophale) SiO2 
 PCOD9575243
Probable space group: R -3
;
_chemical_formula_sum "Si O2"
_cell_formula_units_Z 126
_cell_length_a 28.923020
_cell_length_b 28.923020
_cell_length_c 9.156580
_cell_angle_alpha 90.000000
_cell_angle_beta 90.000000
_cell_angle_gamma 120.000000
_cell_volume 6633.629345
_symmetry_space_group_name_H-M "R -3"
_symmetry_group_IT_number 148
_symmetry_cell_setting 'hexagonal'
loop_
_space_group_symop_operation_xyz
x,y,z
-y,x-y,z
-x+y,-x,z
-x,-y,-z
y,-x+y,-z
x-y,x,-z
2/3+x,1/3+y,1/3+z
2/3-y,1/3+x-y,1/3+z
2/3-x+y,1/3-x,1/3+z
2/3-x,1/3-y,1/3-z
2/3+y,1/3-x+y,1/3-z
2/3+x-y,1/3+x,1/3-z
1/3+x,2/3+y,2/3+z
1/3-y,2/3+x-y,2/3+z
1/3-x+y,2/3-x,2/3+z
1/3-x,2/3-y,2/3-z
1/3+y,2/3-x+y,2/3-z
1/3+x-y,2/3+x,2/3-z
loop_
_atom_site_type_symbol
_atom_site_label
_atom_site_fract_x
_atom_site_fract_y
_atom_site_fract_z
Si Si1 0.818775 0.106952 0.195544
Si Si2 0.970674 0.269194 0.510401
Si Si3 0.888859 0.101556 0.458577
Si Si4 0.250008 0.309254 0.042921
Si Si5 0.520127 0.665741 0.031592
Si Si6 0.082004 0.455752 0.742258
Si Si7 0.845717 0.620080 0.627722
O O1 0.833334 0.166667 0.166667
O O2 0.850348 0.104866 0.337052
O O3 0.756460 0.076553 0.238253
O O4 0.826022 0.080189 0.050313
O O5 0.985375 0.233113 0.407600
O O6 0.920604 0.274995 0.457623
O O7 0.944621 0.232612 0.651117
O O8 0.025499 0.323120 0.544973
O O9 0.946396 0.131056 0.378530
O O10 0.896405 0.134979 0.608382
O O11 0.856041 0.041382 0.518393
O O12 0.196296 0.298770 0.126580
O O13 0.235138 0.250757 0.996743
O O14 0.514262 0.636231 0.876505
O O15 0.833334 0.666667 0.666667
#
# Coordination Sequence:
#
# PCOD9575243 Si02
#       7
#    18  18  18  18  18  18  18
#     4  12  24  38  56  89 131 169 214 263 315 371
#     4  11  20  35  57  85 124 168 220 257 295 357
#     4  11  24  43  65  88 119 165 214 266 321 390
#     4  12  22  35  57  87 122 172 221 261 299 362
#     4  11  24  44  63  92 123 163 218 268 323 384
#     4  12  24  36  58  93 129 172 209 264 305 361
#     4  11  20  34  58  82 116 165 216 261 302 351
#
# _framework density 18.994126000000001
#
# number of rings (size 3 to 8) (size 9 to 14) (size 15 to 20)
#    0.000    0.571    2.857    8.571    4.000    0.000 
#    0.000    0.000    0.000    0.286    0.000    0.000 
#    0.000    1.143    0.000    0.000    0.000    0.000 
#
# Total GULP energy -234013.869124 kJ/mol
# GULP energy per Si atom -5571.758789 kJ/mol
# Density = 1.895089 g / cm^3
# Si number density = 18.994126 Si / 1000 Ang^3
#
#
#
# Elastic Constant Matrix: (Units=GPa)
#
#
# Indices 1 2 3 4 5 6 
#
# 1 75.0075 22.3119 24.9004 -1.7755 0.5707 0.0008
# 2 22.3119 75.0334 24.9764 1.7781 -0.6137 -0.0003
# 3 24.9004 24.9764 50.9096 0.0129 -0.1560 0.0051
# 4 -1.7755 1.7781 0.0129 31.2374 0.0112 -0.6181
# 5 0.5707 -0.6137 -0.1560 0.0112 31.1608 -1.7799
# 6 0.0008 -0.0003 0.0051 -0.6181 -1.7799 26.3451
#
#
#
# Elastic Compliance Matrix: (Units=1/GPa)
#
#
# Indices 1 2 3 4 5 6 
#
# 1 0.016380 -0.002668 -0.006704 0.001086 -0.000386 0.000000
# 2 -0.002668 0.016391 -0.006735 -0.001082 0.000338 -0.000001
# 3 -0.006704 -0.006735 0.026226 -0.000008 0.000122 0.000003
# 4 0.001086 -0.001082 -0.000008 0.032151 -0.000010 0.000754
# 5 -0.000386 0.000338 0.000122 -0.000010 0.032230 0.002177
# 6 0.000000 -0.000001 0.000003 0.000754 0.002177 0.038123
#
#
# Mechanical properties :
#
#
# Convention : Reuss Voigt Hill
#
# Bulk Modulus (GPa) = 37.33756 38.36975 37.85366
# Shear Modulus (GPa) = 24.67385 26.33278 25.50332
#
# Velocity S-wave (km/s) = 3.60811 3.72743 3.66826
# Velocity P-wave (km/s) = 6.08753 6.22653 6.15742
#
# Compressibility (1/GPa) = 0.02678268
#
# Stress axis : x y z
#
# Youngs Moduli (GPa) = 61.05063 61.00859 38.12947
#
# Poissons Ratio (x) = 0.16277 0.25562
# Poissons Ratio (y) = 0.16288 0.25681
# Poissons Ratio (z) = 0.40929 0.41091
#
# Static dielectric constant tensor:
#      x y z
#    x 1.695680 0.000050 0.000050 
#    y 0.000050 1.695620 0.000060 
#    z 0.000050 0.000060 1.858310 
# 
# From -- ./inp_files/1096.got.cif
#   From: 2010.05.17/outbox.cif.g08.bks.cpg/sg148_1_cif.got.tgz:1096.got - 2010.05.20 13:50:20.
