data_PCOD9575034
_publ_section_title
;
Structure prediction by ZEFSAII (Michael W. Deem and Ramdas Pophale) SiO2 
 PCOD9575034
Probable space group: R -3
;
_chemical_formula_sum "Si O2"
_cell_formula_units_Z 90
_cell_length_a 18.079636
_cell_length_b 18.079636
_cell_length_c 18.736248
_cell_angle_alpha 90.000000
_cell_angle_beta 90.000000
_cell_angle_gamma 120.000000
_cell_volume 5303.866973
_symmetry_space_group_name_H-M "R -3"
_symmetry_group_IT_number 148
_symmetry_cell_setting 'hexagonal'
loop_
_space_group_symop_operation_xyz
x,y,z
-y,x-y,z
-x+y,-x,z
-x,-y,-z
y,-x+y,-z
x-y,x,-z
2/3+x,1/3+y,1/3+z
2/3-y,1/3+x-y,1/3+z
2/3-x+y,1/3-x,1/3+z
2/3-x,1/3-y,1/3-z
2/3+y,1/3-x+y,1/3-z
2/3+x-y,1/3+x,1/3-z
1/3+x,2/3+y,2/3+z
1/3-y,2/3+x-y,2/3+z
1/3-x+y,2/3-x,2/3+z
1/3-x,2/3-y,2/3-z
1/3+y,2/3-x+y,2/3-z
1/3+x-y,2/3+x,2/3-z
loop_
_atom_site_type_symbol
_atom_site_label
_atom_site_fract_x
_atom_site_fract_y
_atom_site_fract_z
Si Si1 0.722097 0.966670 0.788297
Si Si2 0.799528 0.481951 0.297066
Si Si3 0.757716 0.813630 0.763878
Si Si4 0.398934 0.411289 0.700227
Si Si5 0.553624 0.451267 0.178773
O O1 0.759969 0.903864 0.772564
O O2 0.654223 0.920285 0.852495
O O3 0.665233 0.973165 0.725342
O O4 0.797262 0.062403 0.805126
O O5 0.804296 0.430349 0.365682
O O6 0.864668 0.579323 0.311737
O O7 0.826731 0.449593 0.229219
O O8 0.738071 0.786177 0.680819
O O9 0.837853 0.807864 0.795068
O O10 0.442230 0.475277 0.767847
#
# Coordination Sequence:
#
# PCOD9575034 Si02
#       5
#    18  18  18  18  18
#     4  10  20  35  54  79 113 142 182 231 267 335
#     4  10  19  30  48  78 107 143 171 214 276 339
#     4  10  21  35  54  80 112 151 177 224 281 325
#     4  10  20  36  56  74 109 146 189 219 271 330
#     4  10  21  32  52  82 107 144 185 223 269 330
#
# _framework density 16.968751999999999
#
# number of rings (size 3 to 8) (size 9 to 14) (size 15 to 20)
#    0.000    2.000    2.000    2.600    8.400    0.800 
#    1.200    0.000    0.000    0.000    0.000    0.000 
#    0.000    1.600    0.000    0.000    0.000    0.000 
#
# Total GULP energy -167013.970898 kJ/mol
# GULP energy per Si atom -5567.132363 kJ/mol
# Density = 1.693013 g / cm^3
# Si number density = 16.968752 Si / 1000 Ang^3
#
#
#
# Elastic Constant Matrix: (Units=GPa)
#
#
# Indices 1 2 3 4 5 6 
#
# 1 59.5042 -28.1792 -7.5348 -10.4889 -12.2643 0.0000
# 2 -28.1792 59.5042 -7.5348 10.4889 12.2643 0.0000
# 3 -7.5348 -7.5348 25.3077 0.0000 0.0000 0.0000
# 4 -10.4889 10.4889 0.0000 46.3267 0.0000 12.2643
# 5 -12.2643 12.2643 0.0000 0.0000 46.3267 -10.4889
# 6 0.0000 0.0000 0.0000 12.2643 -10.4889 43.8417
#
#
#
# Elastic Compliance Matrix: (Units=1/GPa)
#
#
# Indices 1 2 3 4 5 6 
#
# 1 0.025171 0.012089 0.011093 0.002962 0.003463 0.000000
# 2 0.012089 0.025171 0.011093 -0.002962 -0.003463 0.000000
# 3 0.011093 0.011093 0.046119 0.000000 0.000000 0.000000
# 4 0.002962 -0.002962 0.000000 0.024761 0.000000 -0.006927
# 5 0.003463 -0.003463 0.000000 0.000000 0.024761 0.005924
# 6 0.000000 0.000000 0.000000 -0.006927 0.005924 0.026164
#
#
# Mechanical properties :
#
#
# Convention : Reuss Voigt Hill
#
# Bulk Modulus (GPa) = 6.06013 6.42428 6.24221
# Shear Modulus (GPa) = 31.52581 39.80336 35.66459
#
# Velocity S-wave (km/s) = 4.31498 4.84848 4.58949
# Velocity P-wave (km/s) = 5.32959 5.92772 5.63660
#
# Compressibility (1/GPa) = 0.16501286
#
# Stress axis : x y z
#
# Youngs Moduli (GPa) = 39.72811 39.72811 21.68289
#
# Poissons Ratio (x) = -0.48027 -0.24054
# Poissons Ratio (y) = -0.48027 -0.24054
# Poissons Ratio (z) = -0.44072 -0.44072
#
# Static dielectric constant tensor:
#      x y z
#    x 1.583050 0.000000 0.000000 
#    y 0.000000 1.583050 0.000000 
#    z 0.000000 0.000000 1.622970 
# 
# From -- ./inp_files/2689.got.cif
#   From: 2010.05.17/outbox.cif.g08.bks.cpg/sg148_2_cif.got.tgz:2689.got - 2010.05.20 13:50:20.
