data_PCOD9575371
_publ_section_title
;
Structure prediction by ZEFSAII (Michael W. Deem and Ramdas Pophale) SiO2 
 PCOD9575371
Probable space group: P 3 1 2
;
_chemical_formula_sum "Si O2"
_cell_formula_units_Z 48
_cell_length_a 18.699179
_cell_length_b 18.699179
_cell_length_c 8.689335
_cell_angle_alpha 90.000000
_cell_angle_beta 90.000000
_cell_angle_gamma 120.000000
_cell_volume 2631.250832
_symmetry_space_group_name_H-M "P 3 1 2"
_symmetry_group_IT_number 149
_symmetry_cell_setting 'hexagonal'
loop_
_space_group_symop_operation_xyz
x,y,z
-y,x-y,z
-x+y,-x,z
-y,-x,-z
-x+y,y,-z
x,x-y,-z
loop_
_atom_site_type_symbol
_atom_site_label
_atom_site_fract_x
_atom_site_fract_y
_atom_site_fract_z
Si Si1 0.813498 0.906746 0.184454
Si Si2 0.907033 0.092973 0.686040
Si Si3 0.628016 0.814008 0.686138
Si Si4 0.086879 0.622806 0.315284
Si Si5 0.903601 0.372177 0.816343
Si Si6 0.810596 0.621190 0.316387
Si Si7 0.903606 0.531431 0.816350
Si Si8 0.377195 0.464078 0.684723
O O1 0.858985 0.859152 0.250289
O O2 0.718193 0.859092 0.238393
O O3 0.858981 0.999824 0.250299
O O4 0.818286 0.909143 0.000000
O O5 0.909230 0.090771 0.500000
O O6 0.858718 0.141295 0.733299
O O7 0.638948 0.819474 0.500000
O O8 0.575296 0.717775 0.728629
O O9 0.575287 0.857513 0.728631
O O10 0.073932 0.620033 0.500004
O O11 0.121715 0.560860 0.281481
O O12 0.998817 0.584387 0.233634
O O13 0.855607 0.282713 0.742620
O O14 0.874371 0.437189 0.767955
O O15 0.897039 0.364520 0.999997
O O16 0.810908 0.621816 0.500000
O O17 0.717289 0.572906 0.257375
O O18 0.998823 0.584390 0.766380
#
# Coordination Sequence:
#
# PCOD9575371 Si02
#       8
#     6   6   6   6   6   6   6   6
#     4  12  25  39  58  86 117 151 193 238 282 335
#     4  11  24  42  61  83 116 155 191 234 288 339
#     4  10  20  35  55  82 114 150 190 232 283 337
#     4   9  18  34  55  79 109 146 186 230 276 327
#     4  10  21  37  57  81 110 145 181 224 278 332
#     4  11  23  38  60  87 111 144 188 232 277 333
#     4  10  21  37  57  81 110 145 181 224 278 332
#     4   9  18  34  55  79 109 146 186 230 276 327
#
# _framework density 18.242274999999999
#
# number of rings (size 3 to 8) (size 9 to 14) (size 15 to 20)
#    0.000    1.750    0.000    4.375    0.000   10.500 
#    1.500    0.000    0.000    0.000    0.000    0.000 
#    0.000    0.000    0.000    0.000    0.000    0.000 
#
# Total GULP energy -268087.369583 kJ/mol
# GULP energy per Si atom -5585.153533 kJ/mol
# Density = 1.820075 g / cm^3
# Si number density = 18.242275 Si / 1000 Ang^3
#
#
#
# Elastic Constant Matrix: (Units=GPa)
#
#
# Indices 1 2 3 4 5 6 
#
# 1 162.1819 121.8416 56.1444 0.0000 0.0089 0.0000
# 2 121.8416 162.1819 56.1444 0.0000 -0.0089 0.0000
# 3 56.1444 56.1444 53.7731 0.0000 0.0000 0.0000
# 4 0.0000 0.0000 0.0000 -19.4512 0.0000 -0.0089
# 5 0.0089 -0.0089 0.0000 0.0000 -19.4512 0.0000
# 6 0.0000 0.0000 0.0000 -0.0089 0.0000 20.1701
#
#
#
# Elastic Compliance Matrix: (Units=1/GPa)
#
#
# Indices 1 2 3 4 5 6 
#
# 1 0.015392 -0.009397 -0.006260 0.000000 0.000011 0.000000
# 2 -0.009397 0.015392 -0.006260 0.000000 -0.000011 0.000000
# 3 -0.006260 -0.006260 0.031669 0.000000 0.000000 0.000000
# 4 0.000000 0.000000 0.000000 -0.051411 0.000000 -0.000023
# 5 0.000011 -0.000011 0.000000 0.000000 -0.051411 0.000000
# 6 0.000000 0.000000 0.000000 -0.000023 0.000000 0.049578
#
#
# Mechanical properties :
#
#
# Convention : Reuss Voigt Hill
#
# Bulk Modulus (GPa) = 53.70572 94.04419 73.87496
# Shear Modulus (GPa) = 84.38544 5.85397 45.11971
#
# Velocity S-wave (km/s) = 6.80871 1.79332 4.97868
# Velocity P-wave (km/s) = 9.55592 7.48016 8.58104
#
# Compressibility (1/GPa) = 0.01861999
#
# Stress axis : x y z
#
# Youngs Moduli (GPa) = 64.96677 64.96677 31.57634
#
# Poissons Ratio (x) = 0.61047 0.19768
# Poissons Ratio (y) = 0.61047 0.19768
# Poissons Ratio (z) = 0.40671 0.40671
#
# Static dielectric constant tensor:
#      x y z
#    x 1.609120 0.000000 0.000000 
#    y 0.000000 1.609120 0.000000 
#    z 0.000000 0.000000 1.614020 
# 
# From -- ./inp_files/732.got.cif
#   From: 2010.05.17/outbox.cif.g08.bks.cpg/sg149_cif.got.tgz:732.got - 2010.05.20 13:52:34.
