data_PCOD9575455
_publ_section_title
;
Structure prediction by ZEFSAII (Michael W. Deem and Ramdas Pophale) SiO2 
 PCOD9575455
Probable space group: P 3 2 1
;
_chemical_formula_sum "Si O2"
_cell_formula_units_Z 15
_cell_length_a 9.710892
_cell_length_b 9.710892
_cell_length_c 7.323828
_cell_angle_alpha 90.000000
_cell_angle_beta 90.000000
_cell_angle_gamma 120.000000
_cell_volume 598.118198
_symmetry_space_group_name_H-M "P 3 2 1"
_symmetry_group_IT_number 150
_symmetry_cell_setting 'hexagonal'
loop_
_space_group_symop_operation_xyz
x,y,z
-y,x-y,z
-x+y,-x,z
x-y,-y,-z
-x,-x+y,-z
y,x,-z
loop_
_atom_site_type_symbol
_atom_site_label
_atom_site_fract_x
_atom_site_fract_y
_atom_site_fract_z
Si Si1 0.000000 0.584789 0.000000
Si Si2 0.333334 0.666666 0.947167
Si Si3 0.000000 0.000000 0.217695
Si Si4 0.134898 0.810229 0.351260
Si Si5 0.333335 0.666668 0.382590
O O1 0.145391 0.574483 0.904771
O O2 0.076734 0.714981 0.159200
O O3 0.333334 0.666667 0.164993
O O4 0.026545 0.166444 0.297861
O O5 0.000000 0.000000 0.000000
O O6 0.284425 0.798284 0.425975
O O7 0.000000 0.720506 0.500000
#
# Coordination Sequence:
#
# PCOD9575455 Si02
#       5
#     3   2   2   6   2
#     4  10  22  40  62  96 128 174 216 274 324 394
#     4   9  21  40  65  91 133 173 220 268 329 388
#     4  12  25  47  70 100 134 181 229 281 337 403
#     4  11  24  43  70 100 137 176 225 278 336 402
#     4   9  24  46  65 106 139 173 229 280 332 409
#
# _framework density 25.078657
#
# number of rings (size 3 to 8) (size 9 to 14) (size 15 to 20)
#    0.000    1.600    2.000    1.200    0.000   16.000 
#    3.600    0.000    0.000    2.400    0.000    0.000 
#    0.000    0.000    0.000    0.000    0.000    0.000 
#
# Total GULP energy -83681.059859 kJ/mol
# GULP energy per Si atom -5578.737324 kJ/mol
# Density = 2.502158 g / cm^3
# Si number density = 25.078657 Si / 1000 Ang^3
#
#
#
# Elastic Constant Matrix: (Units=GPa)
#
#
# Indices 1 2 3 4 5 6 
#
# 1 112.1856 66.6114 -3.9482 4.7482 0.0000 0.0000
# 2 66.6114 112.1826 -3.9496 -4.7481 0.0000 0.0000
# 3 -3.9482 -3.9496 91.8665 -0.0005 0.0000 0.0000
# 4 4.7482 -4.7481 -0.0005 17.2884 0.0000 0.0000
# 5 0.0000 0.0000 0.0000 0.0000 17.2891 4.7482
# 6 0.0000 0.0000 0.0000 0.0000 4.7482 22.7873
#
#
#
# Elastic Compliance Matrix: (Units=1/GPa)
#
#
# Indices 1 2 3 4 5 6 
#
# 1 0.014439 -0.008836 0.000241 -0.006392 0.000000 0.000000
# 2 -0.008836 0.014439 0.000241 0.006392 0.000000 0.000000
# 3 0.000241 0.000241 0.010906 0.000000 0.000000 0.000000
# 4 -0.006392 0.006392 0.000000 0.061353 0.000000 0.000000
# 5 0.000000 0.000000 0.000000 0.000000 0.061351 -0.012784
# 6 0.000000 0.000000 0.000000 0.000000 -0.012784 0.046548
#
#
# Mechanical properties :
#
#
# Convention : Reuss Voigt Hill
#
# Bulk Modulus (GPa) = 43.33356 48.18466 45.75911
# Shear Modulus (GPa) = 21.41907 28.64104 25.03006
#
# Velocity S-wave (km/s) = 2.92563 3.38309 3.16264
# Velocity P-wave (km/s) = 5.35994 5.87499 5.62336
#
# Compressibility (1/GPa) = 0.02307680
#
# Stress axis : x y z
#
# Youngs Moduli (GPa) = 69.25644 69.25448 91.69210
#
# Poissons Ratio (x) = 0.61191 -0.02207
# Poissons Ratio (y) = 0.61193 -0.02211
# Poissons Ratio (z) = -0.01667 -0.01670
#
# Static dielectric constant tensor:
#      x y z
#    x 2.127470 0.000000 0.000000 
#    y 0.000000 2.127480 0.000000 
#    z 0.000000 0.000000 1.946230 
# 
# From -- ./inp_files/389.got.cif
#   From: 2010.05.17/outbox.cif.g08.bks.cpg/sg150_cif.got.tgz:389.got - 2010.05.20 13:53:18.
