data_PCOD9575501
_publ_section_title
;
Structure prediction by ZEFSAII (Michael W. Deem and Ramdas Pophale) SiO2 
 PCOD9575501
Probable space group: P 31 1 2
;
_chemical_formula_sum "Si O2"
_cell_formula_units_Z 36
_cell_length_a 12.160079
_cell_length_b 12.160079
_cell_length_c 14.495691
_cell_angle_alpha 90.000000
_cell_angle_beta 90.000000
_cell_angle_gamma 120.000000
_cell_volume 1856.275135
_symmetry_space_group_name_H-M "P 31 1 2"
_symmetry_group_IT_number 151
_symmetry_cell_setting 'hexagonal'
loop_
_space_group_symop_operation_xyz
x,y,z
-y,x-y,1/3+z
-x+y,-x,2/3+z
-y,-x,2/3-z
-x+y,y,1/3-z
x,x-y,-z
loop_
_atom_site_type_symbol
_atom_site_label
_atom_site_fract_x
_atom_site_fract_y
_atom_site_fract_z
Si Si1 0.987708 0.676079 0.506521
Si Si2 0.513688 0.988504 0.023128
Si Si3 0.582596 0.904189 0.456695
Si Si4 0.543002 0.251319 0.393398
Si Si5 0.806256 0.874174 0.672584
Si Si6 0.910729 0.250406 0.064309
O O1 0.055950 0.645925 0.422513
O O2 0.964658 0.565305 0.579447
O O3 0.859137 0.661061 0.462193
O O4 0.060842 0.808324 0.561888
O O5 0.613608 0.105380 0.962232
O O6 0.413529 0.894850 0.950018
O O7 0.538263 0.769132 0.500000
O O8 0.714514 0.945325 0.402005
O O9 0.627102 0.006692 0.538312
O O10 0.668356 0.331645 0.333334
O O11 0.567473 0.283737 0.500000
O O12 0.438482 0.280731 0.350841
O O13 0.947939 0.895877 0.666667
O O14 0.797289 0.997600 0.645447
#
# Coordination Sequence:
#
# PCOD9575501 Si02
#       6
#     6   6   6   6   6   6
#     4   9  18  32  51  83 114 151 194 234 280 349
#     4   9  19  31  55  80 117 152 190 238 290 348
#     4   9  17  30  52  83 118 153 196 237 283 348
#     4  11  24  36  53  80 118 154 190 239 300 364
#     4  10  18  31  54  81 120 157 189 234 286 351
#     4  10  20  34  50  78 117 152 196 233 285 352
#
# _framework density 19.393675999999999
#
# number of rings (size 3 to 8) (size 9 to 14) (size 15 to 20)
#    0.000    2.333    1.667    1.000    7.000    0.000 
#    3.000    0.000    0.000    0.000    0.000    0.000 
#  180.000    0.000    0.000    0.000    0.000    0.000 
#
# Total GULP energy -200694.160399 kJ/mol
# GULP energy per Si atom -5574.837789 kJ/mol
# Density = 1.934954 g / cm^3
# Si number density = 19.393676 Si / 1000 Ang^3
#
#
#
# Elastic Constant Matrix: (Units=GPa)
#
#
# Indices 1 2 3 4 5 6 
#
# 1 37.2549 13.8537 32.0511 -0.0001 3.9669 0.0000
# 2 13.8537 37.2549 32.0511 0.0001 -3.9669 0.0000
# 3 32.0511 32.0511 138.3511 0.0000 0.0000 0.0000
# 4 -0.0001 0.0001 0.0000 23.3140 0.0000 -3.9669
# 5 3.9669 -3.9669 0.0000 0.0000 23.3140 -0.0001
# 6 0.0000 0.0000 0.0000 -3.9669 -0.0001 11.7006
#
#
#
# Elastic Compliance Matrix: (Units=1/GPa)
#
#
# Indices 1 2 3 4 5 6 
#
# 1 0.036464 -0.008885 -0.006389 0.000000 -0.007716 0.000000
# 2 -0.008885 0.036464 -0.006389 0.000000 0.007716 0.000000
# 3 -0.006389 -0.006389 0.010188 0.000000 0.000000 0.000000
# 4 0.000000 0.000000 0.000000 0.045519 0.000000 0.015432
# 5 -0.007716 0.007716 0.000000 0.000000 0.045519 0.000000
# 6 0.000000 0.000000 0.000000 0.015432 0.000000 0.090698
#
#
# Mechanical properties :
#
#
# Convention : Reuss Voigt Hill
#
# Bulk Modulus (GPa) = 25.13141 40.97475 33.05308
# Shear Modulus (GPa) = 15.55493 20.65940 18.10716
#
# Velocity S-wave (km/s) = 2.83514 3.26738 3.05891
# Velocity P-wave (km/s) = 4.86868 5.95047 5.43655
#
# Compressibility (1/GPa) = 0.03979084
#
# Stress axis : x y z
#
# Youngs Moduli (GPa) = 27.42406 27.42406 98.15149
#
# Poissons Ratio (x) = 0.24365 0.62712
# Poissons Ratio (y) = 0.24365 0.62712
# Poissons Ratio (z) = 0.17522 0.17522
#
# Static dielectric constant tensor:
#      x y z
#    x 1.676480 0.000000 0.000000 
#    y 0.000000 1.676480 0.000000 
#    z 0.000000 0.000000 1.700790 
# 
# From -- ./inp_files/2915.got.cif
#   From: 2010.05.17/outbox.cif.g08.bks.cpg/sg151_2_cif.got.tgz:2915.got - 2010.05.20 10:33:20.
