data_PCOD9575461
_publ_section_title
;
Structure prediction by ZEFSAII (Michael W. Deem and Ramdas Pophale) SiO2 
 PCOD9575461
Probable space group: P 3 2 1
;
_chemical_formula_sum "Si O2"
_cell_formula_units_Z 15
_cell_length_a 8.778450
_cell_length_b 8.778450
_cell_length_c 11.237122
_cell_angle_alpha 90.000000
_cell_angle_beta 90.000000
_cell_angle_gamma 120.000000
_cell_volume 749.931174
_symmetry_space_group_name_H-M "P 3 2 1"
_symmetry_group_IT_number 150
_symmetry_cell_setting 'hexagonal'
loop_
_space_group_symop_operation_xyz
x,y,z
-y,x-y,z
-x+y,-x,z
x-y,-y,-z
-x,-x+y,-z
y,x,-z
loop_
_atom_site_type_symbol
_atom_site_label
_atom_site_fract_x
_atom_site_fract_y
_atom_site_fract_z
Si Si1 0.797345 0.000000 0.000000
Si Si2 0.998755 0.667929 0.741215
Si Si3 0.000000 0.000000 0.359576
Si Si4 0.333334 0.666668 0.648162
Si Si5 0.333335 0.666669 0.361451
O O1 0.693217 0.995244 0.117519
O O2 0.000000 0.163757 0.000000
O O3 0.144515 0.622041 0.698157
O O4 0.812998 0.521461 0.688888
O O5 0.045921 0.856429 0.688135
O O6 0.000000 0.000000 0.500000
O O7 0.333334 0.666667 0.504774
#
# Coordination Sequence:
#
# PCOD9575461 Si02
#       5
#     3   6   2   2   2
#     4  10  22  46  72 100 136 174 238 278 338 424
#     4  12  25  44  72  97 141 183 224 288 340 398
#     4  12  21  40  68  97 132 183 223 278 346 396
#     4  12  27  46  68 106 141 180 235 281 340 414
#     4  12  27  46  68 106 141 180 235 281 340 414
#
# _framework density 20.001833999999999
#
# number of rings (size 3 to 8) (size 9 to 14) (size 15 to 20)
#    0.400    0.000    4.000    6.000    0.000    3.200 
#    0.000    0.000    0.000    0.000    0.000    0.000 
#    0.000    0.000    0.000    0.000    0.000    0.000 
#
# Total GULP energy -83909.345936 kJ/mol
# GULP energy per Si atom -5593.956396 kJ/mol
# Density = 1.995631 g / cm^3
# Si number density = 20.001834 Si / 1000 Ang^3
#
#
#
# Elastic Constant Matrix: (Units=GPa)
#
#
# Indices 1 2 3 4 5 6 
#
# 1 65.8288 -9.4810 35.2157 13.3115 0.0000 0.0000
# 2 -9.4810 65.8268 35.2167 -13.3119 0.0000 0.0000
# 3 35.2157 35.2167 245.9866 0.0023 0.0000 0.0000
# 4 13.3115 -13.3119 0.0023 -90.7804 0.0000 0.0000
# 5 0.0000 0.0000 0.0000 0.0000 -90.7269 13.3045
# 6 0.0000 0.0000 0.0000 0.0000 13.3045 37.6563
#
#
#
# Elastic Compliance Matrix: (Units=1/GPa)
#
#
# Indices 1 2 3 4 5 6 
#
# 1 0.017119 0.004496 -0.003094 0.001851 0.000000 0.000000
# 2 0.004496 0.017120 -0.003095 -0.001851 0.000000 0.000000
# 3 -0.003094 -0.003095 0.004951 0.000000 0.000000 0.000000
# 4 0.001851 -0.001851 0.000000 -0.010473 0.000000 0.000000
# 5 0.000000 0.000000 0.000000 0.000000 -0.010479 0.003702
# 6 0.000000 0.000000 0.000000 0.000000 0.003702 0.025248
#
#
# Mechanical properties :
#
#
# Convention : Reuss Voigt Hill
#
# Bulk Modulus (GPa) = 27.92995 55.50501 41.71748
# Shear Modulus (GPa) = 85.02180 -7.65747 38.68216
#
# Velocity S-wave (km/s) = 6.52681 -1.95875 4.40242
# Velocity P-wave (km/s) = 8.41386 4.76389 6.83695
#
# Compressibility (1/GPa) = 0.03580386
#
# Stress axis : x y z
#
# Youngs Moduli (GPa) = 58.41293 58.41108 201.96709
#
# Poissons Ratio (x) = -0.26259 0.62498
# Poissons Ratio (y) = -0.26260 0.62500
# Poissons Ratio (z) = 0.18076 0.18076
#
# Static dielectric constant tensor:
#      x y z
#    x 1.669620 0.000000 0.000000 
#    y 0.000000 1.669610 0.000000 
#    z 0.000000 0.000000 1.698190 
# 
# From -- ./inp_files/834.got.cif
#   From: 2010.05.17/outbox.cif.g08.bks.cpg/sg150_cif.got.tgz:834.got - 2010.05.20 13:53:18.
