data_PCOD9575914
_publ_section_title
;
Structure prediction by ZEFSAII (Michael W. Deem and Ramdas Pophale) SiO2 
 PCOD9575914
Probable space group: P 31 2 1
;
_chemical_formula_sum "Si O2"
_cell_formula_units_Z 18
_cell_length_a 7.286097
_cell_length_b 7.286097
_cell_length_c 15.456206
_cell_angle_alpha 90.000000
_cell_angle_beta 90.000000
_cell_angle_gamma 120.000000
_cell_volume 710.597093
_symmetry_space_group_name_H-M "P 31 2 1"
_symmetry_group_IT_number 152
_symmetry_cell_setting 'hexagonal'
loop_
_space_group_symop_operation_xyz
x,y,z
-y,x-y,1/3+z
-x+y,-x,2/3+z
x-y,-y,2/3-z
-x,-x+y,1/3-z
y,x,-z
loop_
_atom_site_type_symbol
_atom_site_label
_atom_site_fract_x
_atom_site_fract_y
_atom_site_fract_z
Si Si1 0.176459 0.951996 0.518758
Si Si2 0.624883 0.316298 0.484671
Si Si3 0.226594 0.469916 0.007981
O O1 0.974321 0.974321 0.500000
O O2 0.378144 0.153603 0.478717
O O3 0.182715 0.743428 0.487932
O O4 0.223521 0.952209 0.621243
O O5 0.680207 0.482507 0.561251
O O6 0.716833 0.385165 0.388517
O O7 0.420444 0.420444 0.000000
#
# Coordination Sequence:
#
# PCOD9575914 Si02
#       3
#     6   6   6
#     4  10  23  44  71  99 140 193 239 298 376 433
#     4  10  21  44  68 103 143 181 244 306 352 444
#     4  10  20  45  68  96 144 180 232 303 351 431
#
# _framework density 25.330808000000001
#
# number of rings (size 3 to 8) (size 9 to 14) (size 15 to 20)
#    2.000    0.000    3.333    0.000    0.000    2.667 
#   12.000    3.333    0.000    0.000    0.000    0.000 
#    0.000    0.000    0.000    0.000    0.000    0.000 
#
# Total GULP energy -100325.235182 kJ/mol
# GULP energy per Si atom -5573.624177 kJ/mol
# Density = 2.527315 g / cm^3
# Si number density = 25.330808 Si / 1000 Ang^3
#
#
#
# Elastic Constant Matrix: (Units=GPa)
#
#
# Indices 1 2 3 4 5 6 
#
# 1 59.0032 9.1465 16.1479 -4.8671 0.0000 0.0000
# 2 9.1465 59.0032 16.1479 4.8671 0.0000 0.0000
# 3 16.1479 16.1479 139.4465 0.0000 0.0000 0.0000
# 4 -4.8671 4.8671 0.0000 26.0688 0.0000 0.0000
# 5 0.0000 0.0000 0.0000 0.0000 26.0688 -4.8671
# 6 0.0000 0.0000 0.0000 0.0000 -4.8671 24.9283
#
#
#
# Elastic Compliance Matrix: (Units=1/GPa)
#
#
# Indices 1 2 3 4 5 6 
#
# 1 0.018171 -0.002645 -0.001798 0.003886 0.000000 0.000000
# 2 -0.002645 0.018171 -0.001798 -0.003886 0.000000 0.000000
# 3 -0.001798 -0.001798 0.007588 0.000000 0.000000 0.000000
# 4 0.003886 -0.003886 0.000000 0.039811 0.000000 0.000000
# 5 0.000000 0.000000 0.000000 0.000000 0.039811 0.007773
# 6 0.000000 0.000000 0.000000 0.000000 0.007773 0.041633
#
#
# Mechanical properties :
#
#
# Convention : Reuss Voigt Hill
#
# Bulk Modulus (GPa) = 31.79923 37.81526 34.80724
# Shear Modulus (GPa) = 26.57463 29.81388 28.19426
#
# Velocity S-wave (km/s) = 3.24250 3.43444 3.33985
# Velocity P-wave (km/s) = 5.15745 5.53969 5.35198
#
# Compressibility (1/GPa) = 0.03144731
#
# Stress axis : x y z
#
# Youngs Moduli (GPa) = 55.03294 55.03294 131.79409
#
# Poissons Ratio (x) = 0.14558 0.23695
# Poissons Ratio (y) = 0.14558 0.23695
# Poissons Ratio (z) = 0.09894 0.09894
#
# Static dielectric constant tensor:
#      x y z
#    x 2.054560 0.000000 0.000000 
#    y 0.000000 2.054560 0.000000 
#    z 0.000000 0.000000 2.039070 
# 
# From -- ./inp_files/2203.got.cif
#   From: 2010.05.17/outbox.cif.g08.bks.cpg/sg152_2_cif.got.tgz:2203.got - 2010.05.20 10:36:06.
