data_PCOD9575054
_publ_section_title
;
Structure prediction by ZEFSAII (Michael W. Deem and Ramdas Pophale) SiO2 
 PCOD9575054
Probable space group: R -3
;
_chemical_formula_sum "Si O2"
_cell_formula_units_Z 126
_cell_length_a 26.084000
_cell_length_b 26.084000
_cell_length_c 11.888872
_cell_angle_alpha 90.000000
_cell_angle_beta 90.000000
_cell_angle_gamma 120.000000
_cell_volume 7005.185920
_symmetry_space_group_name_H-M "R -3"
_symmetry_group_IT_number 148
_symmetry_cell_setting 'hexagonal'
loop_
_space_group_symop_operation_xyz
x,y,z
-y,x-y,z
-x+y,-x,z
-x,-y,-z
y,-x+y,-z
x-y,x,-z
2/3+x,1/3+y,1/3+z
2/3-y,1/3+x-y,1/3+z
2/3-x+y,1/3-x,1/3+z
2/3-x,1/3-y,1/3-z
2/3+y,1/3-x+y,1/3-z
2/3+x-y,1/3+x,1/3-z
1/3+x,2/3+y,2/3+z
1/3-y,2/3+x-y,2/3+z
1/3-x+y,2/3-x,2/3+z
1/3-x,2/3-y,2/3-z
1/3+y,2/3-x+y,2/3-z
1/3+x-y,2/3+x,2/3-z
loop_
_atom_site_type_symbol
_atom_site_label
_atom_site_fract_x
_atom_site_fract_y
_atom_site_fract_z
Si Si1 0.491419 0.919014 0.443479
Si Si2 0.494779 0.037032 0.151536
Si Si3 0.944511 0.508833 0.370504
Si Si4 0.571782 0.786356 0.253997
Si Si5 0.947415 0.349829 0.402273
Si Si6 0.300376 0.345134 0.149936
Si Si7 0.797644 0.986667 0.562309
O O1 0.434725 0.909533 0.516083
O O2 0.534772 0.919420 0.539734
O O3 0.492926 0.880510 0.339166
O O4 0.523375 0.986189 0.398856
O O5 0.530385 0.065008 0.265736
O O6 0.476525 0.967508 0.147083
O O7 0.431238 0.032607 0.132705
O O8 0.536132 0.072597 0.048262
O O9 0.935580 0.562329 0.328326
O O10 0.526802 0.810339 0.235810
O O11 0.542153 0.719884 0.211021
O O12 0.001271 0.386088 0.314483
O O13 0.979745 0.334417 0.500371
O O14 0.326002 0.408406 0.209459
#
# Coordination Sequence:
#
# PCOD9575054 Si02
#       7
#    18  18  18  18  18  18  18
#     4  11  22  35  51  76 109 145 178 229 278 321
#     4  10  19  35  51  78 108 145 182 225 272 321
#     4  11  21  34  53  73 111 142 184 229 278 319
#     4  10  21  35  57  76 109 144 184 230 275 335
#     4  12  20  34  51  77 105 151 189 223 267 327
#     4  11  20  31  51  76 109 144 191 221 259 332
#     4  11  21  38  55  79 110 143 187 232 285 328
#
# _framework density 17.986674000000001
#
# number of rings (size 3 to 8) (size 9 to 14) (size 15 to 20)
#    0.000    1.143    5.714    1.714    0.000    2.286 
#    2.571    0.000    0.000    0.286    0.000    0.000 
#    0.000    0.000    0.000    3.286    0.000    0.000 
#
# Total GULP energy -234009.370493 kJ/mol
# GULP energy per Si atom -5571.651678 kJ/mol
# Density = 1.794574 g / cm^3
# Si number density = 17.986674 Si / 1000 Ang^3
#
#
#
# Elastic Constant Matrix: (Units=GPa)
#
#
# Indices 1 2 3 4 5 6 
#
# 1 43.5051 13.1852 9.6514 -7.1509 3.3799 0.0001
# 2 13.1852 43.5049 9.6506 7.1512 -3.3797 0.0000
# 3 9.6514 9.6506 63.4795 0.0011 0.0001 0.0004
# 4 -7.1509 7.1512 0.0011 22.7376 0.0004 -3.3796
# 5 3.3799 -3.3797 0.0001 0.0004 22.7373 -7.1511
# 6 0.0001 0.0000 0.0004 -3.3796 -7.1511 15.1599
#
#
#
# Elastic Compliance Matrix: (Units=1/GPa)
#
#
# Indices 1 2 3 4 5 6 
#
# 1 0.029449 -0.010846 -0.002829 0.012673 -0.005990 -0.000001
# 2 -0.010846 0.029449 -0.002828 -0.012673 0.005990 0.000000
# 3 -0.002829 -0.002828 0.016613 -0.000001 0.000000 -0.000001
# 4 0.012673 -0.012673 -0.000001 0.053732 -0.000001 0.011978
# 5 -0.005990 0.005990 0.000000 -0.000001 0.053733 0.025346
# 6 -0.000001 0.000000 -0.000001 0.011978 0.025346 0.080590
#
#
# Mechanical properties :
#
#
# Convention : Reuss Voigt Hill
#
# Bulk Modulus (GPa) = 23.52633 23.94042 23.73337
# Shear Modulus (GPa) = 16.09069 19.99379 18.04224
#
# Velocity S-wave (km/s) = 2.99421 3.33767 3.17059
# Velocity P-wave (km/s) = 5.00620 5.30965 5.16015
#
# Compressibility (1/GPa) = 0.04250558
#
# Stress axis : x y z
#
# Youngs Moduli (GPa) = 33.95711 33.95713 60.19347
#
# Poissons Ratio (x) = 0.36831 0.17027
# Poissons Ratio (y) = 0.36831 0.17021
# Poissons Ratio (z) = 0.09605 0.09602
#
# Static dielectric constant tensor:
#      x y z
#    x 1.649120 0.000000 0.000000 
#    y 0.000000 1.649120 0.000000 
#    z 0.000000 0.000000 1.696640 
# 
# From -- ./inp_files/1609.got.cif
#   From: 2010.05.17/outbox.cif.g08.bks.cpg/sg148_1_cif.got.tgz:1609.got - 2010.05.20 13:50:20.
