data_PCOD9575204
_publ_section_title
;
Structure prediction by ZEFSAII (Michael W. Deem and Ramdas Pophale) SiO2 
 PCOD9575204
Probable space group: R -3
;
_chemical_formula_sum "Si O2"
_cell_formula_units_Z 117
_cell_length_a 21.440630
_cell_length_b 21.440630
_cell_length_c 11.820553
_cell_angle_alpha 90.000000
_cell_angle_beta 90.000000
_cell_angle_gamma 120.000000
_cell_volume 4705.908849
_symmetry_space_group_name_H-M "R -3"
_symmetry_group_IT_number 148
_symmetry_cell_setting 'hexagonal'
loop_
_space_group_symop_operation_xyz
x,y,z
-y,x-y,z
-x+y,-x,z
-x,-y,-z
y,-x+y,-z
x-y,x,-z
2/3+x,1/3+y,1/3+z
2/3-y,1/3+x-y,1/3+z
2/3-x+y,1/3-x,1/3+z
2/3-x,1/3-y,1/3-z
2/3+y,1/3-x+y,1/3-z
2/3+x-y,1/3+x,1/3-z
1/3+x,2/3+y,2/3+z
1/3-y,2/3+x-y,2/3+z
1/3-x+y,2/3-x,2/3+z
1/3-x,2/3-y,2/3-z
1/3+y,2/3-x+y,2/3-z
1/3+x-y,2/3+x,2/3-z
loop_
_atom_site_type_symbol
_atom_site_label
_atom_site_fract_x
_atom_site_fract_y
_atom_site_fract_z
Si Si1 0.709626 0.715975 0.703511
Si Si2 0.533299 0.739456 0.381253
Si Si3 0.808698 0.348229 0.295495
Si Si4 0.531158 0.250871 0.890962
Si Si5 0.390259 0.958160 0.622759
Si Si6 0.833334 0.166667 0.666667
Si Si7 0.162466 0.862339 0.585413
O O1 0.789774 0.727207 0.692743
O O2 0.642823 0.637603 0.688199
O O3 0.709483 0.750232 0.823572
O O4 0.698600 0.762930 0.607822
O O5 0.505083 0.723925 0.509540
O O6 0.469542 0.673051 0.314376
O O7 0.577371 0.817488 0.327072
O O8 0.734089 0.271697 0.289388
O O9 0.866115 0.324146 0.330640
O O10 0.571043 0.336938 0.887955
O O11 0.449313 0.229632 0.908125
O O12 0.473513 0.990765 0.648038
O O13 0.840574 0.177748 0.527951
#
# Coordination Sequence:
#
# PCOD9575204 Si02
#       7
#    18  18  18  18  18   9  18
#     4  10  23  43  67 100 143 179 238 301 378 453
#     4  10  24  43  70 103 139 189 240 309 374 454
#     4  11  24  46  71 104 146 194 253 312 376 457
#     4  11  24  46  66  98 142 190 248 299 371 457
#     4  11  23  42  69 106 142 190 241 307 386 455
#     4  12  22  44  68 102 146 182 246 306 370 458
#     4  11  24  42  70 100 143 192 238 308 376 453
#
# _framework density 24.862359999999999
#
# number of rings (size 3 to 8) (size 9 to 14) (size 15 to 20)
#    0.000    1.231    1.538    4.462    2.154    4.923 
#    2.769    0.000    0.000    0.000    0.000    0.000 
#    0.000    0.000    0.000    0.000    0.000    0.000 
#
# Total GULP energy -217193.338928 kJ/mol
# GULP energy per Si atom -5569.059973 kJ/mol
# Density = 2.480577 g / cm^3
# Si number density = 24.862360 Si / 1000 Ang^3
#
#
#
# Elastic Constant Matrix: (Units=GPa)
#
#
# Indices 1 2 3 4 5 6 
#
# 1 111.3509 14.6003 17.5925 4.8846 0.4452 0.0000
# 2 14.6003 111.3509 17.5924 -4.8846 -0.4452 0.0000
# 3 17.5925 17.5924 89.3294 0.0000 0.0001 0.0000
# 4 4.8846 -4.8846 0.0000 26.9126 0.0000 -0.4452
# 5 0.4452 -0.4452 0.0001 0.0000 26.9126 4.8846
# 6 0.0000 0.0000 0.0000 -0.4452 4.8846 48.3753
#
#
#
# Elastic Compliance Matrix: (Units=1/GPa)
#
#
# Indices 1 2 3 4 5 6 
#
# 1 0.009466 -0.001064 -0.001655 -0.001911 -0.000174 0.000000
# 2 -0.001064 0.009466 -0.001655 0.001911 0.000174 0.000000
# 3 -0.001655 -0.001655 0.011846 0.000000 0.000000 0.000000
# 4 -0.001911 0.001911 0.000000 0.037857 0.000000 0.000348
# 5 -0.000174 0.000174 0.000000 0.000000 0.037857 -0.003823
# 6 0.000000 0.000000 0.000000 0.000348 -0.003823 0.021061
#
#
# Mechanical properties :
#
#
# Convention : Reuss Voigt Hill
#
# Bulk Modulus (GPa) = 45.38996 45.73350 45.56173
# Shear Modulus (GPa) = 34.80823 37.92314 36.36569
#
# Velocity S-wave (km/s) = 3.74577 3.90978 3.82865
# Velocity P-wave (km/s) = 6.08308 6.23028 6.15712
#
# Compressibility (1/GPa) = 0.02203130
#
# Stress axis : x y z
#
# Youngs Moduli (GPa) = 105.63979 105.63979 84.41485
#
# Poissons Ratio (x) = 0.11243 0.13968
# Poissons Ratio (y) = 0.11243 0.13968
# Poissons Ratio (z) = 0.17480 0.17480
#
# Static dielectric constant tensor:
#      x y z
#    x 2.194150 0.000000 0.000000 
#    y 0.000000 2.194150 0.000000 
#    z 0.000000 0.000000 2.058240 
# 
# From -- ./inp_files/2112.got.cif
#   From: 2010.05.17/outbox.cif.g08.bks.cpg/sg148_2_cif.got.tgz:2112.got - 2010.05.20 13:50:20.
