data_PCOD9575567
_publ_section_title
;
Structure prediction by ZEFSAII (Michael W. Deem and Ramdas Pophale) SiO2 
 PCOD9575567
Probable space group: P 31 1 2
;
_chemical_formula_sum "Si O2"
_cell_formula_units_Z 36
_cell_length_a 8.927096
_cell_length_b 8.927096
_cell_length_c 25.779417
_cell_angle_alpha 90.000000
_cell_angle_beta 90.000000
_cell_angle_gamma 120.000000
_cell_volume 1779.197393
_symmetry_space_group_name_H-M "P 31 1 2"
_symmetry_group_IT_number 151
_symmetry_cell_setting 'hexagonal'
loop_
_space_group_symop_operation_xyz
x,y,z
-y,x-y,1/3+z
-x+y,-x,2/3+z
-y,-x,2/3-z
-x+y,y,1/3-z
x,x-y,-z
loop_
_atom_site_type_symbol
_atom_site_label
_atom_site_fract_x
_atom_site_fract_y
_atom_site_fract_z
Si Si1 0.261724 0.739849 0.588811
Si Si2 0.287443 0.222527 0.446869
Si Si3 0.009108 0.101112 0.111184
Si Si4 0.643145 0.701658 0.923324
Si Si5 0.139301 0.741921 0.703529
Si Si6 0.949921 0.595410 0.295390
O O1 0.127914 0.548426 0.568860
O O2 0.178797 0.765680 0.642027
O O3 0.438956 0.747367 0.605185
O O4 0.302615 0.895189 0.550849
O O5 0.340523 0.170262 0.500000
O O6 0.398283 0.204180 0.400608
O O7 0.083629 0.083928 0.439320
O O8 0.090286 0.180572 0.166667
O O9 0.114865 0.224540 0.063981
O O10 0.809422 0.052125 0.111305
O O11 0.644904 0.878190 0.940406
O O12 0.667853 0.621569 0.976440
O O13 0.982425 0.546745 0.713423
#
# Coordination Sequence:
#
# PCOD9575567 Si02
#       6
#     6   6   6   6   6   6
#     4   9  18  34  56  79 100 134 183 224 265 320
#     4  10  20  33  50  77 108 139 178 218 265 330
#     4  10  20  33  49  76 110 140 173 216 273 332
#     4   8  15  31  53  73  98 134 175 219 261 313
#     4   9  18  33  55  80 103 132 175 224 273 323
#     4   8  15  30  52  75  98 131 175 217 260 314
#
# _framework density 20.233844000000001
#
# number of rings (size 3 to 8) (size 9 to 14) (size 15 to 20)
#    0.000    3.000    0.000    3.000    0.000    3.333 
#    0.000   14.167    0.000    2.000    0.000    0.000 
#    0.000    0.000    0.000    0.000    0.000    0.000 
#
# Total GULP energy -200803.788791 kJ/mol
# GULP energy per Si atom -5577.883022 kJ/mol
# Density = 2.018779 g / cm^3
# Si number density = 20.233844 Si / 1000 Ang^3
#
#
#
# Elastic Constant Matrix: (Units=GPa)
#
#
# Indices 1 2 3 4 5 6 
#
# 1 48.2879 15.9012 20.9805 -0.0003 -7.0477 0.0000
# 2 15.9012 48.2879 20.9805 0.0003 7.0477 0.0000
# 3 20.9805 20.9805 39.6228 0.0000 0.0000 0.0000
# 4 -0.0003 0.0003 0.0000 20.8766 0.0000 7.0477
# 5 -7.0477 7.0477 0.0000 0.0000 20.8766 -0.0003
# 6 0.0000 0.0000 0.0000 7.0477 -0.0003 16.1934
#
#
#
# Elastic Compliance Matrix: (Units=1/GPa)
#
#
# Indices 1 2 3 4 5 6 
#
# 1 0.030011 -0.006184 -0.012616 0.000001 0.012219 0.000000
# 2 -0.006184 0.030011 -0.012616 -0.000001 -0.012219 0.000000
# 3 -0.012616 -0.012616 0.038599 0.000000 0.000000 0.000000
# 4 0.000001 -0.000001 0.000000 0.056150 0.000000 -0.024438
# 5 0.012219 -0.012219 0.000000 0.000000 0.056150 0.000001
# 6 0.000000 0.000000 0.000000 -0.024438 0.000001 0.072389
#
#
# Mechanical properties :
#
#
# Convention : Reuss Voigt Hill
#
# Bulk Modulus (GPa) = 27.94345 27.99146 27.96745
# Shear Modulus (GPa) = 13.96368 16.81176 15.38772
#
# Velocity S-wave (km/s) = 2.62985 2.88561 2.76070
# Velocity P-wave (km/s) = 4.80226 4.99664 4.90041
#
# Compressibility (1/GPa) = 0.03578656
#
# Stress axis : x y z
#
# Youngs Moduli (GPa) = 33.32166 33.32166 25.90756
#
# Poissons Ratio (x) = 0.20607 0.32686
# Poissons Ratio (y) = 0.20607 0.32686
# Poissons Ratio (z) = 0.42039 0.42039
#
# Static dielectric constant tensor:
#      x y z
#    x 1.726440 0.000000 0.000000 
#    y 0.000000 1.726440 0.000000 
#    z 0.000000 0.000000 1.736530 
# 
# From -- ./inp_files/4872.got.cif
#   From: 2010.05.17/outbox.cif.g08.bks.cpg/sg151_3_cif.got.tgz:4872.got - 2010.05.20 10:33:20.
