data_PCOD9575737
_publ_section_title
;
Structure prediction by ZEFSAII (Michael W. Deem and Ramdas Pophale) SiO2 
 PCOD9575737
Probable space group: P 31 2 1
;
_chemical_formula_sum "Si O2"
_cell_formula_units_Z 39
_cell_length_a 8.257144
_cell_length_b 8.257144
_cell_length_c 29.243775
_cell_angle_alpha 90.000000
_cell_angle_beta 90.000000
_cell_angle_gamma 120.000000
_cell_volume 1726.727408
_symmetry_space_group_name_H-M "P 31 2 1"
_symmetry_group_IT_number 152
_symmetry_cell_setting 'hexagonal'
loop_
_space_group_symop_operation_xyz
x,y,z
-y,x-y,1/3+z
-x+y,-x,2/3+z
x-y,-y,2/3-z
-x,-x+y,1/3-z
y,x,-z
loop_
_atom_site_type_symbol
_atom_site_label
_atom_site_fract_x
_atom_site_fract_y
_atom_site_fract_z
Si Si1 0.410034 0.914796 0.716746
Si Si2 0.255299 0.743952 0.898423
Si Si3 0.669398 0.064591 0.222945
Si Si4 0.000000 0.167330 0.166667
Si Si5 0.234694 0.161944 0.575821
Si Si6 0.727508 0.604255 0.145645
Si Si7 0.158877 0.404952 0.951184
O O1 0.270949 0.785852 0.756919
O O2 0.606719 0.931781 0.726746
O O3 0.312160 0.840045 0.668555
O O4 0.455077 0.126348 0.723408
O O5 0.428021 0.746586 0.871507
O O6 0.120433 0.536477 0.916765
O O7 0.194250 0.860059 0.866550
O O8 0.827535 0.024606 0.199699
O O9 0.493165 0.026700 0.191625
O O10 0.574776 0.924978 0.265558
O O11 0.334781 0.147480 0.529298
O O12 0.091855 0.226389 0.555520
O O13 0.176144 0.987458 0.608985
#
# Coordination Sequence:
#
# PCOD9575737 Si02
#       7
#     6   6   6   3   6   6   6
#     4  10  20  37  55  76 108 151 191 225 275 345
#     4   9  18  33  56  77 105 144 186 232 275 340
#     4  10  21  35  56  78 112 149 181 230 284 346
#     4  10  18  34  54  82 108 144 192 230 282 338
#     4  10  20  34  58  82 109 142 185 242 283 338
#     4   9  18  35  55  83 111 141 184 235 298 333
#     4  11  21  34  53  82 112 145 183 229 287 343
#
# _framework density 22.586075999999998
#
# number of rings (size 3 to 8) (size 9 to 14) (size 15 to 20)
#    0.000    2.154    0.000    5.077    0.000    2.462 
#    0.000    3.077    0.000    5.538    0.000    0.000 
#    0.000    0.000    0.000    0.000    0.000    0.000 
#
# Total GULP energy -217260.625037 kJ/mol
# GULP energy per Si atom -5570.785257 kJ/mol
# Density = 2.253467 g / cm^3
# Si number density = 22.586076 Si / 1000 Ang^3
#
#
#
# Elastic Constant Matrix: (Units=GPa)
#
#
# Indices 1 2 3 4 5 6 
#
# 1 64.0670 6.5548 10.0519 7.0556 -0.0004 0.0000
# 2 6.5548 64.0670 10.0519 -7.0556 0.0004 0.0000
# 3 10.0519 10.0519 66.0314 0.0000 0.0000 0.0000
# 4 7.0556 -7.0556 0.0000 18.0053 0.0000 0.0004
# 5 -0.0004 0.0004 0.0000 0.0000 18.0053 7.0556
# 6 0.0000 0.0000 0.0000 0.0004 7.0556 28.7561
#
#
#
# Elastic Compliance Matrix: (Units=1/GPa)
#
#
# Indices 1 2 3 4 5 6 
#
# 1 0.017019 -0.002218 -0.002253 -0.007538 0.000000 0.000000
# 2 -0.002218 0.017019 -0.002253 0.007538 0.000000 0.000000
# 3 -0.002253 -0.002253 0.015830 0.000000 0.000000 0.000000
# 4 -0.007538 0.007538 0.000000 0.061447 0.000000 -0.000001
# 5 0.000000 0.000000 0.000000 0.000000 0.061447 -0.015077
# 6 0.000000 0.000000 0.000000 -0.000001 -0.015077 0.038474
#
#
# Mechanical properties :
#
#
# Convention : Reuss Voigt Hill
#
# Bulk Modulus (GPa) = 27.45728 27.49808 27.47768
# Shear Modulus (GPa) = 21.11249 24.12047 22.61648
#
# Velocity S-wave (km/s) = 3.06070 3.27147 3.16784
# Velocity P-wave (km/s) = 4.96725 5.14502 5.05692
#
# Compressibility (1/GPa) = 0.03642021
#
# Stress axis : x y z
#
# Youngs Moduli (GPa) = 58.75686 58.75686 63.16998
#
# Poissons Ratio (x) = 0.13032 0.14233
# Poissons Ratio (y) = 0.13032 0.14233
# Poissons Ratio (z) = 0.13239 0.13239
#
# Static dielectric constant tensor:
#      x y z
#    x 1.955320 0.000000 0.000000 
#    y 0.000000 1.955320 0.000000 
#    z 0.000000 0.000000 1.872890 
# 
# From -- ./inp_files/3654.got.cif
#   From: 2010.05.17/outbox.cif.g08.bks.cpg/sg152_2_cif.got.tgz:3654.got - 2010.05.20 10:36:06.
