data_PCOD9575245
_publ_section_title
;
Structure prediction by ZEFSAII (Michael W. Deem and Ramdas Pophale) SiO2 
 PCOD9575245
Probable space group: R -3
;
_chemical_formula_sum "Si O2"
_cell_formula_units_Z 108
_cell_length_a 18.235929
_cell_length_b 18.235929
_cell_length_c 15.049259
_cell_angle_alpha 90.000000
_cell_angle_beta 90.000000
_cell_angle_gamma 120.000000
_cell_volume 4334.126007
_symmetry_space_group_name_H-M "R -3"
_symmetry_group_IT_number 148
_symmetry_cell_setting 'hexagonal'
loop_
_space_group_symop_operation_xyz
x,y,z
-y,x-y,z
-x+y,-x,z
-x,-y,-z
y,-x+y,-z
x-y,x,-z
2/3+x,1/3+y,1/3+z
2/3-y,1/3+x-y,1/3+z
2/3-x+y,1/3-x,1/3+z
2/3-x,1/3-y,1/3-z
2/3+y,1/3-x+y,1/3-z
2/3+x-y,1/3+x,1/3-z
1/3+x,2/3+y,2/3+z
1/3-y,2/3+x-y,2/3+z
1/3-x+y,2/3-x,2/3+z
1/3-x,2/3-y,2/3-z
1/3+y,2/3-x+y,2/3-z
1/3+x-y,2/3+x,2/3-z
loop_
_atom_site_type_symbol
_atom_site_label
_atom_site_fract_x
_atom_site_fract_y
_atom_site_fract_z
Si Si1 0.519117 0.125766 0.550689
Si Si2 0.560651 0.716208 0.231617
Si Si3 0.721484 0.871988 0.945823
Si Si4 0.134091 0.265005 0.156890
Si Si5 0.842922 0.500608 0.950058
Si Si6 0.633923 0.676742 0.388051
O O1 0.567047 0.128378 0.460043
O O2 0.464675 0.171082 0.527317
O O3 0.556917 0.167277 0.647042
O O4 0.477669 0.027008 0.582442
O O5 0.642443 0.791371 0.183032
O O6 0.495453 0.669790 0.154055
O O7 0.528104 0.759100 0.300725
O O8 0.591507 0.665077 0.291045
O O9 0.695254 0.943714 0.923922
O O10 0.742288 0.876486 0.049576
O O11 0.213711 0.265432 0.206941
O O12 0.934069 0.587614 0.956249
#
# Coordination Sequence:
#
# PCOD9575245 Si02
#       6
#    18  18  18  18  18  18
#     4  11  23  41  56  86 127 163 204 259 315 368
#     4  11  20  35  58  91 117 167 200 246 317 382
#     4  11  26  36  61  94 123 162 219 259 307 382
#     4  11  21  39  62  85 127 170 204 255 326 369
#     4  11  21  36  61  87 130 158 201 254 317 386
#     4  11  21  36  59  95 124 163 202 258 312 387
#
# _framework density 24.918520000000001
#
# number of rings (size 3 to 8) (size 9 to 14) (size 15 to 20)
#    0.000    1.000    5.000    4.000    2.333    1.333 
#    0.000    0.000    0.000    1.000    4.333    1.167 
#    0.000    0.000    0.000    0.000    0.000    0.000 
#
# Total GULP energy -200849.955926 kJ/mol
# GULP energy per Si atom -5579.165442 kJ/mol
# Density = 2.486180 g / cm^3
# Si number density = 24.918520 Si / 1000 Ang^3
#
#
#
# Elastic Constant Matrix: (Units=GPa)
#
#
# Indices 1 2 3 4 5 6 
#
# 1 60.3055 6.6437 12.3443 -0.5310 1.4681 0.0000
# 2 6.6437 60.3055 12.3443 0.5310 -1.4681 0.0000
# 3 12.3443 12.3443 202.3519 0.0000 0.0000 0.0000
# 4 -0.5310 0.5310 0.0000 21.5610 0.0000 -1.4681
# 5 1.4681 -1.4681 0.0000 0.0000 21.5610 -0.5310
# 6 0.0000 0.0000 0.0000 -1.4681 -0.5310 26.8309
#
#
#
# Elastic Compliance Matrix: (Units=1/GPa)
#
#
# Indices 1 2 3 4 5 6 
#
# 1 0.016997 -0.001717 -0.000932 0.000461 -0.001274 0.000000
# 2 -0.001717 0.016997 -0.000932 -0.000461 0.001274 0.000000
# 3 -0.000932 -0.000932 0.005056 0.000000 0.000000 0.000000
# 4 0.000461 -0.000461 0.000000 0.046576 0.000000 0.002548
# 5 -0.001274 0.001274 0.000000 0.000000 0.046576 0.000922
# 6 0.000000 0.000000 0.000000 0.002548 0.000922 0.037428
#
#
# Mechanical properties :
#
#
# Convention : Reuss Voigt Hill
#
# Bulk Modulus (GPa) = 31.35992 42.84752 37.10372
# Shear Modulus (GPa) = 26.67769 33.43261 30.05515
#
# Velocity S-wave (km/s) = 3.27555 3.66686 3.47672
# Velocity P-wave (km/s) = 5.18825 5.92961 5.57127
#
# Compressibility (1/GPa) = 0.03188783
#
# Stress axis : x y z
#
# Youngs Moduli (GPa) = 58.83303 58.83303 197.79972
#
# Poissons Ratio (x) = 0.10100 0.18438
# Poissons Ratio (y) = 0.10100 0.18438
# Poissons Ratio (z) = 0.05484 0.05484
#
# Static dielectric constant tensor:
#      x y z
#    x 1.980860 0.000000 0.000000 
#    y 0.000000 1.980860 0.000000 
#    z 0.000000 0.000000 2.042160 
# 
# From -- ./inp_files/2054.got.cif
#   From: 2010.05.17/outbox.cif.g08.bks.cpg/sg148_2_cif.got.tgz:2054.got - 2010.05.20 13:50:20.
