data_PCOD9575969
_publ_section_title
;
Structure prediction by ZEFSAII (Michael W. Deem and Ramdas Pophale) SiO2 
 PCOD9575969
Probable space group: P 31 2 1
;
_chemical_formula_sum "Si O2"
_cell_formula_units_Z 42
_cell_length_a 9.104439
_cell_length_b 9.104439
_cell_length_c 24.759190
_cell_angle_alpha 90.000000
_cell_angle_beta 90.000000
_cell_angle_gamma 120.000000
_cell_volume 1777.351992
_symmetry_space_group_name_H-M "P 31 2 1"
_symmetry_group_IT_number 152
_symmetry_cell_setting 'hexagonal'
loop_
_space_group_symop_operation_xyz
x,y,z
-y,x-y,1/3+z
-x+y,-x,2/3+z
x-y,-y,2/3-z
-x,-x+y,1/3-z
y,x,-z
loop_
_atom_site_type_symbol
_atom_site_label
_atom_site_fract_x
_atom_site_fract_y
_atom_site_fract_z
Si Si1 0.813077 0.996240 0.524622
Si Si2 0.184437 0.467032 0.258478
Si Si3 0.460054 0.221982 0.040799
Si Si4 0.688245 0.835984 0.711415
Si Si5 0.190559 0.566633 0.079894
Si Si6 0.767758 0.727539 0.061954
Si Si7 0.439185 0.451976 0.113446
O O1 0.709439 0.060672 0.487464
O O2 0.886477 0.107951 0.577914
O O3 0.664855 0.819934 0.545804
O O4 0.955683 0.955683 0.500000
O O5 0.371118 0.632222 0.258022
O O6 0.176299 0.379300 0.316327
O O7 0.015007 0.478517 0.250440
O O8 0.413003 0.361619 0.056040
O O9 0.288032 0.049434 0.053640
O O10 0.518708 0.218857 0.980436
O O11 0.522482 0.763110 0.748740
O O12 0.811217 0.035656 0.722137
O O13 0.317644 0.533590 0.115546
O O14 0.639779 0.587836 0.105904
O O15 0.698562 0.698562 0.000000
#
# Coordination Sequence:
#
# PCOD9575969 Si02
#       7
#     6   6   6   6   6   6   6
#     4  12  26  47  70 104 148 197 244 312 388 442
#     4  10  21  41  68  97 143 185 241 300 365 435
#     4  10  22  39  70 102 143 183 243 299 370 440
#     4  10  22  41  71 108 135 189 247 309 351 439
#     4  10  21  40  68 105 138 183 244 302 365 444
#     4  12  26  47  77 109 149 198 259 308 371 457
#     4  12  26  43  70 105 147 192 244 313 378 449
#
# _framework density 23.630662000000001
#
# number of rings (size 3 to 8) (size 9 to 14) (size 15 to 20)
#    0.000    1.143    2.857    3.000    4.000    2.286 
#    0.000    0.000    3.143    0.000    0.000    0.000 
#    0.000    0.000    0.000    0.000    0.000    0.000 
#
# Total GULP energy -233901.028556 kJ/mol
# GULP energy per Si atom -5569.072108 kJ/mol
# Density = 2.357688 g / cm^3
# Si number density = 23.630662 Si / 1000 Ang^3
#
#
#
# Elastic Constant Matrix: (Units=GPa)
#
#
# Indices 1 2 3 4 5 6 
#
# 1 70.0299 11.6113 -7.1410 -3.2700 0.0000 0.0000
# 2 11.6113 70.0299 -7.1410 3.2700 0.0000 0.0000
# 3 -7.1410 -7.1410 39.3234 0.0000 0.0000 0.0000
# 4 -3.2700 3.2700 0.0000 16.2653 0.0000 0.0000
# 5 0.0000 0.0000 0.0000 0.0000 16.2653 -3.2700
# 6 0.0000 0.0000 0.0000 0.0000 -3.2700 29.2093
#
#
#
# Elastic Compliance Matrix: (Units=1/GPa)
#
#
# Indices 1 2 3 4 5 6 
#
# 1 0.015081 -0.002431 0.002297 0.003521 0.000000 0.000000
# 2 -0.002431 0.015081 0.002297 -0.003521 0.000000 0.000000
# 3 0.002297 0.002297 0.026265 0.000000 0.000000 0.000000
# 4 0.003521 -0.003521 0.000000 0.062896 0.000000 0.000000
# 5 0.000000 0.000000 0.000000 0.000000 0.062896 0.007041
# 6 0.000000 0.000000 0.000000 0.000000 0.007041 0.035024
#
#
# Mechanical properties :
#
#
# Convention : Reuss Voigt Hill
#
# Bulk Modulus (GPa) = 16.45959 19.33800 17.89879
# Shear Modulus (GPa) = 21.44382 24.48488 22.96435
#
# Velocity S-wave (km/s) = 3.01567 3.22242 3.12076
# Velocity P-wave (km/s) = 4.37106 4.69537 4.53612
#
# Compressibility (1/GPa) = 0.06075487
#
# Stress axis : x y z
#
# Youngs Moduli (GPa) = 66.30732 66.30732 38.07420
#
# Poissons Ratio (x) = 0.16117 -0.08747
# Poissons Ratio (y) = 0.16117 -0.08747
# Poissons Ratio (z) = -0.15233 -0.15233
#
# Static dielectric constant tensor:
#      x y z
#    x 1.929760 0.000000 0.000000 
#    y 0.000000 1.929760 0.000000 
#    z 0.000000 0.000000 1.930190 
# 
# From -- ./inp_files/3748.got.cif
#   From: 2010.05.17/outbox.cif.g08.bks.cpg/sg152_2_cif.got.tgz:3748.got - 2010.05.20 10:36:06.
