data_PCOD9575449
_publ_section_title
;
Structure prediction by ZEFSAII (Michael W. Deem and Ramdas Pophale) SiO2 
 PCOD9575449
Probable space group: P 3 2 1
;
_chemical_formula_sum "Si O2"
_cell_formula_units_Z 24
_cell_length_a 9.871950
_cell_length_b 9.871950
_cell_length_c 13.642436
_cell_angle_alpha 90.000000
_cell_angle_beta 90.000000
_cell_angle_gamma 120.000000
_cell_volume 1151.405901
_symmetry_space_group_name_H-M "P 3 2 1"
_symmetry_group_IT_number 150
_symmetry_cell_setting 'hexagonal'
loop_
_space_group_symop_operation_xyz
x,y,z
-y,x-y,z
-x+y,-x,z
x-y,-y,-z
-x,-x+y,-z
y,x,-z
loop_
_atom_site_type_symbol
_atom_site_label
_atom_site_fract_x
_atom_site_fract_y
_atom_site_fract_z
Si Si1 0.849782 0.351799 0.062930
Si Si2 0.885863 0.623435 0.650182
Si Si3 0.420330 0.015789 0.276888
Si Si4 0.627134 0.791649 0.552113
O O1 0.803613 0.486751 0.043375
O O2 0.891627 0.352262 0.176546
O O3 0.000000 0.387055 0.000000
O O4 0.762958 0.657791 0.704995
O O5 0.917833 0.508897 0.715759
O O6 0.816946 0.547711 0.543313
O O7 0.052087 0.768492 0.617327
O O8 0.473603 0.128122 0.371934
O O9 0.747484 0.747484 0.500000
#
# Coordination Sequence:
#
# PCOD9575449 Si02
#       4
#     6   6   6   6
#     4  10  25  46  76 105 135 183 231 307 369 431
#     4  10  22  36  63  90 132 179 221 288 341 419
#     4  11  22  42  63 100 130 180 239 285 358 431
#     4   9  21  39  54  90 131 179 228 271 348 410
#
# _framework density 20.844083999999999
#
# number of rings (size 3 to 8) (size 9 to 14) (size 15 to 20)
#    0.500    1.500    0.000    2.000   14.000    0.000 
#   40.500    0.000    0.000    0.500    0.000    0.000 
#    0.000    0.000    0.000    0.000    0.000    0.000 
#
# Total GULP energy -133836.214800 kJ/mol
# GULP energy per Si atom -5576.508950 kJ/mol
# Density = 2.079664 g / cm^3
# Si number density = 20.844084 Si / 1000 Ang^3
#
#
#
# Elastic Constant Matrix: (Units=GPa)
#
#
# Indices 1 2 3 4 5 6 
#
# 1 58.5697 -3.5742 2.6295 -7.9790 0.0000 0.0000
# 2 -3.5742 58.5697 2.6295 7.9790 0.0000 0.0000
# 3 2.6295 2.6295 42.1134 0.0000 0.0000 0.0000
# 4 -7.9790 7.9790 0.0000 33.9063 0.0000 0.0000
# 5 0.0000 0.0000 0.0000 0.0000 33.9063 -7.9790
# 6 0.0000 0.0000 0.0000 0.0000 -7.9790 31.0720
#
#
#
# Elastic Compliance Matrix: (Units=1/GPa)
#
#
# Indices 1 2 3 4 5 6 
#
# 1 0.017710 0.000583 -0.001142 0.004030 0.000000 0.000000
# 2 0.000583 0.017710 -0.001142 -0.004030 0.000000 0.000000
# 3 -0.001142 -0.001142 0.023888 0.000000 0.000000 0.000000
# 4 0.004030 -0.004030 0.000000 0.031390 0.000000 0.000000
# 5 0.000000 0.000000 0.000000 0.000000 0.031390 0.008061
# 6 0.000000 0.000000 0.000000 0.000000 0.008061 0.034253
#
#
# Mechanical properties :
#
#
# Convention : Reuss Voigt Hill
#
# Bulk Modulus (GPa) = 17.88767 18.06916 17.97842
# Shear Modulus (GPa) = 28.03039 30.28146 29.15592
#
# Velocity S-wave (km/s) = 3.67108 3.81564 3.74406
# Velocity P-wave (km/s) = 5.15455 5.30092 5.22825
#
# Compressibility (1/GPa) = 0.05590444
#
# Stress axis : x y z
#
# Youngs Moduli (GPa) = 56.46665 56.46665 41.86194
#
# Poissons Ratio (x) = -0.03292 0.04781
# Poissons Ratio (y) = -0.03292 0.04781
# Poissons Ratio (z) = 0.06449 0.06449
#
# Static dielectric constant tensor:
#      x y z
#    x 1.803820 0.000000 0.000000 
#    y 0.000000 1.803820 0.000000 
#    z 0.000000 0.000000 1.719430 
# 
# From -- ./inp_files/877.got.cif
#   From: 2010.05.17/outbox.cif.g08.bks.cpg/sg150_cif.got.tgz:877.got - 2010.05.20 13:53:18.
