data_PCOD9575379
_publ_section_title
;
Structure prediction by ZEFSAII (Michael W. Deem and Ramdas Pophale) SiO2 
 PCOD9575379
Probable space group: P 3 1 2
;
_chemical_formula_sum "Si O2"
_cell_formula_units_Z 42
_cell_length_a 8.756920
_cell_length_b 8.756920
_cell_length_c 29.315102
_cell_angle_alpha 90.000000
_cell_angle_beta 90.000000
_cell_angle_gamma 120.000000
_cell_volume 1946.815546
_symmetry_space_group_name_H-M "P 3 1 2"
_symmetry_group_IT_number 149
_symmetry_cell_setting 'hexagonal'
loop_
_space_group_symop_operation_xyz
x,y,z
-y,x-y,z
-x+y,-x,z
-y,-x,-z
-x+y,y,-z
x,x-y,-z
loop_
_atom_site_type_symbol
_atom_site_label
_atom_site_fract_x
_atom_site_fract_y
_atom_site_fract_z
Si Si1 0.312019 0.315383 0.372852
Si Si2 0.634405 0.638027 0.406821
Si Si3 0.306964 0.987168 0.731821
Si Si4 0.648906 0.010253 0.768462
Si Si5 0.899705 0.449853 0.500000
Si Si6 0.987110 0.345034 0.126770
Si Si7 0.299564 0.974874 0.907619
Si Si8 0.215883 0.431766 0.000000
O O1 0.487085 0.506241 0.371786
O O2 0.161731 0.325936 0.401549
O O3 0.249299 0.271824 0.320726
O O4 0.359665 0.175815 0.395277
O O5 0.541221 0.546257 0.454821
O O6 0.164173 0.824939 0.761003
O O7 0.489848 0.990327 0.737723
O O8 0.338329 0.168850 0.751703
O O9 0.625201 0.046440 0.821068
O O10 0.760954 0.521908 0.500000
O O11 0.030166 0.520290 0.098944
O O12 0.155943 0.318704 0.127293
O O13 0.827500 0.172252 0.103548
O O14 0.206299 0.888491 0.956084
O O15 0.426960 0.573041 0.000000
#
# Coordination Sequence:
#
# PCOD9575379 Si02
#       8
#     6   6   6   6   3   6   6   3
#     4  12  24  44  70 103 141 190 240 291 357 422
#     4  12  25  45  73 105 142 184 236 296 355 433
#     4  12  25  43  67 100 143 191 241 295 350 422
#     4  12  25  43  67 100 143 191 241 295 352 417
#     4  10  20  48  72 100 132 172 224 282 362 418
#     4  12  24  44  70 103 141 190 240 293 356 423
#     4  12  25  45  73 105 142 184 236 295 356 431
#     4  10  20  48  72 100 132 172 224 280 358 414
#
# _framework density 21.573692999999999
#
# number of rings (size 3 to 8) (size 9 to 14) (size 15 to 20)
#    0.286    0.000    2.857    7.714    0.000    1.143 
#    0.000    0.000    0.000    0.000    0.000    0.000 
#    0.000    0.000    0.000    0.000    0.000    0.000 
#
# Total GULP energy -234632.175463 kJ/mol
# GULP energy per Si atom -5586.480368 kJ/mol
# Density = 2.152459 g / cm^3
# Si number density = 21.573693 Si / 1000 Ang^3
#
#
#
# Elastic Constant Matrix: (Units=GPa)
#
#
# Indices 1 2 3 4 5 6 
#
# 1 97.3427 15.4643 16.1989 0.0000 -7.6133 0.0000
# 2 15.4643 97.3427 16.1989 0.0000 7.6133 0.0000
# 3 16.1989 16.1989 163.6867 0.0000 0.0000 0.0000
# 4 0.0000 0.0000 0.0000 34.8345 0.0000 7.6133
# 5 -7.6133 7.6133 0.0000 0.0000 34.8345 0.0000
# 6 0.0000 0.0000 0.0000 7.6133 0.0000 40.9392
#
#
#
# Elastic Compliance Matrix: (Units=1/GPa)
#
#
# Indices 1 2 3 4 5 6 
#
# 1 0.010927 -0.001803 -0.000903 0.000000 0.002782 0.000000
# 2 -0.001803 0.010927 -0.000903 0.000000 -0.002782 0.000000
# 3 -0.000903 -0.000903 0.006288 0.000000 0.000000 0.000000
# 4 0.000000 0.000000 0.000000 0.029923 0.000000 -0.005565
# 5 0.002782 -0.002782 0.000000 0.000000 0.029923 0.000000
# 6 0.000000 0.000000 0.000000 -0.005565 0.000000 0.025461
#
#
# Mechanical properties :
#
#
# Convention : Reuss Voigt Hill
#
# Bulk Modulus (GPa) = 47.79151 50.45517 49.12334
# Shear Modulus (GPa) = 39.17153 42.82232 40.99692
#
# Velocity S-wave (km/s) = 4.26574 4.46009 4.36400
# Velocity P-wave (km/s) = 6.81636 7.06833 6.94349
#
# Compressibility (1/GPa) = 0.02092422
#
# Stress axis : x y z
#
# Youngs Moduli (GPa) = 91.51362 91.51362 159.03443
#
# Poissons Ratio (x) = 0.16503 0.14360
# Poissons Ratio (y) = 0.16503 0.14360
# Poissons Ratio (z) = 0.08263 0.08263
#
# Static dielectric constant tensor:
#      x y z
#    x 1.751390 0.000000 0.000000 
#    y 0.000000 1.751390 0.000000 
#    z 0.000000 0.000000 1.838070 
# 
# From -- ./inp_files/1176.got.cif
#   From: 2010.05.17/outbox.cif.g08.bks.cpg/sg149_cif.got.tgz:1176.got - 2010.05.20 13:52:34.
