data_PCOD9575862
_publ_section_title
;
Structure prediction by ZEFSAII (Michael W. Deem and Ramdas Pophale) SiO2 
 PCOD9575862
Probable space group: P 31 2 1
;
_chemical_formula_sum "Si O2"
_cell_formula_units_Z 36
_cell_length_a 9.055020
_cell_length_b 9.055020
_cell_length_c 24.780898
_cell_angle_alpha 90.000000
_cell_angle_beta 90.000000
_cell_angle_gamma 120.000000
_cell_volume 1759.650834
_symmetry_space_group_name_H-M "P 31 2 1"
_symmetry_group_IT_number 152
_symmetry_cell_setting 'hexagonal'
loop_
_space_group_symop_operation_xyz
x,y,z
-y,x-y,1/3+z
-x+y,-x,2/3+z
x-y,-y,2/3-z
-x,-x+y,1/3-z
y,x,-z
loop_
_atom_site_type_symbol
_atom_site_label
_atom_site_fract_x
_atom_site_fract_y
_atom_site_fract_z
Si Si1 0.657565 0.297420 0.060238
Si Si2 0.054331 0.534466 0.532723
Si Si3 0.874149 0.825452 0.118580
Si Si4 0.989318 0.584659 0.232522
Si Si5 0.343045 0.601559 0.055748
Si Si6 0.317148 0.354599 0.750656
O O1 0.563747 0.325064 0.111224
O O2 0.852505 0.440164 0.071152
O O3 0.662350 0.125071 0.054482
O O4 0.564904 0.315318 0.007544
O O5 0.907870 0.507835 0.574811
O O6 0.027772 0.603523 0.476647
O O7 0.050176 0.351030 0.530092
O O8 0.983549 0.755321 0.087629
O O9 0.000000 0.933000 0.166667
O O10 0.809146 0.938949 0.088951
O O11 0.000000 0.578624 0.166667
O O12 0.816441 0.422642 0.251346
O O13 0.501294 0.792034 0.057332
#
# Coordination Sequence:
#
# PCOD9575862 Si02
#       6
#     6   6   6   6   6   6
#     4  11  22  37  57  87 119 150 193 249 302 350
#     4  10  21  38  61  83 113 155 199 243 295 360
#     4   9  19  35  56  83 111 146 193 241 285 342
#     4  10  20  38  60  82 114 156 195 239 296 362
#     4  11  22  38  58  85 117 153 194 247 302 352
#     4  11  21  36  59  86 114 152 198 241 290 356
#
# _framework density 20.458604999999999
#
# number of rings (size 3 to 8) (size 9 to 14) (size 15 to 20)
#    0.000    1.667    0.000    7.500    0.000    2.000 
#    0.000    2.500    0.000    0.000    0.000    2.333 
#    0.000    0.000    0.000    0.000    0.000    0.000 
#
# Total GULP energy -200906.858542 kJ/mol
# GULP energy per Si atom -5580.746071 kJ/mol
# Density = 2.041204 g / cm^3
# Si number density = 20.458605 Si / 1000 Ang^3
#
#
#
# Elastic Constant Matrix: (Units=GPa)
#
#
# Indices 1 2 3 4 5 6 
#
# 1 64.6362 9.0820 -10.2172 1.5335 0.0000 0.0000
# 2 9.0820 64.6362 -10.2172 -1.5335 0.0000 0.0000
# 3 -10.2172 -10.2172 45.1205 0.0000 0.0000 0.0000
# 4 1.5335 -1.5335 0.0000 19.4188 0.0000 0.0000
# 5 0.0000 0.0000 0.0000 0.0000 19.4188 1.5335
# 6 0.0000 0.0000 0.0000 0.0000 1.5335 27.7771
#
#
#
# Elastic Compliance Matrix: (Units=1/GPa)
#
#
# Indices 1 2 3 4 5 6 
#
# 1 0.016276 -0.001803 0.003277 -0.001428 0.000000 0.000000
# 2 -0.001803 0.016276 0.003277 0.001428 0.000000 0.000000
# 3 0.003277 0.003277 0.023647 0.000000 0.000000 0.000000
# 4 -0.001428 0.001428 0.000000 0.051722 0.000000 0.000000
# 5 0.000000 0.000000 0.000000 0.000000 0.051722 -0.002855
# 6 0.000000 0.000000 0.000000 0.000000 -0.002855 0.036159
#
#
# Mechanical properties :
#
#
# Convention : Reuss Voigt Hill
#
# Bulk Modulus (GPa) = 15.21970 16.85424 16.03697
# Shear Modulus (GPa) = 24.01536 25.70593 24.86064
#
# Velocity S-wave (km/s) = 3.42987 3.54854 3.48971
# Velocity P-wave (km/s) = 4.81048 5.00456 4.90848
#
# Compressibility (1/GPa) = 0.06570432
#
# Stress axis : x y z
#
# Youngs Moduli (GPa) = 61.43839 61.43839 42.28832
#
# Poissons Ratio (x) = 0.11076 -0.13860
# Poissons Ratio (y) = 0.11076 -0.13860
# Poissons Ratio (z) = -0.20136 -0.20136
#
# Static dielectric constant tensor:
#      x y z
#    x 1.725810 0.000000 0.000000 
#    y 0.000000 1.725810 0.000000 
#    z 0.000000 0.000000 1.766890 
# 
# From -- ./inp_files/3351.got.cif
#   From: 2010.05.17/outbox.cif.g08.bks.cpg/sg152_2_cif.got.tgz:3351.got - 2010.05.20 10:36:06.
