data_PCOD9575614
_publ_section_title
;
Structure prediction by ZEFSAII (Michael W. Deem and Ramdas Pophale) SiO2 
 PCOD9575614
Probable space group: P 31 1 2
;
_chemical_formula_sum "Si O2"
_cell_formula_units_Z 24
_cell_length_a 16.675708
_cell_length_b 16.675708
_cell_length_c 4.913870
_cell_angle_alpha 90.000000
_cell_angle_beta 90.000000
_cell_angle_gamma 120.000000
_cell_volume 1183.376275
_symmetry_space_group_name_H-M "P 31 1 2"
_symmetry_group_IT_number 151
_symmetry_cell_setting 'hexagonal'
loop_
_space_group_symop_operation_xyz
x,y,z
-y,x-y,1/3+z
-x+y,-x,2/3+z
-y,-x,2/3-z
-x+y,y,1/3-z
x,x-y,-z
loop_
_atom_site_type_symbol
_atom_site_label
_atom_site_fract_x
_atom_site_fract_y
_atom_site_fract_z
Si Si1 0.288829 0.402462 0.609148
Si Si2 0.772808 0.227193 0.833334
Si Si3 0.494450 0.988900 0.166667
Si Si4 0.559927 0.440074 0.333334
Si Si5 0.837624 0.162377 0.333334
Si Si6 0.224280 0.951560 0.894897
O O1 0.222938 0.445875 0.666667
O O2 0.393015 0.466277 0.706528
O O3 0.277395 0.361517 0.306471
O O4 0.244725 0.312474 0.801690
O O5 0.666385 0.182411 0.749156
O O6 0.831465 0.222120 0.580654
O O7 0.553942 0.055483 0.414010
O O8 0.940052 0.203462 0.212141
O O9 0.116206 0.883795 0.833334
#
# Coordination Sequence:
#
# PCOD9575614 Si02
#       6
#     6   3   3   3   3   6
#     4  10  21  38  61  87 118 153 195 246 301 353
#     4  12  26  41  60  90 126 164 208 255 300 352
#     4  12  22  39  66  90 116 162 206 251 294 374
#     4  12  26  41  60  90 126 164 208 255 300 352
#     4  12  22  39  66  90 116 162 206 251 294 374
#     4  10  21  38  61  87 118 153 195 246 301 353
#
# _framework density 20.280954999999999
#
# number of rings (size 3 to 8) (size 9 to 14) (size 15 to 20)
#    0.000    1.000    0.000    9.000    0.000    2.000 
#    0.000    0.000   22.000    0.000    0.000    0.000 
#    0.000    0.000    0.000    0.000    0.000    0.000 
#
# Total GULP energy -134231.228477 kJ/mol
# GULP energy per Si atom -5592.967853 kJ/mol
# Density = 2.023479 g / cm^3
# Si number density = 20.280955 Si / 1000 Ang^3
#
#
#
# Elastic Constant Matrix: (Units=GPa)
#
#
# Indices 1 2 3 4 5 6 
#
# 1 139.4858 81.2676 28.6568 -0.0006 -0.3353 0.0000
# 2 81.2676 139.4858 28.6568 0.0006 0.3353 0.0000
# 3 28.6568 28.6568 95.8055 0.0000 0.0000 0.0000
# 4 -0.0006 0.0006 0.0000 29.5776 0.0000 0.3353
# 5 -0.3353 0.3353 0.0000 0.0000 29.5776 -0.0006
# 6 0.0000 0.0000 0.0000 0.3353 -0.0006 29.1091
#
#
#
# Elastic Compliance Matrix: (Units=1/GPa)
#
#
# Indices 1 2 3 4 5 6 
#
# 1 0.011045 -0.006134 -0.001469 0.000000 0.000195 0.000000
# 2 -0.006134 0.011045 -0.001469 0.000000 -0.000195 0.000000
# 3 -0.001469 -0.001469 0.011317 0.000000 0.000000 0.000000
# 4 0.000000 0.000000 0.000000 0.033814 0.000000 -0.000390
# 5 0.000195 -0.000195 0.000000 0.000000 0.033814 0.000001
# 6 0.000000 0.000000 0.000000 -0.000390 0.000001 0.034358
#
#
# Mechanical properties :
#
#
# Convention : Reuss Voigt Hill
#
# Bulk Modulus (GPa) = 65.51740 72.43772 68.97756
# Shear Modulus (GPa) = 31.52105 33.39925 32.46015
#
# Velocity S-wave (km/s) = 3.94664 4.06252 4.00499
# Velocity P-wave (km/s) = 7.28992 7.60263 7.44792
#
# Compressibility (1/GPa) = 0.01526312
#
# Stress axis : x y z
#
# Youngs Moduli (GPa) = 90.53735 90.53735 88.36546
#
# Poissons Ratio (x) = 0.55534 0.12981
# Poissons Ratio (y) = 0.55534 0.12981
# Poissons Ratio (z) = 0.13300 0.13300
#
# Static dielectric constant tensor:
#      x y z
#    x 1.724980 0.000000 0.000000 
#    y 0.000000 1.724980 0.000000 
#    z 0.000000 0.000000 1.714400 
# 
# From -- ./inp_files/306.got.cif
#   From: 2010.05.17/outbox.cif.g08.bks.cpg/sg151_1_cif.got.tgz:306.got - 2010.05.20 10:33:20.
