data_PCOD9575851
_publ_section_title
;
Structure prediction by ZEFSAII (Michael W. Deem and Ramdas Pophale) SiO2 
 PCOD9575851
Probable space group: P 31 2 1
;
_chemical_formula_sum "Si O2"
_cell_formula_units_Z 36
_cell_length_a 9.500720
_cell_length_b 9.500720
_cell_length_c 23.987317
_cell_angle_alpha 90.000000
_cell_angle_beta 90.000000
_cell_angle_gamma 120.000000
_cell_volume 1875.103931
_symmetry_space_group_name_H-M "P 31 2 1"
_symmetry_group_IT_number 152
_symmetry_cell_setting 'hexagonal'
loop_
_space_group_symop_operation_xyz
x,y,z
-y,x-y,1/3+z
-x+y,-x,2/3+z
x-y,-y,2/3-z
-x,-x+y,1/3-z
y,x,-z
loop_
_atom_site_type_symbol
_atom_site_label
_atom_site_fract_x
_atom_site_fract_y
_atom_site_fract_z
Si Si1 0.790126 0.122748 0.428561
Si Si2 0.356519 0.877049 0.281386
Si Si3 0.024761 0.213595 0.106359
Si Si4 0.106645 0.254335 0.779095
Si Si5 0.592597 0.954075 0.012080
Si Si6 0.668544 0.739942 0.680115
O O1 0.649700 0.161040 0.411712
O O2 0.850892 0.173848 0.491753
O O3 0.938943 0.185234 0.384660
O O4 0.714993 0.929412 0.430196
O O5 0.200434 0.719617 0.304878
O O6 0.442433 0.000000 0.333334
O O7 0.282849 0.963110 0.242290
O O8 0.000000 0.270728 0.166667
O O9 0.925226 0.014391 0.110858
O O10 0.961723 0.260672 0.052335
O O11 0.250000 0.344128 0.733827
O O12 0.439573 0.969110 0.029433
O O13 0.743500 0.110438 0.982584
#
# Coordination Sequence:
#
# PCOD9575851 Si02
#       6
#     6   6   6   6   6   6
#     4  11  21  34  62  87 114 148 198 244 291 358
#     4  10  20  37  57  83 113 152 194 236 290 355
#     4   9  19  38  57  84 113 151 194 241 294 349
#     4   9  21  38  59  82 116 154 193 243 293 356
#     4  10  22  39  58  83 119 157 194 241 300 352
#     4  11  21  36  60  84 117 155 194 242 297 357
#
# _framework density 19.198937000000001
#
# number of rings (size 3 to 8) (size 9 to 14) (size 15 to 20)
#    0.000    2.000    0.000    3.500    2.333    4.000 
#    3.000    1.667    0.000    0.000    0.000    0.000 
#    0.000    0.000    0.000    0.000    0.000    0.000 
#
# Total GULP energy -200569.761780 kJ/mol
# GULP energy per Si atom -5571.382272 kJ/mol
# Density = 1.915524 g / cm^3
# Si number density = 19.198937 Si / 1000 Ang^3
#
#
#
# Elastic Constant Matrix: (Units=GPa)
#
#
# Indices 1 2 3 4 5 6 
#
# 1 41.7925 -4.0050 13.5656 0.0105 0.0002 0.0000
# 2 -4.0050 41.7925 13.5656 -0.0105 -0.0002 0.0000
# 3 13.5656 13.5656 64.1307 0.0000 0.0000 0.0000
# 4 0.0105 -0.0105 0.0000 18.1719 0.0000 -0.0002
# 5 0.0002 -0.0002 0.0000 0.0000 18.1719 0.0105
# 6 0.0000 0.0000 0.0000 -0.0002 0.0105 22.8987
#
#
#
# Elastic Compliance Matrix: (Units=1/GPa)
#
#
# Indices 1 2 3 4 5 6 
#
# 1 0.026519 0.004684 -0.006600 -0.000013 0.000000 0.000000
# 2 0.004684 0.026519 -0.006600 0.000013 0.000000 0.000000
# 3 -0.006600 -0.006600 0.018386 0.000000 0.000000 0.000000
# 4 -0.000013 0.000013 0.000000 0.055030 0.000000 0.000001
# 5 0.000000 0.000000 0.000000 0.000000 0.055030 -0.000025
# 6 0.000000 0.000000 0.000000 0.000001 -0.000025 0.043671
#
#
# Mechanical properties :
#
#
# Convention : Reuss Voigt Hill
#
# Bulk Modulus (GPa) = 18.38584 21.55204 19.96894
# Shear Modulus (GPa) = 19.20725 20.15444 19.68084
#
# Velocity S-wave (km/s) = 3.16639 3.24353 3.20519
# Velocity P-wave (km/s) = 4.79222 5.02765 4.91135
#
# Compressibility (1/GPa) = 0.05438967
#
# Stress axis : x y z
#
# Youngs Moduli (GPa) = 37.70874 37.70874 54.39068
#
# Poissons Ratio (x) = -0.17662 0.35900
# Poissons Ratio (y) = -0.17662 0.35900
# Poissons Ratio (z) = 0.24889 0.24889
#
# Static dielectric constant tensor:
#      x y z
#    x 1.676490 0.000000 0.000000 
#    y 0.000000 1.676490 0.000000 
#    z 0.000000 0.000000 1.685610 
# 
# From -- ./inp_files/3342.got.cif
#   From: 2010.05.17/outbox.cif.g08.bks.cpg/sg152_2_cif.got.tgz:3342.got - 2010.05.20 10:36:06.
