data_PCOD9575094
_publ_section_title
;
Structure prediction by ZEFSAII (Michael W. Deem and Ramdas Pophale) SiO2 
 PCOD9575094
Probable space group: R -3
;
_chemical_formula_sum "Si O2"
_cell_formula_units_Z 72
_cell_length_a 14.936003
_cell_length_b 14.936003
_cell_length_c 16.146921
_cell_angle_alpha 90.000000
_cell_angle_beta 90.000000
_cell_angle_gamma 120.000000
_cell_volume 3119.529784
_symmetry_space_group_name_H-M "R -3"
_symmetry_group_IT_number 148
_symmetry_cell_setting 'hexagonal'
loop_
_space_group_symop_operation_xyz
x,y,z
-y,x-y,z
-x+y,-x,z
-x,-y,-z
y,-x+y,-z
x-y,x,-z
2/3+x,1/3+y,1/3+z
2/3-y,1/3+x-y,1/3+z
2/3-x+y,1/3-x,1/3+z
2/3-x,1/3-y,1/3-z
2/3+y,1/3-x+y,1/3-z
2/3+x-y,1/3+x,1/3-z
1/3+x,2/3+y,2/3+z
1/3-y,2/3+x-y,2/3+z
1/3-x+y,2/3-x,2/3+z
1/3-x,2/3-y,2/3-z
1/3+y,2/3-x+y,2/3-z
1/3+x-y,2/3+x,2/3-z
loop_
_atom_site_type_symbol
_atom_site_label
_atom_site_fract_x
_atom_site_fract_y
_atom_site_fract_z
Si Si1 0.207276 0.631945 0.768405
Si Si2 0.616030 0.089496 0.908224
Si Si3 0.158549 0.796397 0.063337
Si Si4 0.376393 0.520671 0.953081
O O1 0.254546 0.557630 0.745215
O O2 0.202620 0.634175 0.868419
O O3 0.091440 0.592707 0.738108
O O4 0.727306 0.104994 0.930477
O O5 0.606249 0.094307 0.809526
O O6 0.525464 0.974751 0.927143
O O7 0.597705 0.164021 0.969960
O O8 0.152878 0.729595 0.984405
#
# Coordination Sequence:
#
# PCOD9575094 Si02
#       4
#    18  18  18  18
#     4   9  21  41  63  88 128 168 213 260 309 386
#     4  10  21  36  59  89 124 158 204 266 317 378
#     4  11  20  39  61  90 125 164 207 263 321 371
#     4  10  20  38  61  88 125 163 209 260 321 376
#
# _framework density 23.080400999999998
#
# number of rings (size 3 to 8) (size 9 to 14) (size 15 to 20)
#    0.500    1.500    2.500    1.500    0.000    0.000 
#    6.000    3.750    0.000    1.500    0.000    0.000 
#    0.000    0.000    0.000    0.000    0.000    0.000 
#
# Total GULP energy -133840.409376 kJ/mol
# GULP energy per Si atom -5576.683724 kJ/mol
# Density = 2.302787 g / cm^3
# Si number density = 23.080401 Si / 1000 Ang^3
#
#
#
# Elastic Constant Matrix: (Units=GPa)
#
#
# Indices 1 2 3 4 5 6 
#
# 1 69.2980 13.0552 31.3225 -4.1278 6.1777 0.0000
# 2 13.0552 69.2980 31.3225 4.1278 -6.1777 0.0000
# 3 31.3225 31.3225 92.8977 0.0000 0.0000 0.0000
# 4 -4.1278 4.1278 0.0000 25.2069 0.0000 -6.1777
# 5 6.1777 -6.1777 0.0000 0.0000 25.2069 -4.1278
# 6 0.0000 0.0000 0.0000 -6.1777 -4.1278 28.1214
#
#
#
# Elastic Compliance Matrix: (Units=1/GPa)
#
#
# Indices 1 2 3 4 5 6 
#
# 1 0.017807 -0.001475 -0.005507 0.003158 -0.004726 0.000000
# 2 -0.001475 0.017807 -0.005507 -0.003158 0.004726 0.000000
# 3 -0.005507 -0.005507 0.014478 0.000000 0.000000 0.000000
# 4 0.003158 -0.003158 0.000000 0.043022 0.000000 0.009451
# 5 -0.004726 0.004726 0.000000 0.000000 0.043022 0.006315
# 6 0.000000 0.000000 0.000000 0.009451 0.006315 0.038563
#
#
# Mechanical properties :
#
#
# Convention : Reuss Voigt Hill
#
# Bulk Modulus (GPa) = 39.81717 42.54380 41.18049
# Shear Modulus (GPa) = 24.03309 26.09326 25.06318
#
# Velocity S-wave (km/s) = 3.23038 3.36599 3.29889
# Velocity P-wave (km/s) = 5.58595 5.79478 5.69132
#
# Compressibility (1/GPa) = 0.02511480
#
# Stress axis : x y z
#
# Youngs Moduli (GPa) = 56.15885 56.15885 69.07104
#
# Poissons Ratio (x) = 0.08284 0.38034
# Poissons Ratio (y) = 0.08284 0.38034
# Poissons Ratio (z) = 0.30924 0.30924
#
# Static dielectric constant tensor:
#      x y z
#    x 1.850700 0.000000 0.000000 
#    y 0.000000 1.850700 0.000000 
#    z 0.000000 0.000000 1.976570 
# 
# From -- ./inp_files/2542.got.cif
#   From: 2010.05.17/outbox.cif.g08.bks.cpg/sg148_2_cif.got.tgz:2542.got - 2010.05.20 13:50:20.
