data_PCOD9575036
_publ_section_title
;
Structure prediction by ZEFSAII (Michael W. Deem and Ramdas Pophale) SiO2 
 PCOD9575036
Probable space group: R -3
;
_chemical_formula_sum "Si O2"
_cell_formula_units_Z 144
_cell_length_a 21.374116
_cell_length_b 21.374116
_cell_length_c 19.705481
_cell_angle_alpha 90.000000
_cell_angle_beta 90.000000
_cell_angle_gamma 120.000000
_cell_volume 7796.397903
_symmetry_space_group_name_H-M "R -3"
_symmetry_group_IT_number 148
_symmetry_cell_setting 'hexagonal'
loop_
_space_group_symop_operation_xyz
x,y,z
-y,x-y,z
-x+y,-x,z
-x,-y,-z
y,-x+y,-z
x-y,x,-z
2/3+x,1/3+y,1/3+z
2/3-y,1/3+x-y,1/3+z
2/3-x+y,1/3-x,1/3+z
2/3-x,1/3-y,1/3-z
2/3+y,1/3-x+y,1/3-z
2/3+x-y,1/3+x,1/3-z
1/3+x,2/3+y,2/3+z
1/3-y,2/3+x-y,2/3+z
1/3-x+y,2/3-x,2/3+z
1/3-x,2/3-y,2/3-z
1/3+y,2/3-x+y,2/3-z
1/3+x-y,2/3+x,2/3-z
loop_
_atom_site_type_symbol
_atom_site_label
_atom_site_fract_x
_atom_site_fract_y
_atom_site_fract_z
Si Si1 0.313295 0.974215 0.760862
Si Si2 0.396873 0.925707 0.857881
Si Si3 0.487121 0.084361 0.903605
Si Si4 0.116000 0.722918 0.696628
Si Si5 0.522886 0.605521 0.335730
Si Si6 0.102092 0.834914 0.068713
Si Si7 0.208559 0.971746 0.437590
Si Si8 0.560840 0.714167 0.960310
O O1 0.338648 0.939227 0.817824
O O2 0.350510 0.961166 0.695281
O O3 0.232508 0.942463 0.737160
O O4 0.347856 0.058677 0.777182
O O5 0.451734 0.923107 0.803311
O O6 0.347912 0.860131 0.907323
O O7 0.441027 0.997461 0.902856
O O8 0.468988 0.113141 0.834930
O O9 0.569330 0.105096 0.899603
O O10 0.462372 0.113365 0.966948
O O11 0.107146 0.652268 0.736022
O O12 0.193616 0.773660 0.660222
O O13 0.090101 0.776630 0.727785
O O14 0.535635 0.554566 0.281560
O O15 0.440716 0.568047 0.357785
O O16 0.222674 0.012996 0.366914
#
# Coordination Sequence:
#
# PCOD9575036 Si02
#       8
#    18  18  18  18  18  18  18  18
#     4   8  17  31  48  75 105 133 169 210 260 315
#     4  10  19  30  49  77 109 139 170 215 263 314
#     4  11  20  33  55  78 106 138 174 220 262 307
#     4   8  15  29  49  71 101 136 169 209 258 307
#     4  10  19  34  53  73 103 139 173 215 263 308
#     4   9  16  30  50  74 102 136 173 213 263 313
#     4  10  20  34  52  79 108 136 175 218 262 308
#     4  10  20  33  50  75 108 140 171 214 261 309
#
# _framework density 18.470068999999999
#
# number of rings (size 3 to 8) (size 9 to 14) (size 15 to 20)
#    0.000    2.500    0.000    6.000    0.000    3.500 
#    0.000    0.000    0.000    4.750    0.000    0.000 
#    0.000   10.000    0.000    0.000    0.000    0.000 
#
# Total GULP energy -267340.553880 kJ/mol
# GULP energy per Si atom -5569.594873 kJ/mol
# Density = 1.842803 g / cm^3
# Si number density = 18.470069 Si / 1000 Ang^3
#
#
#
# Elastic Constant Matrix: (Units=GPa)
#
#
# Indices 1 2 3 4 5 6 
#
# 1 134.9380 108.7280 -118.9390 7.8059 -5.6025 0.0000
# 2 108.7280 134.9380 -118.9390 -7.8059 5.6025 0.0000
# 3 -118.9390 -118.9390 298.8926 0.0000 0.0000 0.0000
# 4 7.8059 -7.8059 0.0000 11.7742 0.0000 5.6025
# 5 -5.6025 5.6025 0.0000 0.0000 11.7742 7.8059
# 6 0.0000 0.0000 0.0000 5.6025 7.8059 13.1050
#
#
#
# Elastic Compliance Matrix: (Units=1/GPa)
#
#
# Indices 1 2 3 4 5 6 
#
# 1 0.050847 -0.044136 0.002671 -0.062971 0.045195 0.000000
# 2 -0.044136 0.050847 0.002671 0.062971 -0.045195 0.000000
# 3 0.002671 0.002671 0.005471 0.000000 0.000000 0.000000
# 4 -0.062971 0.062971 0.000000 0.211438 0.000000 -0.090391
# 5 0.045195 -0.045195 0.000000 0.000000 0.211438 -0.125942
# 6 0.000000 0.000000 0.000000 -0.090391 -0.125942 0.189966
#
#
# Mechanical properties :
#
#
# Convention : Reuss Voigt Hill
#
# Bulk Modulus (GPa) = 33.81167 34.49650 34.15408
# Shear Modulus (GPa) = 6.19229 53.85858 30.02544
#
# Velocity S-wave (km/s) = 1.83300 5.40585 4.03628
# Velocity P-wave (km/s) = 4.77763 7.59485 6.34459
#
# Compressibility (1/GPa) = 0.02957559
#
# Stress axis : x y z
#
# Youngs Moduli (GPa) = 19.66684 19.66684 182.77883
#
# Poissons Ratio (x) = 0.86801 -0.48812
# Poissons Ratio (y) = 0.86801 -0.48812
# Poissons Ratio (z) = -0.05252 -0.05252
#
# Static dielectric constant tensor:
#      x y z
#    x 1.653440 0.000000 0.000000 
#    y 0.000000 1.653440 0.000000 
#    z 0.000000 0.000000 1.700160 
# 
# From -- ./inp_files/3155.got.cif
#   From: 2010.05.17/outbox.cif.g08.bks.cpg/sg148_2_cif.got.tgz:3155.got - 2010.05.20 13:50:20.
