data_PCOD9575061
_publ_section_title
;
Structure prediction by ZEFSAII (Michael W. Deem and Ramdas Pophale) SiO2 
 PCOD9575061
Probable space group: R -3
;
_chemical_formula_sum "Si O2"
_cell_formula_units_Z 108
_cell_length_a 17.627907
_cell_length_b 17.627907
_cell_length_c 21.524589
_cell_angle_alpha 90.000000
_cell_angle_beta 90.000000
_cell_angle_gamma 120.000000
_cell_volume 5792.512779
_symmetry_space_group_name_H-M "R -3"
_symmetry_group_IT_number 148
_symmetry_cell_setting 'hexagonal'
loop_
_space_group_symop_operation_xyz
x,y,z
-y,x-y,z
-x+y,-x,z
-x,-y,-z
y,-x+y,-z
x-y,x,-z
2/3+x,1/3+y,1/3+z
2/3-y,1/3+x-y,1/3+z
2/3-x+y,1/3-x,1/3+z
2/3-x,1/3-y,1/3-z
2/3+y,1/3-x+y,1/3-z
2/3+x-y,1/3+x,1/3-z
1/3+x,2/3+y,2/3+z
1/3-y,2/3+x-y,2/3+z
1/3-x+y,2/3-x,2/3+z
1/3-x,2/3-y,2/3-z
1/3+y,2/3-x+y,2/3-z
1/3+x-y,2/3+x,2/3-z
loop_
_atom_site_type_symbol
_atom_site_label
_atom_site_fract_x
_atom_site_fract_y
_atom_site_fract_z
Si Si1 0.372692 0.924869 0.039047
Si Si2 0.413471 0.779493 0.835407
Si Si3 0.486966 0.540676 0.302021
Si Si4 0.872431 0.381768 0.035028
Si Si5 0.539616 0.146127 0.302632
Si Si6 0.863081 0.473946 0.829896
O O1 0.271471 0.881703 0.021657
O O2 0.380248 0.914414 0.112411
O O3 0.432560 0.027056 0.026508
O O4 0.411701 0.870470 0.004038
O O5 0.306777 0.731837 0.837205
O O6 0.457591 0.840192 0.895158
O O7 0.448825 0.830332 0.770742
O O8 0.485607 0.617557 0.341200
O O9 0.566156 0.523092 0.314460
O O10 0.491333 0.569656 0.230511
O O11 0.506589 0.205201 0.336422
O O12 0.824938 0.374085 0.850557
#
# Coordination Sequence:
#
# PCOD9575061 Si02
#       6
#    18  18  18  18  18  18
#     4  10  22  38  58  86 123 167 203 250 323 373
#     4  10  21  39  67  96 119 163 216 265 321 383
#     4  11  23  37  62  92 123 163 207 263 310 375
#     4  11  21  40  60  88 129 163 202 260 321 380
#     4  12  22  43  68  92 124 164 218 267 324 381
#     4  10  19  36  56  87 116 160 206 248 297 371
#
# _framework density 18.644759000000001
#
# number of rings (size 3 to 8) (size 9 to 14) (size 15 to 20)
#    0.333    1.000    3.333    3.333    0.000    0.000 
#    1.000    0.833    0.000    0.000    0.000    0.000 
#    0.000    0.000    0.000    0.000    0.000    0.000 
#
# Total GULP energy -200848.408640 kJ/mol
# GULP energy per Si atom -5579.122462 kJ/mol
# Density = 1.860232 g / cm^3
# Si number density = 18.644759 Si / 1000 Ang^3
#
#
#
# Elastic Constant Matrix: (Units=GPa)
#
#
# Indices 1 2 3 4 5 6 
#
# 1 39.1697 31.6040 14.2489 -11.7313 -11.0013 0.0000
# 2 31.6040 39.1697 14.2489 11.7313 11.0013 0.0000
# 3 14.2489 14.2489 109.4221 0.0000 0.0000 0.0000
# 4 -11.7313 11.7313 0.0000 7.4208 0.0000 11.0013
# 5 -11.0013 11.0013 0.0000 0.0000 7.4208 -11.7313
# 6 0.0000 0.0000 0.0000 11.0013 -11.7313 3.7828
#
#
#
# Elastic Compliance Matrix: (Units=1/GPa)
#
#
# Indices 1 2 3 4 5 6 
#
# 1 -0.000590 0.015502 -0.001942 -0.025439 -0.023856 0.000000
# 2 0.015502 -0.000590 -0.001942 0.025439 0.023856 0.000000
# 3 -0.001942 -0.001942 0.009645 0.000000 0.000000 0.000000
# 4 -0.025439 0.025439 0.000000 -0.016406 0.000000 0.047711
# 5 -0.023856 0.023856 0.000000 0.000000 -0.016406 -0.050877
# 6 0.000000 0.000000 0.000000 0.047711 -0.050877 -0.032183
#
#
# Mechanical properties :
#
#
# Convention : Reuss Voigt Hill
#
# Bulk Modulus (GPa) = 31.54529 34.21832 32.88181
# Shear Modulus (GPa) = -72.25463 12.23554 -30.00955
#
# Velocity S-wave (km/s) = -6.23197 2.56451 -4.01626
# Velocity P-wave (km/s) = 5.90148 5.21168 1.95779
#
# Compressibility (1/GPa) = 0.03170045
#
# Stress axis : x y z
#
# Youngs Moduli (GPa) = -1694.59031 -1694.59108 103.68464
#
# Poissons Ratio (x) = 26.26877 0.20133
# Poissons Ratio (y) = 26.26875 0.20133
# Poissons Ratio (z) = -3.29048 -3.29048
#
# Static dielectric constant tensor:
#      x y z
#    x 1.643020 0.000000 0.000000 
#    y 0.000000 1.643020 0.000000 
#    z 0.000000 0.000000 1.621570 
# 
# From -- ./inp_files/3122.got.cif
#   From: 2010.05.17/outbox.cif.g08.bks.cpg/sg148_2_cif.got.tgz:3122.got - 2010.05.20 13:50:20.
