data_PCOD9575970
_publ_section_title
;
Structure prediction by ZEFSAII (Michael W. Deem and Ramdas Pophale) SiO2 
 PCOD9575970
Probable space group: P 31 2 1
;
_chemical_formula_sum "Si O2"
_cell_formula_units_Z 36
_cell_length_a 8.387550
_cell_length_b 8.387550
_cell_length_c 26.860913
_cell_angle_alpha 90.000000
_cell_angle_beta 90.000000
_cell_angle_gamma 120.000000
_cell_volume 1636.521239
_symmetry_space_group_name_H-M "P 31 2 1"
_symmetry_group_IT_number 152
_symmetry_cell_setting 'hexagonal'
loop_
_space_group_symop_operation_xyz
x,y,z
-y,x-y,1/3+z
-x+y,-x,2/3+z
x-y,-y,2/3-z
-x,-x+y,1/3-z
y,x,-z
loop_
_atom_site_type_symbol
_atom_site_label
_atom_site_fract_x
_atom_site_fract_y
_atom_site_fract_z
Si Si1 0.714238 0.000000 0.333334
Si Si2 0.133020 0.321838 0.734693
Si Si3 0.334650 0.688173 0.879588
Si Si4 0.462102 0.694298 0.979665
Si Si5 0.354815 0.319255 0.167523
Si Si6 0.957004 0.913621 0.760825
Si Si7 0.710104 0.000000 0.833334
O O1 0.670719 0.167468 0.327889
O O2 0.854479 0.063561 0.379464
O O3 0.273555 0.439040 0.691252
O O4 0.211609 0.397887 0.788996
O O5 0.942236 0.310630 0.716898
O O6 0.094134 0.116467 0.740871
O O7 0.355700 0.737907 0.937863
O O8 0.141363 0.651176 0.857992
O O9 0.353044 0.507139 0.873240
O O10 0.513220 0.840638 0.851184
O O11 0.167161 0.191332 0.138335
O O12 0.792344 0.931302 0.788226
#
# Coordination Sequence:
#
# PCOD9575970 Si02
#       7
#     3   6   6   6   6   6   3
#     4  10  22  34  72 104 134 180 232 274 348 422
#     4  10  21  40  70  97 135 188 223 289 338 414
#     4  12  26  45  68 103 137 182 234 288 345 411
#     4  10  21  44  68 100 141 187 230 283 350 412
#     4  12  25  44  73 101 138 184 236 288 345 419
#     4  12  21  40  70 108 133 182 230 281 352 413
#     4  12  26  42  70 100 138 178 234 288 344 416
#
# _framework density 21.997879000000001
#
# number of rings (size 3 to 8) (size 9 to 14) (size 15 to 20)
#    0.000    1.000    5.000    3.000    4.667    0.000 
#    0.000    3.333    0.000    0.000    0.000    0.000 
#    0.000    0.000    0.000    0.000    0.000    0.000 
#
# Total GULP energy -200699.990605 kJ/mol
# GULP energy per Si atom -5574.999739 kJ/mol
# Density = 2.194781 g / cm^3
# Si number density = 21.997879 Si / 1000 Ang^3
#
#
#
# Elastic Constant Matrix: (Units=GPa)
#
#
# Indices 1 2 3 4 5 6 
#
# 1 68.9134 6.5948 24.8112 2.1540 0.0002 0.0000
# 2 6.5948 68.9134 24.8112 -2.1540 -0.0002 0.0000
# 3 24.8112 24.8112 131.1978 0.0000 0.0000 0.0000
# 4 2.1540 -2.1540 0.0000 21.5052 0.0000 -0.0002
# 5 0.0002 -0.0002 0.0000 0.0000 21.5052 2.1540
# 6 0.0000 0.0000 0.0000 -0.0002 2.1540 31.1593
#
#
#
# Elastic Compliance Matrix: (Units=1/GPa)
#
#
# Indices 1 2 3 4 5 6 
#
# 1 0.015641 -0.000518 -0.002860 -0.001618 0.000000 0.000000
# 2 -0.000518 0.015641 -0.002860 0.001618 0.000000 0.000000
# 3 -0.002860 -0.002860 0.008704 0.000000 0.000000 0.000000
# 4 -0.001618 0.001618 0.000000 0.046825 0.000000 0.000000
# 5 0.000000 0.000000 0.000000 0.000000 0.046825 -0.003237
# 6 0.000000 0.000000 0.000000 0.000000 -0.003237 0.032317
#
#
# Mechanical properties :
#
#
# Convention : Reuss Voigt Hill
#
# Bulk Modulus (GPa) = 36.35026 42.38432 39.36729
# Shear Modulus (GPa) = 26.65292 29.02111 27.83702
#
# Velocity S-wave (km/s) = 3.48460 3.63611 3.56116
# Velocity P-wave (km/s) = 5.72278 6.07764 5.90288
#
# Compressibility (1/GPa) = 0.02751012
#
# Stress axis : x y z
#
# Youngs Moduli (GPa) = 63.93545 63.93545 114.89243
#
# Poissons Ratio (x) = 0.03310 0.32859
# Poissons Ratio (y) = 0.03310 0.32859
# Poissons Ratio (z) = 0.18285 0.18285
#
# Static dielectric constant tensor:
#      x y z
#    x 1.853320 0.000000 0.000000 
#    y 0.000000 1.853320 0.000000 
#    z 0.000000 0.000000 1.901060 
# 
# From -- ./inp_files/3459.got.cif
#   From: 2010.05.17/outbox.cif.g08.bks.cpg/sg152_2_cif.got.tgz:3459.got - 2010.05.20 10:36:06.
