data_PCOD9575294
_publ_section_title
;
Structure prediction by ZEFSAII (Michael W. Deem and Ramdas Pophale) SiO2 
 PCOD9575294
Probable space group: R -3
;
_chemical_formula_sum "Si O2"
_cell_formula_units_Z 60
_cell_length_a 16.549828
_cell_length_b 16.549828
_cell_length_c 11.924594
_cell_angle_alpha 90.000000
_cell_angle_beta 90.000000
_cell_angle_gamma 120.000000
_cell_volume 2828.532689
_symmetry_space_group_name_H-M "R -3"
_symmetry_group_IT_number 148
_symmetry_cell_setting 'hexagonal'
loop_
_space_group_symop_operation_xyz
x,y,z
-y,x-y,z
-x+y,-x,z
-x,-y,-z
y,-x+y,-z
x-y,x,-z
2/3+x,1/3+y,1/3+z
2/3-y,1/3+x-y,1/3+z
2/3-x+y,1/3-x,1/3+z
2/3-x,1/3-y,1/3-z
2/3+y,1/3-x+y,1/3-z
2/3+x-y,1/3+x,1/3-z
1/3+x,2/3+y,2/3+z
1/3-y,2/3+x-y,2/3+z
1/3-x+y,2/3-x,2/3+z
1/3-x,2/3-y,2/3-z
1/3+y,2/3-x+y,2/3-z
1/3+x-y,2/3+x,2/3-z
loop_
_atom_site_type_symbol
_atom_site_label
_atom_site_fract_x
_atom_site_fract_y
_atom_site_fract_z
Si Si1 0.302470 0.199870 0.820252
Si Si2 0.000000 0.000000 0.632903
Si Si3 0.367036 0.506286 0.992156
Si Si4 0.182524 0.288197 0.723564
O O1 0.405519 0.257635 0.766048
O O2 0.257958 0.092574 0.779664
O O3 0.240617 0.238947 0.762733
O O4 0.309631 0.212300 0.953355
O O5 0.106184 0.049249 0.671495
O O6 0.000000 0.000000 0.500000
O O7 0.256290 0.442878 0.987137
O O8 0.166667 0.333334 0.833334
#
# Coordination Sequence:
#
# PCOD9575294 Si02
#       4
#    18   6  18  18
#     4  11  27  47  70 108 144 191 244 302 364 436
#     4  12  21  42  72 106 137 187 240 297 361 431
#     4  11  25  45  71 105 144 185 243 301 361 426
#     4  12  27  46  74 102 146 193 239 298 367 438
#
# _framework density 21.212410999999999
#
# number of rings (size 3 to 8) (size 9 to 14) (size 15 to 20)
#    0.000    0.600    3.000    3.600   16.800    0.000 
#    0.000    0.000    0.000    3.600    0.000    0.000 
#    0.000    0.000    0.000    0.000    0.000    0.000 
#
# Total GULP energy -111819.971952 kJ/mol
# GULP energy per Si atom -5590.998598 kJ/mol
# Density = 2.116413 g / cm^3
# Si number density = 21.212411 Si / 1000 Ang^3
#
#
#
# Elastic Constant Matrix: (Units=GPa)
#
#
# Indices 1 2 3 4 5 6 
#
# 1 105.8771 34.7405 25.5443 -5.6905 5.9047 0.0000
# 2 34.7405 105.8771 25.5443 5.6905 -5.9047 0.0000
# 3 25.5443 25.5443 133.0369 0.0000 0.0000 0.0000
# 4 -5.6905 5.6905 0.0000 24.3644 0.0000 -5.9047
# 5 5.9047 -5.9047 0.0000 0.0000 24.3644 -5.6905
# 6 0.0000 0.0000 0.0000 -5.9047 -5.6905 35.5683
#
#
#
# Elastic Compliance Matrix: (Units=1/GPa)
#
#
# Indices 1 2 3 4 5 6 
#
# 1 0.011442 -0.003798 -0.001468 0.003559 -0.003693 0.000000
# 2 -0.003798 0.011442 -0.001468 -0.003559 0.003693 0.000000
# 3 -0.001468 -0.001468 0.008080 0.000000 0.000000 0.000000
# 4 0.003559 -0.003559 0.000000 0.044496 0.000000 0.007387
# 5 -0.003693 0.003693 0.000000 0.000000 0.044496 0.007119
# 6 0.000000 0.000000 0.000000 0.007387 0.007119 0.030480
#
#
# Mechanical properties :
#
#
# Convention : Reuss Voigt Hill
#
# Bulk Modulus (GPa) = 57.14779 57.38328 57.26553
# Shear Modulus (GPa) = 29.45723 34.12356 31.79040
#
# Velocity S-wave (km/s) = 3.73054 4.01516 3.87547
# Velocity P-wave (km/s) = 6.74945 6.97179 6.86152
#
# Compressibility (1/GPa) = 0.01749849
#
# Stress axis : x y z
#
# Youngs Moduli (GPa) = 87.39405 87.39405 123.75624
#
# Poissons Ratio (x) = 0.33189 0.18166
# Poissons Ratio (y) = 0.33189 0.18166
# Poissons Ratio (z) = 0.12828 0.12828
#
# Static dielectric constant tensor:
#      x y z
#    x 1.784430 0.000000 0.000000 
#    y 0.000000 1.784430 0.000000 
#    z 0.000000 0.000000 1.739780 
# 
# From -- ./inp_files/1337.got.cif
#   From: 2010.05.17/outbox.cif.g08.bks.cpg/sg148_1_cif.got.tgz:1337.got - 2010.05.20 13:50:20.
