data_PCOD9575790
_publ_section_title
;
Structure prediction by ZEFSAII (Michael W. Deem and Ramdas Pophale) SiO2 
 PCOD9575790
Probable space group: P 31 2 1
;
_chemical_formula_sum "Si O2"
_cell_formula_units_Z 48
_cell_length_a 12.082073
_cell_length_b 12.082073
_cell_length_c 21.624633
_cell_angle_alpha 90.000000
_cell_angle_beta 90.000000
_cell_angle_gamma 120.000000
_cell_volume 2733.771982
_symmetry_space_group_name_H-M "P 31 2 1"
_symmetry_group_IT_number 152
_symmetry_cell_setting 'hexagonal'
loop_
_space_group_symop_operation_xyz
x,y,z
-y,x-y,1/3+z
-x+y,-x,2/3+z
x-y,-y,2/3-z
-x,-x+y,1/3-z
y,x,-z
loop_
_atom_site_type_symbol
_atom_site_label
_atom_site_fract_x
_atom_site_fract_y
_atom_site_fract_z
Si Si1 0.551545 0.434267 0.034717
Si Si2 0.956175 0.518916 0.298929
Si Si3 0.474959 0.868185 0.559243
Si Si4 0.769166 0.595412 0.633082
Si Si5 0.221251 0.656411 0.234883
Si Si6 0.872709 0.648177 0.201866
Si Si7 0.305498 0.310404 0.123842
Si Si8 0.322726 0.070642 0.104238
O O1 0.681059 0.469826 0.066606
O O2 0.435515 0.377608 0.083322
O O3 0.548429 0.548429 0.000000
O O4 0.511130 0.315659 0.988546
O O5 0.921617 0.508118 0.370980
O O6 0.890926 0.373506 0.273895
O O7 0.908135 0.605764 0.265738
O O8 0.103755 0.579955 0.281147
O O9 0.419629 0.716310 0.556963
O O10 0.599760 0.937517 0.516594
O O11 0.358667 0.892861 0.540895
O O12 0.879899 0.682022 0.584605
O O13 0.765639 0.666559 0.696284
O O14 0.175985 0.697645 0.173807
O O15 0.771992 0.695444 0.212739
O O16 0.000000 0.753540 0.166667
O O17 0.281236 0.167864 0.133289
#
# Coordination Sequence:
#
# PCOD9575790 Si02
#       8
#     6   6   6   6   6   6   6   6
#     4   9  17  34  55  81 116 140 183 237 282 340
#     4  10  22  37  57  85 117 155 190 236 293 341
#     4  11  22  35  58  91 118 148 193 245 291 344
#     4   9  18  34  59  86 112 152 187 239 282 339
#     4  11  20  39  57  87 117 147 196 237 290 351
#     4  10  23  40  62  80 117 162 189 232 288 351
#     4  10  19  37  56  87 115 146 198 239 288 343
#     4  10  20  36  61  83 115 153 195 231 294 345
#
# _framework density 17.558160000000001
#
# number of rings (size 3 to 8) (size 9 to 14) (size 15 to 20)
#    0.000    2.000    3.750    2.625    3.500    0.000 
#    6.750    1.250    2.750    0.000    0.000    0.000 
#    0.000    0.000    0.000    0.000    0.000    0.000 
#
# Total GULP energy -267560.309166 kJ/mol
# GULP energy per Si atom -5574.173108 kJ/mol
# Density = 1.751820 g / cm^3
# Si number density = 17.558160 Si / 1000 Ang^3
#
#
#
# Elastic Constant Matrix: (Units=GPa)
#
#
# Indices 1 2 3 4 5 6 
#
# 1 86.1895 38.2494 21.8505 -0.0919 -0.0001 0.0000
# 2 38.2494 86.1895 21.8505 0.0919 0.0001 0.0000
# 3 21.8505 21.8505 25.7567 0.0000 0.0000 0.0000
# 4 -0.0919 0.0919 0.0000 2.5420 0.0000 0.0001
# 5 -0.0001 0.0001 0.0000 0.0000 2.5420 -0.0919
# 6 0.0000 0.0000 0.0000 0.0001 -0.0919 23.9700
#
#
#
# Elastic Compliance Matrix: (Units=1/GPa)
#
#
# Indices 1 2 3 4 5 6 
#
# 1 0.016154 -0.004708 -0.009710 0.000754 0.000001 0.000000
# 2 -0.004708 0.016154 -0.009710 -0.000754 -0.000001 0.000000
# 3 -0.009710 -0.009710 0.055300 0.000000 0.000000 0.000000
# 4 0.000754 -0.000754 0.000000 0.393451 0.000000 -0.000002
# 5 0.000001 -0.000001 0.000000 0.000000 0.393451 0.001509
# 6 0.000000 0.000000 0.000000 -0.000002 0.001509 0.041725
#
#
# Mechanical properties :
#
#
# Convention : Reuss Voigt Hill
#
# Bulk Modulus (GPa) = 25.41203 40.22626 32.81914
# Shear Modulus (GPa) = 5.11452 13.55647 9.33549
#
# Velocity S-wave (km/s) = 1.70857 2.78166 2.30834
# Velocity P-wave (km/s) = 4.28915 5.76861 5.08300
#
# Compressibility (1/GPa) = 0.03935144
#
# Stress axis : x y z
#
# Youngs Moduli (GPa) = 61.90330 61.90330 18.08313
#
# Poissons Ratio (x) = 0.29144 0.17559
# Poissons Ratio (y) = 0.29144 0.17559
# Poissons Ratio (z) = 0.60110 0.60110
#
# Static dielectric constant tensor:
#      x y z
#    x 1.653360 0.000000 0.000000 
#    y 0.000000 1.653360 0.000000 
#    z 0.000000 0.000000 1.586980 
# 
# From -- ./inp_files/2846.got.cif
#   From: 2010.05.17/outbox.cif.g08.bks.cpg/sg152_2_cif.got.tgz:2846.got - 2010.05.20 10:36:06.
