data_PCOD9575293
_publ_section_title
;
Structure prediction by ZEFSAII (Michael W. Deem and Ramdas Pophale) SiO2 
 PCOD9575293
Probable space group: R -3
;
_chemical_formula_sum "Si O2"
_cell_formula_units_Z 72
_cell_length_a 16.676472
_cell_length_b 16.676472
_cell_length_c 13.212912
_cell_angle_alpha 90.000000
_cell_angle_beta 90.000000
_cell_angle_gamma 120.000000
_cell_volume 3182.273714
_symmetry_space_group_name_H-M "R -3"
_symmetry_group_IT_number 148
_symmetry_cell_setting 'hexagonal'
loop_
_space_group_symop_operation_xyz
x,y,z
-y,x-y,z
-x+y,-x,z
-x,-y,-z
y,-x+y,-z
x-y,x,-z
2/3+x,1/3+y,1/3+z
2/3-y,1/3+x-y,1/3+z
2/3-x+y,1/3-x,1/3+z
2/3-x,1/3-y,1/3-z
2/3+y,1/3-x+y,1/3-z
2/3+x-y,1/3+x,1/3-z
1/3+x,2/3+y,2/3+z
1/3-y,2/3+x-y,2/3+z
1/3-x+y,2/3-x,2/3+z
1/3-x,2/3-y,2/3-z
1/3+y,2/3-x+y,2/3-z
1/3+x-y,2/3+x,2/3-z
loop_
_atom_site_type_symbol
_atom_site_label
_atom_site_fract_x
_atom_site_fract_y
_atom_site_fract_z
Si Si1 0.418503 0.873945 0.118814
Si Si2 0.385700 0.287211 0.255638
Si Si3 0.633825 0.110793 0.450608
Si Si4 0.578465 0.805500 0.450720
O O1 0.482606 0.834264 0.166160
O O2 0.469254 0.985902 0.132070
O O3 0.417392 0.872158 0.995996
O O4 0.399674 0.334284 0.363267
O O5 0.281814 0.219928 0.220720
O O6 0.438511 0.229284 0.258764
O O7 0.435553 0.360211 0.167154
O O8 0.718395 0.208505 0.481365
#
# Coordination Sequence:
#
# PCOD9575293 Si02
#       4
#    18  18  18  18
#     4  11  27  46  71 102 141 181 230 282 346 407
#     4  11  25  44  69 100 136 179 231 282 339 405
#     4  11  25  44  69 100 136 179 231 282 339 405
#     4  11  26  44  71  99 134 185 226 284 339 408
#
# _framework density 22.625332
#
# number of rings (size 3 to 8) (size 9 to 14) (size 15 to 20)
#    0.000    1.000    2.500    1.750   17.500    0.000 
#    1.500    1.250    0.000    0.000    0.000    0.000 
#    0.000    0.000    0.000    0.000    0.000    0.000 
#
# Total GULP energy -134004.791965 kJ/mol
# GULP energy per Si atom -5583.532999 kJ/mol
# Density = 2.257384 g / cm^3
# Si number density = 22.625332 Si / 1000 Ang^3
#
#
#
# Elastic Constant Matrix: (Units=GPa)
#
#
# Indices 1 2 3 4 5 6 
#
# 1 42.8808 15.3829 26.2144 6.3087 -8.9301 0.0000
# 2 15.3829 42.8808 26.2144 -6.3087 8.9301 0.0000
# 3 26.2144 26.2144 137.0975 0.0000 0.0000 0.0000
# 4 6.3087 -6.3087 0.0000 20.7245 0.0000 8.9301
# 5 -8.9301 8.9301 0.0000 0.0000 20.7245 6.3087
# 6 0.0000 0.0000 0.0000 8.9301 6.3087 13.7489
#
#
#
# Elastic Compliance Matrix: (Units=1/GPa)
#
#
# Indices 1 2 3 4 5 6 
#
# 1 0.041691 -0.020961 -0.003964 -0.019072 0.026997 0.000000
# 2 -0.020961 0.041691 -0.003964 0.019072 -0.026997 0.000000
# 3 -0.003964 -0.003964 0.008810 0.000000 0.000000 0.000000
# 4 -0.019072 0.019072 0.000000 0.083129 0.000000 -0.053993
# 5 0.026997 -0.026997 0.000000 0.000000 0.083129 -0.038144
# 6 0.000000 0.000000 0.000000 -0.053993 -0.038144 0.125305
#
#
# Mechanical properties :
#
#
# Convention : Reuss Voigt Hill
#
# Bulk Modulus (GPa) = 29.05704 39.83138 34.44421
# Shear Modulus (GPa) = 11.03743 21.37607 16.20675
#
# Velocity S-wave (km/s) = 2.21109 3.07707 2.67930
# Velocity P-wave (km/s) = 4.40331 5.50159 4.98280
#
# Compressibility (1/GPa) = 0.03441507
#
# Stress axis : x y z
#
# Youngs Moduli (GPa) = 23.98585 23.98585 113.50843
#
# Poissons Ratio (x) = 0.50277 0.44993
# Poissons Ratio (y) = 0.50277 0.44993
# Poissons Ratio (z) = 0.09508 0.09508
#
# Static dielectric constant tensor:
#      x y z
#    x 1.840260 0.000000 0.000000 
#    y 0.000000 1.840260 0.000000 
#    z 0.000000 0.000000 1.814450 
# 
# From -- ./inp_files/1856.got.cif
#   From: 2010.05.17/outbox.cif.g08.bks.cpg/sg148_1_cif.got.tgz:1856.got - 2010.05.20 13:50:20.
