data_PCOD9575475
_publ_section_title
;
Structure prediction by ZEFSAII (Michael W. Deem and Ramdas Pophale) SiO2 
 PCOD9575475
Probable space group: P 3 2 1
;
_chemical_formula_sum "Si O2"
_cell_formula_units_Z 33
_cell_length_a 15.356686
_cell_length_b 15.356686
_cell_length_c 8.908917
_cell_angle_alpha 90.000000
_cell_angle_beta 90.000000
_cell_angle_gamma 120.000000
_cell_volume 1819.493687
_symmetry_space_group_name_H-M "P 3 2 1"
_symmetry_group_IT_number 150
_symmetry_cell_setting 'hexagonal'
loop_
_space_group_symop_operation_xyz
x,y,z
-y,x-y,z
-x+y,-x,z
x-y,-y,-z
-x,-x+y,-z
y,x,-z
loop_
_atom_site_type_symbol
_atom_site_label
_atom_site_fract_x
_atom_site_fract_y
_atom_site_fract_z
Si Si1 0.666668 0.333334 0.924827
Si Si2 0.211278 0.031674 0.765588
Si Si3 0.000000 0.000000 0.320888
Si Si4 0.500191 0.818148 0.860941
Si Si5 0.000000 0.318226 0.500000
Si Si6 0.666668 0.333334 0.566266
Si Si7 0.364191 0.839248 0.648195
Si Si8 0.114412 0.834169 0.956793
O O1 0.666668 0.333334 0.745540
O O2 0.659428 0.233246 0.997743
O O3 0.114040 0.042994 0.734154
O O4 0.278411 0.049796 0.620237
O O5 0.161002 0.916750 0.824765
O O6 0.280532 0.105424 0.896048
O O7 0.000000 0.000000 0.500000
O O8 0.461577 0.877252 0.755260
O O9 0.485487 0.725994 0.754350
O O10 0.614308 0.875759 0.914112
O O11 0.923056 0.341214 0.411379
O O12 0.593073 0.224109 0.493067
O O13 0.000000 0.798202 0.000000
#
# Coordination Sequence:
#
# PCOD9575475 Si02
#       8
#     2   6   2   6   3   2   6   6
#     4   9  19  35  64  84 115 149 202 246 289 386
#     4  11  24  36  62  87 123 165 208 257 299 375
#     4  12  21  40  59  91 126 172 209 244 324 367
#     4   9  19  41  58  83 116 164 191 246 317 363
#     4  12  22  40  60  94 118 156 208 266 306 358
#     4   9  19  38  61  84 106 164 196 237 286 383
#     4   9  20  39  62  78 121 157 197 243 317 363
#     4  11  22  39  59  87 121 161 205 253 303 366
#
# _framework density 18.136914000000001
#
# number of rings (size 3 to 8) (size 9 to 14) (size 15 to 20)
#    0.000    1.818    4.545    1.455    2.545    0.000 
#    3.273    0.000    2.000    0.000    0.000    0.000 
#    0.000    0.000    0.000    0.000    0.000    0.000 
#
# Total GULP energy -183990.727394 kJ/mol
# GULP energy per Si atom -5575.476588 kJ/mol
# Density = 1.809563 g / cm^3
# Si number density = 18.136914 Si / 1000 Ang^3
#
#
#
# Elastic Constant Matrix: (Units=GPa)
#
#
# Indices 1 2 3 4 5 6 
#
# 1 64.8352 20.2751 29.4602 0.7635 0.0000 0.0000
# 2 20.2751 64.8351 29.4603 -0.7636 0.0000 0.0000
# 3 29.4602 29.4603 114.3751 0.0000 0.0000 0.0000
# 4 0.7635 -0.7636 0.0000 26.2421 0.0000 0.0000
# 5 0.0000 0.0000 0.0000 0.0000 26.2421 0.7635
# 6 0.0000 0.0000 0.0000 0.0000 0.7635 22.2799
#
#
#
# Elastic Compliance Matrix: (Units=1/GPa)
#
#
# Indices 1 2 3 4 5 6 
#
# 1 0.018382 -0.004082 -0.003683 -0.000654 0.000000 0.000000
# 2 -0.004082 0.018382 -0.003683 0.000654 0.000000 0.000000
# 3 -0.003683 -0.003683 0.010641 0.000000 0.000000 0.000000
# 4 -0.000654 0.000654 0.000000 0.038145 0.000000 0.000000
# 5 0.000000 0.000000 0.000000 0.000000 0.038145 -0.001307
# 6 0.000000 0.000000 0.000000 0.000000 -0.001307 0.044928
#
#
# Mechanical properties :
#
#
# Convention : Reuss Voigt Hill
#
# Bulk Modulus (GPa) = 40.80552 44.71516 42.76034
# Shear Modulus (GPa) = 25.03910 25.94281 25.49095
#
# Velocity S-wave (km/s) = 3.71962 3.78615 3.75303
# Velocity P-wave (km/s) = 6.40272 6.61974 6.51214
#
# Compressibility (1/GPa) = 0.02450649
#
# Stress axis : x y z
#
# Youngs Moduli (GPa) = 54.40220 54.40206 93.98026
#
# Poissons Ratio (x) = 0.22209 0.34614
# Poissons Ratio (y) = 0.22209 0.34614
# Poissons Ratio (z) = 0.20037 0.20037
#
# Static dielectric constant tensor:
#      x y z
#    x 1.622120 0.000000 0.000000 
#    y 0.000000 1.622120 0.000000 
#    z 0.000000 0.000000 1.610950 
# 
# From -- ./inp_files/685.got.cif
#   From: 2010.05.17/outbox.cif.g08.bks.cpg/sg150_cif.got.tgz:685.got - 2010.05.20 13:53:18.
