data_PCOD9575884
_publ_section_title
;
Structure prediction by ZEFSAII (Michael W. Deem and Ramdas Pophale) SiO2 
 PCOD9575884
Probable space group: P 31 2 1
;
_chemical_formula_sum "Si O2"
_cell_formula_units_Z 39
_cell_length_a 11.492330
_cell_length_b 11.492330
_cell_length_c 15.916766
_cell_angle_alpha 90.000000
_cell_angle_beta 90.000000
_cell_angle_gamma 120.000000
_cell_volume 1820.545928
_symmetry_space_group_name_H-M "P 31 2 1"
_symmetry_group_IT_number 152
_symmetry_cell_setting 'hexagonal'
loop_
_space_group_symop_operation_xyz
x,y,z
-y,x-y,1/3+z
-x+y,-x,2/3+z
x-y,-y,2/3-z
-x,-x+y,1/3-z
y,x,-z
loop_
_atom_site_type_symbol
_atom_site_label
_atom_site_fract_x
_atom_site_fract_y
_atom_site_fract_z
Si Si1 0.333370 0.110653 0.164144
Si Si2 0.000000 0.602275 0.166667
Si Si3 0.825951 0.972645 0.043564
Si Si4 0.173137 0.526893 0.075541
Si Si5 0.224263 0.836872 0.251594
Si Si6 0.692740 0.318349 0.436115
Si Si7 0.077513 0.238660 0.015935
O O1 0.226105 0.150235 0.196731
O O2 0.483037 0.231669 0.151505
O O3 0.284243 0.048906 0.073509
O O4 0.309765 0.993516 0.229144
O O5 0.036859 0.531721 0.092241
O O6 0.128045 0.749356 0.175487
O O7 0.913610 0.913610 0.000000
O O8 0.689470 0.889942 0.989215
O O9 0.930709 0.128588 0.047159
O O10 0.266889 0.591198 0.158570
O O11 0.229767 0.602917 0.986091
O O12 0.147581 0.376414 0.067360
O O13 0.327195 0.784213 0.262985
O O14 0.172381 0.172381 0.000000
#
# Coordination Sequence:
#
# PCOD9575884 Si02
#       7
#     6   3   6   6   6   6   6
#     4  10  21  39  62  92 125 171 223 268 336 413
#     4  10  22  42  60  88 130 166 218 276 326 406
#     4   9  19  36  63  91 120 167 218 266 332 405
#     4  10  23  44  62  97 135 172 226 281 341 410
#     4  10  20  40  63  88 126 170 221 273 326 407
#     4  10  22  42  67  96 132 175 228 280 336 408
#     4  10  22  39  60  94 134 166 214 283 346 407
#
# _framework density 21.422146999999999
#
# number of rings (size 3 to 8) (size 9 to 14) (size 15 to 20)
#    0.000    2.154    0.000    1.846    0.000    8.615 
#   36.000    0.769    0.000    0.000    0.000    0.000 
#    0.000    0.000    0.000    0.000    0.000    0.000 
#
# Total GULP energy -217115.305857 kJ/mol
# GULP energy per Si atom -5567.059125 kJ/mol
# Density = 2.137339 g / cm^3
# Si number density = 21.422147 Si / 1000 Ang^3
#
#
#
# Elastic Constant Matrix: (Units=GPa)
#
#
# Indices 1 2 3 4 5 6 
#
# 1 87.7391 35.3809 27.3313 2.9247 0.0000 0.0000
# 2 35.3809 87.7391 27.3313 -2.9247 0.0000 0.0000
# 3 27.3313 27.3313 80.5414 0.0000 0.0000 0.0000
# 4 2.9247 -2.9247 0.0000 22.5813 0.0000 0.0000
# 5 0.0000 0.0000 0.0000 0.0000 22.5813 2.9247
# 6 0.0000 0.0000 0.0000 0.0000 2.9247 26.1791
#
#
#
# Elastic Compliance Matrix: (Units=1/GPa)
#
#
# Indices 1 2 3 4 5 6 
#
# 1 0.014471 -0.004908 -0.003245 -0.002510 0.000000 0.000000
# 2 -0.004908 0.014471 -0.003245 0.002510 0.000000 0.000000
# 3 -0.003245 -0.003245 0.014618 0.000000 0.000000 0.000000
# 4 -0.002510 0.002510 0.000000 0.044935 0.000000 0.000000
# 5 0.000000 0.000000 0.000000 0.000000 0.044935 -0.005020
# 6 0.000000 0.000000 0.000000 0.000000 -0.005020 0.038759
#
#
# Mechanical properties :
#
#
# Convention : Reuss Voigt Hill
#
# Bulk Modulus (GPa) = 48.16088 48.45630 48.30859
# Shear Modulus (GPa) = 24.76377 25.33342 25.04860
#
# Velocity S-wave (km/s) = 3.40367 3.44260 3.42319
# Velocity P-wave (km/s) = 6.16257 6.20248 6.18256
#
# Compressibility (1/GPa) = 0.02076374
#
# Stress axis : x y z
#
# Youngs Moduli (GPa) = 69.10238 69.10238 68.40686
#
# Poissons Ratio (x) = 0.33918 0.22199
# Poissons Ratio (y) = 0.33918 0.22199
# Poissons Ratio (z) = 0.22425 0.22425
#
# Static dielectric constant tensor:
#      x y z
#    x 1.820500 0.000000 0.000000 
#    y 0.000000 1.820500 0.000000 
#    z 0.000000 0.000000 2.056890 
# 
# From -- ./inp_files/2448.got.cif
#   From: 2010.05.17/outbox.cif.g08.bks.cpg/sg152_2_cif.got.tgz:2448.got - 2010.05.20 10:36:06.
