data_PCOD9575726
_publ_section_title
;
Structure prediction by ZEFSAII (Michael W. Deem and Ramdas Pophale) SiO2 
 PCOD9575726
Probable space group: P 31 2 1
;
_chemical_formula_sum "Si O2"
_cell_formula_units_Z 48
_cell_length_a 21.452089
_cell_length_b 21.452089
_cell_length_c 8.555365
_cell_angle_alpha 90.000000
_cell_angle_beta 90.000000
_cell_angle_gamma 120.000000
_cell_volume 3409.638644
_symmetry_space_group_name_H-M "P 31 2 1"
_symmetry_group_IT_number 152
_symmetry_cell_setting 'hexagonal'
loop_
_space_group_symop_operation_xyz
x,y,z
-y,x-y,1/3+z
-x+y,-x,2/3+z
x-y,-y,2/3-z
-x,-x+y,1/3-z
y,x,-z
loop_
_atom_site_type_symbol
_atom_site_label
_atom_site_fract_x
_atom_site_fract_y
_atom_site_fract_z
Si Si1 0.690624 0.452409 0.161155
Si Si2 0.581049 0.040294 0.175717
Si Si3 0.690169 0.227603 0.508654
Si Si4 0.089017 0.607851 0.309006
Si Si5 0.364771 0.900286 0.988465
Si Si6 0.608315 0.573504 0.837524
Si Si7 0.175171 0.647523 0.000574
Si Si8 0.321615 0.825614 0.670150
O O1 0.619062 0.374538 0.155602
O O2 0.666484 0.510347 0.201985
O O3 0.745075 0.457840 0.299115
O O4 0.730044 0.463758 0.997126
O O5 0.503651 0.037269 0.175440
O O6 0.638666 0.123806 0.145382
O O7 0.581351 0.000000 0.333334
O O8 0.577329 0.990094 0.030419
O O9 0.651742 0.143720 0.550855
O O10 0.747440 0.256619 0.370213
O O11 0.087802 0.532226 0.293105
O O12 0.128038 0.646995 0.149953
O O13 0.320326 0.860796 0.834862
O O14 0.378654 0.977898 0.037040
O O15 0.667507 0.552277 0.793150
O O16 0.611749 0.611749 0.000000
O O17 0.181243 0.575125 0.003001
#
# Coordination Sequence:
#
# PCOD9575726 Si02
#       8
#     6   6   6   6   6   6   6   6
#     4  10  19  29  38  51  71  94 115 139 176 223
#     4   9  16  25  39  54  64  79 109 145 174 205
#     4  10  19  28  38  52  72  92 114 140 175 222
#     4   8  16  28  37  48  66  88 108 134 169 209
#     4   9  17  28  39  52  69  88 113 143 175 214
#     4   9  16  27  40  53  67  85 112 143 173 209
#     4   9  17  27  38  50  67  90 113 136 174 220
#     4  10  18  26  39  54  68  90 113 142 177 214
#
# _framework density 14.077738
#
# number of rings (size 3 to 8) (size 9 to 14) (size 15 to 20)
#    0.000    2.750    0.000    3.000    0.000    8.000 
#    0.000    0.000    0.000    0.000    0.000    0.000 
#    0.000    0.000    0.000    0.000    0.000    0.000 
#
# Total GULP energy -267333.601612 kJ/mol
# GULP energy per Si atom -5569.450034 kJ/mol
# Density = 1.404570 g / cm^3
# Si number density = 14.077738 Si / 1000 Ang^3
#
#
#
# Elastic Constant Matrix: (Units=GPa)
#
#
# Indices 1 2 3 4 5 6 
#
# 1 37.4991 24.8161 9.1122 -0.1524 0.0000 0.0000
# 2 24.8161 37.4991 9.1122 0.1524 0.0000 0.0000
# 3 9.1122 9.1122 43.0740 0.0000 0.0000 0.0000
# 4 -0.1524 0.1524 0.0000 13.9406 0.0000 0.0000
# 5 0.0000 0.0000 0.0000 0.0000 13.9406 -0.1524
# 6 0.0000 0.0000 0.0000 0.0000 -0.1524 6.3415
#
#
#
# Elastic Compliance Matrix: (Units=1/GPa)
#
#
# Indices 1 2 3 4 5 6 
#
# 1 0.047986 -0.030880 -0.003619 0.000862 0.000000 0.000000
# 2 -0.030880 0.047986 -0.003619 -0.000862 0.000000 0.000000
# 3 -0.003619 -0.003619 0.024747 0.000000 0.000000 0.000000
# 4 0.000862 -0.000862 0.000000 0.071752 0.000000 0.000000
# 5 0.000000 0.000000 0.000000 0.000000 0.071752 0.001724
# 6 0.000000 0.000000 0.000000 0.000000 0.001724 0.157733
#
#
# Mechanical properties :
#
#
# Convention : Reuss Voigt Hill
#
# Bulk Modulus (GPa) = 22.48016 22.68370 22.58193
# Shear Modulus (GPa) = 9.74623 11.84666 10.79644
#
# Velocity S-wave (km/s) = 2.63404 2.90404 2.77233
# Velocity P-wave (km/s) = 5.02535 5.23381 5.13064
#
# Compressibility (1/GPa) = 0.04448366
#
# Stress axis : x y z
#
# Youngs Moduli (GPa) = 20.83936 20.83936 40.40905
#
# Poissons Ratio (x) = 0.64353 0.14623
# Poissons Ratio (y) = 0.64353 0.14623
# Poissons Ratio (z) = 0.07541 0.07541
#
# Static dielectric constant tensor:
#      x y z
#    x 1.451350 0.000000 0.000000 
#    y 0.000000 1.451350 0.000000 
#    z 0.000000 0.000000 1.566300 
# 
# From -- ./inp_files/1366.got.cif
#   From: 2010.05.17/outbox.cif.g08.bks.cpg/sg152_1_cif.got.tgz:1366.got - 2010.05.20 10:36:06.
