data_PCOD9575028
_publ_section_title
;
Structure prediction by ZEFSAII (Michael W. Deem and Ramdas Pophale) SiO2 
 PCOD9575028
Probable space group: R -3
;
_chemical_formula_sum "Si O2"
_cell_formula_units_Z 120
_cell_length_a 17.323301
_cell_length_b 17.323301
_cell_length_c 24.122495
_cell_angle_alpha 90.000000
_cell_angle_beta 90.000000
_cell_angle_gamma 120.000000
_cell_volume 6269.229374
_symmetry_space_group_name_H-M "R -3"
_symmetry_group_IT_number 148
_symmetry_cell_setting 'hexagonal'
loop_
_space_group_symop_operation_xyz
x,y,z
-y,x-y,z
-x+y,-x,z
-x,-y,-z
y,-x+y,-z
x-y,x,-z
2/3+x,1/3+y,1/3+z
2/3-y,1/3+x-y,1/3+z
2/3-x+y,1/3-x,1/3+z
2/3-x,1/3-y,1/3-z
2/3+y,1/3-x+y,1/3-z
2/3+x-y,1/3+x,1/3-z
1/3+x,2/3+y,2/3+z
1/3-y,2/3+x-y,2/3+z
1/3-x+y,2/3-x,2/3+z
1/3-x,2/3-y,2/3-z
1/3+y,2/3-x+y,2/3-z
1/3+x-y,2/3+x,2/3-z
loop_
_atom_site_type_symbol
_atom_site_label
_atom_site_fract_x
_atom_site_fract_y
_atom_site_fract_z
Si Si1 0.696714 0.043104 0.249128
Si Si2 0.674583 0.506566 0.015899
Si Si3 0.038543 0.284228 0.506286
Si Si4 0.694665 0.854282 0.606501
Si Si5 0.333334 0.666668 0.239057
Si Si6 0.063372 0.862065 0.986426
Si Si7 0.666668 0.333334 0.039303
Si Si8 0.462263 0.245778 0.759856
O O1 0.760858 0.015375 0.281438
O O2 0.728194 0.146984 0.261725
O O3 0.688093 0.007172 0.186333
O O4 0.595261 0.997241 0.272708
O O5 0.672045 0.427122 0.052125
O O6 0.760154 0.548796 0.973567
O O7 0.591537 0.465696 0.972794
O O8 0.122442 0.307754 0.545867
O O9 0.057154 0.241349 0.452068
O O10 0.958267 0.212057 0.543482
O O11 0.617824 0.770680 0.638871
O O12 0.333334 0.666667 0.305593
O O13 0.433992 0.699126 0.222716
O O14 0.966973 0.838466 0.008366
#
# Coordination Sequence:
#
# PCOD9575028 Si02
#       8
#    18  18  18  18   6  18   6  18
#     4  10  20  34  53  79 112 142 175 225 273 314
#     4   9  20  34  50  75 107 144 183 223 260 317
#     4  11  19  30  48  74 112 146 176 212 263 324
#     4   9  19  35  53  80 113 138 175 223 272 322
#     4   9  18  28  46  75 108 138 186 219 249 307
#     4   9  18  36  62  84 103 132 178 233 281 317
#     4   9  18  33  52  73 105 144 189 219 256 316
#     4  10  19  29  46  74 105 149 181 215 257 313
#
# _framework density 19.141109
#
# number of rings (size 3 to 8) (size 9 to 14) (size 15 to 20)
#    0.000    2.400    1.500    1.050    6.300    1.200 
#    0.000    0.750    0.000    3.600    0.000    0.000 
#    0.000    0.000    0.000    0.000    0.000    0.000 
#
# Total GULP energy -222677.946753 kJ/mol
# GULP energy per Si atom -5566.948669 kJ/mol
# Density = 1.909754 g / cm^3
# Si number density = 19.141109 Si / 1000 Ang^3
#
#
#
# Elastic Constant Matrix: (Units=GPa)
#
#
# Indices 1 2 3 4 5 6 
#
# 1 65.1315 48.9690 22.6436 2.3050 -9.8494 0.0001
# 2 48.9690 65.1288 22.6435 -2.3049 9.8498 -0.0002
# 3 22.6436 22.6435 29.4832 -0.0003 0.0001 0.0002
# 4 2.3050 -2.3049 -0.0003 10.2047 -0.0004 9.8502
# 5 -9.8494 9.8498 0.0001 -0.0004 10.2044 2.3053
# 6 0.0001 -0.0002 0.0002 9.8502 2.3053 8.0790
#
#
#
# Elastic Compliance Matrix: (Units=1/GPa)
#
#
# Indices 1 2 3 4 5 6 
#
# 1 -0.122091 0.134703 -0.009684 0.058084 -0.247843 -0.000095
# 2 0.134703 -0.122100 -0.009681 -0.058081 0.247852 0.000090
# 3 -0.009684 -0.009681 0.048791 -0.000008 -0.000006 0.000010
# 4 0.058084 -0.058081 -0.000008 -0.406091 0.000276 0.495043
# 5 -0.247843 0.247852 -0.000006 0.000276 -0.406599 0.115690
# 6 -0.000095 0.000090 0.000010 0.495043 0.115690 -0.512810
#
#
# Mechanical properties :
#
#
# Convention : Reuss Voigt Hill
#
# Bulk Modulus (GPa) = 28.34900 38.69510 33.52205
# Shear Modulus (GPa) = -2.87386 10.06345 3.59479
#
# Velocity S-wave (km/s) = -1.22665 2.29541 1.37191
# Velocity P-wave (km/s) = 3.58280 5.22349 4.47891
#
# Compressibility (1/GPa) = 0.03527461
#
# Stress axis : x y z
#
# Youngs Moduli (GPa) = -8.19060 -8.18998 20.49572
#
# Poissons Ratio (x) = 1.10322 0.19849
# Poissons Ratio (y) = 1.10330 0.19842
# Poissons Ratio (z) = -0.07932 -0.07929
#
# Static dielectric constant tensor:
#      x y z
#    x 1.700350 0.000000 0.000000 
#    y 0.000000 1.700350 0.000000 
#    z 0.000000 0.000000 1.705790 
# 
# From -- ./inp_files/3475.got.cif
#   From: 2010.05.17/outbox.cif.g08.bks.cpg/sg148_2_cif.got.tgz:3475.got - 2010.05.20 13:50:20.
