data_PCOD9575438
_publ_section_title
;
Structure prediction by ZEFSAII (Michael W. Deem and Ramdas Pophale) SiO2 
 PCOD9575438
Probable space group: P 3 2 1
;
_chemical_formula_sum "Si O2"
_cell_formula_units_Z 34
_cell_length_a 11.653893
_cell_length_b 11.653893
_cell_length_c 14.219453
_cell_angle_alpha 90.000000
_cell_angle_beta 90.000000
_cell_angle_gamma 120.000000
_cell_volume 1672.459364
_symmetry_space_group_name_H-M "P 3 2 1"
_symmetry_group_IT_number 150
_symmetry_cell_setting 'hexagonal'
loop_
_space_group_symop_operation_xyz
x,y,z
-y,x-y,z
-x+y,-x,z
x-y,-y,-z
-x,-x+y,-z
y,x,-z
loop_
_atom_site_type_symbol
_atom_site_label
_atom_site_fract_x
_atom_site_fract_y
_atom_site_fract_z
Si Si1 0.689176 0.613125 0.408349
Si Si2 0.666667 0.333333 0.210868
Si Si3 0.275909 0.026313 0.199665
Si Si4 0.333333 0.666668 0.017131
Si Si5 0.541369 0.479394 0.901887
Si Si6 0.456871 0.345907 0.347682
Si Si7 0.259576 0.283251 0.201673
O O1 0.690981 0.690981 0.500000
O O2 0.732780 0.694218 0.311232
O O3 0.541923 0.490820 0.389594
O O4 0.786743 0.553093 0.417482
O O5 0.541997 0.337674 0.258026
O O6 0.666668 0.333334 0.097089
O O7 0.392782 0.014443 0.148150
O O8 0.139736 0.889374 0.186017
O O9 0.271111 0.156523 0.167767
O O10 0.204316 0.546419 0.063964
O O11 0.425221 0.364104 0.841858
O O12 0.474833 0.474833 0.000000
O O13 0.312281 0.305766 0.309555
#
# Coordination Sequence:
#
# PCOD9575438 Si02
#       7
#     6   2   6   2   6   6   6
#     4  10  21  38  62  97 128 163 220 262 324 391
#     4   9  18  36  63  94 122 172 225 267 312 397
#     4  11  25  45  66  96 131 175 219 266 331 395
#     4  12  24  39  66 100 134 163 231 270 333 388
#     4  12  26  41  66 100 130 169 219 277 327 385
#     4   9  19  37  64  88 127 174 215 264 324 380
#     4  11  23  44  66  92 131 176 214 269 325 394
#
# _framework density 20.329340999999999
#
# number of rings (size 3 to 8) (size 9 to 14) (size 15 to 20)
#    0.000    1.412    3.529    1.765    7.412    1.412 
#    1.059    2.647    0.000    2.118    0.000    0.000 
#    0.000    0.000    0.000    0.000    0.000    0.000 
#
# Total GULP energy -189709.175988 kJ/mol
# GULP energy per Si atom -5579.681647 kJ/mol
# Density = 2.028307 g / cm^3
# Si number density = 20.329341 Si / 1000 Ang^3
#
#
#
# Elastic Constant Matrix: (Units=GPa)
#
#
# Indices 1 2 3 4 5 6 
#
# 1 74.7472 10.3998 13.5926 0.0224 0.0000 0.0000
# 2 10.3998 74.7470 13.5929 -0.0224 0.0000 0.0000
# 3 13.5926 13.5929 76.9170 0.0000 0.0000 0.0000
# 4 0.0224 -0.0224 0.0000 14.3493 0.0000 0.0000
# 5 0.0000 0.0000 0.0000 0.0000 14.3493 0.0224
# 6 0.0000 0.0000 0.0000 0.0000 0.0224 32.1735
#
#
#
# Elastic Compliance Matrix: (Units=1/GPa)
#
#
# Indices 1 2 3 4 5 6 
#
# 1 0.013994 -0.001547 -0.002200 -0.000024 0.000000 0.000000
# 2 -0.001547 0.013994 -0.002200 0.000024 0.000000 0.000000
# 3 -0.002200 -0.002200 0.013778 0.000000 0.000000 0.000000
# 4 -0.000024 0.000024 0.000000 0.069690 0.000000 0.000000
# 5 0.000000 0.000000 0.000000 0.000000 0.069690 -0.000049
# 6 0.000000 0.000000 0.000000 0.000000 -0.000049 0.031081
#
#
# Mechanical properties :
#
#
# Convention : Reuss Voigt Hill
#
# Bulk Modulus (GPa) = 33.47447 33.50909 33.49178
# Shear Modulus (GPa) = 21.36047 24.76281 23.06164
#
# Velocity S-wave (km/s) = 3.24500 3.49389 3.37174
# Velocity P-wave (km/s) = 5.52647 5.72671 5.62748
#
# Compressibility (1/GPa) = 0.02987351
#
# Stress axis : x y z
#
# Youngs Moduli (GPa) = 71.46095 71.46067 72.57715
#
# Poissons Ratio (x) = 0.11055 0.15964
# Poissons Ratio (y) = 0.11055 0.15964
# Poissons Ratio (z) = 0.15718 0.15719
#
# Static dielectric constant tensor:
#      x y z
#    x 1.834260 0.000000 0.000000 
#    y 0.000000 1.834270 -0.000010 
#    z 0.000000 -0.000010 1.736810 
# 
# From -- ./inp_files/1036.got.cif
#   From: 2010.05.17/outbox.cif.g08.bks.cpg/sg150_cif.got.tgz:1036.got - 2010.05.20 13:53:18.
