data_PCOD9575874
_publ_section_title
;
Structure prediction by ZEFSAII (Michael W. Deem and Ramdas Pophale) SiO2 
 PCOD9575874
Probable space group: P 31 2 1
;
_chemical_formula_sum "Si O2"
_cell_formula_units_Z 36
_cell_length_a 8.683896
_cell_length_b 8.683896
_cell_length_c 26.407721
_cell_angle_alpha 90.000000
_cell_angle_beta 90.000000
_cell_angle_gamma 120.000000
_cell_volume 1724.609531
_symmetry_space_group_name_H-M "P 31 2 1"
_symmetry_group_IT_number 152
_symmetry_cell_setting 'hexagonal'
loop_
_space_group_symop_operation_xyz
x,y,z
-y,x-y,1/3+z
-x+y,-x,2/3+z
x-y,-y,2/3-z
-x,-x+y,1/3-z
y,x,-z
loop_
_atom_site_type_symbol
_atom_site_label
_atom_site_fract_x
_atom_site_fract_y
_atom_site_fract_z
Si Si1 0.957450 0.343620 0.223797
Si Si2 0.755505 0.098782 0.921316
Si Si3 0.974112 0.466002 0.891786
Si Si4 0.590643 0.437460 0.879582
Si Si5 0.125084 0.402220 0.618105
Si Si6 0.762480 0.498699 0.365287
O O1 0.958139 0.530821 0.225062
O O2 0.753466 0.204108 0.235960
O O3 0.000000 0.312764 0.166667
O O4 0.098179 0.365104 0.266285
O O5 0.916236 0.258198 0.891895
O O6 0.750407 0.917993 0.934382
O O7 0.748255 0.186054 0.974745
O O8 0.790189 0.470009 0.886279
O O9 0.108399 0.562847 0.845932
O O10 0.076138 0.562211 0.942736
O O11 0.567007 0.588061 0.906521
O O12 0.309650 0.580821 0.631114
O O13 0.000000 0.341382 0.666667
#
# Coordination Sequence:
#
# PCOD9575874 Si02
#       6
#     6   6   6   6   6   6
#     4  10  20  39  64  92 124 175 217 257 322 400
#     4  10  23  37  65  89 128 169 212 260 317 402
#     4  11  22  40  62  93 127 165 220 264 324 390
#     4  11  23  39  63  94 126 168 217 271 322 392
#     4  11  23  41  63  92 127 167 213 268 328 387
#     4  11  21  42  67  94 124 173 218 265 330 394
#
# _framework density 20.874290999999999
#
# number of rings (size 3 to 8) (size 9 to 14) (size 15 to 20)
#    0.000    1.333    1.667    6.000    7.000    0.000 
#    0.000    9.167    0.000    0.000    0.000    0.000 
#    0.000    0.000    0.000    0.000    0.000    0.000 
#
# Total GULP energy -201207.855042 kJ/mol
# GULP energy per Si atom -5589.107084 kJ/mol
# Density = 2.082678 g / cm^3
# Si number density = 20.874291 Si / 1000 Ang^3
#
#
#
# Elastic Constant Matrix: (Units=GPa)
#
#
# Indices 1 2 3 4 5 6 
#
# 1 81.3698 19.0726 5.3944 9.6609 0.0001 0.0000
# 2 19.0726 81.3698 5.3944 -9.6609 -0.0001 0.0000
# 3 5.3944 5.3944 58.4994 0.0000 0.0000 0.0000
# 4 9.6609 -9.6609 0.0000 35.3505 0.0000 -0.0001
# 5 0.0001 -0.0001 0.0000 0.0000 35.3505 9.6609
# 6 0.0000 0.0000 0.0000 -0.0001 9.6609 31.1486
#
#
#
# Elastic Compliance Matrix: (Units=1/GPa)
#
#
# Indices 1 2 3 4 5 6 
#
# 1 0.013797 -0.003742 -0.000927 -0.004793 0.000000 0.000000
# 2 -0.003742 0.013797 -0.000927 0.004793 0.000000 0.000000
# 3 -0.000927 -0.000927 0.017265 0.000000 0.000000 0.000000
# 4 -0.004793 0.004793 0.000000 0.030908 0.000000 0.000000
# 5 0.000000 0.000000 0.000000 0.000000 0.030908 -0.009586
# 6 0.000000 0.000000 0.000000 0.000000 -0.009586 0.035077
#
#
# Mechanical properties :
#
#
# Convention : Reuss Voigt Hill
#
# Bulk Modulus (GPa) = 29.70240 31.21797 30.46018
# Shear Modulus (GPa) = 30.45668 33.12841 31.79255
#
# Velocity S-wave (km/s) = 3.82390 3.98809 3.90686
# Velocity P-wave (km/s) = 5.81002 6.01616 5.91399
#
# Compressibility (1/GPa) = 0.03366731
#
# Stress axis : x y z
#
# Youngs Moduli (GPa) = 72.47879 72.47879 57.92001
#
# Poissons Ratio (x) = 0.27119 0.05371
# Poissons Ratio (y) = 0.27119 0.05371
# Poissons Ratio (z) = 0.06721 0.06721
#
# Static dielectric constant tensor:
#      x y z
#    x 1.752950 0.000000 0.000000 
#    y 0.000000 1.752950 0.000000 
#    z 0.000000 0.000000 1.806290 
# 
# From -- ./inp_files/3363.got.cif
#   From: 2010.05.17/outbox.cif.g08.bks.cpg/sg152_2_cif.got.tgz:3363.got - 2010.05.20 10:36:06.
