data_PCOD9575048
_publ_section_title
;
Structure prediction by ZEFSAII (Michael W. Deem and Ramdas Pophale) SiO2 
 PCOD9575048
Probable space group: R -3
;
_chemical_formula_sum "Si O2"
_cell_formula_units_Z 42
_cell_length_a 8.560418
_cell_length_b 8.560418
_cell_length_c 36.203301
_cell_angle_alpha 90.000000
_cell_angle_beta 90.000000
_cell_angle_gamma 120.000000
_cell_volume 2297.569968
_symmetry_space_group_name_H-M "R -3"
_symmetry_group_IT_number 148
_symmetry_cell_setting 'hexagonal'
loop_
_space_group_symop_operation_xyz
x,y,z
-y,x-y,z
-x+y,-x,z
-x,-y,-z
y,-x+y,-z
x-y,x,-z
2/3+x,1/3+y,1/3+z
2/3-y,1/3+x-y,1/3+z
2/3-x+y,1/3-x,1/3+z
2/3-x,1/3-y,1/3-z
2/3+y,1/3-x+y,1/3-z
2/3+x-y,1/3+x,1/3-z
1/3+x,2/3+y,2/3+z
1/3-y,2/3+x-y,2/3+z
1/3-x+y,2/3-x,2/3+z
1/3-x,2/3-y,2/3-z
1/3+y,2/3-x+y,2/3-z
1/3+x-y,2/3+x,2/3-z
loop_
_atom_site_type_symbol
_atom_site_label
_atom_site_fract_x
_atom_site_fract_y
_atom_site_fract_z
Si Si1 0.950500 0.622257 0.928456
Si Si2 0.666667 0.333334 0.686532
Si Si3 0.000000 0.000000 0.955400
Si Si4 0.333334 0.666668 0.931637
Si Si5 0.333334 0.666668 0.210350
O O1 0.856019 0.483886 0.962668
O O2 0.970763 0.810768 0.940477
O O3 0.813031 0.524768 0.894732
O O4 0.143706 0.645090 0.919729
O O5 0.666668 0.333334 0.642973
O O6 0.000000 0.000000 0.000000
O O7 0.333335 0.666668 0.166667
#
# Coordination Sequence:
#
# PCOD9575048 Si02
#       5
#    18   6   6   6   6
#     4  10  21  35  56  85 115 154 196 230 280 348
#     4  10  19  33  52  83 121 159 186 225 283 344
#     4  12  21  36  58  92 130 157 179 223 280 353
#     4  12  19  34  55  86 121 150 183 234 286 353
#     4  10  23  46  63  78 108 148 200 262 294 318
#
# _framework density 18.280182
#
# number of rings (size 3 to 8) (size 9 to 14) (size 15 to 20)
#    0.000    1.714    0.000    9.000    0.000    0.000 
#    0.000    8.571    0.000    0.000    0.000    0.000 
#    0.000    0.000    0.000    0.000    0.000    0.000 
#
# Total GULP energy -78226.931135 kJ/mol
# GULP energy per Si atom -5587.637938 kJ/mol
# Density = 1.823858 g / cm^3
# Si number density = 18.280182 Si / 1000 Ang^3
#
#
#
# Elastic Constant Matrix: (Units=GPa)
#
#
# Indices 1 2 3 4 5 6 
#
# 1 137.2570 66.1029 28.6826 -2.5155 2.8323 -0.0009
# 2 66.1029 137.2606 28.6830 2.5155 -2.8320 -0.0001
# 3 28.6826 28.6830 93.8783 0.0004 0.0000 -0.0012
# 4 -2.5155 2.5155 0.0004 12.8138 0.0000 -2.8320
# 5 2.8323 -2.8320 0.0000 0.0000 12.8136 -2.5153
# 6 -0.0009 -0.0001 -0.0012 -2.8320 -2.5153 35.5782
#
#
#
# Elastic Compliance Matrix: (Units=1/GPa)
#
#
# Indices 1 2 3 4 5 6 
#
# 1 0.009946 -0.004565 -0.001644 0.002849 -0.003207 0.000000
# 2 -0.004565 0.009946 -0.001644 -0.002849 0.003207 0.000000
# 3 -0.001644 -0.001644 0.011657 0.000000 0.000000 0.000000
# 4 0.002849 -0.002849 0.000000 0.080577 0.000000 0.006414
# 5 -0.003207 0.003207 0.000000 0.000000 0.080578 0.005697
# 6 0.000000 0.000000 0.000000 0.006414 0.005697 0.029020
#
#
# Mechanical properties :
#
#
# Convention : Reuss Voigt Hill
#
# Bulk Modulus (GPa) = 63.12104 68.37031 65.74567
# Shear Modulus (GPa) = 20.60071 28.56961 24.58516
#
# Velocity S-wave (km/s) = 3.36064 3.95761 3.67128
# Velocity P-wave (km/s) = 7.04722 7.63977 7.34947
#
# Compressibility (1/GPa) = 0.01584258
#
# Stress axis : x y z
#
# Youngs Moduli (GPa) = 100.54415 100.54695 85.78725
#
# Poissons Ratio (x) = 0.45896 0.14105
# Poissons Ratio (y) = 0.45895 0.14104
# Poissons Ratio (z) = 0.16531 0.16531
#
# Static dielectric constant tensor:
#      x y z
#    x 1.638990 0.000000 0.000000 
#    y 0.000000 1.638990 0.000000 
#    z 0.000000 0.000000 1.594760 
# 
# From -- ./inp_files/3860.got.cif
#   From: 2010.05.17/outbox.cif.g08.bks.cpg/sg148_2_cif.got.tgz:3860.got - 2010.05.20 13:50:20.
