data_PCOD9575897
_publ_section_title
;
Structure prediction by ZEFSAII (Michael W. Deem and Ramdas Pophale) SiO2 
 PCOD9575897
Probable space group: P 31 2 1
;
_chemical_formula_sum "Si O2"
_cell_formula_units_Z 36
_cell_length_a 7.818518
_cell_length_b 7.818518
_cell_length_c 28.167711
_cell_angle_alpha 90.000000
_cell_angle_beta 90.000000
_cell_angle_gamma 120.000000
_cell_volume 1491.183428
_symmetry_space_group_name_H-M "P 31 2 1"
_symmetry_group_IT_number 152
_symmetry_cell_setting 'hexagonal'
loop_
_space_group_symop_operation_xyz
x,y,z
-y,x-y,1/3+z
-x+y,-x,2/3+z
x-y,-y,2/3-z
-x,-x+y,1/3-z
y,x,-z
loop_
_atom_site_type_symbol
_atom_site_label
_atom_site_fract_x
_atom_site_fract_y
_atom_site_fract_z
Si Si1 0.178182 0.714693 0.529981
Si Si2 0.819619 0.000000 0.833334
Si Si3 0.966363 0.000000 0.333334
Si Si4 0.448355 0.668429 0.591091
Si Si5 0.118846 0.684845 0.017960
Si Si6 0.114124 0.951274 0.769872
Si Si7 0.655705 0.498989 0.223735
O O1 0.245884 0.585673 0.561345
O O2 0.205991 0.688932 0.474650
O O3 0.972307 0.707767 0.539401
O O4 0.349205 0.926313 0.548062
O O5 0.621144 0.859586 0.804919
O O6 0.986216 0.044563 0.792168
O O7 0.896474 0.055191 0.285158
O O8 0.167101 0.200718 0.344592
O O9 0.468058 0.818707 0.633106
O O10 0.458452 0.503982 0.622314
O O11 0.653204 0.761597 0.560978
O O12 0.299142 0.775992 0.055784
#
# Coordination Sequence:
#
# PCOD9575897 Si02
#       7
#     6   3   3   6   6   6   6
#     4  11  25  44  67 104 135 183 232 296 353 437
#     4  10  20  42  66  96 130 182 222 286 354 424
#     4  10  20  46  68  88 134 184 224 282 360 412
#     4  11  26  44  72  98 139 182 238 292 365 434
#     4  11  23  46  67 101 133 184 230 298 349 438
#     4  10  24  42  71  91 139 182 230 286 363 424
#     4  11  24  42  68  98 142 173 239 290 354 430
#
# _framework density 24.141901000000001
#
# number of rings (size 3 to 8) (size 9 to 14) (size 15 to 20)
#    0.000    1.333    3.333    2.000    9.333    0.000 
#    3.000    0.000    0.000    0.000    0.000    0.000 
#    0.000    0.000    0.000    0.000    0.000    0.000 
#
# Total GULP energy -200893.057867 kJ/mol
# GULP energy per Si atom -5580.362719 kJ/mol
# Density = 2.408695 g / cm^3
# Si number density = 24.141901 Si / 1000 Ang^3
#
#
#
# Elastic Constant Matrix: (Units=GPa)
#
#
# Indices 1 2 3 4 5 6 
#
# 1 41.2121 -3.0542 29.6619 -4.6154 0.0002 0.0000
# 2 -3.0542 41.2121 29.6619 4.6154 -0.0002 0.0000
# 3 29.6619 29.6619 120.3246 0.0000 0.0000 0.0000
# 4 -4.6154 4.6154 0.0000 41.2357 0.0000 -0.0002
# 5 0.0002 -0.0002 0.0000 0.0000 41.2357 -4.6154
# 6 0.0000 0.0000 0.0000 -0.0002 -4.6154 22.1332
#
#
#
# Elastic Compliance Matrix: (Units=1/GPa)
#
#
# Indices 1 2 3 4 5 6 
#
# 1 0.032811 0.009681 -0.010475 0.002589 0.000000 0.000000
# 2 0.009681 0.032811 -0.010475 -0.002589 0.000000 0.000000
# 3 -0.010475 -0.010475 0.013475 0.000000 0.000000 0.000000
# 4 0.002589 -0.002589 0.000000 0.024830 0.000000 0.000000
# 5 0.000000 0.000000 0.000000 0.000000 0.024830 0.005178
# 6 0.000000 0.000000 0.000000 0.000000 0.005178 0.046261
#
#
# Mechanical properties :
#
#
# Convention : Reuss Voigt Hill
#
# Bulk Modulus (GPa) = 17.68036 35.03202 26.35619
# Shear Modulus (GPa) = 23.10416 30.68620 26.89518
#
# Velocity S-wave (km/s) = 3.09692 3.56908 3.34135
# Velocity P-wave (km/s) = 4.48635 5.61488 5.08204
#
# Compressibility (1/GPa) = 0.05655994
#
# Stress axis : x y z
#
# Youngs Moduli (GPa) = 30.47722 30.47722 74.20934
#
# Poissons Ratio (x) = -0.29505 0.77735
# Poissons Ratio (y) = -0.29505 0.77735
# Poissons Ratio (z) = 0.31925 0.31925
#
# Static dielectric constant tensor:
#      x y z
#    x 2.244800 0.000000 0.000000 
#    y 0.000000 2.244800 0.000000 
#    z 0.000000 0.000000 1.932170 
# 
# From -- ./inp_files/3579.got.cif
#   From: 2010.05.17/outbox.cif.g08.bks.cpg/sg152_2_cif.got.tgz:3579.got - 2010.05.20 10:36:06.
