data_PCOD9575312
_publ_section_title
;
Structure prediction by ZEFSAII (Michael W. Deem and Ramdas Pophale) SiO2 
 PCOD9575312
Probable space group: R -3
;
_chemical_formula_sum "Si O2"
_cell_formula_units_Z 60
_cell_length_a 18.047425
_cell_length_b 18.047425
_cell_length_c 7.164590
_cell_angle_alpha 90.000000
_cell_angle_beta 90.000000
_cell_angle_gamma 120.000000
_cell_volume 2020.935560
_symmetry_space_group_name_H-M "R -3"
_symmetry_group_IT_number 148
_symmetry_cell_setting 'hexagonal'
loop_
_space_group_symop_operation_xyz
x,y,z
-y,x-y,z
-x+y,-x,z
-x,-y,-z
y,-x+y,-z
x-y,x,-z
2/3+x,1/3+y,1/3+z
2/3-y,1/3+x-y,1/3+z
2/3-x+y,1/3-x,1/3+z
2/3-x,1/3-y,1/3-z
2/3+y,1/3-x+y,1/3-z
2/3+x-y,1/3+x,1/3-z
1/3+x,2/3+y,2/3+z
1/3-y,2/3+x-y,2/3+z
1/3-x+y,2/3-x,2/3+z
1/3-x,2/3-y,2/3-z
1/3+y,2/3-x+y,2/3-z
1/3+x-y,2/3+x,2/3-z
loop_
_atom_site_type_symbol
_atom_site_label
_atom_site_fract_x
_atom_site_fract_y
_atom_site_fract_z
Si Si1 0.000000 0.000000 0.729895
Si Si2 0.279226 0.338723 0.858528
Si Si3 0.569493 0.755373 0.334147
Si Si4 0.844293 0.379795 0.573424
O O1 0.057487 0.960789 0.798517
O O2 0.000000 0.000000 0.500000
O O3 0.306087 0.341307 0.646387
O O4 0.437613 0.333558 0.592046
O O5 0.178995 0.266514 0.874304
O O6 0.666667 0.833334 0.333334
O O7 0.522197 0.799061 0.438276
O O8 0.535136 0.737482 0.122829
#
# Coordination Sequence:
#
# PCOD9575312 Si02
#       4
#     6  18  18  18
#     4  12  24  48  87 111 160 243 264 343 426 504
#     4  12  24  47  80 123 162 211 269 348 413 487
#     4  12  22  43  78 115 164 213 266 335 413 487
#     4  12  24  48  78 118 164 218 286 328 419 502
#
# _framework density 29.689219999999999
#
# number of rings (size 3 to 8) (size 9 to 14) (size 15 to 20)
#    0.000    0.000    9.000    0.000    0.000    0.000 
#    0.000   24.000    0.000    5.400    0.000    0.000 
#    0.000    0.000    0.000    0.000    0.000    0.000 
#
# Total GULP energy -112106.851214 kJ/mol
# GULP energy per Si atom -5605.342561 kJ/mol
# Density = 2.962165 g / cm^3
# Si number density = 29.689220 Si / 1000 Ang^3
#
#
#
# Elastic Constant Matrix: (Units=GPa)
#
#
# Indices 1 2 3 4 5 6 
#
# 1 227.9067 93.0592 29.0740 -10.5589 -16.9835 0.0010
# 2 93.0592 227.9024 29.0544 10.5596 16.9873 -0.0003
# 3 29.0740 29.0544 109.6524 0.0075 0.0191 0.0033
# 4 -10.5589 10.5596 0.0075 54.2174 0.0031 16.9907
# 5 -16.9835 16.9873 0.0191 0.0031 54.2247 -10.5593
# 6 0.0010 -0.0003 0.0033 16.9907 -10.5593 67.4202
#
#
#
# Elastic Compliance Matrix: (Units=1/GPa)
#
#
# Indices 1 2 3 4 5 6 
#
# 1 0.005800 -0.002527 -0.000869 0.001622 0.002608 0.000000
# 2 -0.002527 0.005800 -0.000866 -0.001622 -0.002608 0.000000
# 3 -0.000869 -0.000866 0.009580 -0.000002 -0.000004 -0.000001
# 4 0.001622 -0.001622 -0.000002 0.020712 -0.000002 -0.005220
# 5 0.002608 -0.002608 -0.000004 -0.000002 0.020707 0.003244
# 6 0.000000 0.000000 -0.000001 -0.005220 0.003244 0.016656
#
#
# Mechanical properties :
#
#
# Convention : Reuss Voigt Hill
#
# Bulk Modulus (GPa) = 79.01901 96.42631 87.72266
# Shear Modulus (GPa) = 54.34981 62.79074 58.57027
#
# Velocity S-wave (km/s) = 4.28322 4.60383 4.44642
# Velocity P-wave (km/s) = 7.15084 7.79804 7.48144
#
# Compressibility (1/GPa) = 0.01265518
#
# Stress axis : x y z
#
# Youngs Moduli (GPa) = 172.41428 172.42337 104.38873
#
# Poissons Ratio (x) = 0.43573 0.09069
# Poissons Ratio (y) = 0.43571 0.09041
# Poissons Ratio (z) = 0.14979 0.14934
#
# Static dielectric constant tensor:
#      x y z
#    x 2.337980 0.000000 0.000000 
#    y 0.000000 2.337980 0.000000 
#    z 0.000000 0.000000 2.240010 
# 
# From -- ./inp_files/756.got.cif
#   From: 2010.05.17/outbox.cif.g08.bks.cpg/sg148_1_cif.got.tgz:756.got - 2010.05.20 13:50:20.
