data_PCOD9575903
_publ_section_title
;
Structure prediction by ZEFSAII (Michael W. Deem and Ramdas Pophale) SiO2 
 PCOD9575903
Probable space group: P 31 2 1
;
_chemical_formula_sum "Si O2"
_cell_formula_units_Z 42
_cell_length_a 20.663262
_cell_length_b 20.663262
_cell_length_c 5.399440
_cell_angle_alpha 90.000000
_cell_angle_beta 90.000000
_cell_angle_gamma 120.000000
_cell_volume 1996.535864
_symmetry_space_group_name_H-M "P 31 2 1"
_symmetry_group_IT_number 152
_symmetry_cell_setting 'hexagonal'
loop_
_space_group_symop_operation_xyz
x,y,z
-y,x-y,1/3+z
-x+y,-x,2/3+z
x-y,-y,2/3-z
-x,-x+y,1/3-z
y,x,-z
loop_
_atom_site_type_symbol
_atom_site_label
_atom_site_fract_x
_atom_site_fract_y
_atom_site_fract_z
Si Si1 0.444610 0.184830 0.232711
Si Si2 0.463483 0.594626 0.814945
Si Si3 0.800826 0.176617 0.076336
Si Si4 0.927225 0.927225 0.500000
Si Si5 0.075202 0.628862 0.787576
Si Si6 0.844390 0.049070 0.078875
Si Si7 0.328674 0.599314 0.812295
Si Si8 0.493826 0.000000 0.833334
O O1 0.485915 0.139406 0.310594
O O2 0.396978 0.181602 0.474034
O O3 0.513060 0.269645 0.205959
O O4 0.401117 0.166609 0.973495
O O5 0.407734 0.618475 0.681916
O O6 0.516102 0.577541 0.645494
O O7 0.403619 0.514621 0.928305
O O8 0.710979 0.130632 0.115855
O O9 0.828212 0.116844 0.093414
O O10 0.918480 0.852226 0.381738
O O11 0.954160 0.000000 0.333334
O O12 0.000000 0.621409 0.666667
O O13 0.047071 0.566201 0.997409
O O14 0.815050 0.000000 0.333334
O O15 0.806118 0.000000 0.833334
O O16 0.281021 0.638452 0.732434
#
# Coordination Sequence:
#
# PCOD9575903 Si02
#       8
#     6   6   6   3   6   6   6   3
#     4  11  26  40  65  90 135 180 223 288 345 416
#     4  10  22  40  61  91 124 173 235 290 352 416
#     4  12  25  44  63 101 141 179 222 280 356 410
#     4  10  20  42  74 116 148 178 224 268 330 400
#     4  10  22  38  65  92 127 170 228 288 340 411
#     4  11  24  42  75 108 146 183 225 274 338 418
#     4  10  22  36  61  94 125 170 221 300 365 411
#     4  10  22  38  66  86 120 176 226 296 340 414
#
# _framework density 21.036435000000001
#
# number of rings (size 3 to 8) (size 9 to 14) (size 15 to 20)
#    0.000    1.429    2.143    2.143    9.000    1.143 
#    0.000    0.714    0.000    0.000    0.000    0.000 
#    0.000    0.000    0.000    0.000    0.000    0.000 
#
# Total GULP energy -234182.146609 kJ/mol
# GULP energy per Si atom -5575.765395 kJ/mol
# Density = 2.098856 g / cm^3
# Si number density = 21.036435 Si / 1000 Ang^3
#
#
#
# Elastic Constant Matrix: (Units=GPa)
#
#
# Indices 1 2 3 4 5 6 
#
# 1 81.5792 40.0208 27.0691 0.9723 0.0001 0.0000
# 2 40.0208 81.5792 27.0691 -0.9723 -0.0001 0.0000
# 3 27.0691 27.0691 91.8431 0.0000 0.0000 0.0000
# 4 0.9723 -0.9723 0.0000 28.1189 0.0000 -0.0001
# 5 0.0001 -0.0001 0.0000 0.0000 28.1189 0.9723
# 6 0.0000 0.0000 0.0000 -0.0001 0.9723 20.7792
#
#
#
# Elastic Compliance Matrix: (Units=1/GPa)
#
#
# Indices 1 2 3 4 5 6 
#
# 1 0.016784 -0.007318 -0.002790 -0.000833 0.000000 0.000000
# 2 -0.007318 0.016784 -0.002790 0.000833 0.000000 0.000000
# 3 -0.002790 -0.002790 0.012533 0.000000 0.000000 0.000000
# 4 -0.000833 0.000833 0.000000 0.035621 0.000000 0.000000
# 5 0.000000 0.000000 0.000000 0.000000 0.035621 -0.001667
# 6 0.000000 0.000000 0.000000 0.000000 -0.001667 0.048203
#
#
# Mechanical properties :
#
#
# Convention : Reuss Voigt Hill
#
# Bulk Modulus (GPa) = 49.24959 49.25773 49.25366
# Shear Modulus (GPa) = 25.23873 26.12622 25.68248
#
# Velocity S-wave (km/s) = 3.46752 3.52796 3.49787
# Velocity P-wave (km/s) = 6.28442 6.32942 6.30696
#
# Compressibility (1/GPa) = 0.02030474
#
# Stress axis : x y z
#
# Youngs Moduli (GPa) = 59.58188 59.58188 79.79147
#
# Poissons Ratio (x) = 0.43601 0.22261
# Poissons Ratio (y) = 0.43601 0.22261
# Poissons Ratio (z) = 0.16623 0.16623
#
# Static dielectric constant tensor:
#      x y z
#    x 1.819410 0.000000 0.000000 
#    y 0.000000 1.819410 0.000000 
#    z 0.000000 0.000000 1.809430 
# 
# From -- ./inp_files/551.got.cif
#   From: 2010.05.17/outbox.cif.g08.bks.cpg/sg152_1_cif.got.tgz:551.got - 2010.05.20 10:36:06.
