data_PCOD9575747
_publ_section_title
;
Structure prediction by ZEFSAII (Michael W. Deem and Ramdas Pophale) SiO2 
 PCOD9575747
Probable space group: P 31 2 1
;
_chemical_formula_sum "Si O2"
_cell_formula_units_Z 48
_cell_length_a 11.506549
_cell_length_b 11.506549
_cell_length_c 20.820016
_cell_angle_alpha 90.000000
_cell_angle_beta 90.000000
_cell_angle_gamma 120.000000
_cell_volume 2387.271828
_symmetry_space_group_name_H-M "P 31 2 1"
_symmetry_group_IT_number 152
_symmetry_cell_setting 'hexagonal'
loop_
_space_group_symop_operation_xyz
x,y,z
-y,x-y,1/3+z
-x+y,-x,2/3+z
x-y,-y,2/3-z
-x,-x+y,1/3-z
y,x,-z
loop_
_atom_site_type_symbol
_atom_site_label
_atom_site_fract_x
_atom_site_fract_y
_atom_site_fract_z
Si Si1 0.867690 0.160757 0.125712
Si Si2 0.562976 0.851209 0.976450
Si Si3 0.376897 0.630916 0.077709
Si Si4 0.134497 0.156841 0.342846
Si Si5 0.563887 0.447403 0.672145
Si Si6 0.099077 0.287837 0.973675
Si Si7 0.725785 0.318250 0.115634
Si Si8 0.705918 0.038666 0.245245
O O1 0.856053 0.092272 0.057027
O O2 0.852052 0.293220 0.123935
O O3 0.745373 0.061639 0.171460
O O4 0.000000 0.196587 0.166667
O O5 0.460647 0.774306 0.918144
O O6 0.495713 0.751437 0.037699
O O7 0.720528 0.909030 0.965969
O O8 0.568715 0.992159 0.987716
O O9 0.357049 0.651185 0.152378
O O10 0.379668 0.490796 0.072326
O O11 0.234159 0.598059 0.046957
O O12 0.028747 0.181094 0.383730
O O13 0.053035 0.000000 0.333334
O O14 0.659082 0.603621 0.684474
O O15 0.563825 0.365671 0.733982
O O16 0.232937 0.347157 0.930457
O O17 0.159918 0.276520 0.042804
#
# Coordination Sequence:
#
# PCOD9575747 Si02
#       8
#     6   6   6   6   6   6   6   6
#     4  11  19  35  64  90 113 156 213 254 291 372
#     4  11  24  41  60  93 133 164 203 263 324 385
#     4   9  22  41  63  93 120 166 220 255 311 375
#     4  12  23  40  61  87 126 166 200 253 324 373
#     4  10  21  38  65  91 122 164 206 266 317 368
#     4  10  18  36  62  91 118 153 201 252 305 373
#     4  10  22  41  63  93 121 164 215 262 320 375
#     4   9  18  35  62  89 112 147 203 257 286 353
#
# _framework density 20.106632999999999
#
# number of rings (size 3 to 8) (size 9 to 14) (size 15 to 20)
#    0.000    1.750    3.750    0.750    5.250    1.000 
#    6.750    1.250    5.500    0.000    0.000    0.000 
#    0.000    0.000    0.000    0.000    0.000    0.000 
#
# Total GULP energy -267485.624691 kJ/mol
# GULP energy per Si atom -5572.617181 kJ/mol
# Density = 2.006087 g / cm^3
# Si number density = 20.106633 Si / 1000 Ang^3
#
#
#
# Elastic Constant Matrix: (Units=GPa)
#
#
# Indices 1 2 3 4 5 6 
#
# 1 -3.7117 38.6318 -10.7869 -1.4824 -0.0003 0.0000
# 2 38.6318 -3.7117 -10.7869 1.4824 0.0003 0.0000
# 3 -10.7869 -10.7869 53.7489 0.0000 0.0000 0.0000
# 4 -1.4824 1.4824 0.0000 15.5918 0.0000 0.0003
# 5 -0.0003 0.0003 0.0000 0.0000 15.5918 -1.4824
# 6 0.0000 0.0000 0.0000 0.0003 -1.4824 -21.1718
#
#
#
# Elastic Compliance Matrix: (Units=1/GPa)
#
#
# Indices 1 2 3 4 5 6 
#
# 1 0.004615 0.028075 0.006561 -0.002230 0.000000 0.000000
# 2 0.028075 0.004615 0.006561 0.002230 0.000000 0.000000
# 3 0.006561 0.006561 0.021238 0.000000 0.000000 0.000000
# 4 -0.002230 0.002230 0.000000 0.063712 0.000000 0.000001
# 5 0.000000 0.000000 0.000000 0.000000 0.063712 -0.004461
# 6 0.000000 0.000000 0.000000 0.000001 -0.004461 -0.046920
#
#
# Mechanical properties :
#
#
# Convention : Reuss Voigt Hill
#
# Bulk Modulus (GPa) = 8.86049 8.93794 8.89922
# Shear Modulus (GPa) = 75.52879 3.95352 39.74116
#
# Velocity S-wave (km/s) = 6.13561 1.40376 4.45063
# Velocity P-wave (km/s) = 7.38989 2.66126 5.55396
#
# Compressibility (1/GPa) = 0.11286052
#
# Stress axis : x y z
#
# Youngs Moduli (GPa) = 216.68986 216.68986 47.08471
#
# Poissons Ratio (x) = -6.08359 -0.30890
# Poissons Ratio (y) = -6.08359 -0.30890
# Poissons Ratio (z) = -1.42161 -1.42161
#
# Static dielectric constant tensor:
#      x y z
#    x 1.756950 0.000000 0.000000 
#    y 0.000000 1.756950 0.000000 
#    z 0.000000 0.000000 1.756430 
# 
# From -- ./inp_files/3137.got.cif
#   From: 2010.05.17/outbox.cif.g08.bks.cpg/sg152_2_cif.got.tgz:3137.got - 2010.05.20 10:36:06.
