data_PCOD9575324
_publ_section_title
;
Structure prediction by ZEFSAII (Michael W. Deem and Ramdas Pophale) SiO2 
 PCOD9575324
Probable space group: R -3
;
_chemical_formula_sum "Si O2"
_cell_formula_units_Z 36
_cell_length_a 13.188007
_cell_length_b 13.188007
_cell_length_c 9.196207
_cell_angle_alpha 90.000000
_cell_angle_beta 90.000000
_cell_angle_gamma 120.000000
_cell_volume 1385.152876
_symmetry_space_group_name_H-M "R -3"
_symmetry_group_IT_number 148
_symmetry_cell_setting 'hexagonal'
loop_
_space_group_symop_operation_xyz
x,y,z
-y,x-y,z
-x+y,-x,z
-x,-y,-z
y,-x+y,-z
x-y,x,-z
2/3+x,1/3+y,1/3+z
2/3-y,1/3+x-y,1/3+z
2/3-x+y,1/3-x,1/3+z
2/3-x,1/3-y,1/3-z
2/3+y,1/3-x+y,1/3-z
2/3+x-y,1/3+x,1/3-z
1/3+x,2/3+y,2/3+z
1/3-y,2/3+x-y,2/3+z
1/3-x+y,2/3-x,2/3+z
1/3-x,2/3-y,2/3-z
1/3+y,2/3-x+y,2/3-z
1/3+x-y,2/3+x,2/3-z
loop_
_atom_site_type_symbol
_atom_site_label
_atom_site_fract_x
_atom_site_fract_y
_atom_site_fract_z
Si Si1 0.008348 0.793267 0.417057
Si Si2 0.215081 0.206733 0.082943
O O1 0.896327 0.774867 0.507851
O O2 0.999823 0.666667 0.416667
O O3 0.999999 0.823543 0.250000
O O4 0.225133 0.103673 0.007850
#
# Coordination Sequence:
#
# PCOD9575324 Si02
#       2
#    18  18
#     4  12  26  48  76 110 146 192 244 302 362 432
#     4  12  26  48  76 110 146 192 244 302 362 432
#
# _framework density 25.989910999999999
#
# number of rings (size 3 to 8) (size 9 to 14) (size 15 to 20)
#    0.000    0.000    0.000   10.000    0.000    0.000 
#    0.000    0.000    0.000    0.000    0.000    0.000 
#    0.000    0.000    0.000    0.000    0.000    0.000 
#
# Total GULP energy -67449.284268 kJ/mol
# GULP energy per Si atom -5620.773689 kJ/mol
# Density = 2.593076 g / cm^3
# Si number density = 25.989911 Si / 1000 Ang^3
#
#
#
# Elastic Constant Matrix: (Units=GPa)
#
#
# Indices 1 2 3 4 5 6 
#
# 1 118.7708 30.2318 40.1786 -4.3112 0.0003 0.0000
# 2 30.2318 118.7708 40.1786 4.3112 -0.0003 0.0000
# 3 40.1786 40.1786 263.8278 0.0000 0.0000 0.0000
# 4 -4.3112 4.3112 0.0000 46.2353 0.0000 -0.0003
# 5 0.0003 -0.0003 0.0000 0.0000 46.2353 -4.3112
# 6 0.0000 0.0000 0.0000 -0.0003 -4.3112 44.2695
#
#
#
# Elastic Compliance Matrix: (Units=1/GPa)
#
#
# Indices 1 2 3 4 5 6 
#
# 1 0.009355 -0.002043 -0.001114 0.001063 0.000000 0.000000
# 2 -0.002043 0.009355 -0.001114 -0.001063 0.000000 0.000000
# 3 -0.001114 -0.001114 0.004130 0.000000 0.000000 0.000000
# 4 0.001063 -0.001063 0.000000 0.021827 0.000000 0.000000
# 5 0.000000 0.000000 0.000000 0.000000 0.021827 0.002126
# 6 0.000000 0.000000 0.000000 0.000000 0.002126 0.022796
#
#
# Mechanical properties :
#
#
# Convention : Reuss Voigt Hill
#
# Bulk Modulus (GPa) = 69.93472 80.28305 75.10889
# Shear Modulus (GPa) = 48.73520 53.40001 51.06761
#
# Velocity S-wave (km/s) = 4.33501 4.53774 4.43753
# Velocity P-wave (km/s) = 7.21271 7.64277 7.43085
#
# Compressibility (1/GPa) = 0.01429905
#
# Stress axis : x y z
#
# Youngs Moduli (GPa) = 106.89594 106.89594 242.15939
#
# Poissons Ratio (x) = 0.21840 0.26965
# Poissons Ratio (y) = 0.21840 0.26965
# Poissons Ratio (z) = 0.11903 0.11903
#
# Static dielectric constant tensor:
#      x y z
#    x 2.009720 0.000000 0.000000 
#    y 0.000000 2.009720 0.000000 
#    z 0.000000 0.000000 2.058870 
# 
# From -- ./inp_files/513.got.cif
#   From: 2010.05.17/outbox.cif.g08.bks.cpg/sg148_1_cif.got.tgz:513.got - 2010.05.20 13:50:20.
