data_PCOD9575688
_publ_section_title
;
Structure prediction by ZEFSAII (Michael W. Deem and Ramdas Pophale) SiO2 
 PCOD9575688
Probable space group: P 31 1 2
;
_chemical_formula_sum "Si O2"
_cell_formula_units_Z 36
_cell_length_a 8.499800
_cell_length_b 8.499800
_cell_length_c 27.615027
_cell_angle_alpha 90.000000
_cell_angle_beta 90.000000
_cell_angle_gamma 120.000000
_cell_volume 1727.800191
_symmetry_space_group_name_H-M "P 31 1 2"
_symmetry_group_IT_number 151
_symmetry_cell_setting 'hexagonal'
loop_
_space_group_symop_operation_xyz
x,y,z
-y,x-y,1/3+z
-x+y,-x,2/3+z
-y,-x,2/3-z
-x+y,y,1/3-z
x,x-y,-z
loop_
_atom_site_type_symbol
_atom_site_label
_atom_site_fract_x
_atom_site_fract_y
_atom_site_fract_z
Si Si1 0.154173 0.069591 0.736679
Si Si2 0.796360 0.726788 0.299072
Si Si3 0.456939 0.046915 0.217987
Si Si4 0.543338 0.329673 0.552304
Si Si5 0.275666 0.418867 0.112922
Si Si6 0.258038 0.688570 0.618412
O O1 0.281327 0.120366 0.688877
O O2 0.266974 0.222347 0.776830
O O3 0.970696 0.064980 0.721771
O O4 0.104662 0.870117 0.753478
O O5 0.774677 0.566541 0.264491
O O6 0.615916 0.742806 0.296451
O O7 0.487792 0.975583 0.166667
O O8 0.617156 0.253466 0.221540
O O9 0.468340 0.927813 0.261036
O O10 0.466977 0.233489 0.500000
O O11 0.551116 0.522417 0.553722
O O12 0.204878 0.409755 0.166667
O O13 0.273252 0.583821 0.085890
O O14 0.309472 0.618944 0.666667
#
# Coordination Sequence:
#
# PCOD9575688 Si02
#       6
#     6   6   6   6   6   6
#     4  11  25  44  71  99 139 183 225 287 339 404
#     4  11  25  44  67 102 141 178 234 277 343 405
#     4  11  25  45  68 101 138 177 231 280 342 410
#     4  11  25  45  72 103 138 184 229 283 344 406
#     4  12  24  44  71 102 138 180 230 281 341 404
#     4  12  25  44  69 102 137 179 227 280 343 407
#
# _framework density 20.835743000000001
#
# number of rings (size 3 to 8) (size 9 to 14) (size 15 to 20)
#    0.000    0.667    1.667    6.500    4.667    2.000 
#    0.000    0.000    0.000    0.000    0.000    0.000 
#    0.000    0.000    0.000    0.000    0.000    0.000 
#
# Total GULP energy -201537.647543 kJ/mol
# GULP energy per Si atom -5598.267987 kJ/mol
# Density = 2.078832 g / cm^3
# Si number density = 20.835743 Si / 1000 Ang^3
#
#
#
# Elastic Constant Matrix: (Units=GPa)
#
#
# Indices 1 2 3 4 5 6 
#
# 1 106.7890 -28.0122 36.0546 -0.0056 -19.3460 0.0000
# 2 -28.0122 106.7890 36.0546 0.0056 19.3460 0.0000
# 3 36.0546 36.0546 131.7323 0.0000 0.0000 0.0000
# 4 -0.0056 0.0056 0.0000 40.9724 0.0000 19.3460
# 5 -19.3460 19.3460 0.0000 0.0000 40.9724 -0.0056
# 6 0.0000 0.0000 0.0000 19.3460 -0.0056 67.4006
#
#
#
# Elastic Compliance Matrix: (Units=1/GPa)
#
#
# Indices 1 2 3 4 5 6 
#
# 1 0.012759 0.004178 -0.004636 0.000001 0.004052 0.000000
# 2 0.004178 0.012759 -0.004636 -0.000001 -0.004052 0.000000
# 3 -0.004636 -0.004636 0.010129 0.000000 0.000000 0.000000
# 4 0.000001 -0.000001 0.000000 0.028233 0.000000 -0.008104
# 5 0.004052 -0.004052 0.000000 0.000000 0.028233 0.000002
# 6 0.000000 0.000000 0.000000 -0.008104 0.000002 0.017163
#
#
# Mechanical properties :
#
#
# Convention : Reuss Voigt Hill
#
# Bulk Modulus (GPa) = 39.27615 48.16714 43.72165
# Shear Modulus (GPa) = 39.07786 49.95000 44.51393
#
# Velocity S-wave (km/s) = 4.33543 4.90156 4.62716
# Velocity P-wave (km/s) = 6.62967 7.42977 7.04109
#
# Compressibility (1/GPa) = 0.02546074
#
# Stress axis : x y z
#
# Youngs Moduli (GPa) = 78.37373 78.37373 98.72941
#
# Poissons Ratio (x) = -0.32745 0.45768
# Poissons Ratio (y) = -0.32745 0.45768
# Poissons Ratio (z) = 0.36332 0.36332
#
# Static dielectric constant tensor:
#      x y z
#    x 1.716060 0.000000 0.000000 
#    y 0.000000 1.716060 0.000000 
#    z 0.000000 0.000000 1.799750 
# 
# From -- ./inp_files/4624.got.cif
#   From: 2010.05.17/outbox.cif.g08.bks.cpg/sg151_3_cif.got.tgz:4624.got - 2010.05.20 10:33:20.
