data_PCOD9575403
_publ_section_title
;
Structure prediction by ZEFSAII (Michael W. Deem and Ramdas Pophale) SiO2 
 PCOD9575403
Probable space group: P 3 2 1
;
_chemical_formula_sum "Si O2"
_cell_formula_units_Z 30
_cell_length_a 16.087406
_cell_length_b 16.087406
_cell_length_c 5.413448
_cell_angle_alpha 90.000000
_cell_angle_beta 90.000000
_cell_angle_gamma 120.000000
_cell_volume 1213.323602
_symmetry_space_group_name_H-M "P 3 2 1"
_symmetry_group_IT_number 150
_symmetry_cell_setting 'hexagonal'
loop_
_space_group_symop_operation_xyz
x,y,z
-y,x-y,z
-x+y,-x,z
x-y,-y,-z
-x,-x+y,-z
y,x,-z
loop_
_atom_site_type_symbol
_atom_site_label
_atom_site_fract_x
_atom_site_fract_y
_atom_site_fract_z
Si Si1 0.105561 0.539114 0.932004
Si Si2 0.649485 0.855190 0.256293
Si Si3 0.033731 0.161188 0.250370
Si Si4 0.489056 0.893187 0.432180
Si Si5 0.243450 0.885850 0.755372
O O1 0.155013 0.610856 0.702249
O O2 0.089130 0.437379 0.839851
O O3 0.153951 0.570464 0.202315
O O4 0.000000 0.522319 0.000000
O O5 0.764899 0.911754 0.264988
O O6 0.587976 0.902646 0.337567
O O7 0.622719 0.777115 0.476878
O O8 0.631926 0.820139 0.972733
O O9 0.000000 0.104680 0.500000
O O10 0.972506 0.219414 0.243225
O O11 0.000000 0.104429 0.000000
O O12 0.510117 0.000000 0.500000
#
# Coordination Sequence:
#
# PCOD9575403 Si02
#       5
#     6   6   6   6   6
#     4  10  19  32  49  68  89 115 158 202 227 269
#     4  10  18  30  47  67  92 116 144 187 231 276
#     4   8  15  25  42  68  88 103 133 177 233 272
#     4  10  21  33  47  67  92 126 159 183 219 277
#     4  10  18  30  51  72  86 108 146 197 248 270
#
# _framework density 24.725470999999999
#
# number of rings (size 3 to 8) (size 9 to 14) (size 15 to 20)
#    0.000    2.400    0.000    4.200    0.000    5.600 
#    0.000    0.000    0.000   16.000    0.000    0.000 
#    0.000    0.000    0.000   16.200    0.000  239.400 
#
# Total GULP energy -167242.321514 kJ/mol
# GULP energy per Si atom -5574.744050 kJ/mol
# Density = 2.466920 g / cm^3
# Si number density = 24.725471 Si / 1000 Ang^3
#
#
#
# Elastic Constant Matrix: (Units=GPa)
#
#
# Indices 1 2 3 4 5 6 
#
# 1 77.0961 17.0012 30.5047 2.2823 0.0000 0.0000
# 2 17.0012 77.0961 30.5047 -2.2823 0.0000 0.0000
# 3 30.5047 30.5047 249.8973 0.0000 0.0000 0.0000
# 4 2.2823 -2.2823 0.0000 -59.4744 0.0000 0.0000
# 5 0.0000 0.0000 0.0000 0.0000 -59.4744 2.2823
# 6 0.0000 0.0000 0.0000 0.0000 2.2823 30.0475
#
#
#
# Elastic Compliance Matrix: (Units=1/GPa)
#
#
# Indices 1 2 3 4 5 6 
#
# 1 0.014066 -0.002526 -0.001409 0.000637 0.000000 0.000000
# 2 -0.002526 0.014066 -0.001409 -0.000637 0.000000 0.000000
# 3 -0.001409 -0.001409 0.004346 0.000000 0.000000 0.000000
# 4 0.000637 -0.000637 0.000000 -0.016765 0.000000 0.000000
# 5 0.000000 0.000000 0.000000 0.000000 -0.016765 0.001273
# 6 0.000000 0.000000 0.000000 0.000000 0.001273 0.033184
#
#
# Mechanical properties :
#
#
# Convention : Reuss Voigt Hill
#
# Bulk Modulus (GPa) = 45.88857 62.23453 54.06155
# Shear Modulus (GPa) = 99.83561 3.95832 51.89697
#
# Velocity S-wave (km/s) = 6.36123 1.26664 4.58638
# Velocity P-wave (km/s) = 8.51782 5.23106 7.06814
#
# Compressibility (1/GPa) = 0.02179192
#
# Stress axis : x y z
#
# Youngs Moduli (GPa) = 71.09172 71.09172 230.11901
#
# Poissons Ratio (x) = 0.17955 0.32418
# Poissons Ratio (y) = 0.17955 0.32418
# Poissons Ratio (z) = 0.10015 0.10015
#
# Static dielectric constant tensor:
#      x y z
#    x 1.976440 0.000000 0.000000 
#    y 0.000000 1.976440 0.000000 
#    z 0.000000 0.000000 2.158070 
# 
# From -- ./inp_files/187.got.cif
#   From: 2010.05.17/outbox.cif.g08.bks.cpg/sg150_cif.got.tgz:187.got - 2010.05.20 13:53:18.
