data_PCOD9575588
_publ_section_title
;
Structure prediction by ZEFSAII (Michael W. Deem and Ramdas Pophale) SiO2 
 PCOD9575588
Probable space group: P 31 1 2
;
_chemical_formula_sum "Si O2"
_cell_formula_units_Z 21
_cell_length_a 7.318348
_cell_length_b 7.318348
_cell_length_c 20.266834
_cell_angle_alpha 90.000000
_cell_angle_beta 90.000000
_cell_angle_gamma 120.000000
_cell_volume 940.032040
_symmetry_space_group_name_H-M "P 31 1 2"
_symmetry_group_IT_number 151
_symmetry_cell_setting 'hexagonal'
loop_
_space_group_symop_operation_xyz
x,y,z
-y,x-y,1/3+z
-x+y,-x,2/3+z
-y,-x,2/3-z
-x+y,y,1/3-z
x,x-y,-z
loop_
_atom_site_type_symbol
_atom_site_label
_atom_site_fract_x
_atom_site_fract_y
_atom_site_fract_z
Si Si1 0.559468 0.540298 0.125048
Si Si2 0.214708 0.631686 0.072271
Si Si3 0.755744 0.111710 0.259002
Si Si4 0.962392 0.037609 0.833334
O O1 0.379999 0.552923 0.083795
O O2 0.497649 0.546360 0.201417
O O3 0.552942 0.327946 0.101420
O O4 0.777479 0.759436 0.118157
O O5 0.347919 0.887741 0.076450
O O6 0.117964 0.558982 0.000000
O O7 0.842204 0.157797 0.333334
O O8 0.899949 0.067193 0.209105
#
# Coordination Sequence:
#
# PCOD9575588 Si02
#       4
#     6   6   6   3
#     4  10  22  40  61  94 134 165 223 275 323 402
#     4  10  20  38  66  89 125 177 215 269 341 391
#     4  11  22  40  66  94 131 177 217 276 340 390
#     4  10  24  40  62  98 130 170 226 270 324 408
#
# _framework density 22.339663000000002
#
# number of rings (size 3 to 8) (size 9 to 14) (size 15 to 20)
#    0.000    1.714    2.857    1.714    0.000    5.714 
#    0.000    5.714    0.000    0.000    0.000    0.000 
#    0.000    0.000    0.000    0.000    0.000    0.000 
#
# Total GULP energy -117254.415126 kJ/mol
# GULP energy per Si atom -5583.543577 kJ/mol
# Density = 2.228882 g / cm^3
# Si number density = 22.339663 Si / 1000 Ang^3
#
#
#
# Elastic Constant Matrix: (Units=GPa)
#
#
# Indices 1 2 3 4 5 6 
#
# 1 75.4306 16.1155 15.1603 0.0012 0.8196 0.0000
# 2 16.1155 75.4306 15.1603 -0.0012 -0.8196 0.0000
# 3 15.1603 15.1603 110.7577 0.0000 0.0000 0.0000
# 4 0.0012 -0.0012 0.0000 22.3433 0.0000 -0.8196
# 5 0.8196 -0.8196 0.0000 0.0000 22.3433 0.0012
# 6 0.0000 0.0000 0.0000 -0.8196 0.0012 29.6576
#
#
#
# Elastic Compliance Matrix: (Units=1/GPa)
#
#
# Indices 1 2 3 4 5 6 
#
# 1 0.014159 -0.002717 -0.001566 -0.000001 -0.000619 0.000000
# 2 -0.002717 0.014159 -0.001566 0.000001 0.000619 0.000000
# 3 -0.001566 -0.001566 0.009457 0.000000 0.000000 0.000000
# 4 -0.000001 0.000001 0.000000 0.044802 0.000000 0.001238
# 5 -0.000619 0.000619 0.000000 0.000000 0.044802 -0.000002
# 6 0.000000 0.000000 0.000000 0.001238 -0.000002 0.033752
#
#
# Mechanical properties :
#
#
# Convention : Reuss Voigt Hill
#
# Bulk Modulus (GPa) = 38.34781 39.38789 38.86785
# Shear Modulus (GPa) = 27.54476 29.21435 28.37956
#
# Velocity S-wave (km/s) = 3.51522 3.62018 3.56809
# Velocity P-wave (km/s) = 5.80334 5.92823 5.86612
#
# Compressibility (1/GPa) = 0.02607711
#
# Stress axis : x y z
#
# Youngs Moduli (GPa) = 70.62547 70.62547 105.73655
#
# Poissons Ratio (x) = 0.19189 0.16560
# Poissons Ratio (y) = 0.19189 0.16560
# Poissons Ratio (z) = 0.11061 0.11061
#
# Static dielectric constant tensor:
#      x y z
#    x 1.832970 0.000000 0.000000 
#    y 0.000000 1.832970 0.000000 
#    z 0.000000 0.000000 1.808050 
# 
# From -- ./inp_files/3290.got.cif
#   From: 2010.05.17/outbox.cif.g08.bks.cpg/sg151_2_cif.got.tgz:3290.got - 2010.05.20 10:33:20.
