data_PCOD9575268
_publ_section_title
;
Structure prediction by ZEFSAII (Michael W. Deem and Ramdas Pophale) SiO2 
 PCOD9575268
Probable space group: R -3
;
_chemical_formula_sum "Si O2"
_cell_formula_units_Z 126
_cell_length_a 18.421228
_cell_length_b 18.421228
_cell_length_c 21.334614
_cell_angle_alpha 90.000000
_cell_angle_beta 90.000000
_cell_angle_gamma 120.000000
_cell_volume 6269.783970
_symmetry_space_group_name_H-M "R -3"
_symmetry_group_IT_number 148
_symmetry_cell_setting 'hexagonal'
loop_
_space_group_symop_operation_xyz
x,y,z
-y,x-y,z
-x+y,-x,z
-x,-y,-z
y,-x+y,-z
x-y,x,-z
2/3+x,1/3+y,1/3+z
2/3-y,1/3+x-y,1/3+z
2/3-x+y,1/3-x,1/3+z
2/3-x,1/3-y,1/3-z
2/3+y,1/3-x+y,1/3-z
2/3+x-y,1/3+x,1/3-z
1/3+x,2/3+y,2/3+z
1/3-y,2/3+x-y,2/3+z
1/3-x+y,2/3-x,2/3+z
1/3-x,2/3-y,2/3-z
1/3+y,2/3-x+y,2/3-z
1/3+x-y,2/3+x,2/3-z
loop_
_atom_site_type_symbol
_atom_site_label
_atom_site_fract_x
_atom_site_fract_y
_atom_site_fract_z
Si Si1 0.114796 0.397333 0.395688
Si Si2 0.719656 0.771083 0.272220
Si Si3 0.404519 0.334870 0.837356
Si Si4 0.435397 0.864791 0.592588
Si Si5 0.143606 0.574637 0.745438
Si Si6 0.472622 0.530952 0.392043
Si Si7 0.618390 0.811573 0.088906
O O1 0.065808 0.341729 0.332834
O O2 0.206661 0.407150 0.392185
O O3 0.112578 0.482971 0.406246
O O4 0.064129 0.342820 0.455336
O O5 0.668209 0.725822 0.209704
O O6 0.802187 0.762127 0.268233
O O7 0.420316 0.282082 0.888619
O O8 0.481880 0.387586 0.792194
O O9 0.432531 0.860076 0.668989
O O10 0.478869 0.812253 0.570143
O O11 0.339110 0.815895 0.570492
O O12 0.487175 0.964217 0.578001
O O13 0.050305 0.528422 0.771714
O O14 0.486797 0.535039 0.317745
#
# Coordination Sequence:
#
# PCOD9575268 Si02
#       7
#    18  18  18  18  18  18  18
#     4  11  24  42  67  99 131 172 224 276 332 397
#     4  11  24  42  67  99 131 172 224 276 332 397
#     4  12  22  41  68  97 130 168 220 270 328 391
#     4   9  17  28  54  86 124 167 207 250 316 389
#     4   9  17  30  49  85 126 162 203 256 310 379
#     4  11  22  40  66  96 129 175 220 271 335 407
#     4  11  22  37  64  92 128 169 214 272 327 383
#
# _framework density 20.096385999999999
#
# number of rings (size 3 to 8) (size 9 to 14) (size 15 to 20)
#    0.000    1.429    4.286    2.000    4.000    1.714 
#    0.857    1.429    0.000    0.286    0.000    0.000 
#    0.000    0.000    0.000    0.000    0.000    0.000 
#
# Total GULP energy -234366.659687 kJ/mol
# GULP energy per Si atom -5580.158564 kJ/mol
# Density = 2.005065 g / cm^3
# Si number density = 20.096386 Si / 1000 Ang^3
#
#
#
# Elastic Constant Matrix: (Units=GPa)
#
#
# Indices 1 2 3 4 5 6 
#
# 1 73.9909 70.8805 -1.6280 -13.6482 2.5822 0.0000
# 2 70.8805 73.9909 -1.6280 13.6482 -2.5822 0.0000
# 3 -1.6280 -1.6280 38.2722 0.0000 0.0000 0.0000
# 4 -13.6482 13.6482 0.0000 14.1238 0.0000 -2.5822
# 5 2.5822 -2.5822 0.0000 0.0000 14.1238 -13.6482
# 6 0.0000 0.0000 0.0000 -2.5822 -13.6482 1.5552
#
#
#
# Elastic Compliance Matrix: (Units=1/GPa)
#
#
# Indices 1 2 3 4 5 6 
#
# 1 -0.017197 0.024106 0.000294 -0.039913 0.007551 0.000000
# 2 0.024106 -0.017197 0.000294 0.039913 -0.007551 0.000000
# 3 0.000294 0.000294 0.026154 0.000000 0.000000 0.000000
# 4 -0.039913 0.039913 0.000000 -0.009096 0.000000 -0.015103
# 5 0.007551 -0.007551 0.000000 0.000000 -0.009096 -0.079825
# 6 0.000000 0.000000 0.000000 -0.015103 -0.079825 -0.082607
#
#
# Mechanical properties :
#
#
# Convention : Reuss Voigt Hill
#
# Bulk Modulus (GPa) = 24.30262 35.72256 30.01259
# Shear Modulus (GPa) = -34.55148 13.86921 -10.34114
#
# Velocity S-wave (km/s) = -4.15093 2.62989 -2.27089
# Velocity P-wave (km/s) = 3.29459 5.19961 2.84444
#
# Compressibility (1/GPa) = 0.04114783
#
# Stress axis : x y z
#
# Youngs Moduli (GPa) = -58.14944 -58.14944 38.23557
#
# Poissons Ratio (x) = 1.40177 -0.01124
# Poissons Ratio (y) = 1.40177 -0.01124
# Poissons Ratio (z) = 0.01709 0.01709
#
# Static dielectric constant tensor:
#      x y z
#    x 1.711430 0.000000 0.000000 
#    y 0.000000 1.711430 0.000000 
#    z 0.000000 0.000000 1.763170 
# 
# From -- ./inp_files/3444.got.cif
#   From: 2010.05.17/outbox.cif.g08.bks.cpg/sg148_2_cif.got.tgz:3444.got - 2010.05.20 13:50:20.
