data_PCOD9575004
_publ_section_title
;
Structure prediction by ZEFSAII (Michael W. Deem and Ramdas Pophale) SiO2 
 PCOD9575004
Probable space group: R -3
;
_chemical_formula_sum "Si O2"
_cell_formula_units_Z 144
_cell_length_a 21.467398
_cell_length_b 21.467398
_cell_length_c 19.401376
_cell_angle_alpha 90.000000
_cell_angle_beta 90.000000
_cell_angle_gamma 120.000000
_cell_volume 7743.226805
_symmetry_space_group_name_H-M "R -3"
_symmetry_group_IT_number 148
_symmetry_cell_setting 'hexagonal'
loop_
_space_group_symop_operation_xyz
x,y,z
-y,x-y,z
-x+y,-x,z
-x,-y,-z
y,-x+y,-z
x-y,x,-z
2/3+x,1/3+y,1/3+z
2/3-y,1/3+x-y,1/3+z
2/3-x+y,1/3-x,1/3+z
2/3-x,1/3-y,1/3-z
2/3+y,1/3-x+y,1/3-z
2/3+x-y,1/3+x,1/3-z
1/3+x,2/3+y,2/3+z
1/3-y,2/3+x-y,2/3+z
1/3-x+y,2/3-x,2/3+z
1/3-x,2/3-y,2/3-z
1/3+y,2/3-x+y,2/3-z
1/3+x-y,2/3+x,2/3-z
loop_
_atom_site_type_symbol
_atom_site_label
_atom_site_fract_x
_atom_site_fract_y
_atom_site_fract_z
Si Si1 0.793675 0.695552 0.865077
Si Si2 0.934966 0.718051 0.598515
Si Si3 0.486666 0.910464 0.457480
Si Si4 0.197498 0.934204 0.898992
Si Si5 0.971532 0.606080 0.293430
Si Si6 0.740827 0.141946 0.707962
Si Si7 0.613259 0.866529 0.001869
Si Si8 0.540587 0.606821 0.857012
O O1 0.736181 0.634219 0.814865
O O2 0.769722 0.753347 0.878852
O O3 0.798064 0.656103 0.934028
O O4 0.869214 0.735774 0.826970
O O5 0.880924 0.642760 0.636474
O O6 0.891903 0.760691 0.610137
O O7 0.013070 0.738836 0.627307
O O8 0.437959 0.891853 0.526808
O O9 0.444336 0.919860 0.392875
O O10 0.526537 0.864778 0.446317
O O11 0.555643 0.990123 0.465054
O O12 0.210744 0.936635 0.981401
O O13 0.943879 0.662798 0.309072
O O14 0.946771 0.577963 0.217157
O O15 0.658544 0.119471 0.700442
O O16 0.750999 0.089300 0.761865
#
# Coordination Sequence:
#
# PCOD9575004 Si02
#       8
#    18  18  18  18  18  18  18  18
#     4  10  20  33  49  74 103 140 178 220 268 321
#     4   9  16  28  47  69  99 132 166 202 260 319
#     4  11  20  33  52  76 104 141 180 223 269 318
#     4  10  20  33  51  75 105 137 177 218 265 316
#     4  10  18  31  50  75 105 136 169 216 263 318
#     4   9  18  30  46  71 101 137 170 207 259 320
#     4  10  19  31  49  71 103 137 176 220 267 314
#     4  11  21  32  50  75 106 140 178 217 267 320
#
# _framework density 18.596896999999998
#
# number of rings (size 3 to 8) (size 9 to 14) (size 15 to 20)
#    0.000    2.000    0.000    7.500    0.000    1.000 
#    0.000    0.000    0.000    0.500    0.000    0.000 
#    0.000    5.000    0.000    0.000    0.000  402.750 
#
# Total GULP energy -267388.895700 kJ/mol
# GULP energy per Si atom -5570.601994 kJ/mol
# Density = 1.855457 g / cm^3
# Si number density = 18.596897 Si / 1000 Ang^3
#
#
#
# Elastic Constant Matrix: (Units=GPa)
#
#
# Indices 1 2 3 4 5 6 
#
# 1 73.4554 31.5491 38.0510 -4.1099 -1.0601 0.0000
# 2 31.5491 73.4554 38.0510 4.1099 1.0601 0.0000
# 3 38.0510 38.0510 122.5757 0.0000 0.0000 0.0000
# 4 -4.1099 4.1099 0.0000 25.0350 0.0000 1.0601
# 5 -1.0601 1.0601 0.0000 0.0000 25.0350 -4.1099
# 6 0.0000 0.0000 0.0000 1.0601 -4.1099 20.9531
#
#
#
# Elastic Compliance Matrix: (Units=1/GPa)
#
#
# Indices 1 2 3 4 5 6 
#
# 1 0.018500 -0.006212 -0.003815 0.004057 0.001046 0.000000
# 2 -0.006212 0.018500 -0.003815 -0.004057 -0.001046 0.000000
# 3 -0.003815 -0.003815 0.010527 0.000000 0.000000 0.000000
# 4 0.004057 -0.004057 0.000000 0.041365 0.000000 -0.002093
# 5 0.001046 -0.001046 0.000000 0.000000 0.041365 0.008114
# 6 0.000000 0.000000 0.000000 -0.002093 0.008114 0.049423
#
#
# Mechanical properties :
#
#
# Convention : Reuss Voigt Hill
#
# Bulk Modulus (GPa) = 50.39223 53.86539 52.12881
# Shear Modulus (GPa) = 23.36725 24.99364 24.18044
#
# Velocity S-wave (km/s) = 3.54858 3.66999 3.60980
# Velocity P-wave (km/s) = 6.62916 6.85464 6.74284
#
# Compressibility (1/GPa) = 0.01984433
#
# Stress axis : x y z
#
# Youngs Moduli (GPa) = 54.05488 54.05488 94.99833
#
# Poissons Ratio (x) = 0.33577 0.36237
# Poissons Ratio (y) = 0.33577 0.36237
# Poissons Ratio (z) = 0.20619 0.20619
#
# Static dielectric constant tensor:
#      x y z
#    x 1.687980 0.000000 0.000000 
#    y 0.000000 1.687980 0.000000 
#    z 0.000000 0.000000 1.729480 
# 
# From -- ./inp_files/3166.got.cif
#   From: 2010.05.17/outbox.cif.g08.bks.cpg/sg148_2_cif.got.tgz:3166.got - 2010.05.20 13:50:20.
