data_PCOD9575239
_publ_section_title
;
Structure prediction by ZEFSAII (Michael W. Deem and Ramdas Pophale) SiO2 
 PCOD9575239
Probable space group: R -3
;
_chemical_formula_sum "Si O2"
_cell_formula_units_Z 108
_cell_length_a 22.698617
_cell_length_b 22.698617
_cell_length_c 10.146263
_cell_angle_alpha 90.000000
_cell_angle_beta 90.000000
_cell_angle_gamma 120.000000
_cell_volume 4527.261087
_symmetry_space_group_name_H-M "R -3"
_symmetry_group_IT_number 148
_symmetry_cell_setting 'hexagonal'
loop_
_space_group_symop_operation_xyz
x,y,z
-y,x-y,z
-x+y,-x,z
-x,-y,-z
y,-x+y,-z
x-y,x,-z
2/3+x,1/3+y,1/3+z
2/3-y,1/3+x-y,1/3+z
2/3-x+y,1/3-x,1/3+z
2/3-x,1/3-y,1/3-z
2/3+y,1/3-x+y,1/3-z
2/3+x-y,1/3+x,1/3-z
1/3+x,2/3+y,2/3+z
1/3-y,2/3+x-y,2/3+z
1/3-x+y,2/3-x,2/3+z
1/3-x,2/3-y,2/3-z
1/3+y,2/3-x+y,2/3-z
1/3+x-y,2/3+x,2/3-z
loop_
_atom_site_type_symbol
_atom_site_label
_atom_site_fract_x
_atom_site_fract_y
_atom_site_fract_z
Si Si1 0.375189 0.413125 0.405809
Si Si2 0.028557 0.286582 0.663369
Si Si3 0.311891 0.158010 0.919760
Si Si4 0.458719 0.269004 0.601552
Si Si5 0.206973 0.721385 0.747768
Si Si6 0.337051 0.810936 0.872385
O O1 0.320731 0.338146 0.359460
O O2 0.410495 0.395695 0.526921
O O3 0.430188 0.453889 0.291877
O O4 0.343180 0.459086 0.449583
O O5 0.098091 0.312986 0.584126
O O6 0.979712 0.206435 0.637809
O O7 0.253157 0.134958 0.034303
O O8 0.271333 0.134655 0.783004
O O9 0.478529 0.319858 0.474456
O O10 0.513430 0.245361 0.631180
O O11 0.262433 0.745933 0.864174
O O12 0.221019 0.697917 0.608112
#
# Coordination Sequence:
#
# PCOD9575239 Si02
#       6
#    18  18  18  18  18  18
#     4  12  23  37  58  83 118 154 199 233 289 343
#     4  12  21  36  58  87 116 155 194 243 280 341
#     4  11  19  35  59  85 111 151 193 233 280 347
#     4  11  22  36  57  86 115 146 197 232 285 345
#     4  11  18  36  58  81 115 147 186 231 281 344
#     4  11  22  35  55  84 115 151 187 235 287 342
#
# _framework density 23.855484000000001
#
# number of rings (size 3 to 8) (size 9 to 14) (size 15 to 20)
#    0.000    0.667    8.333    3.500    0.000    0.667 
#    1.000    0.833    0.000    0.000    0.000    0.000 
#    0.000    0.000    0.000    5.000    0.000    0.000 
#
# Total GULP energy -200598.937572 kJ/mol
# GULP energy per Si atom -5572.192710 kJ/mol
# Density = 2.380119 g / cm^3
# Si number density = 23.855484 Si / 1000 Ang^3
#
#
#
# Elastic Constant Matrix: (Units=GPa)
#
#
# Indices 1 2 3 4 5 6 
#
# 1 60.9857 45.3825 2.7159 4.9438 12.0326 -0.0007
# 2 45.3825 60.9850 2.7169 -4.9441 -12.0325 -0.0006
# 3 2.7159 2.7169 8.5642 0.0002 0.0024 -0.0010
# 4 4.9438 -4.9441 0.0002 21.6598 0.0005 -12.0339
# 5 12.0326 -12.0325 0.0024 0.0005 21.6616 4.9441
# 6 -0.0007 -0.0006 -0.0010 -12.0339 4.9441 7.7990
#
#
#
# Elastic Compliance Matrix: (Units=1/GPa)
#
#
# Indices 1 2 3 4 5 6 
#
# 1 -23.254384 23.264611 -0.013649 10.081203 26.060380 -0.965565
# 2 23.264611-23.255725 0.007587-10.081700-26.061046 0.965221
# 3 -0.013649 0.007587 0.118682 -0.001625 0.014441 -0.011647
# 4 10.081203-10.081700 -0.001625-24.273227 -3.099419-35.488799
# 5 26.060380-26.061046 0.014441 -3.099419-32.519882 15.833460
# 6 -0.965565 0.965221 -0.011647-35.488799 15.833460-64.668679
#
#
# Mechanical properties :
#
#
# Convention : Reuss Voigt Hill
#
# Bulk Modulus (GPa) = 7.95732 25.79617 16.87675
# Shear Modulus (GPa) = -0.02333 15.53872 7.75770
#
# Velocity S-wave (km/s) = -0.09900 2.55496 1.80527
# Velocity P-wave (km/s) = 1.82478 4.42049 3.38161
#
# Compressibility (1/GPa) = 0.12567038
#
# Stress axis : x y z
#
# Youngs Moduli (GPa) = -0.04300 -0.04300 8.42589
#
# Poissons Ratio (x) = 1.00038 0.11500
# Poissons Ratio (y) = 1.00044 -0.06393
# Poissons Ratio (z) = -0.00059 0.00033
#
# Static dielectric constant tensor:
#      x y z
#    x 1.974320 0.000000 0.000000 
#    y 0.000000 1.974320 0.000000 
#    z 0.000000 0.000000 2.013320 
# 
# From -- ./inp_files/2046.got.cif
#   From: 2010.05.17/outbox.cif.g08.bks.cpg/sg148_2_cif.got.tgz:2046.got - 2010.05.20 13:50:20.
