data_PCOD9575566
_publ_section_title
;
Structure prediction by ZEFSAII (Michael W. Deem and Ramdas Pophale) SiO2 
 PCOD9575566
Probable space group: P 31 1 2
;
_chemical_formula_sum "Si O2"
_cell_formula_units_Z 42
_cell_length_a 15.578647
_cell_length_b 15.578647
_cell_length_c 12.342057
_cell_angle_alpha 90.000000
_cell_angle_beta 90.000000
_cell_angle_gamma 120.000000
_cell_volume 2594.045879
_symmetry_space_group_name_H-M "P 31 1 2"
_symmetry_group_IT_number 151
_symmetry_cell_setting 'hexagonal'
loop_
_space_group_symop_operation_xyz
x,y,z
-y,x-y,1/3+z
-x+y,-x,2/3+z
-y,-x,2/3-z
-x+y,y,1/3-z
x,x-y,-z
loop_
_atom_site_type_symbol
_atom_site_label
_atom_site_fract_x
_atom_site_fract_y
_atom_site_fract_z
Si Si1 0.440740 0.555618 0.705892
Si Si2 0.795996 0.796590 0.823674
Si Si3 0.351576 0.648425 0.333334
Si Si4 0.997165 0.195073 0.131918
Si Si5 0.806474 0.000388 0.793304
Si Si6 0.502010 0.751005 0.500000
Si Si7 0.297171 0.357904 0.041917
Si Si8 0.657180 0.727420 0.024081
O O1 0.450883 0.549118 0.833334
O O2 0.395892 0.630224 0.691504
O O3 0.549887 0.598101 0.656339
O O4 0.366841 0.449488 0.656993
O O5 0.827204 0.912032 0.827019
O O6 0.719598 0.751015 0.723025
O O7 0.897231 0.794203 0.821232
O O8 0.735384 0.739861 0.931061
O O9 0.422153 0.653013 0.432711
O O10 0.093586 0.187171 0.166667
O O11 0.007827 0.293226 0.186748
O O12 0.996775 0.199926 0.002463
O O13 0.706417 0.970271 0.859535
O O14 0.895780 0.104221 0.833334
O O15 0.579000 0.823622 0.409936
O O16 0.643466 0.821733 0.000000
#
# Coordination Sequence:
#
# PCOD9575566 Si02
#       8
#     6   6   3   6   6   3   6   6
#     4  11  20  35  55  80 113 147 196 231 277 331
#     4  11  21  35  58  78 115 151 193 236 280 335
#     4  10  20  32  54  76 104 158 188 232 276 326
#     4  12  23  38  54  82 116 155 189 235 283 341
#     4  11  22  37  56  83 115 152 195 229 285 343
#     4  10  20  36  50  78 112 152 198 230 280 328
#     4  11  22  36  52  78 114 152 185 237 280 334
#     4  10  21  36  55  83 112 151 188 240 279 333
#
# _framework density 16.190923999999999
#
# number of rings (size 3 to 8) (size 9 to 14) (size 15 to 20)
#    0.000    1.143    6.429    0.857    0.000    1.143 
#    7.714    0.000    0.000    0.000    0.000    0.000 
#    8.571    0.000    0.000    0.000    0.000    0.000 
#
# Total GULP energy -233934.442295 kJ/mol
# GULP energy per Si atom -5569.867674 kJ/mol
# Density = 1.615407 g / cm^3
# Si number density = 16.190924 Si / 1000 Ang^3
#
#
#
# Elastic Constant Matrix: (Units=GPa)
#
#
# Indices 1 2 3 4 5 6 
#
# 1 95.3154 51.1524 43.5392 0.0005 1.9445 0.0000
# 2 51.1524 95.3154 43.5392 -0.0005 -1.9445 0.0000
# 3 43.5392 43.5392 119.8553 0.0000 0.0000 0.0000
# 4 0.0005 -0.0005 0.0000 25.1564 0.0000 -1.9445
# 5 1.9445 -1.9445 0.0000 0.0000 25.1564 0.0005
# 6 0.0000 0.0000 0.0000 -1.9445 0.0005 22.0815
#
#
#
# Elastic Compliance Matrix: (Units=1/GPa)
#
#
# Indices 1 2 3 4 5 6 
#
# 1 0.015753 -0.007045 -0.003163 0.000000 -0.001762 0.000000
# 2 -0.007045 0.015753 -0.003163 0.000000 0.001762 0.000000
# 3 -0.003163 -0.003163 0.010642 0.000000 0.000000 0.000000
# 4 0.000000 0.000000 0.000000 0.040024 0.000000 0.003525
# 5 -0.001762 0.001762 0.000000 0.000000 0.040024 -0.000001
# 6 0.000000 0.000000 0.000000 0.003525 -0.000001 0.045597
#
#
# Mechanical properties :
#
#
# Convention : Reuss Voigt Hill
#
# Bulk Modulus (GPa) = 64.91613 65.21643 65.06628
# Shear Modulus (GPa) = 25.04109 25.96254 25.50181
#
# Velocity S-wave (km/s) = 3.93697 4.00875 3.97302
# Velocity P-wave (km/s) = 7.80048 7.86090 7.83075
#
# Compressibility (1/GPa) = 0.01540449
#
# Stress axis : x y z
#
# Youngs Moduli (GPa) = 63.47858 63.47858 93.97024
#
# Poissons Ratio (x) = 0.44722 0.29726
# Poissons Ratio (y) = 0.44722 0.29726
# Poissons Ratio (z) = 0.20081 0.20081
#
# Static dielectric constant tensor:
#      x y z
#    x 1.538810 0.000000 0.000000 
#    y 0.000000 1.538810 0.000000 
#    z 0.000000 0.000000 1.610010 
# 
# From -- ./inp_files/2629.got.cif
#   From: 2010.05.17/outbox.cif.g08.bks.cpg/sg151_2_cif.got.tgz:2629.got - 2010.05.20 10:33:20.
