data_PCOD9575463
_publ_section_title
;
Structure prediction by ZEFSAII (Michael W. Deem and Ramdas Pophale) SiO2 
 PCOD9575463
Probable space group: P 3 2 1
;
_chemical_formula_sum "Si O2"
_cell_formula_units_Z 18
_cell_length_a 8.742672
_cell_length_b 8.742672
_cell_length_c 13.711354
_cell_angle_alpha 90.000000
_cell_angle_beta 90.000000
_cell_angle_gamma 120.000000
_cell_volume 907.610153
_symmetry_space_group_name_H-M "P 3 2 1"
_symmetry_group_IT_number 150
_symmetry_cell_setting 'hexagonal'
loop_
_space_group_symop_operation_xyz
x,y,z
-y,x-y,z
-x+y,-x,z
x-y,-y,-z
-x,-x+y,-z
y,x,-z
loop_
_atom_site_type_symbol
_atom_site_label
_atom_site_fract_x
_atom_site_fract_y
_atom_site_fract_z
Si Si1 0.116122 0.630021 0.905154
Si Si2 0.679649 0.678701 0.614601
Si Si3 0.999712 0.651645 0.692894
O O1 0.185674 0.488712 0.905417
O O2 0.012690 0.615538 0.806508
O O3 0.000000 0.602029 0.000000
O O4 0.714156 0.714156 0.500000
O O5 0.522770 0.480467 0.633128
O O6 0.622107 0.811715 0.658992
O O7 0.852971 0.703457 0.668389
#
# Coordination Sequence:
#
# PCOD9575463 Si02
#       3
#     6   6   6
#     4  10  23  43  69  99 134 174 225 279 342 405
#     4  12  24  42  68  97 137 187 234 283 345 409
#     4  12  25  45  66 102 141 179 234 290 340 411
#
# _framework density 19.832305999999999
#
# number of rings (size 3 to 8) (size 9 to 14) (size 15 to 20)
#    0.667    0.000    3.333    5.000    4.667    0.000 
#    0.000    0.000    0.000    0.667    0.000    0.000 
#    0.000    0.000    0.000    0.000    0.000    0.000 
#
# Total GULP energy -100629.725355 kJ/mol
# GULP energy per Si atom -5590.540297 kJ/mol
# Density = 1.978717 g / cm^3
# Si number density = 19.832306 Si / 1000 Ang^3
#
#
#
# Elastic Constant Matrix: (Units=GPa)
#
#
# Indices 1 2 3 4 5 6 
#
# 1 62.7399 -1.2021 38.8235 -7.7845 0.0000 0.0000
# 2 -1.2021 62.7399 38.8235 7.7845 0.0000 0.0000
# 3 38.8235 38.8235 182.4605 0.0000 0.0000 0.0000
# 4 -7.7845 7.7845 0.0000 46.1465 0.0000 0.0000
# 5 0.0000 0.0000 0.0000 0.0000 46.1465 -7.7845
# 6 0.0000 0.0000 0.0000 0.0000 -7.7845 31.9710
#
#
#
# Elastic Compliance Matrix: (Units=1/GPa)
#
#
# Indices 1 2 3 4 5 6 
#
# 1 0.019262 0.002953 -0.004727 0.002751 0.000000 0.000000
# 2 0.002953 0.019262 -0.004727 -0.002751 0.000000 0.000000
# 3 -0.004727 -0.004727 0.007492 0.000000 0.000000 0.000000
# 4 0.002751 -0.002751 0.000000 0.022598 0.000000 0.000000
# 5 0.000000 0.000000 0.000000 0.000000 0.022598 0.005502
# 6 0.000000 0.000000 0.000000 0.000000 0.005502 0.032618
#
#
# Mechanical properties :
#
#
# Convention : Reuss Voigt Hill
#
# Bulk Modulus (GPa) = 30.29040 51.20332 40.74686
# Shear Modulus (GPa) = 33.82124 40.28585 37.05354
#
# Velocity S-wave (km/s) = 4.13408 4.51191 4.32712
# Velocity P-wave (km/s) = 6.17203 7.28130 6.74949
#
# Compressibility (1/GPa) = 0.03301376
#
# Stress axis : x y z
#
# Youngs Moduli (GPa) = 51.91675 51.91675 133.47396
#
# Poissons Ratio (x) = -0.15329 0.63089
# Poissons Ratio (y) = -0.15329 0.63089
# Poissons Ratio (z) = 0.24539 0.24539
#
# Static dielectric constant tensor:
#      x y z
#    x 1.668180 0.000000 0.000000 
#    y 0.000000 1.668180 0.000000 
#    z 0.000000 0.000000 1.659710 
# 
# From -- ./inp_files/823.got.cif
#   From: 2010.05.17/outbox.cif.g08.bks.cpg/sg150_cif.got.tgz:823.got - 2010.05.20 13:53:18.
