data_PCOD9575095
_publ_section_title
;
Structure prediction by ZEFSAII (Michael W. Deem and Ramdas Pophale) SiO2 
 PCOD9575095
Probable space group: R -3
;
_chemical_formula_sum "Si O2"
_cell_formula_units_Z 126
_cell_length_a 16.855606
_cell_length_b 16.855606
_cell_length_c 22.951898
_cell_angle_alpha 90.000000
_cell_angle_beta 90.000000
_cell_angle_gamma 120.000000
_cell_volume 5647.262548
_symmetry_space_group_name_H-M "R -3"
_symmetry_group_IT_number 148
_symmetry_cell_setting 'hexagonal'
loop_
_space_group_symop_operation_xyz
x,y,z
-y,x-y,z
-x+y,-x,z
-x,-y,-z
y,-x+y,-z
x-y,x,-z
2/3+x,1/3+y,1/3+z
2/3-y,1/3+x-y,1/3+z
2/3-x+y,1/3-x,1/3+z
2/3-x,1/3-y,1/3-z
2/3+y,1/3-x+y,1/3-z
2/3+x-y,1/3+x,1/3-z
1/3+x,2/3+y,2/3+z
1/3-y,2/3+x-y,2/3+z
1/3-x+y,2/3-x,2/3+z
1/3-x,2/3-y,2/3-z
1/3+y,2/3-x+y,2/3-z
1/3+x-y,2/3+x,2/3-z
loop_
_atom_site_type_symbol
_atom_site_label
_atom_site_fract_x
_atom_site_fract_y
_atom_site_fract_z
Si Si1 0.869948 0.371180 0.922835
Si Si2 0.228177 0.989775 0.380624
Si Si3 0.379826 0.227516 0.074428
Si Si4 0.810744 0.790005 0.718956
Si Si5 0.010262 0.492303 0.228887
Si Si6 0.849936 0.258504 0.547073
Si Si7 0.880518 0.786594 0.003233
O O1 0.851937 0.457149 0.927756
O O2 0.841017 0.279830 0.884683
O O3 0.978186 0.425082 0.912263
O O4 0.840471 0.329610 0.986864
O O5 0.265684 0.918895 0.379700
O O6 0.248346 0.041303 0.317876
O O7 0.290727 0.069453 0.424562
O O8 0.429542 0.169628 0.085703
O O9 0.410624 0.301431 0.125945
O O10 0.276339 0.153356 0.057395
O O11 0.905294 0.808321 0.746402
O O12 0.945090 0.469769 0.173989
O O13 0.951678 0.436112 0.285399
O O14 0.841572 0.854480 0.016038
#
# Coordination Sequence:
#
# PCOD9575095 Si02
#       7
#    18  18  18  18  18  18  18
#     4  11  20  39  65  90 127 173 218 258 322 398
#     4  10  20  38  62  93 127 168 222 264 309 392
#     4  11  19  38  68  96 125 171 222 266 327 400
#     4  11  20  39  64  93 126 169 223 265 315 401
#     4  11  25  41  63  99 134 172 217 277 333 392
#     4  11  24  40  61  97 134 170 209 280 333 382
#     4  11  23  44  70  94 127 175 232 277 325 399
#
# _framework density 22.311693999999999
#
# number of rings (size 3 to 8) (size 9 to 14) (size 15 to 20)
#    0.000    1.143    5.714    3.571    4.000    0.000 
#    4.286    2.857    0.000    0.857    0.000    0.000 
#    0.000    0.000    0.000    0.000    0.000    0.000 
#
# Total GULP energy -233938.736010 kJ/mol
# GULP energy per Si atom -5569.969905 kJ/mol
# Density = 2.226091 g / cm^3
# Si number density = 22.311694 Si / 1000 Ang^3
#
#
#
# Elastic Constant Matrix: (Units=GPa)
#
#
# Indices 1 2 3 4 5 6 
#
# 1 69.1232 -12.2059 -8.6066 -9.2246 3.5027 0.0000
# 2 -12.2059 69.1232 -8.6066 9.2246 -3.5027 0.0000
# 3 -8.6066 -8.6066 27.5386 0.0000 0.0000 0.0000
# 4 -9.2246 9.2246 0.0000 16.1204 0.0000 -3.5027
# 5 3.5027 -3.5027 0.0000 0.0000 16.1204 -9.2246
# 6 0.0000 0.0000 0.0000 -3.5027 -9.2246 40.6646
#
#
#
# Elastic Compliance Matrix: (Units=1/GPa)
#
#
# Indices 1 2 3 4 5 6 
#
# 1 0.016922 0.002481 0.006064 0.008263 -0.003138 0.000000
# 2 0.002481 0.016922 0.006064 -0.008263 0.003138 0.000000
# 3 0.006064 0.006064 0.040103 0.000000 0.000000 0.000000
# 4 0.008263 -0.008263 0.000000 0.072854 0.000000 0.006275
# 5 -0.003138 0.003138 0.000000 0.000000 0.072854 0.016527
# 6 0.000000 0.000000 0.000000 0.006275 0.016527 0.028881
#
#
# Mechanical properties :
#
#
# Convention : Reuss Voigt Hill
#
# Bulk Modulus (GPa) = 9.69313 11.88299 10.78806
# Shear Modulus (GPa) = 19.70791 27.59465 23.65128
#
# Velocity S-wave (km/s) = 2.97526 3.52060 3.25936
# Velocity P-wave (km/s) = 4.01954 4.67586 4.36007
#
# Compressibility (1/GPa) = 0.10316583
#
# Stress axis : x y z
#
# Youngs Moduli (GPa) = 59.09510 59.09510 24.93575
#
# Poissons Ratio (x) = -0.14664 -0.15121
# Poissons Ratio (y) = -0.14664 -0.15121
# Poissons Ratio (z) = -0.35836 -0.35836
#
# Static dielectric constant tensor:
#      x y z
#    x 1.848420 0.000000 0.000000 
#    y 0.000000 1.848420 0.000000 
#    z 0.000000 0.000000 1.945530 
# 
# From -- ./inp_files/3466.got.cif
#   From: 2010.05.17/outbox.cif.g08.bks.cpg/sg148_2_cif.got.tgz:3466.got - 2010.05.20 13:50:20.
