data_PCOD9575716
_publ_section_title
;
Structure prediction by ZEFSAII (Michael W. Deem and Ramdas Pophale) SiO2 
 PCOD9575716
Probable space group: P 31 2 1
;
_chemical_formula_sum "Si O2"
_cell_formula_units_Z 36
_cell_length_a 7.534142
_cell_length_b 7.534142
_cell_length_c 28.219319
_cell_angle_alpha 90.000000
_cell_angle_beta 90.000000
_cell_angle_gamma 120.000000
_cell_volume 1387.218153
_symmetry_space_group_name_H-M "P 31 2 1"
_symmetry_group_IT_number 152
_symmetry_cell_setting 'hexagonal'
loop_
_space_group_symop_operation_xyz
x,y,z
-y,x-y,1/3+z
-x+y,-x,2/3+z
x-y,-y,2/3-z
-x,-x+y,1/3-z
y,x,-z
loop_
_atom_site_type_symbol
_atom_site_label
_atom_site_fract_x
_atom_site_fract_y
_atom_site_fract_z
Si Si1 0.463545 0.984128 0.153913
Si Si2 0.000000 0.878995 0.166667
Si Si3 0.224046 0.224046 0.000000
Si Si4 0.190322 0.554204 0.755544
Si Si5 0.186480 0.529847 0.940006
Si Si6 0.998333 0.101989 0.729344
Si Si7 0.449416 0.266624 0.636123
O O1 0.489785 0.812235 0.127794
O O2 0.216918 0.887271 0.158691
O O3 0.560876 0.036251 0.206189
O O4 0.562203 0.171460 0.115399
O O5 0.957757 0.954568 0.117342
O O6 0.295286 0.414351 0.963994
O O7 0.111683 0.025380 0.964742
O O8 0.342606 0.757167 0.726331
O O9 0.104127 0.346353 0.724691
O O10 0.954344 0.357803 0.952711
O O11 0.220822 0.708098 0.975785
O O12 0.760249 0.017129 0.712889
#
# Coordination Sequence:
#
# PCOD9575716 Si02
#       7
#     6   3   3   6   6   6   6
#     4  10  21  40  63  95 128 175 224 285 338 419
#     4  10  16  42  64  82 126 180 208 272 346 394
#     4  10  20  38  60  96 132 170 222 268 348 414
#     4  10  22  41  67  96 131 173 234 274 348 420
#     4  10  22  41  63  91 137 169 220 288 343 406
#     4  10  21  38  70  87 127 181 220 268 346 415
#     4  10  22  44  62  94 131 173 222 283 344 412
#
# _framework density 25.951219999999999
#
# number of rings (size 3 to 8) (size 9 to 14) (size 15 to 20)
#    0.000    2.000    5.000    0.000    9.333    1.333 
#    9.000    0.000    0.000    0.000    0.000    0.000 
#    0.000    0.000    0.000    0.000    0.000    0.000 
#
# Total GULP energy -200719.689576 kJ/mol
# GULP energy per Si atom -5575.546933 kJ/mol
# Density = 2.589215 g / cm^3
# Si number density = 25.951220 Si / 1000 Ang^3
#
#
#
# Elastic Constant Matrix: (Units=GPa)
#
#
# Indices 1 2 3 4 5 6 
#
# 1 58.6058 4.4417 33.2108 4.0376 0.0001 0.0000
# 2 4.4417 58.6058 33.2108 -4.0376 -0.0001 0.0000
# 3 33.2108 33.2108 175.7654 0.0000 0.0000 0.0000
# 4 4.0376 -4.0376 0.0000 30.8993 0.0000 -0.0001
# 5 0.0001 -0.0001 0.0000 0.0000 30.8993 4.0376
# 6 0.0000 0.0000 0.0000 -0.0001 4.0376 27.0821
#
#
#
# Elastic Compliance Matrix: (Units=1/GPa)
#
#
# Indices 1 2 3 4 5 6 
#
# 1 0.019316 0.000487 -0.003742 -0.002460 0.000000 0.000000
# 2 0.000487 0.019316 -0.003742 0.002460 0.000000 0.000000
# 3 -0.003742 -0.003742 0.007103 0.000000 0.000000 0.000000
# 4 -0.002460 0.002460 0.000000 0.033006 0.000000 0.000000
# 5 0.000000 0.000000 0.000000 0.000000 0.033006 -0.004921
# 6 0.000000 0.000000 0.000000 0.000000 -0.004921 0.037658
#
#
# Mechanical properties :
#
#
# Convention : Reuss Voigt Hill
#
# Bulk Modulus (GPa) = 31.50354 48.30038 39.90196
# Shear Modulus (GPa) = 28.73882 32.58372 30.66127
#
# Velocity S-wave (km/s) = 3.33140 3.54725 3.44102
# Velocity P-wave (km/s) = 5.19264 5.95229 5.58539
#
# Compressibility (1/GPa) = 0.03174246
#
# Stress axis : x y z
#
# Youngs Moduli (GPa) = 51.77013 51.77013 140.77733
#
# Poissons Ratio (x) = -0.02521 0.52676
# Poissons Ratio (y) = -0.02521 0.52676
# Poissons Ratio (z) = 0.19371 0.19371
#
# Static dielectric constant tensor:
#      x y z
#    x 2.512230 0.000000 0.000000 
#    y 0.000000 2.512230 0.000000 
#    z 0.000000 0.000000 1.323450 
# 
# From -- ./inp_files/3604.got.cif
#   From: 2010.05.17/outbox.cif.g08.bks.cpg/sg152_2_cif.got.tgz:3604.got - 2010.05.20 10:36:06.
