data_PCOD9575856
_publ_section_title
;
Structure prediction by ZEFSAII (Michael W. Deem and Ramdas Pophale) SiO2 
 PCOD9575856
Probable space group: P 31 2 1
;
_chemical_formula_sum "Si O2"
_cell_formula_units_Z 39
_cell_length_a 9.220193
_cell_length_b 9.220193
_cell_length_c 28.796892
_cell_angle_alpha 90.000000
_cell_angle_beta 90.000000
_cell_angle_gamma 120.000000
_cell_volume 2120.099644
_symmetry_space_group_name_H-M "P 31 2 1"
_symmetry_group_IT_number 152
_symmetry_cell_setting 'hexagonal'
loop_
_space_group_symop_operation_xyz
x,y,z
-y,x-y,1/3+z
-x+y,-x,2/3+z
x-y,-y,2/3-z
-x,-x+y,1/3-z
y,x,-z
loop_
_atom_site_type_symbol
_atom_site_label
_atom_site_fract_x
_atom_site_fract_y
_atom_site_fract_z
Si Si1 0.440771 0.081794 0.406278
Si Si2 0.162209 0.000000 0.333334
Si Si3 0.754214 0.463639 0.575806
Si Si4 0.610926 0.368932 0.330430
Si Si5 0.181670 0.650872 0.180585
Si Si6 0.050628 0.278743 0.216852
Si Si7 0.066868 0.743395 0.966251
O O1 0.552981 0.213963 0.366087
O O2 0.467456 0.193205 0.451831
O O3 0.262417 0.997975 0.379311
O O4 0.476777 0.934577 0.420344
O O5 0.986858 0.833092 0.333243
O O6 0.656554 0.361401 0.620830
O O7 0.641014 0.361024 0.531183
O O8 0.772329 0.646500 0.574466
O O9 0.448841 0.376041 0.311196
O O10 0.746528 0.533500 0.356216
O O11 0.133932 0.477136 0.206543
O O12 0.000000 0.623133 0.166667
O O13 0.183716 0.260824 0.248024
O O14 0.000000 0.188963 0.166667
#
# Coordination Sequence:
#
# PCOD9575856 Si02
#       7
#     6   3   6   6   6   6   6
#     4  11  19  42  62  91 120 167 203 257 308 364
#     4  10  24  38  64  88 134 152 196 272 314 350
#     4  10  20  37  61  94 119 161 204 260 298 365
#     4  11  22  36  69  86 125 160 213 247 310 373
#     4   9  21  37  63  85 122 167 208 243 315 371
#     4   9  20  39  61  83 124 163 197 247 311 364
#     4  11  21  41  61  93 118 161 204 250 312 367
#
# _framework density 18.39536
#
# number of rings (size 3 to 8) (size 9 to 14) (size 15 to 20)
#    0.000    2.154    4.615    0.923    6.462    2.462 
#    5.538    0.769    0.000    0.000    0.000    0.000 
#    0.000    0.000    0.000    0.000    0.000    0.000 
#
# Total GULP energy -217127.943280 kJ/mol
# GULP energy per Si atom -5567.383161 kJ/mol
# Density = 1.835349 g / cm^3
# Si number density = 18.395360 Si / 1000 Ang^3
#
#
#
# Elastic Constant Matrix: (Units=GPa)
#
#
# Indices 1 2 3 4 5 6 
#
# 1 58.0167 22.5450 53.7802 -8.5525 -0.0002 0.0000
# 2 22.5450 58.0167 53.7802 8.5525 0.0002 0.0000
# 3 53.7802 53.7802 119.1902 0.0000 0.0000 0.0000
# 4 -8.5525 8.5525 0.0000 33.5791 0.0000 0.0002
# 5 -0.0002 0.0002 0.0000 0.0000 33.5791 -8.5525
# 6 0.0000 0.0000 0.0000 0.0002 -8.5525 17.7359
#
#
#
# Elastic Compliance Matrix: (Units=1/GPa)
#
#
# Indices 1 2 3 4 5 6 
#
# 1 0.031680 -0.000458 -0.014088 0.008186 0.000000 0.000000
# 2 -0.000458 0.031680 -0.014088 -0.008186 0.000000 0.000000
# 3 -0.014088 -0.014088 0.021103 0.000000 0.000000 0.000000
# 4 0.008186 -0.008186 0.000000 0.033950 0.000000 0.000000
# 5 0.000000 0.000000 0.000000 0.000000 0.033950 0.016371
# 6 0.000000 0.000000 0.000000 0.000000 0.016371 0.064277
#
#
# Mechanical properties :
#
#
# Convention : Reuss Voigt Hill
#
# Bulk Modulus (GPa) = 36.77028 55.04827 45.90927
# Shear Modulus (GPa) = 17.66946 23.98670 20.82808
#
# Velocity S-wave (km/s) = 3.10262 3.61495 3.36854
# Velocity P-wave (km/s) = 5.73300 6.88577 6.33566
#
# Compressibility (1/GPa) = 0.02719588
#
# Stress axis : x y z
#
# Youngs Moduli (GPa) = 31.56541 31.56541 47.38648
#
# Poissons Ratio (x) = 0.01447 0.66757
# Poissons Ratio (y) = 0.01447 0.66757
# Poissons Ratio (z) = 0.44468 0.44468
#
# Static dielectric constant tensor:
#      x y z
#    x 1.652820 0.000000 0.000000 
#    y 0.000000 1.652820 0.000000 
#    z 0.000000 0.000000 1.684390 
# 
# From -- ./inp_files/3636.got.cif
#   From: 2010.05.17/outbox.cif.g08.bks.cpg/sg152_2_cif.got.tgz:3636.got - 2010.05.20 10:36:06.
