data_PCOD9575725
_publ_section_title
;
Structure prediction by ZEFSAII (Michael W. Deem and Ramdas Pophale) SiO2 
 PCOD9575725
Probable space group: P 31 2 1
;
_chemical_formula_sum "Si O2"
_cell_formula_units_Z 36
_cell_length_a 17.034131
_cell_length_b 17.034131
_cell_length_c 8.078856
_cell_angle_alpha 90.000000
_cell_angle_beta 90.000000
_cell_angle_gamma 120.000000
_cell_volume 2030.114179
_symmetry_space_group_name_H-M "P 31 2 1"
_symmetry_group_IT_number 152
_symmetry_cell_setting 'hexagonal'
loop_
_space_group_symop_operation_xyz
x,y,z
-y,x-y,1/3+z
-x+y,-x,2/3+z
x-y,-y,2/3-z
-x,-x+y,1/3-z
y,x,-z
loop_
_atom_site_type_symbol
_atom_site_label
_atom_site_fract_x
_atom_site_fract_y
_atom_site_fract_z
Si Si1 0.599657 0.577952 0.262891
Si Si2 0.486208 0.145143 0.263013
Si Si3 0.668612 0.140969 0.265875
Si Si4 0.690173 0.196514 0.787891
Si Si5 0.391590 0.417554 0.729011
Si Si6 0.193515 0.499153 0.226361
O O1 0.582125 0.658222 0.208006
O O2 0.500283 0.493277 0.299301
O O3 0.664896 0.575526 0.403083
O O4 0.633711 0.548624 0.098539
O O5 0.585630 0.159062 0.230371
O O6 0.497946 0.241373 0.308507
O O7 0.645989 0.089869 0.440794
O O8 0.759091 0.236987 0.256830
O O9 0.663937 0.068983 0.128482
O O10 0.665704 0.092777 0.753800
O O11 0.596048 0.198110 0.783741
O O12 0.743588 0.246228 0.953349
#
# Coordination Sequence:
#
# PCOD9575725 Si02
#       6
#     6   6   6   6   6   6
#     4   7  13  25  37  50  69  95 129 160 193 235
#     4   8  13  24  39  50  68 101 130 156 194 245
#     4   9  16  27  41  53  72 101 130 166 208 245
#     4  10  18  26  38  57  76  97 133 171 202 239
#     4   8  16  29  40  51  71 103 134 157 200 261
#     4  10  18  25  37  58  78  95 128 178 209 231
#
# _framework density 17.732993
#
# number of rings (size 3 to 8) (size 9 to 14) (size 15 to 20)
#    0.000    3.333    0.000    4.000    0.000    2.000 
#    0.000    0.000    0.000    3.000    0.000    0.000 
#    0.000    0.000    0.000    0.000    0.000   40.000 
#
# Total GULP energy -200561.842179 kJ/mol
# GULP energy per Si atom -5571.162283 kJ/mol
# Density = 1.769263 g / cm^3
# Si number density = 17.732993 Si / 1000 Ang^3
#
#
#
# Elastic Constant Matrix: (Units=GPa)
#
#
# Indices 1 2 3 4 5 6 
#
# 1 69.7004 45.2829 12.5957 1.6827 0.0000 0.0000
# 2 45.2829 69.7004 12.5957 -1.6827 0.0000 0.0000
# 3 12.5957 12.5957 63.1480 0.0000 0.0000 0.0000
# 4 1.6827 -1.6827 0.0000 27.8399 0.0000 0.0000
# 5 0.0000 0.0000 0.0000 0.0000 27.8399 1.6827
# 6 0.0000 0.0000 0.0000 0.0000 1.6827 12.2087
#
#
#
# Elastic Compliance Matrix: (Units=1/GPa)
#
#
# Indices 1 2 3 4 5 6 
#
# 1 0.025196 -0.016102 -0.001814 -0.002496 0.000000 0.000000
# 2 -0.016102 0.025196 -0.001814 0.002496 0.000000 0.000000
# 3 -0.001814 -0.001814 0.016559 0.000000 0.000000 0.000000
# 4 -0.002496 0.002496 0.000000 0.036221 0.000000 0.000000
# 5 0.000000 0.000000 0.000000 0.000000 0.036221 -0.004992
# 6 0.000000 0.000000 0.000000 0.000000 -0.004992 0.082597
#
#
# Mechanical properties :
#
#
# Convention : Reuss Voigt Hill
#
# Bulk Modulus (GPa) = 36.37396 38.16638 37.27017
# Shear Modulus (GPa) = 18.47638 22.38265 20.42952
#
# Velocity S-wave (km/s) = 3.23138 3.55660 3.39789
# Velocity P-wave (km/s) = 5.87188 6.19963 6.03798
#
# Compressibility (1/GPa) = 0.02749219
#
# Stress axis : x y z
#
# Youngs Moduli (GPa) = 39.68832 39.68832 60.38840
#
# Poissons Ratio (x) = 0.63906 0.10954
# Poissons Ratio (y) = 0.63906 0.10954
# Poissons Ratio (z) = 0.07199 0.07199
#
# Static dielectric constant tensor:
#      x y z
#    x 1.602650 0.000000 0.000000 
#    y 0.000000 1.602650 0.000000 
#    z 0.000000 0.000000 1.793200 
# 
# From -- ./inp_files/1236.got.cif
#   From: 2010.05.17/outbox.cif.g08.bks.cpg/sg152_1_cif.got.tgz:1236.got - 2010.05.20 10:36:06.
