data_PCOD9575029
_publ_section_title
;
Structure prediction by ZEFSAII (Michael W. Deem and Ramdas Pophale) SiO2 
 PCOD9575029
Probable space group: R -3
;
_chemical_formula_sum "Si O2"
_cell_formula_units_Z 126
_cell_length_a 27.380521
_cell_length_b 27.380521
_cell_length_c 12.170970
_cell_angle_alpha 90.000000
_cell_angle_beta 90.000000
_cell_angle_gamma 120.000000
_cell_volume 7902.040278
_symmetry_space_group_name_H-M "R -3"
_symmetry_group_IT_number 148
_symmetry_cell_setting 'hexagonal'
loop_
_space_group_symop_operation_xyz
x,y,z
-y,x-y,z
-x+y,-x,z
-x,-y,-z
y,-x+y,-z
x-y,x,-z
2/3+x,1/3+y,1/3+z
2/3-y,1/3+x-y,1/3+z
2/3-x+y,1/3-x,1/3+z
2/3-x,1/3-y,1/3-z
2/3+y,1/3-x+y,1/3-z
2/3+x-y,1/3+x,1/3-z
1/3+x,2/3+y,2/3+z
1/3-y,2/3+x-y,2/3+z
1/3-x+y,2/3-x,2/3+z
1/3-x,2/3-y,2/3-z
1/3+y,2/3-x+y,2/3-z
1/3+x-y,2/3+x,2/3-z
loop_
_atom_site_type_symbol
_atom_site_label
_atom_site_fract_x
_atom_site_fract_y
_atom_site_fract_z
Si Si1 0.402773 0.987120 0.421081
Si Si2 0.333465 0.431070 0.098110
Si Si3 0.185388 0.944970 0.960006
Si Si4 0.160964 0.237892 0.011234
Si Si5 0.260019 0.391982 0.296530
Si Si6 0.043528 0.306870 0.154345
Si Si7 0.756195 0.159743 0.600219
O O1 0.375824 0.954904 0.308705
O O2 0.395403 0.941864 0.514140
O O3 0.464808 0.037909 0.389533
O O4 0.368550 0.018105 0.457254
O O5 0.296676 0.432825 0.198560
O O6 0.379443 0.418251 0.153085
O O7 0.368250 0.478607 0.007190
O O8 0.200580 0.008836 0.988392
O O9 0.118859 0.901019 0.964299
O O10 0.218039 0.932386 0.057108
O O11 0.158319 0.247234 0.141155
O O12 0.296394 0.395367 0.402674
O O13 0.209911 0.401104 0.338033
O O14 0.228763 0.325826 0.262597
#
# Coordination Sequence:
#
# PCOD9575029 Si02
#       7
#    18  18  18  18  18  18  18
#     4  11  20  31  50  78 108 140 176 212 253 303
#     4  11  19  30  50  73 102 140 180 214 247 301
#     4  11  22  36  52  77 107 137 180 220 263 313
#     4  11  21  37  53  75 105 143 174 217 267 305
#     4  10  19  32  47  72  97 136 180 213 250 301
#     4  10  19  29  50  72 106 141 179 211 249 303
#     4  10  19  33  50  68 100 140 173 214 257 302
#
# _framework density 15.945249
#
# number of rings (size 3 to 8) (size 9 to 14) (size 15 to 20)
#    0.000    1.429    4.286    4.714    0.000    0.000 
#    0.000    1.429    0.000    0.286    0.000    0.000 
#    0.000    0.000    0.000    1.714    0.000    0.000 
#
# Total GULP energy -234008.446418 kJ/mol
# GULP energy per Si atom -5571.629677 kJ/mol
# Density = 1.590896 g / cm^3
# Si number density = 15.945249 Si / 1000 Ang^3
#
#
#
# Elastic Constant Matrix: (Units=GPa)
#
#
# Indices 1 2 3 4 5 6 
#
# 1 50.2700 23.7708 12.4831 -4.5904 -3.6130 0.0000
# 2 23.7708 50.2700 12.4829 4.5904 3.6128 0.0000
# 3 12.4831 12.4829 76.4043 0.0002 -0.0005 0.0001
# 4 -4.5904 4.5904 0.0002 13.9665 0.0000 3.6129
# 5 -3.6130 3.6128 -0.0005 0.0000 13.9664 -4.5904
# 6 0.0000 0.0000 0.0001 3.6129 -4.5904 13.2496
#
#
#
# Elastic Compliance Matrix: (Units=1/GPa)
#
#
# Indices 1 2 3 4 5 6 
#
# 1 0.030282 -0.015988 -0.002335 0.015208 0.011969 0.000000
# 2 -0.015988 0.030282 -0.002335 -0.015208 -0.011969 0.000000
# 3 -0.002335 -0.002335 0.013851 0.000000 0.000000 0.000000
# 4 0.015208 -0.015208 0.000000 0.087789 0.000000 -0.023938
# 5 0.011969 -0.011969 0.000000 0.000000 0.087790 0.030416
# 6 0.000000 0.000000 0.000000 -0.023938 0.030416 0.092539
#
#
# Mechanical properties :
#
#
# Convention : Reuss Voigt Hill
#
# Bulk Modulus (GPa) = 30.21401 30.49088 30.35244
# Shear Modulus (GPa) = 12.66200 16.78365 14.72282
#
# Velocity S-wave (km/s) = 2.82102 3.24787 3.04194
# Velocity P-wave (km/s) = 5.44064 5.76443 5.60487
#
# Compressibility (1/GPa) = 0.03309723
#
# Stress axis : x y z
#
# Youngs Moduli (GPa) = 33.02330 33.02340 72.19514
#
# Poissons Ratio (x) = 0.52798 0.16860
# Poissons Ratio (y) = 0.52798 0.16859
# Poissons Ratio (z) = 0.07712 0.07712
#
# Static dielectric constant tensor:
#      x y z
#    x 1.547580 0.000000 0.000000 
#    y 0.000000 1.547580 0.000000 
#    z 0.000000 0.000000 1.565420 
# 
# From -- ./inp_files/1587.got.cif
#   From: 2010.05.17/outbox.cif.g08.bks.cpg/sg148_1_cif.got.tgz:1587.got - 2010.05.20 13:50:20.
