data_PCOD9575539
_publ_section_title
;
Structure prediction by ZEFSAII (Michael W. Deem and Ramdas Pophale) SiO2 
 PCOD9575539
Probable space group: P 31 1 2
;
_chemical_formula_sum "Si O2"
_cell_formula_units_Z 33
_cell_length_a 16.104192
_cell_length_b 16.104192
_cell_length_c 7.906384
_cell_angle_alpha 90.000000
_cell_angle_beta 90.000000
_cell_angle_gamma 120.000000
_cell_volume 1775.768773
_symmetry_space_group_name_H-M "P 31 1 2"
_symmetry_group_IT_number 151
_symmetry_cell_setting 'hexagonal'
loop_
_space_group_symop_operation_xyz
x,y,z
-y,x-y,1/3+z
-x+y,-x,2/3+z
-y,-x,2/3-z
-x+y,y,1/3-z
x,x-y,-z
loop_
_atom_site_type_symbol
_atom_site_label
_atom_site_fract_x
_atom_site_fract_y
_atom_site_fract_z
Si Si1 0.899731 0.279273 0.754245
Si Si2 0.519770 0.478717 0.149910
Si Si3 0.843593 0.513321 0.586476
Si Si4 0.221057 0.778944 0.833334
Si Si5 0.249861 0.377486 0.516926
Si Si6 0.414320 0.843562 0.355879
O O1 0.821719 0.178282 0.833334
O O2 0.886030 0.366567 0.826054
O O3 0.880063 0.283605 0.554131
O O4 0.011692 0.317582 0.797782
O O5 0.496949 0.503052 0.333334
O O6 0.460647 0.371704 0.084486
O O7 0.493680 0.534823 0.014006
O O8 0.742685 0.485370 0.666667
O O9 0.842707 0.421354 0.500000
O O10 0.212499 0.834967 0.671249
O O11 0.181362 0.667679 0.785378
O O12 0.172117 0.344233 0.666667
O O13 0.318882 0.492443 0.551140
O O14 0.401624 0.803248 0.166667
#
# Coordination Sequence:
#
# PCOD9575539 Si02
#       6
#     6   6   6   3   6   6
#     4  10  21  39  58  83 115 154 202 252 307 360
#     4  10  19  34  56  78 115 154 194 237 291 347
#     4  10  21  33  53  84 115 159 199 243 299 347
#     4  12  24  36  62  88 124 170 204 244 306 354
#     4  11  23  41  60  88 119 158 205 256 300 366
#     4  11  21  38  55  80 120 160 197 240 284 349
#
# _framework density 18.583500999999998
#
# number of rings (size 3 to 8) (size 9 to 14) (size 15 to 20)
#    0.000    1.455    1.818    6.545    0.000    5.091 
#    1.636    0.000    0.000    0.000    2.364    0.000 
#    0.000    0.000    0.000    0.000    0.000    0.000 
#
# Total GULP energy -183713.435462 kJ/mol
# GULP energy per Si atom -5567.073802 kJ/mol
# Density = 1.854120 g / cm^3
# Si number density = 18.583501 Si / 1000 Ang^3
#
#
#
# Elastic Constant Matrix: (Units=GPa)
#
#
# Indices 1 2 3 4 5 6 
#
# 1 82.8293 34.1984 41.4098 0.0001 2.2656 0.0000
# 2 34.1984 82.8293 41.4098 -0.0001 -2.2656 0.0000
# 3 41.4098 41.4098 154.3128 0.0000 0.0000 0.0000
# 4 0.0001 -0.0001 0.0000 21.1597 0.0000 -2.2656
# 5 2.2656 -2.2656 0.0000 0.0000 21.1597 0.0001
# 6 0.0000 0.0000 0.0000 -2.2656 0.0001 24.3154
#
#
#
# Elastic Compliance Matrix: (Units=1/GPa)
#
#
# Indices 1 2 3 4 5 6 
#
# 1 0.015659 -0.005111 -0.002831 0.000000 -0.002224 0.000000
# 2 -0.005111 0.015659 -0.002831 0.000000 0.002224 0.000000
# 3 -0.002831 -0.002831 0.008000 0.000000 0.000000 0.000000
# 4 0.000000 0.000000 0.000000 0.047736 0.000000 0.004448
# 5 -0.002224 0.002224 0.000000 0.000000 0.047736 0.000000
# 6 0.000000 0.000000 0.000000 0.004448 0.000000 0.041541
#
#
# Mechanical properties :
#
#
# Convention : Reuss Voigt Hill
#
# Bulk Modulus (GPa) = 56.26359 61.55637 58.90998
# Shear Modulus (GPa) = 24.53395 26.85720 25.69558
#
# Velocity S-wave (km/s) = 3.63740 3.80573 3.72251
# Velocity P-wave (km/s) = 6.92696 7.24621 7.08838
#
# Compressibility (1/GPa) = 0.01777348
#
# Stress axis : x y z
#
# Youngs Moduli (GPa) = 63.86011 63.86011 125.00738
#
# Poissons Ratio (x) = 0.32639 0.35385
# Poissons Ratio (y) = 0.32639 0.35385
# Poissons Ratio (z) = 0.18076 0.18076
#
# Static dielectric constant tensor:
#      x y z
#    x 1.671820 0.000000 0.000000 
#    y 0.000000 1.671820 0.000000 
#    z 0.000000 0.000000 1.750700 
# 
# From -- ./inp_files/1690.got.cif
#   From: 2010.05.17/outbox.cif.g08.bks.cpg/sg151_1_cif.got.tgz:1690.got - 2010.05.20 10:33:20.
