data_PCOD9575746
_publ_section_title
;
Structure prediction by ZEFSAII (Michael W. Deem and Ramdas Pophale) SiO2 
 PCOD9575746
Probable space group: P 31 2 1
;
_chemical_formula_sum "Si O2"
_cell_formula_units_Z 36
_cell_length_a 9.089579
_cell_length_b 9.089579
_cell_length_c 23.820309
_cell_angle_alpha 90.000000
_cell_angle_beta 90.000000
_cell_angle_gamma 120.000000
_cell_volume 1704.376587
_symmetry_space_group_name_H-M "P 31 2 1"
_symmetry_group_IT_number 152
_symmetry_cell_setting 'hexagonal'
loop_
_space_group_symop_operation_xyz
x,y,z
-y,x-y,1/3+z
-x+y,-x,2/3+z
x-y,-y,2/3-z
-x,-x+y,1/3-z
y,x,-z
loop_
_atom_site_type_symbol
_atom_site_label
_atom_site_fract_x
_atom_site_fract_y
_atom_site_fract_z
Si Si1 0.701675 0.358515 0.941396
Si Si2 0.575934 0.819751 0.825658
Si Si3 0.413279 0.032524 0.003099
Si Si4 0.063589 0.328162 0.768922
Si Si5 0.091562 0.257054 0.889286
Si Si6 0.088475 0.969071 0.945233
O O1 0.727522 0.306382 0.878947
O O2 0.650962 0.502423 0.934133
O O3 0.881710 0.439089 0.973531
O O4 0.567546 0.185184 0.971049
O O5 0.608918 0.742730 0.882145
O O6 0.740580 0.854025 0.787750
O O7 0.589858 0.000000 0.833334
O O8 0.370632 0.113478 0.057066
O O9 0.244711 0.946599 0.964041
O O10 0.147749 0.357517 0.831248
O O11 0.104947 0.190503 0.742223
O O12 0.152200 0.122915 0.900592
O O13 0.037530 0.037530 0.000000
#
# Coordination Sequence:
#
# PCOD9575746 Si02
#       6
#     6   6   6   6   6   6
#     4  11  23  40  58  91 128 165 206 262 330 378
#     4   9  18  39  63  85 116 157 207 252 309 380
#     4  10  22  39  59  86 131 163 199 262 322 384
#     4  10  19  38  63  90 116 161 210 258 306 377
#     4   8  17  37  64  83 114 159 208 249 298 374
#     4  10  18  35  66  93 116 162 214 256 314 387
#
# _framework density 21.122091000000001
#
# number of rings (size 3 to 8) (size 9 to 14) (size 15 to 20)
#    1.000    1.333    1.667    1.500    0.000    1.333 
#    3.000    4.167    0.000    0.000    0.000    0.000 
#    0.000    0.000    0.000    0.000    0.000    0.000 
#
# Total GULP energy -200538.992995 kJ/mol
# GULP energy per Si atom -5570.527583 kJ/mol
# Density = 2.107402 g / cm^3
# Si number density = 21.122091 Si / 1000 Ang^3
#
#
#
# Elastic Constant Matrix: (Units=GPa)
#
#
# Indices 1 2 3 4 5 6 
#
# 1 36.5060 25.2502 12.0605 -0.7620 -0.0001 0.0000
# 2 25.2502 36.5060 12.0605 0.7620 0.0001 0.0000
# 3 12.0605 12.0605 37.6669 0.0000 0.0000 0.0000
# 4 -0.7620 0.7620 0.0000 18.1553 0.0000 0.0001
# 5 -0.0001 0.0001 0.0000 0.0000 18.1553 -0.7620
# 6 0.0000 0.0000 0.0000 0.0001 -0.7620 5.6279
#
#
#
# Elastic Compliance Matrix: (Units=1/GPa)
#
#
# Indices 1 2 3 4 5 6 
#
# 1 0.053929 -0.035422 -0.005926 0.003750 0.000001 0.000000
# 2 -0.035422 0.053929 -0.005926 -0.003750 -0.000001 0.000000
# 3 -0.005926 -0.005926 0.030343 0.000000 0.000000 0.000000
# 4 0.003750 -0.003750 0.000000 0.055395 0.000000 -0.000001
# 5 0.000001 -0.000001 0.000000 0.000000 0.055395 0.007501
# 6 0.000000 0.000000 0.000000 -0.000001 0.007501 0.178702
#
#
# Mechanical properties :
#
#
# Convention : Reuss Voigt Hill
#
# Bulk Modulus (GPa) = 22.90715 23.26904 23.08809
# Shear Modulus (GPa) = 9.31459 12.47488 10.89474
#
# Velocity S-wave (km/s) = 2.10225 2.43288 2.27358
# Velocity P-wave (km/s) = 4.09405 4.35112 4.22454
#
# Compressibility (1/GPa) = 0.04365450
#
# Stress axis : x y z
#
# Youngs Moduli (GPa) = 18.54285 18.54285 32.95621
#
# Poissons Ratio (x) = 0.65682 0.19529
# Poissons Ratio (y) = 0.65682 0.19529
# Poissons Ratio (z) = 0.10988 0.10988
#
# Static dielectric constant tensor:
#      x y z
#    x 1.767530 0.000000 0.000000 
#    y 0.000000 1.767530 0.000000 
#    z 0.000000 0.000000 1.806670 
# 
# From -- ./inp_files/3372.got.cif
#   From: 2010.05.17/outbox.cif.g08.bks.cpg/sg152_2_cif.got.tgz:3372.got - 2010.05.20 10:36:06.
