data_PCOD9575935
_publ_section_title
;
Structure prediction by ZEFSAII (Michael W. Deem and Ramdas Pophale) SiO2 
 PCOD9575935
Probable space group: P 31 2 1
;
_chemical_formula_sum "Si O2"
_cell_formula_units_Z 42
_cell_length_a 8.495494
_cell_length_b 8.495494
_cell_length_c 31.971484
_cell_angle_alpha 90.000000
_cell_angle_beta 90.000000
_cell_angle_gamma 120.000000
_cell_volume 1998.346075
_symmetry_space_group_name_H-M "P 31 2 1"
_symmetry_group_IT_number 152
_symmetry_cell_setting 'hexagonal'
loop_
_space_group_symop_operation_xyz
x,y,z
-y,x-y,1/3+z
-x+y,-x,2/3+z
x-y,-y,2/3-z
-x,-x+y,1/3-z
y,x,-z
loop_
_atom_site_type_symbol
_atom_site_label
_atom_site_fract_x
_atom_site_fract_y
_atom_site_fract_z
Si Si1 0.598138 0.294904 0.919894
Si Si2 0.259525 0.227586 0.049633
Si Si3 0.683914 0.100569 0.529085
Si Si4 0.293193 0.777261 0.554094
Si Si5 0.791520 0.234168 0.659597
Si Si6 0.448892 0.561457 0.591948
Si Si7 0.862681 0.050818 0.067831
O O1 0.407360 0.285575 0.927387
O O2 0.712012 0.434848 0.883775
O O3 0.702142 0.382213 0.963374
O O4 0.564691 0.094768 0.911350
O O5 0.416288 0.193992 0.067838
O O6 0.058653 0.071351 0.062434
O O7 0.253915 0.253915 0.000000
O O8 0.727171 0.140008 0.480646
O O9 0.475489 0.954982 0.539378
O O10 0.799030 0.027307 0.553932
O O11 0.343247 0.618285 0.559005
O O12 0.684859 0.159176 0.702403
O O13 0.000000 0.393738 0.666667
O O14 0.807239 0.081481 0.633605
O O15 0.629566 0.752797 0.603978
#
# Coordination Sequence:
#
# PCOD9575935 Si02
#       7
#     6   6   6   6   6   6   6
#     4  10  21  37  58  82 117 156 197 244 299 362
#     4  11  22  39  62  91 121 155 196 246 303 361
#     4  10  23  42  61  86 117 160 203 247 300 357
#     4  11  23  41  63  86 119 156 204 252 299 360
#     4  11  20  33  56  88 122 155 198 252 305 360
#     4  10  21  37  58  84 116 161 201 245 305 367
#     4   9  22  39  58  85 121 161 199 242 303 371
#
# _framework density 21.017378999999998
#
# number of rings (size 3 to 8) (size 9 to 14) (size 15 to 20)
#    0.000    1.714    0.000    4.286    0.000   10.286 
#    0.000    5.714    0.000    0.000    0.000    0.000 
#    0.000    0.000    0.000    0.000    0.000    0.000 
#
# Total GULP energy -234720.681573 kJ/mol
# GULP energy per Si atom -5588.587657 kJ/mol
# Density = 2.096954 g / cm^3
# Si number density = 21.017379 Si / 1000 Ang^3
#
#
#
# Elastic Constant Matrix: (Units=GPa)
#
#
# Indices 1 2 3 4 5 6 
#
# 1 68.1513 12.7057 16.3830 -9.6573 0.0001 0.0000
# 2 12.7057 68.1513 16.3830 9.6573 -0.0001 0.0000
# 3 16.3830 16.3830 86.8300 0.0000 0.0000 0.0000
# 4 -9.6573 9.6573 0.0000 18.0914 0.0000 -0.0001
# 5 0.0001 -0.0001 0.0000 0.0000 18.0914 -9.6573
# 6 0.0000 0.0000 0.0000 -0.0001 -9.6573 27.7228
#
#
#
# Elastic Compliance Matrix: (Units=1/GPa)
#
#
# Indices 1 2 3 4 5 6 
#
# 1 0.017773 -0.004382 -0.002527 0.011827 0.000000 0.000000
# 2 -0.004382 0.017773 -0.002527 -0.011827 0.000000 0.000000
# 3 -0.002527 -0.002527 0.012470 0.000000 0.000000 0.000000
# 4 0.011827 -0.011827 0.000000 0.067901 0.000000 0.000000
# 5 0.000000 0.000000 0.000000 0.000000 0.067901 0.023653
# 6 0.000000 0.000000 0.000000 0.000000 0.023653 0.044311
#
#
# Mechanical properties :
#
#
# Convention : Reuss Voigt Hill
#
# Bulk Modulus (GPa) = 34.30965 34.89734 34.60350
# Shear Modulus (GPa) = 19.47671 24.62518 22.05095
#
# Velocity S-wave (km/s) = 3.04747 3.42666 3.24261
# Velocity P-wave (km/s) = 5.36121 5.68297 5.52443
#
# Compressibility (1/GPa) = 0.02914632
#
# Stress axis : x y z
#
# Youngs Moduli (GPa) = 56.26354 56.26354 80.19108
#
# Poissons Ratio (x) = 0.24655 0.20262
# Poissons Ratio (y) = 0.24655 0.20262
# Poissons Ratio (z) = 0.14216 0.14216
#
# Static dielectric constant tensor:
#      x y z
#    x 1.766850 0.000000 0.000000 
#    y 0.000000 1.766850 0.000000 
#    z 0.000000 0.000000 1.759790 
# 
# From -- ./inp_files/3701.got.cif
#   From: 2010.05.17/outbox.cif.g08.bks.cpg/sg152_2_cif.got.tgz:3701.got - 2010.05.20 10:36:06.
