data_PCOD9575708
_publ_section_title
;
Structure prediction by ZEFSAII (Michael W. Deem and Ramdas Pophale) SiO2 
 PCOD9575708
Probable space group: P 31 2 1
;
_chemical_formula_sum "Si O2"
_cell_formula_units_Z 39
_cell_length_a 8.783986
_cell_length_b 8.783986
_cell_length_c 30.777461
_cell_angle_alpha 90.000000
_cell_angle_beta 90.000000
_cell_angle_gamma 120.000000
_cell_volume 2056.585129
_symmetry_space_group_name_H-M "P 31 2 1"
_symmetry_group_IT_number 152
_symmetry_cell_setting 'hexagonal'
loop_
_space_group_symop_operation_xyz
x,y,z
-y,x-y,1/3+z
-x+y,-x,2/3+z
x-y,-y,2/3-z
-x,-x+y,1/3-z
y,x,-z
loop_
_atom_site_type_symbol
_atom_site_label
_atom_site_fract_x
_atom_site_fract_y
_atom_site_fract_z
Si Si1 0.747919 0.947463 0.565948
Si Si2 0.541620 0.571457 0.549641
Si Si3 0.445524 0.055394 0.119987
Si Si4 0.380284 0.839809 0.209036
Si Si5 0.047849 0.047849 0.500000
Si Si6 0.316393 0.206208 0.580589
Si Si7 0.758575 0.728558 0.048762
O O1 0.683405 0.742750 0.575168
O O2 0.565720 0.941013 0.558107
O O3 0.867628 0.010141 0.522534
O O4 0.866761 0.087320 0.601867
O O5 0.602453 0.602453 0.500000
O O6 0.346769 0.546644 0.545907
O O7 0.496087 0.384184 0.568887
O O8 0.476599 0.252262 0.124330
O O9 0.389821 0.948102 0.165821
O O10 0.308140 0.949999 0.081493
O O11 0.367119 0.944397 0.250540
O O12 0.187565 0.131491 0.538629
O O13 0.202524 0.247720 0.614255
O O14 0.691042 0.691042 0.000000
#
# Coordination Sequence:
#
# PCOD9575708 Si02
#       7
#     6   6   6   6   3   6   6
#     4  10  21  31  55  83 113 142 190 241 284 355
#     4  10  16  31  52  85 116 145 175 220 300 361
#     4  11  19  33  54  94 119 137 184 246 312 343
#     4  10  20  32  58  85 121 153 183 240 303 359
#     4  10  16  30  48  78 110 150 176 210 282 344
#     4  10  18  32  55  77 112 149 181 233 287 348
#     4  10  22  42  56  71 107 166 209 235 281 351
#
# _framework density 18.963476
#
# number of rings (size 3 to 8) (size 9 to 14) (size 15 to 20)
#    0.000    1.846    3.077    3.692    0.000    0.000 
#    0.000    5.385    0.000    0.000    0.000    0.000 
#    0.000    0.000    0.000    0.000    0.000    0.000 
#
# Total GULP energy -217216.176688 kJ/mol
# GULP energy per Si atom -5569.645556 kJ/mol
# Density = 1.892031 g / cm^3
# Si number density = 18.963476 Si / 1000 Ang^3
#
#
#
# Elastic Constant Matrix: (Units=GPa)
#
#
# Indices 1 2 3 4 5 6 
#
# 1 86.9286 30.7095 15.4182 3.2785 0.0000 0.0000
# 2 30.7095 86.9286 15.4182 -3.2785 0.0000 0.0000
# 3 15.4182 15.4182 50.7318 0.0000 0.0000 0.0000
# 4 3.2785 -3.2785 0.0000 10.7444 0.0000 0.0000
# 5 0.0000 0.0000 0.0000 0.0000 10.7444 3.2785
# 6 0.0000 0.0000 0.0000 0.0000 3.2785 28.1096
#
#
#
# Elastic Compliance Matrix: (Units=1/GPa)
#
#
# Indices 1 2 3 4 5 6 
#
# 1 0.013840 -0.004604 -0.002807 -0.005628 0.000000 0.000000
# 2 -0.004604 0.013840 -0.002807 0.005628 0.000000 0.000000
# 3 -0.002807 -0.002807 0.021418 0.000000 0.000000 0.000000
# 4 -0.005628 0.005628 0.000000 0.096506 0.000000 0.000000
# 5 0.000000 0.000000 0.000000 0.000000 0.096506 -0.011256
# 6 0.000000 0.000000 0.000000 0.000000 -0.011256 0.036888
#
#
# Mechanical properties :
#
#
# Convention : Reuss Voigt Hill
#
# Bulk Modulus (GPa) = 34.88910 38.63120 36.76015
# Shear Modulus (GPa) = 16.18188 20.78923 18.48556
#
# Velocity S-wave (km/s) = 2.92433 3.31460 3.12556
# Velocity P-wave (km/s) = 5.46262 5.92152 5.69669
#
# Compressibility (1/GPa) = 0.02866225
#
# Stress axis : x y z
#
# Youngs Moduli (GPa) = 72.25333 72.25333 46.69023
#
# Poissons Ratio (x) = 0.33263 0.13106
# Poissons Ratio (y) = 0.33263 0.13106
# Poissons Ratio (z) = 0.20282 0.20282
#
# Static dielectric constant tensor:
#      x y z
#    x 1.729810 0.000000 0.000000 
#    y 0.000000 1.729810 0.000000 
#    z 0.000000 0.000000 1.648400 
# 
# From -- ./inp_files/3655.got.cif
#   From: 2010.05.17/outbox.cif.g08.bks.cpg/sg152_2_cif.got.tgz:3655.got - 2010.05.20 10:36:06.
