data_PCOD9575919
_publ_section_title
;
Structure prediction by ZEFSAII (Michael W. Deem and Ramdas Pophale) SiO2 
 PCOD9575919
Probable space group: P 31 2 1
;
_chemical_formula_sum "Si O2"
_cell_formula_units_Z 45
_cell_length_a 14.604958
_cell_length_b 14.604958
_cell_length_c 9.934641
_cell_angle_alpha 90.000000
_cell_angle_beta 90.000000
_cell_angle_gamma 120.000000
_cell_volume 1835.200143
_symmetry_space_group_name_H-M "P 31 2 1"
_symmetry_group_IT_number 152
_symmetry_cell_setting 'hexagonal'
loop_
_space_group_symop_operation_xyz
x,y,z
-y,x-y,1/3+z
-x+y,-x,2/3+z
x-y,-y,2/3-z
-x,-x+y,1/3-z
y,x,-z
loop_
_atom_site_type_symbol
_atom_site_label
_atom_site_fract_x
_atom_site_fract_y
_atom_site_fract_z
Si Si1 0.112534 0.846689 0.466838
Si Si2 0.475289 0.818684 0.569335
Si Si3 0.331198 0.500738 0.816074
Si Si4 0.719406 0.799779 0.838354
Si Si5 0.738999 0.406749 0.136692
Si Si6 0.003338 0.438739 0.878716
Si Si7 0.302701 0.180609 0.784314
Si Si8 0.000000 0.348284 0.166667
O O1 0.153482 0.767312 0.517388
O O2 0.136625 0.862691 0.305734
O O3 0.988356 0.796115 0.491928
O O4 0.177932 0.965908 0.518997
O O5 0.440059 0.703357 0.512129
O O6 0.468472 0.793120 0.728491
O O7 0.595967 0.891161 0.530917
O O8 0.409132 0.875811 0.528926
O O9 0.322074 0.524964 0.658816
O O10 0.358644 0.612794 0.882980
O O11 0.443696 0.508158 0.830280
O O12 0.629119 0.676113 0.856554
O O13 0.703422 0.851881 0.706060
O O14 0.987815 0.405605 0.036140
O O15 0.326181 0.096471 0.855970
#
# Coordination Sequence:
#
# PCOD9575919 Si02
#       8
#     6   6   6   6   6   6   6   3
#     4  11  22  41  60  86 113 152 197 240 283 342
#     4  11  20  36  58  88 116 149 189 226 283 343
#     4  11  20  36  57  87 117 150 189 226 282 344
#     4  10  23  39  61  85 117 152 190 242 294 335
#     4  10  21  32  55  87 118 151 182 229 273 351
#     4  11  20  37  60  87 117 153 182 234 291 342
#     4  11  22  42  61  86 113 149 198 243 280 342
#     4  10  22  38  60  86 118 152 190 242 292 330
#
# _framework density 24.520486999999999
#
# number of rings (size 3 to 8) (size 9 to 14) (size 15 to 20)
#    0.000    1.333    1.333    7.600    0.000    0.000 
#    4.800    2.000    0.000    0.000    0.000    0.000 
#    0.000    0.000    0.000    0.000    0.000    0.000 
#
# Total GULP energy -251652.498120 kJ/mol
# GULP energy per Si atom -5592.277736 kJ/mol
# Density = 2.446468 g / cm^3
# Si number density = 24.520487 Si / 1000 Ang^3
#
#
#
# Elastic Constant Matrix: (Units=GPa)
#
#
# Indices 1 2 3 4 5 6 
#
# 1 122.3019 27.6816 -20.7830 -0.0258 0.0000 0.0000
# 2 27.6816 122.3019 -20.7830 0.0258 0.0000 0.0000
# 3 -20.7830 -20.7830 56.4307 0.0000 0.0000 0.0000
# 4 -0.0258 0.0258 0.0000 32.1775 0.0000 0.0000
# 5 0.0000 0.0000 0.0000 0.0000 32.1775 -0.0258
# 6 0.0000 0.0000 0.0000 0.0000 -0.0258 47.3101
#
#
#
# Elastic Compliance Matrix: (Units=1/GPa)
#
#
# Indices 1 2 3 4 5 6 
#
# 1 0.008997 -0.001572 0.002735 0.000008 0.000000 0.000000
# 2 -0.001572 0.008997 0.002735 -0.000008 0.000000 0.000000
# 3 0.002735 0.002735 0.019735 0.000000 0.000000 0.000000
# 4 0.000008 -0.000008 0.000000 0.031078 0.000000 0.000000
# 5 0.000000 0.000000 0.000000 0.000000 0.031078 0.000017
# 6 0.000000 0.000000 0.000000 0.000000 0.000017 0.021137
#
#
# Mechanical properties :
#
#
# Convention : Reuss Voigt Hill
#
# Bulk Modulus (GPa) = 21.96620 30.36284 26.16452
# Shear Modulus (GPa) = 38.94055 43.32761 41.13408
#
# Velocity S-wave (km/s) = 3.98940 4.20813 4.10022
# Velocity P-wave (km/s) = 5.49528 6.00172 5.75408
#
# Compressibility (1/GPa) = 0.04552448
#
# Stress axis : x y z
#
# Youngs Moduli (GPa) = 111.14910 111.14910 50.67091
#
# Poissons Ratio (x) = 0.17469 -0.13857
# Poissons Ratio (y) = 0.17469 -0.13857
# Poissons Ratio (z) = -0.30396 -0.30396
#
# Static dielectric constant tensor:
#      x y z
#    x 1.950910 0.000000 0.000000 
#    y 0.000000 1.950910 0.000000 
#    z 0.000000 0.000000 1.944060 
# 
# From -- ./inp_files/1886.got.cif
#   From: 2010.05.17/outbox.cif.g08.bks.cpg/sg152_1_cif.got.tgz:1886.got - 2010.05.20 10:36:06.
