data_PCOD9575686
_publ_section_title
;
Structure prediction by ZEFSAII (Michael W. Deem and Ramdas Pophale) SiO2 
 PCOD9575686
Probable space group: P 31 1 2
;
_chemical_formula_sum "Si O2"
_cell_formula_units_Z 30
_cell_length_a 17.182073
_cell_length_b 17.182073
_cell_length_c 5.473319
_cell_angle_alpha 90.000000
_cell_angle_beta 90.000000
_cell_angle_gamma 120.000000
_cell_volume 1399.369848
_symmetry_space_group_name_H-M "P 31 1 2"
_symmetry_group_IT_number 151
_symmetry_cell_setting 'hexagonal'
loop_
_space_group_symop_operation_xyz
x,y,z
-y,x-y,1/3+z
-x+y,-x,2/3+z
-y,-x,2/3-z
-x+y,y,1/3-z
x,x-y,-z
loop_
_atom_site_type_symbol
_atom_site_label
_atom_site_fract_x
_atom_site_fract_y
_atom_site_fract_z
Si Si1 0.328563 0.082123 0.416137
Si Si2 0.445435 0.463966 0.092202
Si Si3 0.663470 0.506017 0.736226
Si Si4 0.675126 0.924745 0.509003
Si Si5 0.000450 0.853426 0.517324
O O1 0.369366 0.184683 0.500000
O O2 0.410521 0.094252 0.248609
O O3 0.288413 0.994193 0.592070
O O4 0.238442 0.068739 0.283520
O O5 0.473949 0.526052 0.333334
O O6 0.339319 0.404292 0.060914
O O7 0.488102 0.511898 0.833334
O O8 0.477232 0.390589 0.143879
O O9 0.592711 0.407290 0.833334
O O10 0.756611 0.513221 0.666667
O O11 0.637516 0.818758 0.500000
O O12 0.767583 0.956492 0.362318
O O13 0.072954 0.927047 0.333334
O O14 0.944786 0.889572 0.666667
#
# Coordination Sequence:
#
# PCOD9575686 Si02
#       5
#     6   6   6   6   6
#     4  12  23  42  69  97 144 186 242 302 360 437
#     4  11  25  46  71 102 142 184 234 296 366 437
#     4  11  24  41  65 100 140 189 236 296 362 431
#     4  12  24  42  72 105 135 185 242 301 361 440
#     4  12  25  45  70 100 144 193 244 304 369 441
#
# _framework density 21.438219
#
# number of rings (size 3 to 8) (size 9 to 14) (size 15 to 20)
#    0.000    0.400    6.000    4.200    0.000    1.600 
#    0.000    5.000    0.000    1.200    0.000    1.400 
#    0.000    0.000    0.000    0.000    0.000    0.000 
#
# Total GULP energy -167177.560151 kJ/mol
# GULP energy per Si atom -5572.585338 kJ/mol
# Density = 2.138942 g / cm^3
# Si number density = 21.438219 Si / 1000 Ang^3
#
#
#
# Elastic Constant Matrix: (Units=GPa)
#
#
# Indices 1 2 3 4 5 6 
#
# 1 145.4980 85.1847 66.6536 0.0003 -0.5431 0.0000
# 2 85.1847 145.4980 66.6536 -0.0003 0.5431 0.0000
# 3 66.6536 66.6536 99.1775 0.0000 0.0000 0.0000
# 4 0.0003 -0.0003 0.0000 31.4243 0.0000 0.5431
# 5 -0.5431 0.5431 0.0000 0.0000 31.4243 0.0003
# 6 0.0000 0.0000 0.0000 0.5431 0.0003 30.1567
#
#
#
# Elastic Compliance Matrix: (Units=1/GPa)
#
#
# Indices 1 2 3 4 5 6 
#
# 1 0.011836 -0.004749 -0.004763 0.000000 0.000287 0.000000
# 2 -0.004749 0.011836 -0.004763 0.000000 -0.000287 0.000000
# 3 -0.004763 -0.004763 0.016485 0.000000 0.000000 0.000000
# 4 0.000000 0.000000 0.000000 0.031832 0.000000 -0.000573
# 5 0.000287 -0.000287 0.000000 0.000000 0.031832 0.000000
# 6 0.000000 0.000000 0.000000 -0.000573 0.000000 0.033171
#
#
# Mechanical properties :
#
#
# Convention : Reuss Voigt Hill
#
# Bulk Modulus (GPa) = 86.15223 91.90636 89.02929
# Shear Modulus (GPa) = 29.51356 30.04648 29.78002
#
# Velocity S-wave (km/s) = 3.71439 3.74777 3.73112
# Velocity P-wave (km/s) = 7.65958 7.85437 7.75758
#
# Compressibility (1/GPa) = 0.01160736
#
# Stress axis : x y z
#
# Youngs Moduli (GPa) = 84.48500 84.48500 60.65960
#
# Poissons Ratio (x) = 0.40120 0.28894
# Poissons Ratio (y) = 0.40120 0.28894
# Poissons Ratio (z) = 0.40243 0.40243
#
# Static dielectric constant tensor:
#      x y z
#    x 1.818350 0.000000 0.000000 
#    y 0.000000 1.818350 0.000000 
#    z 0.000000 0.000000 1.216810 
# 
# From -- ./inp_files/441.got.cif
#   From: 2010.05.17/outbox.cif.g08.bks.cpg/sg151_1_cif.got.tgz:441.got - 2010.05.20 10:33:20.
