data_PCOD9575288
_publ_section_title
;
Structure prediction by ZEFSAII (Michael W. Deem and Ramdas Pophale) SiO2 
 PCOD9575288
Probable space group: R -3
;
_chemical_formula_sum "Si O2"
_cell_formula_units_Z 72
_cell_length_a 14.367375
_cell_length_b 14.367375
_cell_length_c 19.481397
_cell_angle_alpha 90.000000
_cell_angle_beta 90.000000
_cell_angle_gamma 120.000000
_cell_volume 3482.615937
_symmetry_space_group_name_H-M "R -3"
_symmetry_group_IT_number 148
_symmetry_cell_setting 'hexagonal'
loop_
_space_group_symop_operation_xyz
x,y,z
-y,x-y,z
-x+y,-x,z
-x,-y,-z
y,-x+y,-z
x-y,x,-z
2/3+x,1/3+y,1/3+z
2/3-y,1/3+x-y,1/3+z
2/3-x+y,1/3-x,1/3+z
2/3-x,1/3-y,1/3-z
2/3+y,1/3-x+y,1/3-z
2/3+x-y,1/3+x,1/3-z
1/3+x,2/3+y,2/3+z
1/3-y,2/3+x-y,2/3+z
1/3-x+y,2/3-x,2/3+z
1/3-x,2/3-y,2/3-z
1/3+y,2/3-x+y,2/3-z
1/3+x-y,2/3+x,2/3-z
loop_
_atom_site_type_symbol
_atom_site_label
_atom_site_fract_x
_atom_site_fract_y
_atom_site_fract_z
Si Si1 0.610390 0.705610 0.841706
Si Si2 0.320473 0.455002 0.194841
Si Si3 0.987139 0.198804 0.028175
Si Si4 0.277057 0.238113 0.675039
O O1 0.666667 0.833334 0.833334
O O2 0.689806 0.657407 0.829287
O O3 0.531892 0.658580 0.776370
O O4 0.559986 0.666667 0.916667
O O5 0.214731 0.459229 0.177256
O O6 0.341421 0.468108 0.276370
O O7 0.088835 0.207437 0.989410
O O8 0.976860 0.300934 0.004047
O O9 0.333334 0.166667 0.666667
#
# Coordination Sequence:
#
# PCOD9575288 Si02
#       4
#    18  18  18  18
#     4  11  24  42  69 104 138 185 249 302 367 442
#     4  11  25  43  70 101 147 192 244 303 381 444
#     4  11  25  43  70 101 147 192 244 303 381 444
#     4  11  24  42  69 104 138 185 249 302 367 442
#
# _framework density 20.674113999999999
#
# number of rings (size 3 to 8) (size 9 to 14) (size 15 to 20)
#    0.000    1.000    5.000    0.500    7.000    0.000 
#    0.000    0.000    0.000    2.000   13.000    0.000 
#    0.000    0.000    0.000    0.000    0.000    0.000 
#
# Total GULP energy -134063.382431 kJ/mol
# GULP energy per Si atom -5585.974268 kJ/mol
# Density = 2.062706 g / cm^3
# Si number density = 20.674114 Si / 1000 Ang^3
#
#
#
# Elastic Constant Matrix: (Units=GPa)
#
#
# Indices 1 2 3 4 5 6 
#
# 1 106.2552 57.9695 27.3487 -3.7852 -0.0001 0.0000
# 2 57.9695 106.2552 27.3487 3.7852 0.0001 0.0000
# 3 27.3487 27.3487 207.5667 0.0000 0.0000 0.0000
# 4 -3.7852 3.7852 0.0000 31.5503 0.0000 0.0001
# 5 -0.0001 0.0001 0.0000 0.0000 31.5503 -3.7852
# 6 0.0000 0.0000 0.0000 0.0001 -3.7852 24.1429
#
#
#
# Elastic Compliance Matrix: (Units=1/GPa)
#
#
# Indices 1 2 3 4 5 6 
#
# 1 0.013738 -0.007369 -0.000839 0.002532 0.000000 0.000000
# 2 -0.007369 0.013738 -0.000839 -0.002532 0.000000 0.000000
# 3 -0.000839 -0.000839 0.005039 0.000000 0.000000 0.000000
# 4 0.002532 -0.002532 0.000000 0.032303 0.000000 0.000000
# 5 0.000000 0.000000 0.000000 0.000000 0.032303 0.005065
# 6 0.000000 0.000000 0.000000 0.000000 0.005065 0.042214
#
#
# Mechanical properties :
#
#
# Convention : Reuss Voigt Hill
#
# Bulk Modulus (GPa) = 69.34942 71.71233 70.53088
# Shear Modulus (GPa) = 30.81922 37.94270 34.38096
#
# Velocity S-wave (km/s) = 3.86517 4.28866 4.08241
# Velocity P-wave (km/s) = 7.31685 7.69973 7.51073
#
# Compressibility (1/GPa) = 0.01441973
#
# Stress axis : x y z
#
# Youngs Moduli (GPa) = 72.79137 72.79137 198.45781
#
# Poissons Ratio (x) = 0.53641 0.16653
# Poissons Ratio (y) = 0.53641 0.16653
# Poissons Ratio (z) = 0.06108 0.06108
#
# Static dielectric constant tensor:
#      x y z
#    x 1.739780 0.000000 0.000000 
#    y 0.000000 1.739780 0.000000 
#    z 0.000000 0.000000 1.790560 
# 
# From -- ./inp_files/2531.got.cif
#   From: 2010.05.17/outbox.cif.g08.bks.cpg/sg148_2_cif.got.tgz:2531.got - 2010.05.20 13:50:20.
