data_PCOD9575251
_publ_section_title
;
Structure prediction by ZEFSAII (Michael W. Deem and Ramdas Pophale) SiO2 
 PCOD9575251
Probable space group: R -3
;
_chemical_formula_sum "Si O2"
_cell_formula_units_Z 108
_cell_length_a 23.761619
_cell_length_b 23.761619
_cell_length_c 14.392661
_cell_angle_alpha 90.000000
_cell_angle_beta 90.000000
_cell_angle_gamma 120.000000
_cell_volume 7037.587118
_symmetry_space_group_name_H-M "R -3"
_symmetry_group_IT_number 148
_symmetry_cell_setting 'hexagonal'
loop_
_space_group_symop_operation_xyz
x,y,z
-y,x-y,z
-x+y,-x,z
-x,-y,-z
y,-x+y,-z
x-y,x,-z
2/3+x,1/3+y,1/3+z
2/3-y,1/3+x-y,1/3+z
2/3-x+y,1/3-x,1/3+z
2/3-x,1/3-y,1/3-z
2/3+y,1/3-x+y,1/3-z
2/3+x-y,1/3+x,1/3-z
1/3+x,2/3+y,2/3+z
1/3-y,2/3+x-y,2/3+z
1/3-x+y,2/3-x,2/3+z
1/3-x,2/3-y,2/3-z
1/3+y,2/3-x+y,2/3-z
1/3+x-y,2/3+x,2/3-z
loop_
_atom_site_type_symbol
_atom_site_label
_atom_site_fract_x
_atom_site_fract_y
_atom_site_fract_z
Si Si1 0.697042 0.649463 0.584956
Si Si2 0.616074 0.825969 0.536799
Si Si3 0.090341 0.935007 0.003357
Si Si4 0.042974 0.748804 0.213661
Si Si5 0.033624 0.563130 0.381696
Si Si6 0.921934 0.759013 0.172461
O O1 0.742655 0.630282 0.526327
O O2 0.730609 0.689129 0.678441
O O3 0.668098 0.685700 0.519252
O O4 0.638035 0.582068 0.623951
O O5 0.542335 0.786707 0.579587
O O6 0.635507 0.777857 0.485959
O O7 0.663007 0.856837 0.625044
O O8 0.117877 0.921284 0.909334
O O9 0.012345 0.894116 0.997194
O O10 0.992848 0.775294 0.201406
O O11 0.088064 0.546371 0.412041
O O12 0.979778 0.538529 0.463094
#
# Coordination Sequence:
#
# PCOD9575251 Si02
#       6
#    18  18  18  18  18  18
#     4  11  21  35  54  80 113 145 182 228 277 327
#     4  11  21  35  54  80 113 145 182 228 277 327
#     4  11  21  35  54  80 113 145 182 228 277 327
#     4  11  21  35  54  80 113 145 182 228 277 327
#     4   9  18  32  52  75 105 144 181 217 265 330
#     4   9  18  32  52  75 105 144 181 217 265 330
#
# _framework density 15.346168
#
# number of rings (size 3 to 8) (size 9 to 14) (size 15 to 20)
#    0.000    1.667    3.333    2.667    0.000    2.667 
#    0.000    0.000    0.000    0.000    0.000    0.000 
#    0.000    0.000    0.000    5.000    0.000    0.000 
#
# Total GULP energy -200461.913971 kJ/mol
# GULP energy per Si atom -5568.386499 kJ/mol
# Density = 1.531124 g / cm^3
# Si number density = 15.346168 Si / 1000 Ang^3
#
#
#
# Elastic Constant Matrix: (Units=GPa)
#
#
# Indices 1 2 3 4 5 6 
#
# 1 70.7390 24.9858 9.0849 -3.9423 1.4314 0.0000
# 2 24.9858 70.7390 9.0848 3.9423 -1.4314 0.0000
# 3 9.0849 9.0848 39.3564 0.0000 0.0000 0.0000
# 4 -3.9423 3.9423 0.0000 15.1562 0.0000 -1.4314
# 5 1.4314 -1.4314 0.0000 0.0000 15.1562 -3.9423
# 6 0.0000 0.0000 0.0000 -1.4314 -3.9423 22.8766
#
#
#
# Elastic Compliance Matrix: (Units=1/GPa)
#
#
# Indices 1 2 3 4 5 6 
#
# 1 0.016975 -0.006050 -0.002522 0.005989 -0.002175 0.000000
# 2 -0.006050 0.016975 -0.002522 -0.005989 0.002175 0.000000
# 3 -0.002522 -0.002522 0.026573 0.000000 0.000000 0.000000
# 4 0.005989 -0.005989 0.000000 0.069506 0.000000 0.004349
# 5 -0.002175 0.002175 0.000000 0.000000 0.069506 0.011978
# 6 0.000000 0.000000 0.000000 0.004349 0.011978 0.046049
#
#
# Mechanical properties :
#
#
# Convention : Reuss Voigt Hill
#
# Bulk Modulus (GPa) = 26.08516 29.68282 27.88399
# Shear Modulus (GPa) = 17.82217 19.81639 18.81928
#
# Velocity S-wave (km/s) = 3.41155 3.59735 3.50568
# Velocity P-wave (km/s) = 5.70552 6.05300 5.88182
#
# Compressibility (1/GPa) = 0.03833598
#
# Stress axis : x y z
#
# Youngs Moduli (GPa) = 58.91051 58.91051 37.63196
#
# Poissons Ratio (x) = 0.35638 0.09491
# Poissons Ratio (y) = 0.35638 0.09491
# Poissons Ratio (z) = 0.14857 0.14857
#
# Static dielectric constant tensor:
#      x y z
#    x 1.523230 0.000000 0.000000 
#    y 0.000000 1.523230 0.000000 
#    z 0.000000 0.000000 1.502380 
# 
# From -- ./inp_files/1524.got.cif
#   From: 2010.05.17/outbox.cif.g08.bks.cpg/sg148_1_cif.got.tgz:1524.got - 2010.05.20 13:50:20.
