data_PCOD9575178
_publ_section_title
;
Structure prediction by ZEFSAII (Michael W. Deem and Ramdas Pophale) SiO2 
 PCOD9575178
Probable space group: R -3
;
_chemical_formula_sum "Si O2"
_cell_formula_units_Z 108
_cell_length_a 21.849820
_cell_length_b 21.849820
_cell_length_c 13.062481
_cell_angle_alpha 90.000000
_cell_angle_beta 90.000000
_cell_angle_gamma 120.000000
_cell_volume 5400.724585
_symmetry_space_group_name_H-M "R -3"
_symmetry_group_IT_number 148
_symmetry_cell_setting 'hexagonal'
loop_
_space_group_symop_operation_xyz
x,y,z
-y,x-y,z
-x+y,-x,z
-x,-y,-z
y,-x+y,-z
x-y,x,-z
2/3+x,1/3+y,1/3+z
2/3-y,1/3+x-y,1/3+z
2/3-x+y,1/3-x,1/3+z
2/3-x,1/3-y,1/3-z
2/3+y,1/3-x+y,1/3-z
2/3+x-y,1/3+x,1/3-z
1/3+x,2/3+y,2/3+z
1/3-y,2/3+x-y,2/3+z
1/3-x+y,2/3-x,2/3+z
1/3-x,2/3-y,2/3-z
1/3+y,2/3-x+y,2/3-z
1/3+x-y,2/3+x,2/3-z
loop_
_atom_site_type_symbol
_atom_site_label
_atom_site_fract_x
_atom_site_fract_y
_atom_site_fract_z
Si Si1 0.508326 0.854357 0.426452
Si Si2 0.507503 0.266382 0.298050
Si Si3 0.526691 0.196103 0.802506
Si Si4 0.887599 0.722585 0.888922
Si Si5 0.023981 0.701459 0.677392
Si Si6 0.396068 0.966062 0.173660
O O1 0.451336 0.837615 0.514653
O O2 0.475557 0.824916 0.316238
O O3 0.556060 0.821505 0.465919
O O4 0.564094 0.937481 0.412751
O O5 0.554026 0.341764 0.352922
O O6 0.433161 0.223927 0.355775
O O7 0.531284 0.271360 0.811361
O O8 0.451935 0.138129 0.851070
O O9 0.938362 0.696181 0.936407
O O10 0.812270 0.661036 0.852210
O O11 0.004642 0.633580 0.745373
O O12 0.957842 0.685600 0.605031
#
# Coordination Sequence:
#
# PCOD9575178 Si02
#       6
#    18  18  18  18  18  18
#     4  10  23  42  66  94 131 171 216 275 327 384
#     4  10  22  42  65  96 132 171 219 273 330 396
#     4  11  26  45  66  95 132 176 228 270 319 392
#     4  11  23  42  63 100 133 169 219 276 325 396
#     4  11  23  42  64  96 136 167 218 271 326 389
#     4  11  23  40  68  95 132 175 216 265 334 391
#
# _framework density 19.997316999999999
#
# number of rings (size 3 to 8) (size 9 to 14) (size 15 to 20)
#    0.000    1.333    1.667    4.333    2.333    4.667 
#    6.000    0.000    0.000    0.000    0.000    0.000 
#    0.000    0.000    0.000    0.000    0.000    0.000 
#
# Total GULP energy -201196.820629 kJ/mol
# GULP energy per Si atom -5588.800573 kJ/mol
# Density = 1.995180 g / cm^3
# Si number density = 19.997317 Si / 1000 Ang^3
#
#
#
# Elastic Constant Matrix: (Units=GPa)
#
#
# Indices 1 2 3 4 5 6 
#
# 1 54.4570 -1.2032 17.8793 2.7254 2.7274 0.0000
# 2 -1.2032 54.4570 17.8793 -2.7254 -2.7274 0.0000
# 3 17.8793 17.8793 52.4834 0.0000 0.0000 0.0000
# 4 2.7254 -2.7254 0.0000 27.4132 0.0000 -2.7274
# 5 2.7274 -2.7274 0.0000 0.0000 27.4132 2.7254
# 6 0.0000 0.0000 0.0000 -2.7274 2.7254 27.8301
#
#
#
# Elastic Compliance Matrix: (Units=1/GPa)
#
#
# Indices 1 2 3 4 5 6 
#
# 1 0.021335 0.003012 -0.008294 -0.001822 -0.001823 0.000000
# 2 0.003012 0.021335 -0.008294 0.001822 0.001823 0.000000
# 3 -0.008294 -0.008294 0.024705 0.000000 0.000000 0.000000
# 4 -0.001822 0.001822 0.000000 0.037204 0.000000 0.003646
# 5 -0.001823 0.001823 0.000000 0.000000 0.037204 -0.003643
# 6 0.000000 0.000000 0.000000 0.003646 -0.003643 0.036646
#
#
# Mechanical properties :
#
#
# Convention : Reuss Voigt Hill
#
# Bulk Modulus (GPa) = 24.86181 25.61204 25.23693
# Shear Modulus (GPa) = 22.83206 24.98741 23.90974
#
# Velocity S-wave (km/s) = 3.38265 3.53872 3.46156
# Velocity P-wave (km/s) = 5.26460 5.43436 5.35015
#
# Compressibility (1/GPa) = 0.04022234
#
# Stress axis : x y z
#
# Youngs Moduli (GPa) = 46.87058 46.87058 40.47785
#
# Poissons Ratio (x) = -0.14118 0.33574
# Poissons Ratio (y) = -0.14118 0.33574
# Poissons Ratio (z) = 0.38876 0.38876
#
# Static dielectric constant tensor:
#      x y z
#    x 1.704960 0.000000 0.000000 
#    y 0.000000 1.704960 0.000000 
#    z 0.000000 0.000000 1.694900 
# 
# From -- ./inp_files/2074.got.cif
#   From: 2010.05.17/outbox.cif.g08.bks.cpg/sg148_2_cif.got.tgz:2074.got - 2010.05.20 13:50:20.
