data_PCOD9575334
_publ_section_title
;
Structure prediction by ZEFSAII (Michael W. Deem and Ramdas Pophale) SiO2 
 PCOD9575334
Probable space group: R -3
;
_chemical_formula_sum "Si O2"
_cell_formula_units_Z 84
_cell_length_a 14.269978
_cell_length_b 14.269978
_cell_length_c 21.379344
_cell_angle_alpha 90.000000
_cell_angle_beta 90.000000
_cell_angle_gamma 120.000000
_cell_volume 3770.262722
_symmetry_space_group_name_H-M "R -3"
_symmetry_group_IT_number 148
_symmetry_cell_setting 'hexagonal'
loop_
_space_group_symop_operation_xyz
x,y,z
-y,x-y,z
-x+y,-x,z
-x,-y,-z
y,-x+y,-z
x-y,x,-z
2/3+x,1/3+y,1/3+z
2/3-y,1/3+x-y,1/3+z
2/3-x+y,1/3-x,1/3+z
2/3-x,1/3-y,1/3-z
2/3+y,1/3-x+y,1/3-z
2/3+x-y,1/3+x,1/3-z
1/3+x,2/3+y,2/3+z
1/3-y,2/3+x-y,2/3+z
1/3-x+y,2/3-x,2/3+z
1/3-x,2/3-y,2/3-z
1/3+y,2/3-x+y,2/3-z
1/3+x-y,2/3+x,2/3-z
loop_
_atom_site_type_symbol
_atom_site_label
_atom_site_fract_x
_atom_site_fract_y
_atom_site_fract_z
Si Si1 0.210532 0.987872 0.139118
Si Si2 0.333334 0.666667 0.526842
Si Si3 0.000000 0.000000 0.293486
Si Si4 0.709544 0.061116 0.609753
Si Si5 0.545910 0.443150 0.842855
Si Si6 0.648603 0.126038 0.052511
O O1 0.313874 0.046761 0.093565
O O2 0.185812 0.863688 0.145758
O O3 0.232539 0.025442 0.211602
O O4 0.105734 0.994503 0.119578
O O5 0.333334 0.666667 0.450261
O O6 0.967151 0.089370 0.311284
O O7 0.804121 0.058725 0.569713
O O8 0.718517 0.019316 0.677590
O O9 0.758488 0.189634 0.608556
O O10 0.669293 0.496535 0.864122
#
# Coordination Sequence:
#
# PCOD9575334 Si02
#       6
#    18   6   6  18  18  18
#     4   9  18  34  54  81 116 159 202 246 290 341
#     4   9  18  36  57  81 118 161 208 247 284 334
#     4   9  18  33  54  84 119 149 192 241 287 349
#     4   9  18  33  53  80 116 153 198 243 292 349
#     4   9  17  29  46  76 116 155 196 240 298 359
#     4   9  18  33  53  82 117 152 193 240 290 351
#
# _framework density 22.279613999999999
#
# number of rings (size 3 to 8) (size 9 to 14) (size 15 to 20)
#    0.000    3.000    0.000    0.214    0.000    3.429 
#    0.000   31.071    0.000    0.000    0.000   24.000 
#    0.000   58.286    0.000    0.000    0.000    0.000 
#
# Total GULP energy -155929.845850 kJ/mol
# GULP energy per Si atom -5568.923066 kJ/mol
# Density = 2.222890 g / cm^3
# Si number density = 22.279614 Si / 1000 Ang^3
#
#
#
# Elastic Constant Matrix: (Units=GPa)
#
#
# Indices 1 2 3 4 5 6 
#
# 1 81.4766 24.5053 29.1253 -7.2551 -1.9760 -0.0002
# 2 24.5053 81.4789 29.1250 7.2551 1.9760 -0.0002
# 3 29.1253 29.1250 47.3540 0.0000 0.0002 0.0000
# 4 -7.2551 7.2551 0.0000 10.0614 0.0001 1.9760
# 5 -1.9760 1.9760 0.0002 0.0001 10.0613 -7.2551
# 6 -0.0002 -0.0002 0.0000 1.9760 -7.2551 28.4865
#
#
#
# Elastic Compliance Matrix: (Units=1/GPa)
#
#
# Indices 1 2 3 4 5 6 
#
# 1 0.018060 -0.003806 -0.008767 0.015767 0.004295 0.000000
# 2 -0.003806 0.018060 -0.008767 -0.015767 -0.004294 0.000000
# 3 -0.008767 -0.008767 0.031902 0.000000 -0.000001 0.000000
# 4 0.015767 -0.015767 0.000000 0.123815 -0.000001 -0.008589
# 5 0.004295 -0.004294 -0.000001 -0.000001 0.123817 0.031534
# 6 0.000000 0.000000 0.000000 -0.008589 0.031534 0.043731
#
#
# Mechanical properties :
#
#
# Convention : Reuss Voigt Hill
#
# Bulk Modulus (GPa) = 39.46022 41.75788 40.60905
# Shear Modulus (GPa) = 12.17992 18.22543 15.20267
#
# Velocity S-wave (km/s) = 2.34066 2.86323 2.61503
# Velocity P-wave (km/s) = 5.00547 5.45106 5.23301
#
# Compressibility (1/GPa) = 0.02534198
#
# Stress axis : x y z
#
# Youngs Moduli (GPa) = 55.36996 55.37247 31.34620
#
# Poissons Ratio (x) = 0.21075 0.27482
# Poissons Ratio (y) = 0.21074 0.27480
# Poissons Ratio (z) = 0.48544 0.48543
#
# Static dielectric constant tensor:
#      x y z
#    x 1.913610 0.000000 0.000000 
#    y 0.000000 1.913610 0.000000 
#    z 0.000000 0.000000 1.891800 
# 
# From -- ./inp_files/3357.got.cif
#   From: 2010.05.17/outbox.cif.g08.bks.cpg/sg148_2_cif.got.tgz:3357.got - 2010.05.20 13:50:20.
