data_PCOD9575520
_publ_section_title
;
Structure prediction by ZEFSAII (Michael W. Deem and Ramdas Pophale) SiO2 
 PCOD9575520
Probable space group: P 31 1 2
;
_chemical_formula_sum "Si O2"
_cell_formula_units_Z 39
_cell_length_a 12.018597
_cell_length_b 12.018597
_cell_length_c 16.302586
_cell_angle_alpha 90.000000
_cell_angle_beta 90.000000
_cell_angle_gamma 120.000000
_cell_volume 2039.363666
_symmetry_space_group_name_H-M "P 31 1 2"
_symmetry_group_IT_number 151
_symmetry_cell_setting 'hexagonal'
loop_
_space_group_symop_operation_xyz
x,y,z
-y,x-y,1/3+z
-x+y,-x,2/3+z
-y,-x,2/3-z
-x+y,y,1/3-z
x,x-y,-z
loop_
_atom_site_type_symbol
_atom_site_label
_atom_site_fract_x
_atom_site_fract_y
_atom_site_fract_z
Si Si1 0.524071 0.048142 0.166667
Si Si2 0.896333 0.735981 0.069990
Si Si3 0.197680 0.814490 0.633533
Si Si4 0.113007 0.226014 0.666667
Si Si5 0.344648 0.655353 0.333334
Si Si6 0.267851 0.453234 0.784265
Si Si7 0.666649 0.579528 0.675294
Si Si8 0.751358 0.316149 0.738555
O O1 0.487677 0.117436 0.098407
O O2 0.555783 0.952715 0.115924
O O3 0.882909 0.765818 0.166667
O O4 0.792338 0.584588 0.059902
O O5 0.040228 0.771489 0.043201
O O6 0.857430 0.818969 0.011689
O O7 0.289887 0.783460 0.687098
O O8 0.220482 0.775171 0.543286
O O9 0.054930 0.701418 0.658034
O O10 0.160525 0.325688 0.741549
O O11 0.281955 0.697498 0.406448
O O12 0.815851 0.631701 0.666667
O O13 0.589536 0.460943 0.612042
O O14 0.701578 0.298423 0.833334
O O15 0.649391 0.298782 0.666667
#
# Coordination Sequence:
#
# PCOD9575520 Si02
#       8
#     3   6   6   3   3   6   6   6
#     4  10  18  38  60  96 126 168 222 264 342 390
#     4  11  24  42  65  93 131 177 224 273 342 415
#     4  11  23  40  63  95 130 168 215 282 339 399
#     4  11  22  38  64  88 119 170 230 262 325 408
#     4  11  20  34  66  94 125 156 208 278 339 386
#     4  10  19  36  64  93 118 164 217 271 322 409
#     4  10  22  37  64  93 128 174 218 280 326 402
#     4  10  24  44  68  99 132 181 228 278 338 415
#
# _framework density 19.123614
#
# number of rings (size 3 to 8) (size 9 to 14) (size 15 to 20)
#    0.000    1.538    4.615    0.923    8.615    0.000 
#    0.000    0.000    0.000    0.000    0.000    0.000 
#    0.000    0.000    0.000    0.000    0.000    0.000 
#
# Total GULP energy -217200.624476 kJ/mol
# GULP energy per Si atom -5569.246781 kJ/mol
# Density = 1.908009 g / cm^3
# Si number density = 19.123614 Si / 1000 Ang^3
#
#
#
# Elastic Constant Matrix: (Units=GPa)
#
#
# Indices 1 2 3 4 5 6 
#
# 1 137.0030 61.8583 28.5949 -0.0001 1.4096 0.0000
# 2 61.8583 137.0030 28.5949 0.0001 -1.4096 0.0000
# 3 28.5949 28.5949 53.8791 0.0000 0.0000 0.0000
# 4 -0.0001 0.0001 0.0000 22.3163 0.0000 -1.4096
# 5 1.4096 -1.4096 0.0000 0.0000 22.3163 -0.0001
# 6 0.0000 0.0000 0.0000 -1.4096 -0.0001 37.5723
#
#
#
# Elastic Compliance Matrix: (Units=1/GPa)
#
#
# Indices 1 2 3 4 5 6 
#
# 1 0.009637 -0.003702 -0.003150 0.000000 -0.000843 0.000000
# 2 -0.003702 0.009637 -0.003150 0.000000 0.000843 0.000000
# 3 -0.003150 -0.003150 0.021903 0.000000 0.000000 0.000000
# 4 0.000000 0.000000 0.000000 0.044917 0.000000 0.001685
# 5 -0.000843 0.000843 0.000000 0.000000 0.044917 0.000000
# 6 0.000000 0.000000 0.000000 0.001685 0.000000 0.026679
#
#
# Mechanical properties :
#
#
# Convention : Reuss Voigt Hill
#
# Bulk Modulus (GPa) = 47.22813 62.88682 55.05747
# Shear Modulus (GPa) = 27.06363 30.36344 28.71354
#
# Velocity S-wave (km/s) = 3.76599 3.98898 3.87908
# Velocity P-wave (km/s) = 6.60758 7.36014 6.99399
#
# Compressibility (1/GPa) = 0.02117382
#
# Stress axis : x y z
#
# Youngs Moduli (GPa) = 103.76856 103.76856 45.65558
#
# Poissons Ratio (x) = 0.38420 0.14379
# Poissons Ratio (y) = 0.38420 0.14379
# Poissons Ratio (z) = 0.32682 0.32682
#
# Static dielectric constant tensor:
#      x y z
#    x 1.703080 0.000000 0.000000 
#    y 0.000000 1.703080 0.000000 
#    z 0.000000 0.000000 1.761450 
# 
# From -- ./inp_files/3565.got.cif
#   From: 2010.05.17/outbox.cif.g08.bks.cpg/sg151_2_cif.got.tgz:3565.got - 2010.05.20 10:33:20.
