data_PCOD9575860
_publ_section_title
;
Structure prediction by ZEFSAII (Michael W. Deem and Ramdas Pophale) SiO2 
 PCOD9575860
Probable space group: P 31 2 1
;
_chemical_formula_sum "Si O2"
_cell_formula_units_Z 39
_cell_length_a 17.348462
_cell_length_b 17.348462
_cell_length_c 8.184397
_cell_angle_alpha 90.000000
_cell_angle_beta 90.000000
_cell_angle_gamma 120.000000
_cell_volume 2133.237834
_symmetry_space_group_name_H-M "P 31 2 1"
_symmetry_group_IT_number 152
_symmetry_cell_setting 'hexagonal'
loop_
_space_group_symop_operation_xyz
x,y,z
-y,x-y,1/3+z
-x+y,-x,2/3+z
x-y,-y,2/3-z
-x,-x+y,1/3-z
y,x,-z
loop_
_atom_site_type_symbol
_atom_site_label
_atom_site_fract_x
_atom_site_fract_y
_atom_site_fract_z
Si Si1 0.770654 0.049547 0.181596
Si Si2 0.486956 0.067955 0.988729
Si Si3 0.222900 0.847402 0.197856
Si Si4 0.333747 0.430589 0.421743
Si Si5 0.405797 0.000000 0.333334
Si Si6 0.648876 0.753113 0.488293
Si Si7 0.894287 0.072773 0.694646
O O1 0.849664 0.145614 0.236327
O O2 0.708451 0.000000 0.333334
O O3 0.720044 0.076013 0.048654
O O4 0.804641 0.984225 0.111361
O O5 0.593552 0.121200 0.975159
O O6 0.433002 0.120484 0.960471
O O7 0.450487 0.000000 0.833334
O O8 0.459911 0.018886 0.163928
O O9 0.171063 0.740043 0.207546
O O10 0.148213 0.873358 0.241155
O O11 0.309825 0.912196 0.300953
O O12 0.250628 0.867261 0.007459
O O13 0.390613 0.390613 0.500000
O O14 0.716255 0.716255 0.500000
O O15 0.000000 0.121186 0.666667
O O16 0.870454 0.000000 0.833334
#
# Coordination Sequence:
#
# PCOD9575860 Si02
#       7
#     6   6   6   6   3   6   6
#     4  11  24  35  59  89 123 175 216 264 316 384
#     4  10  22  38  62  94 118 157 206 276 326 381
#     4  11  20  38  63  89 124 166 210 265 322 387
#     4  10  20  41  62  83 126 161 204 264 331 381
#     4  12  22  36  70  98 118 162 220 260 324 400
#     4  10  20  38  56  86 124 158 211 266 317 368
#     4  12  24  39  52  84 130 180 227 265 313 367
#
# _framework density 18.282066
#
# number of rings (size 3 to 8) (size 9 to 14) (size 15 to 20)
#    0.000    1.231    8.462    0.000    5.385    1.231 
#    0.000    0.000    0.000    7.385    0.000    0.000 
#    0.000    0.000    0.000    0.000    0.000    0.000 
#
# Total GULP energy -217153.862019 kJ/mol
# GULP energy per Si atom -5568.047744 kJ/mol
# Density = 1.824046 g / cm^3
# Si number density = 18.282066 Si / 1000 Ang^3
#
#
#
# Elastic Constant Matrix: (Units=GPa)
#
#
# Indices 1 2 3 4 5 6 
#
# 1 -490.4692 621.3536 16.7430 201.7834 0.0086 0.0000
# 2 621.3536 -490.4692 16.7430 -201.7834 -0.0086 0.0000
# 3 16.7430 16.7430 59.3984 0.0000 0.0000 0.0000
# 4 201.7834 -201.7834 0.0000 -67.2379 0.0000 -0.0087
# 5 0.0086 -0.0086 0.0000 0.0000 -67.2379 201.7834
# 6 0.0000 0.0000 0.0000 -0.0087 201.7834 -555.9115
#
#
#
# Elastic Compliance Matrix: (Units=1/GPa)
#
#
# Indices 1 2 3 4 5 6 
#
# 1 0.009153 -0.000918 -0.002321 0.030223 0.000001 0.000000
# 2 -0.000918 0.009153 -0.002321 -0.030223 -0.000001 0.000000
# 3 -0.002321 -0.002321 0.018144 0.000000 0.000000 0.000000
# 4 0.030223 -0.030223 0.000000 0.166530 0.000000 -0.000003
# 5 0.000001 -0.000001 0.000000 0.000000 0.166530 0.060447
# 6 0.000000 0.000000 0.000000 -0.000003 0.060447 0.020142
#
#
# Mechanical properties :
#
#
# Convention : Reuss Voigt Hill
#
# Bulk Modulus (GPa) = 39.48169 43.12658 41.30414
# Shear Modulus (GPa) = 12.21852 -243.16943 -115.47545
#
# Velocity S-wave (km/s) = 2.58802 -11.54550 -7.95615
# Velocity P-wave (km/s) = 5.52930 12.41333 7.85867
#
# Compressibility (1/GPa) = 0.02532820
#
# Stress axis : x y z
#
# Youngs Moduli (GPa) = 109.25907 109.25907 55.11481
#
# Poissons Ratio (x) = 0.10034 0.12792
# Poissons Ratio (y) = 0.10034 0.12792
# Poissons Ratio (z) = 0.25359 0.25359
#
# Static dielectric constant tensor:
#      x y z
#    x 1.914300 0.000000 0.000000 
#    y 0.000000 1.914300 0.000000 
#    z 0.000000 0.000000 1.776160 
# 
# From -- ./inp_files/1275.got.cif
#   From: 2010.05.17/outbox.cif.g08.bks.cpg/sg152_1_cif.got.tgz:1275.got - 2010.05.20 10:36:06.
