data_PCOD9575488
_publ_section_title
;
Structure prediction by ZEFSAII (Michael W. Deem and Ramdas Pophale) SiO2 
 PCOD9575488
Probable space group: P 3 2 1
;
_chemical_formula_sum "Si O2"
_cell_formula_units_Z 13
_cell_length_a 9.015939
_cell_length_b 9.015939
_cell_length_c 7.273393
_cell_angle_alpha 90.000000
_cell_angle_beta 90.000000
_cell_angle_gamma 120.000000
_cell_volume 512.023172
_symmetry_space_group_name_H-M "P 3 2 1"
_symmetry_group_IT_number 150
_symmetry_cell_setting 'hexagonal'
loop_
_space_group_symop_operation_xyz
x,y,z
-y,x-y,z
-x+y,-x,z
x-y,-y,-z
-x,-x+y,-z
y,x,-z
loop_
_atom_site_type_symbol
_atom_site_label
_atom_site_fract_x
_atom_site_fract_y
_atom_site_fract_z
Si Si1 0.699155 0.861735 0.626859
Si Si2 0.333335 0.666667 0.566476
Si Si3 0.687899 0.000000 0.000000
Si Si4 0.333335 0.666669 0.125151
O O1 0.812435 0.812435 0.500000
O O2 0.512714 0.698058 0.642962
O O3 0.756559 0.941703 0.826171
O O4 0.683334 0.000000 0.500000
O O5 0.333334 0.666667 0.346874
O O6 0.667642 0.162581 0.941944
#
# Coordination Sequence:
#
# PCOD9575488 Si02
#       4
#     6   2   3   2
#     4  12  27  48  76 113 155 206 259 331 398 469
#     4  12  25  50  79 109 164 205 271 329 403 472
#     4  12  28  50  80 122 160 210 278 324 414 482
#     4  12  28  47  82 118 161 217 265 341 397 490
#
# _framework density 25.389475000000001
#
# number of rings (size 3 to 8) (size 9 to 14) (size 15 to 20)
#    0.000    0.000    4.615    4.615    6.462    1.846 
#    0.000    0.000    0.000    0.923    0.000    0.000 
#    0.000    0.000    0.000    0.000    0.000    0.000 
#
# Total GULP energy -72841.912212 kJ/mol
# GULP energy per Si atom -5603.224016 kJ/mol
# Density = 2.533169 g / cm^3
# Si number density = 25.389475 Si / 1000 Ang^3
#
#
#
# Elastic Constant Matrix: (Units=GPa)
#
#
# Indices 1 2 3 4 5 6 
#
# 1 122.6254 63.8644 71.1242 8.5336 0.0000 0.0000
# 2 63.8644 122.6224 71.1245 -8.5343 0.0000 0.0000
# 3 71.1242 71.1245 275.1729 -0.0002 0.0000 0.0000
# 4 8.5336 -8.5343 -0.0002 43.0812 0.0000 0.0000
# 5 0.0000 0.0000 0.0000 0.0000 43.0813 8.5329
# 6 0.0000 0.0000 0.0000 0.0000 8.5329 29.3800
#
#
#
# Elastic Compliance Matrix: (Units=1/GPa)
#
#
# Indices 1 2 3 4 5 6 
#
# 1 0.012368 -0.005689 -0.001726 -0.003577 0.000000 0.000000
# 2 -0.005689 0.012369 -0.001726 0.003577 0.000000 0.000000
# 3 -0.001726 -0.001726 0.004527 0.000000 0.000000 0.000000
# 4 -0.003577 0.003577 0.000000 0.024629 0.000000 0.000000
# 5 0.000000 0.000000 0.000000 0.000000 0.024629 -0.007153
# 6 0.000000 0.000000 0.000000 0.000000 -0.007153 0.036114
#
#
# Mechanical properties :
#
#
# Convention : Reuss Voigt Hill
#
# Bulk Modulus (GPa) = 91.08077 103.62744 97.35410
# Shear Modulus (GPa) = 36.60891 44.06233 40.33562
#
# Velocity S-wave (km/s) = 3.80135 4.17040 3.99014
# Velocity P-wave (km/s) = 7.43090 8.00583 7.72372
#
# Compressibility (1/GPa) = 0.01097927
#
# Stress axis : x y z
#
# Youngs Moduli (GPa) = 80.85308 80.85044 220.92089
#
# Poissons Ratio (x) = 0.45998 0.38137
# Poissons Ratio (y) = 0.45999 0.38140
# Poissons Ratio (z) = 0.13958 0.13958
#
# Static dielectric constant tensor:
#      x y z
#    x 2.033050 0.000000 0.000000 
#    y 0.000000 2.033070 0.000000 
#    z 0.000000 0.000000 1.930680 
# 
# From -- ./inp_files/343.got.cif
#   From: 2010.05.17/outbox.cif.g08.bks.cpg/sg150_cif.got.tgz:343.got - 2010.05.20 13:53:18.
