data_PCOD9575366
_publ_section_title
;
Structure prediction by ZEFSAII (Michael W. Deem and Ramdas Pophale) SiO2 
 PCOD9575366
Probable space group: P 3 1 2
;
_chemical_formula_sum "Si O2"
_cell_formula_units_Z 42
_cell_length_a 12.737070
_cell_length_b 12.737070
_cell_length_c 18.338677
_cell_angle_alpha 90.000000
_cell_angle_beta 90.000000
_cell_angle_gamma 120.000000
_cell_volume 2576.544836
_symmetry_space_group_name_H-M "P 3 1 2"
_symmetry_group_IT_number 149
_symmetry_cell_setting 'hexagonal'
loop_
_space_group_symop_operation_xyz
x,y,z
-y,x-y,z
-x+y,-x,z
-y,-x,-z
-x+y,y,-z
x,x-y,-z
loop_
_atom_site_type_symbol
_atom_site_label
_atom_site_fract_x
_atom_site_fract_y
_atom_site_fract_z
Si Si1 0.083585 0.666340 0.359497
Si Si2 0.417557 0.333791 0.219761
Si Si3 0.417128 0.333737 0.500000
Si Si4 0.916233 0.582443 0.780239
Si Si5 0.333660 0.417244 0.640503
Si Si6 0.248554 0.000174 0.083296
Si Si7 0.751620 0.751446 0.916704
O O1 0.113123 0.556562 0.360890
O O2 0.205455 0.794545 0.362647
O O3 0.008047 0.650201 0.286035
O O4 0.997463 0.644826 0.428639
O O5 0.418919 0.209460 0.231336
O O6 0.553112 0.446888 0.217516
O O7 0.348389 0.321709 0.144140
O O8 0.556627 0.443374 0.500000
O O9 0.411223 0.205612 0.500000
O O10 0.355174 0.352637 0.571361
O O11 0.008047 0.650201 0.713965
O O12 0.973319 0.651611 0.855860
O O13 0.127474 0.872526 0.095559
O O14 0.218809 0.109404 0.088851
O O15 0.290413 0.002112 0.000000
#
# Coordination Sequence:
#
# PCOD9575366 Si02
#       7
#     6   6   6   6   6   6   6
#     4  10  20  34  53  75  99 128 163 204 247 290
#     4  10  20  33  50  72  99 131 165 202 244 291
#     4  10  20  34  54  78 104 134 166 200 238 284
#     4  10  20  33  50  72  99 131 165 202 244 291
#     4  10  20  34  53  75  99 128 163 204 247 290
#     4   9  17  30  49  72  97 126 161 201 244 290
#     4   9  17  30  49  72  97 126 161 201 244 290
#
# _framework density 16.300899999999999
#
# number of rings (size 3 to 8) (size 9 to 14) (size 15 to 20)
#    0.000    2.286    0.000    3.143    0.000    1.714 
#    0.000    4.286    0.000   12.000    0.000    0.000 
#    0.000    0.000    0.000    0.000    0.000    0.000 
#
# Total GULP energy -234322.495641 kJ/mol
# GULP energy per Si atom -5579.107039 kJ/mol
# Density = 1.626380 g / cm^3
# Si number density = 16.300900 Si / 1000 Ang^3
#
#
#
# Elastic Constant Matrix: (Units=GPa)
#
#
# Indices 1 2 3 4 5 6 
#
# 1 117.9696 80.0817 81.3158 0.0000 0.0000 0.0000
# 2 80.0817 117.9696 81.3158 0.0000 0.0000 0.0000
# 3 81.3158 81.3158 137.9533 0.0000 0.0000 0.0000
# 4 0.0000 0.0000 0.0000 22.6341 0.0000 0.0000
# 5 0.0000 0.0000 0.0000 0.0000 22.6341 0.0000
# 6 0.0000 0.0000 0.0000 0.0000 0.0000 18.9440
#
#
#
# Elastic Compliance Matrix: (Units=1/GPa)
#
#
# Indices 1 2 3 4 5 6 
#
# 1 0.018090 -0.008304 -0.005768 0.000000 0.000000 0.000000
# 2 -0.008304 0.018090 -0.005768 0.000000 0.000000 0.000000
# 3 -0.005768 -0.005768 0.014049 0.000000 0.000000 0.000000
# 4 0.000000 0.000000 0.000000 0.044181 0.000000 0.000000
# 5 0.000000 0.000000 0.000000 0.000000 0.044181 0.000000
# 6 0.000000 0.000000 0.000000 0.000000 0.000000 0.052787
#
#
# Mechanical properties :
#
#
# Convention : Reuss Voigt Hill
#
# Bulk Modulus (GPa) = 94.80710 95.47991 95.14350
# Shear Modulus (GPa) = 21.31520 21.58771 21.45145
#
# Velocity S-wave (km/s) = 3.62001 3.64308 3.63156
# Velocity P-wave (km/s) = 8.70400 8.74051 8.72227
#
# Compressibility (1/GPa) = 0.01054773
#
# Stress axis : x y z
#
# Youngs Moduli (GPa) = 55.28003 55.28003 71.18000
#
# Poissons Ratio (x) = 0.45904 0.41058
# Poissons Ratio (y) = 0.45904 0.41058
# Poissons Ratio (z) = 0.31887 0.31887
#
# Static dielectric constant tensor:
#      x y z
#    x 1.514220 0.000000 0.000000 
#    y 0.000000 1.514220 0.000000 
#    z 0.000000 0.000000 1.545970 
# 
# From -- ./inp_files/1087.got.cif
#   From: 2010.05.17/outbox.cif.g08.bks.cpg/sg149_cif.got.tgz:1087.got - 2010.05.20 13:52:34.
