data_PCOD9575137
_publ_section_title
;
Structure prediction by ZEFSAII (Michael W. Deem and Ramdas Pophale) SiO2 
 PCOD9575137
Probable space group: R -3
;
_chemical_formula_sum "Si O2"
_cell_formula_units_Z 72
_cell_length_a 11.856892
_cell_length_b 11.856892
_cell_length_c 27.805440
_cell_angle_alpha 90.000000
_cell_angle_beta 90.000000
_cell_angle_gamma 120.000000
_cell_volume 3385.338744
_symmetry_space_group_name_H-M "R -3"
_symmetry_group_IT_number 148
_symmetry_cell_setting 'hexagonal'
loop_
_space_group_symop_operation_xyz
x,y,z
-y,x-y,z
-x+y,-x,z
-x,-y,-z
y,-x+y,-z
x-y,x,-z
2/3+x,1/3+y,1/3+z
2/3-y,1/3+x-y,1/3+z
2/3-x+y,1/3-x,1/3+z
2/3-x,1/3-y,1/3-z
2/3+y,1/3-x+y,1/3-z
2/3+x-y,1/3+x,1/3-z
1/3+x,2/3+y,2/3+z
1/3-y,2/3+x-y,2/3+z
1/3-x+y,2/3-x,2/3+z
1/3-x,2/3-y,2/3-z
1/3+y,2/3-x+y,2/3-z
1/3+x-y,2/3+x,2/3-z
loop_
_atom_site_type_symbol
_atom_site_label
_atom_site_fract_x
_atom_site_fract_y
_atom_site_fract_z
Si Si1 0.228327 0.190508 0.120822
Si Si2 0.166587 0.613833 0.244004
Si Si3 0.114888 0.255023 0.028559
Si Si4 0.272154 0.213452 0.837220
O O1 0.149632 0.193718 0.074643
O O2 0.147724 0.205706 0.165416
O O3 0.369039 0.320170 0.123933
O O4 0.239425 0.064299 0.129350
O O5 0.240647 0.530328 0.243172
O O6 0.070707 0.568716 0.289633
O O7 0.073579 0.592955 0.198761
O O8 0.188718 0.224392 0.986232
#
# Coordination Sequence:
#
# PCOD9575137 Si02
#       4
#    18  18  18  18
#     4  10  22  38  62 101 124 174 210 281 337 373
#     4   9  22  41  63  97 127 174 216 271 326 394
#     4  11  22  39  66  94 126 171 224 270 317 393
#     4  10  21  38  65  93 136 158 219 279 331 392
#
# _framework density 21.268180999999998
#
# number of rings (size 3 to 8) (size 9 to 14) (size 15 to 20)
#    0.500    1.500    0.000    3.750    7.000    3.000 
#    0.000    5.000    0.000    0.000    0.000    0.000 
#    0.000    0.000    0.000    0.000    0.000    0.000 
#
# Total GULP energy -133744.873140 kJ/mol
# GULP energy per Si atom -5572.703048 kJ/mol
# Density = 2.121977 g / cm^3
# Si number density = 21.268181 Si / 1000 Ang^3
#
#
#
# Elastic Constant Matrix: (Units=GPa)
#
#
# Indices 1 2 3 4 5 6 
#
# 1 134.7296 48.8152 29.8411 6.3748 5.9291 0.0000
# 2 48.8152 134.7296 29.8411 -6.3748 -5.9291 0.0000
# 3 29.8411 29.8411 59.6334 0.0000 0.0000 0.0000
# 4 6.3748 -6.3748 0.0000 33.3738 0.0000 -5.9291
# 5 5.9291 -5.9291 0.0000 0.0000 33.3738 6.3748
# 6 0.0000 0.0000 0.0000 -5.9291 6.3748 42.9572
#
#
#
# Elastic Compliance Matrix: (Units=1/GPa)
#
#
# Indices 1 2 3 4 5 6 
#
# 1 0.009398 -0.002891 -0.003256 -0.002347 -0.002183 0.000000
# 2 -0.002891 0.009398 -0.003256 0.002347 0.002183 0.000000
# 3 -0.003256 -0.003256 0.020028 0.000000 0.000000 0.000000
# 4 -0.002347 0.002347 0.000000 0.031636 0.000000 0.004367
# 5 -0.002183 0.002183 0.000000 0.000000 0.031636 -0.004695
# 6 0.000000 0.000000 0.000000 0.004367 -0.004695 0.024578
#
#
# Mechanical properties :
#
#
# Convention : Reuss Voigt Hill
#
# Bulk Modulus (GPa) = 49.95667 60.67636 55.31651
# Shear Modulus (GPa) = 32.86139 36.64729 34.75434
#
# Velocity S-wave (km/s) = 3.93504 4.15553 4.04679
# Velocity P-wave (km/s) = 6.64725 7.18441 6.92104
#
# Compressibility (1/GPa) = 0.02001735
#
# Stress axis : x y z
#
# Youngs Moduli (GPa) = 106.40422 106.40422 49.93013
#
# Poissons Ratio (x) = 0.30762 0.16258
# Poissons Ratio (y) = 0.30762 0.16258
# Poissons Ratio (z) = 0.34647 0.34647
#
# Static dielectric constant tensor:
#      x y z
#    x 1.823780 0.000000 0.000000 
#    y 0.000000 1.823780 0.000000 
#    z 0.000000 0.000000 1.853160 
# 
# From -- ./inp_files/3905.got.cif
#   From: 2010.05.17/outbox.cif.g08.bks.cpg/sg148_2_cif.got.tgz:3905.got - 2010.05.20 13:50:20.
