data_PCOD9575362
_publ_section_title
;
Structure prediction by ZEFSAII (Michael W. Deem and Ramdas Pophale) SiO2 
 PCOD9575362
Probable space group: P 3 1 2
;
_chemical_formula_sum "Si O2"
_cell_formula_units_Z 48
_cell_length_a 12.676283
_cell_length_b 12.676283
_cell_length_c 21.375347
_cell_angle_alpha 90.000000
_cell_angle_beta 90.000000
_cell_angle_gamma 120.000000
_cell_volume 2974.593729
_symmetry_space_group_name_H-M "P 3 1 2"
_symmetry_group_IT_number 149
_symmetry_cell_setting 'hexagonal'
loop_
_space_group_symop_operation_xyz
x,y,z
-y,x-y,z
-x+y,-x,z
-y,-x,-z
-x+y,y,-z
x,x-y,-z
loop_
_atom_site_type_symbol
_atom_site_label
_atom_site_fract_x
_atom_site_fract_y
_atom_site_fract_z
Si Si1 0.415908 0.333882 0.242834
Si Si2 0.252523 0.999490 0.362950
Si Si3 0.666365 0.082350 1.000000
Si Si4 0.000374 0.251320 0.500000
Si Si5 0.583919 0.666389 0.121464
Si Si6 0.333611 0.917530 0.878536
Si Si7 0.000510 0.253033 0.637050
Si Si8 0.415908 0.333882 0.757166
O O1 0.349916 0.355922 0.184256
O O2 0.344035 0.322727 0.306743
O O3 0.551673 0.448327 0.245589
O O4 0.418747 0.209374 0.234658
O O5 0.125028 0.874972 0.354355
O O6 0.303670 0.995375 0.432164
O O7 0.230723 0.115362 0.362363
O O8 0.344035 0.021308 0.306743
O O9 0.648146 0.001972 0.061440
O O10 0.794661 0.205340 0.000000
O O11 0.555883 0.111767 0.000000
O O12 0.648146 0.001973 0.938560
O O13 0.876499 0.123502 0.500000
O O14 0.114255 0.228510 0.500000
O O15 0.004625 0.308295 0.567836
O O16 0.589772 0.794886 0.119423
O O17 0.444144 0.555856 0.120460
O O18 0.644078 0.650084 0.184256
#
# Coordination Sequence:
#
# PCOD9575362 Si02
#       8
#     6   6   6   6   6   6   6   6
#     4  10  20  33  49  68  93 126 162 199 236 279
#     4   9  16  27  45  69  95 121 151 190 237 286
#     4  10  20  34  54  78 104 134 166 198 228 266
#     4   8  13  22  39  64  92 120 150 186 230 280
#     4  10  20  34  53  75  98 124 156 197 242 285
#     4  10  20  34  53  75  98 124 156 197 242 285
#     4   9  16  27  45  69  95 121 151 190 237 286
#     4  10  20  33  49  68  93 126 162 199 236 279
#
# _framework density 16.136657
#
# number of rings (size 3 to 8) (size 9 to 14) (size 15 to 20)
#    0.000    2.500    0.000    2.875    0.000    2.000 
#    0.000    4.375    0.000    9.000    0.000    1.750 
#    0.000    0.000    0.000    0.000    0.000    0.000 
#
# Total GULP energy -267468.075978 kJ/mol
# GULP energy per Si atom -5572.251583 kJ/mol
# Density = 1.609993 g / cm^3
# Si number density = 16.136657 Si / 1000 Ang^3
#
#
#
# Elastic Constant Matrix: (Units=GPa)
#
#
# Indices 1 2 3 4 5 6 
#
# 1 91.0306 63.9412 77.7596 0.0000 0.0000 0.0000
# 2 63.9412 91.0306 77.7596 0.0000 0.0000 0.0000
# 3 77.7596 77.7596 177.1236 0.0000 0.0000 0.0000
# 4 0.0000 0.0000 0.0000 22.6637 0.0000 0.0000
# 5 0.0000 0.0000 0.0000 0.0000 22.6637 0.0000
# 6 0.0000 0.0000 0.0000 0.0000 0.0000 13.5447
#
#
#
# Elastic Compliance Matrix: (Units=1/GPa)
#
#
# Indices 1 2 3 4 5 6 
#
# 1 0.024225 -0.012690 -0.005064 0.000000 0.000000 0.000000
# 2 -0.012690 0.024225 -0.005064 0.000000 0.000000 0.000000
# 3 -0.005064 -0.005064 0.010092 0.000000 0.000000 0.000000
# 4 0.000000 0.000000 0.000000 0.044123 0.000000 0.000000
# 5 0.000000 0.000000 0.000000 0.000000 0.044123 0.000000
# 6 0.000000 0.000000 0.000000 0.000000 0.000000 0.073830
#
#
# Mechanical properties :
#
#
# Convention : Reuss Voigt Hill
#
# Bulk Modulus (GPa) = 77.48515 88.67838 83.08177
# Shear Modulus (GPa) = 18.48055 21.08940 19.78497
#
# Velocity S-wave (km/s) = 3.38783 3.61906 3.50535
# Velocity P-wave (km/s) = 7.96401 8.51689 8.24509
#
# Compressibility (1/GPa) = 0.01290570
#
# Stress axis : x y z
#
# Youngs Moduli (GPa) = 41.28031 41.28031 99.08935
#
# Poissons Ratio (x) = 0.52385 0.50177
# Poissons Ratio (y) = 0.52385 0.50177
# Poissons Ratio (z) = 0.20903 0.20903
#
# Static dielectric constant tensor:
#      x y z
#    x 1.506430 0.000000 0.000000 
#    y 0.000000 1.506430 0.000000 
#    z 0.000000 0.000000 1.568950 
# 
# From -- ./inp_files/1146.got.cif
#   From: 2010.05.17/outbox.cif.g08.bks.cpg/sg149_cif.got.tgz:1146.got - 2010.05.20 13:52:34.
