data_PCOD9575242
_publ_section_title
;
Structure prediction by ZEFSAII (Michael W. Deem and Ramdas Pophale) SiO2 
 PCOD9575242
Probable space group: R -3
;
_chemical_formula_sum "Si O2"
_cell_formula_units_Z 108
_cell_length_a 19.372379
_cell_length_b 19.372379
_cell_length_c 13.665095
_cell_angle_alpha 90.000000
_cell_angle_beta 90.000000
_cell_angle_gamma 120.000000
_cell_volume 4441.290705
_symmetry_space_group_name_H-M "R -3"
_symmetry_group_IT_number 148
_symmetry_cell_setting 'hexagonal'
loop_
_space_group_symop_operation_xyz
x,y,z
-y,x-y,z
-x+y,-x,z
-x,-y,-z
y,-x+y,-z
x-y,x,-z
2/3+x,1/3+y,1/3+z
2/3-y,1/3+x-y,1/3+z
2/3-x+y,1/3-x,1/3+z
2/3-x,1/3-y,1/3-z
2/3+y,1/3-x+y,1/3-z
2/3+x-y,1/3+x,1/3-z
1/3+x,2/3+y,2/3+z
1/3-y,2/3+x-y,2/3+z
1/3-x+y,2/3-x,2/3+z
1/3-x,2/3-y,2/3-z
1/3+y,2/3-x+y,2/3-z
1/3+x-y,2/3+x,2/3-z
loop_
_atom_site_type_symbol
_atom_site_label
_atom_site_fract_x
_atom_site_fract_y
_atom_site_fract_z
Si Si1 0.060508 0.545264 0.620756
Si Si2 0.300778 0.108362 0.838376
Si Si3 0.569900 0.446323 0.576984
Si Si4 0.824727 0.882546 0.545580
Si Si5 0.401717 0.126839 0.608478
Si Si6 0.344659 0.338261 0.227135
O O1 0.075694 0.545062 0.735574
O O2 0.122814 0.552469 0.538612
O O3 0.972084 0.470978 0.599309
O O4 0.046545 0.620574 0.606950
O O5 0.396915 0.159935 0.855312
O O6 0.275662 0.130500 0.736255
O O7 0.281156 0.017912 0.830146
O O8 0.547331 0.386811 0.668552
O O9 0.663587 0.506745 0.586620
O O10 0.880595 0.852417 0.495072
O O11 0.379471 0.064486 0.695745
O O12 0.344954 0.072865 0.519969
#
# Coordination Sequence:
#
# PCOD9575242 Si02
#       6
#    18  18  18  18  18  18
#     4   9  19  37  59  83 122 167 198 247 314 378
#     4  11  21  36  59  92 126 160 208 259 315 374
#     4   9  20  38  56  83 118 162 205 249 306 376
#     4  11  23  40  64  91 129 170 211 259 320 383
#     4  11  21  35  57  85 124 159 205 258 317 378
#     4  11  20  34  56  88 121 161 201 251 315 378
#
# _framework density 24.317253999999998
#
# number of rings (size 3 to 8) (size 9 to 14) (size 15 to 20)
#    0.000    1.667    1.667    4.667    2.333    0.000 
#    0.000    0.000    0.000    0.000    0.000    0.000 
#    0.000    1.333    0.000    0.000    0.000    0.000 
#
# Total GULP energy -200974.732071 kJ/mol
# GULP energy per Si atom -5582.631446 kJ/mol
# Density = 2.426191 g / cm^3
# Si number density = 24.317254 Si / 1000 Ang^3
#
#
#
# Elastic Constant Matrix: (Units=GPa)
#
#
# Indices 1 2 3 4 5 6 
#
# 1 61.4555 14.1661 20.4188 1.4607 -2.5254 0.0000
# 2 14.1661 61.4555 20.4188 -1.4607 2.5254 0.0000
# 3 20.4188 20.4188 169.8822 0.0000 0.0000 0.0000
# 4 1.4607 -1.4607 0.0000 29.2112 0.0000 2.5254
# 5 -2.5254 2.5254 0.0000 0.0000 29.2112 1.4607
# 6 0.0000 0.0000 0.0000 2.5254 1.4607 23.6447
#
#
#
# Elastic Compliance Matrix: (Units=1/GPa)
#
#
# Indices 1 2 3 4 5 6 
#
# 1 0.017776 -0.003634 -0.001700 -0.001071 0.001851 0.000000
# 2 -0.003634 0.017776 -0.001700 0.001071 -0.001851 0.000000
# 3 -0.001700 -0.001700 0.006295 0.000000 0.000000 0.000000
# 4 -0.001071 0.001071 0.000000 0.034661 0.000000 -0.003702
# 5 0.001851 -0.001851 0.000000 0.000000 0.034661 -0.002141
# 6 0.000000 0.000000 0.000000 -0.003702 -0.002141 0.042820
#
#
# Mechanical properties :
#
#
# Convention : Reuss Voigt Hill
#
# Bulk Modulus (GPa) = 35.99796 44.75562 40.37679
# Shear Modulus (GPa) = 28.19826 32.26603 30.23214
#
# Velocity S-wave (km/s) = 3.40898 3.64659 3.52978
# Velocity P-wave (km/s) = 5.50731 6.01456 5.76652
#
# Compressibility (1/GPa) = 0.02777935
#
# Stress axis : x y z
#
# Youngs Moduli (GPa) = 56.25581 56.25581 158.85549
#
# Poissons Ratio (x) = 0.20445 0.27001
# Poissons Ratio (y) = 0.20445 0.27001
# Poissons Ratio (z) = 0.09562 0.09562
#
# Static dielectric constant tensor:
#      x y z
#    x 1.968170 0.000000 0.000000 
#    y 0.000000 1.968170 0.000000 
#    z 0.000000 0.000000 2.106750 
# 
# From -- ./inp_files/2070.got.cif
#   From: 2010.05.17/outbox.cif.g08.bks.cpg/sg148_2_cif.got.tgz:2070.got - 2010.05.20 13:50:20.
