data_PCOD9575159
_publ_section_title
;
Structure prediction by ZEFSAII (Michael W. Deem and Ramdas Pophale) SiO2 
 PCOD9575159
Probable space group: R -3
;
_chemical_formula_sum "Si O2"
_cell_formula_units_Z 108
_cell_length_a 16.993860
_cell_length_b 16.993860
_cell_length_c 21.242745
_cell_angle_alpha 90.000000
_cell_angle_beta 90.000000
_cell_angle_gamma 120.000000
_cell_volume 5312.822906
_symmetry_space_group_name_H-M "R -3"
_symmetry_group_IT_number 148
_symmetry_cell_setting 'hexagonal'
loop_
_space_group_symop_operation_xyz
x,y,z
-y,x-y,z
-x+y,-x,z
-x,-y,-z
y,-x+y,-z
x-y,x,-z
2/3+x,1/3+y,1/3+z
2/3-y,1/3+x-y,1/3+z
2/3-x+y,1/3-x,1/3+z
2/3-x,1/3-y,1/3-z
2/3+y,1/3-x+y,1/3-z
2/3+x-y,1/3+x,1/3-z
1/3+x,2/3+y,2/3+z
1/3-y,2/3+x-y,2/3+z
1/3-x+y,2/3-x,2/3+z
1/3-x,2/3-y,2/3-z
1/3+y,2/3-x+y,2/3-z
1/3+x-y,2/3+x,2/3-z
loop_
_atom_site_type_symbol
_atom_site_label
_atom_site_fract_x
_atom_site_fract_y
_atom_site_fract_z
Si Si1 0.345869 0.014484 0.874936
Si Si2 0.943383 0.440853 0.683610
Si Si3 0.459092 0.298547 0.534347
Si Si4 0.700806 0.177187 0.113785
Si Si5 0.018999 0.374539 0.352835
Si Si6 0.853272 0.383764 0.811293
O O1 0.278796 0.051422 0.854841
O O2 0.373811 0.027469 0.947835
O O3 0.438646 0.063806 0.837301
O O4 0.291823 0.907622 0.859864
O O5 0.873760 0.383314 0.627960
O O6 0.999492 0.541747 0.654947
O O7 0.884450 0.434140 0.744666
O O8 0.004949 0.396815 0.701644
O O9 0.552687 0.394173 0.527590
O O10 0.486651 0.221696 0.540195
O O11 0.407691 0.307170 0.596865
O O12 0.771241 0.280900 0.808440
#
# Coordination Sequence:
#
# PCOD9575159 Si02
#       6
#    18  18  18  18  18  18
#     4  11  22  39  61  88 122 165 212 252 310 378
#     4  10  22  40  61  90 124 165 211 256 307 381
#     4  11  22  42  62  93 125 162 213 263 316 375
#     4  10  24  37  64  89 122 165 206 266 314 369
#     4  10  22  39  61  92 121 164 211 257 312 370
#     4  12  24  38  60  92 128 165 201 253 315 374
#
# _framework density 20.328177
#
# number of rings (size 3 to 8) (size 9 to 14) (size 15 to 20)
#    0.000    1.333    3.333    2.000    2.333    1.333 
#    0.000    0.000    0.000    0.333    0.000    0.000 
#    0.000    0.000    0.000    0.000    0.000    0.000 
#
# Total GULP energy -200904.813670 kJ/mol
# GULP energy per Si atom -5580.689269 kJ/mol
# Density = 2.028191 g / cm^3
# Si number density = 20.328177 Si / 1000 Ang^3
#
#
#
# Elastic Constant Matrix: (Units=GPa)
#
#
# Indices 1 2 3 4 5 6 
#
# 1 72.5761 14.6612 -1.2956 -0.8779 -0.2842 0.0000
# 2 14.6612 72.5761 -1.2956 0.8779 0.2842 0.0000
# 3 -1.2956 -1.2956 39.5542 0.0000 0.0000 0.0000
# 4 -0.8779 0.8779 0.0000 19.8056 0.0000 0.2842
# 5 -0.2842 0.2842 0.0000 0.0000 19.8056 -0.8779
# 6 0.0000 0.0000 0.0000 0.2842 -0.8779 28.9574
#
#
#
# Elastic Compliance Matrix: (Units=1/GPa)
#
#
# Indices 1 2 3 4 5 6 
#
# 1 0.014383 -0.002909 0.000376 0.000767 0.000248 0.000000
# 2 -0.002909 0.014383 0.000376 -0.000767 -0.000248 0.000000
# 3 0.000376 0.000376 0.025306 0.000000 0.000000 0.000000
# 4 0.000767 -0.000767 0.000000 0.050566 0.000000 -0.000496
# 5 0.000248 -0.000248 0.000000 0.000000 0.050566 0.001533
# 6 0.000000 0.000000 0.000000 -0.000496 0.001533 0.034585
#
#
# Mechanical properties :
#
#
# Convention : Reuss Voigt Hill
#
# Bulk Modulus (GPa) = 20.09728 23.20518 21.65123
# Shear Modulus (GPa) = 23.73149 25.22280 24.47714
#
# Velocity S-wave (km/s) = 3.42046 3.52629 3.47378
# Velocity P-wave (km/s) = 5.05047 5.29336 5.17334
#
# Compressibility (1/GPa) = 0.04975798
#
# Stress axis : x y z
#
# Youngs Moduli (GPa) = 69.52519 69.52519 39.51574
#
# Poissons Ratio (x) = 0.20226 -0.01485
# Poissons Ratio (y) = 0.20226 -0.01485
# Poissons Ratio (z) = -0.02613 -0.02613
#
# Static dielectric constant tensor:
#      x y z
#    x 1.736430 0.000000 0.000000 
#    y 0.000000 1.736430 0.000000 
#    z 0.000000 0.000000 1.736490 
# 
# From -- ./inp_files/3113.got.cif
#   From: 2010.05.17/outbox.cif.g08.bks.cpg/sg148_2_cif.got.tgz:3113.got - 2010.05.20 13:50:20.
