data_PCOD9575864
_publ_section_title
;
Structure prediction by ZEFSAII (Michael W. Deem and Ramdas Pophale) SiO2 
 PCOD9575864
Probable space group: P 31 2 1
;
_chemical_formula_sum "Si O2"
_cell_formula_units_Z 36
_cell_length_a 9.142070
_cell_length_b 9.142070
_cell_length_c 24.971953
_cell_angle_alpha 90.000000
_cell_angle_beta 90.000000
_cell_angle_gamma 120.000000
_cell_volume 1807.474693
_symmetry_space_group_name_H-M "P 31 2 1"
_symmetry_group_IT_number 152
_symmetry_cell_setting 'hexagonal'
loop_
_space_group_symop_operation_xyz
x,y,z
-y,x-y,1/3+z
-x+y,-x,2/3+z
x-y,-y,2/3-z
-x,-x+y,1/3-z
y,x,-z
loop_
_atom_site_type_symbol
_atom_site_label
_atom_site_fract_x
_atom_site_fract_y
_atom_site_fract_z
Si Si1 0.471922 0.435691 0.702556
Si Si2 0.078929 0.130561 0.286471
Si Si3 0.589346 0.627250 0.411325
Si Si4 0.310343 0.598877 0.776749
Si Si5 0.294763 0.983968 0.268833
Si Si6 0.665607 0.301674 0.771379
O O1 0.300617 0.252698 0.694532
O O2 0.542528 0.537532 0.647846
O O3 0.424299 0.541224 0.743683
O O4 0.609764 0.398737 0.729689
O O5 0.968196 0.200179 0.259117
O O6 0.974802 0.000000 0.333334
O O7 0.152418 0.031303 0.252423
O O8 0.433674 0.647669 0.428753
O O9 0.623705 0.502147 0.447208
O O10 0.330478 0.596760 0.840352
O O11 0.121770 0.467910 0.757877
O O12 0.260565 0.802442 0.252722
O O13 0.307523 0.000000 0.333334
#
# Coordination Sequence:
#
# PCOD9575864 Si02
#       6
#     6   6   6   6   6   6
#     4  10  21  38  60  83 114 158 204 245 295 368
#     4   9  19  35  56  83 113 146 192 247 295 350
#     4  11  21  36  59  85 116 156 199 247 302 366
#     4  11  22  37  58  88 120 152 199 257 305 354
#     4  10  20  38  61  85 116 158 201 244 297 367
#     4  11  22  38  59  86 120 158 198 252 310 359
#
# _framework density 19.917290999999999
#
# number of rings (size 3 to 8) (size 9 to 14) (size 15 to 20)
#    0.000    1.667    0.000    7.500    0.000    2.000 
#    0.000    0.000    0.000   14.000    0.000    0.000 
#    0.000    0.000    0.000    0.000    0.000    0.000 
#
# Total GULP energy -201031.492440 kJ/mol
# GULP energy per Si atom -5584.208123 kJ/mol
# Density = 1.987196 g / cm^3
# Si number density = 19.917291 Si / 1000 Ang^3
#
#
#
# Elastic Constant Matrix: (Units=GPa)
#
#
# Indices 1 2 3 4 5 6 
#
# 1 74.5052 14.6737 4.0490 3.1725 -0.0002 0.0000
# 2 14.6737 74.5052 4.0490 -3.1725 0.0002 0.0000
# 3 4.0490 4.0490 57.7451 0.0000 0.0000 0.0000
# 4 3.1725 -3.1725 0.0000 21.0644 0.0000 0.0002
# 5 -0.0002 0.0002 0.0000 0.0000 21.0644 3.1725
# 6 0.0000 0.0000 0.0000 0.0002 3.1725 29.9157
#
#
#
# Elastic Compliance Matrix: (Units=1/GPa)
#
#
# Indices 1 2 3 4 5 6 
#
# 1 0.014135 -0.002850 -0.000791 -0.002558 0.000000 0.000000
# 2 -0.002850 0.014135 -0.000791 0.002558 0.000000 0.000000
# 3 -0.000791 -0.000791 0.017428 0.000000 0.000000 0.000000
# 4 -0.002558 0.002558 0.000000 0.048244 0.000000 0.000000
# 5 0.000000 0.000000 0.000000 0.000000 0.048244 -0.005116
# 6 0.000000 0.000000 0.000000 0.000000 -0.005116 0.033970
#
#
# Mechanical properties :
#
#
# Convention : Reuss Voigt Hill
#
# Bulk Modulus (GPa) = 27.14898 28.03319 27.59109
# Shear Modulus (GPa) = 25.34225 26.67451 26.00838
#
# Velocity S-wave (km/s) = 3.57091 3.66357 3.61753
# Velocity P-wave (km/s) = 5.53735 5.65694 5.59747
#
# Compressibility (1/GPa) = 0.03683380
#
# Stress axis : x y z
#
# Youngs Moduli (GPa) = 70.74597 70.74597 57.37745
#
# Poissons Ratio (x) = 0.20161 0.04540
# Poissons Ratio (y) = 0.20161 0.04540
# Poissons Ratio (z) = 0.05598 0.05598
#
# Static dielectric constant tensor:
#      x y z
#    x 1.702890 0.000000 0.000000 
#    y 0.000000 1.702890 0.000000 
#    z 0.000000 0.000000 1.695050 
# 
# From -- ./inp_files/3354.got.cif
#   From: 2010.05.17/outbox.cif.g08.bks.cpg/sg152_2_cif.got.tgz:3354.got - 2010.05.20 10:36:06.
