data_PCOD9575384
_publ_section_title
;
Structure prediction by ZEFSAII (Michael W. Deem and Ramdas Pophale) SiO2 
 PCOD9575384
Probable space group: P 3 1 2
;
_chemical_formula_sum "Si O2"
_cell_formula_units_Z 40
_cell_length_a 11.864331
_cell_length_b 11.864331
_cell_length_c 16.744861
_cell_angle_alpha 90.000000
_cell_angle_beta 90.000000
_cell_angle_gamma 120.000000
_cell_volume 2041.261702
_symmetry_space_group_name_H-M "P 3 1 2"
_symmetry_group_IT_number 149
_symmetry_cell_setting 'hexagonal'
loop_
_space_group_symop_operation_xyz
x,y,z
-y,x-y,z
-x+y,-x,z
-y,-x,-z
-x+y,y,-z
x,x-y,-z
loop_
_atom_site_type_symbol
_atom_site_label
_atom_site_fract_x
_atom_site_fract_y
_atom_site_fract_z
Si Si1 0.000000 0.000000 0.120218
Si Si2 0.593713 0.927653 0.634133
Si Si3 0.870321 0.129681 0.411408
Si Si4 0.333633 0.928822 0.172798
Si Si5 0.333632 0.404811 0.172798
Si Si6 0.305568 0.152785 0.908590
Si Si7 0.000000 0.000000 0.688739
Si Si8 0.072347 0.406285 0.634133
O O1 0.148419 0.074208 0.092744
O O2 0.000000 0.000000 0.216562
O O3 0.603204 0.935261 0.730733
O O4 0.602479 0.801240 0.609407
O O5 0.456714 0.913430 0.611029
O O6 0.716278 0.055621 0.599960
O O7 0.899755 0.100246 0.500000
O O8 0.927369 0.072637 0.345871
O O9 0.716280 0.055620 0.400039
O O10 0.455548 0.911095 0.150274
O O11 0.196757 0.803243 0.148162
O O12 0.347298 0.059497 0.135986
O O13 0.347296 0.287800 0.135985
O O14 0.332055 0.396794 0.269267
O O15 0.351030 0.175515 0.000000
#
# Coordination Sequence:
#
# PCOD9575384 Si02
#       8
#     2   6   6   6   6   6   2   6
#     4  12  22  38  64  90 118 155 202 255 298 356
#     4  10  21  39  64  91 120 158 204 251 297 357
#     4  12  24  38  60  92 126 159 196 249 310 364
#     4  10  21  39  64  91 120 158 204 251 297 357
#     4  10  21  39  64  91 120 158 204 251 297 357
#     4  12  24  38  60  92 126 159 196 249 310 364
#     4  12  22  38  64  90 118 155 202 255 298 356
#     4  10  21  39  64  91 120 158 204 251 297 357
#
# _framework density 19.595725000000002
#
# number of rings (size 3 to 8) (size 9 to 14) (size 15 to 20)
#    0.000    1.200    3.000    4.200    0.000    3.600 
#    1.800    0.000    0.000    3.600    0.000    0.000 
#    0.000    0.000    0.000    0.000    0.000    0.000 
#
# Total GULP energy -223689.933162 kJ/mol
# GULP energy per Si atom -5592.248329 kJ/mol
# Density = 1.955112 g / cm^3
# Si number density = 19.595725 Si / 1000 Ang^3
#
#
#
# Elastic Constant Matrix: (Units=GPa)
#
#
# Indices 1 2 3 4 5 6 
#
# 1 126.7019 56.6281 25.0510 0.0000 -0.0004 0.0000
# 2 56.6281 126.7019 25.0510 0.0000 0.0004 0.0000
# 3 25.0510 25.0510 59.6662 0.0000 0.0000 0.0000
# 4 0.0000 0.0000 0.0000 -10.9818 0.0000 0.0004
# 5 -0.0004 0.0004 0.0000 0.0000 -10.9818 0.0000
# 6 0.0000 0.0000 0.0000 0.0004 0.0000 35.0369
#
#
#
# Elastic Compliance Matrix: (Units=1/GPa)
#
#
# Indices 1 2 3 4 5 6 
#
# 1 0.010216 -0.004055 -0.002587 0.000000 0.000000 0.000000
# 2 -0.004055 0.010216 -0.002587 0.000000 0.000000 0.000000
# 3 -0.002587 -0.002587 0.018932 0.000000 0.000000 0.000000
# 4 0.000000 0.000000 0.000000 -0.091060 0.000000 0.000001
# 5 0.000000 0.000000 0.000000 0.000000 -0.091060 0.000000
# 6 0.000000 0.000000 0.000000 0.000001 0.000000 0.028541
#
#
# Mechanical properties :
#
#
# Convention : Reuss Voigt Hill
#
# Bulk Modulus (GPa) = 47.82957 58.50337 53.16647
# Shear Modulus (GPa) = -56.31381 16.37068 -19.97156
#
# Velocity S-wave (km/s) = -5.36658 2.89350 -3.19592
# Velocity P-wave (km/s) = 3.73351 6.40961 3.68402
#
# Compressibility (1/GPa) = 0.02090757
#
# Stress axis : x y z
#
# Youngs Moduli (GPa) = 97.88427 97.88427 52.81999
#
# Poissons Ratio (x) = 0.39687 0.13664
# Poissons Ratio (y) = 0.39687 0.13664
# Poissons Ratio (z) = 0.25322 0.25322
#
# Static dielectric constant tensor:
#      x y z
#    x 1.660630 0.000000 0.000000 
#    y 0.000000 1.660630 0.000000 
#    z 0.000000 0.000000 1.689340 
# 
# From -- ./inp_files/1106.got.cif
#   From: 2010.05.17/outbox.cif.g08.bks.cpg/sg149_cif.got.tgz:1106.got - 2010.05.20 13:52:34.
