data_PCOD9575104
_publ_section_title
;
Structure prediction by ZEFSAII (Michael W. Deem and Ramdas Pophale) SiO2 
 PCOD9575104
Probable space group: R -3
;
_chemical_formula_sum "Si O2"
_cell_formula_units_Z 54
_cell_length_a 12.892959
_cell_length_b 12.892959
_cell_length_c 13.921357
_cell_angle_alpha 90.000000
_cell_angle_beta 90.000000
_cell_angle_gamma 120.000000
_cell_volume 2004.090852
_symmetry_space_group_name_H-M "R -3"
_symmetry_group_IT_number 148
_symmetry_cell_setting 'hexagonal'
loop_
_space_group_symop_operation_xyz
x,y,z
-y,x-y,z
-x+y,-x,z
-x,-y,-z
y,-x+y,-z
x-y,x,-z
2/3+x,1/3+y,1/3+z
2/3-y,1/3+x-y,1/3+z
2/3-x+y,1/3-x,1/3+z
2/3-x,1/3-y,1/3-z
2/3+y,1/3-x+y,1/3-z
2/3+x-y,1/3+x,1/3-z
1/3+x,2/3+y,2/3+z
1/3-y,2/3+x-y,2/3+z
1/3-x+y,2/3-x,2/3+z
1/3-x,2/3-y,2/3-z
1/3+y,2/3-x+y,2/3-z
1/3+x-y,2/3+x,2/3-z
loop_
_atom_site_type_symbol
_atom_site_label
_atom_site_fract_x
_atom_site_fract_y
_atom_site_fract_z
Si Si1 0.427005 0.107418 0.788651
Si Si2 0.544692 0.683757 0.730046
Si Si3 0.310788 0.528965 0.397873
O O1 0.428974 0.220636 0.841026
O O2 0.431242 0.133323 0.675038
O O3 0.315763 0.972342 0.785032
O O4 0.470599 0.573260 0.654929
O O5 0.460016 0.646922 0.822704
O O6 0.434412 0.647447 0.370122
#
# Coordination Sequence:
#
# PCOD9575104 Si02
#       3
#    18  18  18
#     4  12  26  46  71 107 142 185 236 289 352 420
#     4  12  26  46  71 107 142 185 236 289 352 420
#     4  10  20  44  76  90 136 192 228 276 348 410
#
# _framework density 26.944887999999999
#
# number of rings (size 3 to 8) (size 9 to 14) (size 15 to 20)
#    0.667    0.000    6.667    0.667    4.667    5.333 
#    0.000    0.000    0.000    0.000    0.000    0.000 
#    0.000    0.000    0.000    0.000    0.000    0.000 
#
# Total GULP energy -100332.825326 kJ/mol
# GULP energy per Si atom -5574.045851 kJ/mol
# Density = 2.688356 g / cm^3
# Si number density = 26.944888 Si / 1000 Ang^3
#
#
#
# Elastic Constant Matrix: (Units=GPa)
#
#
# Indices 1 2 3 4 5 6 
#
# 1 94.8196 29.3670 5.8225 -8.6260 0.6653 0.0000
# 2 29.3670 94.8196 5.8225 8.6260 -0.6653 0.0000
# 3 5.8225 5.8225 163.8593 0.0000 0.0000 0.0000
# 4 -8.6260 8.6260 0.0000 9.8545 0.0000 -0.6653
# 5 0.6653 -0.6653 0.0000 0.0000 9.8545 -8.6260
# 6 0.0000 0.0000 0.0000 -0.6653 -8.6260 32.7263
#
#
#
# Elastic Compliance Matrix: (Units=1/GPa)
#
#
# Indices 1 2 3 4 5 6 
#
# 1 0.013988 -0.005908 -0.000287 0.017416 -0.001343 0.000000
# 2 -0.005908 0.013988 -0.000287 -0.017416 0.001343 0.000000
# 3 -0.000287 -0.000287 0.006123 0.000000 0.000000 0.000000
# 4 0.017416 -0.017416 0.000000 0.132147 0.000000 0.002687
# 5 -0.001343 0.001343 0.000000 0.000000 0.132147 0.034831
# 6 0.000000 0.000000 0.000000 0.002687 0.034831 0.039792
#
#
# Mechanical properties :
#
#
# Convention : Reuss Voigt Hill
#
# Bulk Modulus (GPa) = 47.31825 48.39137 47.85481
# Shear Modulus (GPa) = 13.95894 31.31949 22.63922
#
# Velocity S-wave (km/s) = 2.27855 3.41303 2.90177
# Velocity P-wave (km/s) = 4.95193 5.79052 5.38757
#
# Compressibility (1/GPa) = 0.02113350
#
# Stress axis : x y z
#
# Youngs Moduli (GPa) = 71.49159 71.49159 163.31331
#
# Poissons Ratio (x) = 0.42240 0.04688
# Poissons Ratio (y) = 0.42240 0.04688
# Poissons Ratio (z) = 0.02052 0.02052
#
# Static dielectric constant tensor:
#      x y z
#    x 2.194400 0.000000 0.000000 
#    y 0.000000 2.194400 0.000000 
#    z 0.000000 0.000000 1.938810 
# 
# From -- ./inp_files/1777.got.cif
#   From: 2010.05.17/outbox.cif.g08.bks.cpg/sg148_1_cif.got.tgz:1777.got - 2010.05.20 13:50:20.
