data_PCOD9575549
_publ_section_title
;
Structure prediction by ZEFSAII (Michael W. Deem and Ramdas Pophale) SiO2 
 PCOD9575549
Probable space group: P 31 1 2
;
_chemical_formula_sum "Si O2"
_cell_formula_units_Z 30
_cell_length_a 7.485670
_cell_length_b 7.485670
_cell_length_c 28.291962
_cell_angle_alpha 90.000000
_cell_angle_beta 90.000000
_cell_angle_gamma 120.000000
_cell_volume 1372.951049
_symmetry_space_group_name_H-M "P 31 1 2"
_symmetry_group_IT_number 151
_symmetry_cell_setting 'hexagonal'
loop_
_space_group_symop_operation_xyz
x,y,z
-y,x-y,1/3+z
-x+y,-x,2/3+z
-y,-x,2/3-z
-x+y,y,1/3-z
x,x-y,-z
loop_
_atom_site_type_symbol
_atom_site_label
_atom_site_fract_x
_atom_site_fract_y
_atom_site_fract_z
Si Si1 0.881101 0.993943 0.624699
Si Si2 0.859093 0.501015 0.358351
Si Si3 0.286189 0.474630 0.221638
Si Si4 0.728556 0.347119 0.887803
Si Si5 0.088279 0.404185 0.729189
O O1 0.948453 0.896905 0.666667
O O2 0.090774 0.197559 0.605874
O O3 0.774194 0.112825 0.648784
O O4 0.732115 0.854003 0.583680
O O5 0.708060 0.291941 0.333334
O O6 0.826045 0.448725 0.413622
O O7 0.055115 0.595173 0.324379
O O8 0.229716 0.459432 0.166667
O O9 0.503195 0.479237 0.225613
O O10 0.266017 0.659251 0.245378
O O11 0.669465 0.330536 0.833334
O O12 0.659780 0.122236 0.908698
#
# Coordination Sequence:
#
# PCOD9575549 Si02
#       5
#     6   6   6   6   6
#     4   9  20  39  61  91 124 159 216 265 304 389
#     4   8  17  35  59  84 117 161 199 256 312 367
#     4  11  22  39  60  90 125 166 211 261 327 387
#     4  10  19  36  60  84 122 162 203 261 322 372
#     4  10  20  39  60  85 126 163 206 263 318 373
#
# _framework density 21.850740999999999
#
# number of rings (size 3 to 8) (size 9 to 14) (size 15 to 20)
#    0.000    2.400    2.000    0.000    0.000    3.200 
#    0.000   40.000    0.000    0.000    0.000    0.000 
#    0.000    0.000    0.000    0.000    0.000    0.000 
#
# Total GULP energy -167086.136931 kJ/mol
# GULP energy per Si atom -5569.537898 kJ/mol
# Density = 2.180101 g / cm^3
# Si number density = 21.850741 Si / 1000 Ang^3
#
#
#
# Elastic Constant Matrix: (Units=GPa)
#
#
# Indices 1 2 3 4 5 6 
#
# 1 82.1528 33.7364 38.7231 -0.0008 1.4803 0.0000
# 2 33.7364 82.1528 38.7231 0.0008 -1.4803 0.0000
# 3 38.7231 38.7231 134.8385 0.0000 0.0000 0.0000
# 4 -0.0008 0.0008 0.0000 22.2288 0.0000 -1.4803
# 5 1.4803 -1.4803 0.0000 0.0000 22.2288 -0.0008
# 6 0.0000 0.0000 0.0000 -1.4803 -0.0008 24.2082
#
#
#
# Elastic Compliance Matrix: (Units=1/GPa)
#
#
# Indices 1 2 3 4 5 6 
#
# 1 0.015708 -0.005030 -0.003067 0.000001 -0.001381 0.000000
# 2 -0.005030 0.015708 -0.003067 -0.000001 0.001381 0.000000
# 3 -0.003067 -0.003067 0.009178 0.000000 0.000000 0.000000
# 4 0.000001 -0.000001 0.000000 0.045171 0.000000 0.002762
# 5 -0.001381 0.001381 0.000000 0.000000 0.045171 0.000001
# 6 0.000000 0.000000 0.000000 0.002762 0.000001 0.041477
#
#
# Mechanical properties :
#
#
# Convention : Reuss Voigt Hill
#
# Bulk Modulus (GPa) = 54.74122 57.94545 56.34334
# Shear Modulus (GPa) = 24.89684 26.26395 25.58039
#
# Velocity S-wave (km/s) = 3.37917 3.47071 3.42524
# Velocity P-wave (km/s) = 6.35073 6.52973 6.44085
#
# Compressibility (1/GPa) = 0.01826777
#
# Stress axis : x y z
#
# Youngs Moduli (GPa) = 63.66010 63.66010 108.96073
#
# Poissons Ratio (x) = 0.32022 0.33414
# Poissons Ratio (y) = 0.32022 0.33414
# Poissons Ratio (z) = 0.19522 0.19522
#
# Static dielectric constant tensor:
#      x y z
#    x 1.871120 0.000000 0.000000 
#    y 0.000000 1.871120 0.000000 
#    z 0.000000 0.000000 1.809820 
# 
# From -- ./inp_files/4807.got.cif
#   From: 2010.05.17/outbox.cif.g08.bks.cpg/sg151_3_cif.got.tgz:4807.got - 2010.05.20 10:33:20.
