data_PCOD9575741
_publ_section_title
;
Structure prediction by ZEFSAII (Michael W. Deem and Ramdas Pophale) SiO2 
 PCOD9575741
Probable space group: P 31 2 1
;
_chemical_formula_sum "Si O2"
_cell_formula_units_Z 36
_cell_length_a 13.423216
_cell_length_b 13.423216
_cell_length_c 13.025761
_cell_angle_alpha 90.000000
_cell_angle_beta 90.000000
_cell_angle_gamma 120.000000
_cell_volume 2032.576474
_symmetry_space_group_name_H-M "P 31 2 1"
_symmetry_group_IT_number 152
_symmetry_cell_setting 'hexagonal'
loop_
_space_group_symop_operation_xyz
x,y,z
-y,x-y,1/3+z
-x+y,-x,2/3+z
x-y,-y,2/3-z
-x,-x+y,1/3-z
y,x,-z
loop_
_atom_site_type_symbol
_atom_site_label
_atom_site_fract_x
_atom_site_fract_y
_atom_site_fract_z
Si Si1 0.658572 0.102608 0.162009
Si Si2 0.895196 0.246500 0.374241
Si Si3 0.642982 0.215688 0.357989
Si Si4 0.244735 0.244735 0.000000
Si Si5 0.677262 0.465037 0.379139
Si Si6 0.592622 0.532350 0.187908
Si Si7 0.000000 0.396827 0.166667
O O1 0.869623 0.116006 0.366742
O O2 0.748117 0.193832 0.083487
O O3 0.705681 0.039825 0.236980
O O4 0.540021 0.014462 0.108951
O O5 0.767076 0.229821 0.387629
O O6 0.977271 0.331309 0.462933
O O7 0.950060 0.310426 0.265082
O O8 0.651809 0.336174 0.379571
O O9 0.532529 0.114552 0.415251
O O10 0.630669 0.180154 0.239227
O O11 0.659470 0.494789 0.265072
O O12 0.596636 0.489116 0.454700
#
# Coordination Sequence:
#
# PCOD9575741 Si02
#       7
#     6   6   6   3   6   6   3
#     4  11  19  36  53  80 115 154 197 235 295 368
#     4  10  20  33  56  83 119 146 200 240 296 354
#     4  11  20  34  55  77 118 161 189 240 301 360
#     4  10  18  34  58  76 112 162 198 238 292 350
#     4  11  22  32  54  79 120 151 191 243 303 353
#     4  11  22  32  53  86 115 151 194 245 299 359
#     4  10  20  36  50  84 116 152 194 244 286 362
#
# _framework density 17.711511000000002
#
# number of rings (size 3 to 8) (size 9 to 14) (size 15 to 20)
#    0.000    1.333    8.333    1.000    0.000    0.000 
#    0.000    0.000    0.000    0.000    0.000    5.833 
#    0.000    0.000    0.000    0.000    0.000    0.000 
#
# Total GULP energy -200525.920190 kJ/mol
# GULP energy per Si atom -5570.164450 kJ/mol
# Density = 1.767120 g / cm^3
# Si number density = 17.711511 Si / 1000 Ang^3
#
#
#
# Elastic Constant Matrix: (Units=GPa)
#
#
# Indices 1 2 3 4 5 6 
#
# 1 77.4585 20.8946 14.9858 -1.2979 0.0000 0.0000
# 2 20.8946 77.4585 14.9858 1.2979 0.0000 0.0000
# 3 14.9858 14.9858 48.5269 0.0000 0.0000 0.0000
# 4 -1.2979 1.2979 0.0000 32.9557 0.0000 0.0000
# 5 0.0000 0.0000 0.0000 0.0000 32.9557 -1.2979
# 6 0.0000 0.0000 0.0000 0.0000 -1.2979 28.2819
#
#
#
# Elastic Compliance Matrix: (Units=1/GPa)
#
#
# Indices 1 2 3 4 5 6 
#
# 1 0.014467 -0.003244 -0.003466 0.000697 0.000000 0.000000
# 2 -0.003244 0.014467 -0.003466 -0.000697 0.000000 0.000000
# 3 -0.003466 -0.003466 0.022748 0.000000 0.000000 0.000000
# 4 0.000697 -0.000697 0.000000 0.030399 0.000000 0.000000
# 5 0.000000 0.000000 0.000000 0.000000 0.030399 0.001395
# 6 0.000000 0.000000 0.000000 0.000000 0.001395 0.035422
#
#
# Mechanical properties :
#
#
# Convention : Reuss Voigt Hill
#
# Bulk Modulus (GPa) = 31.91721 33.90848 32.91284
# Shear Modulus (GPa) = 27.98022 29.01050 28.49536
#
# Velocity S-wave (km/s) = 3.97895 4.05155 4.01541
# Velocity P-wave (km/s) = 6.25852 6.40883 6.33412
#
# Compressibility (1/GPa) = 0.03133106
#
# Stress axis : x y z
#
# Youngs Moduli (GPa) = 69.12088 69.12088 43.96020
#
# Poissons Ratio (x) = 0.22421 0.15237
# Poissons Ratio (y) = 0.22421 0.15237
# Poissons Ratio (z) = 0.23958 0.23958
#
# Static dielectric constant tensor:
#      x y z
#    x 1.634030 0.000000 0.000000 
#    y 0.000000 1.634030 0.000000 
#    z 0.000000 0.000000 1.630840 
# 
# From -- ./inp_files/2128.got.cif
#   From: 2010.05.17/outbox.cif.g08.bks.cpg/sg152_2_cif.got.tgz:2128.got - 2010.05.20 10:36:06.
