data_PCOD9575706
_publ_section_title
;
Structure prediction by ZEFSAII (Michael W. Deem and Ramdas Pophale) SiO2 
 PCOD9575706
Probable space group: P 31 2 1
;
_chemical_formula_sum "Si O2"
_cell_formula_units_Z 30
_cell_length_a 12.923425
_cell_length_b 12.923425
_cell_length_c 12.721867
_cell_angle_alpha 90.000000
_cell_angle_beta 90.000000
_cell_angle_gamma 120.000000
_cell_volume 1840.080132
_symmetry_space_group_name_H-M "P 31 2 1"
_symmetry_group_IT_number 152
_symmetry_cell_setting 'hexagonal'
loop_
_space_group_symop_operation_xyz
x,y,z
-y,x-y,1/3+z
-x+y,-x,2/3+z
x-y,-y,2/3-z
-x,-x+y,1/3-z
y,x,-z
loop_
_atom_site_type_symbol
_atom_site_label
_atom_site_fract_x
_atom_site_fract_y
_atom_site_fract_z
Si Si1 0.741531 0.051179 0.452816
Si Si2 0.896512 0.901849 0.242351
Si Si3 0.707198 0.508889 0.692116
Si Si4 0.519047 0.813844 0.531585
Si Si5 0.043005 0.311311 0.281556
O O1 0.871706 0.071225 0.482787
O O2 0.755078 0.181222 0.439649
O O3 0.720741 0.000000 0.333334
O O4 0.630655 0.949878 0.517707
O O5 0.826574 0.776249 0.301206
O O6 0.954644 0.000000 0.333334
O O7 0.000000 0.916436 0.166667
O O8 0.593876 0.397734 0.742689
O O9 0.758220 0.483131 0.585499
O O10 0.670255 0.606390 0.656297
O O11 0.573134 0.742559 0.593315
O O12 0.000000 0.248380 0.166667
#
# Coordination Sequence:
#
# PCOD9575706 Si02
#       5
#     6   6   6   6   6
#     4   8  16  30  48  70  94 125 163 197 238 296
#     4  10  16  26  48  74  97 124 158 198 241 288
#     4   9  19  32  52  75  97 130 170 206 245 296
#     4  10  18  33  53  73  98 130 168 208 249 294
#     4   9  18  33  50  72  98 129 167 201 240 300
#
# _framework density 16.303636999999998
#
# number of rings (size 3 to 8) (size 9 to 14) (size 15 to 20)
#    0.000    2.800    0.000    5.400    0.000    1.600 
#    0.000    3.000    0.000   33.600    0.000    0.000 
#    0.000    0.000    0.000    0.000    0.000    0.000 
#
# Total GULP energy -167115.354945 kJ/mol
# GULP energy per Si atom -5570.511831 kJ/mol
# Density = 1.626653 g / cm^3
# Si number density = 16.303637 Si / 1000 Ang^3
#
#
#
# Elastic Constant Matrix: (Units=GPa)
#
#
# Indices 1 2 3 4 5 6 
#
# 1 97.4247 50.0866 51.0451 -3.2007 0.0000 0.0000
# 2 50.0866 97.4247 51.0451 3.2007 0.0000 0.0000
# 3 51.0451 51.0451 58.9451 0.0000 0.0000 0.0000
# 4 -3.2007 3.2007 0.0000 22.9221 0.0000 0.0000
# 5 0.0000 0.0000 0.0000 0.0000 22.9221 -3.2007
# 6 0.0000 0.0000 0.0000 0.0000 -3.2007 23.6691
#
#
#
# Elastic Compliance Matrix: (Units=1/GPa)
#
#
# Indices 1 2 3 4 5 6 
#
# 1 0.019225 -0.002306 -0.014652 0.003007 0.000000 0.000000
# 2 -0.002306 0.019225 -0.014652 -0.003007 0.000000 0.000000
# 3 -0.014652 -0.014652 0.042341 0.000000 0.000000 0.000000
# 4 0.003007 -0.003007 0.000000 0.044466 0.000000 0.000000
# 5 0.000000 0.000000 0.000000 0.000000 0.044466 0.006013
# 6 0.000000 0.000000 0.000000 0.000000 0.006013 0.043062
#
#
# Mechanical properties :
#
#
# Convention : Reuss Voigt Hill
#
# Bulk Modulus (GPa) = 56.90628 62.01646 59.46137
# Shear Modulus (GPa) = 17.73913 20.67715 19.20814
#
# Velocity S-wave (km/s) = 3.30214 3.56512 3.43614
# Velocity P-wave (km/s) = 7.03695 7.42077 7.23140
#
# Compressibility (1/GPa) = 0.01757275
#
# Stress axis : x y z
#
# Youngs Moduli (GPa) = 52.01469 52.01469 23.61757
#
# Poissons Ratio (x) = 0.11994 0.34604
# Poissons Ratio (y) = 0.11994 0.34604
# Poissons Ratio (z) = 0.76211 0.76211
#
# Static dielectric constant tensor:
#      x y z
#    x 1.553960 0.000000 0.000000 
#    y 0.000000 1.553960 0.000000 
#    z 0.000000 0.000000 1.548480 
# 
# From -- ./inp_files/1956.got.cif
#   From: 2010.05.17/outbox.cif.g08.bks.cpg/sg152_1_cif.got.tgz:1956.got - 2010.05.20 10:36:06.
