data_PCOD9575189
_publ_section_title
;
Structure prediction by ZEFSAII (Michael W. Deem and Ramdas Pophale) SiO2 
 PCOD9575189
Probable space group: R -3
;
_chemical_formula_sum "Si O2"
_cell_formula_units_Z 72
_cell_length_a 21.315738
_cell_length_b 21.315738
_cell_length_c 8.349946
_cell_angle_alpha 90.000000
_cell_angle_beta 90.000000
_cell_angle_gamma 120.000000
_cell_volume 3285.602691
_symmetry_space_group_name_H-M "R -3"
_symmetry_group_IT_number 148
_symmetry_cell_setting 'hexagonal'
loop_
_space_group_symop_operation_xyz
x,y,z
-y,x-y,z
-x+y,-x,z
-x,-y,-z
y,-x+y,-z
x-y,x,-z
2/3+x,1/3+y,1/3+z
2/3-y,1/3+x-y,1/3+z
2/3-x+y,1/3-x,1/3+z
2/3-x,1/3-y,1/3-z
2/3+y,1/3-x+y,1/3-z
2/3+x-y,1/3+x,1/3-z
1/3+x,2/3+y,2/3+z
1/3-y,2/3+x-y,2/3+z
1/3-x+y,2/3-x,2/3+z
1/3-x,2/3-y,2/3-z
1/3+y,2/3-x+y,2/3-z
1/3+x-y,2/3+x,2/3-z
loop_
_atom_site_type_symbol
_atom_site_label
_atom_site_fract_x
_atom_site_fract_y
_atom_site_fract_z
Si Si1 0.630221 0.746010 0.862084
Si Si2 0.613725 0.779919 0.197119
Si Si3 0.903763 0.537043 0.635817
Si Si4 0.998059 0.143656 0.008839
O O1 0.666667 0.833334 0.833334
O O2 0.683023 0.731975 0.748558
O O3 0.546667 0.700359 0.802199
O O4 0.640189 0.746991 0.053175
O O5 0.666667 0.833334 0.333334
O O6 0.559291 0.709849 0.291394
O O7 0.580066 0.820506 0.098713
O O8 0.866330 0.501349 0.469583
O O9 0.066994 0.135049 0.055364
#
# Coordination Sequence:
#
# PCOD9575189 Si02
#       4
#    18  18  18  18
#     4  10  22  49  69 104 143 196 252 313 373 449
#     4  11  25  47  71 109 148 195 253 314 389 457
#     4  11  25  46  73 106 150 200 253 319 385 457
#     4  12  25  47  78 111 156 205 264 313 391 473
#
# _framework density 21.913786999999999
#
# number of rings (size 3 to 8) (size 9 to 14) (size 15 to 20)
#    0.000    1.000    5.000    3.250    3.500    0.000 
#   18.000    0.000    0.000    2.000    0.000    0.000 
#    0.000    0.000    0.000    0.000    0.000    0.000 
#
# Total GULP energy -133715.791276 kJ/mol
# GULP energy per Si atom -5571.491303 kJ/mol
# Density = 2.186391 g / cm^3
# Si number density = 21.913787 Si / 1000 Ang^3
#
#
#
# Elastic Constant Matrix: (Units=GPa)
#
#
# Indices 1 2 3 4 5 6 
#
# 1 127.0604 48.4006 43.5821 2.3559 -1.9575 0.0001
# 2 48.4006 127.0588 43.5824 -2.3557 1.9571 0.0000
# 3 43.5821 43.5824 118.4654 0.0002 -0.0044 -0.0014
# 4 2.3559 -2.3557 0.0002 35.0629 0.0006 1.9575
# 5 -1.9575 1.9571 -0.0044 0.0006 35.0614 2.3553
# 6 0.0001 0.0000 -0.0014 1.9575 2.3553 39.3288
#
#
#
# Elastic Compliance Matrix: (Units=1/GPa)
#
#
# Indices 1 2 3 4 5 6 
#
# 1 0.009887 -0.002913 -0.002566 -0.000860 0.000714 0.000000
# 2 -0.002913 0.009887 -0.002566 0.000860 -0.000715 0.000000
# 3 -0.002566 -0.002566 0.010329 0.000000 0.000001 0.000000
# 4 -0.000860 0.000860 0.000000 0.028716 -0.000001 -0.001429
# 5 0.000714 -0.000715 0.000001 -0.000001 0.028717 -0.001720
# 6 0.000000 0.000000 0.000000 -0.001429 -0.001720 0.025601
#
#
# Mechanical properties :
#
#
# Convention : Reuss Voigt Hill
#
# Bulk Modulus (GPa) = 71.35594 71.52387 71.43991
# Shear Modulus (GPa) = 37.34234 37.69190 37.51712
#
# Velocity S-wave (km/s) = 4.13250 4.15180 4.14216
# Velocity P-wave (km/s) = 7.44331 7.46276 7.45304
#
# Compressibility (1/GPa) = 0.01401425
#
# Stress axis : x y z
#
# Youngs Moduli (GPa) = 101.14379 101.14187 96.81476
#
# Poissons Ratio (x) = 0.29464 0.24838
# Poissons Ratio (y) = 0.29465 0.24840
# Poissons Ratio (z) = 0.25949 0.25950
#
# Static dielectric constant tensor:
#      x y z
#    x 1.944930 -0.000010 0.000000 
#    y -0.000010 1.944910 0.000000 
#    z 0.000000 0.000000 1.885410 
# 
# From -- ./inp_files/810.got.cif
#   From: 2010.05.17/outbox.cif.g08.bks.cpg/sg148_1_cif.got.tgz:810.got - 2010.05.20 13:50:20.
