data_PCOD9575418
_publ_section_title
;
Structure prediction by ZEFSAII (Michael W. Deem and Ramdas Pophale) SiO2 
 PCOD9575418
Probable space group: P 3 2 1
;
_chemical_formula_sum "Si O2"
_cell_formula_units_Z 32
_cell_length_a 14.436744
_cell_length_b 14.436744
_cell_length_c 9.175812
_cell_angle_alpha 90.000000
_cell_angle_beta 90.000000
_cell_angle_gamma 120.000000
_cell_volume 1656.203314
_symmetry_space_group_name_H-M "P 3 2 1"
_symmetry_group_IT_number 150
_symmetry_cell_setting 'hexagonal'
loop_
_space_group_symop_operation_xyz
x,y,z
-y,x-y,z
-x+y,-x,z
x-y,-y,-z
-x,-x+y,-z
y,x,-z
loop_
_atom_site_type_symbol
_atom_site_label
_atom_site_fract_x
_atom_site_fract_y
_atom_site_fract_z
Si Si1 0.234497 0.798296 0.808137
Si Si2 0.526548 0.276361 0.511288
Si Si3 0.051071 0.678808 0.340133
Si Si4 0.000000 0.000000 0.673834
Si Si5 0.562445 0.077949 0.136188
Si Si6 0.792670 0.950705 0.841680
O O1 0.223490 0.762381 0.638637
O O2 0.359051 0.869876 0.838396
O O3 0.174852 0.683615 0.888671
O O4 0.166711 0.855084 0.846884
O O5 0.598413 0.219351 0.514666
O O6 0.446573 0.268524 0.636766
O O7 0.000000 0.668447 0.500000
O O8 0.992901 0.560554 0.269299
O O9 0.022132 0.748903 0.234804
O O10 0.068924 0.118031 0.739954
O O11 0.000000 0.000000 0.500000
O O12 0.522404 0.000000 0.000000
O O13 0.838266 0.000000 0.000000
#
# Coordination Sequence:
#
# PCOD9575418 Si02
#       6
#     6   6   6   2   6   6
#     4  11  19  41  67  91 131 184 215 267 343 400
#     4  10  19  37  63  94 131 175 209 268 338 392
#     4  11  19  39  66  94 128 168 221 277 326 400
#     4  12  28  50  70 102 118 164 229 282 334 395
#     4  11  23  39  63  96 131 175 231 273 337 420
#     4  11  25  45  71  89 133 176 217 280 336 390
#
# _framework density 19.321300000000001
#
# number of rings (size 3 to 8) (size 9 to 14) (size 15 to 20)
#    0.375    0.750    5.625    3.750    0.000    1.500 
#   10.125    0.938    0.000    0.000    0.000    0.000 
#    0.000    0.000    0.000    0.000    0.000    0.000 
#
# Total GULP energy -178516.894433 kJ/mol
# GULP energy per Si atom -5578.652951 kJ/mol
# Density = 1.927732 g / cm^3
# Si number density = 19.321300 Si / 1000 Ang^3
#
#
#
# Elastic Constant Matrix: (Units=GPa)
#
#
# Indices 1 2 3 4 5 6 
#
# 1 57.4777 24.2795 20.2207 -8.4109 0.0000 0.0000
# 2 24.2795 57.4777 20.2207 8.4109 0.0000 0.0000
# 3 20.2207 20.2207 90.4445 0.0000 0.0000 0.0000
# 4 -8.4109 8.4109 0.0000 16.8944 0.0000 0.0000
# 5 0.0000 0.0000 0.0000 0.0000 16.8944 -8.4109
# 6 0.0000 0.0000 0.0000 0.0000 -8.4109 16.5991
#
#
#
# Elastic Compliance Matrix: (Units=1/GPa)
#
#
# Indices 1 2 3 4 5 6 
#
# 1 0.027018 -0.013266 -0.003075 0.020056 0.000000 0.000000
# 2 -0.013266 0.027018 -0.003075 -0.020056 0.000000 0.000000
# 3 -0.003075 -0.003075 0.012431 0.000000 0.000000 0.000000
# 4 0.020056 -0.020056 0.000000 0.079161 0.000000 0.000000
# 5 0.000000 0.000000 0.000000 0.000000 0.079161 0.040112
# 6 0.000000 0.000000 0.000000 0.000000 0.040112 0.080569
#
#
# Mechanical properties :
#
#
# Convention : Reuss Voigt Hill
#
# Bulk Modulus (GPa) = 36.18294 37.20464 36.69379
# Shear Modulus (GPa) = 14.14820 19.45619 16.80219
#
# Velocity S-wave (km/s) = 2.70896 3.17674 2.95213
# Velocity P-wave (km/s) = 5.34343 5.72304 5.53649
#
# Compressibility (1/GPa) = 0.02763733
#
# Stress axis : x y z
#
# Youngs Moduli (GPa) = 37.01182 37.01182 80.44223
#
# Poissons Ratio (x) = 0.49101 0.24733
# Poissons Ratio (y) = 0.49101 0.24733
# Poissons Ratio (z) = 0.11380 0.11380
#
# Static dielectric constant tensor:
#      x y z
#    x 1.692100 0.000000 0.000000 
#    y 0.000000 1.692100 0.000000 
#    z 0.000000 0.000000 1.662890 
# 
# From -- ./inp_files/645.got.cif
#   From: 2010.05.17/outbox.cif.g08.bks.cpg/sg150_cif.got.tgz:645.got - 2010.05.20 13:53:18.
