data_PCOD9575774
_publ_section_title
;
Structure prediction by ZEFSAII (Michael W. Deem and Ramdas Pophale) SiO2 
 PCOD9575774
Probable space group: P 31 2 1
;
_chemical_formula_sum "Si O2"
_cell_formula_units_Z 36
_cell_length_a 9.284325
_cell_length_b 9.284325
_cell_length_c 25.872428
_cell_angle_alpha 90.000000
_cell_angle_beta 90.000000
_cell_angle_gamma 120.000000
_cell_volume 1931.383372
_symmetry_space_group_name_H-M "P 31 2 1"
_symmetry_group_IT_number 152
_symmetry_cell_setting 'hexagonal'
loop_
_space_group_symop_operation_xyz
x,y,z
-y,x-y,1/3+z
-x+y,-x,2/3+z
x-y,-y,2/3-z
-x,-x+y,1/3-z
y,x,-z
loop_
_atom_site_type_symbol
_atom_site_label
_atom_site_fract_x
_atom_site_fract_y
_atom_site_fract_z
Si Si1 0.241385 0.334993 0.084994
Si Si2 0.999387 0.545390 0.967644
Si Si3 0.250812 0.914891 0.955103
Si Si4 0.262324 0.529066 0.905086
Si Si5 0.643371 0.467316 0.989291
Si Si6 0.345084 0.824725 0.845369
O O1 0.354120 0.255504 0.099874
O O2 0.351622 0.484558 0.045664
O O3 0.206518 0.418862 0.134216
O O4 0.065994 0.217120 0.056565
O O5 0.112081 0.742234 0.980318
O O6 0.083021 0.507019 0.918918
O O7 0.811150 0.503138 0.961847
O O8 0.992606 0.421858 0.012593
O O9 0.281818 0.859845 0.899248
O O10 0.345925 0.655455 0.857425
O O11 0.373084 0.619445 0.956276
O O12 0.631592 0.631592 0.000000
O O13 0.511709 0.000000 0.833334
#
# Coordination Sequence:
#
# PCOD9575774 Si02
#       6
#     6   6   6   6   6   6
#     4  10  20  37  57  84 115 156 192 239 298 336
#     4  11  18  35  56  82 114 145 199 232 285 338
#     4  10  19  33  57  85 112 155 190 243 284 348
#     4  10  20  35  61  82 112 149 203 232 281 358
#     4  10  20  36  55  83 119 148 187 245 289 337
#     4   9  19  34  56  81 114 152 191 236 289 340
#
# _framework density 18.639491
#
# number of rings (size 3 to 8) (size 9 to 14) (size 15 to 20)
#    0.000    2.000    5.000    0.000    0.000    2.667 
#    3.000    0.000    0.000    0.000    0.000    4.667 
#    0.000    0.000    0.000    0.000    0.000    0.000 
#
# Total GULP energy -200445.403812 kJ/mol
# GULP energy per Si atom -5567.927884 kJ/mol
# Density = 1.859707 g / cm^3
# Si number density = 18.639491 Si / 1000 Ang^3
#
#
#
# Elastic Constant Matrix: (Units=GPa)
#
#
# Indices 1 2 3 4 5 6 
#
# 1 47.4810 -3.6658 -21.1598 -2.6410 0.0000 0.0000
# 2 -3.6658 47.4810 -21.1598 2.6410 0.0000 0.0000
# 3 -21.1598 -21.1598 34.7187 0.0000 0.0000 0.0000
# 4 -2.6410 2.6410 0.0000 19.3192 0.0000 0.0000
# 5 0.0000 0.0000 0.0000 0.0000 19.3192 -2.6410
# 6 0.0000 0.0000 0.0000 0.0000 -2.6410 25.5734
#
#
#
# Elastic Compliance Matrix: (Units=1/GPa)
#
#
# Indices 1 2 3 4 5 6 
#
# 1 0.037658 0.017827 0.033816 0.002711 0.000000 0.000000
# 2 0.017827 0.037658 0.033816 -0.002711 0.000000 0.000000
# 3 0.033816 0.033816 0.070022 0.000000 0.000000 0.000000
# 4 0.002711 -0.002711 0.000000 0.052503 0.000000 0.000000
# 5 0.000000 0.000000 0.000000 0.000000 0.052503 0.005422
# 6 0.000000 0.000000 0.000000 0.000000 0.005422 0.039663
#
#
# Mechanical properties :
#
#
# Convention : Reuss Voigt Hill
#
# Bulk Modulus (GPa) = 3.16201 4.19000 3.67600
# Shear Modulus (GPa) = 22.27080 24.55343 23.41212
#
# Velocity S-wave (km/s) = 3.46036 3.63337 3.54792
# Velocity P-wave (km/s) = 4.20304 4.45586 4.33130
#
# Compressibility (1/GPa) = 0.31625488
#
# Stress axis : x y z
#
# Youngs Moduli (GPa) = 26.55470 26.55470 14.28123
#
# Poissons Ratio (x) = -0.47338 -0.48293
# Poissons Ratio (y) = -0.47338 -0.48293
# Poissons Ratio (z) = -0.89797 -0.89797
#
# Static dielectric constant tensor:
#      x y z
#    x 1.707160 0.000000 0.000000 
#    y 0.000000 1.707160 0.000000 
#    z 0.000000 0.000000 1.645270 
# 
# From -- ./inp_files/3383.got.cif
#   From: 2010.05.17/outbox.cif.g08.bks.cpg/sg152_2_cif.got.tgz:3383.got - 2010.05.20 10:36:06.
