data_PCOD9575454
_publ_section_title
;
Structure prediction by ZEFSAII (Michael W. Deem and Ramdas Pophale) SiO2 
 PCOD9575454
Probable space group: P 3 2 1
;
_chemical_formula_sum "Si O2"
_cell_formula_units_Z 33
_cell_length_a 15.922993
_cell_length_b 15.922993
_cell_length_c 8.179882
_cell_angle_alpha 90.000000
_cell_angle_beta 90.000000
_cell_angle_gamma 120.000000
_cell_volume 1796.085798
_symmetry_space_group_name_H-M "P 3 2 1"
_symmetry_group_IT_number 150
_symmetry_cell_setting 'hexagonal'
loop_
_space_group_symop_operation_xyz
x,y,z
-y,x-y,z
-x+y,-x,z
x-y,-y,-z
-x,-x+y,-z
y,x,-z
loop_
_atom_site_type_symbol
_atom_site_label
_atom_site_fract_x
_atom_site_fract_y
_atom_site_fract_z
Si Si1 0.608496 0.965216 0.185337
Si Si2 0.152450 0.504074 0.726278
Si Si3 0.392411 0.182329 0.694870
Si Si4 0.397035 0.898567 0.079864
Si Si5 0.000000 0.333710 0.500000
Si Si6 0.161949 0.685927 0.618359
O O1 0.647950 0.891219 0.213038
O O2 0.490756 0.917013 0.183133
O O3 0.649496 0.053909 0.314229
O O4 0.633051 0.000000 0.000000
O O5 0.057054 0.417814 0.636898
O O6 0.179651 0.595714 0.612892
O O7 0.231539 0.471053 0.736652
O O8 0.150290 0.543620 0.906375
O O9 0.456497 0.156488 0.814787
O O10 0.450853 0.260202 0.553734
O O11 0.324282 0.082440 0.598163
O O12 0.414152 0.000000 0.000000
#
# Coordination Sequence:
#
# PCOD9575454 Si02
#       6
#     6   6   6   6   3   6
#     4  11  22  41  60  87 127 166 205 266 315 362
#     4  11  22  39  59  84 126 167 212 251 309 366
#     4  11  24  37  62  87 122 163 215 255 315 370
#     4  11  21  40  61  81 121 172 208 253 305 371
#     4  10  22  40  58  84 118 164 214 254 300 370
#     4  11  23  36  59  87 125 167 206 265 306 365
#
# _framework density 18.373287000000001
#
# number of rings (size 3 to 8) (size 9 to 14) (size 15 to 20)
#    0.000    1.091    5.455    2.000    7.636    0.000 
#    1.091    0.000    0.000    0.000    0.000    0.000 
#   58.182   13.091    0.000    0.000    0.000    0.000 
#
# Total GULP energy -183777.239814 kJ/mol
# GULP energy per Si atom -5569.007267 kJ/mol
# Density = 1.833147 g / cm^3
# Si number density = 18.373287 Si / 1000 Ang^3
#
#
#
# Elastic Constant Matrix: (Units=GPa)
#
#
# Indices 1 2 3 4 5 6 
#
# 1 86.7434 46.5842 30.4417 -1.0174 0.0000 0.0000
# 2 46.5842 86.7434 30.4417 1.0174 0.0000 0.0000
# 3 30.4417 30.4417 71.6731 0.0000 0.0000 0.0000
# 4 -1.0174 1.0174 0.0000 31.4879 0.0000 0.0000
# 5 0.0000 0.0000 0.0000 0.0000 31.4879 -1.0174
# 6 0.0000 0.0000 0.0000 0.0000 -1.0174 20.0796
#
#
#
# Elastic Compliance Matrix: (Units=1/GPa)
#
#
# Indices 1 2 3 4 5 6 
#
# 1 0.017123 -0.007818 -0.003952 0.000806 0.000000 0.000000
# 2 -0.007818 0.017123 -0.003952 -0.000806 0.000000 0.000000
# 3 -0.003952 -0.003952 0.017309 0.000000 0.000000 0.000000
# 4 0.000806 -0.000806 0.000000 0.031810 0.000000 0.000000
# 5 0.000000 0.000000 0.000000 0.000000 0.031810 0.001612
# 6 0.000000 0.000000 0.000000 0.000000 0.001612 0.049884
#
#
# Mechanical properties :
#
#
# Convention : Reuss Voigt Hill
#
# Bulk Modulus (GPa) = 49.72409 51.12169 50.42289
# Shear Modulus (GPa) = 24.60517 25.79054 25.19786
#
# Velocity S-wave (km/s) = 3.66345 3.75066 3.70731
# Velocity P-wave (km/s) = 6.70944 6.82942 6.76969
#
# Compressibility (1/GPa) = 0.02011098
#
# Stress axis : x y z
#
# Youngs Moduli (GPa) = 58.39959 58.39959 57.77201
#
# Poissons Ratio (x) = 0.45659 0.22832
# Poissons Ratio (y) = 0.45659 0.22832
# Poissons Ratio (z) = 0.23080 0.23080
#
# Static dielectric constant tensor:
#      x y z
#    x 1.692070 0.000000 0.000000 
#    y 0.000000 1.692070 0.000000 
#    z 0.000000 0.000000 1.781210 
# 
# From -- ./inp_files/641.got.cif
#   From: 2010.05.17/outbox.cif.g08.bks.cpg/sg150_cif.got.tgz:641.got - 2010.05.20 13:53:18.
