data_PCOD9575213
_publ_section_title
;
Structure prediction by ZEFSAII (Michael W. Deem and Ramdas Pophale) SiO2 
 PCOD9575213
Probable space group: R -3
;
_chemical_formula_sum "Si O2"
_cell_formula_units_Z 54
_cell_length_a 10.590845
_cell_length_b 10.590845
_cell_length_c 19.821437
_cell_angle_alpha 90.000000
_cell_angle_beta 90.000000
_cell_angle_gamma 120.000000
_cell_volume 1925.426710
_symmetry_space_group_name_H-M "R -3"
_symmetry_group_IT_number 148
_symmetry_cell_setting 'hexagonal'
loop_
_space_group_symop_operation_xyz
x,y,z
-y,x-y,z
-x+y,-x,z
-x,-y,-z
y,-x+y,-z
x-y,x,-z
2/3+x,1/3+y,1/3+z
2/3-y,1/3+x-y,1/3+z
2/3-x+y,1/3-x,1/3+z
2/3-x,1/3-y,1/3-z
2/3+y,1/3-x+y,1/3-z
2/3+x-y,1/3+x,1/3-z
1/3+x,2/3+y,2/3+z
1/3-y,2/3+x-y,2/3+z
1/3-x+y,2/3-x,2/3+z
1/3-x,2/3-y,2/3-z
1/3+y,2/3-x+y,2/3-z
1/3+x-y,2/3+x,2/3-z
loop_
_atom_site_type_symbol
_atom_site_label
_atom_site_fract_x
_atom_site_fract_y
_atom_site_fract_z
Si Si1 0.190153 0.115222 0.895544
Si Si2 0.685435 0.817740 0.246919
Si Si3 0.503446 0.425018 0.658738
O O1 0.297152 0.182198 0.832415
O O2 0.155293 0.092919 0.110878
O O3 0.270218 0.138629 0.966156
O O4 0.534726 0.694436 0.279946
O O5 0.814945 0.800993 0.283674
O O6 0.727035 0.979598 0.269553
#
# Coordination Sequence:
#
# PCOD9575213 Si02
#       3
#    18  18  18
#     4  10  23  47  77 109 146 201 258 318 375 463
#     4  11  24  48  72 111 159 196 252 325 383 451
#     4  11  25  43  78 108 150 205 249 313 391 449
#
# _framework density 28.045729000000001
#
# number of rings (size 3 to 8) (size 9 to 14) (size 15 to 20)
#    0.667    0.667    3.333    0.667    4.667    6.667 
#    0.000    3.333    0.000    0.000    0.000    0.000 
#    0.000    0.000    0.000    0.000    0.000    0.000 
#
# Total GULP energy -100599.828267 kJ/mol
# GULP energy per Si atom -5588.879348 kJ/mol
# Density = 2.798190 g / cm^3
# Si number density = 28.045729 Si / 1000 Ang^3
#
#
#
# Elastic Constant Matrix: (Units=GPa)
#
#
# Indices 1 2 3 4 5 6 
#
# 1 105.1473 30.6076 45.3586 -5.5350 18.3154 0.0000
# 2 30.6076 105.1473 45.3586 5.5350 -18.3154 0.0000
# 3 45.3586 45.3586 236.9393 0.0000 0.0000 0.0000
# 4 -5.5350 5.5350 0.0000 59.4565 0.0000 -18.3154
# 5 18.3154 -18.3154 0.0000 0.0000 59.4565 -5.5350
# 6 0.0000 0.0000 0.0000 -18.3154 -5.5350 37.2698
#
#
#
# Elastic Compliance Matrix: (Units=1/GPa)
#
#
# Indices 1 2 3 4 5 6 
#
# 1 0.012259 -0.003812 -0.001617 0.001496 -0.004951 0.000000
# 2 -0.003812 0.012259 -0.001617 -0.001496 0.004951 0.000000
# 3 -0.001617 -0.001617 0.004840 0.000000 0.000000 0.000000
# 4 0.001496 -0.001496 0.000000 0.020148 0.000000 0.009901
# 5 -0.004951 0.004951 0.000000 0.000000 0.020148 0.002992
# 6 0.000000 0.000000 0.000000 0.009901 0.002992 0.032141
#
#
# Mechanical properties :
#
#
# Convention : Reuss Voigt Hill
#
# Bulk Modulus (GPa) = 65.50892 76.65371 71.08131
# Shear Modulus (GPa) = 41.33122 52.96382 47.14752
#
# Velocity S-wave (km/s) = 3.84306 4.35038 4.10456
# Velocity P-wave (km/s) = 6.56511 7.25434 6.91831
#
# Compressibility (1/GPa) = 0.01526510
#
# Stress axis : x y z
#
# Youngs Moduli (GPa) = 81.57451 81.57451 206.62885
#
# Poissons Ratio (x) = 0.31096 0.33412
# Poissons Ratio (y) = 0.31096 0.33412
# Poissons Ratio (z) = 0.13191 0.13191
#
# Static dielectric constant tensor:
#      x y z
#    x 2.396220 0.000000 0.000000 
#    y 0.000000 2.396220 0.000000 
#    z 0.000000 0.000000 2.042200 
# 
# From -- ./inp_files/1791.got.cif
#   From: 2010.05.17/outbox.cif.g08.bks.cpg/sg148_1_cif.got.tgz:1791.got - 2010.05.20 13:50:20.
