data_PCOD9575014
_publ_section_title
;
Structure prediction by ZEFSAII (Michael W. Deem and Ramdas Pophale) SiO2 
 PCOD9575014
Probable space group: R -3
;
_chemical_formula_sum "Si O2"
_cell_formula_units_Z 72
_cell_length_a 22.108966
_cell_length_b 22.108966
_cell_length_c 10.147981
_cell_angle_alpha 90.000000
_cell_angle_beta 90.000000
_cell_angle_gamma 120.000000
_cell_volume 4295.830536
_symmetry_space_group_name_H-M "R -3"
_symmetry_group_IT_number 148
_symmetry_cell_setting 'hexagonal'
loop_
_space_group_symop_operation_xyz
x,y,z
-y,x-y,z
-x+y,-x,z
-x,-y,-z
y,-x+y,-z
x-y,x,-z
2/3+x,1/3+y,1/3+z
2/3-y,1/3+x-y,1/3+z
2/3-x+y,1/3-x,1/3+z
2/3-x,1/3-y,1/3-z
2/3+y,1/3-x+y,1/3-z
2/3+x-y,1/3+x,1/3-z
1/3+x,2/3+y,2/3+z
1/3-y,2/3+x-y,2/3+z
1/3-x+y,2/3-x,2/3+z
1/3-x,2/3-y,2/3-z
1/3+y,2/3-x+y,2/3-z
1/3+x-y,2/3+x,2/3-z
loop_
_atom_site_type_symbol
_atom_site_label
_atom_site_fract_x
_atom_site_fract_y
_atom_site_fract_z
Si Si1 0.081044 0.612774 0.395717
Si Si2 0.065074 0.666667 0.666730
Si Si3 0.525405 0.333410 0.833354
Si Si4 0.864941 0.279223 0.062325
O O1 0.096827 0.654943 0.532940
O O2 0.142582 0.650968 0.292068
O O3 0.070130 0.535152 0.417574
O O4 0.011256 0.608397 0.334628
O O5 0.108618 0.678567 0.800494
O O6 0.988861 0.596988 0.665451
O O7 0.599673 0.400439 0.858618
O O8 0.491697 0.349223 0.708012
#
# Coordination Sequence:
#
# PCOD9575014 Si02
#       4
#    18  18  18  18
#     4  10  21  34  52  78 103 132 169 204 249 302
#     4  10  18  34  53  76 107 132 156 204 254 302
#     4  10  21  36  52  72  99 134 174 212 248 290
#     4  10  21  34  52  78 103 132 169 204 249 302
#
# _framework density 16.760439000000002
#
# number of rings (size 3 to 8) (size 9 to 14) (size 15 to 20)
#    0.000    2.000    0.000    6.250    0.000    4.000 
#    0.000    6.250    0.000    0.000    0.000    8.750 
#    0.000    0.000    0.000    0.000    0.000    0.000 
#
# Total GULP energy -133829.537866 kJ/mol
# GULP energy per Si atom -5576.230744 kJ/mol
# Density = 1.672229 g / cm^3
# Si number density = 16.760439 Si / 1000 Ang^3
#
#
#
# Elastic Constant Matrix: (Units=GPa)
#
#
# Indices 1 2 3 4 5 6 
#
# 1 112.7615 72.9131 95.7972 14.6532 0.0206 0.0001
# 2 72.9131 112.7614 95.7970 -14.6533 -0.0205 0.0000
# 3 95.7972 95.7970 152.0868 -0.0005 0.0002 -0.0002
# 4 14.6532 -14.6533 -0.0005 7.8741 0.0000 -0.0207
# 5 0.0206 -0.0205 0.0002 0.0000 7.8743 14.6534
# 6 0.0001 0.0000 -0.0002 -0.0207 14.6534 19.9240
#
#
#
# Elastic Compliance Matrix: (Units=1/GPa)
#
#
# Indices 1 2 3 4 5 6 
#
# 1 -0.026345 0.041730 -0.009691 0.126685 0.000179 0.000000
# 2 0.041730 -0.026343 -0.009693 -0.126682 -0.000181 0.000002
# 3 -0.009691 -0.009693 0.018784 -0.000003 0.000002 -0.000001
# 4 0.126685 -0.126682 -0.000003 -0.344504 -0.000008 -0.000352
# 5 0.000179 -0.000181 0.000002 -0.000008 -0.344503 0.253369
# 6 0.000000 0.000002 -0.000001 -0.000352 0.253369 -0.136154
#
#
# Mechanical properties :
#
#
# Convention : Reuss Voigt Hill
#
# Bulk Modulus (GPa) = 92.67302 100.73605 96.70453
# Shear Modulus (GPa) = -5.55456 14.67463 4.56004
#
# Velocity S-wave (km/s) = -1.82244 2.96218 1.65125
# Velocity P-wave (km/s) = 7.14033 8.48135 7.83957
#
# Compressibility (1/GPa) = 0.01079063
#
# Stress axis : x y z
#
# Youngs Moduli (GPa) = -37.95768 -37.96083 53.23549
#
# Poissons Ratio (x) = 1.58412 0.51588
# Poissons Ratio (y) = 1.58399 0.51600
# Poissons Ratio (z) = -0.36783 -0.36795
#
# Static dielectric constant tensor:
#      x y z
#    x 1.551080 0.000000 0.000000 
#    y 0.000000 1.551080 0.000000 
#    z 0.000000 0.000000 1.563850 
# 
# From -- ./inp_files/805.got.cif
#   From: 2010.05.17/outbox.cif.g08.bks.cpg/sg148_1_cif.got.tgz:805.got - 2010.05.20 13:50:20.
