data_PCOD9575350
_publ_section_title
;
Structure prediction by ZEFSAII (Michael W. Deem and Ramdas Pophale) SiO2 
 PCOD9575350
Probable space group: P 3 1 2
;
_chemical_formula_sum "Si O2"
_cell_formula_units_Z 32
_cell_length_a 15.073340
_cell_length_b 15.073340
_cell_length_c 9.592675
_cell_angle_alpha 90.000000
_cell_angle_beta 90.000000
_cell_angle_gamma 120.000000
_cell_volume 1887.510400
_symmetry_space_group_name_H-M "P 3 1 2"
_symmetry_group_IT_number 149
_symmetry_cell_setting 'hexagonal'
loop_
_space_group_symop_operation_xyz
x,y,z
-y,x-y,z
-x+y,-x,z
-y,-x,-z
-x+y,y,-z
x,x-y,-z
loop_
_atom_site_type_symbol
_atom_site_label
_atom_site_fract_x
_atom_site_fract_y
_atom_site_fract_z
Si Si1 0.529459 0.861533 0.966759
Si Si2 0.124028 0.666385 0.472706
Si Si3 0.896443 0.783378 0.831798
Si Si4 0.000000 0.000000 0.328511
Si Si5 0.678991 0.941187 0.215771
Si Si6 0.677568 0.939570 0.725512
O O1 0.571910 0.890036 0.811996
O O2 0.447054 0.894107 0.000000
O O3 0.483611 0.741806 0.000000
O O4 0.629864 0.915364 0.063207
O O5 0.240403 0.759598 0.500000
O O6 0.116576 0.558288 0.500000
O O7 0.085532 0.670869 0.318663
O O8 0.055833 0.696679 0.571176
O O9 0.777613 0.725219 0.787664
O O10 0.957060 0.724646 0.790543
O O11 0.949085 0.886844 0.739263
O O12 0.902019 0.804038 0.000000
O O13 0.000000 0.000000 0.500000
O O14 0.712513 0.858173 0.259313
#
# Coordination Sequence:
#
# PCOD9575350 Si02
#       6
#     6   6   6   2   6   6
#     4  10  19  33  50  76 106 142 182 231 273 326
#     4  10  21  37  56  80 114 152 184 229 279 336
#     4  12  22  38  56  80 120 160 188 224 284 333
#     4  12  28  32  58  84 112 164 196 222 274 335
#     4  10  21  33  53  79 110 145 190 224 267 336
#     4  10  21  33  53  79 110 145 190 224 267 336
#
# _framework density 16.953548999999999
#
# number of rings (size 3 to 8) (size 9 to 14) (size 15 to 20)
#    0.000    1.500    3.750    2.062    2.625    0.000 
#    0.000    3.750    0.000    0.000    0.000    0.000 
#   37.500    0.000    0.000    0.000    0.000    0.000 
#
# Total GULP energy -178383.341457 kJ/mol
# GULP energy per Si atom -5574.479421 kJ/mol
# Density = 1.691496 g / cm^3
# Si number density = 16.953549 Si / 1000 Ang^3
#
#
#
# Elastic Constant Matrix: (Units=GPa)
#
#
# Indices 1 2 3 4 5 6 
#
# 1 67.7952 27.2240 2.5704 0.0001 -10.4632 0.0000
# 2 27.2240 67.7952 2.5704 -0.0001 10.4632 0.0000
# 3 2.5704 2.5704 55.8216 0.0000 0.0000 0.0000
# 4 0.0001 -0.0001 0.0000 15.5543 0.0000 10.4632
# 5 -10.4632 10.4632 0.0000 0.0000 15.5543 0.0001
# 6 0.0000 0.0000 0.0000 10.4632 0.0001 20.2856
#
#
#
# Elastic Compliance Matrix: (Units=1/GPa)
#
#
# Indices 1 2 3 4 5 6 
#
# 1 0.024147 -0.013597 -0.000486 0.000000 0.025390 0.000000
# 2 -0.013597 0.024147 -0.000486 0.000000 -0.025390 0.000000
# 3 -0.000486 -0.000486 0.017959 0.000000 0.000000 0.000000
# 4 0.000000 0.000000 0.000000 0.098450 0.000000 -0.050780
# 5 0.025390 -0.025390 0.000000 0.000000 0.098450 -0.000001
# 6 0.000000 0.000000 0.000000 -0.050780 -0.000001 0.075488
#
#
# Mechanical properties :
#
#
# Convention : Reuss Voigt Hill
#
# Bulk Modulus (GPa) = 26.94210 28.46017 27.70113
# Shear Modulus (GPa) = 13.15273 20.88200 17.01737
#
# Velocity S-wave (km/s) = 2.78836 3.51339 3.17166
# Velocity P-wave (km/s) = 5.12765 5.76907 5.45779
#
# Compressibility (1/GPa) = 0.03711664
#
# Stress axis : x y z
#
# Youngs Moduli (GPa) = 41.41269 41.41269 55.68257
#
# Poissons Ratio (x) = 0.56308 0.02705
# Poissons Ratio (y) = 0.56308 0.02705
# Poissons Ratio (z) = 0.02012 0.02012
#
# Static dielectric constant tensor:
#      x y z
#    x 1.562530 0.000000 0.000000 
#    y 0.000000 1.562530 0.000000 
#    z 0.000000 0.000000 1.586370 
# 
# From -- ./inp_files/594.got.cif
#   From: 2010.05.17/outbox.cif.g08.bks.cpg/sg149_cif.got.tgz:594.got - 2010.05.20 13:52:34.
