data_PCOD9575444
_publ_section_title
;
Structure prediction by ZEFSAII (Michael W. Deem and Ramdas Pophale) SiO2 
 PCOD9575444
Probable space group: P 3 2 1
;
_chemical_formula_sum "Si O2"
_cell_formula_units_Z 36
_cell_length_a 8.787101
_cell_length_b 8.787101
_cell_length_c 27.398453
_cell_angle_alpha 90.000000
_cell_angle_beta 90.000000
_cell_angle_gamma 120.000000
_cell_volume 1832.094665
_symmetry_space_group_name_H-M "P 3 2 1"
_symmetry_group_IT_number 150
_symmetry_cell_setting 'hexagonal'
loop_
_space_group_symop_operation_xyz
x,y,z
-y,x-y,z
-x+y,-x,z
x-y,-y,-z
-x,-x+y,-z
y,x,-z
loop_
_atom_site_type_symbol
_atom_site_label
_atom_site_fract_x
_atom_site_fract_y
_atom_site_fract_z
Si Si1 0.883854 0.373191 0.452258
Si Si2 0.999935 0.678910 0.788391
Si Si3 0.371431 0.883801 0.357159
Si Si4 0.347443 0.998847 0.749211
Si Si5 0.999505 0.347629 0.057524
Si Si6 0.000345 0.679179 0.096600
O O1 0.811129 0.511397 0.452496
O O2 0.000000 0.403811 0.500000
O O3 0.998468 0.401407 0.404336
O O4 0.847300 0.699924 0.763264
O O5 0.004001 0.713517 0.845881
O O6 0.185885 0.812577 0.764286
O O7 0.963487 0.483284 0.779195
O O8 0.187453 0.697995 0.357503
O O9 0.383068 0.984189 0.307561
O O10 0.038425 0.521573 0.086497
O O11 0.146890 0.298050 0.071032
O O12 0.812947 0.187280 0.073648
O O13 0.000000 0.379739 0.000000
#
# Coordination Sequence:
#
# PCOD9575444 Si02
#       6
#     6   6   6   6   6   6
#     4  10  22  37  67 100 133 181 229 281 335 399
#     4  12  24  43  65  93 133 170 227 269 348 407
#     4  10  21  42  66  94 133 176 225 279 341 400
#     4  12  25  43  65  98 131 182 220 290 335 414
#     4  12  25  44  67  95 128 166 217 272 342 409
#     4  12  25  43  66  94 126 171 213 275 333 415
#
# _framework density 19.649642
#
# number of rings (size 3 to 8) (size 9 to 14) (size 15 to 20)
#    0.667    0.000    1.667    7.500    2.333    0.000 
#    0.000    0.000    0.000    6.000    0.000    0.000 
#    0.000    0.000    0.000    0.000    0.000    0.000 
#
# Total GULP energy -201276.366361 kJ/mol
# GULP energy per Si atom -5591.010177 kJ/mol
# Density = 1.960492 g / cm^3
# Si number density = 19.649642 Si / 1000 Ang^3
#
#
#
# Elastic Constant Matrix: (Units=GPa)
#
#
# Indices 1 2 3 4 5 6 
#
# 1 55.9481 -13.3785 27.4422 -6.0513 0.0000 0.0000
# 2 -13.3785 55.9481 27.4422 6.0513 0.0000 0.0000
# 3 27.4422 27.4422 145.1950 0.0000 0.0000 0.0000
# 4 -6.0513 6.0513 0.0000 0.2323 0.0000 0.0000
# 5 0.0000 0.0000 0.0000 0.0000 0.2323 -6.0513
# 6 0.0000 0.0000 0.0000 0.0000 -6.0513 34.6633
#
#
#
# Elastic Compliance Matrix: (Units=1/GPa)
#
#
# Indices 1 2 3 4 5 6 
#
# 1 0.013497 0.017562 -0.005870 -0.105912 0.000000 0.000000
# 2 0.017562 0.013497 -0.005870 0.105912 0.000000 0.000000
# 3 -0.005870 -0.005870 0.009106 0.000000 0.000000 0.000000
# 4 -0.105912 0.105912 0.000000 -1.213377 0.000000 0.000000
# 5 0.000000 0.000000 0.000000 0.000000 -1.213377 -0.211825
# 6 0.000000 0.000000 0.000000 0.000000 -0.211825 -0.008130
#
#
# Mechanical properties :
#
#
# Convention : Reuss Voigt Hill
#
# Bulk Modulus (GPa) = 20.94505 37.78922 29.36714
# Shear Modulus (GPa) = -2.08811 21.39792 9.65490
#
# Velocity S-wave (km/s) = -1.03198 3.30354 2.21905
# Velocity P-wave (km/s) = 3.04342 5.81588 4.64149
#
# Compressibility (1/GPa) = 0.04774397
#
# Stress axis : x y z
#
# Youngs Moduli (GPa) = 74.08969 74.08969 109.81420
#
# Poissons Ratio (x) = -1.30119 0.64464
# Poissons Ratio (y) = -1.30119 0.64464
# Poissons Ratio (z) = 0.43493 0.43493
#
# Static dielectric constant tensor:
#      x y z
#    x 1.660490 0.000000 0.000000 
#    y 0.000000 1.660490 0.000000 
#    z 0.000000 0.000000 1.650470 
# 
# From -- ./inp_files/1169.got.cif
#   From: 2010.05.17/outbox.cif.g08.bks.cpg/sg150_cif.got.tgz:1169.got - 2010.05.20 13:53:18.
