data_PCOD9575282
_publ_section_title
;
Structure prediction by ZEFSAII (Michael W. Deem and Ramdas Pophale) SiO2 
 PCOD9575282
Probable space group: R -3
;
_chemical_formula_sum "Si O2"
_cell_formula_units_Z 144
_cell_length_a 28.006834
_cell_length_b 28.006834
_cell_length_c 9.251518
_cell_angle_alpha 90.000000
_cell_angle_beta 90.000000
_cell_angle_gamma 120.000000
_cell_volume 6284.513513
_symmetry_space_group_name_H-M "R -3"
_symmetry_group_IT_number 148
_symmetry_cell_setting 'hexagonal'
loop_
_space_group_symop_operation_xyz
x,y,z
-y,x-y,z
-x+y,-x,z
-x,-y,-z
y,-x+y,-z
x-y,x,-z
2/3+x,1/3+y,1/3+z
2/3-y,1/3+x-y,1/3+z
2/3-x+y,1/3-x,1/3+z
2/3-x,1/3-y,1/3-z
2/3+y,1/3-x+y,1/3-z
2/3+x-y,1/3+x,1/3-z
1/3+x,2/3+y,2/3+z
1/3-y,2/3+x-y,2/3+z
1/3-x+y,2/3-x,2/3+z
1/3-x,2/3-y,2/3-z
1/3+y,2/3-x+y,2/3-z
1/3+x-y,2/3+x,2/3-z
loop_
_atom_site_type_symbol
_atom_site_label
_atom_site_fract_x
_atom_site_fract_y
_atom_site_fract_z
Si Si1 0.755368 0.556215 0.069946
Si Si2 0.068350 0.703847 0.207527
Si Si3 0.827120 0.152867 0.432452
Si Si4 0.912901 0.314144 0.243389
Si Si5 0.595464 0.482381 0.326891
Si Si6 0.635763 0.226025 0.741370
Si Si7 0.768390 0.357956 0.236577
Si Si8 0.415344 0.004100 0.839988
O O1 0.714840 0.575710 0.137577
O O2 0.779027 0.534350 0.196259
O O3 0.808795 0.613051 0.019976
O O4 0.724558 0.506425 0.956025
O O5 0.118739 0.757996 0.146098
O O6 0.059172 0.646864 0.149772
O O7 0.075769 0.705712 0.377992
O O8 0.014680 0.709460 0.169511
O O9 0.791601 0.181448 0.390244
O O10 0.872730 0.192193 0.545055
O O11 0.903661 0.357601 0.336329
O O12 0.914276 0.269844 0.349595
O O13 0.618759 0.452662 0.223062
O O14 0.587673 0.236058 0.806455
O O15 0.662962 0.254512 0.584829
O O16 0.741004 0.313215 0.366778
#
# Coordination Sequence:
#
# PCOD9575282 Si02
#       8
#    18  18  18  18  18  18  18  18
#     4  12  25  48  72 111 148 203 253 316 396 453
#     4  11  25  44  70 103 147 194 245 313 389 451
#     4  11  27  45  75 107 154 196 249 326 391 465
#     4  11  24  43  71 103 144 192 256 320 366 461
#     4  11  23  45  74 107 145 190 261 321 375 454
#     4  12  28  51  76 116 165 208 261 330 403 469
#     4  12  24  48  81 114 149 209 268 324 387 474
#     4  12  24  44  71 105 142 198 254 311 387 459
#
# _framework density 22.913468000000002
#
# number of rings (size 3 to 8) (size 9 to 14) (size 15 to 20)
#    0.000    0.500    5.000    2.500    3.500    2.000 
#    2.250    0.000    0.000    0.000    0.000    0.000 
#    0.000    0.000    0.000    0.000    0.000    0.000 
#
# Total GULP energy -268080.380042 kJ/mol
# GULP energy per Si atom -5585.007918 kJ/mol
# Density = 2.286132 g / cm^3
# Si number density = 22.913468 Si / 1000 Ang^3
#
#
#
# Elastic Constant Matrix: (Units=GPa)
#
#
# Indices 1 2 3 4 5 6 
#
# 1 113.7490 51.9231 38.5355 3.6541 -4.4603 0.0108
# 2 51.9231 113.7344 38.5030 -3.6348 4.5197 0.0041
# 3 38.5355 38.5030 93.5319 0.0178 0.0846 0.0191
# 4 3.6541 -3.6348 0.0178 27.1807 0.0085 4.5031
# 5 -4.4603 4.5197 0.0846 0.0085 27.2232 3.6509
# 6 0.0108 0.0041 0.0191 4.5031 3.6509 30.8992
#
#
#
# Elastic Compliance Matrix: (Units=1/GPa)
#
#
# Indices 1 2 3 4 5 6 
#
# 1 0.012157 -0.004690 -0.003080 -0.002260 0.002781 -0.000001
# 2 -0.004690 0.012155 -0.003069 0.002259 -0.002778 0.000001
# 3 -0.003080 -0.003069 0.013224 -0.000005 -0.000036 -0.000002
# 4 -0.002260 0.002259 -0.000005 0.038322 -0.000009 -0.005583
# 5 0.002781 -0.002778 -0.000036 -0.000009 0.038256 -0.004520
# 6 -0.000001 0.000001 -0.000002 -0.005583 -0.004520 0.033711
#
#
# Mechanical properties :
#
#
# Convention : Reuss Voigt Hill
#
# Bulk Modulus (GPa) = 63.06243 64.32649 63.69446
# Shear Modulus (GPa) = 28.60554 29.86419 29.23486
#
# Velocity S-wave (km/s) = 3.53713 3.61411 3.57582
# Velocity P-wave (km/s) = 6.65308 6.74910 6.70126
#
# Compressibility (1/GPa) = 0.01585730
#
# Stress axis : x y z
#
# Youngs Moduli (GPa) = 82.25454 82.26887 75.61922
#
# Poissons Ratio (x) = 0.38586 0.23292
# Poissons Ratio (y) = 0.38579 0.23210
# Poissons Ratio (z) = 0.25336 0.25251
#
# Static dielectric constant tensor:
#      x y z
#    x 1.863130 -0.000010 -0.000030 
#    y -0.000010 1.863150 0.000000 
#    z -0.000030 0.000000 1.922630 
# 
# From -- ./inp_files/1116.got.cif
#   From: 2010.05.17/outbox.cif.g08.bks.cpg/sg148_1_cif.got.tgz:1116.got - 2010.05.20 13:50:20.
