data_PCOD9575106
_publ_section_title
;
Structure prediction by ZEFSAII (Michael W. Deem and Ramdas Pophale) SiO2 
 PCOD9575106
Probable space group: R -3
;
_chemical_formula_sum "Si O2"
_cell_formula_units_Z 108
_cell_length_a 16.209481
_cell_length_b 16.209481
_cell_length_c 22.997155
_cell_angle_alpha 90.000000
_cell_angle_beta 90.000000
_cell_angle_gamma 120.000000
_cell_volume 5232.906361
_symmetry_space_group_name_H-M "R -3"
_symmetry_group_IT_number 148
_symmetry_cell_setting 'hexagonal'
loop_
_space_group_symop_operation_xyz
x,y,z
-y,x-y,z
-x+y,-x,z
-x,-y,-z
y,-x+y,-z
x-y,x,-z
2/3+x,1/3+y,1/3+z
2/3-y,1/3+x-y,1/3+z
2/3-x+y,1/3-x,1/3+z
2/3-x,1/3-y,1/3-z
2/3+y,1/3-x+y,1/3-z
2/3+x-y,1/3+x,1/3-z
1/3+x,2/3+y,2/3+z
1/3-y,2/3+x-y,2/3+z
1/3-x+y,2/3-x,2/3+z
1/3-x,2/3-y,2/3-z
1/3+y,2/3-x+y,2/3-z
1/3+x-y,2/3+x,2/3-z
loop_
_atom_site_type_symbol
_atom_site_label
_atom_site_fract_x
_atom_site_fract_y
_atom_site_fract_z
Si Si1 0.531737 0.765872 0.839228
Si Si2 0.925117 0.559727 0.958741
Si Si3 0.219904 0.768767 0.514111
Si Si4 0.757963 0.656564 0.076379
Si Si5 0.197876 0.347431 0.053646
Si Si6 0.770921 0.689993 0.584537
O O1 0.445209 0.660297 0.833882
O O2 0.516123 0.852738 0.822560
O O3 0.569136 0.795788 0.904690
O O4 0.603622 0.757133 0.793817
O O5 0.836279 0.575338 0.950310
O O6 0.913245 0.462203 0.934053
O O7 0.016776 0.648518 0.926951
O O8 0.955501 0.566714 0.026196
O O9 0.189418 0.782658 0.577631
O O10 0.141851 0.767983 0.469862
O O11 0.794793 0.685272 0.011074
O O12 0.299917 0.388202 0.085775
#
# Coordination Sequence:
#
# PCOD9575106 Si02
#       6
#    18  18  18  18  18  18
#     4  11  24  40  66  94 135 167 227 277 336 401
#     4  10  20  46  67  93 130 173 229 276 328 405
#     4  12  25  41  66 100 131 176 218 280 334 403
#     4  10  22  42  66  95 125 182 221 277 337 405
#     4  11  25  40  68  96 135 173 223 276 342 402
#     4  10  24  41  68  97 129 176 226 276 334 399
#
# _framework density 20.638627
#
# number of rings (size 3 to 8) (size 9 to 14) (size 15 to 20)
#    0.000    1.333    3.333    1.333   11.667    0.000 
#    1.000    0.000    0.000    3.000    0.000    0.000 
#    0.000    0.000    0.000    0.000    0.000    0.000 
#
# Total GULP energy -200666.638344 kJ/mol
# GULP energy per Si atom -5574.073287 kJ/mol
# Density = 2.059165 g / cm^3
# Si number density = 20.638627 Si / 1000 Ang^3
#
#
#
# Elastic Constant Matrix: (Units=GPa)
#
#
# Indices 1 2 3 4 5 6 
#
# 1 67.0931 13.1184 19.5485 -3.9739 -2.6302 0.0000
# 2 13.1184 67.0931 19.5485 3.9739 2.6302 0.0000
# 3 19.5485 19.5485 82.0883 0.0000 0.0000 0.0000
# 4 -3.9739 3.9739 0.0000 25.4144 0.0000 2.6302
# 5 -2.6302 2.6302 0.0000 0.0000 25.4144 -3.9739
# 6 0.0000 0.0000 0.0000 2.6302 -3.9739 26.9874
#
#
#
# Elastic Compliance Matrix: (Units=1/GPa)
#
#
# Indices 1 2 3 4 5 6 
#
# 1 0.016633 -0.002529 -0.003359 0.002996 0.001983 0.000000
# 2 -0.002529 0.016633 -0.003359 -0.002996 -0.001983 0.000000
# 3 -0.003359 -0.003359 0.013782 0.000000 0.000000 0.000000
# 4 0.002996 -0.002996 0.000000 0.040695 0.000000 -0.003966
# 5 0.001983 -0.001983 0.000000 0.000000 0.040695 0.005992
# 6 0.000000 0.000000 0.000000 -0.003966 0.005992 0.038323
#
#
# Mechanical properties :
#
#
# Convention : Reuss Voigt Hill
#
# Bulk Modulus (GPa) = 35.02011 35.63390 35.32701
# Shear Modulus (GPa) = 25.67104 26.50054 26.08579
#
# Velocity S-wave (km/s) = 3.53063 3.58722 3.55904
# Velocity P-wave (km/s) = 5.79875 5.87032 5.83465
#
# Compressibility (1/GPa) = 0.02855502
#
# Stress axis : x y z
#
# Youngs Moduli (GPa) = 60.12176 60.12176 72.55994
#
# Poissons Ratio (x) = 0.15203 0.24371
# Poissons Ratio (y) = 0.15203 0.24371
# Poissons Ratio (z) = 0.20193 0.20193
#
# Static dielectric constant tensor:
#      x y z
#    x 1.785360 0.000000 0.000000 
#    y 0.000000 1.785360 0.000000 
#    z 0.000000 0.000000 1.730340 
# 
# From -- ./inp_files/3393.got.cif
#   From: 2010.05.17/outbox.cif.g08.bks.cpg/sg148_2_cif.got.tgz:3393.got - 2010.05.20 13:50:20.
