data_PCOD9575517
_publ_section_title
;
Structure prediction by ZEFSAII (Michael W. Deem and Ramdas Pophale) SiO2 
 PCOD9575517
Probable space group: P 31 1 2
;
_chemical_formula_sum "Si O2"
_cell_formula_units_Z 42
_cell_length_a 9.172987
_cell_length_b 9.172987
_cell_length_c 29.505416
_cell_angle_alpha 90.000000
_cell_angle_beta 90.000000
_cell_angle_gamma 120.000000
_cell_volume 2150.076587
_symmetry_space_group_name_H-M "P 31 1 2"
_symmetry_group_IT_number 151
_symmetry_cell_setting 'hexagonal'
loop_
_space_group_symop_operation_xyz
x,y,z
-y,x-y,1/3+z
-x+y,-x,2/3+z
-y,-x,2/3-z
-x+y,y,1/3-z
x,x-y,-z
loop_
_atom_site_type_symbol
_atom_site_label
_atom_site_fract_x
_atom_site_fract_y
_atom_site_fract_z
Si Si1 0.454365 0.570543 0.119153
Si Si2 0.221907 0.030809 0.135867
Si Si3 0.556419 0.443582 0.833334
Si Si4 0.240126 0.642333 0.618181
Si Si5 0.621866 0.947558 0.782235
Si Si6 0.600370 0.275859 0.426042
Si Si7 0.151656 0.303311 0.166667
Si Si8 0.713644 0.587594 0.708899
O O1 0.460512 0.706791 0.083558
O O2 0.517169 0.625081 0.170831
O O3 0.567173 0.490128 0.103615
O O4 0.258209 0.424605 0.125390
O O5 0.060052 0.851429 0.126716
O O6 0.360643 0.997564 0.158857
O O7 0.217149 0.170149 0.167373
O O8 0.301272 0.106665 0.086887
O O9 0.609543 0.365679 0.792550
O O10 0.330402 0.660803 0.666667
O O11 0.295455 0.815579 0.590901
O O12 0.041141 0.571768 0.626774
O O13 0.664937 0.130965 0.766270
O O14 0.705417 0.298100 0.381102
O O15 0.836209 0.672417 0.666667
#
# Coordination Sequence:
#
# PCOD9575517 Si02
#       8
#     6   6   3   6   6   6   3   6
#     4  12  22  39  62  93 129 164 206 265 318 382
#     4  10  24  35  62  93 126 161 208 255 324 374
#     4  10  18  36  54  88 120 164 198 242 304 382
#     4  11  25  41  64  92 126 168 217 267 318 380
#     4  11  23  40  62  96 128 164 209 269 316 377
#     4  11  21  39  63  91 125 167 207 260 321 377
#     4  12  20  38  60  96 124 162 202 264 314 374
#     4  10  22  42  65  88 122 174 216 260 313 395
#
# _framework density 19.534185999999998
#
# number of rings (size 3 to 8) (size 9 to 14) (size 15 to 20)
#    0.000    1.143    5.714    0.857    8.000    0.571 
#    0.000    0.000    0.000   10.286    0.000    0.000 
#    0.000    0.000    0.000    0.000    0.000    0.000 
#
# Total GULP energy -233860.565167 kJ/mol
# GULP energy per Si atom -5568.108694 kJ/mol
# Density = 1.948973 g / cm^3
# Si number density = 19.534186 Si / 1000 Ang^3
#
#
#
# Elastic Constant Matrix: (Units=GPa)
#
#
# Indices 1 2 3 4 5 6 
#
# 1 108.2022 48.9960 42.2815 0.0001 -4.7220 0.0000
# 2 48.9960 108.2022 42.2815 -0.0001 4.7220 0.0000
# 3 42.2815 42.2815 109.1236 0.0000 0.0000 0.0000
# 4 0.0001 -0.0001 0.0000 14.8823 0.0000 4.7220
# 5 -4.7220 4.7220 0.0000 0.0000 14.8823 0.0001
# 6 0.0000 0.0000 0.0000 4.7220 0.0001 29.6031
#
#
#
# Elastic Compliance Matrix: (Units=1/GPa)
#
#
# Indices 1 2 3 4 5 6 
#
# 1 0.012913 -0.004877 -0.003114 0.000000 0.005645 0.000000
# 2 -0.004877 0.012913 -0.003114 0.000000 -0.005645 0.000000
# 3 -0.003114 -0.003114 0.011577 0.000000 0.000000 0.000000
# 4 0.000000 0.000000 0.000000 0.070776 0.000000 -0.011289
# 5 0.005645 -0.005645 0.000000 0.000000 0.070776 0.000000
# 6 0.000000 0.000000 0.000000 -0.011289 0.000000 0.035581
#
#
# Mechanical properties :
#
#
# Convention : Reuss Voigt Hill
#
# Bulk Modulus (GPa) = 65.81339 65.84953 65.83146
# Shear Modulus (GPa) = 20.67728 24.67146 22.67437
#
# Velocity S-wave (km/s) = 3.25702 3.55771 3.41068
# Velocity P-wave (km/s) = 6.92161 7.11755 7.02026
#
# Compressibility (1/GPa) = 0.01519448
#
# Stress axis : x y z
#
# Youngs Moduli (GPa) = 77.43844 77.43844 86.37878
#
# Poissons Ratio (x) = 0.37767 0.26897
# Poissons Ratio (y) = 0.37767 0.26897
# Poissons Ratio (z) = 0.24113 0.24113
#
# Static dielectric constant tensor:
#      x y z
#    x 1.755500 0.000000 0.000000 
#    y 0.000000 1.755500 0.000000 
#    z 0.000000 0.000000 1.811240 
# 
# From -- ./inp_files/5073.got.cif
#   From: 2010.05.17/outbox.cif.g08.bks.cpg/sg151_3_cif.got.tgz:5073.got - 2010.05.20 10:33:20.
