data_PCOD9575532
_publ_section_title
;
Structure prediction by ZEFSAII (Michael W. Deem and Ramdas Pophale) SiO2 
 PCOD9575532
Probable space group: P 31 1 2
;
_chemical_formula_sum "Si O2"
_cell_formula_units_Z 24
_cell_length_a 16.530518
_cell_length_b 16.530518
_cell_length_c 5.031299
_cell_angle_alpha 90.000000
_cell_angle_beta 90.000000
_cell_angle_gamma 120.000000
_cell_volume 1190.648817
_symmetry_space_group_name_H-M "P 31 1 2"
_symmetry_group_IT_number 151
_symmetry_cell_setting 'hexagonal'
loop_
_space_group_symop_operation_xyz
x,y,z
-y,x-y,1/3+z
-x+y,-x,2/3+z
-y,-x,2/3-z
-x+y,y,1/3-z
x,x-y,-z
loop_
_atom_site_type_symbol
_atom_site_label
_atom_site_fract_x
_atom_site_fract_y
_atom_site_fract_z
Si Si1 0.461260 0.426898 0.574343
Si Si2 0.778860 0.667205 0.918385
Si Si3 0.026337 0.863360 0.589844
Si Si4 0.467629 0.821854 0.910188
O O1 0.533973 0.466028 0.333334
O O2 0.413483 0.318343 0.637158
O O3 0.380812 0.453296 0.508824
O O4 0.515960 0.484041 0.833334
O O5 0.819010 0.638020 0.666667
O O6 0.770593 0.754916 0.813673
O O7 0.850382 0.700764 0.166667
O O8 0.075167 0.924834 0.333334
O O9 0.935914 0.871827 0.666667
O O10 0.097840 0.902161 0.833334
O O11 0.393685 0.787369 0.666667
O O12 0.413808 0.827615 0.166667
O O13 0.502231 0.751116 0.000000
#
# Coordination Sequence:
#
# PCOD9575532 Si02
#       4
#     6   6   6   6
#     4  10  22  40  61  85 115 152 192 239 301 361
#     4  11  23  40  62  88 117 155 201 250 306 362
#     4  11  21  34  54  83 122 165 205 242 283 336
#     4  10  19  32  52  80 115 154 192 229 272 329
#
# _framework density 20.157077999999998
#
# number of rings (size 3 to 8) (size 9 to 14) (size 15 to 20)
#    0.000    1.500    0.000    7.500    0.000    1.000 
#    0.000    5.000    0.000    7.500    0.000    0.000 
#    0.000    0.000    0.000    0.000    0.000    0.000 
#
# Total GULP energy -134112.902223 kJ/mol
# GULP energy per Si atom -5588.037593 kJ/mol
# Density = 2.011120 g / cm^3
# Si number density = 20.157078 Si / 1000 Ang^3
#
#
#
# Elastic Constant Matrix: (Units=GPa)
#
#
# Indices 1 2 3 4 5 6 
#
# 1 64.3743 38.0171 36.2255 -0.0008 6.1260 0.0000
# 2 38.0171 64.3743 36.2255 0.0008 -6.1260 0.0000
# 3 36.2255 36.2255 154.0145 0.0000 0.0000 0.0000
# 4 -0.0008 0.0008 0.0000 33.2449 0.0000 -6.1260
# 5 6.1260 -6.1260 0.0000 0.0000 33.2449 -0.0008
# 6 0.0000 0.0000 0.0000 -6.1260 -0.0008 13.1786
#
#
#
# Elastic Compliance Matrix: (Units=1/GPa)
#
#
# Indices 1 2 3 4 5 6 
#
# 1 0.026606 -0.014889 -0.002756 0.000001 -0.007646 0.000000
# 2 -0.014889 0.026606 -0.002756 -0.000001 0.007646 0.000000
# 3 -0.002756 -0.002756 0.007789 0.000000 0.000000 0.000000
# 4 0.000001 -0.000001 0.000000 0.032898 0.000000 0.015292
# 5 -0.007646 0.007646 0.000000 0.000000 0.032898 0.000002
# 6 0.000000 0.000000 0.000000 0.015292 0.000002 0.082989
#
#
# Mechanical properties :
#
#
# Convention : Reuss Voigt Hill
#
# Bulk Modulus (GPa) = 49.50763 55.96660 52.73711
# Shear Modulus (GPa) = 19.43108 27.41999 23.42554
#
# Velocity S-wave (km/s) = 3.10818 3.69225 3.41273
# Velocity P-wave (km/s) = 6.12334 6.78251 6.46133
#
# Compressibility (1/GPa) = 0.02019891
#
# Stress axis : x y z
#
# Youngs Moduli (GPa) = 37.58613 37.58613 128.38171
#
# Poissons Ratio (x) = 0.55962 0.35379
# Poissons Ratio (y) = 0.55962 0.35379
# Poissons Ratio (z) = 0.10358 0.10358
#
# Static dielectric constant tensor:
#      x y z
#    x 1.729000 0.000000 0.000000 
#    y 0.000000 1.729000 0.000000 
#    z 0.000000 0.000000 1.743800 
# 
# From -- ./inp_files/163.got.cif
#   From: 2010.05.17/outbox.cif.g08.bks.cpg/sg151_1_cif.got.tgz:163.got - 2010.05.20 10:33:20.
