data_PCOD9575207
_publ_section_title
;
Structure prediction by ZEFSAII (Michael W. Deem and Ramdas Pophale) SiO2 
 PCOD9575207
Probable space group: R -3
;
_chemical_formula_sum "Si O2"
_cell_formula_units_Z 60
_cell_length_a 14.277098
_cell_length_b 14.277098
_cell_length_c 16.922296
_cell_angle_alpha 90.000000
_cell_angle_beta 90.000000
_cell_angle_gamma 120.000000
_cell_volume 2987.237828
_symmetry_space_group_name_H-M "R -3"
_symmetry_group_IT_number 148
_symmetry_cell_setting 'hexagonal'
loop_
_space_group_symop_operation_xyz
x,y,z
-y,x-y,z
-x+y,-x,z
-x,-y,-z
y,-x+y,-z
x-y,x,-z
2/3+x,1/3+y,1/3+z
2/3-y,1/3+x-y,1/3+z
2/3-x+y,1/3-x,1/3+z
2/3-x,1/3-y,1/3-z
2/3+y,1/3-x+y,1/3-z
2/3+x-y,1/3+x,1/3-z
1/3+x,2/3+y,2/3+z
1/3-y,2/3+x-y,2/3+z
1/3-x+y,2/3-x,2/3+z
1/3-x,2/3-y,2/3-z
1/3+y,2/3-x+y,2/3-z
1/3+x-y,2/3+x,2/3-z
loop_
_atom_site_type_symbol
_atom_site_label
_atom_site_fract_x
_atom_site_fract_y
_atom_site_fract_z
Si Si1 0.508009 0.988633 0.831779
Si Si2 0.666668 0.333334 0.929387
Si Si3 0.995167 0.200051 0.381686
Si Si4 0.981016 0.396677 0.549277
O O1 0.522393 0.091407 0.782036
O O2 0.572024 0.026593 0.914550
O O3 0.379484 0.925955 0.845571
O O4 0.574329 0.940698 0.787772
O O5 0.666668 0.333335 0.833334
O O6 0.628429 0.215613 0.964019
O O7 0.941277 0.219772 0.306173
O O8 0.000000 0.500000 0.500000
#
# Coordination Sequence:
#
# PCOD9575207 Si02
#       4
#    18   6  18  18
#     4  10  23  44  63  95 133 174 232 284 349 408
#     4  12  18  36  63 108 126 160 215 292 351 399
#     4  11  22  39  69  95 135 171 228 289 350 407
#     4  11  26  42  67  97 136 188 230 283 352 420
#
# _framework density 20.085445
#
# number of rings (size 3 to 8) (size 9 to 14) (size 15 to 20)
#    0.000    1.200    3.000    2.700   12.600    0.000 
#    1.800    0.000    0.000    1.800    0.000    0.000 
#    0.000    0.000    0.000    0.000    0.000    0.000 
#
# Total GULP energy -111567.813102 kJ/mol
# GULP energy per Si atom -5578.390655 kJ/mol
# Density = 2.003973 g / cm^3
# Si number density = 20.085445 Si / 1000 Ang^3
#
#
#
# Elastic Constant Matrix: (Units=GPa)
#
#
# Indices 1 2 3 4 5 6 
#
# 1 109.9078 32.4219 39.9450 3.5314 -6.8040 0.0002
# 2 32.4219 109.9073 39.9448 -3.5312 6.8043 0.0002
# 3 39.9450 39.9448 105.9341 -0.0001 0.0001 0.0000
# 4 3.5314 -3.5312 -0.0001 33.9297 0.0000 6.8041
# 5 -6.8040 6.8043 0.0001 0.0000 33.9301 3.5314
# 6 0.0002 0.0002 0.0000 6.8041 3.5314 38.7429
#
#
#
# Elastic Compliance Matrix: (Units=1/GPa)
#
#
# Indices 1 2 3 4 5 6 
#
# 1 0.011211 -0.002299 -0.003361 -0.001406 0.002709 0.000000
# 2 -0.002299 0.011211 -0.003361 0.001406 -0.002709 0.000000
# 3 -0.003361 -0.003361 0.011974 0.000000 0.000000 0.000000
# 4 -0.001406 0.001406 0.000000 0.030852 0.000000 -0.005418
# 5 0.002709 -0.002709 0.000000 0.000000 0.030852 -0.002812
# 6 0.000000 0.000000 0.000000 -0.005418 -0.002812 0.027019
#
#
# Mechanical properties :
#
#
# Convention : Reuss Voigt Hill
#
# Bulk Modulus (GPa) = 61.13811 61.15251 61.14531
# Shear Modulus (GPa) = 34.10403 35.54972 34.82687
#
# Velocity S-wave (km/s) = 4.12509 4.21161 4.16857
# Velocity P-wave (km/s) = 7.29339 7.35952 7.32653
#
# Compressibility (1/GPa) = 0.01635641
#
# Stress axis : x y z
#
# Youngs Moduli (GPa) = 89.19910 89.19873 83.51305
#
# Poissons Ratio (x) = 0.20504 0.28065
# Poissons Ratio (y) = 0.20504 0.28065
# Poissons Ratio (z) = 0.29976 0.29976
#
# Static dielectric constant tensor:
#      x y z
#    x 1.730300 0.000000 0.000000 
#    y 0.000000 1.730300 0.000000 
#    z 0.000000 0.000000 1.748880 
# 
# From -- ./inp_files/1827.got.cif
#   From: 2010.05.17/outbox.cif.g08.bks.cpg/sg148_1_cif.got.tgz:1827.got - 2010.05.20 13:50:20.
