data_PCOD9575307
_publ_section_title
;
Structure prediction by ZEFSAII (Michael W. Deem and Ramdas Pophale) SiO2 
 PCOD9575307
Probable space group: R -3
;
_chemical_formula_sum "Si O2"
_cell_formula_units_Z 72
_cell_length_a 11.727783
_cell_length_b 11.727783
_cell_length_c 27.102323
_cell_angle_alpha 90.000000
_cell_angle_beta 90.000000
_cell_angle_gamma 120.000000
_cell_volume 3228.263618
_symmetry_space_group_name_H-M "R -3"
_symmetry_group_IT_number 148
_symmetry_cell_setting 'hexagonal'
loop_
_space_group_symop_operation_xyz
x,y,z
-y,x-y,z
-x+y,-x,z
-x,-y,-z
y,-x+y,-z
x-y,x,-z
2/3+x,1/3+y,1/3+z
2/3-y,1/3+x-y,1/3+z
2/3-x+y,1/3-x,1/3+z
2/3-x,1/3-y,1/3-z
2/3+y,1/3-x+y,1/3-z
2/3+x-y,1/3+x,1/3-z
1/3+x,2/3+y,2/3+z
1/3-y,2/3+x-y,2/3+z
1/3-x+y,2/3-x,2/3+z
1/3-x,2/3-y,2/3-z
1/3+y,2/3-x+y,2/3-z
1/3+x-y,2/3+x,2/3-z
loop_
_atom_site_type_symbol
_atom_site_label
_atom_site_fract_x
_atom_site_fract_y
_atom_site_fract_z
Si Si1 0.410595 0.936037 0.952688
Si Si2 0.244162 0.960377 0.457702
Si Si3 0.333334 0.666668 0.229362
Si Si4 0.666667 0.333334 0.393893
Si Si5 0.260425 0.870413 0.566114
Si Si6 0.666668 0.333334 0.652339
O O1 0.313406 0.784675 0.966033
O O2 0.507467 0.947367 0.908809
O O3 0.347292 0.023679 0.937401
O O4 0.500000 0.000000 0.000000
O O5 0.285249 0.937621 0.511826
O O6 0.102414 0.954572 0.454815
O O7 0.338917 0.104365 0.435439
O O8 0.333334 0.666667 0.288588
O O9 0.666668 0.333335 0.333334
O O10 0.667302 0.207356 0.416957
#
# Coordination Sequence:
#
# PCOD9575307 Si02
#       6
#    18  18   6   6  18   6
#     4  12  27  45  78 114 155 201 260 324 383 457
#     4  12  23  47  80 111 150 193 261 327 391 448
#     4  12  21  46  77 121 148 190 258 331 397 442
#     4  12  36  55  77 106 166 218 259 300 400 497
#     4  12  28  51  78 113 154 208 257 325 390 472
#     4  12  27  46  71 118 159 202 257 319 393 466
#
# _framework density 22.303011999999999
#
# number of rings (size 3 to 8) (size 9 to 14) (size 15 to 20)
#    0.000    0.000    7.500    0.000    7.000    4.000 
#    0.000    0.000    0.000    0.000    0.000    0.000 
#    0.000    0.000    0.000    0.000    0.000    0.000 
#
# Total GULP energy -134275.607971 kJ/mol
# GULP energy per Si atom -5594.816999 kJ/mol
# Density = 2.225225 g / cm^3
# Si number density = 22.303012 Si / 1000 Ang^3
#
#
#
# Elastic Constant Matrix: (Units=GPa)
#
#
# Indices 1 2 3 4 5 6 
#
# 1 101.0968 30.4299 58.6033 -8.5018 -5.7618 0.0000
# 2 30.4299 101.0960 58.6032 8.5017 5.7617 0.0007
# 3 58.6033 58.6032 153.8926 -0.0002 0.0003 0.0002
# 4 -8.5018 8.5017 -0.0002 37.9287 0.0002 5.7620
# 5 -5.7618 5.7617 0.0003 0.0002 37.9292 -8.5019
# 6 0.0000 0.0007 0.0002 5.7620 -8.5019 35.3332
#
#
#
# Elastic Compliance Matrix: (Units=1/GPa)
#
#
# Indices 1 2 3 4 5 6 
#
# 1 0.013434 -0.001926 -0.004382 0.003443 0.002333 0.000000
# 2 -0.001926 0.013434 -0.004382 -0.003443 -0.002333 0.000000
# 3 -0.004382 -0.004382 0.009836 0.000000 0.000000 0.000000
# 4 0.003443 -0.003443 0.000000 0.028618 0.000000 -0.004667
# 5 0.002333 -0.002333 0.000000 0.000000 0.028617 0.006886
# 6 0.000000 0.000000 0.000000 -0.004667 0.006886 0.030720
#
#
# Mechanical properties :
#
#
# Convention : Reuss Voigt Hill
#
# Bulk Modulus (GPa) = 65.26277 72.37312 68.81794
# Shear Modulus (GPa) = 33.08020 36.13482 34.60751
#
# Velocity S-wave (km/s) = 3.85543 4.02951 3.94343
# Velocity P-wave (km/s) = 7.01032 7.36000 7.18729
#
# Compressibility (1/GPa) = 0.01532267
#
# Stress axis : x y z
#
# Youngs Moduli (GPa) = 74.43765 74.43700 101.66972
#
# Poissons Ratio (x) = 0.14335 0.44556
# Poissons Ratio (y) = 0.14335 0.44556
# Poissons Ratio (z) = 0.32622 0.32622
#
# Static dielectric constant tensor:
#      x y z
#    x 1.868680 0.000000 0.000000 
#    y 0.000000 1.868680 0.000000 
#    z 0.000000 0.000000 1.848580 
# 
# From -- ./inp_files/3942.got.cif
#   From: 2010.05.17/outbox.cif.g08.bks.cpg/sg148_2_cif.got.tgz:3942.got - 2010.05.20 13:50:20.
