data_PCOD9575222
_publ_section_title
;
Structure prediction by ZEFSAII (Michael W. Deem and Ramdas Pophale) SiO2 
 PCOD9575222
Probable space group: R -3
;
_chemical_formula_sum "Si O2"
_cell_formula_units_Z 102
_cell_length_a 19.059043
_cell_length_b 19.059043
_cell_length_c 14.301697
_cell_angle_alpha 90.000000
_cell_angle_beta 90.000000
_cell_angle_gamma 120.000000
_cell_volume 4499.045488
_symmetry_space_group_name_H-M "R -3"
_symmetry_group_IT_number 148
_symmetry_cell_setting 'hexagonal'
loop_
_space_group_symop_operation_xyz
x,y,z
-y,x-y,z
-x+y,-x,z
-x,-y,-z
y,-x+y,-z
x-y,x,-z
2/3+x,1/3+y,1/3+z
2/3-y,1/3+x-y,1/3+z
2/3-x+y,1/3-x,1/3+z
2/3-x,1/3-y,1/3-z
2/3+y,1/3-x+y,1/3-z
2/3+x-y,1/3+x,1/3-z
1/3+x,2/3+y,2/3+z
1/3-y,2/3+x-y,2/3+z
1/3-x+y,2/3-x,2/3+z
1/3-x,2/3-y,2/3-z
1/3+y,2/3-x+y,2/3-z
1/3+x-y,2/3+x,2/3-z
loop_
_atom_site_type_symbol
_atom_site_label
_atom_site_fract_x
_atom_site_fract_y
_atom_site_fract_z
Si Si1 0.421598 0.839672 0.281601
Si Si2 0.666668 0.333334 0.177997
Si Si3 0.966588 0.594542 0.978897
Si Si4 0.674305 0.729577 0.846142
Si Si5 0.142715 0.232562 0.421997
Si Si6 0.441256 0.859645 0.501213
Si Si7 0.333333 0.666667 0.285951
O O1 0.472550 0.902312 0.201116
O O2 0.330397 0.825011 0.277306
O O3 0.446313 0.855413 0.388775
O O4 0.405279 0.751478 0.253891
O O5 0.724471 0.431018 0.202693
O O6 0.666668 0.333334 0.065022
O O7 0.008725 0.644635 0.885455
O O8 0.900525 0.503642 0.949166
O O9 0.024012 0.576907 0.045429
O O10 0.948107 0.649454 0.047435
O O11 0.754125 0.818328 0.849757
O O12 0.592465 0.725236 0.802425
#
# Coordination Sequence:
#
# PCOD9575222 Si02
#       7
#    18   6  18  18  18  18   6
#     4  11  21  39  63 100 143 182 220 294 356 444
#     4   9  21  42  76  98 142 190 239 319 364 431
#     4  11  26  44  68 101 138 196 243 301 361 452
#     4  11  25  46  70 101 144 194 252 304 375 436
#     4  11  24  39  64 103 144 181 235 290 371 437
#     4  10  24  44  69 103 141 191 246 306 369 442
#     4   9  21  31  58  99 136 173 212 263 367 429
#
# _framework density 22.671474
#
# number of rings (size 3 to 8) (size 9 to 14) (size 15 to 20)
#    0.000    1.412    1.765    2.118   12.353    0.706 
#    0.000    3.529    0.000    1.059    0.000    0.000 
#    0.000    0.000    0.000    0.000    0.000    0.000 
#
# Total GULP energy -189612.118570 kJ/mol
# GULP energy per Si atom -5576.827017 kJ/mol
# Density = 2.261987 g / cm^3
# Si number density = 22.671474 Si / 1000 Ang^3
#
#
#
# Elastic Constant Matrix: (Units=GPa)
#
#
# Indices 1 2 3 4 5 6 
#
# 1 121.2687 46.1383 17.7489 0.6304 10.5602 0.0001
# 2 46.1383 121.2701 17.7490 -0.6302 -10.5602 0.0004
# 3 17.7489 17.7490 49.3648 0.0001 0.0000 0.0001
# 4 0.6304 -0.6302 0.0001 34.0324 0.0000 -10.5602
# 5 10.5602 -10.5602 0.0000 0.0000 34.0323 0.6304
# 6 0.0001 0.0004 0.0001 -10.5602 0.6304 37.5653
#
#
#
# Elastic Compliance Matrix: (Units=1/GPa)
#
#
# Indices 1 2 3 4 5 6 
#
# 1 0.010527 -0.004060 -0.002325 -0.000270 -0.004526 0.000000
# 2 -0.004060 0.010527 -0.002325 0.000270 0.004526 0.000000
# 3 -0.002325 -0.002325 0.021929 0.000000 0.000000 0.000000
# 4 -0.000270 0.000270 0.000000 0.032203 0.000000 0.009053
# 5 -0.004526 0.004526 0.000000 0.000000 0.032203 -0.000540
# 6 0.000000 0.000000 0.000000 0.009053 -0.000540 0.029174
#
#
# Mechanical properties :
#
#
# Convention : Reuss Voigt Hill
#
# Bulk Modulus (GPa) = 39.12033 50.57513 44.84773
# Shear Modulus (GPa) = 30.76849 35.14382 32.95616
#
# Velocity S-wave (km/s) = 3.68794 3.94145 3.81680
# Velocity P-wave (km/s) = 5.95209 6.56274 6.26486
#
# Compressibility (1/GPa) = 0.02556216
#
# Stress axis : x y z
#
# Youngs Moduli (GPa) = 94.99568 94.99687 45.60122
#
# Poissons Ratio (x) = 0.38571 0.10602
# Poissons Ratio (y) = 0.38571 0.10602
# Poissons Ratio (z) = 0.22087 0.22087
#
# Static dielectric constant tensor:
#      x y z
#    x 1.953680 0.000000 0.000000 
#    y 0.000000 1.953670 0.000000 
#    z 0.000000 0.000000 1.794990 
# 
# From -- ./inp_files/2092.got.cif
#   From: 2010.05.17/outbox.cif.g08.bks.cpg/sg148_2_cif.got.tgz:2092.got - 2010.05.20 13:50:20.
