data_PCOD9575665
_publ_section_title
;
Structure prediction by ZEFSAII (Michael W. Deem and Ramdas Pophale) SiO2 
 PCOD9575665
Probable space group: P 31 1 2
;
_chemical_formula_sum "Si O2"
_cell_formula_units_Z 30
_cell_length_a 9.152570
_cell_length_b 9.152570
_cell_length_c 20.917140
_cell_angle_alpha 90.000000
_cell_angle_beta 90.000000
_cell_angle_gamma 120.000000
_cell_volume 1517.466293
_symmetry_space_group_name_H-M "P 31 1 2"
_symmetry_group_IT_number 151
_symmetry_cell_setting 'hexagonal'
loop_
_space_group_symop_operation_xyz
x,y,z
-y,x-y,1/3+z
-x+y,-x,2/3+z
-y,-x,2/3-z
-x+y,y,1/3-z
x,x-y,-z
loop_
_atom_site_type_symbol
_atom_site_label
_atom_site_fract_x
_atom_site_fract_y
_atom_site_fract_z
Si Si1 0.971284 0.485642 0.500000
Si Si2 0.810441 0.620881 0.166667
Si Si3 0.261379 0.991221 0.883010
Si Si4 0.669451 0.488873 0.442505
Si Si5 0.601669 0.878267 0.652671
Si Si6 0.120143 0.265893 0.453418
O O1 0.845261 0.489808 0.446011
O O2 0.083731 0.413752 0.471924
O O3 0.794056 0.491838 0.110411
O O4 0.745053 0.755014 0.161585
O O5 0.156460 0.843541 0.833334
O O6 0.248476 0.893238 0.947597
O O7 0.436303 0.101764 0.846293
O O8 0.169893 0.103192 0.886615
O O9 0.659128 0.610946 0.389735
O O10 0.404935 0.809870 0.666667
O O11 0.697878 0.911222 0.719236
#
# Coordination Sequence:
#
# PCOD9575665 Si02
#       6
#     3   3   6   6   6   6
#     4   9  22  42  64  85 122 166 210 249 314 378
#     4  11  20  36  62  87 118 158 204 251 308 364
#     4   9  19  37  61  82 120 162 199 241 312 369
#     4   9  20  41  61  85 119 172 198 245 317 384
#     4  11  21  36  59  91 124 152 205 262 299 368
#     4  11  21  38  62  92 120 158 208 259 304 367
#
# _framework density 19.769794999999998
#
# number of rings (size 3 to 8) (size 9 to 14) (size 15 to 20)
#    0.000    2.000    3.000    0.600    0.000    1.600 
#    3.600    0.000    0.000    0.000    0.000    0.000 
#    0.000    0.000    0.000    0.000    0.000    0.000 
#
# Total GULP energy -167003.491549 kJ/mol
# GULP energy per Si atom -5566.783052 kJ/mol
# Density = 1.972480 g / cm^3
# Si number density = 19.769795 Si / 1000 Ang^3
#
#
#
# Elastic Constant Matrix: (Units=GPa)
#
#
# Indices 1 2 3 4 5 6 
#
# 1 94.6553 43.4274 30.6325 -0.0001 3.0064 0.0000
# 2 43.4274 94.6553 30.6325 0.0001 -3.0064 0.0000
# 3 30.6325 30.6325 58.6876 0.0000 0.0000 0.0000
# 4 -0.0001 0.0001 0.0000 29.6988 0.0000 -3.0064
# 5 3.0064 -3.0064 0.0000 0.0000 29.6988 -0.0001
# 6 0.0000 0.0000 0.0000 -3.0064 -0.0001 25.6140
#
#
#
# Elastic Compliance Matrix: (Units=1/GPa)
#
#
# Indices 1 2 3 4 5 6 
#
# 1 0.014590 -0.005165 -0.004919 0.000000 -0.002000 0.000000
# 2 -0.005165 0.014590 -0.004919 0.000000 0.002000 0.000000
# 3 -0.004919 -0.004919 0.022175 0.000000 0.000000 0.000000
# 4 0.000000 0.000000 0.000000 0.034076 0.000000 0.004000
# 5 -0.002000 0.002000 0.000000 0.000000 0.034076 0.000000
# 6 0.000000 0.000000 0.000000 0.004000 0.000000 0.039511
#
#
# Mechanical properties :
#
#
# Convention : Reuss Voigt Hill
#
# Bulk Modulus (GPa) = 46.84525 50.82034 48.83280
# Shear Modulus (GPa) = 25.49181 26.55602 26.02392
#
# Velocity S-wave (km/s) = 3.59476 3.66903 3.63209
# Velocity P-wave (km/s) = 6.40129 6.61142 6.50721
#
# Compressibility (1/GPa) = 0.02134688
#
# Stress axis : x y z
#
# Youngs Moduli (GPa) = 68.54014 68.54014 45.09642
#
# Poissons Ratio (x) = 0.35403 0.22184
# Poissons Ratio (y) = 0.35403 0.22184
# Poissons Ratio (z) = 0.33717 0.33717
#
# Static dielectric constant tensor:
#      x y z
#    x 1.737620 0.000000 0.000000 
#    y 0.000000 1.737620 0.000000 
#    z 0.000000 0.000000 1.724640 
# 
# From -- ./inp_files/4243.got.cif
#   From: 2010.05.17/outbox.cif.g08.bks.cpg/sg151_3_cif.got.tgz:4243.got - 2010.05.20 10:33:20.
