data_PCOD9575143
_publ_section_title
;
Structure prediction by ZEFSAII (Michael W. Deem and Ramdas Pophale) SiO2 
 PCOD9575143
Probable space group: R -3
;
_chemical_formula_sum "Si O2"
_cell_formula_units_Z 126
_cell_length_a 19.452150
_cell_length_b 19.452150
_cell_length_c 18.751706
_cell_angle_alpha 90.000000
_cell_angle_beta 90.000000
_cell_angle_gamma 120.000000
_cell_volume 6144.784218
_symmetry_space_group_name_H-M "R -3"
_symmetry_group_IT_number 148
_symmetry_cell_setting 'hexagonal'
loop_
_space_group_symop_operation_xyz
x,y,z
-y,x-y,z
-x+y,-x,z
-x,-y,-z
y,-x+y,-z
x-y,x,-z
2/3+x,1/3+y,1/3+z
2/3-y,1/3+x-y,1/3+z
2/3-x+y,1/3-x,1/3+z
2/3-x,1/3-y,1/3-z
2/3+y,1/3-x+y,1/3-z
2/3+x-y,1/3+x,1/3-z
1/3+x,2/3+y,2/3+z
1/3-y,2/3+x-y,2/3+z
1/3-x+y,2/3-x,2/3+z
1/3-x,2/3-y,2/3-z
1/3+y,2/3-x+y,2/3-z
1/3+x-y,2/3+x,2/3-z
loop_
_atom_site_type_symbol
_atom_site_label
_atom_site_fract_x
_atom_site_fract_y
_atom_site_fract_z
Si Si1 0.343496 0.805578 0.867725
Si Si2 0.493118 0.809004 0.914535
Si Si3 0.590066 0.034043 0.476031
Si Si4 0.038361 0.305852 0.016615
Si Si5 0.358639 0.534334 0.628832
Si Si6 0.911522 0.261426 0.501704
Si Si7 0.120124 0.380331 0.313857
O O1 0.403060 0.776519 0.891038
O O2 0.268578 0.771292 0.920876
O O3 0.309229 0.780443 0.787877
O O4 0.396461 0.901031 0.863299
O O5 0.549320 0.858194 0.848569
O O6 0.512168 0.868534 0.980283
O O7 0.591176 0.033034 0.390961
O O8 0.500000 0.000000 0.500000
O O9 0.628758 0.981546 0.498916
O O10 0.095512 0.331472 0.085658
O O11 0.972041 0.213605 0.031351
O O12 0.003058 0.364061 0.004876
O O13 0.274356 0.515245 0.661656
O O14 0.930206 0.214362 0.560956
O O15 0.166667 0.333334 0.333334
#
# Coordination Sequence:
#
# PCOD9575143 Si02
#       7
#    18  18  18  18  18  18  18
#     4  11  22  36  59  93 128 173 224 264 330 408
#     4  12  23  40  63  92 134 179 217 277 335 398
#     4  11  21  38  63  92 131 174 213 261 328 397
#     4  10  23  38  62  94 129 168 223 268 330 401
#     4  11  22  37  59  95 141 182 215 257 321 416
#     4  10  21  40  61  93 124 166 222 269 326 402
#     4  11  23  43  65  86 126 174 220 287 334 378
#
# _framework density 20.505195000000001
#
# number of rings (size 3 to 8) (size 9 to 14) (size 15 to 20)
#    0.000    1.143    4.286    3.000    2.000    0.000 
#    0.000    1.429    0.000    0.000    0.000    0.000 
#    0.000    2.286    0.000    0.000    0.000    0.000 
#
# Total GULP energy -234566.311897 kJ/mol
# GULP energy per Si atom -5584.912188 kJ/mol
# Density = 2.045852 g / cm^3
# Si number density = 20.505195 Si / 1000 Ang^3
#
#
#
# Elastic Constant Matrix: (Units=GPa)
#
#
# Indices 1 2 3 4 5 6 
#
# 1 74.4226 14.7339 26.7282 -7.7965 0.2608 0.0000
# 2 14.7339 74.4226 26.7282 7.7965 -0.2608 0.0000
# 3 26.7282 26.7282 143.6835 0.0000 0.0000 0.0000
# 4 -7.7965 7.7965 0.0000 28.9302 0.0000 -0.2608
# 5 0.2608 -0.2608 0.0000 0.0000 28.9302 -7.7965
# 6 0.0000 0.0000 0.0000 -0.2608 -7.7965 29.8444
#
#
#
# Elastic Compliance Matrix: (Units=1/GPa)
#
#
# Indices 1 2 3 4 5 6 
#
# 1 0.015324 -0.002700 -0.002348 0.004857 -0.000162 0.000000
# 2 -0.002700 0.015324 -0.002348 -0.004857 0.000162 0.000000
# 3 -0.002348 -0.002348 0.007833 0.000000 0.000000 0.000000
# 4 0.004857 -0.004857 0.000000 0.037187 0.000000 0.000325
# 5 -0.000162 0.000162 0.000000 0.000000 0.037187 0.009715
# 6 0.000000 0.000000 0.000000 0.000325 0.009715 0.036048
#
#
# Mechanical properties :
#
#
# Convention : Reuss Voigt Hill
#
# Bulk Modulus (GPa) = 42.21469 47.65661 44.93565
# Shear Modulus (GPa) = 29.13874 32.49683 30.81779
#
# Velocity S-wave (km/s) = 3.77376 3.98529 3.88096
# Velocity P-wave (km/s) = 6.29447 6.66846 6.48416
#
# Compressibility (1/GPa) = 0.02368844
#
# Stress axis : x y z
#
# Youngs Moduli (GPa) = 65.25668 65.25668 127.65782
#
# Poissons Ratio (x) = 0.17618 0.29979
# Poissons Ratio (y) = 0.17618 0.29979
# Poissons Ratio (z) = 0.15325 0.15325
#
# Static dielectric constant tensor:
#      x y z
#    x 1.790550 0.000000 0.000000 
#    y 0.000000 1.790550 0.000000 
#    z 0.000000 0.000000 1.784580 
# 
# From -- ./inp_files/2729.got.cif
#   From: 2010.05.17/outbox.cif.g08.bks.cpg/sg148_2_cif.got.tgz:2729.got - 2010.05.20 13:50:20.
