data_PCOD9575084
_publ_section_title
;
Structure prediction by ZEFSAII (Michael W. Deem and Ramdas Pophale) SiO2 
 PCOD9575084
Probable space group: R -3
;
_chemical_formula_sum "Si O2"
_cell_formula_units_Z 108
_cell_length_a 23.908707
_cell_length_b 23.908707
_cell_length_c 10.322620
_cell_angle_alpha 90.000000
_cell_angle_beta 90.000000
_cell_angle_gamma 120.000000
_cell_volume 5110.139448
_symmetry_space_group_name_H-M "R -3"
_symmetry_group_IT_number 148
_symmetry_cell_setting 'hexagonal'
loop_
_space_group_symop_operation_xyz
x,y,z
-y,x-y,z
-x+y,-x,z
-x,-y,-z
y,-x+y,-z
x-y,x,-z
2/3+x,1/3+y,1/3+z
2/3-y,1/3+x-y,1/3+z
2/3-x+y,1/3-x,1/3+z
2/3-x,1/3-y,1/3-z
2/3+y,1/3-x+y,1/3-z
2/3+x-y,1/3+x,1/3-z
1/3+x,2/3+y,2/3+z
1/3-y,2/3+x-y,2/3+z
1/3-x+y,2/3-x,2/3+z
1/3-x,2/3-y,2/3-z
1/3+y,2/3-x+y,2/3-z
1/3+x-y,2/3+x,2/3-z
loop_
_atom_site_type_symbol
_atom_site_label
_atom_site_fract_x
_atom_site_fract_y
_atom_site_fract_z
Si Si1 0.914712 0.475761 0.203668
Si Si2 0.186605 0.607886 0.312430
Si Si3 0.941228 0.085886 0.666380
Si Si4 0.552299 0.905126 0.681806
Si Si5 0.093364 0.731001 0.887448
Si Si6 0.290932 0.120395 0.348271
O O1 0.906946 0.420440 0.305854
O O2 0.880951 0.512776 0.267937
O O3 0.992126 0.526877 0.198780
O O4 0.877782 0.438332 0.074625
O O5 0.243626 0.676410 0.362332
O O6 0.203822 0.554509 0.364939
O O7 0.184678 0.603348 0.155925
O O8 0.116555 0.601115 0.334887
O O9 0.577644 0.907692 0.826729
O O10 0.607531 0.970925 0.615897
O O11 0.110029 0.779764 0.766339
O O12 0.149819 0.767663 0.990488
#
# Coordination Sequence:
#
# PCOD9575084 Si02
#       6
#    18  18  18  18  18  18
#     4  10  21  36  57  84 109 141 186 229 275 328
#     4  10  20  37  57  81 115 148 181 222 272 328
#     4  10  21  35  57  85 112 149 186 220 270 334
#     4  10  20  36  56  80 110 144 184 228 278 330
#     4   9  18  34  54  76 104 146 186 221 274 326
#     4   9  18  34  55  75 106 146 183 227 273 316
#
# _framework density 21.134452
#
# number of rings (size 3 to 8) (size 9 to 14) (size 15 to 20)
#    0.000    2.333    0.000    3.333    0.000    3.333 
#    0.000   20.000    0.000    1.333    0.000    0.000 
#    0.000    0.000    0.000    0.000    0.000    0.333 
#
# Total GULP energy -200410.053489 kJ/mol
# GULP energy per Si atom -5566.945930 kJ/mol
# Density = 2.108635 g / cm^3
# Si number density = 21.134452 Si / 1000 Ang^3
#
#
#
# Elastic Constant Matrix: (Units=GPa)
#
#
# Indices 1 2 3 4 5 6 
#
# 1 70.9267 15.6434 7.3598 1.5031 0.0963 -0.0001
# 2 15.6434 70.9277 7.3603 -1.5032 -0.0976 -0.0002
# 3 7.3598 7.3603 30.1723 0.0004 0.0024 0.0007
# 4 1.5031 -1.5032 0.0004 23.2061 0.0002 -0.0968
# 5 0.0963 -0.0976 0.0024 0.0002 23.2074 1.5036
# 6 -0.0001 -0.0002 0.0007 -0.0968 1.5036 27.6423
#
#
#
# Elastic Compliance Matrix: (Units=1/GPa)
#
#
# Indices 1 2 3 4 5 6 
#
# 1 0.015102 -0.003051 -0.002940 -0.001176 -0.000075 0.000000
# 2 -0.003051 0.015102 -0.002940 0.001176 0.000076 0.000000
# 3 -0.002940 -0.002940 0.034577 -0.000001 -0.000004 -0.000001
# 4 -0.001176 0.001176 -0.000001 0.043245 0.000000 0.000151
# 5 -0.000075 0.000076 -0.000004 0.000000 0.043243 -0.002352
# 6 0.000000 0.000000 -0.000001 0.000151 -0.002352 0.036305
#
#
# Mechanical properties :
#
#
# Convention : Reuss Voigt Hill
#
# Bulk Modulus (GPa) = 21.31255 25.86150 23.58702
# Shear Modulus (GPa) = 22.61685 24.25539 23.43612
#
# Velocity S-wave (km/s) = 3.27485 3.39140 3.33364
# Velocity P-wave (km/s) = 4.94021 5.25345 5.09924
#
# Compressibility (1/GPa) = 0.04692072
#
# Stress axis : x y z
#
# Youngs Moduli (GPa) = 66.21655 66.21722 28.92085
#
# Poissons Ratio (x) = 0.20201 0.08501
# Poissons Ratio (y) = 0.20201 0.08502
# Poissons Ratio (z) = 0.19464 0.19467
#
# Static dielectric constant tensor:
#      x y z
#    x 1.815360 0.000000 0.000000 
#    y 0.000000 1.815360 0.000000 
#    z 0.000000 0.000000 1.795190 
# 
# From -- ./inp_files/1547.got.cif
#   From: 2010.05.17/outbox.cif.g08.bks.cpg/sg148_1_cif.got.tgz:1547.got - 2010.05.20 13:50:20.
