data_PCOD9575458
_publ_section_title
;
Structure prediction by ZEFSAII (Michael W. Deem and Ramdas Pophale) SiO2 
 PCOD9575458
Probable space group: P 3 2 1
;
_chemical_formula_sum "Si O2"
_cell_formula_units_Z 48
_cell_length_a 14.575143
_cell_length_b 14.575143
_cell_length_c 12.062357
_cell_angle_alpha 90.000000
_cell_angle_beta 90.000000
_cell_angle_gamma 120.000000
_cell_volume 2219.159196
_symmetry_space_group_name_H-M "P 3 2 1"
_symmetry_group_IT_number 150
_symmetry_cell_setting 'hexagonal'
loop_
_space_group_symop_operation_xyz
x,y,z
-y,x-y,z
-x+y,-x,z
x-y,-y,-z
-x,-x+y,-z
y,x,-z
loop_
_atom_site_type_symbol
_atom_site_label
_atom_site_fract_x
_atom_site_fract_y
_atom_site_fract_z
Si Si1 0.880949 0.426619 0.970190
Si Si2 0.011030 0.124666 0.722006
Si Si3 0.737772 0.889074 0.548954
Si Si4 0.797672 0.571363 0.055360
Si Si5 0.146760 0.867175 0.142494
Si Si6 0.423577 0.176023 0.645126
Si Si7 0.655118 0.953578 0.757733
Si Si8 0.882172 0.463828 0.717886
O O1 0.852379 0.410287 0.840076
O O2 0.867355 0.524555 0.004471
O O3 0.805571 0.323449 0.040919
O O4 0.000000 0.457178 0.000000
O O5 0.043671 0.207407 0.622456
O O6 0.981361 0.156214 0.837862
O O7 0.101380 0.092758 0.714040
O O8 0.652599 0.814264 0.458245
O O9 0.683248 0.930022 0.637102
O O10 0.830608 0.000000 0.500000
O O11 0.843299 0.604629 0.177155
O O12 0.814587 0.666386 0.975203
O O13 0.217614 0.865737 0.244503
O O14 0.035541 0.758840 0.170105
O O15 0.500313 0.301621 0.670488
O O16 0.493716 0.119197 0.638960
O O17 0.584677 0.009752 0.741185
#
# Coordination Sequence:
#
# PCOD9575458 Si02
#       8
#     6   6   6   6   6   6   6   6
#     4  12  22  40  68 104 134 180 238 289 360 433
#     4  10  22  41  67  97 135 174 234 286 333 426
#     4  12  23  44  69 101 141 192 242 287 352 431
#     4  12  24  41  73 102 138 183 232 300 355 441
#     4  11  20  40  66 101 133 171 231 284 355 414
#     4  11  23  39  70 104 130 180 241 294 347 418
#     4  11  22  44  69  95 142 187 224 282 364 431
#     4  11  20  41  69 100 142 175 236 298 353 429
#
# _framework density 21.629812000000001
#
# number of rings (size 3 to 8) (size 9 to 14) (size 15 to 20)
#    0.250    0.500    8.750    0.875    0.000    3.000 
#    0.000    3.750    0.000    1.500    0.000    0.000 
#    0.000    0.000    0.000    0.000    0.000    0.000 
#
# Total GULP energy -267698.714908 kJ/mol
# GULP energy per Si atom -5577.056561 kJ/mol
# Density = 2.158058 g / cm^3
# Si number density = 21.629812 Si / 1000 Ang^3
#
#
#
# Elastic Constant Matrix: (Units=GPa)
#
#
# Indices 1 2 3 4 5 6 
#
# 1 61.8443 42.6002 24.2823 3.9529 0.0000 0.0000
# 2 42.6002 61.8443 24.2823 -3.9529 0.0000 0.0000
# 3 24.2823 24.2823 49.2840 0.0000 0.0000 0.0000
# 4 3.9529 -3.9529 0.0000 31.2804 0.0000 0.0000
# 5 0.0000 0.0000 0.0000 0.0000 31.2804 3.9529
# 6 0.0000 0.0000 0.0000 0.0000 3.9529 9.6221
#
#
#
# Elastic Compliance Matrix: (Units=1/GPa)
#
#
# Indices 1 2 3 4 5 6 
#
# 1 0.033615 -0.021195 -0.006119 -0.006926 0.000000 0.000000
# 2 -0.021195 0.033615 -0.006119 0.006926 0.000000 0.000000
# 3 -0.006119 -0.006119 0.026320 0.000000 0.000000 0.000000
# 4 -0.006926 0.006926 0.000000 0.033720 0.000000 0.000000
# 5 0.000000 0.000000 0.000000 0.000000 0.033720 -0.013853
# 6 0.000000 0.000000 0.000000 0.000000 -0.013853 0.109619
#
#
# Mechanical properties :
#
#
# Convention : Reuss Voigt Hill
#
# Bulk Modulus (GPa) = 37.47693 39.47801 38.47747
# Shear Modulus (GPa) = 14.43549 19.89042 17.16295
#
# Velocity S-wave (km/s) = 2.58619 3.03575 2.81994
# Velocity P-wave (km/s) = 5.12659 5.52983 5.33203
#
# Compressibility (1/GPa) = 0.02668308
#
# Stress axis : x y z
#
# Youngs Moduli (GPa) = 29.74898 29.74898 37.99328
#
# Poissons Ratio (x) = 0.63052 0.23249
# Poissons Ratio (y) = 0.63052 0.23249
# Poissons Ratio (z) = 0.18204 0.18204
#
# Static dielectric constant tensor:
#      x y z
#    x 1.856920 0.000000 0.000000 
#    y 0.000000 1.856920 0.000000 
#    z 0.000000 0.000000 1.819240 
# 
# From -- ./inp_files/967.got.cif
#   From: 2010.05.17/outbox.cif.g08.bks.cpg/sg150_cif.got.tgz:967.got - 2010.05.20 13:53:18.
