data_PCOD9575640
_publ_section_title
;
Structure prediction by ZEFSAII (Michael W. Deem and Ramdas Pophale) SiO2 
 PCOD9575640
Probable space group: P 31 1 2
;
_chemical_formula_sum "Si O2"
_cell_formula_units_Z 45
_cell_length_a 11.731925
_cell_length_b 11.731925
_cell_length_c 17.493056
_cell_angle_alpha 90.000000
_cell_angle_beta 90.000000
_cell_angle_gamma 120.000000
_cell_volume 2085.138341
_symmetry_space_group_name_H-M "P 31 1 2"
_symmetry_group_IT_number 151
_symmetry_cell_setting 'hexagonal'
loop_
_space_group_symop_operation_xyz
x,y,z
-y,x-y,1/3+z
-x+y,-x,2/3+z
-y,-x,2/3-z
-x+y,y,1/3-z
x,x-y,-z
loop_
_atom_site_type_symbol
_atom_site_label
_atom_site_fract_x
_atom_site_fract_y
_atom_site_fract_z
Si Si1 0.079008 0.422573 0.658775
Si Si2 0.365785 0.320270 0.506800
Si Si3 0.182977 0.157822 0.715256
Si Si4 0.703635 0.767456 0.308935
Si Si5 0.049238 0.098475 0.166667
Si Si6 0.484945 0.093351 0.737819
Si Si7 0.786570 0.136654 0.456714
Si Si8 0.002458 0.640366 0.645417
O O1 0.233368 0.466735 0.666667
O O2 0.060402 0.544049 0.634766
O O3 0.007904 0.363370 0.741250
O O4 0.996244 0.300752 0.599970
O O5 0.373939 0.186970 0.500000
O O6 0.251507 0.302613 0.448866
O O7 0.491758 0.435486 0.463658
O O8 0.103692 0.207384 0.666667
O O9 0.210477 0.055220 0.670088
O O10 0.075104 0.064354 0.775479
O O11 0.610486 0.636682 0.358928
O O12 0.673454 0.882820 0.324976
O O13 0.197957 0.180324 0.134467
O O14 0.584948 0.169896 0.666667
O O15 0.421135 0.153728 0.795274
O O16 0.910115 0.265880 0.421768
O O17 0.679215 0.085153 0.389406
#
# Coordination Sequence:
#
# PCOD9575640 Si02
#       8
#     6   6   6   6   3   6   6   6
#     4  11  26  47  67 100 148 193 243 304 383 452
#     4  11  23  45  70  96 137 187 244 301 362 440
#     4  11  23  39  65  99 136 179 232 304 370 443
#     4  11  22  43  70 108 139 182 251 301 369 462
#     4  12  22  40  70 108 140 182 238 312 378 436
#     4  10  22  42  69 105 141 189 247 303 370 450
#     4  11  21  41  72 105 145 191 242 314 374 444
#     4  11  24  43  69 107 148 190 248 306 387 456
#
# _framework density 21.581302999999998
#
# number of rings (size 3 to 8) (size 9 to 14) (size 15 to 20)
#    0.000    1.067    5.333    0.800    0.000    5.867 
#    3.600    4.000    0.000    0.000    0.000    0.000 
#    0.000    0.000    0.000    0.000    0.000    0.000 
#
# Total GULP energy -250697.680553 kJ/mol
# GULP energy per Si atom -5571.059568 kJ/mol
# Density = 2.153218 g / cm^3
# Si number density = 21.581303 Si / 1000 Ang^3
#
#
#
# Elastic Constant Matrix: (Units=GPa)
#
#
# Indices 1 2 3 4 5 6 
#
# 1 53.4379 127.4693 26.5773 -0.0072 -73.9992 0.0000
# 2 127.4693 53.4379 26.5773 0.0072 73.9992 0.0000
# 3 26.5773 26.5773 101.8485 0.0000 0.0000 0.0000
# 4 -0.0072 0.0072 0.0000 -65.2262 0.0000 73.9992
# 5 -73.9992 73.9992 0.0000 0.0000 -65.2262 -0.0072
# 6 0.0000 0.0000 0.0000 73.9992 -0.0072 -37.0157
#
#
#
# Elastic Compliance Matrix: (Units=1/GPa)
#
#
# Indices 1 2 3 4 5 6 
#
# 1 0.008320 -0.002333 -0.001562 -0.000001 -0.012086 0.000000
# 2 -0.002333 0.008320 -0.001562 0.000001 0.012086 0.000000
# 3 -0.001562 -0.001562 0.010634 0.000000 0.000000 0.000000
# 4 -0.000001 0.000001 0.000000 0.012091 0.000000 0.024171
# 5 -0.012086 0.012086 0.000000 0.000000 0.012091 -0.000002
# 6 0.000000 0.000000 0.000000 0.024171 -0.000002 0.021305
#
#
# Mechanical properties :
#
#
# Convention : Reuss Voigt Hill
#
# Bulk Modulus (GPa) = 61.13090 63.33024 62.23057
# Shear Modulus (GPa) = 56.09905 -31.62028 12.23938
#
# Velocity S-wave (km/s) = 5.10399 -3.83191 2.38403
# Velocity P-wave (km/s) = 7.94491 3.13539 6.03955
#
# Compressibility (1/GPa) = 0.01635834
#
# Stress axis : x y z
#
# Youngs Moduli (GPa) = 120.19629 120.19629 94.03951
#
# Poissons Ratio (x) = 0.28042 0.14691
# Poissons Ratio (y) = 0.28042 0.14691
# Poissons Ratio (z) = 0.18777 0.18777
#
# Static dielectric constant tensor:
#      x y z
#    x 2.032380 0.000000 0.000000 
#    y 0.000000 2.032380 0.000000 
#    z 0.000000 0.000000 1.882910 
# 
# From -- ./inp_files/3584.got.cif
#   From: 2010.05.17/outbox.cif.g08.bks.cpg/sg151_2_cif.got.tgz:3584.got - 2010.05.20 10:33:20.
