data_PCOD9575441
_publ_section_title
;
Structure prediction by ZEFSAII (Michael W. Deem and Ramdas Pophale) SiO2 
 PCOD9575441
Probable space group: P 3 2 1
;
_chemical_formula_sum "Si O2"
_cell_formula_units_Z 39
_cell_length_a 9.637449
_cell_length_b 9.637449
_cell_length_c 18.816103
_cell_angle_alpha 90.000000
_cell_angle_beta 90.000000
_cell_angle_gamma 120.000000
_cell_volume 1513.507227
_symmetry_space_group_name_H-M "P 3 2 1"
_symmetry_group_IT_number 150
_symmetry_cell_setting 'hexagonal'
loop_
_space_group_symop_operation_xyz
x,y,z
-y,x-y,z
-x+y,-x,z
x-y,-y,-z
-x,-x+y,-z
y,x,-z
loop_
_atom_site_type_symbol
_atom_site_label
_atom_site_fract_x
_atom_site_fract_y
_atom_site_fract_z
Si Si1 0.164398 0.377856 0.924454
Si Si2 0.371419 0.109758 0.378600
Si Si3 0.168988 0.792666 0.075105
Si Si4 0.133249 0.378742 0.773719
Si Si5 0.623524 0.865517 0.226473
Si Si6 0.372508 0.262428 0.621471
Si Si7 0.000000 0.495720 0.500000
O O1 0.284044 0.307492 0.927748
O O2 0.164480 0.464413 0.850661
O O3 0.982489 0.228560 0.920664
O O4 0.199630 0.460101 0.001943
O O5 0.461852 0.147401 0.302159
O O6 0.304272 0.074379 0.616350
O O7 0.296806 0.224862 0.379513
O O8 0.470489 0.116994 0.447230
O O9 0.193623 0.730499 0.150808
O O10 0.249977 0.304781 0.777010
O O11 0.950536 0.234101 0.769008
O O12 0.539280 0.851757 0.301773
O O13 0.472340 0.364056 0.555044
#
# Coordination Sequence:
#
# PCOD9575441 Si02
#       7
#     6   6   6   6   6   6   3
#     4   8  11  14  24  50  90 131 163 194 243 308
#     4  10  21  40  62  85 108 143 191 241 295 357
#     4   8  11  14  24  50  90 131 163 194 243 308
#     4   8  13  22  40  64  95 130 170 212 258 318
#     4   8  13  22  40  64  95 130 170 212 258 318
#     4  10  21  40  62  85 108 143 191 241 295 357
#     4  12  24  36  50  80 108 138 184 240 304 344
#
# _framework density 25.767966000000001
#
# number of rings (size 3 to 8) (size 9 to 14) (size 15 to 20)
#    0.000    3.077    0.000    1.846    0.000    6.154 
#    7.385    1.538    0.000    0.000    0.000    0.000 
#    0.000   44.308    0.000    0.000    1.231   24.000 
#
# Total GULP energy -217353.277449 kJ/mol
# GULP energy per Si atom -5573.160960 kJ/mol
# Density = 2.570932 g / cm^3
# Si number density = 25.767966 Si / 1000 Ang^3
#
#
#
# Elastic Constant Matrix: (Units=GPa)
#
#
# Indices 1 2 3 4 5 6 
#
# 1 83.6739 20.9429 40.0344 4.5709 0.0000 0.0000
# 2 20.9429 83.6739 40.0344 -4.5709 0.0000 0.0000
# 3 40.0344 40.0344 350.2540 0.0000 0.0000 0.0000
# 4 4.5709 -4.5709 0.0000 -85.5641 0.0000 0.0000
# 5 0.0000 0.0000 0.0000 0.0000 -85.5641 4.5709
# 6 0.0000 0.0000 0.0000 0.0000 4.5709 31.3655
#
#
#
# Elastic Compliance Matrix: (Units=1/GPa)
#
#
# Indices 1 2 3 4 5 6 
#
# 1 0.013146 -0.002671 -0.001197 0.000845 0.000000 0.000000
# 2 -0.002671 0.013146 -0.001197 -0.000845 0.000000 0.000000
# 3 -0.001197 -0.001197 0.003129 0.000000 0.000000 0.000000
# 4 0.000845 -0.000845 0.000000 -0.011597 0.000000 0.000000
# 5 0.000000 0.000000 0.000000 0.000000 -0.011597 0.001690
# 6 0.000000 0.000000 0.000000 0.000000 0.001690 0.031636
#
#
# Mechanical properties :
#
#
# Convention : Reuss Voigt Hill
#
# Bulk Modulus (GPa) = 51.84130 79.95837 65.89983
# Shear Modulus (GPa) = 91.86799 -0.17985 45.84407
#
# Velocity S-wave (km/s) = 5.97741 -0.26448 4.22253
# Velocity P-wave (km/s) = 8.23416 5.56815 7.02871
#
# Compressibility (1/GPa) = 0.01928964
#
# Stress axis : x y z
#
# Youngs Moduli (GPa) = 76.06590 76.06590 319.61358
#
# Poissons Ratio (x) = 0.20321 0.38268
# Poissons Ratio (y) = 0.20321 0.38268
# Poissons Ratio (z) = 0.09107 0.09107
#
# Static dielectric constant tensor:
#      x y z
#    x 2.012820 0.000000 0.000000 
#    y 0.000000 2.012820 0.000000 
#    z 0.000000 0.000000 2.223860 
# 
# From -- ./inp_files/1115.got.cif
#   From: 2010.05.17/outbox.cif.g08.bks.cpg/sg150_cif.got.tgz:1115.got - 2010.05.20 13:53:18.
