data_PCOD9575585
_publ_section_title
;
Structure prediction by ZEFSAII (Michael W. Deem and Ramdas Pophale) SiO2 
 PCOD9575585
Probable space group: P 31 1 2
;
_chemical_formula_sum "Si O2"
_cell_formula_units_Z 42
_cell_length_a 20.757552
_cell_length_b 20.757552
_cell_length_c 6.410097
_cell_angle_alpha 90.000000
_cell_angle_beta 90.000000
_cell_angle_gamma 120.000000
_cell_volume 2391.924693
_symmetry_space_group_name_H-M "P 31 1 2"
_symmetry_group_IT_number 151
_symmetry_cell_setting 'hexagonal'
loop_
_space_group_symop_operation_xyz
x,y,z
-y,x-y,1/3+z
-x+y,-x,2/3+z
-y,-x,2/3-z
-x+y,y,1/3-z
x,x-y,-z
loop_
_atom_site_type_symbol
_atom_site_label
_atom_site_fract_x
_atom_site_fract_y
_atom_site_fract_z
Si Si1 0.370274 0.740547 0.166667
Si Si2 0.969359 0.295672 0.279341
Si Si3 0.897291 0.886676 0.355317
Si Si4 0.190633 0.272994 0.338451
Si Si5 0.297452 0.922642 0.324288
Si Si6 0.302294 0.828281 0.961064
Si Si7 0.878220 0.121781 0.333334
Si Si8 0.024377 0.588802 0.968644
O O1 0.307256 0.692745 0.333334
O O2 0.346391 0.787492 0.025599
O O3 0.909465 0.210378 0.331070
O O4 0.022859 0.285258 0.119787
O O5 0.011787 0.326714 0.495974
O O6 0.962079 0.361480 0.158589
O O7 0.813656 0.858053 0.271679
O O8 0.894706 0.816567 0.479531
O O9 0.913650 0.956825 0.500000
O O10 0.953713 0.907426 0.166667
O O11 0.145170 0.290339 0.166667
O O12 0.225106 0.324828 0.536851
O O13 0.284771 0.855535 0.176255
O O14 0.368748 0.954436 0.476124
O O15 0.229115 0.770886 0.833334
O O16 0.359323 0.900856 0.831300
O O17 0.010094 0.505047 0.000000
#
# Coordination Sequence:
#
# PCOD9575585 Si02
#       8
#     3   6   6   6   6   6   3   6
#     4  12  26  42  54  68 100 134 190 244 292 328
#     4   9  20  35  55  84 104 143 179 217 278 331
#     4  10  21  36  56  80 107 143 188 233 285 336
#     4   9  19  35  53  75 103 136 179 225 272 332
#     4  10  21  37  56  76 108 140 175 225 281 326
#     4  11  25  36  53  77  96 136 186 235 288 341
#     4  10  20  38  60  82 118 144 182 238 276 334
#     4  10  22  38  56  79 109 141 182 225 278 342
#
# _framework density 17.559082
#
# number of rings (size 3 to 8) (size 9 to 14) (size 15 to 20)
#    0.000    2.000    0.714    1.714    4.000    9.714 
#    0.000    4.286    0.000    6.000    0.000    0.000 
#    0.000    0.000   12.143    0.000    0.000    0.000 
#
# Total GULP energy -234221.281628 kJ/mol
# GULP energy per Si atom -5576.697182 kJ/mol
# Density = 1.751912 g / cm^3
# Si number density = 17.559082 Si / 1000 Ang^3
#
#
#
# Elastic Constant Matrix: (Units=GPa)
#
#
# Indices 1 2 3 4 5 6 
#
# 1 115.6286 48.0859 46.3519 -0.0002 14.9727 0.0000
# 2 48.0859 115.6286 46.3519 0.0002 -14.9727 0.0000
# 3 46.3519 46.3519 95.9104 0.0000 0.0000 0.0000
# 4 -0.0002 0.0002 0.0000 52.5751 0.0000 -14.9727
# 5 14.9727 -14.9727 0.0000 0.0000 52.5751 -0.0002
# 6 0.0000 0.0000 0.0000 -14.9727 -0.0002 33.7713
#
#
#
# Elastic Compliance Matrix: (Units=1/GPa)
#
#
# Indices 1 2 3 4 5 6 
#
# 1 0.012677 -0.004268 -0.004064 0.000000 -0.004826 0.000000
# 2 -0.004268 0.012677 -0.004064 0.000000 0.004826 0.000000
# 3 -0.004064 -0.004064 0.014355 0.000000 0.000000 0.000000
# 4 0.000000 0.000000 0.000000 0.021769 0.000000 0.009651
# 5 -0.004826 0.004826 0.000000 0.000000 0.021769 0.000000
# 6 0.000000 0.000000 0.000000 0.009651 0.000000 0.033890
#
#
# Mechanical properties :
#
#
# Convention : Reuss Voigt Hill
#
# Bulk Modulus (GPa) = 67.03743 67.63855 67.33799
# Shear Modulus (GPa) = 34.03641 40.20953 37.12297
#
# Velocity S-wave (km/s) = 4.40750 4.79054 4.60300
# Velocity P-wave (km/s) = 8.01015 8.31885 8.16596
#
# Compressibility (1/GPa) = 0.01491704
#
# Stress axis : x y z
#
# Youngs Moduli (GPa) = 78.88150 78.88150 69.66359
#
# Poissons Ratio (x) = 0.33664 0.28313
# Poissons Ratio (y) = 0.33664 0.28313
# Poissons Ratio (z) = 0.32059 0.32059
#
# Static dielectric constant tensor:
#      x y z
#    x 1.658380 0.000000 0.000000 
#    y 0.000000 1.658380 0.000000 
#    z 0.000000 0.000000 1.587860 
# 
# From -- ./inp_files/844.got.cif
#   From: 2010.05.17/outbox.cif.g08.bks.cpg/sg151_1_cif.got.tgz:844.got - 2010.05.20 10:33:20.
