data_PCOD9575076
_publ_section_title
;
Structure prediction by ZEFSAII (Michael W. Deem and Ramdas Pophale) SiO2 
 PCOD9575076
Probable space group: R -3
;
_chemical_formula_sum "Si O2"
_cell_formula_units_Z 120
_cell_length_a 17.076178
_cell_length_b 17.076178
_cell_length_c 23.571525
_cell_angle_alpha 90.000000
_cell_angle_beta 90.000000
_cell_angle_gamma 120.000000
_cell_volume 5952.503493
_symmetry_space_group_name_H-M "R -3"
_symmetry_group_IT_number 148
_symmetry_cell_setting 'hexagonal'
loop_
_space_group_symop_operation_xyz
x,y,z
-y,x-y,z
-x+y,-x,z
-x,-y,-z
y,-x+y,-z
x-y,x,-z
2/3+x,1/3+y,1/3+z
2/3-y,1/3+x-y,1/3+z
2/3-x+y,1/3-x,1/3+z
2/3-x,1/3-y,1/3-z
2/3+y,1/3-x+y,1/3-z
2/3+x-y,1/3+x,1/3-z
1/3+x,2/3+y,2/3+z
1/3-y,2/3+x-y,2/3+z
1/3-x+y,2/3-x,2/3+z
1/3-x,2/3-y,2/3-z
1/3+y,2/3-x+y,2/3-z
1/3+x-y,2/3+x,2/3-z
loop_
_atom_site_type_symbol
_atom_site_label
_atom_site_fract_x
_atom_site_fract_y
_atom_site_fract_z
Si Si1 0.835004 0.744514 0.238940
Si Si2 0.719387 0.650650 0.714336
Si Si3 0.394201 0.936794 0.659907
Si Si4 0.120988 0.192313 0.091148
Si Si5 0.592915 0.652922 0.489866
Si Si6 0.333334 0.666668 0.383006
Si Si7 0.333334 0.666668 0.813346
Si Si8 0.554835 0.411792 0.025635
O O1 0.815254 0.675462 0.291334
O O2 0.753052 0.687230 0.195478
O O3 0.826649 0.828543 0.260999
O O4 0.927117 0.764644 0.208544
O O5 0.650187 0.659008 0.671383
O O6 0.693454 0.661847 0.777441
O O7 0.822143 0.730659 0.707533
O O8 0.717033 0.558570 0.696687
O O9 0.413793 0.907727 0.720143
O O10 0.340949 0.848515 0.621005
O O11 0.193357 0.253460 0.138356
O O12 0.046518 0.101216 0.121273
O O13 0.333334 0.666667 0.451564
O O14 0.312911 0.741926 0.357911
#
# Coordination Sequence:
#
# PCOD9575076 Si02
#       8
#    18  18  18  18  18   6   6  18
#     4   9  19  36  58  86 119 153 190 235 286 340
#     4  10  21  37  57  80 109 145 193 244 286 333
#     4  10  21  36  55  80 116 156 192 231 284 350
#     4  11  22  35  54  81 118 159 191 227 279 341
#     4  10  20  34  57  86 118 154 190 234 286 338
#     4  12  24  39  61  88 117 151 193 237 292 344
#     4  12  24  34  52  87 123 156 193 232 274 344
#     4  10  21  38  60  82 110 147 192 243 287 340
#
# _framework density 20.159583999999999
#
# number of rings (size 3 to 8) (size 9 to 14) (size 15 to 20)
#    0.000    1.800    0.000    4.500    0.000    6.600 
#    0.000    0.000    0.000    1.800    0.000    0.000 
#    0.000   33.600    0.000    0.000    0.000    0.000 
#
# Total GULP energy -223396.283946 kJ/mol
# GULP energy per Si atom -5584.907099 kJ/mol
# Density = 2.011370 g / cm^3
# Si number density = 20.159584 Si / 1000 Ang^3
#
#
#
# Elastic Constant Matrix: (Units=GPa)
#
#
# Indices 1 2 3 4 5 6 
#
# 1 55.4124 13.9852 24.8402 -2.6726 3.7092 -0.0005
# 2 13.9852 55.4118 24.8402 2.6722 -3.7091 -0.0004
# 3 24.8402 24.8402 97.3695 0.0000 -0.0001 -0.0002
# 4 -2.6726 2.6722 0.0000 36.8557 -0.0001 -3.7093
# 5 3.7092 -3.7091 -0.0001 -0.0001 36.8557 -2.6724
# 6 -0.0005 -0.0004 -0.0002 -3.7093 -2.6724 20.7137
#
#
#
# Elastic Compliance Matrix: (Units=1/GPa)
#
#
# Indices 1 2 3 4 5 6 
#
# 1 0.021224 -0.003594 -0.004497 0.001800 -0.002498 0.000000
# 2 -0.003594 0.021224 -0.004498 -0.001799 0.002498 0.000000
# 3 -0.004497 -0.004498 0.012565 0.000000 0.000000 0.000000
# 4 0.001800 -0.001799 0.000000 0.027897 0.000000 0.004996
# 5 -0.002498 0.002498 0.000000 0.000000 0.027897 0.003599
# 6 0.000000 0.000000 0.000000 0.004996 0.003599 0.049636
#
#
# Mechanical properties :
#
#
# Convention : Reuss Voigt Hill
#
# Bulk Modulus (GPa) = 33.51900 37.28055 35.39977
# Shear Modulus (GPa) = 25.56690 28.52024 27.04357
#
# Velocity S-wave (km/s) = 3.56508 3.76536 3.66659
# Velocity P-wave (km/s) = 5.79735 6.11856 5.96012
#
# Compressibility (1/GPa) = 0.02983383
#
# Stress axis : x y z
#
# Youngs Moduli (GPa) = 47.11687 47.11646 79.58681
#
# Poissons Ratio (x) = 0.16936 0.35794
# Poissons Ratio (y) = 0.16936 0.35794
# Poissons Ratio (z) = 0.21191 0.21191
#
# Static dielectric constant tensor:
#      x y z
#    x 1.745670 0.000000 0.000000 
#    y 0.000000 1.745670 0.000000 
#    z 0.000000 0.000000 1.724310 
# 
# From -- ./inp_files/3486.got.cif
#   From: 2010.05.17/outbox.cif.g08.bks.cpg/sg148_2_cif.got.tgz:3486.got - 2010.05.20 13:50:20.
