data_PCOD9575417
_publ_section_title
;
Structure prediction by ZEFSAII (Michael W. Deem and Ramdas Pophale) SiO2 
 PCOD9575417
Probable space group: P 3 2 1
;
_chemical_formula_sum "Si O2"
_cell_formula_units_Z 24
_cell_length_a 14.143260
_cell_length_b 14.143260
_cell_length_c 5.585335
_cell_angle_alpha 90.000000
_cell_angle_beta 90.000000
_cell_angle_gamma 120.000000
_cell_volume 967.562234
_symmetry_space_group_name_H-M "P 3 2 1"
_symmetry_group_IT_number 150
_symmetry_cell_setting 'hexagonal'
loop_
_space_group_symop_operation_xyz
x,y,z
-y,x-y,z
-x+y,-x,z
x-y,-y,-z
-x,-x+y,-z
y,x,-z
loop_
_atom_site_type_symbol
_atom_site_label
_atom_site_fract_x
_atom_site_fract_y
_atom_site_fract_z
Si Si1 0.976966 0.753842 0.250000
Si Si2 0.978095 0.381149 0.250000
Si Si3 0.774150 0.519278 0.250000
Si Si4 0.866831 0.510955 0.750000
O O1 0.856521 0.650107 0.250000
O O2 0.000000 0.815724 0.500000
O O3 0.054722 0.697755 0.250000
O O4 0.000000 0.815724 0.000000
O O5 0.055202 0.513025 0.250000
O O6 0.000000 0.340827 0.500000
O O7 0.851610 0.343707 0.250000
O O8 0.000000 0.340827 0.000000
O O9 0.797064 0.482645 0.506583
O O10 0.797064 0.482645 0.993419
#
# Coordination Sequence:
#
# PCOD9575417 Si02
#       4
#     6   6   6   6
#     4   8  14  27  49  73 100 138 186 250 306 372
#     4  12  23  37  60  87 122 172 224 288 359 422
#     4  10  20  34  56  83 108 149 213 272 327 410
#     4  10  19  36  59  81 114 161 215 278 340 408
#
# _framework density 24.804607000000001
#
# number of rings (size 3 to 8) (size 9 to 14) (size 15 to 20)
#    0.000    2.000    0.000    7.500    0.000    0.000 
#    0.000    0.000    0.000   45.000    0.000    0.000 
#    0.000    0.000    0.000  405.000    0.000    0.000 
#
# Total GULP energy -134123.284349 kJ/mol
# GULP energy per Si atom -5588.470181 kJ/mol
# Density = 2.474815 g / cm^3
# Si number density = 24.804607 Si / 1000 Ang^3
#
#
#
# Elastic Constant Matrix: (Units=GPa)
#
#
# Indices 1 2 3 4 5 6 
#
# 1 47.0661 13.8410 47.2402 0.0000 0.0000 0.0000
# 2 13.8410 47.0661 47.2402 0.0000 0.0000 0.0000
# 3 47.2402 47.2402 327.7664 0.0000 0.0000 0.0000
# 4 0.0000 0.0000 0.0000 16.3323 0.0000 0.0000
# 5 0.0000 0.0000 0.0000 0.0000 16.3323 0.0000
# 6 0.0000 0.0000 0.0000 0.0000 0.0000 16.6126
#
#
#
# Elastic Compliance Matrix: (Units=1/GPa)
#
#
# Indices 1 2 3 4 5 6 
#
# 1 0.025622 -0.004476 -0.003048 0.000000 0.000000 0.000000
# 2 -0.004476 0.025622 -0.003048 0.000000 0.000000 0.000000
# 3 -0.003048 -0.003048 0.003929 0.000000 0.000000 0.000000
# 4 0.000000 0.000000 0.000000 0.061229 0.000000 0.000000
# 5 0.000000 0.000000 0.000000 0.000000 0.061229 0.000000
# 6 0.000000 0.000000 0.000000 0.000000 0.000000 0.060195
#
#
# Mechanical properties :
#
#
# Convention : Reuss Voigt Hill
#
# Bulk Modulus (GPa) = 29.38510 70.94902 50.16706
# Shear Modulus (GPa) = 18.49716 30.76058 24.62887
#
# Velocity S-wave (km/s) = 2.73374 3.52535 3.15447
# Velocity P-wave (km/s) = 4.67299 6.72577 5.79106
#
# Compressibility (1/GPa) = 0.03403085
#
# Stress axis : x y z
#
# Youngs Moduli (GPa) = 39.02908 39.02908 254.48651
#
# Poissons Ratio (x) = 0.17468 0.77561
# Poissons Ratio (y) = 0.17468 0.77561
# Poissons Ratio (z) = 0.11895 0.11895
#
# Static dielectric constant tensor:
#      x y z
#    x 1.964600 0.000000 0.000000 
#    y 0.000000 1.964600 0.000000 
#    z 0.000000 0.000000 2.065860 
# 
# From -- ./inp_files/124.got.cif
#   From: 2010.05.17/outbox.cif.g08.bks.cpg/sg150_cif.got.tgz:124.got - 2010.05.20 13:53:18.
