data_PCOD9575785
_publ_section_title
;
Structure prediction by ZEFSAII (Michael W. Deem and Ramdas Pophale) SiO2 
 PCOD9575785
Probable space group: P 31 2 1
;
_chemical_formula_sum "Si O2"
_cell_formula_units_Z 42
_cell_length_a 8.478176
_cell_length_b 8.478176
_cell_length_c 35.001460
_cell_angle_alpha 90.000000
_cell_angle_beta 90.000000
_cell_angle_gamma 120.000000
_cell_volume 2178.821478
_symmetry_space_group_name_H-M "P 31 2 1"
_symmetry_group_IT_number 152
_symmetry_cell_setting 'hexagonal'
loop_
_space_group_symop_operation_xyz
x,y,z
-y,x-y,1/3+z
-x+y,-x,2/3+z
x-y,-y,2/3-z
-x,-x+y,1/3-z
y,x,-z
loop_
_atom_site_type_symbol
_atom_site_label
_atom_site_fract_x
_atom_site_fract_y
_atom_site_fract_z
Si Si1 0.888289 0.310367 0.248455
Si Si2 0.811970 0.394128 0.646048
Si Si3 0.675570 0.297021 0.527535
Si Si4 0.320819 0.022781 0.248648
Si Si5 0.273062 0.640200 0.274936
Si Si6 0.118486 0.062510 0.790683
Si Si7 0.477653 0.891944 0.544950
O O1 0.742414 0.247680 0.282317
O O2 0.812448 0.372691 0.212776
O O3 0.076758 0.475011 0.263519
O O4 0.915386 0.147222 0.232457
O O5 0.860147 0.262877 0.620965
O O6 0.668669 0.298353 0.679810
O O7 0.000000 0.536341 0.666667
O O8 0.856837 0.328816 0.550273
O O9 0.738455 0.340783 0.484078
O O10 0.516143 0.092283 0.535113
O O11 0.136339 0.009292 0.233742
O O12 0.300580 0.828628 0.257435
O O13 0.413369 0.591672 0.254133
O O14 0.324102 0.234959 0.794290
O O15 0.045150 0.000000 0.833334
#
# Coordination Sequence:
#
# PCOD9575785 Si02
#       7
#     6   6   6   6   6   6   6
#     4  10  21  36  60  85 117 150 194 246 294 346
#     4   9  20  41  61  77 113 156 197 236 288 347
#     4  10  19  36  55  83 112 159 192 240 288 363
#     4   9  20  38  57  80 112 156 194 233 301 354
#     4  10  21  38  57  85 114 155 194 249 293 350
#     4  10  19  37  57  85 119 155 182 242 305 350
#     4  10  20  34  57  80 119 154 195 236 301 349
#
# _framework density 19.276477
#
# number of rings (size 3 to 8) (size 9 to 14) (size 15 to 20)
#    0.000    2.286    1.429    0.857    0.000    4.571 
#    7.714    3.571    0.000    0.000    0.000    0.000 
#    0.000    0.000    0.000    0.000    0.000    0.000 
#
# Total GULP energy -234267.728734 kJ/mol
# GULP energy per Si atom -5577.803065 kJ/mol
# Density = 1.923260 g / cm^3
# Si number density = 19.276477 Si / 1000 Ang^3
#
#
#
# Elastic Constant Matrix: (Units=GPa)
#
#
# Indices 1 2 3 4 5 6 
#
# 1 41.9353 0.9783 9.5386 1.1403 0.0001 0.0000
# 2 0.9783 41.9353 9.5386 -1.1403 -0.0001 0.0000
# 3 9.5386 9.5386 84.1627 0.0000 0.0000 0.0000
# 4 1.1403 -1.1403 0.0000 26.1822 0.0000 -0.0001
# 5 0.0001 -0.0001 0.0000 0.0000 26.1822 1.1403
# 6 0.0000 0.0000 0.0000 -0.0001 1.1403 20.4785
#
#
#
# Elastic Compliance Matrix: (Units=1/GPa)
#
#
# Indices 1 2 3 4 5 6 
#
# 1 0.024507 0.000032 -0.002781 -0.001066 0.000000 0.000000
# 2 0.000032 0.024507 -0.002781 0.001066 0.000000 0.000000
# 3 -0.002781 -0.002781 0.012512 0.000000 0.000000 0.000000
# 4 -0.001066 0.001066 0.000000 0.038287 0.000000 0.000000
# 5 0.000000 0.000000 0.000000 0.000000 0.038287 -0.002132
# 6 0.000000 0.000000 0.000000 0.000000 -0.002132 0.048950
#
#
# Mechanical properties :
#
#
# Convention : Reuss Voigt Hill
#
# Bulk Modulus (GPa) = 19.81546 23.12712 21.47129
# Shear Modulus (GPa) = 23.26311 24.43379 23.84845
#
# Velocity S-wave (km/s) = 3.47769 3.56412 3.52117
# Velocity P-wave (km/s) = 5.14079 5.38153 5.26254
#
# Compressibility (1/GPa) = 0.05046565
#
# Stress axis : x y z
#
# Youngs Moduli (GPa) = 40.80451 40.80451 79.92236
#
# Poissons Ratio (x) = -0.00130 0.22227
# Poissons Ratio (y) = -0.00130 0.22227
# Poissons Ratio (z) = 0.11348 0.11348
#
# Static dielectric constant tensor:
#      x y z
#    x 1.692140 0.000000 0.000000 
#    y 0.000000 1.692140 0.000000 
#    z 0.000000 0.000000 1.679760 
# 
# From -- ./inp_files/3731.got.cif
#   From: 2010.05.17/outbox.cif.g08.bks.cpg/sg152_2_cif.got.tgz:3731.got - 2010.05.20 10:36:06.
