data_PCOD9575030
_publ_section_title
;
Structure prediction by ZEFSAII (Michael W. Deem and Ramdas Pophale) SiO2 
 PCOD9575030
Probable space group: R -3
;
_chemical_formula_sum "Si O2"
_cell_formula_units_Z 126
_cell_length_a 17.336596
_cell_length_b 17.336596
_cell_length_c 34.892949
_cell_angle_alpha 90.000000
_cell_angle_beta 90.000000
_cell_angle_gamma 120.000000
_cell_volume 9082.302549
_symmetry_space_group_name_H-M "R -3"
_symmetry_group_IT_number 148
_symmetry_cell_setting 'hexagonal'
loop_
_space_group_symop_operation_xyz
x,y,z
-y,x-y,z
-x+y,-x,z
-x,-y,-z
y,-x+y,-z
x-y,x,-z
2/3+x,1/3+y,1/3+z
2/3-y,1/3+x-y,1/3+z
2/3-x+y,1/3-x,1/3+z
2/3-x,1/3-y,1/3-z
2/3+y,1/3-x+y,1/3-z
2/3+x-y,1/3+x,1/3-z
1/3+x,2/3+y,2/3+z
1/3-y,2/3+x-y,2/3+z
1/3-x+y,2/3-x,2/3+z
1/3-x,2/3-y,2/3-z
1/3+y,2/3-x+y,2/3-z
1/3+x-y,2/3+x,2/3-z
loop_
_atom_site_type_symbol
_atom_site_label
_atom_site_fract_x
_atom_site_fract_y
_atom_site_fract_z
Si Si1 0.038356 0.430331 0.320404
Si Si2 0.612441 0.041565 0.910916
Si Si3 0.625101 0.720892 0.244249
Si Si4 0.332454 0.847033 0.937015
Si Si5 0.705023 0.941358 0.653737
Si Si6 1.000000 0.815202 0.500000
Si Si7 0.152967 0.667546 0.937015
O O1 0.072992 0.419799 0.279285
O O2 0.011212 0.505606 0.319598
O O3 0.114977 0.459905 0.352811
O O4 0.960872 0.333333 0.333333
O O5 0.525162 0.050324 0.918242
O O6 0.680141 0.086466 0.945952
O O7 0.653512 0.089433 0.870933
O O8 0.576274 0.935641 0.912278
O O9 0.731026 0.757059 0.245612
O O10 0.577234 0.679822 0.204266
O O11 0.239722 0.760278 0.926248
O O12 0.414187 0.828374 0.934995
O O13 0.321738 0.873428 0.980523
O O14 0.912085 0.824170 0.496055
#
# Coordination Sequence:
#
# PCOD9575030 Si02
#       7
#    18  18  18  18  18  18  18
#     4   9  16  26  41  60  81 104 130 160 195 234
#     4   9  17  28  41  58  81 107 132 159 192 229
#     4   9  17  28  41  58  81 107 132 159 192 229
#     4   9  16  26  41  61  83 105 129 158 193 232
#     4   9  16  26  41  60  81 104 130 160 195 234
#     4  10  19  30  43  58  78 104 134 164 193 228
#     4   9  16  26  41  61  83 105 129 158 193 232
#
# _framework density 13.873134
#
# number of rings (size 3 to 8) (size 9 to 14) (size 15 to 20)
#    0.000    2.857    0.000    2.143    0.000    3.429 
#    0.000    0.714    0.000    9.429    0.000    0.000 
#    0.000    0.000    0.000    0.000    0.000    0.000 
#
# Total GULP energy -233870.349362 kJ/mol
# GULP energy per Si atom -5568.341651 kJ/mol
# Density = 1.384156 g / cm^3
# Si number density = 13.873134 Si / 1000 Ang^3
#
#
#
# Elastic Constant Matrix: (Units=GPa)
#
#
# Indices 1 2 3 4 5 6 
#
# 1 96.9571 59.5165 60.6817 -2.1896 0.0000 0.0000
# 2 59.5165 96.9571 60.6817 2.1896 0.0000 0.0000
# 3 60.6817 60.6817 101.4657 0.0000 0.0000 0.0000
# 4 -2.1896 2.1896 0.0000 16.0470 0.0000 0.0000
# 5 0.0000 0.0000 0.0000 0.0000 16.0470 -2.1896
# 6 0.0000 0.0000 0.0000 0.0000 -2.1896 18.7203
#
#
#
# Elastic Compliance Matrix: (Units=1/GPa)
#
#
# Indices 1 2 3 4 5 6 
#
# 1 0.019531 -0.007611 -0.007129 0.003703 0.000000 0.000000
# 2 -0.007611 0.019531 -0.007129 -0.003703 0.000000 0.000000
# 3 -0.007129 -0.007129 0.018382 0.000000 0.000000 0.000000
# 4 0.003703 -0.003703 0.000000 0.063328 0.000000 0.000000
# 5 0.000000 0.000000 0.000000 0.000000 0.063328 0.007407
# 6 0.000000 0.000000 0.000000 0.000000 0.007407 0.054284
#
#
# Mechanical properties :
#
#
# Convention : Reuss Voigt Hill
#
# Bulk Modulus (GPa) = 72.95420 73.01551 72.98485
# Shear Modulus (GPa) = 17.44041 17.79619 17.61830
#
# Velocity S-wave (km/s) = 3.54946 3.58548 3.56751
# Velocity P-wave (km/s) = 8.33661 8.35978 8.34820
#
# Compressibility (1/GPa) = 0.01370723
#
# Stress axis : x y z
#
# Youngs Moduli (GPa) = 51.20031 51.20031 54.39995
#
# Poissons Ratio (x) = 0.38969 0.38781
# Poissons Ratio (y) = 0.38969 0.38781
# Poissons Ratio (z) = 0.36500 0.36500
#
# Static dielectric constant tensor:
#      x y z
#    x 1.446550 0.000000 0.000000 
#    y 0.000000 1.446550 0.000000 
#    z 0.000000 0.000000 1.438660 
# 
# From -- ./inp_files/3709.got.cif
#   From: 2010.05.17/outbox.cif.g08.bks.cpg/sg148_2_cif.got.tgz:3709.got - 2010.05.20 13:50:20.
