data_PCOD9575081
_publ_section_title
;
Structure prediction by ZEFSAII (Michael W. Deem and Ramdas Pophale) SiO2 
 PCOD9575081
Probable space group: R -3
;
_chemical_formula_sum "Si O2"
_cell_formula_units_Z 132
_cell_length_a 17.202986
_cell_length_b 17.202986
_cell_length_c 23.888054
_cell_angle_alpha 90.000000
_cell_angle_beta 90.000000
_cell_angle_gamma 120.000000
_cell_volume 6122.362999
_symmetry_space_group_name_H-M "R -3"
_symmetry_group_IT_number 148
_symmetry_cell_setting 'hexagonal'
loop_
_space_group_symop_operation_xyz
x,y,z
-y,x-y,z
-x+y,-x,z
-x,-y,-z
y,-x+y,-z
x-y,x,-z
2/3+x,1/3+y,1/3+z
2/3-y,1/3+x-y,1/3+z
2/3-x+y,1/3-x,1/3+z
2/3-x,1/3-y,1/3-z
2/3+y,1/3-x+y,1/3-z
2/3+x-y,1/3+x,1/3-z
1/3+x,2/3+y,2/3+z
1/3-y,2/3+x-y,2/3+z
1/3-x+y,2/3-x,2/3+z
1/3-x,2/3-y,2/3-z
1/3+y,2/3-x+y,2/3-z
1/3+x-y,2/3+x,2/3-z
loop_
_atom_site_type_symbol
_atom_site_label
_atom_site_fract_x
_atom_site_fract_y
_atom_site_fract_z
Si Si1 0.790770 0.967846 0.585795
Si Si2 0.411468 0.948082 0.187330
Si Si3 0.349899 0.038527 0.272694
Si Si4 0.524679 0.772761 0.780997
Si Si5 0.027675 0.813749 0.214293
Si Si6 0.381091 0.319908 0.271387
Si Si7 0.431399 0.181183 0.646039
Si Si8 0.666667 0.333334 0.399003
O O1 0.781629 0.878193 0.561310
O O2 0.686953 0.932118 0.603065
O O3 0.807801 0.031449 0.533301
O O4 0.856856 0.030539 0.634110
O O5 0.352872 0.976416 0.224226
O O6 0.484825 0.045972 0.160961
O O7 0.396368 0.138034 0.247999
O O8 0.406166 0.041708 0.328396
O O9 0.246209 0.992562 0.287489
O O10 0.514856 0.799933 0.844135
O O11 0.550789 0.698031 0.764450
O O12 0.429277 0.742850 0.753715
O O13 0.076239 0.881316 0.265431
O O14 0.978691 0.715756 0.242781
O O15 0.333334 0.166667 0.666667
O O16 0.666668 0.333335 0.333334
#
# Coordination Sequence:
#
# PCOD9575081 Si02
#       8
#    18  18  18  18  18  18  18   6
#     4  10  22  35  65  93 125 169 209 284 326 403
#     4  10  20  35  59  95 118 159 209 263 330 382
#     4  10  22  35  65  94 129 167 224 281 329 410
#     4  11  25  41  62  99 129 186 231 281 348 404
#     4  10  21  41  63  92 132 169 219 284 342 411
#     4  10  21  38  62  92 131 168 224 277 338 408
#     4  11  19  41  63  95 129 167 208 277 351 396
#     4  12  27  48  66  87 144 198 225 289 341 430
#
# _framework density 21.560303000000001
#
# number of rings (size 3 to 8) (size 9 to 14) (size 15 to 20)
#    0.000    1.636    4.091    2.045    7.636    0.000 
#    2.455    0.000    0.000    0.273    0.000    0.000 
#    0.000    0.000    0.000    0.000    0.000    0.000 
#
# Total GULP energy -245372.562166 kJ/mol
# GULP energy per Si atom -5576.649140 kJ/mol
# Density = 2.151123 g / cm^3
# Si number density = 21.560303 Si / 1000 Ang^3
#
#
#
# Elastic Constant Matrix: (Units=GPa)
#
#
# Indices 1 2 3 4 5 6 
#
# 1 44.9607 -3.9508 17.4253 0.2350 6.9155 0.0000
# 2 -3.9508 44.9612 17.4249 -0.2347 -6.9155 0.0000
# 3 17.4253 17.4249 100.4155 -0.0001 0.0001 0.0000
# 4 0.2350 -0.2347 -0.0001 52.3588 0.0002 -6.9155
# 5 6.9155 -6.9155 0.0001 0.0002 52.3593 0.2347
# 6 0.0000 0.0000 0.0000 -6.9155 0.2347 24.4560
#
#
#
# Elastic Compliance Matrix: (Units=1/GPa)
#
#
# Indices 1 2 3 4 5 6 
#
# 1 0.024921 0.003681 -0.004963 -0.000095 -0.002805 0.000000
# 2 0.003681 0.024920 -0.004963 0.000095 0.002805 0.000000
# 3 -0.004963 -0.004963 0.011681 0.000000 0.000000 0.000000
# 4 -0.000095 0.000095 0.000000 0.019841 0.000000 0.005610
# 5 -0.002805 0.002805 0.000000 0.000000 0.019841 -0.000190
# 6 0.000000 0.000000 0.000000 0.005610 -0.000190 0.042478
#
#
# Mechanical properties :
#
#
# Convention : Reuss Voigt Hill
#
# Bulk Modulus (GPa) = 20.39488 28.01513 24.20500
# Shear Modulus (GPa) = 28.98279 36.46403 32.72341
#
# Velocity S-wave (km/s) = 3.67040 4.11695 3.90007
# Velocity P-wave (km/s) = 5.23855 5.96834 5.61532
#
# Compressibility (1/GPa) = 0.04903192
#
# Stress axis : x y z
#
# Youngs Moduli (GPa) = 40.12722 40.12786 85.60788
#
# Poissons Ratio (x) = -0.14773 0.42490
# Poissons Ratio (y) = -0.14772 0.42489
# Poissons Ratio (z) = 0.19917 0.19916
#
# Static dielectric constant tensor:
#      x y z
#    x 1.820130 0.000000 0.000000 
#    y 0.000000 1.820130 0.000000 
#    z 0.000000 0.000000 1.806890 
# 
# From -- ./inp_files/3505.got.cif
#   From: 2010.05.17/outbox.cif.g08.bks.cpg/sg148_2_cif.got.tgz:3505.got - 2010.05.20 13:50:20.
