data_PCOD9575397
_publ_section_title
;
Structure prediction by ZEFSAII (Michael W. Deem and Ramdas Pophale) SiO2 
 PCOD9575397
Probable space group: P 3 2 1
;
_chemical_formula_sum "Si O2"
_cell_formula_units_Z 24
_cell_length_a 13.511285
_cell_length_b 13.511285
_cell_length_c 5.640828
_cell_angle_alpha 90.000000
_cell_angle_beta 90.000000
_cell_angle_gamma 120.000000
_cell_volume 891.798626
_symmetry_space_group_name_H-M "P 3 2 1"
_symmetry_group_IT_number 150
_symmetry_cell_setting 'hexagonal'
loop_
_space_group_symop_operation_xyz
x,y,z
-y,x-y,z
-x+y,-x,z
x-y,-y,-z
-x,-x+y,-z
y,x,-z
loop_
_atom_site_type_symbol
_atom_site_label
_atom_site_fract_x
_atom_site_fract_y
_atom_site_fract_z
Si Si1 0.879570 0.276407 0.750000
Si Si2 0.661349 0.516365 0.250000
Si Si3 0.643785 0.062549 0.250000
Si Si4 0.817637 0.974255 0.250000
O O1 0.818702 0.278493 0.506229
O O2 0.879994 0.158361 0.750000
O O3 0.008060 0.384976 0.750000
O O4 0.818702 0.278493 0.993771
O O5 0.550951 0.391264 0.250000
O O6 0.589400 0.000000 0.500000
O O7 0.760473 0.056921 0.250000
O O8 0.589400 0.000000 0.000000
O O9 0.878252 0.000000 0.500000
O O10 0.878252 0.000000 0.000000
#
# Coordination Sequence:
#
# PCOD9575397 Si02
#       4
#     6   6   6   6
#     4  10  18  30  49  77  98 127 172 218 247 293
#     4  10  17  30  53  75  96 125 176 218 245 288
#     4  10  16  30  48  74  97 136 168 206 256 301
#     4  10  21  32  48  74 109 134 162 206 270 306
#
# _framework density 26.911905000000001
#
# number of rings (size 3 to 8) (size 9 to 14) (size 15 to 20)
#    0.000    2.000    5.000    1.500    0.000    0.000 
#    0.000    0.000    0.000    1.000    0.000    0.000 
#  200.000    0.000    0.000    0.000    0.000    0.000 
#
# Total GULP energy -134051.106429 kJ/mol
# GULP energy per Si atom -5585.462768 kJ/mol
# Density = 2.685065 g / cm^3
# Si number density = 26.911905 Si / 1000 Ang^3
#
#
#
# Elastic Constant Matrix: (Units=GPa)
#
#
# Indices 1 2 3 4 5 6 
#
# 1 127.6369 24.1099 55.0965 0.0000 0.0000 0.0000
# 2 24.1099 127.6369 55.0965 0.0000 0.0000 0.0000
# 3 55.0965 55.0965 346.6031 0.0000 0.0000 0.0000
# 4 0.0000 0.0000 0.0000 542.0481 0.0000 0.0000
# 5 0.0000 0.0000 0.0000 0.0000 542.0481 0.0000
# 6 0.0000 0.0000 0.0000 0.0000 0.0000 51.7635
#
#
#
# Elastic Compliance Matrix: (Units=1/GPa)
#
#
# Indices 1 2 3 4 5 6 
#
# 1 0.008555 -0.001105 -0.001184 0.000000 0.000000 0.000000
# 2 -0.001105 0.008555 -0.001184 0.000000 0.000000 0.000000
# 3 -0.001184 -0.001184 0.003262 0.000000 0.000000 0.000000
# 4 0.000000 0.000000 0.000000 0.001845 0.000000 0.000000
# 5 0.000000 0.000000 0.000000 0.000000 0.001845 0.000000
# 6 0.000000 0.000000 0.000000 0.000000 0.000000 0.019319
#
#
# Mechanical properties :
#
#
# Convention : Reuss Voigt Hill
#
# Bulk Modulus (GPa) = 74.49107 96.72029 85.60568
# Shear Modulus (GPa) = 91.24026 258.34356 174.79191
#
# Velocity S-wave (km/s) = 5.82897 9.80838 8.06788
# Velocity P-wave (km/s) = 8.54647 12.81757 10.89340
#
# Compressibility (1/GPa) = 0.01342443
#
# Stress axis : x y z
#
# Youngs Moduli (GPa) = 116.89626 116.89626 306.59411
#
# Poissons Ratio (x) = 0.12914 0.36308
# Poissons Ratio (y) = 0.12914 0.36308
# Poissons Ratio (z) = 0.13843 0.13843
#
# Static dielectric constant tensor:
#      x y z
#    x 2.164540 0.000000 0.000000 
#    y 0.000000 2.164540 0.000000 
#    z 0.000000 0.000000 2.063980 
# 
# From -- ./inp_files/166.got.cif
#   From: 2010.05.17/outbox.cif.g08.bks.cpg/sg150_cif.got.tgz:166.got - 2010.05.20 13:53:18.
