data_PCOD9575237
_publ_section_title
;
Structure prediction by ZEFSAII (Michael W. Deem and Ramdas Pophale) SiO2 
 PCOD9575237
Probable space group: R -3
;
_chemical_formula_sum "Si O2"
_cell_formula_units_Z 108
_cell_length_a 23.102144
_cell_length_b 23.102144
_cell_length_c 14.563202
_cell_angle_alpha 90.000000
_cell_angle_beta 90.000000
_cell_angle_gamma 120.000000
_cell_volume 6731.193547
_symmetry_space_group_name_H-M "R -3"
_symmetry_group_IT_number 148
_symmetry_cell_setting 'hexagonal'
loop_
_space_group_symop_operation_xyz
x,y,z
-y,x-y,z
-x+y,-x,z
-x,-y,-z
y,-x+y,-z
x-y,x,-z
2/3+x,1/3+y,1/3+z
2/3-y,1/3+x-y,1/3+z
2/3-x+y,1/3-x,1/3+z
2/3-x,1/3-y,1/3-z
2/3+y,1/3-x+y,1/3-z
2/3+x-y,1/3+x,1/3-z
1/3+x,2/3+y,2/3+z
1/3-y,2/3+x-y,2/3+z
1/3-x+y,2/3-x,2/3+z
1/3-x,2/3-y,2/3-z
1/3+y,2/3-x+y,2/3-z
1/3+x-y,2/3+x,2/3-z
loop_
_atom_site_type_symbol
_atom_site_label
_atom_site_fract_x
_atom_site_fract_y
_atom_site_fract_z
Si Si1 0.689600 0.529242 0.937690
Si Si2 0.030595 0.846924 0.600278
Si Si3 0.718925 0.058301 0.939986
Si Si4 0.158302 0.318771 0.181995
Si Si5 0.224843 0.442099 0.320565
Si Si6 0.008140 0.625840 0.773845
O O1 0.754783 0.522807 0.953127
O O2 0.655449 0.494305 0.840704
O O3 0.628031 0.491964 0.005980
O O4 0.704598 0.604714 0.933495
O O5 0.029365 0.778944 0.629998
O O6 0.964610 0.839053 0.646490
O O7 0.791206 0.108013 0.895346
O O8 0.669504 0.011648 0.858731
O O9 0.713220 0.013469 0.027625
O O10 0.201855 0.393056 0.229561
O O11 0.114289 0.272836 0.264624
O O12 0.209520 0.295810 0.146032
#
# Coordination Sequence:
#
# PCOD9575237 Si02
#       6
#    18  18  18  18  18  18
#     4  11  18  31  49  78 113 138 170 212 264 326
#     4  11  18  31  49  78 113 138 170 212 264 326
#     4  11  20  33  54  81 111 140 177 219 269 325
#     4  11  20  34  57  76 103 145 186 221 264 322
#     4  11  20  34  55  78 105 145 182 219 268 324
#     4  11  20  33  54  81 111 140 177 219 269 325
#
# _framework density 16.044702000000001
#
# number of rings (size 3 to 8) (size 9 to 14) (size 15 to 20)
#    0.000    1.000   10.000    2.000    0.000    0.000 
#    1.000    1.667    3.667    0.000    0.000    0.000 
#    0.000    1.333    0.000    0.000    0.000    0.000 
#
# Total GULP energy -200446.672784 kJ/mol
# GULP energy per Si atom -5567.963133 kJ/mol
# Density = 1.600818 g / cm^3
# Si number density = 16.044702 Si / 1000 Ang^3
#
#
#
# Elastic Constant Matrix: (Units=GPa)
#
#
# Indices 1 2 3 4 5 6 
#
# 1 56.8099 18.6530 29.4605 1.7811 -0.9735 0.0000
# 2 18.6530 56.8099 29.4605 -1.7811 0.9734 0.0000
# 3 29.4605 29.4605 53.2694 0.0000 0.0000 0.0000
# 4 1.7811 -1.7811 0.0000 21.2421 0.0000 0.9735
# 5 -0.9735 0.9734 0.0000 0.0000 21.2421 1.7811
# 6 0.0000 0.0000 0.0000 0.9735 1.7811 19.0785
#
#
#
# Elastic Compliance Matrix: (Units=1/GPa)
#
#
# Indices 1 2 3 4 5 6 
#
# 1 0.024900 -0.001577 -0.012899 -0.002220 0.001213 0.000000
# 2 -0.001577 0.024900 -0.012899 0.002220 -0.001213 0.000000
# 3 -0.012899 -0.012899 0.033040 0.000000 0.000000 0.000000
# 4 -0.002220 0.002220 0.000000 0.047560 0.000000 -0.002427
# 5 0.001213 -0.001213 0.000000 0.000000 0.047560 -0.004440
# 6 0.000000 0.000000 0.000000 -0.002427 -0.004440 0.052953
#
#
# Mechanical properties :
#
#
# Convention : Reuss Voigt Hill
#
# Bulk Modulus (GPa) = 35.59900 35.78191 35.69046
# Shear Modulus (GPa) = 16.94778 18.26687 17.60733
#
# Velocity S-wave (km/s) = 3.25358 3.37782 3.31628
# Velocity P-wave (km/s) = 6.02909 6.12884 6.07917
#
# Compressibility (1/GPa) = 0.02809068
#
# Stress axis : x y z
#
# Youngs Moduli (GPa) = 40.16115 40.16115 30.26680
#
# Poissons Ratio (x) = 0.06333 0.39040
# Poissons Ratio (y) = 0.06333 0.39040
# Poissons Ratio (z) = 0.51802 0.51802
#
# Static dielectric constant tensor:
#      x y z
#    x 1.566680 0.000000 0.000000 
#    y 0.000000 1.566680 0.000000 
#    z 0.000000 0.000000 1.552300 
# 
# From -- ./inp_files/2184.got.cif
#   From: 2010.05.17/outbox.cif.g08.bks.cpg/sg148_2_cif.got.tgz:2184.got - 2010.05.20 13:50:20.
