data_PCOD9575943
_publ_section_title
;
Structure prediction by ZEFSAII (Michael W. Deem and Ramdas Pophale) SiO2 
 PCOD9575943
Probable space group: P 31 2 1
;
_chemical_formula_sum "Si O2"
_cell_formula_units_Z 36
_cell_length_a 8.801011
_cell_length_b 8.801011
_cell_length_c 25.298725
_cell_angle_alpha 90.000000
_cell_angle_beta 90.000000
_cell_angle_gamma 120.000000
_cell_volume 1697.049044
_symmetry_space_group_name_H-M "P 31 2 1"
_symmetry_group_IT_number 152
_symmetry_cell_setting 'hexagonal'
loop_
_space_group_symop_operation_xyz
x,y,z
-y,x-y,1/3+z
-x+y,-x,2/3+z
x-y,-y,2/3-z
-x,-x+y,1/3-z
y,x,-z
loop_
_atom_site_type_symbol
_atom_site_label
_atom_site_fract_x
_atom_site_fract_y
_atom_site_fract_z
Si Si1 0.821823 0.479587 0.363086
Si Si2 0.015204 0.888673 0.949213
Si Si3 0.128608 0.922780 0.557382
Si Si4 0.414557 0.150482 0.217318
Si Si5 0.824311 0.321173 0.925636
Si Si6 0.900825 0.494392 0.722469
O O1 0.843126 0.669423 0.375395
O O2 0.784305 0.456215 0.300915
O O3 0.001352 0.486128 0.380719
O O4 0.657192 0.306113 0.387437
O O5 0.059056 0.018754 0.899910
O O6 0.974823 0.974823 0.000000
O O7 0.840859 0.710527 0.933203
O O8 0.177352 0.870743 0.502043
O O9 0.303081 0.106127 0.570595
O O10 0.100481 0.773316 0.599204
O O11 0.584406 0.343037 0.218565
O O12 0.465529 0.003696 0.229839
O O13 0.000000 0.515500 0.666667
#
# Coordination Sequence:
#
# PCOD9575943 Si02
#       6
#     6   6   6   6   6   6
#     4  10  22  36  60  88 117 153 208 258 298 361
#     4  11  22  39  62  89 119 164 211 260 312 381
#     4  11  23  39  61  90 127 164 206 255 325 380
#     4  11  23  39  61  90 129 163 202 261 323 378
#     4  10  21  38  58  86 121 156 201 253 307 367
#     4  11  22  39  64  94 122 166 215 258 310 383
#
# _framework density 21.213293
#
# number of rings (size 3 to 8) (size 9 to 14) (size 15 to 20)
#    0.000    1.333    3.333    2.500    4.667    0.000 
#    0.000    0.000    0.000    6.000    0.000    0.000 
#    0.000    0.000    0.000    0.000    0.000    0.000 
#
# Total GULP energy -200835.518910 kJ/mol
# GULP energy per Si atom -5578.764414 kJ/mol
# Density = 2.116501 g / cm^3
# Si number density = 21.213293 Si / 1000 Ang^3
#
#
#
# Elastic Constant Matrix: (Units=GPa)
#
#
# Indices 1 2 3 4 5 6 
#
# 1 63.9005 24.2668 -4.9976 0.1899 0.0000 0.0000
# 2 24.2668 63.9005 -4.9976 -0.1899 0.0000 0.0000
# 3 -4.9976 -4.9976 34.9301 0.0000 0.0000 0.0000
# 4 0.1899 -0.1899 0.0000 21.5721 0.0000 0.0000
# 5 0.0000 0.0000 0.0000 0.0000 21.5721 0.1899
# 6 0.0000 0.0000 0.0000 0.0000 0.1899 19.8169
#
#
#
# Elastic Compliance Matrix: (Units=1/GPa)
#
#
# Indices 1 2 3 4 5 6 
#
# 1 0.018381 -0.006852 0.001649 -0.000222 0.000000 0.000000
# 2 -0.006852 0.018381 0.001649 0.000222 0.000000 0.000000
# 3 0.001649 0.001649 0.029101 0.000000 0.000000 0.000000
# 4 -0.000222 0.000222 0.000000 0.046360 0.000000 0.000000
# 5 0.000000 0.000000 0.000000 0.000000 0.046360 -0.000444
# 6 0.000000 0.000000 0.000000 0.000000 -0.000444 0.050466
#
#
# Mechanical properties :
#
#
# Convention : Reuss Voigt Hill
#
# Bulk Modulus (GPa) = 17.01934 21.25274 19.13604
# Shear Modulus (GPa) = 21.20971 22.48951 21.84961
#
# Velocity S-wave (km/s) = 3.16544 3.25954 3.21284
# Velocity P-wave (km/s) = 4.62606 4.92001 4.77530
#
# Compressibility (1/GPa) = 0.05875668
#
# Stress axis : x y z
#
# Youngs Moduli (GPa) = 54.40366 54.40366 34.36358
#
# Poissons Ratio (x) = 0.37278 -0.05668
# Poissons Ratio (y) = 0.37278 -0.05668
# Poissons Ratio (z) = -0.08974 -0.08974
#
# Static dielectric constant tensor:
#      x y z
#    x 1.782310 0.000000 0.000000 
#    y 0.000000 1.782310 0.000000 
#    z 0.000000 0.000000 1.802800 
# 
# From -- ./inp_files/3419.got.cif
#   From: 2010.05.17/outbox.cif.g08.bks.cpg/sg152_2_cif.got.tgz:3419.got - 2010.05.20 10:36:06.
