data_PCOD9575172
_publ_section_title
;
Structure prediction by ZEFSAII (Michael W. Deem and Ramdas Pophale) SiO2 
 PCOD9575172
Probable space group: R -3
;
_chemical_formula_sum "Si O2"
_cell_formula_units_Z 108
_cell_length_a 19.359000
_cell_length_b 19.359000
_cell_length_c 15.405777
_cell_angle_alpha 90.000000
_cell_angle_beta 90.000000
_cell_angle_gamma 120.000000
_cell_volume 5000.115984
_symmetry_space_group_name_H-M "R -3"
_symmetry_group_IT_number 148
_symmetry_cell_setting 'hexagonal'
loop_
_space_group_symop_operation_xyz
x,y,z
-y,x-y,z
-x+y,-x,z
-x,-y,-z
y,-x+y,-z
x-y,x,-z
2/3+x,1/3+y,1/3+z
2/3-y,1/3+x-y,1/3+z
2/3-x+y,1/3-x,1/3+z
2/3-x,1/3-y,1/3-z
2/3+y,1/3-x+y,1/3-z
2/3+x-y,1/3+x,1/3-z
1/3+x,2/3+y,2/3+z
1/3-y,2/3+x-y,2/3+z
1/3-x+y,2/3-x,2/3+z
1/3-x,2/3-y,2/3-z
1/3+y,2/3-x+y,2/3-z
1/3+x-y,2/3+x,2/3-z
loop_
_atom_site_type_symbol
_atom_site_label
_atom_site_fract_x
_atom_site_fract_y
_atom_site_fract_z
Si Si1 0.311488 0.172420 0.291598
Si Si2 0.917785 0.482917 0.128549
Si Si3 0.572368 0.879490 0.102171
Si Si4 0.684007 0.964274 0.818357
Si Si5 0.258755 0.770383 0.632104
Si Si6 0.812416 0.233395 0.730195
O O1 0.256393 0.156793 0.374333
O O2 0.300618 0.094338 0.243198
O O3 0.303354 0.236068 0.229414
O O4 0.401795 0.219601 0.324853
O O5 0.938121 0.564410 0.179095
O O6 0.858965 0.415058 0.194325
O O7 0.995532 0.477826 0.099335
O O8 0.892555 0.494732 0.032519
O O9 0.542067 0.840995 0.196071
O O10 0.502898 0.891039 0.063211
O O11 0.654899 0.965429 0.108649
O O12 0.347380 0.805835 0.666886
#
# Coordination Sequence:
#
# PCOD9575172 Si02
#       6
#    18  18  18  18  18  18
#     4  11  23  39  64  98 127 172 215 280 326 402
#     4  10  22  41  60  94 128 171 213 269 334 392
#     4  11  24  41  67  95 133 173 222 274 336 398
#     4  10  24  38  63  97 133 166 218 273 339 392
#     4  12  24  42  65  94 132 175 221 271 339 411
#     4  10  24  39  65  93 130 172 214 274 331 395
#
# _framework density 21.599499999999999
#
# number of rings (size 3 to 8) (size 9 to 14) (size 15 to 20)
#    0.000    1.333    3.333    1.167    9.333    1.333 
#    0.000    0.000    0.000    0.333    0.000    0.000 
#    0.000    0.000    0.000    0.000    0.000    0.000 
#
# Total GULP energy -200872.960344 kJ/mol
# GULP energy per Si atom -5579.804454 kJ/mol
# Density = 2.155034 g / cm^3
# Si number density = 21.599500 Si / 1000 Ang^3
#
#
#
# Elastic Constant Matrix: (Units=GPa)
#
#
# Indices 1 2 3 4 5 6 
#
# 1 51.1037 33.0373 16.5291 4.9523 12.0922 0.0000
# 2 33.0373 51.1037 16.5291 -4.9523 -12.0922 0.0000
# 3 16.5291 16.5291 105.5874 0.0000 0.0000 0.0000
# 4 4.9523 -4.9523 0.0000 26.4470 0.0000 -12.0922
# 5 12.0922 -12.0922 0.0000 0.0000 26.4470 4.9523
# 6 0.0000 0.0000 0.0000 -12.0922 4.9523 9.0332
#
#
#
# Elastic Compliance Matrix: (Units=1/GPa)
#
#
# Indices 1 2 3 4 5 6 
#
# 1 0.103343 -0.090679 -0.001982 -0.036331 -0.088712 0.000000
# 2 -0.090679 0.103343 -0.001982 0.036331 0.088712 0.000000
# 3 -0.001982 -0.001982 0.010092 0.000000 0.000000 0.000000
# 4 -0.036331 0.036331 0.000000 0.132540 0.000000 0.177424
# 5 -0.088712 0.088712 0.000000 0.000000 0.132540 -0.072662
# 6 0.000000 0.000000 0.000000 0.177424 -0.072662 0.388045
#
#
# Mechanical properties :
#
#
# Convention : Reuss Voigt Hill
#
# Bulk Modulus (GPa) = 36.37794 37.77617 37.07705
# Shear Modulus (GPa) = 4.68009 21.83204 13.25606
#
# Velocity S-wave (km/s) = 1.47359 3.18270 2.48003
# Velocity P-wave (km/s) = 4.44678 5.57077 5.04021
#
# Compressibility (1/GPa) = 0.02748919
#
# Stress axis : x y z
#
# Youngs Moduli (GPa) = 9.67650 9.67650 99.09325
#
# Poissons Ratio (x) = 0.87746 0.19645
# Poissons Ratio (y) = 0.87746 0.19645
# Poissons Ratio (z) = 0.01918 0.01918
#
# Static dielectric constant tensor:
#      x y z
#    x 1.781960 0.000000 0.000000 
#    y 0.000000 1.781960 0.000000 
#    z 0.000000 0.000000 1.902250 
# 
# From -- ./inp_files/2063.got.cif
#   From: 2010.05.17/outbox.cif.g08.bks.cpg/sg148_2_cif.got.tgz:2063.got - 2010.05.20 13:50:20.
