data_PCOD9575465
_publ_section_title
;
Structure prediction by ZEFSAII (Michael W. Deem and Ramdas Pophale) SiO2 
 PCOD9575465
Probable space group: P 3 2 1
;
_chemical_formula_sum "Si O2"
_cell_formula_units_Z 20
_cell_length_a 10.270941
_cell_length_b 10.270941
_cell_length_c 8.856738
_cell_angle_alpha 90.000000
_cell_angle_beta 90.000000
_cell_angle_gamma 120.000000
_cell_volume 809.142286
_symmetry_space_group_name_H-M "P 3 2 1"
_symmetry_group_IT_number 150
_symmetry_cell_setting 'hexagonal'
loop_
_space_group_symop_operation_xyz
x,y,z
-y,x-y,z
-x+y,-x,z
x-y,-y,-z
-x,-x+y,-z
y,x,-z
loop_
_atom_site_type_symbol
_atom_site_label
_atom_site_fract_x
_atom_site_fract_y
_atom_site_fract_z
Si Si1 0.000000 0.000000 0.316611
Si Si2 0.338049 0.213654 0.704222
Si Si3 0.545755 0.550229 0.178330
Si Si4 0.254150 0.778999 0.591294
O O1 0.836433 0.960701 0.257114
O O2 0.000000 0.000000 0.500000
O O3 0.431327 0.143771 0.780262
O O4 0.418858 0.388223 0.751286
O O5 0.344876 0.173711 0.527038
O O6 0.698911 0.557066 0.244981
O O7 0.533114 0.533114 0.000000
O O8 0.176816 0.602016 0.552902
#
# Coordination Sequence:
#
# PCOD9575465 Si02
#       4
#     2   6   6   6
#     4  12  30  42  82 116 166 192 262 326 412 459
#     4  12  27  51  74 118 153 211 260 332 389 491
#     4  12  28  47  79 108 159 202 269 320 401 469
#     4  10  23  45  77 102 142 197 261 313 374 453
#
# _framework density 24.717528999999999
#
# number of rings (size 3 to 8) (size 9 to 14) (size 15 to 20)
#    0.600    0.000    3.000    3.300   12.600    0.000 
#    0.000    1.500    0.000    0.000    0.000    0.000 
#    0.000    0.000    0.000    0.000    0.000    0.000 
#
# Total GULP energy -111463.653355 kJ/mol
# GULP energy per Si atom -5573.182668 kJ/mol
# Density = 2.466127 g / cm^3
# Si number density = 24.717529 Si / 1000 Ang^3
#
#
#
# Elastic Constant Matrix: (Units=GPa)
#
#
# Indices 1 2 3 4 5 6 
#
# 1 151.7331 84.6582 42.9014 -10.1568 0.0000 0.0000
# 2 84.6582 151.7331 42.9014 10.1568 0.0000 0.0000
# 3 42.9014 42.9014 133.8194 0.0000 0.0000 0.0000
# 4 -10.1568 10.1568 0.0000 12.0352 0.0000 0.0000
# 5 0.0000 0.0000 0.0000 0.0000 12.0352 -10.1568
# 6 0.0000 0.0000 0.0000 0.0000 -10.1568 33.5374
#
#
#
# Elastic Compliance Matrix: (Units=1/GPa)
#
#
# Indices 1 2 3 4 5 6 
#
# 1 0.012407 -0.007620 -0.001535 0.016901 0.000000 0.000000
# 2 -0.007620 0.012407 -0.001535 -0.016901 0.000000 0.000000
# 3 -0.001535 -0.001535 0.008457 0.000000 0.000000 0.000000
# 4 0.016901 -0.016901 0.000000 0.111616 0.000000 0.000000
# 5 0.000000 0.000000 0.000000 0.000000 0.111616 0.033803
# 6 0.000000 0.000000 0.000000 0.000000 0.033803 0.040055
#
#
# Mechanical properties :
#
#
# Convention : Reuss Voigt Hill
#
# Bulk Modulus (GPa) = 84.08732 86.46752 85.27742
# Shear Modulus (GPa) = 15.53268 29.30987 22.42128
#
# Velocity S-wave (km/s) = 2.50953 3.44727 3.01508
# Velocity P-wave (km/s) = 6.51844 7.13464 6.83349
#
# Compressibility (1/GPa) = 0.01189240
#
# Stress axis : x y z
#
# Youngs Moduli (GPa) = 80.59747 80.59747 118.24747
#
# Poissons Ratio (x) = 0.61415 0.18148
# Poissons Ratio (y) = 0.61415 0.18148
# Poissons Ratio (z) = 0.12370 0.12370
#
# Static dielectric constant tensor:
#      x y z
#    x 2.061830 0.000000 0.000000 
#    y 0.000000 2.061830 0.000000 
#    z 0.000000 0.000000 2.024900 
# 
# From -- ./inp_files/462.got.cif
#   From: 2010.05.17/outbox.cif.g08.bks.cpg/sg150_cif.got.tgz:462.got - 2010.05.20 13:53:18.
