data_PCOD9575623
_publ_section_title
;
Structure prediction by ZEFSAII (Michael W. Deem and Ramdas Pophale) SiO2 
 PCOD9575623
Probable space group: P 31 1 2
;
_chemical_formula_sum "Si O2"
_cell_formula_units_Z 42
_cell_length_a 8.960184
_cell_length_b 8.960184
_cell_length_c 30.445525
_cell_angle_alpha 90.000000
_cell_angle_beta 90.000000
_cell_angle_gamma 120.000000
_cell_volume 2116.839619
_symmetry_space_group_name_H-M "P 31 1 2"
_symmetry_group_IT_number 151
_symmetry_cell_setting 'hexagonal'
loop_
_space_group_symop_operation_xyz
x,y,z
-y,x-y,1/3+z
-x+y,-x,2/3+z
-y,-x,2/3-z
-x+y,y,1/3-z
x,x-y,-z
loop_
_atom_site_type_symbol
_atom_site_label
_atom_site_fract_x
_atom_site_fract_y
_atom_site_fract_z
Si Si1 0.126991 0.873010 0.833334
Si Si2 0.178630 0.589315 0.500000
Si Si3 0.297725 0.066955 0.125143
Si Si4 0.469795 0.832931 0.438522
Si Si5 0.465472 0.907500 0.993082
Si Si6 0.632832 0.216866 0.880804
Si Si7 0.742413 0.558208 0.305161
Si Si8 0.777756 0.844101 0.699152
O O1 0.194275 0.814142 0.791628
O O2 0.926183 0.781377 0.825788
O O3 0.067010 0.394827 0.485054
O O4 0.294669 0.683370 0.457769
O O5 0.174320 0.993778 0.083053
O O6 0.483898 0.220152 0.108884
O O7 0.489994 0.861532 0.387309
O O8 0.486989 0.010053 0.456438
O O9 0.644254 0.087754 0.990082
O O10 0.502240 0.751120 0.000000
O O11 0.326459 0.917123 0.024389
O O12 0.710015 0.289986 0.833334
O O13 0.766279 0.271615 0.921051
O O14 0.577892 0.422109 0.333334
O O15 0.765657 0.748841 0.307224
O O16 0.920579 0.841157 0.666667
#
# Coordination Sequence:
#
# PCOD9575623 Si02
#       8
#     3   3   6   6   6   6   6   6
#     4   9  20  40  60  85 124 170 216 259 336 379
#     4  11  22  38  60  95 130 164 220 265 336 397
#     4  11  23  42  64  95 128 174 216 279 330 400
#     4   9  21  39  62  87 127 169 209 268 329 392
#     4  11  22  44  69  96 133 173 224 276 337 398
#     4  10  21  42  65  94 128 175 221 277 338 396
#     4  11  25  44  68 100 134 181 229 279 337 404
#     4  12  25  44  67  97 140 176 229 274 339 400
#
# _framework density 19.840899
#
# number of rings (size 3 to 8) (size 9 to 14) (size 15 to 20)
#    0.000    1.429    0.714    5.571    2.000    2.286 
#   12.857    0.000    0.000    0.000    0.000    0.000 
#    0.000    0.000    0.000    0.000    0.000    0.000 
#
# Total GULP energy -234531.472888 kJ/mol
# GULP energy per Si atom -5584.082688 kJ/mol
# Density = 1.979574 g / cm^3
# Si number density = 19.840899 Si / 1000 Ang^3
#
#
#
# Elastic Constant Matrix: (Units=GPa)
#
#
# Indices 1 2 3 4 5 6 
#
# 1 93.2908 43.3870 41.3273 0.0001 -10.1928 0.0000
# 2 43.3870 93.2908 41.3273 -0.0001 10.1928 0.0000
# 3 41.3273 41.3273 70.5261 0.0000 0.0000 0.0000
# 4 0.0001 -0.0001 0.0000 42.0606 0.0000 10.1928
# 5 -10.1928 10.1928 0.0000 0.0000 42.0606 0.0001
# 6 0.0000 0.0000 0.0000 10.1928 0.0001 24.9519
#
#
#
# Elastic Compliance Matrix: (Units=1/GPa)
#
#
# Indices 1 2 3 4 5 6 
#
# 1 0.016786 -0.005454 -0.006641 0.000000 0.005390 0.000000
# 2 -0.005454 0.016786 -0.006641 0.000000 -0.005390 0.000000
# 3 -0.006641 -0.006641 0.021962 0.000000 0.000000 0.000000
# 4 0.000000 0.000000 0.000000 0.026387 0.000000 -0.010779
# 5 0.005390 -0.005390 0.000000 0.000000 0.026387 0.000000
# 6 0.000000 0.000000 0.000000 -0.010779 0.000000 0.044480
#
#
# Mechanical properties :
#
#
# Convention : Reuss Voigt Hill
#
# Bulk Modulus (GPa) = 55.35862 56.57677 55.96770
# Shear Modulus (GPa) = 25.47373 30.55239 28.01306
#
# Velocity S-wave (km/s) = 3.58704 3.92837 3.76158
# Velocity P-wave (km/s) = 6.71697 7.01094 6.86553
#
# Compressibility (1/GPa) = 0.01806403
#
# Stress axis : x y z
#
# Youngs Moduli (GPa) = 59.57266 59.57266 45.53386
#
# Poissons Ratio (x) = 0.32491 0.30237
# Poissons Ratio (y) = 0.32491 0.30237
# Poissons Ratio (z) = 0.39560 0.39560
#
# Static dielectric constant tensor:
#      x y z
#    x 1.706070 0.000000 0.000000 
#    y 0.000000 1.706070 0.000000 
#    z 0.000000 0.000000 1.689130 
# 
# From -- ./inp_files/5061.got.cif
#   From: 2010.05.17/outbox.cif.g08.bks.cpg/sg151_3_cif.got.tgz:5061.got - 2010.05.20 10:33:20.
