data_PCOD9575960
_publ_section_title
;
Structure prediction by ZEFSAII (Michael W. Deem and Ramdas Pophale) SiO2 
 PCOD9575960
Probable space group: P 31 2 1
;
_chemical_formula_sum "Si O2"
_cell_formula_units_Z 36
_cell_length_a 8.626201
_cell_length_b 8.626201
_cell_length_c 27.683066
_cell_angle_alpha 90.000000
_cell_angle_beta 90.000000
_cell_angle_gamma 120.000000
_cell_volume 1783.955294
_symmetry_space_group_name_H-M "P 31 2 1"
_symmetry_group_IT_number 152
_symmetry_cell_setting 'hexagonal'
loop_
_space_group_symop_operation_xyz
x,y,z
-y,x-y,1/3+z
-x+y,-x,2/3+z
x-y,-y,2/3-z
-x,-x+y,1/3-z
y,x,-z
loop_
_atom_site_type_symbol
_atom_site_label
_atom_site_fract_x
_atom_site_fract_y
_atom_site_fract_z
Si Si1 0.885064 0.645474 0.118581
Si Si2 0.734619 0.263138 0.469091
Si Si3 0.714859 0.789914 0.052625
Si Si4 0.396102 0.549211 0.384456
Si Si5 0.004097 0.509228 0.386530
Si Si6 0.390757 0.501268 0.103467
O O1 0.708875 0.457654 0.130846
O O2 0.840144 0.788273 0.094949
O O3 0.000000 0.717535 0.166667
O O4 0.989163 0.603426 0.077550
O O5 0.878694 0.392776 0.430170
O O6 0.812441 0.348073 0.521019
O O7 0.676334 0.057619 0.457743
O O8 0.536333 0.594529 0.060613
O O9 0.656218 0.938103 0.057095
O O10 0.793516 0.793516 0.000000
O O11 0.464302 0.564953 0.330193
O O12 0.515940 0.727209 0.415595
O O13 0.192563 0.511878 0.385566
#
# Coordination Sequence:
#
# PCOD9575960 Si02
#       6
#     6   6   6   6   6   6
#     4  11  22  41  67  92 128 171 209 270 336 391
#     4  11  23  42  64  94 128 172 216 270 324 396
#     4  10  21  39  64  90 124 172 214 255 330 399
#     4  11  22  42  63  95 126 168 215 268 329 388
#     4  11  24  40  67  90 128 168 219 267 322 397
#     4  10  22  37  65  90 127 165 221 257 321 395
#
# _framework density 20.179877999999999
#
# number of rings (size 3 to 8) (size 9 to 14) (size 15 to 20)
#    0.000    1.333    3.333    3.000    9.333    0.000 
#    0.000    5.833    0.000    0.000    0.000    0.000 
#    0.000    0.000    0.000    0.000    0.000    0.000 
#
# Total GULP energy -201113.401819 kJ/mol
# GULP energy per Si atom -5586.483384 kJ/mol
# Density = 2.013395 g / cm^3
# Si number density = 20.179878 Si / 1000 Ang^3
#
#
#
# Elastic Constant Matrix: (Units=GPa)
#
#
# Indices 1 2 3 4 5 6 
#
# 1 74.1509 19.6619 23.1437 -4.0796 -0.0002 0.0000
# 2 19.6619 74.1509 23.1437 4.0796 0.0002 0.0000
# 3 23.1437 23.1437 107.7678 0.0000 0.0000 0.0000
# 4 -4.0796 4.0796 0.0000 33.5447 0.0000 0.0002
# 5 -0.0002 0.0002 0.0000 0.0000 33.5447 -4.0796
# 6 0.0000 0.0000 0.0000 0.0002 -4.0796 27.2445
#
#
#
# Elastic Compliance Matrix: (Units=1/GPa)
#
#
# Indices 1 2 3 4 5 6 
#
# 1 0.015308 -0.003385 -0.002561 0.002273 0.000000 0.000000
# 2 -0.003385 0.015308 -0.002561 -0.002273 0.000000 0.000000
# 3 -0.002561 -0.002561 0.010379 0.000000 0.000000 0.000000
# 4 0.002273 -0.002273 0.000000 0.030364 0.000000 0.000000
# 5 0.000000 0.000000 0.000000 0.000000 0.030364 0.004547
# 6 0.000000 0.000000 0.000000 0.000000 0.004547 0.037385
#
#
# Mechanical properties :
#
#
# Convention : Reuss Voigt Hill
#
# Bulk Modulus (GPa) = 41.69670 43.10760 42.40215
# Shear Modulus (GPa) = 30.46663 31.54146 31.00404
#
# Velocity S-wave (km/s) = 3.88977 3.95779 3.92393
# Velocity P-wave (km/s) = 6.39383 6.50334 6.44882
#
# Compressibility (1/GPa) = 0.02398272
#
# Stress axis : x y z
#
# Youngs Moduli (GPa) = 65.32617 65.32617 96.34857
#
# Poissons Ratio (x) = 0.22112 0.24670
# Poissons Ratio (y) = 0.22112 0.24670
# Poissons Ratio (z) = 0.16727 0.16727
#
# Static dielectric constant tensor:
#      x y z
#    x 1.724650 0.000000 0.000000 
#    y 0.000000 1.724650 0.000000 
#    z 0.000000 0.000000 1.703750 
# 
# From -- ./inp_files/3369.got.cif
#   From: 2010.05.17/outbox.cif.g08.bks.cpg/sg152_2_cif.got.tgz:3369.got - 2010.05.20 10:36:06.
