data_PCOD9575618
_publ_section_title
;
Structure prediction by ZEFSAII (Michael W. Deem and Ramdas Pophale) SiO2 
 PCOD9575618
Probable space group: P 31 1 2
;
_chemical_formula_sum "Si O2"
_cell_formula_units_Z 24
_cell_length_a 10.092130
_cell_length_b 10.092130
_cell_length_c 12.325312
_cell_angle_alpha 90.000000
_cell_angle_beta 90.000000
_cell_angle_gamma 120.000000
_cell_volume 1087.161904
_symmetry_space_group_name_H-M "P 31 1 2"
_symmetry_group_IT_number 151
_symmetry_cell_setting 'hexagonal'
loop_
_space_group_symop_operation_xyz
x,y,z
-y,x-y,1/3+z
-x+y,-x,2/3+z
-y,-x,2/3-z
-x+y,y,1/3-z
x,x-y,-z
loop_
_atom_site_type_symbol
_atom_site_label
_atom_site_fract_x
_atom_site_fract_y
_atom_site_fract_z
Si Si1 0.481015 0.518986 0.833334
Si Si2 0.067063 0.134125 0.166667
Si Si3 0.605491 0.443947 0.027009
Si Si4 0.442631 0.395474 0.429080
Si Si5 0.159735 0.893640 0.077787
O O1 0.466622 0.400615 0.741870
O O2 0.575802 0.680704 0.769428
O O3 0.113973 0.227810 0.282072
O O4 0.140712 0.024609 0.140963
O O5 0.781495 0.506194 0.056905
O O6 0.523624 0.461926 0.131086
O O7 0.532403 0.266202 0.000000
O O8 0.484272 0.515729 0.333334
O O9 0.267852 0.302242 0.459240
#
# Coordination Sequence:
#
# PCOD9575618 Si02
#       5
#     3   3   6   6   6
#     4  12  26  40  66 108 142 182 246 312 360 436
#     4  10  24  46  76 102 142 198 250 306 366 466
#     4  10  21  39  68  98 132 178 241 301 358 433
#     4  10  21  40  66  96 136 187 228 292 372 443
#     4  11  25  44  71 105 144 194 247 304 373 454
#
# _framework density 22.075827
#
# number of rings (size 3 to 8) (size 9 to 14) (size 15 to 20)
#    0.000    1.500    0.000    6.000    7.000    3.000 
#    4.500    0.000    0.000    0.000    0.000    0.000 
#    0.000    0.000    0.000    0.000    0.000    0.000 
#
# Total GULP energy -133657.279858 kJ/mol
# GULP energy per Si atom -5569.053327 kJ/mol
# Density = 2.202558 g / cm^3
# Si number density = 22.075827 Si / 1000 Ang^3
#
#
#
# Elastic Constant Matrix: (Units=GPa)
#
#
# Indices 1 2 3 4 5 6 
#
# 1 71.4719 24.5624 46.1493 0.0001 7.5154 0.0000
# 2 24.5624 71.4719 46.1493 -0.0001 -7.5154 0.0000
# 3 46.1493 46.1493 152.0048 0.0000 0.0000 0.0000
# 4 0.0001 -0.0001 0.0000 21.8604 0.0000 -7.5154
# 5 7.5154 -7.5154 0.0000 0.0000 21.8604 0.0001
# 6 0.0000 0.0000 0.0000 -7.5154 0.0001 23.4548
#
#
#
# Elastic Compliance Matrix: (Units=1/GPa)
#
#
# Indices 1 2 3 4 5 6 
#
# 1 0.019330 -0.004627 -0.004464 0.000000 -0.008236 0.000000
# 2 -0.004627 0.019330 -0.004464 0.000000 0.008236 0.000000
# 3 -0.004464 -0.004464 0.009289 0.000000 0.000000 0.000000
# 4 0.000000 0.000000 0.000000 0.051408 0.000000 0.016472
# 5 -0.008236 0.008236 0.000000 0.000000 0.051408 0.000000
# 6 0.000000 0.000000 0.000000 0.016472 0.000000 0.047913
#
#
# Mechanical properties :
#
#
# Convention : Reuss Voigt Hill
#
# Bulk Modulus (GPa) = 47.98473 58.74117 53.36295
# Shear Modulus (GPa) = 21.48375 25.30760 23.39567
#
# Velocity S-wave (km/s) = 3.12297 3.38952 3.25897
# Velocity P-wave (km/s) = 5.89809 6.47959 6.19566
#
# Compressibility (1/GPa) = 0.02083996
#
# Stress axis : x y z
#
# Youngs Moduli (GPa) = 51.73316 51.73316 107.65061
#
# Poissons Ratio (x) = 0.23935 0.48055
# Poissons Ratio (y) = 0.23935 0.48055
# Poissons Ratio (z) = 0.23094 0.23094
#
# Static dielectric constant tensor:
#      x y z
#    x 1.860060 0.000000 0.000000 
#    y 0.000000 1.860060 0.000000 
#    z 0.000000 0.000000 1.871860 
# 
# From -- ./inp_files/2414.got.cif
#   From: 2010.05.17/outbox.cif.g08.bks.cpg/sg151_2_cif.got.tgz:2414.got - 2010.05.20 10:33:20.
