data_PCOD9575674
_publ_section_title
;
Structure prediction by ZEFSAII (Michael W. Deem and Ramdas Pophale) SiO2 
 PCOD9575674
Probable space group: P 31 1 2
;
_chemical_formula_sum "Si O2"
_cell_formula_units_Z 48
_cell_length_a 11.300414
_cell_length_b 11.300414
_cell_length_c 20.949132
_cell_angle_alpha 90.000000
_cell_angle_beta 90.000000
_cell_angle_gamma 120.000000
_cell_volume 2316.783086
_symmetry_space_group_name_H-M "P 31 1 2"
_symmetry_group_IT_number 151
_symmetry_cell_setting 'hexagonal'
loop_
_space_group_symop_operation_xyz
x,y,z
-y,x-y,1/3+z
-x+y,-x,2/3+z
-y,-x,2/3-z
-x+y,y,1/3-z
x,x-y,-z
loop_
_atom_site_type_symbol
_atom_site_label
_atom_site_fract_x
_atom_site_fract_y
_atom_site_fract_z
Si Si1 0.620298 0.663602 0.325689
Si Si2 0.158616 0.685509 0.458548
Si Si3 0.466687 0.653669 0.681495
Si Si4 0.635671 0.275619 0.260568
Si Si5 0.511851 0.951051 0.897801
Si Si6 0.417712 0.210383 0.428866
Si Si7 0.393185 0.255830 0.826072
Si Si8 0.039358 0.342254 0.141084
O O1 0.487001 0.513000 0.333334
O O2 0.574749 0.768279 0.296870
O O3 0.734850 0.655475 0.284323
O O4 0.662297 0.705357 0.398380
O O5 0.221868 0.610934 0.500000
O O6 0.115483 0.588192 0.396427
O O7 0.282468 0.834447 0.445040
O O8 0.025811 0.674695 0.491412
O O9 0.331787 0.663574 0.666667
O O10 0.507189 0.606813 0.617312
O O11 0.692039 0.307962 0.333334
O O12 0.672634 0.424168 0.234656
O O13 0.701721 0.204867 0.217205
O O14 0.476526 0.186521 0.241395
O O15 0.444891 0.974649 0.834580
O O16 0.648228 0.080787 0.922994
O O17 0.357210 0.178605 0.500000
O O18 0.298439 0.094235 0.830494
O O19 0.179434 0.358867 0.166667
#
# Coordination Sequence:
#
# PCOD9575674 Si02
#       8
#     6   6   6   6   6   6   6   6
#     4  11  23  39  65 104 136 179 227 283 346 409
#     4  11  24  40  67  93 132 174 220 286 343 412
#     4   9  22  40  61  98 133 169 226 276 343 406
#     4  11  21  39  63  96 131 170 220 281 336 401
#     4  11  23  41  66 100 134 179 224 285 346 410
#     4  12  23  38  64 100 139 172 226 290 340 406
#     4  11  23  42  62 100 130 174 229 275 351 402
#     4  12  23  42  68  95 140 180 230 290 342 420
#
# _framework density 20.718382999999999
#
# number of rings (size 3 to 8) (size 9 to 14) (size 15 to 20)
#    0.000    1.000    5.000    3.000    8.750    0.000 
#    0.000    0.625    0.000    0.000    0.000    0.000 
#    0.000    0.000    0.000    0.000    0.000    0.000 
#
# Total GULP energy -267927.612067 kJ/mol
# GULP energy per Si atom -5581.825251 kJ/mol
# Density = 2.067123 g / cm^3
# Si number density = 20.718383 Si / 1000 Ang^3
#
#
#
# Elastic Constant Matrix: (Units=GPa)
#
#
# Indices 1 2 3 4 5 6 
#
# 1 100.2442 52.1839 30.3955 -0.0001 -3.9512 0.0000
# 2 52.1839 100.2442 30.3955 0.0001 3.9512 0.0000
# 3 30.3955 30.3955 113.9494 0.0000 0.0000 0.0000
# 4 -0.0001 0.0001 0.0000 25.7077 0.0000 3.9512
# 5 -3.9512 3.9512 0.0000 0.0000 25.7077 -0.0001
# 6 0.0000 0.0000 0.0000 3.9512 -0.0001 24.0302
#
#
#
# Elastic Compliance Matrix: (Units=1/GPa)
#
#
# Indices 1 2 3 4 5 6 
#
# 1 0.014344 -0.007003 -0.001958 0.000000 0.003281 0.000000
# 2 -0.007003 0.014344 -0.001958 0.000000 -0.003281 0.000000
# 3 -0.001958 -0.001958 0.009821 0.000000 0.000000 0.000000
# 4 0.000000 0.000000 0.000000 0.039907 0.000000 -0.006562
# 5 0.003281 -0.003281 0.000000 0.000000 0.039907 0.000000
# 6 0.000000 0.000000 0.000000 -0.006562 0.000000 0.042693
#
#
# Mechanical properties :
#
#
# Convention : Reuss Voigt Hill
#
# Bulk Modulus (GPa) = 59.98696 60.04308 60.01502
# Shear Modulus (GPa) = 26.53762 28.51999 27.52880
#
# Velocity S-wave (km/s) = 3.58281 3.71422 3.64911
# Velocity P-wave (km/s) = 6.79203 6.88748 6.83992
#
# Compressibility (1/GPa) = 0.01667029
#
# Stress axis : x y z
#
# Youngs Moduli (GPa) = 69.71525 69.71525 101.82716
#
# Poissons Ratio (x) = 0.48819 0.19941
# Poissons Ratio (y) = 0.48819 0.19941
# Poissons Ratio (z) = 0.13652 0.13652
#
# Static dielectric constant tensor:
#      x y z
#    x 1.738650 0.000000 0.000000 
#    y 0.000000 1.738650 0.000000 
#    z 0.000000 0.000000 1.880160 
# 
# From -- ./inp_files/3968.got.cif
#   From: 2010.05.17/outbox.cif.g08.bks.cpg/sg151_2_cif.got.tgz:3968.got - 2010.05.20 10:33:20.
