data_PCOD9575835
_publ_section_title
;
Structure prediction by ZEFSAII (Michael W. Deem and Ramdas Pophale) SiO2 
 PCOD9575835
Probable space group: P 31 2 1
;
_chemical_formula_sum "Si O2"
_cell_formula_units_Z 36
_cell_length_a 11.979104
_cell_length_b 11.979104
_cell_length_c 16.532800
_cell_angle_alpha 90.000000
_cell_angle_beta 90.000000
_cell_angle_gamma 120.000000
_cell_volume 2054.592576
_symmetry_space_group_name_H-M "P 31 2 1"
_symmetry_group_IT_number 152
_symmetry_cell_setting 'hexagonal'
loop_
_space_group_symop_operation_xyz
x,y,z
-y,x-y,1/3+z
-x+y,-x,2/3+z
x-y,-y,2/3-z
-x,-x+y,1/3-z
y,x,-z
loop_
_atom_site_type_symbol
_atom_site_label
_atom_site_fract_x
_atom_site_fract_y
_atom_site_fract_z
Si Si1 0.355053 0.437686 0.736397
Si Si2 0.916922 0.961137 0.590479
Si Si3 0.409267 0.537647 0.553672
Si Si4 0.815884 0.189470 0.053459
Si Si5 0.856524 0.290351 0.870504
Si Si6 0.064551 0.300933 0.748983
O O1 0.371847 0.472267 0.641567
O O2 0.373666 0.314219 0.744418
O O3 0.466845 0.559540 0.781910
O O4 0.213025 0.410151 0.762150
O O5 0.966835 0.966835 0.500000
O O6 0.771613 0.842930 0.595305
O O7 0.917791 0.095372 0.598577
O O8 0.000000 0.958435 0.666667
O O9 0.472864 0.472864 0.500000
O O10 0.514873 0.687090 0.567423
O O11 0.276730 0.506690 0.511616
O O12 0.824797 0.219927 0.957595
O O13 0.965474 0.277304 0.821048
O O14 0.000000 0.315734 0.666667
#
# Coordination Sequence:
#
# PCOD9575835 Si02
#       6
#     6   6   6   6   6   6
#     4  10  22  38  56  86 118 151 198 240 297 354
#     4  10  20  35  60  87 121 155 197 252 304 359
#     4  11  21  37  60  83 117 156 196 241 298 356
#     4  10  22  38  56  88 118 157 197 244 300 363
#     4  11  22  36  61  83 116 158 196 248 297 356
#     4  10  20  36  58  86 112 149 200 247 291 353
#
# _framework density 17.521723000000001
#
# number of rings (size 3 to 8) (size 9 to 14) (size 15 to 20)
#    0.000    1.667    3.333    1.500    2.333    0.667 
#    0.000    0.000    0.000    4.000    0.000    0.000 
#    0.000    0.000    0.000    0.000    0.000    0.000 
#
# Total GULP energy -200701.108543 kJ/mol
# GULP energy per Si atom -5575.030793 kJ/mol
# Density = 1.748184 g / cm^3
# Si number density = 17.521723 Si / 1000 Ang^3
#
#
#
# Elastic Constant Matrix: (Units=GPa)
#
#
# Indices 1 2 3 4 5 6 
#
# 1 73.2448 38.1103 18.5092 -0.6257 -0.0002 0.0000
# 2 38.1103 73.2448 18.5092 0.6257 0.0002 0.0000
# 3 18.5092 18.5092 58.8830 0.0000 0.0000 0.0000
# 4 -0.6257 0.6257 0.0000 20.6056 0.0000 0.0002
# 5 -0.0002 0.0002 0.0000 0.0000 20.6056 -0.6257
# 6 0.0000 0.0000 0.0000 0.0002 -0.6257 17.5672
#
#
#
# Elastic Compliance Matrix: (Units=1/GPa)
#
#
# Indices 1 2 3 4 5 6 
#
# 1 0.019261 -0.009232 -0.003152 0.000865 0.000000 0.000000
# 2 -0.009232 0.019261 -0.003152 -0.000865 0.000000 0.000000
# 3 -0.003152 -0.003152 0.018965 0.000000 0.000000 0.000000
# 4 0.000865 -0.000865 0.000000 0.048583 0.000000 0.000000
# 5 0.000000 0.000000 0.000000 0.000000 0.048583 0.001730
# 6 0.000000 0.000000 0.000000 0.000000 0.001730 0.056986
#
#
# Mechanical properties :
#
#
# Convention : Reuss Voigt Hill
#
# Bulk Modulus (GPa) = 37.86161 39.51444 38.68803
# Shear Modulus (GPa) = 19.87952 20.43862 20.15907
#
# Velocity S-wave (km/s) = 3.37198 3.41907 3.39561
# Velocity P-wave (km/s) = 6.06759 6.17959 6.12385
#
# Compressibility (1/GPa) = 0.02641197
#
# Stress axis : x y z
#
# Youngs Moduli (GPa) = 51.91960 51.91960 52.72987
#
# Poissons Ratio (x) = 0.47934 0.16622
# Poissons Ratio (y) = 0.47934 0.16622
# Poissons Ratio (z) = 0.16366 0.16366
#
# Static dielectric constant tensor:
#      x y z
#    x 1.596630 0.000000 0.000000 
#    y 0.000000 1.596630 0.000000 
#    z 0.000000 0.000000 1.606710 
# 
# From -- ./inp_files/2021.got.cif
#   From: 2010.05.17/outbox.cif.g08.bks.cpg/sg152_2_cif.got.tgz:2021.got - 2010.05.20 10:36:06.
