data_PCOD9575269
_publ_section_title
;
Structure prediction by ZEFSAII (Michael W. Deem and Ramdas Pophale) SiO2 
 PCOD9575269
Probable space group: R -3
;
_chemical_formula_sum "Si O2"
_cell_formula_units_Z 114
_cell_length_a 21.727239
_cell_length_b 21.727239
_cell_length_c 12.724618
_cell_angle_alpha 90.000000
_cell_angle_beta 90.000000
_cell_angle_gamma 120.000000
_cell_volume 5202.169139
_symmetry_space_group_name_H-M "R -3"
_symmetry_group_IT_number 148
_symmetry_cell_setting 'hexagonal'
loop_
_space_group_symop_operation_xyz
x,y,z
-y,x-y,z
-x+y,-x,z
-x,-y,-z
y,-x+y,-z
x-y,x,-z
2/3+x,1/3+y,1/3+z
2/3-y,1/3+x-y,1/3+z
2/3-x+y,1/3-x,1/3+z
2/3-x,1/3-y,1/3-z
2/3+y,1/3-x+y,1/3-z
2/3+x-y,1/3+x,1/3-z
1/3+x,2/3+y,2/3+z
1/3-y,2/3+x-y,2/3+z
1/3-x+y,2/3-x,2/3+z
1/3-x,2/3-y,2/3-z
1/3+y,2/3-x+y,2/3-z
1/3+x-y,2/3+x,2/3-z
loop_
_atom_site_type_symbol
_atom_site_label
_atom_site_fract_x
_atom_site_fract_y
_atom_site_fract_z
Si Si1 0.333334 0.666667 0.539919
Si Si2 0.565104 0.182785 0.798714
Si Si3 0.098347 0.282848 0.762038
Si Si4 0.367193 0.160809 0.849070
Si Si5 0.609459 0.887318 0.485143
Si Si6 0.446972 0.817280 0.444024
Si Si7 0.649333 0.009357 0.938442
O O1 0.333335 0.666668 0.666667
O O2 0.395339 0.741712 0.495020
O O3 0.547097 0.231027 0.871372
O O4 0.532936 0.103139 0.840633
O O5 0.541420 0.186942 0.680913
O O6 0.166667 0.333334 0.833334
O O7 0.121700 0.300659 0.640785
O O8 0.081859 0.203373 0.786251
O O9 0.028641 0.291031 0.765697
O O10 0.298348 0.161106 0.805465
O O11 0.373536 0.097307 0.798409
O O12 0.525859 0.855131 0.492110
O O13 0.643524 0.942995 0.389358
O O14 0.649890 0.933006 0.587300
#
# Coordination Sequence:
#
# PCOD9575269 Si02
#       7
#     6  18  18  18  18  18  18
#     4  12  30  54  70 101 142 198 258 300 352 443
#     4  11  22  41  71 103 137 180 227 288 368 434
#     4  11  24  46  69 104 143 192 236 296 363 435
#     4  11  25  41  70 103 142 183 234 296 359 428
#     4  12  25  45  71 106 143 186 240 301 362 433
#     4  11  26  46  70 100 143 183 244 298 359 430
#     4  12  24  44  70 106 145 185 239 297 359 435
#
# _framework density 21.913936
#
# number of rings (size 3 to 8) (size 9 to 14) (size 15 to 20)
#    0.000    0.632    3.158    5.368    4.421    1.263 
#    0.000    0.000    0.000    0.000    0.000    0.000 
#    0.000    0.000    0.000    0.000    0.000    0.000 
#
# Total GULP energy -212620.244214 kJ/mol
# GULP energy per Si atom -5595.269585 kJ/mol
# Density = 2.186406 g / cm^3
# Si number density = 21.913936 Si / 1000 Ang^3
#
#
#
# Elastic Constant Matrix: (Units=GPa)
#
#
# Indices 1 2 3 4 5 6 
#
# 1 108.8798 29.2112 12.6899 1.4514 -0.4592 0.0000
# 2 29.2112 108.8803 12.6902 -1.4517 0.4591 0.0002
# 3 12.6899 12.6902 43.3825 0.0000 -0.0001 0.0002
# 4 1.4514 -1.4517 0.0000 26.2504 0.0001 0.4591
# 5 -0.4592 0.4591 -0.0001 0.0001 26.2503 1.4515
# 6 0.0000 0.0002 0.0002 0.4591 1.4515 39.8344
#
#
#
# Elastic Compliance Matrix: (Units=1/GPa)
#
#
# Indices 1 2 3 4 5 6 
#
# 1 0.010116 -0.002463 -0.002239 -0.000696 0.000220 0.000000
# 2 -0.002463 0.010116 -0.002239 0.000696 -0.000220 0.000000
# 3 -0.002239 -0.002239 0.024360 0.000000 0.000000 0.000000
# 4 -0.000696 0.000696 0.000000 0.038179 0.000000 -0.000440
# 5 0.000220 -0.000220 0.000000 0.000000 0.038179 -0.001391
# 6 0.000000 0.000000 0.000000 -0.000440 -0.001391 0.025160
#
#
# Mechanical properties :
#
#
# Convention : Reuss Voigt Hill
#
# Bulk Modulus (GPa) = 32.56060 41.14725 36.85392
# Shear Modulus (GPa) = 29.37198 32.23712 30.80455
#
# Velocity S-wave (km/s) = 3.66503 3.83963 3.75334
# Velocity P-wave (km/s) = 5.72718 6.20278 5.96972
#
# Compressibility (1/GPa) = 0.03071197
#
# Stress axis : x y z
#
# Youngs Moduli (GPa) = 98.84891 98.84922 41.05017
#
# Poissons Ratio (x) = 0.24351 0.09189
# Poissons Ratio (y) = 0.24350 0.09190
# Poissons Ratio (z) = 0.22128 0.22129
#
# Static dielectric constant tensor:
#      x y z
#    x 1.809930 0.000000 0.000000 
#    y 0.000000 1.809920 0.000000 
#    z 0.000000 0.000000 1.802060 
# 
# From -- ./inp_files/2109.got.cif
#   From: 2010.05.17/outbox.cif.g08.bks.cpg/sg148_2_cif.got.tgz:2109.got - 2010.05.20 13:50:20.
