data_PCOD9575050
_publ_section_title
;
Structure prediction by ZEFSAII (Michael W. Deem and Ramdas Pophale) SiO2 
 PCOD9575050
Probable space group: R -3
;
_chemical_formula_sum "Si O2"
_cell_formula_units_Z 126
_cell_length_a 28.324690
_cell_length_b 28.324690
_cell_length_c 9.568731
_cell_angle_alpha 90.000000
_cell_angle_beta 90.000000
_cell_angle_gamma 120.000000
_cell_volume 6648.371946
_symmetry_space_group_name_H-M "R -3"
_symmetry_group_IT_number 148
_symmetry_cell_setting 'hexagonal'
loop_
_space_group_symop_operation_xyz
x,y,z
-y,x-y,z
-x+y,-x,z
-x,-y,-z
y,-x+y,-z
x-y,x,-z
2/3+x,1/3+y,1/3+z
2/3-y,1/3+x-y,1/3+z
2/3-x+y,1/3-x,1/3+z
2/3-x,1/3-y,1/3-z
2/3+y,1/3-x+y,1/3-z
2/3+x-y,1/3+x,1/3-z
1/3+x,2/3+y,2/3+z
1/3-y,2/3+x-y,2/3+z
1/3-x+y,2/3-x,2/3+z
1/3-x,2/3-y,2/3-z
1/3+y,2/3-x+y,2/3-z
1/3+x-y,2/3+x,2/3-z
loop_
_atom_site_type_symbol
_atom_site_label
_atom_site_fract_x
_atom_site_fract_y
_atom_site_fract_z
Si Si1 0.114011 0.806584 0.035561
Si Si2 0.019600 0.618259 0.960669
Si Si3 0.126728 0.050415 0.017095
Si Si4 0.704591 0.157551 0.148509
Si Si5 0.076029 0.225875 0.073356
Si Si6 0.281822 0.913278 0.057044
Si Si7 0.605638 0.056773 0.506978
O O1 0.087038 0.769871 0.168960
O O2 0.068905 0.809010 0.934772
O O3 0.149680 0.868022 0.086476
O O4 0.141605 0.780282 0.940401
O O5 0.024458 0.599506 0.114832
O O6 0.965976 0.623648 0.952126
O O7 0.074225 0.675943 0.927122
O O8 0.162364 0.045897 0.145870
O O9 0.175473 0.088771 0.910560
O O10 0.095416 0.084691 0.035313
O O11 0.640122 0.116672 0.164945
O O12 0.721138 0.141277 0.004168
O O13 0.056343 0.225796 0.912419
O O14 0.248919 0.929943 0.949876
#
# Coordination Sequence:
#
# PCOD9575050 Si02
#       7
#    18  18  18  18  18  18  18
#     4  10  20  33  53  78 106 151 197 234 280 339
#     4  12  20  32  54  80 110 155 206 236 266 332
#     4   9  18  34  60  91 114 137 183 244 302 355
#     4   9  19  35  54  77 116 151 182 236 297 337
#     4  10  19  33  55  80 115 148 185 242 296 339
#     4  11  21  33  53  82 114 158 201 238 270 329
#     4  11  19  34  52  76 111 153 195 232 283 336
#
# _framework density 18.952007999999999
#
# number of rings (size 3 to 8) (size 9 to 14) (size 15 to 20)
#    0.000    1.714    4.286    1.429    0.000    0.000 
#    0.000    2.857    6.286    0.000    0.000    0.000 
#    0.000    1.143    0.000    0.000    0.000    0.000 
#
# Total GULP energy -234171.773594 kJ/mol
# GULP energy per Si atom -5575.518419 kJ/mol
# Density = 1.890887 g / cm^3
# Si number density = 18.952008 Si / 1000 Ang^3
#
#
#
# Elastic Constant Matrix: (Units=GPa)
#
#
# Indices 1 2 3 4 5 6 
#
# 1 72.2481 13.6544 27.3228 -1.0940 3.7809 -0.0045
# 2 13.6544 72.2543 27.3414 1.0955 -3.7918 -0.0008
# 3 27.3228 27.3414 94.7897 -0.0171 -0.0618 -0.0071
# 4 -1.0940 1.0955 -0.0171 15.5488 -0.0120 -3.7972
# 5 3.7809 -3.7918 -0.0618 -0.0120 15.4984 -1.0983
# 6 -0.0045 -0.0008 -0.0071 -3.7972 -1.0983 29.2992
#
#
#
# Elastic Compliance Matrix: (Units=1/GPa)
#
#
# Indices 1 2 3 4 5 6 
#
# 1 0.015964 -0.001707 -0.004112 0.001235 -0.004327 -0.000001
# 2 -0.001707 0.015962 -0.004110 -0.001246 0.004304 -0.000001
# 3 -0.004112 -0.004110 0.012920 0.000016 0.000050 0.000006
# 4 0.001235 -0.001246 0.000016 0.066597 0.000057 0.008633
# 5 -0.004327 0.004304 0.000050 0.000057 0.066810 0.002511
# 6 -0.000001 -0.000001 0.000006 0.008633 0.002511 0.035344
#
#
# Mechanical properties :
#
#
# Convention : Reuss Voigt Hill
#
# Bulk Modulus (GPa) = 40.01573 41.76993 40.89283
# Shear Modulus (GPa) = 20.67965 23.46751 22.07358
#
# Velocity S-wave (km/s) = 3.30685 3.52271 3.41649
# Velocity P-wave (km/s) = 5.97833 6.21560 6.09812
#
# Compressibility (1/GPa) = 0.02499017
#
# Stress axis : x y z
#
# Youngs Moduli (GPa) = 62.64110 62.64700 77.39730
#
# Poissons Ratio (x) = 0.10692 0.31825
# Poissons Ratio (y) = 0.10691 0.31808
# Poissons Ratio (z) = 0.25757 0.25746
#
# Static dielectric constant tensor:
#      x y z
#    x 1.726920 0.000000 -0.000010 
#    y 0.000000 1.726920 0.000000 
#    z -0.000010 0.000000 1.626030 
# 
# From -- ./inp_files/1099.got.cif
#   From: 2010.05.17/outbox.cif.g08.bks.cpg/sg148_1_cif.got.tgz:1099.got - 2010.05.20 13:50:20.
