data_PCOD9575320
_publ_section_title
;
Structure prediction by ZEFSAII (Michael W. Deem and Ramdas Pophale) SiO2 
 PCOD9575320
Probable space group: R -3
;
_chemical_formula_sum "Si O2"
_cell_formula_units_Z 72
_cell_length_a 18.766868
_cell_length_b 18.766868
_cell_length_c 9.445910
_cell_angle_alpha 90.000000
_cell_angle_beta 90.000000
_cell_angle_gamma 120.000000
_cell_volume 2881.098018
_symmetry_space_group_name_H-M "R -3"
_symmetry_group_IT_number 148
_symmetry_cell_setting 'hexagonal'
loop_
_space_group_symop_operation_xyz
x,y,z
-y,x-y,z
-x+y,-x,z
-x,-y,-z
y,-x+y,-z
x-y,x,-z
2/3+x,1/3+y,1/3+z
2/3-y,1/3+x-y,1/3+z
2/3-x+y,1/3-x,1/3+z
2/3-x,1/3-y,1/3-z
2/3+y,1/3-x+y,1/3-z
2/3+x-y,1/3+x,1/3-z
1/3+x,2/3+y,2/3+z
1/3-y,2/3+x-y,2/3+z
1/3-x+y,2/3-x,2/3+z
1/3-x,2/3-y,2/3-z
1/3+y,2/3-x+y,2/3-z
1/3+x-y,2/3+x,2/3-z
loop_
_atom_site_type_symbol
_atom_site_label
_atom_site_fract_x
_atom_site_fract_y
_atom_site_fract_z
Si Si1 0.967403 0.729167 0.791505
Si Si2 0.288799 0.487494 0.193164
Si Si3 0.801305 0.288799 0.306836
Si Si4 0.904902 0.300736 0.041828
O O1 0.929187 0.643179 0.706739
O O2 0.979206 0.794094 0.671585
O O3 0.919980 0.743804 0.918924
O O4 0.047324 0.737479 0.873406
O O5 0.225192 0.519392 0.209556
O O6 0.253313 0.410470 0.085591
O O7 0.705800 0.225191 0.290445
O O8 0.851779 0.312539 0.161748
#
# Coordination Sequence:
#
# PCOD9575320 Si02
#       4
#    18  18  18  18
#     4  12  24  48  70 108 136 178 232 288 352 398
#     4  12  27  46  72 102 141 186 228 282 340 414
#     4  12  27  46  72 102 141 186 228 282 340 414
#     4  12  24  48  70 108 136 178 232 288 352 398
#
# _framework density 24.990472
#
# number of rings (size 3 to 8) (size 9 to 14) (size 15 to 20)
#    0.000    0.000    5.000    3.500    0.000   12.000 
#    0.000    5.000    0.000    0.000    0.000    0.000 
#    0.000    0.000    0.000    0.000    0.000    0.000 
#
# Total GULP energy -134384.641025 kJ/mol
# GULP energy per Si atom -5599.360043 kJ/mol
# Density = 2.493359 g / cm^3
# Si number density = 24.990472 Si / 1000 Ang^3
#
#
#
# Elastic Constant Matrix: (Units=GPa)
#
#
# Indices 1 2 3 4 5 6 
#
# 1 87.7869 89.8382 43.8447 -6.4674 -16.0389 0.0000
# 2 89.8382 87.7870 43.8445 6.4676 16.0390 -0.0001
# 3 43.8447 43.8445 174.8900 0.0007 0.0011 -0.0001
# 4 -6.4674 6.4676 0.0007 14.9701 0.0003 16.0390
# 5 -16.0389 16.0390 0.0011 0.0003 14.9705 -6.4675
# 6 0.0000 -0.0001 -0.0001 16.0390 -6.4675 -1.0256
#
#
#
# Elastic Compliance Matrix: (Units=1/GPa)
#
#
# Indices 1 2 3 4 5 6 
#
# 1 -0.008691 0.015115 -0.001611 -0.010284 -0.025505 0.000000
# 2 0.015115 -0.008690 -0.001611 0.010284 0.025505 0.000000
# 3 -0.001611 -0.001611 0.006525 0.000000 0.000000 0.000000
# 4 -0.010284 0.010284 0.000000 0.003262 0.000000 0.051009
# 5 -0.025505 0.025505 0.000000 0.000000 0.003262 -0.020569
# 6 0.000000 0.000000 0.000000 0.051009 -0.020569 -0.047610
#
#
# Mechanical properties :
#
#
# Convention : Reuss Voigt Hill
#
# Bulk Modulus (GPa) = 77.32413 78.39096 77.85754
# Shear Modulus (GPa) = -70.01014 17.31209 -26.34902
#
# Velocity S-wave (km/s) = -5.29864 2.63487 -3.25062
# Velocity P-wave (km/s) = 2.53485 6.37912 4.13930
#
# Compressibility (1/GPa) = 0.01293257
#
# Stress axis : x y z
#
# Youngs Moduli (GPa) = -115.06793 -115.07033 153.24499
#
# Poissons Ratio (x) = 1.73934 0.24680
# Poissons Ratio (y) = 1.73930 0.24687
# Poissons Ratio (z) = -0.18532 -0.18537
#
# Static dielectric constant tensor:
#      x y z
#    x 1.951280 0.000000 0.000000 
#    y 0.000000 1.951280 0.000000 
#    z 0.000000 0.000000 1.941640 
# 
# From -- ./inp_files/812.got.cif
#   From: 2010.05.17/outbox.cif.g08.bks.cpg/sg148_1_cif.got.tgz:812.got - 2010.05.20 13:50:20.
