data_PCOD9575075
_publ_section_title
;
Structure prediction by ZEFSAII (Michael W. Deem and Ramdas Pophale) SiO2 
 PCOD9575075
Probable space group: R -3
;
_chemical_formula_sum "Si O2"
_cell_formula_units_Z 108
_cell_length_a 21.884622
_cell_length_b 21.884622
_cell_length_c 13.050152
_cell_angle_alpha 90.000000
_cell_angle_beta 90.000000
_cell_angle_gamma 120.000000
_cell_volume 5412.828925
_symmetry_space_group_name_H-M "R -3"
_symmetry_group_IT_number 148
_symmetry_cell_setting 'hexagonal'
loop_
_space_group_symop_operation_xyz
x,y,z
-y,x-y,z
-x+y,-x,z
-x,-y,-z
y,-x+y,-z
x-y,x,-z
2/3+x,1/3+y,1/3+z
2/3-y,1/3+x-y,1/3+z
2/3-x+y,1/3-x,1/3+z
2/3-x,1/3-y,1/3-z
2/3+y,1/3-x+y,1/3-z
2/3+x-y,1/3+x,1/3-z
1/3+x,2/3+y,2/3+z
1/3-y,2/3+x-y,2/3+z
1/3-x+y,2/3-x,2/3+z
1/3-x,2/3-y,2/3-z
1/3+y,2/3-x+y,2/3-z
1/3+x-y,2/3+x,2/3-z
loop_
_atom_site_type_symbol
_atom_site_label
_atom_site_fract_x
_atom_site_fract_y
_atom_site_fract_z
Si Si1 0.019703 0.749495 0.762195
Si Si2 0.524444 0.333821 0.447930
Si Si3 0.142222 0.142711 0.885404
Si Si4 0.449756 0.404511 0.800023
Si Si5 0.449755 0.045245 0.800023
Si Si6 0.019702 0.270207 0.762194
O O1 0.018167 0.818471 0.797785
O O2 0.050052 0.754845 0.649074
O O3 0.072930 0.739596 0.833333
O O4 0.941889 0.684475 0.794597
O O5 0.494680 0.333333 0.333334
O O6 0.515750 0.257874 0.465490
O O7 0.605934 0.394066 0.443694
O O8 0.485137 0.351498 0.535550
O O9 0.523553 0.476448 0.804716
O O10 0.449592 0.333333 0.833334
O O11 0.421511 0.383385 0.684260
O O12 0.391444 0.409253 0.872070
#
# Coordination Sequence:
#
# PCOD9575075 Si02
#       6
#    18  18  18  18  18  18
#     4  11  22  38  61  89 121 157 203 258 314 368
#     4  10  20  34  54  82 118 160 205 254 308 367
#     4  10  20  34  54  82 118 160 205 254 308 367
#     4  11  24  41  63  91 123 162 206 253 309 370
#     4  11  24  41  63  91 123 162 206 253 309 370
#     4  11  22  38  61  89 121 157 203 258 314 368
#
# _framework density 19.952597999999998
#
# number of rings (size 3 to 8) (size 9 to 14) (size 15 to 20)
#    0.000    1.333    0.000    8.333    0.000   10.667 
#    0.000    0.000    0.000    0.333    0.000    0.000 
#    0.000    0.000    0.000    0.000    0.000    0.000 
#
# Total GULP energy -200836.420250 kJ/mol
# GULP energy per Si atom -5578.789451 kJ/mol
# Density = 1.990718 g / cm^3
# Si number density = 19.952598 Si / 1000 Ang^3
#
#
#
# Elastic Constant Matrix: (Units=GPa)
#
#
# Indices 1 2 3 4 5 6 
#
# 1 78.0702 25.8694 17.9329 0.5891 0.0000 0.0000
# 2 25.8694 78.0702 17.9329 -0.5891 0.0000 0.0000
# 3 17.9329 17.9329 58.3517 0.0000 0.0000 0.0000
# 4 0.5891 -0.5891 0.0000 22.7578 0.0000 0.0000
# 5 0.0000 0.0000 0.0000 0.0000 22.7578 0.5891
# 6 0.0000 0.0000 0.0000 0.0000 0.5891 26.1004
#
#
#
# Elastic Compliance Matrix: (Units=1/GPa)
#
#
# Indices 1 2 3 4 5 6 
#
# 1 0.014965 -0.004203 -0.003308 -0.000496 0.000000 0.000000
# 2 -0.004203 0.014965 -0.003308 0.000496 0.000000 0.000000
# 3 -0.003308 -0.003308 0.019170 0.000000 0.000000 0.000000
# 4 -0.000496 0.000496 0.000000 0.043967 0.000000 0.000000
# 5 0.000000 0.000000 0.000000 0.000000 0.043967 -0.000992
# 6 0.000000 0.000000 0.000000 0.000000 -0.000992 0.038336
#
#
# Mechanical properties :
#
#
# Convention : Reuss Voigt Hill
#
# Bulk Modulus (GPa) = 36.41009 37.55140 36.98075
# Shear Modulus (GPa) = 24.25295 24.50702 24.37998
#
# Velocity S-wave (km/s) = 3.49023 3.50846 3.49935
# Velocity P-wave (km/s) = 5.87624 5.93915 5.90778
#
# Compressibility (1/GPa) = 0.02746492
#
# Stress axis : x y z
#
# Youngs Moduli (GPa) = 66.82201 66.82201 52.16372
#
# Poissons Ratio (x) = 0.28084 0.17253
# Poissons Ratio (y) = 0.28084 0.17253
# Poissons Ratio (z) = 0.22101 0.22101
#
# Static dielectric constant tensor:
#      x y z
#    x 1.710530 0.000000 0.000000 
#    y 0.000000 1.710530 0.000000 
#    z 0.000000 0.000000 1.811530 
# 
# From -- ./inp_files/1514.got.cif
#   From: 2010.05.17/outbox.cif.g08.bks.cpg/sg148_1_cif.got.tgz:1514.got - 2010.05.20 13:50:20.
