data_PCOD9575877
_publ_section_title
;
Structure prediction by ZEFSAII (Michael W. Deem and Ramdas Pophale) SiO2 
 PCOD9575877
Probable space group: P 31 2 1
;
_chemical_formula_sum "Si O2"
_cell_formula_units_Z 36
_cell_length_a 8.547941
_cell_length_b 8.547941
_cell_length_c 28.083414
_cell_angle_alpha 90.000000
_cell_angle_beta 90.000000
_cell_angle_gamma 120.000000
_cell_volume 1777.066033
_symmetry_space_group_name_H-M "P 31 2 1"
_symmetry_group_IT_number 152
_symmetry_cell_setting 'hexagonal'
loop_
_space_group_symop_operation_xyz
x,y,z
-y,x-y,1/3+z
-x+y,-x,2/3+z
x-y,-y,2/3-z
-x,-x+y,1/3-z
y,x,-z
loop_
_atom_site_type_symbol
_atom_site_label
_atom_site_fract_x
_atom_site_fract_y
_atom_site_fract_z
Si Si1 0.212833 0.528226 0.880457
Si Si2 0.490856 0.326714 0.223822
Si Si3 0.130591 0.906068 0.621593
Si Si4 0.991449 0.157147 0.609603
Si Si5 0.507218 0.280150 0.634148
Si Si6 0.659006 0.189178 0.722966
O O1 0.247304 0.487910 0.827455
O O2 0.215133 0.388057 0.919256
O O3 0.349736 0.733156 0.896737
O O4 0.015630 0.501007 0.883097
O O5 0.665463 0.375704 0.255321
O O6 0.317924 0.195393 0.255452
O O7 0.000000 0.801499 0.666667
O O8 0.039064 0.005738 0.593149
O O9 0.323016 0.082306 0.637188
O O10 0.142491 0.362734 0.599827
O O11 0.000000 0.148603 0.666667
O O12 0.625213 0.295649 0.680245
O O13 0.449424 0.430199 0.626964
#
# Coordination Sequence:
#
# PCOD9575877 Si02
#       6
#     6   6   6   6   6   6
#     4  11  25  42  63  94 138 178 221 273 334 407
#     4  11  23  45  63  95 138 176 221 276 339 399
#     4   9  21  39  66  96 126 170 222 273 329 397
#     4  10  20  39  68  95 126 169 219 274 336 389
#     4  10  21  40  67  92 132 170 225 279 325 403
#     4  11  22  40  64  97 122 178 221 276 333 388
#
# _framework density 20.258111
#
# number of rings (size 3 to 8) (size 9 to 14) (size 15 to 20)
#    0.000    1.667    1.667    3.000    4.667    2.000 
#    9.000    6.667    0.000    0.000    0.000    0.000 
#    0.000    0.000    0.000    0.000    0.000    0.000 
#
# Total GULP energy -200867.967020 kJ/mol
# GULP energy per Si atom -5579.665751 kJ/mol
# Density = 2.021200 g / cm^3
# Si number density = 20.258111 Si / 1000 Ang^3
#
#
#
# Elastic Constant Matrix: (Units=GPa)
#
#
# Indices 1 2 3 4 5 6 
#
# 1 50.6430 20.9264 35.9196 5.4737 0.0009 0.0000
# 2 20.9264 50.6430 35.9196 -5.4737 -0.0009 0.0000
# 3 35.9196 35.9196 102.0745 0.0000 0.0000 0.0000
# 4 5.4737 -5.4737 0.0000 5.0549 0.0000 -0.0009
# 5 0.0009 -0.0009 0.0000 0.0000 5.0549 5.4737
# 6 0.0000 0.0000 0.0000 -0.0009 5.4737 14.8583
#
#
#
# Elastic Compliance Matrix: (Units=1/GPa)
#
#
# Indices 1 2 3 4 5 6 
#
# 1 0.038794 -0.017190 -0.007602 -0.060622 -0.000010 0.000000
# 2 -0.017190 0.038794 -0.007602 0.060622 0.000010 0.000000
# 3 -0.007602 -0.007602 0.015147 0.000000 0.000000 0.000000
# 4 -0.060622 0.060622 0.000000 0.329115 0.000000 0.000020
# 5 -0.000010 0.000010 0.000000 0.000000 0.329115 -0.121244
# 6 0.000000 0.000000 0.000000 0.000020 -0.121244 0.111968
#
#
# Mechanical properties :
#
#
# Convention : Reuss Voigt Hill
#
# Bulk Modulus (GPa) = 35.78444 43.21019 39.49732
# Shear Modulus (GPa) = 5.33598 12.36663 8.85131
#
# Velocity S-wave (km/s) = 1.62472 2.47342 2.09255
# Velocity P-wave (km/s) = 4.60676 5.43444 5.03763
#
# Compressibility (1/GPa) = 0.02794511
#
# Stress axis : x y z
#
# Youngs Moduli (GPa) = 25.77749 25.77749 66.01946
#
# Poissons Ratio (x) = 0.44312 0.50188
# Poissons Ratio (y) = 0.44312 0.50188
# Poissons Ratio (z) = 0.19596 0.19596
#
# Static dielectric constant tensor:
#      x y z
#    x 1.789100 0.000000 0.000000 
#    y 0.000000 1.789100 0.000000 
#    z 0.000000 0.000000 1.710790 
# 
# From -- ./inp_files/3394.got.cif
#   From: 2010.05.17/outbox.cif.g08.bks.cpg/sg152_2_cif.got.tgz:3394.got - 2010.05.20 10:36:06.
