data_PCOD9575804
_publ_section_title
;
Structure prediction by ZEFSAII (Michael W. Deem and Ramdas Pophale) SiO2 
 PCOD9575804
Probable space group: P 31 2 1
;
_chemical_formula_sum "Si O2"
_cell_formula_units_Z 42
_cell_length_a 14.704346
_cell_length_b 14.704346
_cell_length_c 12.075941
_cell_angle_alpha 90.000000
_cell_angle_beta 90.000000
_cell_angle_gamma 120.000000
_cell_volume 2261.221160
_symmetry_space_group_name_H-M "P 31 2 1"
_symmetry_group_IT_number 152
_symmetry_cell_setting 'hexagonal'
loop_
_space_group_symop_operation_xyz
x,y,z
-y,x-y,1/3+z
-x+y,-x,2/3+z
x-y,-y,2/3-z
-x,-x+y,1/3-z
y,x,-z
loop_
_atom_site_type_symbol
_atom_site_label
_atom_site_fract_x
_atom_site_fract_y
_atom_site_fract_z
Si Si1 0.334567 0.952346 0.111204
Si Si2 0.827987 0.321227 0.518027
Si Si3 0.449231 0.647728 0.609424
Si Si4 0.053873 0.000000 0.833334
Si Si5 0.719396 0.303341 0.291838
Si Si6 0.191610 0.765162 0.279735
Si Si7 0.756769 0.000000 0.833334
Si Si8 0.857381 0.837056 0.267710
O O1 0.274897 0.859274 0.201013
O O2 0.259497 0.000581 0.082328
O O3 0.440913 0.049641 0.157215
O O4 0.353714 0.896999 0.006285
O O5 0.761779 0.281508 0.404737
O O6 0.782165 0.383604 0.588101
O O7 0.807507 0.224793 0.596226
O O8 0.472663 0.684309 0.482445
O O9 0.410641 0.717333 0.678902
O O10 0.342665 0.535942 0.604710
O O11 0.116240 0.002774 0.723904
O O12 0.036494 0.100261 0.850213
O O13 0.077368 0.738663 0.242671
O O14 0.785424 0.928716 0.758144
#
# Coordination Sequence:
#
# PCOD9575804 Si02
#       8
#     6   6   6   3   6   6   3   6
#     4  11  22  37  62  96 112 154 208 258 282 359
#     4  10  22  37  63  88 122 157 204 247 298 364
#     4  10  19  38  63  83 125 158 204 241 307 366
#     4   9  18  38  59  80 120 164 181 238 312 361
#     4   9  20  40  60  83 121 172 191 235 315 370
#     4  10  21  38  59  87 122 154 201 248 301 354
#     4   9  20  36  57  88 114 150 199 248 286 351
#     4   9  20  35  60  85 116 153 198 235 302 351
#
# _framework density 18.574034999999999
#
# number of rings (size 3 to 8) (size 9 to 14) (size 15 to 20)
#    0.000    2.286    1.429    0.429    4.000    2.857 
#    2.571    0.000    0.000    0.000    0.000    0.000 
#    0.000    0.000    0.000    0.000    0.000    0.000 
#
# Total GULP energy -234129.291253 kJ/mol
# GULP energy per Si atom -5574.506935 kJ/mol
# Density = 1.853176 g / cm^3
# Si number density = 18.574035 Si / 1000 Ang^3
#
#
#
# Elastic Constant Matrix: (Units=GPa)
#
#
# Indices 1 2 3 4 5 6 
#
# 1 60.7986 30.0475 44.6889 -4.4565 0.0001 0.0000
# 2 30.0475 60.7986 44.6889 4.4565 -0.0001 0.0000
# 3 44.6889 44.6889 108.5925 0.0000 0.0000 0.0000
# 4 -4.4565 4.4565 0.0000 28.1816 0.0000 -0.0001
# 5 0.0001 -0.0001 0.0000 0.0000 28.1816 -4.4565
# 6 0.0000 0.0000 0.0000 -0.0001 -4.4565 15.3756
#
#
#
# Elastic Compliance Matrix: (Units=1/GPa)
#
#
# Indices 1 2 3 4 5 6 
#
# 1 0.026289 -0.007792 -0.007612 0.005389 0.000000 0.000000
# 2 -0.007792 0.026289 -0.007612 -0.005389 0.000000 0.000000
# 3 -0.007612 -0.007612 0.015474 0.000000 0.000000 0.000000
# 4 0.005389 -0.005389 0.000000 0.037189 0.000000 0.000000
# 5 0.000000 0.000000 0.000000 0.000000 0.037189 0.010779
# 6 0.000000 0.000000 0.000000 0.000000 0.010779 0.068162
#
#
# Mechanical properties :
#
#
# Convention : Reuss Voigt Hill
#
# Bulk Modulus (GPa) = 45.41470 52.11556 48.76513
# Shear Modulus (GPa) = 18.94206 21.73204 20.33705
#
# Velocity S-wave (km/s) = 3.19692 3.42427 3.31254
# Velocity P-wave (km/s) = 6.17501 6.61463 6.39860
#
# Compressibility (1/GPa) = 0.02201930
#
# Stress axis : x y z
#
# Youngs Moduli (GPa) = 38.03901 38.03901 64.62595
#
# Poissons Ratio (x) = 0.29642 0.49192
# Poissons Ratio (y) = 0.29642 0.49192
# Poissons Ratio (z) = 0.28954 0.28954
#
# Static dielectric constant tensor:
#      x y z
#    x 1.661210 0.000000 0.000000 
#    y 0.000000 1.661210 0.000000 
#    z 0.000000 0.000000 1.666830 
# 
# From -- ./inp_files/1840.got.cif
#   From: 2010.05.17/outbox.cif.g08.bks.cpg/sg152_1_cif.got.tgz:1840.got - 2010.05.20 10:36:06.
