data_PCOD9575310
_publ_section_title
;
Structure prediction by ZEFSAII (Michael W. Deem and Ramdas Pophale) SiO2 
 PCOD9575310
Probable space group: R -3
;
_chemical_formula_sum "Si O2"
_cell_formula_units_Z 72
_cell_length_a 10.293503
_cell_length_b 10.293503
_cell_length_c 31.728007
_cell_angle_alpha 90.000000
_cell_angle_beta 90.000000
_cell_angle_gamma 120.000000
_cell_volume 2911.386174
_symmetry_space_group_name_H-M "R -3"
_symmetry_group_IT_number 148
_symmetry_cell_setting 'hexagonal'
loop_
_space_group_symop_operation_xyz
x,y,z
-y,x-y,z
-x+y,-x,z
-x,-y,-z
y,-x+y,-z
x-y,x,-z
2/3+x,1/3+y,1/3+z
2/3-y,1/3+x-y,1/3+z
2/3-x+y,1/3-x,1/3+z
2/3-x,1/3-y,1/3-z
2/3+y,1/3-x+y,1/3-z
2/3+x-y,1/3+x,1/3-z
1/3+x,2/3+y,2/3+z
1/3-y,2/3+x-y,2/3+z
1/3-x+y,2/3-x,2/3+z
1/3-x,2/3-y,2/3-z
1/3+y,2/3-x+y,2/3-z
1/3+x-y,2/3+x,2/3-z
loop_
_atom_site_type_symbol
_atom_site_label
_atom_site_fract_x
_atom_site_fract_y
_atom_site_fract_z
Si Si1 0.333334 0.666667 0.378720
Si Si2 0.154571 0.327848 0.573187
Si Si3 0.333334 0.666668 0.478081
Si Si4 0.333334 0.666667 0.613429
Si Si5 0.807422 0.171203 0.995730
Si Si6 0.284756 0.278314 0.829499
O O1 0.333334 0.666667 0.428440
O O2 0.399319 0.563428 0.362231
O O3 0.241040 0.499627 0.592583
O O4 0.120437 0.234997 0.615623
O O5 0.257654 0.301258 0.540268
O O6 0.012024 0.297009 0.545468
O O7 0.503684 0.766015 0.493157
O O8 0.333335 0.666668 0.666667
O O9 0.988983 0.262511 0.002311
O O10 0.166667 0.333334 0.833334
#
# Coordination Sequence:
#
# PCOD9575310 Si02
#       6
#     6  18   6   6  18  18
#     4  12  30  49  73 109 157 205 235 301 388 450
#     4  12  24  41  68  99 142 178 243 283 365 420
#     4  12  25  43  72  99 143 176 246 285 361 421
#     4  12  22  38  64  99 132 180 237 307 338 409
#     4  12  27  49  77 110 148 197 252 311 364 441
#     4  12  24  42  67 103 135 184 226 303 346 416
#
# _framework density 24.730488999999999
#
# number of rings (size 3 to 8) (size 9 to 14) (size 15 to 20)
#    0.000    0.000    5.000    5.500    3.500    2.000 
#    0.000    0.000    0.000    2.000    0.000    0.000 
#    0.000    0.000    0.000    0.000    0.000    0.000 
#
# Total GULP energy -134185.226610 kJ/mol
# GULP energy per Si atom -5591.051109 kJ/mol
# Density = 2.467420 g / cm^3
# Si number density = 24.730489 Si / 1000 Ang^3
#
#
#
# Elastic Constant Matrix: (Units=GPa)
#
#
# Indices 1 2 3 4 5 6 
#
# 1 72.5120 17.4312 6.1949 15.5430 -5.6704 0.0003
# 2 17.4312 72.5106 6.1954 -15.5445 5.6711 0.0009
# 3 6.1949 6.1954 189.0950 0.0006 0.0003 -0.0003
# 4 15.5430 -15.5445 0.0006 33.1752 0.0008 5.6705
# 5 -5.6704 5.6711 0.0003 0.0008 33.1760 15.5428
# 6 0.0003 0.0009 -0.0003 5.6705 15.5428 27.5405
#
#
#
# Elastic Compliance Matrix: (Units=1/GPa)
#
#
# Indices 1 2 3 4 5 6 
#
# 1 0.018545 -0.007377 -0.000366 -0.012146 0.004431 0.000000
# 2 -0.007377 0.018546 -0.000366 0.012147 -0.004431 -0.000001
# 3 -0.000366 -0.000366 0.005312 0.000000 0.000000 0.000000
# 4 -0.012146 0.012147 0.000000 0.043039 -0.000002 -0.008861
# 5 0.004431 -0.004431 0.000000 -0.000002 0.043035 -0.024287
# 6 0.000000 -0.000001 0.000000 -0.008861 -0.024287 0.051841
#
#
# Mechanical properties :
#
#
# Convention : Reuss Voigt Hill
#
# Bulk Modulus (GPa) = 38.18845 43.75118 40.96981
# Shear Modulus (GPa) = 24.35855 39.06474 31.71165
#
# Velocity S-wave (km/s) = 3.14181 3.97875 3.58479
# Velocity P-wave (km/s) = 5.35133 6.23193 5.80834
#
# Compressibility (1/GPa) = 0.02618593
#
# Stress axis : x y z
#
# Youngs Moduli (GPa) = 53.92167 53.91910 188.24153
#
# Poissons Ratio (x) = 0.39777 0.06886
# Poissons Ratio (y) = 0.39779 0.06889
# Poissons Ratio (z) = 0.01973 0.01973
#
# Static dielectric constant tensor:
#      x y z
#    x 2.040300 0.000000 0.000000 
#    y 0.000000 2.040300 0.000000 
#    z 0.000000 0.000000 1.916940 
# 
# From -- ./inp_files/3958.got.cif
#   From: 2010.05.17/outbox.cif.g08.bks.cpg/sg148_2_cif.got.tgz:3958.got - 2010.05.20 13:50:20.
