data_PCOD9575347
_publ_section_title
;
Structure prediction by ZEFSAII (Michael W. Deem and Ramdas Pophale) SiO2 
 PCOD9575347
Probable space group: P 3 1 2
;
_chemical_formula_sum "Si O2"
_cell_formula_units_Z 38
_cell_length_a 16.535563
_cell_length_b 16.535563
_cell_length_c 11.584493
_cell_angle_alpha 90.000000
_cell_angle_beta 90.000000
_cell_angle_gamma 120.000000
_cell_volume 2743.125237
_symmetry_space_group_name_H-M "P 3 1 2"
_symmetry_group_IT_number 149
_symmetry_cell_setting 'hexagonal'
loop_
_space_group_symop_operation_xyz
x,y,z
-y,x-y,z
-x+y,-x,z
-y,-x,-z
-x+y,y,-z
x,x-y,-z
loop_
_atom_site_type_symbol
_atom_site_label
_atom_site_fract_x
_atom_site_fract_y
_atom_site_fract_z
Si Si1 0.476512 0.333220 0.135474
Si Si2 0.379418 0.429761 0.747109
Si Si3 0.570239 0.620582 0.747109
Si Si4 0.666780 0.143291 0.864527
Si Si5 0.226194 0.452387 0.137220
Si Si6 0.141898 0.477264 0.500000
Si Si7 0.333333 0.666666 0.859135
O O1 0.413785 0.358427 0.216690
O O2 0.468147 0.234074 0.158885
O O3 0.583335 0.416665 0.149592
O O4 0.452416 0.335571 0.000000
O O5 0.467379 0.532621 0.778391
O O6 0.413784 0.358427 0.783311
O O7 0.287844 0.409953 0.816944
O O8 0.355737 0.434632 0.613840
O O9 0.590047 0.712155 0.816945
O O10 0.565368 0.644263 0.613840
O O11 0.280076 0.560151 0.180519
O O12 0.226594 0.453188 0.000000
O O13 0.232012 0.464023 0.500000
O O14 0.174775 0.587388 0.500000
O O15 0.333334 0.666667 0.000000
#
# Coordination Sequence:
#
# PCOD9575347 Si02
#       7
#     6   6   6   6   6   6   2
#     4   9  17  30  48  68  90 117 150 189 232 276
#     4  10  19  29  42  62  90 121 157 189 219 260
#     4  10  19  29  42  62  90 121 157 189 219 260
#     4   9  17  30  48  68  90 117 150 189 232 276
#     4  11  18  25  39  61  91 122 149 179 221 268
#     4  10  19  30  43  60  88 130 166 190 211 249
#     4   9  18  24  33  55  89 127 150 171 211 266
#
# _framework density 13.852812999999999
#
# number of rings (size 3 to 8) (size 9 to 14) (size 15 to 20)
#    0.000    2.211    3.158    1.421    0.000    2.526 
#    0.000    0.789    0.000    0.000    0.000    2.211 
#    1.579    0.000    1.895    0.000    0.000    0.000 
#
# Total GULP energy -211788.682966 kJ/mol
# GULP energy per Si atom -5573.386394 kJ/mol
# Density = 1.382128 g / cm^3
# Si number density = 13.852813 Si / 1000 Ang^3
#
#
#
# Elastic Constant Matrix: (Units=GPa)
#
#
# Indices 1 2 3 4 5 6 
#
# 1 89.8714 46.8649 47.3038 0.0000 -0.0001 0.0000
# 2 46.8649 89.8715 47.3039 0.0000 0.0001 0.0000
# 3 47.3038 47.3039 76.5822 0.0000 0.0000 0.0000
# 4 0.0000 0.0000 0.0000 16.4284 0.0000 0.0001
# 5 -0.0001 0.0001 0.0000 0.0000 16.4284 0.0000
# 6 0.0000 0.0000 0.0000 0.0001 0.0000 21.5033
#
#
#
# Elastic Compliance Matrix: (Units=1/GPa)
#
#
# Indices 1 2 3 4 5 6 
#
# 1 0.018012 -0.005240 -0.007889 0.000000 0.000000 0.000000
# 2 -0.005240 0.018012 -0.007889 0.000000 0.000000 0.000000
# 3 -0.007889 -0.007889 0.022804 0.000000 0.000000 0.000000
# 4 0.000000 0.000000 0.000000 0.060870 0.000000 0.000000
# 5 0.000000 0.000000 0.000000 0.000000 0.060870 0.000000
# 6 0.000000 0.000000 0.000000 0.000000 0.000000 0.046505
#
#
# Mechanical properties :
#
#
# Convention : Reuss Voigt Hill
#
# Bulk Modulus (GPa) = 59.55447 59.91892 59.73670
# Shear Modulus (GPa) = 18.20132 18.52887 18.36509
#
# Velocity S-wave (km/s) = 3.62872 3.66122 3.64501
# Velocity P-wave (km/s) = 7.78723 7.82436 7.80582
#
# Compressibility (1/GPa) = 0.01679135
#
# Stress axis : x y z
#
# Youngs Moduli (GPa) = 55.51867 55.51866 43.85278
#
# Poissons Ratio (x) = 0.29093 0.34595
# Poissons Ratio (y) = 0.29094 0.34595
# Poissons Ratio (z) = 0.43798 0.43798
#
# Static dielectric constant tensor:
#      x y z
#    x 1.440530 0.000000 0.000000 
#    y 0.000000 1.440530 0.000000 
#    z 0.000000 0.000000 1.467240 
# 
# From -- ./inp_files/886.got.cif
#   From: 2010.05.17/outbox.cif.g08.bks.cpg/sg149_cif.got.tgz:886.got - 2010.05.20 13:52:34.
