data_PCOD9575863
_publ_section_title
;
Structure prediction by ZEFSAII (Michael W. Deem and Ramdas Pophale) SiO2 
 PCOD9575863
Probable space group: P 31 2 1
;
_chemical_formula_sum "Si O2"
_cell_formula_units_Z 45
_cell_length_a 14.294742
_cell_length_b 14.294742
_cell_length_c 14.119457
_cell_angle_alpha 90.000000
_cell_angle_beta 90.000000
_cell_angle_gamma 120.000000
_cell_volume 2498.626085
_symmetry_space_group_name_H-M "P 31 2 1"
_symmetry_group_IT_number 152
_symmetry_cell_setting 'hexagonal'
loop_
_space_group_symop_operation_xyz
x,y,z
-y,x-y,1/3+z
-x+y,-x,2/3+z
x-y,-y,2/3-z
-x,-x+y,1/3-z
y,x,-z
loop_
_atom_site_type_symbol
_atom_site_label
_atom_site_fract_x
_atom_site_fract_y
_atom_site_fract_z
Si Si1 0.034397 0.591620 0.985852
Si Si2 0.319031 0.531513 0.630698
Si Si3 0.004485 0.369869 0.414825
Si Si4 0.750396 0.999653 0.125350
Si Si5 0.649958 0.757047 0.063727
Si Si6 0.000000 0.837379 0.666667
Si Si7 0.969640 0.185352 0.056873
Si Si8 0.263099 0.743305 0.089113
O O1 0.145076 0.674226 0.039892
O O2 0.919126 0.543233 0.040746
O O3 0.035662 0.485715 0.952847
O O4 0.017963 0.650539 0.895065
O O5 0.202426 0.457201 0.680092
O O6 0.308039 0.563750 0.524693
O O7 0.392003 0.639525 0.691263
O O8 0.931210 0.301937 0.502133
O O9 0.003638 0.298755 0.327027
O O10 0.131292 0.431878 0.442300
O O11 0.846688 0.091143 0.062482
O O12 0.723413 0.884053 0.085165
O O13 0.779962 0.004407 0.236196
O O14 0.709469 0.709469 0.000000
O O15 0.895787 0.851102 0.663307
O O16 0.000000 0.205621 0.166667
#
# Coordination Sequence:
#
# PCOD9575863 Si02
#       8
#     6   6   6   6   6   3   6   6
#     4  10  23  41  65  89 124 161 214 256 313 365
#     4  10  24  40  64  93 125 161 209 262 311 374
#     4  11  22  41  63  89 126 166 209 256 308 370
#     4  10  21  40  62  94 127 165 204 256 308 374
#     4  11  22  41  63  91 126 163 207 256 314 365
#     4  10  20  38  60  96 134 158 202 250 316 380
#     4  10  21  38  64  93 129 164 202 253 309 375
#     4  11  22  43  63  90 124 164 212 262 308 369
#
# _framework density 18.009898
#
# number of rings (size 3 to 8) (size 9 to 14) (size 15 to 20)
#    0.000    1.600    4.000    0.400    2.800    2.133 
#    1.200    0.667    0.000    0.000    0.000    0.000 
#    0.000    0.000    0.000    0.000    0.000    0.000 
#
# Total GULP energy -250867.196899 kJ/mol
# GULP energy per Si atom -5574.826598 kJ/mol
# Density = 1.796891 g / cm^3
# Si number density = 18.009898 Si / 1000 Ang^3
#
#
#
# Elastic Constant Matrix: (Units=GPa)
#
#
# Indices 1 2 3 4 5 6 
#
# 1 102.6330 63.8492 37.9583 3.7622 -0.0001 0.0000
# 2 63.8492 102.6330 37.9583 -3.7622 0.0001 0.0000
# 3 37.9583 37.9583 53.8998 0.0000 0.0000 0.0000
# 4 3.7622 -3.7622 0.0000 13.1456 0.0000 0.0001
# 5 -0.0001 0.0001 0.0000 0.0000 13.1456 3.7622
# 6 0.0000 0.0000 0.0000 0.0001 3.7622 19.3919
#
#
#
# Elastic Compliance Matrix: (Units=1/GPa)
#
#
# Indices 1 2 3 4 5 6 
#
# 1 0.018074 -0.009226 -0.006231 -0.007813 0.000000 0.000000
# 2 -0.009226 0.018074 -0.006231 0.007813 0.000000 0.000000
# 3 -0.006231 -0.006231 0.027329 0.000000 0.000000 0.000000
# 4 -0.007813 0.007813 0.000000 0.080543 0.000000 -0.000001
# 5 0.000000 0.000000 0.000000 0.000000 0.080543 -0.015626
# 6 0.000000 0.000000 0.000000 -0.000001 -0.015626 0.054600
#
#
# Mechanical properties :
#
#
# Convention : Reuss Voigt Hill
#
# Bulk Modulus (GPa) = 49.74896 59.85525 54.80210
# Shear Modulus (GPa) = 15.18651 17.09661 16.14156
#
# Velocity S-wave (km/s) = 2.90699 3.08440 2.99701
# Velocity P-wave (km/s) = 6.24104 6.78170 6.51698
#
# Compressibility (1/GPa) = 0.02010092
#
# Stress axis : x y z
#
# Youngs Moduli (GPa) = 55.32829 55.32829 36.59064
#
# Poissons Ratio (x) = 0.51045 0.22800
# Poissons Ratio (y) = 0.51045 0.22800
# Poissons Ratio (z) = 0.34476 0.34476
#
# Static dielectric constant tensor:
#      x y z
#    x 1.620270 0.000000 0.000000 
#    y 0.000000 1.620270 0.000000 
#    z 0.000000 0.000000 1.579790 
# 
# From -- ./inp_files/1879.got.cif
#   From: 2010.05.17/outbox.cif.g08.bks.cpg/sg152_1_cif.got.tgz:1879.got - 2010.05.20 10:36:06.
