data_PCOD9575839
_publ_section_title
;
Structure prediction by ZEFSAII (Michael W. Deem and Ramdas Pophale) SiO2 
 PCOD9575839
Probable space group: P 31 2 1
;
_chemical_formula_sum "Si O2"
_cell_formula_units_Z 33
_cell_length_a 19.758114
_cell_length_b 19.758114
_cell_length_c 5.435665
_cell_angle_alpha 90.000000
_cell_angle_beta 90.000000
_cell_angle_gamma 120.000000
_cell_volume 1837.698618
_symmetry_space_group_name_H-M "P 31 2 1"
_symmetry_group_IT_number 152
_symmetry_cell_setting 'hexagonal'
loop_
_space_group_symop_operation_xyz
x,y,z
-y,x-y,1/3+z
-x+y,-x,2/3+z
x-y,-y,2/3-z
-x,-x+y,1/3-z
y,x,-z
loop_
_atom_site_type_symbol
_atom_site_label
_atom_site_fract_x
_atom_site_fract_y
_atom_site_fract_z
Si Si1 0.536734 0.000000 0.833334
Si Si2 0.592991 0.266455 0.830079
Si Si3 0.563862 0.433271 0.148258
Si Si4 0.591465 0.765899 0.513359
Si Si5 0.674490 0.080873 0.210761
Si Si6 0.686003 0.593281 0.972459
O O1 0.520220 0.056177 0.664117
O O2 0.559109 0.943916 0.684070
O O3 0.646586 0.273353 0.058019
O O4 0.600445 0.211260 0.626217
O O5 0.501546 0.227361 0.864806
O O6 0.620753 0.500394 0.959362
O O7 0.482266 0.363166 0.053843
O O8 0.621351 0.857975 0.515679
O O9 0.602226 0.734709 0.776800
O O10 0.618988 0.737809 0.274881
O O11 0.658260 0.000000 0.333334
O O12 0.641989 0.641989 0.000000
#
# Coordination Sequence:
#
# PCOD9575839 Si02
#       6
#     3   6   6   6   6   6
#     4  10  20  36  56  78 108 150 198 238 288 350
#     4  11  24  34  52  73 115 146 198 253 307 334
#     4  10  23  33  57  75 107 151 196 247 290 346
#     4  11  26  38  61  84 110 151 195 240 293 350
#     4  10  22  37  58  80 116 144 196 234 298 344
#     4  11  25  42  60  81 110 149 196 241 287 347
#
# _framework density 17.957242999999998
#
# number of rings (size 3 to 8) (size 9 to 14) (size 15 to 20)
#    0.000    1.455    0.000    4.364   28.000    0.000 
#    0.000    0.000    0.000    0.000    0.000    0.000 
#    0.000    0.000    0.000    8.182    0.727    0.000 
#
# Total GULP energy -184470.049078 kJ/mol
# GULP energy per Si atom -5590.001487 kJ/mol
# Density = 1.791637 g / cm^3
# Si number density = 17.957243 Si / 1000 Ang^3
#
#
#
# Elastic Constant Matrix: (Units=GPa)
#
#
# Indices 1 2 3 4 5 6 
#
# 1 76.7046 30.2609 19.5157 0.9773 0.0000 0.0000
# 2 30.2609 76.7046 19.5157 -0.9773 0.0000 0.0000
# 3 19.5157 19.5157 58.2988 0.0000 0.0000 0.0000
# 4 0.9773 -0.9773 0.0000 14.1265 0.0000 0.0000
# 5 0.0000 0.0000 0.0000 0.0000 14.1265 0.9773
# 6 0.0000 0.0000 0.0000 0.0000 0.9773 23.2219
#
#
#
# Elastic Compliance Matrix: (Units=1/GPa)
#
#
# Indices 1 2 3 4 5 6 
#
# 1 0.016122 -0.005472 -0.003565 -0.001494 0.000000 0.000000
# 2 -0.005472 0.016122 -0.003565 0.001494 0.000000 0.000000
# 3 -0.003565 -0.003565 0.019540 0.000000 0.000000 0.000000
# 4 -0.001494 0.001494 0.000000 0.070996 0.000000 0.000000
# 5 0.000000 0.000000 0.000000 0.000000 0.070996 -0.002988
# 6 0.000000 0.000000 0.000000 0.000000 -0.002988 0.043189
#
#
# Mechanical properties :
#
#
# Convention : Reuss Voigt Hill
#
# Bulk Modulus (GPa) = 37.62352 38.92140 38.27246
# Shear Modulus (GPa) = 18.44829 19.78937 19.11883
#
# Velocity S-wave (km/s) = 3.20870 3.32328 3.26649
# Velocity P-wave (km/s) = 5.89278 6.03715 5.96540
#
# Compressibility (1/GPa) = 0.02657912
#
# Stress axis : x y z
#
# Youngs Moduli (GPa) = 62.02713 62.02713 51.17759
#
# Poissons Ratio (x) = 0.33943 0.18245
# Poissons Ratio (y) = 0.33943 0.18245
# Poissons Ratio (z) = 0.22113 0.22113
#
# Static dielectric constant tensor:
#      x y z
#    x 1.617760 0.000000 0.000000 
#    y 0.000000 1.617760 0.000000 
#    z 0.000000 0.000000 1.730290 
# 
# From -- ./inp_files/444.got.cif
#   From: 2010.05.17/outbox.cif.g08.bks.cpg/sg152_1_cif.got.tgz:444.got - 2010.05.20 10:36:06.
