data_PCOD9575284
_publ_section_title
;
Structure prediction by ZEFSAII (Michael W. Deem and Ramdas Pophale) SiO2 
 PCOD9575284
Probable space group: R -3
;
_chemical_formula_sum "Si O2"
_cell_formula_units_Z 144
_cell_length_a 28.394953
_cell_length_b 28.394953
_cell_length_c 9.038345
_cell_angle_alpha 90.000000
_cell_angle_beta 90.000000
_cell_angle_gamma 120.000000
_cell_volume 6311.053397
_symmetry_space_group_name_H-M "R -3"
_symmetry_group_IT_number 148
_symmetry_cell_setting 'hexagonal'
loop_
_space_group_symop_operation_xyz
x,y,z
-y,x-y,z
-x+y,-x,z
-x,-y,-z
y,-x+y,-z
x-y,x,-z
2/3+x,1/3+y,1/3+z
2/3-y,1/3+x-y,1/3+z
2/3-x+y,1/3-x,1/3+z
2/3-x,1/3-y,1/3-z
2/3+y,1/3-x+y,1/3-z
2/3+x-y,1/3+x,1/3-z
1/3+x,2/3+y,2/3+z
1/3-y,2/3+x-y,2/3+z
1/3-x+y,2/3-x,2/3+z
1/3-x,2/3-y,2/3-z
1/3+y,2/3-x+y,2/3-z
1/3+x-y,2/3+x,2/3-z
loop_
_atom_site_type_symbol
_atom_site_label
_atom_site_fract_x
_atom_site_fract_y
_atom_site_fract_z
Si Si1 0.836729 0.433143 0.032244
Si Si2 0.113572 0.611238 0.470724
Si Si3 0.440992 0.004004 0.175307
Si Si4 0.765387 0.619760 0.520358
Si Si5 0.064903 0.235082 0.721172
Si Si6 0.017398 0.846315 0.514514
Si Si7 0.120057 0.030162 0.984273
Si Si8 0.249697 0.995642 0.973637
O O1 0.889698 0.485002 0.099012
O O2 0.812495 0.389969 0.161458
O O3 0.797036 0.451051 0.952954
O O4 0.852490 0.405262 0.902684
O O5 0.097265 0.549373 0.443838
O O6 0.116810 0.634013 0.305578
O O7 0.169286 0.635255 0.568087
O O8 0.077955 0.627408 0.570098
O O9 0.507205 0.032706 0.198322
O O10 0.407623 0.036167 0.197791
O O11 0.415774 0.956012 0.294941
O O12 0.435347 0.984542 0.004849
O O13 0.726079 0.626250 0.401263
O O14 0.027110 0.188607 0.606090
O O15 0.028594 0.226891 0.864329
O O16 0.100133 0.070562 0.042871
#
# Coordination Sequence:
#
# PCOD9575284 Si02
#       8
#    18  18  18  18  18  18  18  18
#     4  12  23  41  68 101 134 179 234 294 347 422
#     4  12  22  41  69  99 130 181 239 295 341 417
#     4  11  25  47  75 104 143 194 235 300 362 431
#     4  11  23  48  73 106 142 187 238 293 363 429
#     4  12  25  45  70 105 140 183 248 287 354 432
#     4  12  22  39  67 103 136 180 230 300 344 415
#     4  12  24  39  60  91 137 182 230 284 356 419
#     4  12  25  44  73 105 142 181 242 303 354 424
#
# _framework density 22.817111000000001
#
# number of rings (size 3 to 8) (size 9 to 14) (size 15 to 20)
#    0.000    0.250    5.000    5.375    0.000    3.000 
#    2.250    0.000    0.000    1.000    0.000    0.000 
#    0.000    0.000    0.000    0.000    0.000    0.000 
#
# Total GULP energy -267787.194413 kJ/mol
# GULP energy per Si atom -5578.899884 kJ/mol
# Density = 2.276518 g / cm^3
# Si number density = 22.817111 Si / 1000 Ang^3
#
#
#
# Elastic Constant Matrix: (Units=GPa)
#
#
# Indices 1 2 3 4 5 6 
#
# 1 12.4421 34.8092 9.1297 -1.4643 15.5183 0.1900
# 2 34.8092 12.3863 9.1137 1.4967 -15.4995 -0.1679
# 3 9.1297 9.1137 128.6064 0.0474 0.0842 0.0531
# 4 -1.4643 1.4967 0.0474 28.8514 -0.0212 -15.5165
# 5 15.5183 -15.4995 0.0842 -0.0212 28.8368 -1.6494
# 6 0.1900 -0.1679 0.0531 -15.5165 -1.6494 -11.2325
#
#
#
# Elastic Compliance Matrix: (Units=1/GPa)
#
#
# Indices 1 2 3 4 5 6 
#
# 1 -0.001849 0.023635 -0.001552 -0.001491 0.013683 -0.000341
# 2 0.023635 -0.001876 -0.001537 0.001490 -0.013701 0.000374
# 3 -0.001552 -0.001537 0.007995 0.000004 -0.000012 0.000030
# 4 -0.001491 0.001490 0.000004 0.019782 0.000052 -0.027381
# 5 0.013683 -0.013701 -0.000012 0.000052 0.019805 -0.002544
# 6 -0.000341 0.000374 0.000030 -0.027381 -0.002544 -0.050841
#
#
# Mechanical properties :
#
#
# Convention : Reuss Voigt Hill
#
# Bulk Modulus (GPa) = 22.04456 28.83777 25.44117
# Shear Modulus (GPa) = -151.71212 15.98329 -67.86441
#
# Velocity S-wave (km/s) = -8.16302 2.64956 -5.45961
# Velocity P-wave (km/s) = 8.89742 4.69322 5.34499
#
# Compressibility (1/GPa) = 0.04536267
#
# Stress axis : x y z
#
# Youngs Moduli (GPa) = -540.83721 -532.91675 125.08259
#
# Poissons Ratio (x) = 12.59561 0.19412
# Poissons Ratio (y) = 12.78281 0.19220
# Poissons Ratio (z) = -0.83934 -0.81888
#
# Static dielectric constant tensor:
#      x y z
#    x 1.899420 0.000010 -0.000180 
#    y 0.000010 1.899430 0.000090 
#    z -0.000180 0.000090 2.214690 
# 
# From -- ./inp_files/1127.got.cif
#   From: 2010.05.17/outbox.cif.g08.bks.cpg/sg148_1_cif.got.tgz:1127.got - 2010.05.20 13:50:20.
