data_PCOD9575973
_publ_section_title
;
Structure prediction by ZEFSAII (Michael W. Deem and Ramdas Pophale) SiO2 
 PCOD9575973
Probable space group: P 31 2 1
;
_chemical_formula_sum "Si O2"
_cell_formula_units_Z 30
_cell_length_a 9.377201
_cell_length_b 9.377201
_cell_length_c 19.369460
_cell_angle_alpha 90.000000
_cell_angle_beta 90.000000
_cell_angle_gamma 120.000000
_cell_volume 1475.008746
_symmetry_space_group_name_H-M "P 31 2 1"
_symmetry_group_IT_number 152
_symmetry_cell_setting 'hexagonal'
loop_
_space_group_symop_operation_xyz
x,y,z
-y,x-y,1/3+z
-x+y,-x,2/3+z
x-y,-y,2/3-z
-x,-x+y,1/3-z
y,x,-z
loop_
_atom_site_type_symbol
_atom_site_label
_atom_site_fract_x
_atom_site_fract_y
_atom_site_fract_z
Si Si1 0.249402 0.424012 0.027545
Si Si2 0.463939 0.740033 0.942641
Si Si3 0.944544 0.397087 0.530347
Si Si4 0.404156 0.337915 0.247839
Si Si5 0.364985 0.087903 0.763491
O O1 0.374398 0.503773 0.093252
O O2 0.061451 0.359508 0.043527
O O3 0.281716 0.281716 0.000000
O O4 0.316480 0.569175 0.971839
O O5 0.581796 0.685770 0.905118
O O6 0.389987 0.827742 0.895785
O O7 0.539675 0.851099 0.010657
O O8 0.008369 0.489309 0.457687
O O9 0.801781 0.207885 0.532322
O O10 0.227723 0.322884 0.255207
O O11 0.275859 0.000000 0.833334
#
# Coordination Sequence:
#
# PCOD9575973 Si02
#       5
#     6   6   6   6   6
#     4   9  20  40  63  86 117 163 203 252 315 373
#     4  10  23  41  65  91 121 169 214 255 308 381
#     4  10  21  41  67  89 123 167 212 252 311 381
#     4  11  22  40  67  93 126 163 212 259 315 379
#     4  12  23  39  61  94 127 159 202 265 315 368
#
# _framework density 20.338863
#
# number of rings (size 3 to 8) (size 9 to 14) (size 15 to 20)
#    0.000    1.600    2.000    4.200    2.800    3.200 
#    0.000    1.000    0.000    0.000    0.000    0.000 
#    0.000    0.000    0.000    0.000    0.000    0.000 
#
# Total GULP energy -167625.843539 kJ/mol
# GULP energy per Si atom -5587.528118 kJ/mol
# Density = 2.029257 g / cm^3
# Si number density = 20.338863 Si / 1000 Ang^3
#
#
#
# Elastic Constant Matrix: (Units=GPa)
#
#
# Indices 1 2 3 4 5 6 
#
# 1 83.6389 33.8408 -3.1747 -3.1794 -0.0004 0.0000
# 2 33.8408 83.6389 -3.1747 3.1794 0.0004 0.0000
# 3 -3.1747 -3.1747 34.8505 0.0000 0.0000 0.0000
# 4 -3.1794 3.1794 0.0000 24.9770 0.0000 0.0004
# 5 -0.0004 0.0004 0.0000 0.0000 24.9770 -3.1794
# 6 0.0000 0.0000 0.0000 0.0004 -3.1794 24.8991
#
#
#
# Elastic Compliance Matrix: (Units=1/GPa)
#
#
# Indices 1 2 3 4 5 6 
#
# 1 0.014484 -0.005929 0.000779 0.002598 0.000000 0.000000
# 2 -0.005929 0.014484 0.000779 -0.002598 0.000000 0.000000
# 3 0.000779 0.000779 0.028836 0.000000 0.000000 0.000000
# 4 0.002598 -0.002598 0.000000 0.040698 0.000000 -0.000001
# 5 0.000000 0.000000 0.000000 0.000000 0.040698 0.005197
# 6 0.000000 0.000000 0.000000 -0.000001 0.005197 0.040826
#
#
# Mechanical properties :
#
#
# Convention : Reuss Voigt Hill
#
# Bulk Modulus (GPa) = 20.38261 28.56787 24.47524
# Shear Modulus (GPa) = 24.37588 26.61309 25.49448
#
# Velocity S-wave (km/s) = 3.46567 3.62122 3.54430
# Velocity P-wave (km/s) = 5.10468 5.61790 5.36743
#
# Compressibility (1/GPa) = 0.04906142
#
# Stress axis : x y z
#
# Youngs Moduli (GPa) = 69.04383 69.04383 34.67892
#
# Poissons Ratio (x) = 0.40938 -0.02702
# Poissons Ratio (y) = 0.40938 -0.02702
# Poissons Ratio (z) = -0.05380 -0.05380
#
# Static dielectric constant tensor:
#      x y z
#    x 1.706660 0.000000 0.000000 
#    y 0.000000 1.706660 0.000000 
#    z 0.000000 0.000000 1.796950 
# 
# From -- ./inp_files/2963.got.cif
#   From: 2010.05.17/outbox.cif.g08.bks.cpg/sg152_2_cif.got.tgz:2963.got - 2010.05.20 10:36:06.
