data_PCOD9575122
_publ_section_title
;
Structure prediction by ZEFSAII (Michael W. Deem and Ramdas Pophale) SiO2 
 PCOD9575122
Probable space group: R -3
;
_chemical_formula_sum "Si O2"
_cell_formula_units_Z 90
_cell_length_a 16.992876
_cell_length_b 16.992876
_cell_length_c 17.878556
_cell_angle_alpha 90.000000
_cell_angle_beta 90.000000
_cell_angle_gamma 120.000000
_cell_volume 4470.919470
_symmetry_space_group_name_H-M "R -3"
_symmetry_group_IT_number 148
_symmetry_cell_setting 'hexagonal'
loop_
_space_group_symop_operation_xyz
x,y,z
-y,x-y,z
-x+y,-x,z
-x,-y,-z
y,-x+y,-z
x-y,x,-z
2/3+x,1/3+y,1/3+z
2/3-y,1/3+x-y,1/3+z
2/3-x+y,1/3-x,1/3+z
2/3-x,1/3-y,1/3-z
2/3+y,1/3-x+y,1/3-z
2/3+x-y,1/3+x,1/3-z
1/3+x,2/3+y,2/3+z
1/3-y,2/3+x-y,2/3+z
1/3-x+y,2/3-x,2/3+z
1/3-x,2/3-y,2/3-z
1/3+y,2/3-x+y,2/3-z
1/3+x-y,2/3+x,2/3-z
loop_
_atom_site_type_symbol
_atom_site_label
_atom_site_fract_x
_atom_site_fract_y
_atom_site_fract_z
Si Si1 0.210504 0.464575 0.151231
Si Si2 0.751964 0.606609 0.000893
Si Si3 0.431132 0.248719 0.134428
Si Si4 0.856663 0.414585 0.369403
Si Si5 0.991083 0.570268 0.057454
O O1 0.177027 0.536455 0.140933
O O2 0.227870 0.433763 0.071982
O O3 0.139322 0.381407 0.201775
O O4 0.666083 0.618498 0.985284
O O5 0.739610 0.544684 0.072871
O O6 0.838602 0.703933 0.016427
O O7 0.333334 0.166667 0.166667
O O8 0.488276 0.281862 0.210539
O O9 0.436512 0.334540 0.089066
O O10 0.810256 0.329378 0.314684
O O11 0.000000 0.500000 0.000000
#
# Coordination Sequence:
#
# PCOD9575122 Si02
#       5
#    18  18  18  18  18
#     4  10  21  37  59  86 122 163 207 264 332 400
#     4  10  21  38  60  87 122 165 207 266 331 395
#     4  10  22  39  61  90 123 162 211 265 325 397
#     4  11  23  40  61  87 124 169 219 274 335 403
#     4  11  23  38  62  94 124 161 216 271 327 405
#
# _framework density 20.130087
#
# number of rings (size 3 to 8) (size 9 to 14) (size 15 to 20)
#    0.000    1.600    0.000    5.200    0.000   11.200 
#    0.000    0.000    0.000    3.200    0.000    0.000 
#    0.000    0.000    0.000    0.000    0.000    0.000 
#
# Total GULP energy -167210.384474 kJ/mol
# GULP energy per Si atom -5573.679482 kJ/mol
# Density = 2.008427 g / cm^3
# Si number density = 20.130087 Si / 1000 Ang^3
#
#
#
# Elastic Constant Matrix: (Units=GPa)
#
#
# Indices 1 2 3 4 5 6 
#
# 1 40.0492 37.1313 24.5560 -0.1670 12.4889 0.0000
# 2 37.1313 40.0492 24.5560 0.1670 -12.4889 0.0000
# 3 24.5560 24.5560 103.5849 0.0000 0.0000 0.0000
# 4 -0.1670 0.1670 0.0000 16.8080 0.0000 -12.4889
# 5 12.4889 -12.4889 0.0000 0.0000 16.8080 -0.1670
# 6 0.0000 0.0000 0.0000 -12.4889 -0.1670 1.4589
#
#
#
# Elastic Compliance Matrix: (Units=1/GPa)
#
#
# Indices 1 2 3 4 5 6 
#
# 1 -0.024330 0.039589 -0.003617 -0.000635 0.047494 0.000000
# 2 0.039589 -0.024330 -0.003617 0.000635 -0.047494 0.000000
# 3 -0.003617 -0.003617 0.011369 0.000000 0.000000 0.000000
# 4 -0.000635 0.000635 0.000000 -0.011096 0.000000 -0.094988
# 5 0.047494 -0.047494 0.000000 0.000000 -0.011096 -0.001270
# 6 0.000000 0.000000 0.000000 -0.094988 -0.001270 -0.127838
#
#
# Mechanical properties :
#
#
# Convention : Reuss Voigt Hill
#
# Bulk Modulus (GPa) = 36.47385 39.57444 38.02414
# Shear Modulus (GPa) = -20.58525 13.51101 -3.53712
#
# Velocity S-wave (km/s) = -3.20130 2.59353 -1.32701
# Velocity P-wave (km/s) = 2.11990 5.35449 4.07214
#
# Compressibility (1/GPa) = 0.02741690
#
# Stress axis : x y z
#
# Youngs Moduli (GPa) = -41.10095 -41.10095 87.95938
#
# Poissons Ratio (x) = 1.62713 0.31816
# Poissons Ratio (y) = 1.62713 0.31816
# Poissons Ratio (z) = -0.14867 -0.14867
#
# Static dielectric constant tensor:
#      x y z
#    x 1.733870 0.000000 0.000000 
#    y 0.000000 1.733870 0.000000 
#    z 0.000000 0.000000 1.756630 
# 
# From -- ./inp_files/2652.got.cif
#   From: 2010.05.17/outbox.cif.g08.bks.cpg/sg148_2_cif.got.tgz:2652.got - 2010.05.20 13:50:20.
