data_PCOD9575544
_publ_section_title
;
Structure prediction by ZEFSAII (Michael W. Deem and Ramdas Pophale) SiO2 
 PCOD9575544
Probable space group: P 31 1 2
;
_chemical_formula_sum "Si O2"
_cell_formula_units_Z 24
_cell_length_a 14.057358
_cell_length_b 14.057358
_cell_length_c 5.571344
_cell_angle_alpha 90.000000
_cell_angle_beta 90.000000
_cell_angle_gamma 120.000000
_cell_volume 953.450205
_symmetry_space_group_name_H-M "P 31 1 2"
_symmetry_group_IT_number 151
_symmetry_cell_setting 'hexagonal'
loop_
_space_group_symop_operation_xyz
x,y,z
-y,x-y,1/3+z
-x+y,-x,2/3+z
-y,-x,2/3-z
-x+y,y,1/3-z
x,x-y,-z
loop_
_atom_site_type_symbol
_atom_site_label
_atom_site_fract_x
_atom_site_fract_y
_atom_site_fract_z
Si Si1 0.075985 0.708508 0.732975
Si Si2 0.154230 0.577115 0.000000
Si Si3 0.225798 0.451595 0.666667
Si Si4 0.804525 0.498877 0.419512
Si Si5 0.854424 0.113300 0.581217
O O1 0.176674 0.823327 0.833334
O O2 0.106305 0.728081 0.451059
O O3 0.971347 0.697926 0.869087
O O4 0.085543 0.604311 0.812877
O O5 0.222950 0.691144 0.135177
O O6 0.735129 0.470257 0.666667
O O7 0.868668 0.434334 0.500000
O O8 0.866743 0.631807 0.412210
O O9 0.734422 0.468843 0.166667
O O10 0.902877 0.097124 0.333334
O O11 0.899453 0.100548 0.833334
#
# Coordination Sequence:
#
# PCOD9575544 Si02
#       5
#     6   3   3   6   6
#     4  10  23  42  67  96 137 184 230 301 366 437
#     4  10  22  39  62 100 140 178 238 282 373 442
#     4  10  22  39  66 100 138 182 234 292 365 438
#     4  10  19  35  54  81 118 166 223 265 318 377
#     4  10  24  44  65  95 134 182 233 287 346 422
#
# _framework density 25.171741000000001
#
# number of rings (size 3 to 8) (size 9 to 14) (size 15 to 20)
#    0.000    2.000    0.000    2.250    7.000   10.000 
#   20.250    2.500    0.000    1.500    0.000    0.000 
#    0.000    0.000    0.000    0.000    0.000    0.000 
#
# Total GULP energy -133645.347321 kJ/mol
# GULP energy per Si atom -5568.556138 kJ/mol
# Density = 2.511445 g / cm^3
# Si number density = 25.171741 Si / 1000 Ang^3
#
#
#
# Elastic Constant Matrix: (Units=GPa)
#
#
# Indices 1 2 3 4 5 6 
#
# 1 58.8419 59.8425 30.4832 0.0000 -2.1837 0.0000
# 2 59.8425 58.8419 30.4832 0.0000 2.1837 0.0000
# 3 30.4832 30.4832 226.6498 0.0000 0.0000 0.0000
# 4 0.0000 0.0000 0.0000 8.8911 0.0000 2.1837
# 5 -2.1837 2.1837 0.0000 0.0000 8.8911 0.0000
# 6 0.0000 0.0000 0.0000 2.1837 0.0000 -0.5003
#
#
#
# Elastic Compliance Matrix: (Units=1/GPa)
#
#
# Indices 1 2 3 4 5 6 
#
# 1 -0.236638 0.245689 -0.001217 0.000002 -0.118464 0.000000
# 2 0.245689 -0.236638 -0.001217 -0.000002 0.118464 0.000000
# 3 -0.001217 -0.001217 0.004740 0.000000 0.000000 0.000000
# 4 0.000002 -0.000002 0.000000 0.054280 0.000000 0.236928
# 5 -0.118464 0.118464 0.000000 0.000000 0.054280 0.000004
# 6 0.000000 0.000000 0.000000 0.236928 0.000004 -0.964655
#
#
# Mechanical properties :
#
#
# Convention : Reuss Voigt Hill
#
# Bulk Modulus (GPa) = 55.64113 65.10572 60.37342
# Shear Modulus (GPa) = -2.76985 18.35802 7.79408
#
# Velocity S-wave (km/s) = -1.05013 2.70351 1.76156
# Velocity P-wave (km/s) = 4.54777 5.97210 5.30793
#
# Compressibility (1/GPa) = 0.01797232
#
# Stress axis : x y z
#
# Youngs Moduli (GPa) = -4.22586 -4.22586 210.99101
#
# Poissons Ratio (x) = 1.03825 0.25684
# Poissons Ratio (y) = 1.03825 0.25684
# Poissons Ratio (z) = -0.00514 -0.00514
#
# Static dielectric constant tensor:
#      x y z
#    x 2.070470 0.000000 0.000000 
#    y 0.000000 2.070470 0.000000 
#    z 0.000000 0.000000 2.171450 
# 
# From -- ./inp_files/259.got.cif
#   From: 2010.05.17/outbox.cif.g08.bks.cpg/sg151_1_cif.got.tgz:259.got - 2010.05.20 10:33:20.
