data_PCOD9575464
_publ_section_title
;
Structure prediction by ZEFSAII (Michael W. Deem and Ramdas Pophale) SiO2 
 PCOD9575464
Probable space group: P 3 2 1
;
_chemical_formula_sum "Si O2"
_cell_formula_units_Z 24
_cell_length_a 8.515985
_cell_length_b 8.515985
_cell_length_c 18.919306
_cell_angle_alpha 90.000000
_cell_angle_beta 90.000000
_cell_angle_gamma 120.000000
_cell_volume 1188.243942
_symmetry_space_group_name_H-M "P 3 2 1"
_symmetry_group_IT_number 150
_symmetry_cell_setting 'hexagonal'
loop_
_space_group_symop_operation_xyz
x,y,z
-y,x-y,z
-x+y,-x,z
x-y,-y,-z
-x,-x+y,-z
y,x,-z
loop_
_atom_site_type_symbol
_atom_site_label
_atom_site_fract_x
_atom_site_fract_y
_atom_site_fract_z
Si Si1 0.324745 0.320992 0.142234
Si Si2 0.337247 0.461475 0.566649
Si Si3 0.798899 0.010095 0.301812
Si Si4 0.654112 0.652134 0.916936
O O1 0.286523 0.277186 0.224650
O O2 0.197460 0.391970 0.110193
O O3 0.529249 0.470785 0.125742
O O4 0.278331 0.137788 0.101655
O O5 0.503393 0.669673 0.564936
O O6 0.356867 0.356867 0.500000
O O7 0.318419 0.349195 0.637120
O O8 0.826482 0.835378 0.307792
O O9 0.619795 0.619795 0.000000
#
# Coordination Sequence:
#
# PCOD9575464 Si02
#       4
#     6   6   6   6
#     4  12  25  45  66 101 136 179 235 288 353 418
#     4  10  26  42  70 103 139 174 225 270 337 397
#     4  10  23  44  71  96 133 180 223 272 341 406
#     4  12  24  42  67  95 136 183 233 290 350 417
#
# _framework density 20.197875
#
# number of rings (size 3 to 8) (size 9 to 14) (size 15 to 20)
#    1.000    0.000    2.500    3.750    7.000    0.000 
#    0.000    0.000    0.000    0.000    0.000    0.000 
#    0.000    0.000    0.000    0.000    0.000    0.000 
#
# Total GULP energy -133985.112992 kJ/mol
# GULP energy per Si atom -5582.713041 kJ/mol
# Density = 2.015190 g / cm^3
# Si number density = 20.197875 Si / 1000 Ang^3
#
#
#
# Elastic Constant Matrix: (Units=GPa)
#
#
# Indices 1 2 3 4 5 6 
#
# 1 67.5242 26.7711 54.1953 -1.4122 0.0000 0.0000
# 2 26.7711 67.5242 54.1953 1.4122 0.0000 0.0000
# 3 54.1953 54.1953 156.5066 0.0000 0.0000 0.0000
# 4 -1.4122 1.4122 0.0000 13.5032 0.0000 0.0000
# 5 0.0000 0.0000 0.0000 0.0000 13.5032 -1.4122
# 6 0.0000 0.0000 0.0000 0.0000 -1.4122 20.3766
#
#
#
# Elastic Compliance Matrix: (Units=1/GPa)
#
#
# Indices 1 2 3 4 5 6 
#
# 1 0.021167 -0.003550 -0.006101 0.002585 0.000000 0.000000
# 2 -0.003550 0.021167 -0.006101 -0.002585 0.000000 0.000000
# 3 -0.006101 -0.006101 0.010615 0.000000 0.000000 0.000000
# 4 0.002585 -0.002585 0.000000 0.074597 0.000000 0.000000
# 5 0.000000 0.000000 0.000000 0.000000 0.074597 0.005170
# 6 0.000000 0.000000 0.000000 0.000000 0.005170 0.049434
#
#
# Mechanical properties :
#
#
# Convention : Reuss Voigt Hill
#
# Bulk Modulus (GPa) = 46.62622 62.43093 54.52858
# Shear Modulus (GPa) = 17.22779 19.90282 18.56530
#
# Velocity S-wave (km/s) = 2.92370 3.14250 3.03507
# Velocity P-wave (km/s) = 5.87641 6.64408 6.27200
#
# Compressibility (1/GPa) = 0.02144716
#
# Stress axis : x y z
#
# Youngs Moduli (GPa) = 47.24257 47.24257 94.21006
#
# Poissons Ratio (x) = 0.16770 0.57474
# Poissons Ratio (y) = 0.16770 0.57474
# Poissons Ratio (z) = 0.28821 0.28821
#
# Static dielectric constant tensor:
#      x y z
#    x 1.731080 0.000000 0.000000 
#    y 0.000000 1.731080 0.000000 
#    z 0.000000 0.000000 1.654920 
# 
# From -- ./inp_files/1135.got.cif
#   From: 2010.05.17/outbox.cif.g08.bks.cpg/sg150_cif.got.tgz:1135.got - 2010.05.20 13:53:18.
