data_PCOD9575089
_publ_section_title
;
Structure prediction by ZEFSAII (Michael W. Deem and Ramdas Pophale) SiO2 
 PCOD9575089
Probable space group: R -3
;
_chemical_formula_sum "Si O2"
_cell_formula_units_Z 144
_cell_length_a 23.259242
_cell_length_b 23.259242
_cell_length_c 18.075752
_cell_angle_alpha 90.000000
_cell_angle_beta 90.000000
_cell_angle_gamma 120.000000
_cell_volume 8468.726755
_symmetry_space_group_name_H-M "R -3"
_symmetry_group_IT_number 148
_symmetry_cell_setting 'hexagonal'
loop_
_space_group_symop_operation_xyz
x,y,z
-y,x-y,z
-x+y,-x,z
-x,-y,-z
y,-x+y,-z
x-y,x,-z
2/3+x,1/3+y,1/3+z
2/3-y,1/3+x-y,1/3+z
2/3-x+y,1/3-x,1/3+z
2/3-x,1/3-y,1/3-z
2/3+y,1/3-x+y,1/3-z
2/3+x-y,1/3+x,1/3-z
1/3+x,2/3+y,2/3+z
1/3-y,2/3+x-y,2/3+z
1/3-x+y,2/3-x,2/3+z
1/3-x,2/3-y,2/3-z
1/3+y,2/3-x+y,2/3-z
1/3+x-y,2/3+x,2/3-z
loop_
_atom_site_type_symbol
_atom_site_label
_atom_site_fract_x
_atom_site_fract_y
_atom_site_fract_z
Si Si1 0.458270 0.323668 0.672944
Si Si2 0.949461 0.548767 0.879366
Si Si3 0.458061 0.449911 0.612215
Si Si4 0.938043 0.396655 0.236602
Si Si5 0.879430 0.018663 0.481353
Si Si6 0.130580 0.867173 0.230819
Si Si7 0.637783 0.932603 0.367084
Si Si8 0.741788 0.644608 0.218070
O O1 0.478498 0.396474 0.641078
O O2 0.510524 0.330896 0.734867
O O3 0.447846 0.269727 0.610497
O O4 0.383336 0.293884 0.704499
O O5 0.875330 0.497410 0.857709
O O6 0.994957 0.587667 0.809358
O O7 0.992488 0.516319 0.909343
O O8 0.953549 0.594585 0.946787
O O9 0.417482 0.458700 0.679239
O O10 0.516721 0.522329 0.588466
O O11 0.421292 0.419301 0.534808
O O12 0.917474 0.442924 0.189081
O O13 0.887543 0.318667 0.225791
O O14 0.875683 0.954595 0.519533
O O15 0.193791 0.931585 0.261591
O O16 0.618182 0.980825 0.405637
#
# Coordination Sequence:
#
# PCOD9575089 Si02
#       8
#    18  18  18  18  18  18  18  18
#     4  11  19  38  56  73 114 143 178 233 276 328
#     4   9  19  33  55  80 107 135 185 226 281 324
#     4  11  22  38  52  79 111 156 179 225 296 334
#     4  10  20  37  53  80 111 146 180 224 285 338
#     4  12  24  36  52  77 112 151 191 231 272 328
#     4   9  19  34  56  82 104 140 182 228 275 327
#     4  11  19  34  58  85 107 138 189 233 272 338
#     4  11  23  35  55  79 116 146 186 232 280 344
#
# _framework density 17.003736
#
# number of rings (size 3 to 8) (size 9 to 14) (size 15 to 20)
#    0.750    0.750    3.750    3.125    1.750    1.000 
#    0.000    0.000    0.000    0.000    0.000    0.000 
#    0.000    0.000    0.000    3.625    0.000    0.500 
#
# Total GULP energy -267273.399862 kJ/mol
# GULP energy per Si atom -5568.195830 kJ/mol
# Density = 1.696503 g / cm^3
# Si number density = 17.003736 Si / 1000 Ang^3
#
#
#
# Elastic Constant Matrix: (Units=GPa)
#
#
# Indices 1 2 3 4 5 6 
#
# 1 51.5372 12.9908 15.2553 4.0249 -3.1015 0.0000
# 2 12.9908 51.5372 15.2553 -4.0249 3.1015 0.0000
# 3 15.2553 15.2553 100.7322 0.0000 0.0000 0.0000
# 4 4.0249 -4.0249 0.0000 17.4708 0.0000 3.1015
# 5 -3.1015 3.1015 0.0000 0.0000 17.4708 4.0249
# 6 0.0000 0.0000 0.0000 3.1015 4.0249 19.2732
#
#
#
# Elastic Compliance Matrix: (Units=1/GPa)
#
#
# Indices 1 2 3 4 5 6 
#
# 1 0.022395 -0.005702 -0.002528 -0.006473 0.004988 0.000000
# 2 -0.005702 0.022395 -0.002528 0.006473 -0.004988 0.000000
# 3 -0.002528 -0.002528 0.010693 0.000000 0.000000 0.000000
# 4 -0.006473 0.006473 0.000000 0.061992 0.000000 -0.009976
# 5 0.004988 -0.004988 0.000000 0.000000 0.061992 -0.012946
# 6 0.000000 0.000000 0.000000 -0.009976 -0.012946 0.056194
#
#
# Mechanical properties :
#
#
# Convention : Reuss Voigt Hill
#
# Bulk Modulus (GPa) = 29.44122 32.31217 30.87669
# Shear Modulus (GPa) = 18.62198 21.52994 20.07596
#
# Velocity S-wave (km/s) = 3.31293 3.56222 3.43983
# Velocity P-wave (km/s) = 5.65563 5.99695 5.82879
#
# Compressibility (1/GPa) = 0.03396599
#
# Stress axis : x y z
#
# Youngs Moduli (GPa) = 44.65313 44.65313 93.51904
#
# Poissons Ratio (x) = 0.25463 0.23641
# Poissons Ratio (y) = 0.25463 0.23641
# Poissons Ratio (z) = 0.11288 0.11288
#
# Static dielectric constant tensor:
#      x y z
#    x 1.585970 0.000000 0.000000 
#    y 0.000000 1.585970 0.000000 
#    z 0.000000 0.000000 1.606950 
# 
# From -- ./inp_files/2823.got.cif
#   From: 2010.05.17/outbox.cif.g08.bks.cpg/sg148_2_cif.got.tgz:2823.got - 2010.05.20 13:50:20.
