data_PCOD9575921
_publ_section_title
;
Structure prediction by ZEFSAII (Michael W. Deem and Ramdas Pophale) SiO2 
 PCOD9575921
Probable space group: P 31 2 1
;
_chemical_formula_sum "Si O2"
_cell_formula_units_Z 42
_cell_length_a 11.491740
_cell_length_b 11.491740
_cell_length_c 21.715876
_cell_angle_alpha 90.000000
_cell_angle_beta 90.000000
_cell_angle_gamma 120.000000
_cell_volume 2483.588086
_symmetry_space_group_name_H-M "P 31 2 1"
_symmetry_group_IT_number 152
_symmetry_cell_setting 'hexagonal'
loop_
_space_group_symop_operation_xyz
x,y,z
-y,x-y,1/3+z
-x+y,-x,2/3+z
x-y,-y,2/3-z
-x,-x+y,1/3-z
y,x,-z
loop_
_atom_site_type_symbol
_atom_site_label
_atom_site_fract_x
_atom_site_fract_y
_atom_site_fract_z
Si Si1 0.197682 0.598841 0.916667
Si Si2 0.546681 0.422635 0.037811
Si Si3 0.794151 0.530501 0.941163
Si Si4 0.469499 0.205849 0.558837
Si Si5 0.594798 0.964497 0.687110
Si Si6 0.453320 0.577366 0.537811
Si Si7 0.630301 0.594798 0.853777
O O1 0.290123 0.532860 0.930877
O O2 0.290122 0.757263 0.902457
O O3 0.108393 0.534953 0.856512
O O4 0.108393 0.573440 0.976822
O O5 0.582410 0.529012 0.092481
O O6 0.427210 0.427210 0.000000
O O7 0.670677 0.471844 0.989847
O O8 0.805868 0.402933 0.916667
O O9 0.757433 0.600693 0.886758
O O10 0.928647 0.637064 0.975788
O O11 0.399306 0.242568 0.613241
O O12 0.528157 0.329324 0.510152
O O13 0.362935 0.071353 0.524212
O O14 0.582409 0.053399 0.740852
O O15 0.572790 0.572790 0.500000
#
# Coordination Sequence:
#
# PCOD9575921 Si02
#       7
#     6   6   6   6   6   6   6
#     4  12  20  34  54  82 118 146 184 232 280 348
#     4  10  21  35  53  81 115 146 182 234 284 335
#     4  11  19  35  52  83 115 146 187 230 289 333
#     4  11  19  35  52  83 115 146 187 230 289 333
#     4  11  21  32  56  79 119 148 182 230 280 342
#     4  10  21  35  53  81 115 146 182 234 284 335
#     4  11  21  32  56  79 119 148 182 230 280 342
#
# _framework density 16.911017000000001
#
# number of rings (size 3 to 8) (size 9 to 14) (size 15 to 20)
#    0.000    1.143    7.143    0.000    0.000    0.000 
#    0.000    0.000    0.000    0.000    0.000   22.000 
#    0.000    0.000    0.000    0.000    0.000    0.000 
#
# Total GULP energy -233951.263042 kJ/mol
# GULP energy per Si atom -5570.268168 kJ/mol
# Density = 1.687253 g / cm^3
# Si number density = 16.911017 Si / 1000 Ang^3
#
#
#
# Elastic Constant Matrix: (Units=GPa)
#
#
# Indices 1 2 3 4 5 6 
#
# 1 57.6179 32.4632 35.6025 0.0001 0.0000 0.0000
# 2 32.4632 57.6179 35.6025 -0.0001 0.0000 0.0000
# 3 35.6025 35.6025 95.7943 0.0000 0.0000 0.0000
# 4 0.0001 -0.0001 0.0000 28.6198 0.0000 0.0000
# 5 0.0000 0.0000 0.0000 0.0000 28.6198 0.0001
# 6 0.0000 0.0000 0.0000 0.0000 0.0001 12.5773
#
#
#
# Elastic Compliance Matrix: (Units=1/GPa)
#
#
# Indices 1 2 3 4 5 6 
#
# 1 0.027737 -0.012018 -0.005842 0.000000 0.000000 0.000000
# 2 -0.012018 0.027737 -0.005842 0.000000 0.000000 0.000000
# 3 -0.005842 -0.005842 0.014781 0.000000 0.000000 0.000000
# 4 0.000000 0.000000 0.000000 0.034941 0.000000 0.000000
# 5 0.000000 0.000000 0.000000 0.000000 0.034941 0.000000
# 6 0.000000 0.000000 0.000000 0.000000 0.000000 0.079508
#
#
# Mechanical properties :
#
#
# Convention : Reuss Voigt Hill
#
# Bulk Modulus (GPa) = 43.76124 46.48514 45.12319
# Shear Modulus (GPa) = 18.20402 21.12084 19.66243
#
# Velocity S-wave (km/s) = 3.28450 3.53787 3.41354
# Velocity P-wave (km/s) = 6.34960 6.65105 6.50207
#
# Compressibility (1/GPa) = 0.02285127
#
# Stress axis : x y z
#
# Youngs Moduli (GPa) = 36.05357 36.05357 67.65219
#
# Poissons Ratio (x) = 0.43327 0.39523
# Poissons Ratio (y) = 0.43327 0.39523
# Poissons Ratio (z) = 0.21063 0.21063
#
# Static dielectric constant tensor:
#      x y z
#    x 1.577260 0.000000 0.000000 
#    y 0.000000 1.577260 0.000000 
#    z 0.000000 0.000000 1.617380 
# 
# From -- ./inp_files/2796.got.cif
#   From: 2010.05.17/outbox.cif.g08.bks.cpg/sg152_2_cif.got.tgz:2796.got - 2010.05.20 10:36:06.
