data_PCOD9575771
_publ_section_title
;
Structure prediction by ZEFSAII (Michael W. Deem and Ramdas Pophale) SiO2 
 PCOD9575771
Probable space group: P 31 2 1
;
_chemical_formula_sum "Si O2"
_cell_formula_units_Z 36
_cell_length_a 9.245120
_cell_length_b 9.245120
_cell_length_c 28.892846
_cell_angle_alpha 90.000000
_cell_angle_beta 90.000000
_cell_angle_gamma 120.000000
_cell_volume 2138.681239
_symmetry_space_group_name_H-M "P 31 2 1"
_symmetry_group_IT_number 152
_symmetry_cell_setting 'hexagonal'
loop_
_space_group_symop_operation_xyz
x,y,z
-y,x-y,1/3+z
-x+y,-x,2/3+z
x-y,-y,2/3-z
-x,-x+y,1/3-z
y,x,-z
loop_
_atom_site_type_symbol
_atom_site_label
_atom_site_fract_x
_atom_site_fract_y
_atom_site_fract_z
Si Si1 0.336375 0.770838 0.169963
Si Si2 0.628771 0.070674 0.751748
Si Si3 0.636021 0.446713 0.013332
Si Si4 0.293631 0.739952 0.746586
Si Si5 0.866433 0.788947 0.204541
Si Si6 0.720179 0.086413 0.424514
O O1 0.187445 0.647241 0.204466
O O2 0.336863 0.672912 0.124460
O O3 0.277829 0.901739 0.154648
O O4 0.507035 0.853879 0.198490
O O5 0.717966 0.195453 0.709464
O O6 0.438872 0.931309 0.743008
O O7 0.722955 0.969061 0.765388
O O8 0.484758 0.316014 0.046434
O O9 0.585587 0.585587 0.000000
O O10 0.643556 0.357697 0.966789
O O11 0.111582 0.716922 0.752507
O O12 0.774275 0.864356 0.233859
O O13 0.000000 0.912318 0.166667
#
# Coordination Sequence:
#
# PCOD9575771 Si02
#       6
#     6   6   6   6   6   6
#     4   9  18  34  54  73 101 138 168 201 253 312
#     4   9  19  36  53  72 101 135 167 205 254 302
#     4   9  20  37  53  70 101 141 171 201 252 315
#     4  10  19  32  54  79 102 129 172 216 249 295
#     4   9  18  32  51  75 102 131 168 213 256 300
#     4  10  19  33  53  77 104 134 170 212 259 304
#
# _framework density 16.832805
#
# number of rings (size 3 to 8) (size 9 to 14) (size 15 to 20)
#    0.000    2.667    0.000    2.500    0.000    5.333 
#    0.000    4.167    0.000    2.000    0.000    0.000 
#    0.000    0.000    0.000    0.000    0.000    0.000 
#
# Total GULP energy -200701.581787 kJ/mol
# GULP energy per Si atom -5575.043939 kJ/mol
# Density = 1.679449 g / cm^3
# Si number density = 16.832805 Si / 1000 Ang^3
#
#
#
# Elastic Constant Matrix: (Units=GPa)
#
#
# Indices 1 2 3 4 5 6 
#
# 1 82.5033 49.2905 52.7608 10.1829 -0.0001 0.0000
# 2 49.2905 82.5033 52.7608 -10.1829 0.0001 0.0000
# 3 52.7608 52.7608 127.8085 0.0000 0.0000 0.0000
# 4 10.1829 -10.1829 0.0000 21.4280 0.0000 0.0001
# 5 -0.0001 0.0001 0.0000 0.0000 21.4280 10.1829
# 6 0.0000 0.0000 0.0000 0.0001 10.1829 16.6064
#
#
#
# Elastic Compliance Matrix: (Units=1/GPa)
#
#
# Indices 1 2 3 4 5 6 
#
# 1 0.026912 -0.015578 -0.004679 -0.020192 0.000000 0.000000
# 2 -0.015578 0.026912 -0.004679 0.020192 0.000000 0.000000
# 3 -0.004679 -0.004679 0.011687 0.000000 0.000000 0.000000
# 4 -0.020192 0.020192 0.000000 0.065859 0.000000 0.000000
# 5 0.000000 0.000000 0.000000 0.000000 0.065859 -0.040384
# 6 0.000000 0.000000 0.000000 0.000000 -0.040384 0.084981
#
#
# Mechanical properties :
#
#
# Convention : Reuss Voigt Hill
#
# Bulk Modulus (GPa) = 63.94010 66.93768 65.43889
# Shear Modulus (GPa) = 14.82387 21.09268 17.95828
#
# Velocity S-wave (km/s) = 2.97080 3.54371 3.26983
# Velocity P-wave (km/s) = 7.05942 7.52306 7.29492
#
# Compressibility (1/GPa) = 0.01563964
#
# Stress axis : x y z
#
# Youngs Moduli (GPa) = 37.15822 37.15822 85.56531
#
# Poissons Ratio (x) = 0.57886 0.40033
# Poissons Ratio (y) = 0.57886 0.40033
# Poissons Ratio (z) = 0.17385 0.17385
#
# Static dielectric constant tensor:
#      x y z
#    x 1.551500 0.000000 0.000000 
#    y 0.000000 1.551500 0.000000 
#    z 0.000000 0.000000 1.576530 
# 
# From -- ./inp_files/3340.got.cif
#   From: 2010.05.17/outbox.cif.g08.bks.cpg/sg152_2_cif.got.tgz:3340.got - 2010.05.20 10:36:06.
