data_PCOD9575822
_publ_section_title
;
Structure prediction by ZEFSAII (Michael W. Deem and Ramdas Pophale) SiO2 
 PCOD9575822
Probable space group: P 31 2 1
;
_chemical_formula_sum "Si O2"
_cell_formula_units_Z 18
_cell_length_a 6.884662
_cell_length_b 6.884662
_cell_length_c 16.276741
_cell_angle_alpha 90.000000
_cell_angle_beta 90.000000
_cell_angle_gamma 120.000000
_cell_volume 668.133629
_symmetry_space_group_name_H-M "P 31 2 1"
_symmetry_group_IT_number 152
_symmetry_cell_setting 'hexagonal'
loop_
_space_group_symop_operation_xyz
x,y,z
-y,x-y,1/3+z
-x+y,-x,2/3+z
x-y,-y,2/3-z
-x,-x+y,1/3-z
y,x,-z
loop_
_atom_site_type_symbol
_atom_site_label
_atom_site_fract_x
_atom_site_fract_y
_atom_site_fract_z
Si Si1 0.267091 0.882235 0.916667
Si Si2 0.267085 0.882235 0.250000
Si Si3 0.267085 0.882230 0.583333
O O1 0.511422 0.896126 0.916667
O O2 0.103880 0.615295 0.916667
O O3 0.259183 0.000000 0.833334
O O4 0.259181 0.000002 0.000000
O O5 0.511416 0.896125 0.250000
O O6 0.259175 0.000000 0.333334
O O7 0.259179 0.000003 0.166667
#
# Coordination Sequence:
#
# PCOD9575822 Si02
#       3
#     6   6   6
#     4  10  20  34  58  82 108 144 186 222 268 330
#     4  10  20  34  58  82 108 144 186 222 268 330
#     4  10  20  34  58  82 108 144 186 222 268 330
#
# _framework density 26.940718
#
# number of rings (size 3 to 8) (size 9 to 14) (size 15 to 20)
#    2.000    0.000    0.000    6.000    0.000    0.000 
#    0.000    0.000    0.000   40.000    0.000    0.000 
#    0.000    0.000    0.000    0.000    0.000    0.000 
#
# Total GULP energy -100734.542785 kJ/mol
# GULP energy per Si atom -5596.363488 kJ/mol
# Density = 2.687940 g / cm^3
# Si number density = 26.940718 Si / 1000 Ang^3
#
#
#
# Elastic Constant Matrix: (Units=GPa)
#
#
# Indices 1 2 3 4 5 6 
#
# 1 127.4773 16.4322 61.9077 -0.0004 0.0002 0.0000
# 2 16.4322 127.4773 61.9077 0.0004 -0.0002 0.0000
# 3 61.9077 61.9077 314.3720 0.0000 0.0000 0.0000
# 4 -0.0004 0.0004 0.0000 -5.0638 0.0000 -0.0002
# 5 0.0002 -0.0002 0.0000 0.0000 -5.0638 -0.0004
# 6 0.0000 0.0000 0.0000 -0.0002 -0.0004 55.5225
#
#
#
# Elastic Compliance Matrix: (Units=1/GPa)
#
#
# Indices 1 2 3 4 5 6 
#
# 1 0.008686 -0.000320 -0.001648 -0.000001 0.000000 0.000000
# 2 -0.000320 0.008686 -0.001648 0.000001 0.000000 0.000000
# 3 -0.001648 -0.001648 0.003830 0.000000 0.000000 0.000000
# 4 -0.000001 0.000001 0.000000 -0.197482 0.000000 -0.000001
# 5 0.000000 0.000000 0.000000 0.000000 -0.197482 -0.000001
# 6 0.000000 0.000000 0.000000 -0.000001 -0.000001 0.018011
#
#
# Mechanical properties :
#
#
# Convention : Reuss Voigt Hill
#
# Bulk Modulus (GPa) = 71.57020 94.42465 82.99743
# Shear Modulus (GPa) = -14.54059 37.68427 11.57184
#
# Velocity S-wave (km/s) = -2.32572 3.74409 2.07476
# Velocity P-wave (km/s) = 4.40585 7.33595 6.05093
#
# Compressibility (1/GPa) = 0.01397230
#
# Stress axis : x y z
#
# Youngs Moduli (GPa) = 115.13008 115.13008 261.10846
#
# Poissons Ratio (x) = 0.03679 0.43019
# Poissons Ratio (y) = 0.03679 0.43019
# Poissons Ratio (z) = 0.18968 0.18968
#
# Static dielectric constant tensor:
#      x y z
#    x 2.061210 0.000000 0.000000 
#    y 0.000000 2.061210 0.000000 
#    z 0.000000 0.000000 1.974540 
# 
# From -- ./inp_files/1528.got.cif
#   From: 2010.05.17/outbox.cif.g08.bks.cpg/sg152_1_cif.got.tgz:1528.got - 2010.05.20 10:36:06.
