data_PCOD9575228
_publ_section_title
;
Structure prediction by ZEFSAII (Michael W. Deem and Ramdas Pophale) SiO2 
 PCOD9575228
Probable space group: R -3
;
_chemical_formula_sum "Si O2"
_cell_formula_units_Z 108
_cell_length_a 22.741745
_cell_length_b 22.741745
_cell_length_c 9.497452
_cell_angle_alpha 90.000000
_cell_angle_beta 90.000000
_cell_angle_gamma 120.000000
_cell_volume 4253.880740
_symmetry_space_group_name_H-M "R -3"
_symmetry_group_IT_number 148
_symmetry_cell_setting 'hexagonal'
loop_
_space_group_symop_operation_xyz
x,y,z
-y,x-y,z
-x+y,-x,z
-x,-y,-z
y,-x+y,-z
x-y,x,-z
2/3+x,1/3+y,1/3+z
2/3-y,1/3+x-y,1/3+z
2/3-x+y,1/3-x,1/3+z
2/3-x,1/3-y,1/3-z
2/3+y,1/3-x+y,1/3-z
2/3+x-y,1/3+x,1/3-z
1/3+x,2/3+y,2/3+z
1/3-y,2/3+x-y,2/3+z
1/3-x+y,2/3-x,2/3+z
1/3-x,2/3-y,2/3-z
1/3+y,2/3-x+y,2/3-z
1/3+x-y,2/3+x,2/3-z
loop_
_atom_site_type_symbol
_atom_site_label
_atom_site_fract_x
_atom_site_fract_y
_atom_site_fract_z
Si Si1 0.515115 0.239021 0.981413
Si Si2 0.310030 0.897030 0.350510
Si Si3 0.549212 0.288869 0.444502
Si Si4 0.381657 0.054858 0.319241
Si Si5 0.241251 0.453509 0.306260
Si Si6 0.421674 0.302040 0.053694
O O1 0.465619 0.158520 0.986230
O O2 0.577457 0.255509 0.089737
O O3 0.483777 0.239853 0.538172
O O4 0.470374 0.270682 0.038483
O O5 0.316333 0.904487 0.517965
O O6 0.239704 0.838284 0.285828
O O7 0.338176 0.973182 0.301283
O O8 0.567196 0.340918 0.313783
O O9 0.514456 0.249031 0.810676
O O10 0.322959 0.074831 0.329648
O O11 0.428261 0.077939 0.453836
O O12 0.292742 0.425147 0.306621
#
# Coordination Sequence:
#
# PCOD9575228 Si02
#       6
#    18  18  18  18  18  18
#     4  11  26  45  73 109 148 196 242 298 366 441
#     4  10  25  45  72 103 151 183 253 292 376 423
#     4  11  25  45  73 107 143 185 243 297 358 433
#     4  10  26  46  68 110 145 191 246 313 347 449
#     4  11  26  45  74 107 149 197 239 302 364 442
#     4  11  25  45  74 102 153 186 249 299 375 425
#
# _framework density 25.388583000000001
#
# number of rings (size 3 to 8) (size 9 to 14) (size 15 to 20)
#    0.000    1.333    0.000    3.167   18.667    4.667 
#    0.000    0.833    0.000    0.000    0.000    0.000 
#    0.000    0.000    0.000    0.000    0.000    0.000 
#
# Total GULP energy -200459.490284 kJ/mol
# GULP energy per Si atom -5568.319175 kJ/mol
# Density = 2.533080 g / cm^3
# Si number density = 25.388583 Si / 1000 Ang^3
#
#
#
# Elastic Constant Matrix: (Units=GPa)
#
#
# Indices 1 2 3 4 5 6 
#
# 1 61.9127 19.5295 24.4189 -5.9424 9.2697 -0.0027
# 2 19.5295 61.9170 24.4209 5.9420 -9.2711 0.0012
# 3 24.4189 24.4209 188.3452 -0.0003 -0.0083 -0.0037
# 4 -5.9424 5.9420 -0.0003 31.4451 -0.0015 -9.2746
# 5 9.2697 -9.2711 -0.0083 -0.0015 31.4398 -5.9439
# 6 -0.0027 0.0012 -0.0037 -9.2746 -5.9439 21.1905
#
#
#
# Elastic Compliance Matrix: (Units=1/GPa)
#
#
# Indices 1 2 3 4 5 6 
#
# 1 0.021078 -0.007764 -0.001726 0.005451 -0.008504 0.000003
# 2 -0.007764 0.021076 -0.001726 -0.005450 0.008503 -0.000003
# 3 -0.001726 -0.001726 0.005757 0.000000 0.000002 0.000002
# 4 0.005451 -0.005450 0.000000 0.038882 0.000005 0.017020
# 5 -0.008504 0.008503 0.000002 0.000005 0.038884 0.010907
# 6 0.000003 -0.000003 0.000002 0.017020 0.010907 0.057700
#
#
# Mechanical properties :
#
#
# Convention : Reuss Voigt Hill
#
# Bulk Modulus (GPa) = 39.24755 49.87928 44.56341
# Shear Modulus (GPa) = 23.33163 33.06878 28.20020
#
# Velocity S-wave (km/s) = 3.03476 3.61294 3.33640
# Velocity P-wave (km/s) = 5.26991 6.09044 5.69497
#
# Compressibility (1/GPa) = 0.02547930
#
# Stress axis : x y z
#
# Youngs Moduli (GPa) = 47.44282 47.44649 173.70131
#
# Poissons Ratio (x) = 0.36836 0.29989
# Poissons Ratio (y) = 0.36833 0.29978
# Poissons Ratio (z) = 0.08191 0.08188
#
# Static dielectric constant tensor:
#      x y z
#    x 2.082290 0.000000 0.000000 
#    y 0.000000 2.082300 0.000000 
#    z 0.000000 0.000000 2.062840 
# 
# From -- ./inp_files/1512.got.cif
#   From: 2010.05.17/outbox.cif.g08.bks.cpg/sg148_1_cif.got.tgz:1512.got - 2010.05.20 13:50:20.
