data_PCOD9575067
_publ_section_title
;
Structure prediction by ZEFSAII (Michael W. Deem and Ramdas Pophale) SiO2 
 PCOD9575067
Probable space group: R -3
;
_chemical_formula_sum "Si O2"
_cell_formula_units_Z 84
_cell_length_a 12.845087
_cell_length_b 12.845087
_cell_length_c 28.281907
_cell_angle_alpha 90.000000
_cell_angle_beta 90.000000
_cell_angle_gamma 120.000000
_cell_volume 4041.228636
_symmetry_space_group_name_H-M "R -3"
_symmetry_group_IT_number 148
_symmetry_cell_setting 'hexagonal'
loop_
_space_group_symop_operation_xyz
x,y,z
-y,x-y,z
-x+y,-x,z
-x,-y,-z
y,-x+y,-z
x-y,x,-z
2/3+x,1/3+y,1/3+z
2/3-y,1/3+x-y,1/3+z
2/3-x+y,1/3-x,1/3+z
2/3-x,1/3-y,1/3-z
2/3+y,1/3-x+y,1/3-z
2/3+x-y,1/3+x,1/3-z
1/3+x,2/3+y,2/3+z
1/3-y,2/3+x-y,2/3+z
1/3-x+y,2/3-x,2/3+z
1/3-x,2/3-y,2/3-z
1/3+y,2/3-x+y,2/3-z
1/3+x-y,2/3+x,2/3-z
loop_
_atom_site_type_symbol
_atom_site_label
_atom_site_fract_x
_atom_site_fract_y
_atom_site_fract_z
Si Si1 0.333334 0.666667 0.429755
Si Si2 0.813320 0.734655 0.745482
Si Si3 0.905660 0.311823 0.830678
Si Si4 0.666668 0.333334 0.982793
Si Si5 0.406696 0.187065 0.999407
Si Si6 0.990590 0.656725 0.403352
O O1 0.242437 0.526011 0.439527
O O2 0.333334 0.666667 0.372936
O O3 0.705158 0.659642 0.780883
O O4 0.774643 0.770129 0.697326
O O5 0.881578 0.662342 0.733459
O O6 0.770165 0.198200 0.834502
O O7 0.984075 0.302928 0.873897
O O8 0.527751 0.284911 0.972337
O O9 0.358005 0.239160 0.039659
O O10 0.320121 0.105847 0.958227
#
# Coordination Sequence:
#
# PCOD9575067 Si02
#       6
#     6  18  18   6  18  18
#     4   9  15  36  60  87 114 140 203 264 282 342
#     4  10  19  39  62  87 121 157 206 253 301 363
#     4  10  24  41  61  89 127 165 208 250 310 370
#     4   9  18  33  57  90 112 145 190 259 300 327
#     4  11  21  36  61  88 125 153 203 256 303 362
#     4  11  23  37  58  95 121 163 203 248 315 366
#
# _framework density 20.785755999999999
#
# number of rings (size 3 to 8) (size 9 to 14) (size 15 to 20)
#    0.000    1.714    6.429    0.857    3.000    2.571 
#    0.000    0.000    0.000    0.429    0.000    0.000 
#    0.000    0.000    0.000    0.000    0.000    0.000 
#
# Total GULP energy -155998.040298 kJ/mol
# GULP energy per Si atom -5571.358582 kJ/mol
# Density = 2.073845 g / cm^3
# Si number density = 20.785756 Si / 1000 Ang^3
#
#
#
# Elastic Constant Matrix: (Units=GPa)
#
#
# Indices 1 2 3 4 5 6 
#
# 1 38.5918 3.6030 13.3319 -1.7943 10.1059 0.0001
# 2 3.6030 38.5921 13.3319 1.7943 -10.1058 0.0000
# 3 13.3319 13.3319 72.9981 0.0000 0.0000 0.0000
# 4 -1.7943 1.7943 0.0000 25.6782 0.0000 -10.1060
# 5 10.1059 -10.1058 0.0000 0.0000 25.6783 -1.7942
# 6 0.0001 0.0000 0.0000 -10.1060 -1.7942 17.4943
#
#
#
# Elastic Compliance Matrix: (Units=1/GPa)
#
#
# Indices 1 2 3 4 5 6 
#
# 1 0.032064 -0.005272 -0.004893 0.002609 -0.014694 0.000000
# 2 -0.005272 0.032064 -0.004893 -0.002609 0.014694 0.000000
# 3 -0.004893 -0.004893 0.015486 0.000000 0.000000 0.000000
# 4 0.002609 -0.002609 0.000000 0.050874 0.000000 0.029389
# 5 -0.014694 0.014694 0.000000 0.000000 0.050874 0.005217
# 6 0.000000 0.000000 0.000000 0.029389 0.005217 0.074674
#
#
# Mechanical properties :
#
#
# Convention : Reuss Voigt Hill
#
# Bulk Modulus (GPa) = 20.20321 23.41287 21.80804
# Shear Modulus (GPa) = 16.52066 21.76451 19.14259
#
# Velocity S-wave (km/s) = 2.82229 3.23938 3.03800
# Velocity P-wave (km/s) = 4.51235 5.02791 4.77709
#
# Compressibility (1/GPa) = 0.04949709
#
# Stress axis : x y z
#
# Youngs Moduli (GPa) = 31.18763 31.18803 64.57343
#
# Poissons Ratio (x) = 0.16443 0.31596
# Poissons Ratio (y) = 0.16443 0.31596
# Poissons Ratio (z) = 0.15260 0.15260
#
# Static dielectric constant tensor:
#      x y z
#    x 1.838860 0.000000 0.000000 
#    y 0.000000 1.838860 0.000000 
#    z 0.000000 0.000000 1.732080 
# 
# From -- ./inp_files/3349.got.cif
#   From: 2010.05.17/outbox.cif.g08.bks.cpg/sg148_2_cif.got.tgz:3349.got - 2010.05.20 13:50:20.
