data_PCOD9575494
_publ_section_title
;
Structure prediction by ZEFSAII (Michael W. Deem and Ramdas Pophale) SiO2 
 PCOD9575494
Probable space group: P 31 1 2
;
_chemical_formula_sum "Si O2"
_cell_formula_units_Z 45
_cell_length_a 18.015104
_cell_length_b 18.015104
_cell_length_c 8.629525
_cell_angle_alpha 90.000000
_cell_angle_beta 90.000000
_cell_angle_gamma 120.000000
_cell_volume 2425.442985
_symmetry_space_group_name_H-M "P 31 1 2"
_symmetry_group_IT_number 151
_symmetry_cell_setting 'hexagonal'
loop_
_space_group_symop_operation_xyz
x,y,z
-y,x-y,1/3+z
-x+y,-x,2/3+z
-y,-x,2/3-z
-x+y,y,1/3-z
x,x-y,-z
loop_
_atom_site_type_symbol
_atom_site_label
_atom_site_fract_x
_atom_site_fract_y
_atom_site_fract_z
Si Si1 0.113492 0.976973 0.468854
Si Si2 0.170779 0.227684 0.043634
Si Si3 0.661445 0.054894 0.832279
Si Si4 0.992589 0.735055 0.408259
Si Si5 0.520283 0.479718 0.333334
Si Si6 0.892773 0.204463 0.118839
Si Si7 0.826056 0.321902 0.206332
Si Si8 0.555339 0.225884 0.364177
O O1 0.044197 0.955804 0.333334
O O2 0.072463 0.913769 0.614164
O O3 0.152656 0.076328 0.500000
O O4 0.186439 0.967680 0.380126
O O5 0.234326 0.278111 0.901760
O O6 0.134465 0.268929 0.166667
O O7 0.225309 0.195716 0.142535
O O8 0.566831 0.999122 0.759077
O O9 0.738076 0.077492 0.707108
O O10 0.672691 0.145202 0.891646
O O11 0.667123 0.008430 0.983993
O O12 0.891976 0.706427 0.431702
O O13 0.598240 0.495800 0.444443
O O14 0.866517 0.260761 0.230907
O O15 0.801034 0.372546 0.331563
O O16 0.744524 0.265892 0.096668
O O17 0.594450 0.297225 0.500000
#
# Coordination Sequence:
#
# PCOD9575494 Si02
#       8
#     6   6   6   6   3   6   6   6
#     4  10  22  36  53  74  93 124 169 227 300 355
#     4  11  24  38  50  71 101 128 169 239 302 354
#     4  10  17  30  55  75  98 136 186 230 274 337
#     4  11  20  34  55  73  94 130 179 225 283 364
#     4   8  16  26  48  76 100 134 186 234 272 318
#     4  11  20  34  53  78 102 139 181 234 298 360
#     4  10  18  28  51  72 107 145 192 233 288 325
#     4  11  15  30  49  74 106 145 189 245 274 319
#
# _framework density 18.553312999999999
#
# number of rings (size 3 to 8) (size 9 to 14) (size 15 to 20)
#    0.000    1.600    5.333    3.200    0.000    3.733 
#    0.000    2.667    0.000    6.400    0.000    0.000 
#    0.000    0.000    0.000    0.000    0.000    0.000 
#
# Total GULP energy -250651.341245 kJ/mol
# GULP energy per Si atom -5570.029805 kJ/mol
# Density = 1.851108 g / cm^3
# Si number density = 18.553313 Si / 1000 Ang^3
#
#
#
# Elastic Constant Matrix: (Units=GPa)
#
#
# Indices 1 2 3 4 5 6 
#
# 1 61.6315 34.9765 34.5892 -0.0001 10.8695 0.0000
# 2 34.9765 61.6315 34.5892 0.0001 -10.8695 0.0000
# 3 34.5892 34.5892 84.7531 0.0000 0.0000 0.0000
# 4 -0.0001 0.0001 0.0000 34.5294 0.0000 -10.8695
# 5 10.8695 -10.8695 0.0000 0.0000 34.5294 -0.0001
# 6 0.0000 0.0000 0.0000 -10.8695 -0.0001 13.3275
#
#
#
# Elastic Compliance Matrix: (Units=1/GPa)
#
#
# Indices 1 2 3 4 5 6 
#
# 1 0.032550 -0.017925 -0.005969 0.000000 -0.015889 0.000000
# 2 -0.017925 0.032550 -0.005969 0.000000 0.015889 0.000000
# 3 -0.005969 -0.005969 0.016671 0.000000 0.000000 0.000000
# 4 0.000000 0.000000 0.000000 0.038964 0.000000 0.031778
# 5 -0.015889 0.015889 0.000000 0.000000 0.038964 0.000000
# 6 0.000000 0.000000 0.000000 0.031778 0.000000 0.100950
#
#
# Mechanical properties :
#
#
# Convention : Reuss Voigt Hill
#
# Bulk Modulus (GPa) = 45.35941 46.25842 45.80892
# Shear Modulus (GPa) = 15.25677 23.40133 19.32905
#
# Velocity S-wave (km/s) = 2.87072 3.55533 3.23121
# Velocity P-wave (km/s) = 5.95729 6.46844 6.21812
#
# Compressibility (1/GPa) = 0.02204614
#
# Stress axis : x y z
#
# Youngs Moduli (GPa) = 30.72186 30.72186 59.98471
#
# Poissons Ratio (x) = 0.55069 0.35804
# Poissons Ratio (y) = 0.55069 0.35804
# Poissons Ratio (z) = 0.18337 0.18337
#
# Static dielectric constant tensor:
#      x y z
#    x 1.695040 0.000000 0.000000 
#    y 0.000000 1.695040 0.000000 
#    z 0.000000 0.000000 1.791260 
# 
# From -- ./inp_files/1953.got.cif
#   From: 2010.05.17/outbox.cif.g08.bks.cpg/sg151_1_cif.got.tgz:1953.got - 2010.05.20 10:33:20.
