data_PCOD9575306
_publ_section_title
;
Structure prediction by ZEFSAII (Michael W. Deem and Ramdas Pophale) SiO2 
 PCOD9575306
Probable space group: R -3
;
_chemical_formula_sum "Si O2"
_cell_formula_units_Z 75
_cell_length_a 11.554304
_cell_length_b 11.554304
_cell_length_c 27.747096
_cell_angle_alpha 90.000000
_cell_angle_beta 90.000000
_cell_angle_gamma 120.000000
_cell_volume 3208.010257
_symmetry_space_group_name_H-M "R -3"
_symmetry_group_IT_number 148
_symmetry_cell_setting 'hexagonal'
loop_
_space_group_symop_operation_xyz
x,y,z
-y,x-y,z
-x+y,-x,z
-x,-y,-z
y,-x+y,-z
x-y,x,-z
2/3+x,1/3+y,1/3+z
2/3-y,1/3+x-y,1/3+z
2/3-x+y,1/3-x,1/3+z
2/3-x,1/3-y,1/3-z
2/3+y,1/3-x+y,1/3-z
2/3+x-y,1/3+x,1/3-z
1/3+x,2/3+y,2/3+z
1/3-y,2/3+x-y,2/3+z
1/3-x+y,2/3-x,2/3+z
1/3-x,2/3-y,2/3-z
1/3+y,2/3-x+y,2/3-z
1/3+x-y,2/3+x,2/3-z
loop_
_atom_site_type_symbol
_atom_site_label
_atom_site_fract_x
_atom_site_fract_y
_atom_site_fract_z
Si Si1 0.333334 0.666668 0.733510
Si Si2 0.245262 0.018971 0.241618
Si Si3 0.668099 0.598769 0.827868
Si Si4 0.166667 0.333334 0.333334
Si Si5 0.388192 0.314400 0.274140
Si Si6 0.000000 0.000000 0.182777
O O1 0.459442 0.650480 0.717317
O O2 0.333334 0.666667 0.792073
O O3 0.297009 0.154657 0.270582
O O4 0.360284 0.033069 0.205168
O O5 0.192877 0.898458 0.279151
O O6 0.126295 0.997208 0.205813
O O7 0.794277 0.581729 0.820046
O O8 0.623109 0.635841 0.778939
O O9 0.314080 0.360861 0.311757
#
# Coordination Sequence:
#
# PCOD9575306 Si02
#       6
#     6  18  18   9  18   6
#     4  12  27  48  91 124 162 207 289 358 414 484
#     4  12  25  47  76 113 154 209 276 332 427 489
#     4  12  24  46  74 117 157 204 276 350 412 488
#     4  12  28  52  74 114 172 218 266 336 422 514
#     4  12  27  50  79 121 163 219 273 348 421 501
#     4  12  21  45  81 112 142 208 274 348 393 481
#
# _framework density 23.378978
#
# number of rings (size 3 to 8) (size 9 to 14) (size 15 to 20)
#    0.000    0.000    7.200    2.400    0.000    3.840 
#    0.000    1.200    0.000    0.000    0.000    0.000 
#    0.000    0.000    0.000    0.000    0.000    0.000 
#
# Total GULP energy -139232.107633 kJ/mol
# GULP energy per Si atom -5569.284305 kJ/mol
# Density = 2.332577 g / cm^3
# Si number density = 23.378978 Si / 1000 Ang^3
#
#
#
# Elastic Constant Matrix: (Units=GPa)
#
#
# Indices 1 2 3 4 5 6 
#
# 1 91.3497 30.4193 49.5351 21.8062 -17.2062 0.0000
# 2 30.4193 91.3507 49.5359 -21.8066 17.2061 -0.0003
# 3 49.5351 49.5359 139.2894 0.0001 -0.0002 -0.0002
# 4 21.8062 -21.8066 0.0001 -36.9602 0.0010 17.2055
# 5 -17.2062 17.2061 -0.0002 0.0010 -36.9620 21.8064
# 6 0.0000 -0.0003 -0.0002 17.2055 21.8064 30.4656
#
#
#
# Elastic Compliance Matrix: (Units=1/GPa)
#
#
# Indices 1 2 3 4 5 6 
#
# 1 0.010647 0.000908 -0.004110 0.005746 -0.004533 0.000000
# 2 0.000908 0.010647 -0.004110 -0.005746 0.004533 0.000000
# 3 -0.004110 -0.004110 0.010102 0.000000 0.000000 0.000000
# 4 0.005746 -0.005746 0.000000 -0.016055 0.000000 0.009067
# 5 -0.004533 0.004533 0.000000 0.000000 -0.016054 0.011492
# 6 0.000000 0.000000 0.000000 0.009067 0.011492 0.019478
#
#
# Mechanical properties :
#
#
# Convention : Reuss Voigt Hill
#
# Bulk Modulus (GPa) = 59.61074 64.55226 62.08150
# Shear Modulus (GPa) = 128.27584 4.14199 66.20892
#
# Velocity S-wave (km/s) = 7.41533 1.33249 5.32741
# Velocity P-wave (km/s) = 9.94330 5.48074 8.02831
#
# Compressibility (1/GPa) = 0.01677550
#
# Stress axis : x y z
#
# Youngs Moduli (GPa) = 93.91947 93.92050 98.98754
#
# Poissons Ratio (x) = -0.08532 0.40680
# Poissons Ratio (y) = -0.08532 0.40680
# Poissons Ratio (z) = 0.38597 0.38597
#
# Static dielectric constant tensor:
#      x y z
#    x 1.921620 0.000000 0.000000 
#    y 0.000000 1.921620 0.000000 
#    z 0.000000 0.000000 1.858420 
# 
# From -- ./inp_files/3939.got.cif
#   From: 2010.05.17/outbox.cif.g08.bks.cpg/sg148_2_cif.got.tgz:3939.got - 2010.05.20 13:50:20.
