data_PCOD9575641
_publ_section_title
;
Structure prediction by ZEFSAII (Michael W. Deem and Ramdas Pophale) SiO2 
 PCOD9575641
Probable space group: P 31 1 2
;
_chemical_formula_sum "Si O2"
_cell_formula_units_Z 27
_cell_length_a 7.807559
_cell_length_b 7.807559
_cell_length_c 24.344981
_cell_angle_alpha 90.000000
_cell_angle_beta 90.000000
_cell_angle_gamma 120.000000
_cell_volume 1285.199717
_symmetry_space_group_name_H-M "P 31 1 2"
_symmetry_group_IT_number 151
_symmetry_cell_setting 'hexagonal'
loop_
_space_group_symop_operation_xyz
x,y,z
-y,x-y,1/3+z
-x+y,-x,2/3+z
-y,-x,2/3-z
-x+y,y,1/3-z
x,x-y,-z
loop_
_atom_site_type_symbol
_atom_site_label
_atom_site_fract_x
_atom_site_fract_y
_atom_site_fract_z
Si Si1 0.496058 0.436642 0.552406
Si Si2 0.867869 0.900116 0.886689
Si Si3 0.498658 0.168132 0.764677
Si Si4 0.946547 0.893094 0.666667
Si Si5 0.538394 0.766927 0.632435
O O1 0.566691 0.480778 0.489965
O O2 0.611970 0.335700 0.581598
O O3 0.529777 0.632626 0.582088
O O4 0.263958 0.282408 0.551455
O O5 0.764247 0.662632 0.891033
O O6 0.011577 0.988424 0.833334
O O7 0.985692 0.976879 0.943705
O O8 0.394943 0.984089 0.722571
O O9 0.711456 0.778767 0.670395
O O10 0.338395 0.676790 0.666667
#
# Coordination Sequence:
#
# PCOD9575641 Si02
#       5
#     6   6   6   3   6
#     4  11  23  43  67 101 134 179 240 278 344 420
#     4  11  22  43  75  98 141 184 226 290 353 406
#     4  10  22  45  67  95 134 179 225 291 344 411
#     4  10  24  44  68 100 138 182 232 288 348 416
#     4  11  24  42  66  98 138 179 230 287 348 407
#
# _framework density 21.008410000000001
#
# number of rings (size 3 to 8) (size 9 to 14) (size 15 to 20)
#    0.000    1.333    2.222    4.667    1.556    1.778 
#   14.000    0.000    0.000    0.000    0.000    0.000 
#    0.000    0.000    0.000    0.000    0.000    0.000 
#
# Total GULP energy -150802.936758 kJ/mol
# GULP energy per Si atom -5585.293954 kJ/mol
# Density = 2.096059 g / cm^3
# Si number density = 21.008410 Si / 1000 Ang^3
#
#
#
# Elastic Constant Matrix: (Units=GPa)
#
#
# Indices 1 2 3 4 5 6 
#
# 1 74.5568 56.0408 14.0393 0.0002 17.1242 0.0000
# 2 56.0408 74.5568 14.0393 -0.0002 -17.1242 0.0000
# 3 14.0393 14.0393 74.6414 0.0000 0.0000 0.0000
# 4 0.0002 -0.0002 0.0000 5.7227 0.0000 -17.1242
# 5 17.1242 -17.1242 0.0000 0.0000 5.7227 0.0002
# 6 0.0000 0.0000 0.0000 -17.1242 0.0002 9.2580
#
#
#
# Elastic Compliance Matrix: (Units=1/GPa)
#
#
# Indices 1 2 3 4 5 6 
#
# 1 -0.001965 0.009945 -0.001501 0.000000 0.035637 0.000000
# 2 0.009945 -0.001965 -0.001501 0.000000 -0.035637 0.000000
# 3 -0.001501 -0.001501 0.013962 0.000000 0.000000 0.000000
# 4 0.000000 0.000000 0.000000 -0.038533 0.000000 -0.071274
# 5 0.035637 -0.035637 0.000000 0.000000 -0.038533 0.000001
# 6 0.000000 0.000000 0.000000 -0.071274 0.000001 -0.023819
#
#
# Mechanical properties :
#
#
# Convention : Reuss Voigt Hill
#
# Bulk Modulus (GPa) = 41.80961 43.55484 42.68223
# Shear Modulus (GPa) = -51.67076 13.44974 -19.11051
#
# Velocity S-wave (km/s) = -4.96474 2.53298 -3.01933
# Velocity P-wave (km/s) = 3.59448 5.41588 2.86456
#
# Compressibility (1/GPa) = 0.02391795
#
# Stress axis : x y z
#
# Youngs Moduli (GPa) = -508.94953 -508.94953 71.62300
#
# Poissons Ratio (x) = 5.06132 0.10750
# Poissons Ratio (y) = 5.06132 0.10750
# Poissons Ratio (z) = -0.76389 -0.76389
#
# Static dielectric constant tensor:
#      x y z
#    x 1.796100 0.000000 0.000000 
#    y 0.000000 1.796100 0.000000 
#    z 0.000000 0.000000 1.748750 
# 
# From -- ./inp_files/4791.got.cif
#   From: 2010.05.17/outbox.cif.g08.bks.cpg/sg151_3_cif.got.tgz:4791.got - 2010.05.20 10:33:20.
