data_PCOD9575976
_publ_section_title
;
Structure prediction by ZEFSAII (Michael W. Deem and Ramdas Pophale) SiO2 
 PCOD9575976
Probable space group: P 31 2 1
;
_chemical_formula_sum "Si O2"
_cell_formula_units_Z 27
_cell_length_a 8.775061
_cell_length_b 8.775061
_cell_length_c 21.572284
_cell_angle_alpha 90.000000
_cell_angle_beta 90.000000
_cell_angle_gamma 120.000000
_cell_volume 1438.556916
_symmetry_space_group_name_H-M "P 31 2 1"
_symmetry_group_IT_number 152
_symmetry_cell_setting 'hexagonal'
loop_
_space_group_symop_operation_xyz
x,y,z
-y,x-y,1/3+z
-x+y,-x,2/3+z
x-y,-y,2/3-z
-x,-x+y,1/3-z
y,x,-z
loop_
_atom_site_type_symbol
_atom_site_label
_atom_site_fract_x
_atom_site_fract_y
_atom_site_fract_z
Si Si1 0.495889 0.421125 0.589421
Si Si2 0.204237 0.302080 0.800096
Si Si3 0.817790 0.000000 0.833334
Si Si4 0.265391 0.470498 0.278220
Si Si5 0.371590 0.552711 0.149039
O O1 0.311819 0.284124 0.557333
O O2 0.513223 0.606868 0.605133
O O3 0.514925 0.340794 0.653579
O O4 0.652165 0.456994 0.542118
O O5 0.279562 0.234797 0.744150
O O6 0.188415 0.470911 0.782083
O O7 0.360359 0.353767 0.851125
O O8 0.012406 0.162385 0.823277
O O9 0.393742 0.592311 0.223066
#
# Coordination Sequence:
#
# PCOD9575976 Si02
#       5
#     6   6   3   6   6
#     4  12  22  42  67  92 132 167 220 265 337 381
#     4  10  22  39  64  93 128 167 221 256 337 380
#     4  12  22  38  70  90 130 176 204 278 320 394
#     4  10  24  39  65  96 127 169 218 268 325 403
#     4  10  21  42  63  89 130 170 208 275 316 390
#
# _framework density 18.768806999999999
#
# number of rings (size 3 to 8) (size 9 to 14) (size 15 to 20)
#    1.333    0.000    2.222    4.000    3.111    0.889 
#    0.000    1.111    0.000    0.000    0.000    0.000 
#    0.000    0.000    0.000    0.000    0.000    0.000 
#
# Total GULP energy -150326.617246 kJ/mol
# GULP energy per Si atom -5567.652491 kJ/mol
# Density = 1.872609 g / cm^3
# Si number density = 18.768807 Si / 1000 Ang^3
#
#
#
# Elastic Constant Matrix: (Units=GPa)
#
#
# Indices 1 2 3 4 5 6 
#
# 1 81.4464 22.9185 18.2230 -2.0808 -0.0002 0.0000
# 2 22.9185 81.4464 18.2230 2.0808 0.0002 0.0000
# 3 18.2230 18.2230 96.6392 0.0000 0.0000 0.0000
# 4 -2.0808 2.0808 0.0000 16.0741 0.0000 0.0002
# 5 -0.0002 0.0002 0.0000 0.0000 16.0741 -2.0808
# 6 0.0000 0.0000 0.0000 0.0002 -2.0808 29.2640
#
#
#
# Elastic Compliance Matrix: (Units=1/GPa)
#
#
# Indices 1 2 3 4 5 6 
#
# 1 0.013751 -0.003494 -0.001934 0.002232 0.000000 0.000000
# 2 -0.003494 0.013751 -0.001934 -0.002232 0.000000 0.000000
# 3 -0.001934 -0.001934 0.011077 0.000000 0.000000 0.000000
# 4 0.002232 -0.002232 0.000000 0.062790 0.000000 0.000000
# 5 0.000000 0.000000 0.000000 0.000000 0.062790 0.004465
# 6 0.000000 0.000000 0.000000 0.000000 0.004465 0.034489
#
#
# Mechanical properties :
#
#
# Convention : Reuss Voigt Hill
#
# Bulk Modulus (GPa) = 41.92004 42.02900 41.97452
# Shear Modulus (GPa) = 22.59136 25.62694 24.10915
#
# Velocity S-wave (km/s) = 3.47315 3.69914 3.58793
# Velocity P-wave (km/s) = 6.20219 6.37860 6.29101
#
# Compressibility (1/GPa) = 0.02385494
#
# Stress axis : x y z
#
# Youngs Moduli (GPa) = 72.72253 72.72253 90.27544
#
# Poissons Ratio (x) = 0.25407 0.17461
# Poissons Ratio (y) = 0.25407 0.17461
# Poissons Ratio (z) = 0.14066 0.14066
#
# Static dielectric constant tensor:
#      x y z
#    x 1.668960 0.000000 0.000000 
#    y 0.000000 1.668960 0.000000 
#    z 0.000000 0.000000 1.644940 
# 
# From -- ./inp_files/3257.got.cif
#   From: 2010.05.17/outbox.cif.g08.bks.cpg/sg152_2_cif.got.tgz:3257.got - 2010.05.20 10:36:06.
