data_PCOD9575396
_publ_section_title
;
Structure prediction by ZEFSAII (Michael W. Deem and Ramdas Pophale) SiO2 
 PCOD9575396
Probable space group: P 3 1 2
;
_chemical_formula_sum "Si O2"
_cell_formula_units_Z 24
_cell_length_a 14.271856
_cell_length_b 14.271856
_cell_length_c 7.827537
_cell_angle_alpha 90.000000
_cell_angle_beta 90.000000
_cell_angle_gamma 120.000000
_cell_volume 1380.755148
_symmetry_space_group_name_H-M "P 3 1 2"
_symmetry_group_IT_number 149
_symmetry_cell_setting 'hexagonal'
loop_
_space_group_symop_operation_xyz
x,y,z
-y,x-y,z
-x+y,-x,z
-y,-x,-z
-x+y,y,-z
x,x-y,-z
loop_
_atom_site_type_symbol
_atom_site_label
_atom_site_fract_x
_atom_site_fract_y
_atom_site_fract_z
Si Si1 0.332157 0.452923 0.794341
Si Si2 0.667844 0.120766 0.294342
Si Si3 0.547078 0.879234 0.205659
Si Si4 0.667844 0.120766 0.705659
O O1 0.218593 0.437186 0.730971
O O2 0.433518 0.566483 0.731653
O O3 0.360111 0.360111 0.750000
O O4 0.331661 0.459548 0.000000
O O5 0.668339 0.127887 0.500000
O O6 0.781407 0.218593 0.230970
O O7 0.566483 0.132965 0.231653
O O8 0.639889 1.000000 0.250000
#
# Coordination Sequence:
#
# PCOD9575396 Si02
#       4
#     6   6   6   6
#     4   9  17  29  45  65  89 116 144 175 213 256
#     4   9  17  29  45  65  89 116 144 175 213 256
#     4   9  17  29  45  65  89 116 144 175 213 256
#     4   9  17  29  45  65  89 116 144 175 213 256
#
# _framework density 17.381792999999998
#
# number of rings (size 3 to 8) (size 9 to 14) (size 15 to 20)
#    0.000    3.000    0.000    1.000    0.000    6.000 
#    0.000    0.000    0.000    7.000    0.000    0.000 
#    0.000    0.000    0.000    0.000    0.000    0.000 
#
# Total GULP energy -133753.990497 kJ/mol
# GULP energy per Si atom -5573.082937 kJ/mol
# Density = 1.734223 g / cm^3
# Si number density = 17.381793 Si / 1000 Ang^3
#
#
#
# Elastic Constant Matrix: (Units=GPa)
#
#
# Indices 1 2 3 4 5 6 
#
# 1 152.1666 99.3297 5.3488 0.0000 0.0000 0.0000
# 2 99.3297 152.1666 5.3488 0.0000 0.0000 0.0000
# 3 5.3488 5.3488 18.3451 0.0000 0.0000 0.0000
# 4 0.0000 0.0000 0.0000 20.7374 0.0000 0.0000
# 5 0.0000 0.0000 0.0000 0.0000 20.7374 0.0000
# 6 0.0000 0.0000 0.0000 0.0000 0.0000 26.4184
#
#
#
# Elastic Compliance Matrix: (Units=1/GPa)
#
#
# Indices 1 2 3 4 5 6 
#
# 1 0.011476 -0.007450 -0.001174 0.000000 0.000000 0.000000
# 2 -0.007450 0.011476 -0.001174 0.000000 0.000000 0.000000
# 3 -0.001174 -0.001174 0.055195 0.000000 0.000000 0.000000
# 4 0.000000 0.000000 0.000000 0.048222 0.000000 0.000000
# 5 0.000000 0.000000 0.000000 0.000000 0.048222 0.000000
# 6 0.000000 0.000000 0.000000 0.000000 0.000000 0.037852
#
#
# Mechanical properties :
#
#
# Convention : Reuss Voigt Hill
#
# Bulk Modulus (GPa) = 17.07890 60.30363 38.69127
# Shear Modulus (GPa) = 19.87625 27.75538 23.81581
#
# Velocity S-wave (km/s) = 3.38525 4.00034 3.70558
# Velocity P-wave (km/s) = 5.01268 7.49039 6.37310
#
# Compressibility (1/GPa) = 0.05855177
#
# Stress axis : x y z
#
# Youngs Moduli (GPa) = 87.13718 87.13718 18.11758
#
# Poissons Ratio (x) = 0.64917 0.02127
# Poissons Ratio (y) = 0.64917 0.02127
# Poissons Ratio (z) = 0.10229 0.10229
#
# Static dielectric constant tensor:
#      x y z
#    x 1.585080 0.000000 0.000000 
#    y 0.000000 1.585080 0.000000 
#    z 0.000000 0.000000 1.639300 
# 
# From -- ./inp_files/460.got.cif
#   From: 2010.05.17/outbox.cif.g08.bks.cpg/sg149_cif.got.tgz:460.got - 2010.05.20 13:52:34.
