data_PCOD9575800
_publ_section_title
;
Structure prediction by ZEFSAII (Michael W. Deem and Ramdas Pophale) SiO2 
 PCOD9575800
Probable space group: P 31 2 1
;
_chemical_formula_sum "Si O2"
_cell_formula_units_Z 36
_cell_length_a 8.492835
_cell_length_b 8.492835
_cell_length_c 27.829379
_cell_angle_alpha 90.000000
_cell_angle_beta 90.000000
_cell_angle_gamma 120.000000
_cell_volume 1738.359200
_symmetry_space_group_name_H-M "P 31 2 1"
_symmetry_group_IT_number 152
_symmetry_cell_setting 'hexagonal'
loop_
_space_group_symop_operation_xyz
x,y,z
-y,x-y,1/3+z
-x+y,-x,2/3+z
x-y,-y,2/3-z
-x,-x+y,1/3-z
y,x,-z
loop_
_atom_site_type_symbol
_atom_site_label
_atom_site_fract_x
_atom_site_fract_y
_atom_site_fract_z
Si Si1 0.119340 0.633005 0.940145
Si Si2 0.377651 0.803427 0.852879
Si Si3 0.058675 0.803254 0.312623
Si Si4 0.796206 0.425808 0.664681
Si Si5 0.259607 0.744515 0.437533
Si Si6 0.875465 0.773963 0.124008
O O1 0.271042 0.762969 0.902659
O O2 0.196863 0.526389 0.970319
O O3 0.938291 0.514467 0.909066
O O4 0.077006 0.735351 0.982778
O O5 0.271186 0.635805 0.816448
O O6 0.570587 0.813566 0.859255
O O7 0.424094 0.000000 0.833334
O O8 0.241296 0.784869 0.313745
O O9 0.007731 0.806399 0.257521
O O10 0.120471 0.000000 0.333334
O O11 0.754533 0.377434 0.608891
O O12 0.000000 0.584735 0.666667
O O13 0.224275 0.915453 0.443206
O O14 0.000000 0.906566 0.166667
#
# Coordination Sequence:
#
# PCOD9575800 Si02
#       6
#     6   6   6   6   6   6
#     4  11  22  37  71 100 128 177 234 287 345 424
#     4  11  25  41  64  95 135 181 234 284 344 418
#     4  10  19  42  66  95 131 180 222 278 348 415
#     4  10  19  37  67  94 130 172 228 275 342 410
#     4  11  23  42  66  97 137 176 225 288 353 415
#     4  11  22  41  69  97 134 184 230 278 354 421
#
# _framework density 20.709184
#
# number of rings (size 3 to 8) (size 9 to 14) (size 15 to 20)
#    0.000    1.333    6.667    1.000    4.667    0.667 
#    0.000    0.000    0.000   19.000    0.000    0.000 
#    0.000    0.000    0.000    0.000    0.000    0.000 
#
# Total GULP energy -200913.441152 kJ/mol
# GULP energy per Si atom -5580.928921 kJ/mol
# Density = 2.066205 g / cm^3
# Si number density = 20.709184 Si / 1000 Ang^3
#
#
#
# Elastic Constant Matrix: (Units=GPa)
#
#
# Indices 1 2 3 4 5 6 
#
# 1 -36.7039 147.3019 42.2360 -38.9312 0.0002 0.0000
# 2 147.3019 -36.7039 42.2360 38.9312 -0.0002 0.0000
# 3 42.2360 42.2360 147.7187 0.0000 0.0000 0.0000
# 4 -38.9312 38.9312 0.0000 -12.2081 0.0000 -0.0002
# 5 0.0002 -0.0002 0.0000 0.0000 -12.2081 -38.9312
# 6 0.0000 0.0000 0.0000 -0.0002 -38.9312 -92.0029
#
#
#
# Elastic Compliance Matrix: (Units=1/GPa)
#
#
# Indices 1 2 3 4 5 6 
#
# 1 0.013561 -0.001993 -0.003308 -0.049599 0.000000 0.000000
# 2 -0.001993 0.013561 -0.003308 0.049599 0.000000 0.000000
# 3 -0.003308 -0.003308 0.008661 0.000000 0.000000 0.000000
# 4 -0.049599 0.049599 0.000000 0.234425 0.000000 0.000000
# 5 0.000000 0.000000 0.000000 0.000000 0.234425 -0.099198
# 6 0.000000 0.000000 0.000000 0.000000 -0.099198 0.031106
#
#
# Mechanical properties :
#
#
# Convention : Reuss Voigt Hill
#
# Bulk Modulus (GPa) = 53.85953 59.76207 56.81080
# Shear Modulus (GPa) = 8.94224 -33.78134 -12.41955
#
# Velocity S-wave (km/s) = 2.08024 -4.04322 -2.45156
# Velocity P-wave (km/s) = 5.64215 2.66899 4.41347
#
# Compressibility (1/GPa) = 0.01856682
#
# Stress axis : x y z
#
# Youngs Moduli (GPa) = 73.74303 73.74303 115.45990
#
# Poissons Ratio (x) = 0.14694 0.38189
# Poissons Ratio (y) = 0.14694 0.38189
# Poissons Ratio (z) = 0.24391 0.24391
#
# Static dielectric constant tensor:
#      x y z
#    x 1.782200 0.000000 0.000000 
#    y 0.000000 1.782200 0.000000 
#    z 0.000000 0.000000 1.765330 
# 
# From -- ./inp_files/3400.got.cif
#   From: 2010.05.17/outbox.cif.g08.bks.cpg/sg152_2_cif.got.tgz:3400.got - 2010.05.20 10:36:06.
