data_PCOD9575498
_publ_section_title
;
Structure prediction by ZEFSAII (Michael W. Deem and Ramdas Pophale) SiO2 
 PCOD9575498
Probable space group: P 31 1 2
;
_chemical_formula_sum "Si O2"
_cell_formula_units_Z 42
_cell_length_a 8.811437
_cell_length_b 8.811437
_cell_length_c 25.831952
_cell_angle_alpha 90.000000
_cell_angle_beta 90.000000
_cell_angle_gamma 120.000000
_cell_volume 1736.926086
_symmetry_space_group_name_H-M "P 31 1 2"
_symmetry_group_IT_number 151
_symmetry_cell_setting 'hexagonal'
loop_
_space_group_symop_operation_xyz
x,y,z
-y,x-y,1/3+z
-x+y,-x,2/3+z
-y,-x,2/3-z
-x+y,y,1/3-z
x,x-y,-z
loop_
_atom_site_type_symbol
_atom_site_label
_atom_site_fract_x
_atom_site_fract_y
_atom_site_fract_z
Si Si1 0.337481 0.488234 0.217139
Si Si2 0.872750 0.206870 0.632871
Si Si3 0.231675 0.416836 0.322355
Si Si4 0.313243 0.222471 0.586999
Si Si5 0.198472 0.335402 0.905656
Si Si6 0.145020 0.171836 0.807672
Si Si7 0.729320 0.324081 0.111489
O O1 0.231626 0.463252 0.166667
O O2 0.191772 0.418200 0.262719
O O3 0.479695 0.691190 0.226840
O O4 0.451307 0.389550 0.215417
O O5 0.974479 0.274747 0.687159
O O6 0.814181 0.327591 0.602116
O O7 0.954045 0.156792 0.583892
O O8 0.704959 0.027873 0.653966
O O9 0.387429 0.612572 0.333334
O O10 0.091630 0.351587 0.368138
O O11 0.233571 0.283242 0.540854
O O12 0.511769 0.282988 0.575351
O O13 0.203385 0.010477 0.577819
O O14 0.267312 0.276547 0.856394
O O15 0.015256 0.984745 0.833334
O O16 0.636223 0.272446 0.166667
#
# Coordination Sequence:
#
# PCOD9575498 Si02
#       7
#     6   6   6   6   6   6   6
#     4   9  16  28  52  81  97 122 176 234 264 301
#     4  10  18  28  48  77 105 134 179 233 272 319
#     4   8  15  29  50  74  97 130 179 223 257 308
#     4   9  16  31  52  75  99 136 189 232 262 313
#     4   8  15  29  47  70 100 132 169 215 268 317
#     4  10  19  30  49  77 109 141 174 224 288 336
#     4  10  19  33  54  76 105 141 181 225 275 330
#
# _framework density 24.180651000000001
#
# number of rings (size 3 to 8) (size 9 to 14) (size 15 to 20)
#    0.000    2.857    0.000    5.571    0.000    2.286 
#    0.000    0.714    0.000   15.429    0.000    0.000 
#    0.000    0.000    0.000    0.000    0.000    0.000 
#
# Total GULP energy -233818.048745 kJ/mol
# GULP energy per Si atom -5567.096399 kJ/mol
# Density = 2.412561 g / cm^3
# Si number density = 24.180651 Si / 1000 Ang^3
#
#
#
# Elastic Constant Matrix: (Units=GPa)
#
#
# Indices 1 2 3 4 5 6 
#
# 1 28.4831 20.2380 38.0521 0.0016 4.8152 0.0000
# 2 20.2380 28.4831 38.0521 -0.0016 -4.8152 0.0000
# 3 38.0521 38.0521 230.3459 0.0000 0.0000 0.0000
# 4 0.0016 -0.0016 0.0000 14.2155 0.0000 -4.8152
# 5 4.8152 -4.8152 0.0000 0.0000 14.2155 0.0016
# 6 0.0000 0.0000 0.0000 -4.8152 0.0016 4.1226
#
#
#
# Elastic Compliance Matrix: (Units=1/GPa)
#
#
# Indices 1 2 3 4 5 6 
#
# 1 0.114171 -0.086508 -0.004570 -0.000023 -0.067976 0.000000
# 2 -0.086508 0.114171 -0.004570 0.000023 0.067976 0.000000
# 3 -0.004570 -0.004570 0.005851 0.000000 0.000000 0.000000
# 4 -0.000023 0.000023 0.000000 0.116396 0.000000 0.135952
# 5 -0.067976 0.067976 0.000000 0.000000 0.116396 -0.000046
# 6 0.000000 0.000000 0.000000 0.135952 -0.000046 0.401359
#
#
# Mechanical properties :
#
#
# Convention : Reuss Voigt Hill
#
# Bulk Modulus (GPa) = 23.31094 53.33296 38.32195
# Shear Modulus (GPa) = 4.65575 19.24205 11.94890
#
# Velocity S-wave (km/s) = 1.38909 2.82399 2.22536
# Velocity P-wave (km/s) = 3.49772 5.72164 4.74190
#
# Compressibility (1/GPa) = 0.04289831
#
# Stress axis : x y z
#
# Youngs Moduli (GPa) = 8.75876 8.75876 170.90688
#
# Poissons Ratio (x) = 0.75770 0.78102
# Poissons Ratio (y) = 0.75770 0.78102
# Poissons Ratio (z) = 0.04003 0.04003
#
# Static dielectric constant tensor:
#      x y z
#    x 2.010600 0.000000 0.000000 
#    y 0.000000 2.010600 0.000000 
#    z 0.000000 0.000000 1.980470 
# 
# From -- ./inp_files/4308.got.cif
#   From: 2010.05.17/outbox.cif.g08.bks.cpg/sg151_3_cif.got.tgz:4308.got - 2010.05.20 10:33:20.
