data_PCOD9575684
_publ_section_title
;
Structure prediction by ZEFSAII (Michael W. Deem and Ramdas Pophale) SiO2 
 PCOD9575684
Probable space group: P 31 1 2
;
_chemical_formula_sum "Si O2"
_cell_formula_units_Z 42
_cell_length_a 8.804035
_cell_length_b 8.804035
_cell_length_c 28.789198
_cell_angle_alpha 90.000000
_cell_angle_beta 90.000000
_cell_angle_gamma 120.000000
_cell_volume 1932.518763
_symmetry_space_group_name_H-M "P 31 1 2"
_symmetry_group_IT_number 151
_symmetry_cell_setting 'hexagonal'
loop_
_space_group_symop_operation_xyz
x,y,z
-y,x-y,1/3+z
-x+y,-x,2/3+z
-y,-x,2/3-z
-x+y,y,1/3-z
x,x-y,-z
loop_
_atom_site_type_symbol
_atom_site_label
_atom_site_fract_x
_atom_site_fract_y
_atom_site_fract_z
Si Si1 0.709827 0.931218 0.771811
Si Si2 0.931219 0.221391 0.605144
Si Si3 0.999999 0.701483 0.250000
Si Si4 0.755050 0.875725 0.335421
Si Si5 0.875725 0.120676 0.168754
Si Si6 0.920510 0.485262 0.672780
Si Si7 0.435249 0.920510 0.839446
O O1 0.704449 0.903623 0.716596
O O2 0.751675 0.792496 0.797598
O O3 0.546363 0.937842 0.793524
O O4 0.873714 0.125917 0.778602
O O5 0.903625 0.199175 0.549930
O O6 0.937843 0.391479 0.626857
O O7 0.125918 0.252203 0.611935
O O8 0.792496 0.040822 0.630931
O O9 0.900567 0.544070 0.285613
O O10 0.099431 0.643502 0.214386
O O11 0.607180 0.924165 0.350088
O O12 0.940406 0.059595 0.333334
O O13 0.059595 0.119190 0.166667
O O14 0.924165 0.316985 0.183421
O O15 0.748682 0.497364 0.666667
O O16 0.251319 0.748682 0.833334
#
# Coordination Sequence:
#
# PCOD9575684 Si02
#       7
#     6   6   6   6   6   6   6
#     4  12  23  48  73 102 136 198 240 296 364 451
#     4  12  23  48  73 102 136 198 240 296 364 451
#     4  12  24  46  72  96 142 190 244 286 362 440
#     4  11  23  42  73 100 141 187 243 290 366 434
#     4  11  23  42  73 100 141 187 243 290 366 434
#     4  11  28  43  68 108 143 179 243 308 364 434
#     4  11  28  43  68 108 143 179 243 308 364 434
#
# _framework density 21.733293
#
# number of rings (size 3 to 8) (size 9 to 14) (size 15 to 20)
#    0.000    0.571    5.714    0.857   12.000    0.000 
#    0.000    2.857    0.000    0.000    0.000    0.000 
#    0.000    0.000    0.000    0.000    0.000    0.000 
#
# Total GULP energy -234796.990303 kJ/mol
# GULP energy per Si atom -5590.404531 kJ/mol
# Density = 2.168383 g / cm^3
# Si number density = 21.733293 Si / 1000 Ang^3
#
#
#
# Elastic Constant Matrix: (Units=GPa)
#
#
# Indices 1 2 3 4 5 6 
#
# 1 76.1273 40.3154 18.4977 -0.0007 -0.0021 0.0000
# 2 40.3154 76.1273 18.4977 0.0007 0.0021 0.0000
# 3 18.4977 18.4977 104.4352 0.0000 0.0000 0.0000
# 4 -0.0007 0.0007 0.0000 5.8589 0.0000 0.0021
# 5 -0.0021 0.0021 0.0000 0.0000 5.8589 -0.0007
# 6 0.0000 0.0000 0.0000 0.0021 -0.0007 17.9059
#
#
#
# Elastic Compliance Matrix: (Units=1/GPa)
#
#
# Indices 1 2 3 4 5 6 
#
# 1 0.018512 -0.009412 -0.001612 0.000003 0.000010 0.000000
# 2 -0.009412 0.018512 -0.001612 -0.000003 -0.000010 0.000000
# 3 -0.001612 -0.001612 0.010146 0.000000 0.000000 0.000000
# 4 0.000003 -0.000003 0.000000 0.170680 0.000000 -0.000020
# 5 0.000010 -0.000010 0.000000 0.000000 0.170680 0.000007
# 6 0.000000 0.000000 0.000000 -0.000020 0.000007 0.055847
#
#
# Mechanical properties :
#
#
# Convention : Reuss Voigt Hill
#
# Bulk Modulus (GPa) = 45.66402 45.70126 45.68264
# Shear Modulus (GPa) = 10.48331 17.88335 14.18333
#
# Velocity S-wave (km/s) = 2.19866 2.87166 2.55739
# Velocity P-wave (km/s) = 5.24425 5.66296 5.45762
#
# Compressibility (1/GPa) = 0.02189908
#
# Stress axis : x y z
#
# Youngs Moduli (GPa) = 54.01945 54.01945 98.55824
#
# Poissons Ratio (x) = 0.50842 0.15886
# Poissons Ratio (y) = 0.50842 0.15886
# Poissons Ratio (z) = 0.08707 0.08707
#
# Static dielectric constant tensor:
#      x y z
#    x 1.816020 0.000000 0.000000 
#    y 0.000000 1.816020 0.000000 
#    z 0.000000 0.000000 1.808740 
# 
# From -- ./inp_files/5027.got.cif
#   From: 2010.05.17/outbox.cif.g08.bks.cpg/sg151_3_cif.got.tgz:5027.got - 2010.05.20 10:33:20.
