data_PCOD9575380
_publ_section_title
;
Structure prediction by ZEFSAII (Michael W. Deem and Ramdas Pophale) SiO2 
 PCOD9575380
Probable space group: P 3 1 2
;
_chemical_formula_sum "Si O2"
_cell_formula_units_Z 25
_cell_length_a 11.478031
_cell_length_b 11.478031
_cell_length_c 12.001370
_cell_angle_alpha 90.000000
_cell_angle_beta 90.000000
_cell_angle_gamma 120.000000
_cell_volume 1369.292545
_symmetry_space_group_name_H-M "P 3 1 2"
_symmetry_group_IT_number 149
_symmetry_cell_setting 'hexagonal'
loop_
_space_group_symop_operation_xyz
x,y,z
-y,x-y,z
-x+y,-x,z
-y,-x,-z
-x+y,y,-z
x,x-y,-z
loop_
_atom_site_type_symbol
_atom_site_label
_atom_site_fract_x
_atom_site_fract_y
_atom_site_fract_z
Si Si1 0.245735 0.491470 0.000000
Si Si2 0.000000 0.000000 0.865063
Si Si3 0.713127 0.623317 0.357385
Si Si4 0.732603 0.981505 0.430592
Si Si5 0.666668 0.333335 0.366018
Si Si6 0.169025 0.308430 0.785304
O O1 0.406028 0.593973 0.000000
O O2 0.205943 0.401051 0.109186
O O3 0.072855 0.152728 0.819955
O O4 0.000000 0.000000 0.000000
O O5 0.653401 0.637158 0.476127
O O6 0.679902 0.474011 0.331530
O O7 0.675481 0.691981 0.260254
O O8 0.873532 0.716458 0.382613
O O9 0.780957 0.890479 0.500000
O O10 0.659564 0.896211 0.321405
O O11 0.666668 0.333334 0.500000
#
# Coordination Sequence:
#
# PCOD9575380 Si02
#       6
#     3   2   6   6   2   6
#     4  10  26  48  60  80 112 172 212 250 300 370
#     4  12  21  33  64 101 118 138 201 274 326 337
#     4  10  21  35  56  94 128 163 191 252 300 381
#     4   9  18  31  54  90 128 158 192 239 310 356
#     4  12  21  36  54  90 135 172 201 225 318 378
#     4  11  21  39  64  91 119 155 205 259 311 357
#
# _framework density 18.257604000000001
#
# number of rings (size 3 to 8) (size 9 to 14) (size 15 to 20)
#    0.240    1.440    6.000    0.000    0.000    1.920 
#   10.080    0.000    0.000    0.000    0.000    1.680 
#    0.000    0.000    0.000    0.000    0.000    0.000 
#
# Total GULP energy -139307.871575 kJ/mol
# GULP energy per Si atom -5572.314863 kJ/mol
# Density = 1.821605 g / cm^3
# Si number density = 18.257604 Si / 1000 Ang^3
#
#
#
# Elastic Constant Matrix: (Units=GPa)
#
#
# Indices 1 2 3 4 5 6 
#
# 1 91.9141 56.7597 56.3871 -0.0002 -0.4926 -0.0001
# 2 56.7597 91.9135 56.3872 -0.0002 0.4924 -0.0003
# 3 56.3871 56.3872 144.4359 -0.0002 0.0000 0.0001
# 4 -0.0002 -0.0002 -0.0002 17.4558 -0.0003 0.4926
# 5 -0.4926 0.4924 0.0000 -0.0003 17.4561 0.0000
# 6 -0.0001 -0.0003 0.0001 0.4926 0.0000 17.5769
#
#
#
# Elastic Compliance Matrix: (Units=1/GPa)
#
#
# Indices 1 2 3 4 5 6 
#
# 1 0.019012 -0.009456 -0.003731 0.000000 0.000803 0.000000
# 2 -0.009456 0.019012 -0.003731 0.000000 -0.000803 0.000000
# 3 -0.003731 -0.003731 0.009836 0.000000 0.000000 0.000000
# 4 0.000000 0.000000 0.000000 0.057333 0.000001 -0.001607
# 5 0.000803 -0.000803 0.000000 0.000001 0.057332 0.000000
# 6 0.000000 0.000000 0.000000 -0.001607 0.000000 0.056938
#
#
# Mechanical properties :
#
#
# Convention : Reuss Voigt Hill
#
# Bulk Modulus (GPa) = 71.29718 74.14793 72.72256
# Shear Modulus (GPa) = 19.38182 21.07975 20.23079
#
# Velocity S-wave (km/s) = 3.26172 3.40159 3.33239
# Velocity P-wave (km/s) = 7.30209 7.49186 7.39758
#
# Compressibility (1/GPa) = 0.01402580
#
# Stress axis : x y z
#
# Youngs Moduli (GPa) = 52.59777 52.59731 101.66418
#
# Poissons Ratio (x) = 0.49738 0.37926
# Poissons Ratio (y) = 0.49738 0.37927
# Poissons Ratio (z) = 0.19622 0.19622
#
# Static dielectric constant tensor:
#      x y z
#    x 1.649220 0.000000 0.000000 
#    y 0.000000 1.649220 0.000000 
#    z 0.000000 0.000000 1.626960 
# 
# From -- ./inp_files/862.got.cif
#   From: 2010.05.17/outbox.cif.g08.bks.cpg/sg149_cif.got.tgz:862.got - 2010.05.20 13:52:34.
