data_PCOD9575157
_publ_section_title
;
Structure prediction by ZEFSAII (Michael W. Deem and Ramdas Pophale) SiO2 
 PCOD9575157
Probable space group: R -3
;
_chemical_formula_sum "Si O2"
_cell_formula_units_Z 126
_cell_length_a 18.963368
_cell_length_b 18.963368
_cell_length_c 17.952579
_cell_angle_alpha 90.000000
_cell_angle_beta 90.000000
_cell_angle_gamma 120.000000
_cell_volume 5590.986250
_symmetry_space_group_name_H-M "R -3"
_symmetry_group_IT_number 148
_symmetry_cell_setting 'hexagonal'
loop_
_space_group_symop_operation_xyz
x,y,z
-y,x-y,z
-x+y,-x,z
-x,-y,-z
y,-x+y,-z
x-y,x,-z
2/3+x,1/3+y,1/3+z
2/3-y,1/3+x-y,1/3+z
2/3-x+y,1/3-x,1/3+z
2/3-x,1/3-y,1/3-z
2/3+y,1/3-x+y,1/3-z
2/3+x-y,1/3+x,1/3-z
1/3+x,2/3+y,2/3+z
1/3-y,2/3+x-y,2/3+z
1/3-x+y,2/3-x,2/3+z
1/3-x,2/3-y,2/3-z
1/3+y,2/3-x+y,2/3-z
1/3+x-y,2/3+x,2/3-z
loop_
_atom_site_type_symbol
_atom_site_label
_atom_site_fract_x
_atom_site_fract_y
_atom_site_fract_z
Si Si1 0.844705 0.605836 0.613251
Si Si2 0.964484 0.146676 0.421240
Si Si3 0.865810 0.300785 0.506304
Si Si4 0.307346 0.945908 0.525701
Si Si5 0.449525 0.917616 0.546539
Si Si6 0.844559 0.678377 0.958730
Si Si7 0.474149 0.839560 0.079567
O O1 0.833334 0.666667 0.666667
O O2 0.763707 0.563787 0.562877
O O3 0.921078 0.649194 0.557744
O O4 0.853754 0.546159 0.670087
O O5 0.916504 0.175286 0.367162
O O6 0.958834 0.173659 0.506311
O O7 0.055561 0.170830 0.403360
O O8 0.913562 0.048445 0.422514
O O9 0.858717 0.380040 0.488169
O O10 0.853127 0.252261 0.429503
O O11 0.958347 0.329623 0.533860
O O12 0.357363 0.897926 0.539276
O O13 0.231489 0.903730 0.581596
O O14 0.477949 0.941865 0.631399
O O15 0.500000 0.000000 0.500000
#
# Coordination Sequence:
#
# PCOD9575157 Si02
#       7
#    18  18  18  18  18  18  18
#     4  11  25  39  63  95 129 163 209 268 323 397
#     4  10  23  37  61  89 127 176 223 267 329 396
#     4  10  24  41  63  93 129 166 215 269 333 393
#     4  10  24  41  63  93 129 166 215 269 333 393
#     4  10  23  40  61  87 120 166 211 267 328 391
#     4  11  23  39  63  92 124 172 217 278 327 395
#     4  10  22  39  57  87 126 172 218 262 326 398
#
# _framework density 22.536273999999999
#
# number of rings (size 3 to 8) (size 9 to 14) (size 15 to 20)
#    0.000    1.714    0.000    2.857   16.000    1.143 
#    0.000    0.000    0.000    4.571    0.000    8.000 
#    0.000    0.000    0.000    0.000    0.000    0.000 
#
# Total GULP energy -234929.848759 kJ/mol
# GULP energy per Si atom -5593.567828 kJ/mol
# Density = 2.248498 g / cm^3
# Si number density = 22.536274 Si / 1000 Ang^3
#
#
#
# Elastic Constant Matrix: (Units=GPa)
#
#
# Indices 1 2 3 4 5 6 
#
# 1 80.2352 7.8231 16.4781 3.8687 1.9684 0.0000
# 2 7.8231 80.2352 16.4781 -3.8687 -1.9684 0.0000
# 3 16.4781 16.4781 100.9127 0.0000 0.0000 0.0000
# 4 3.8687 -3.8687 0.0000 28.9486 0.0000 -1.9684
# 5 1.9684 -1.9684 0.0000 0.0000 28.9486 3.8687
# 6 0.0000 0.0000 0.0000 -1.9684 3.8687 36.2061
#
#
#
# Elastic Compliance Matrix: (Units=1/GPa)
#
#
# Indices 1 2 3 4 5 6 
#
# 1 0.013079 -0.000984 -0.001975 -0.001879 -0.000956 0.000000
# 2 -0.000984 0.013079 -0.001975 0.001879 0.000956 0.000000
# 3 -0.001975 -0.001975 0.010555 0.000000 0.000000 0.000000
# 4 -0.001879 0.001879 0.000000 0.035176 0.000000 0.001912
# 5 -0.000956 0.000956 0.000000 0.000000 0.035176 -0.003759
# 6 0.000000 0.000000 0.000000 0.001912 -0.003759 0.028125
#
#
# Mechanical properties :
#
#
# Convention : Reuss Voigt Hill
#
# Bulk Modulus (GPa) = 37.25095 38.10462 37.67778
# Shear Modulus (GPa) = 32.46623 33.52760 32.99692
#
# Velocity S-wave (km/s) = 3.79967 3.86128 3.83060
# Velocity P-wave (km/s) = 5.98458 6.06829 6.02658
#
# Compressibility (1/GPa) = 0.02684495
#
# Stress axis : x y z
#
# Youngs Moduli (GPa) = 76.45873 76.45873 94.74573
#
# Poissons Ratio (x) = 0.07521 0.18713
# Poissons Ratio (y) = 0.07521 0.18713
# Poissons Ratio (z) = 0.15101 0.15101
#
# Static dielectric constant tensor:
#      x y z
#    x 1.871290 0.000000 0.000000 
#    y 0.000000 1.871290 0.000000 
#    z 0.000000 0.000000 1.844630 
# 
# From -- ./inp_files/2748.got.cif
#   From: 2010.05.17/outbox.cif.g08.bks.cpg/sg148_2_cif.got.tgz:2748.got - 2010.05.20 13:50:20.
