data_PCOD9575657
_publ_section_title
;
Structure prediction by ZEFSAII (Michael W. Deem and Ramdas Pophale) SiO2 
 PCOD9575657
Probable space group: P 31 1 2
;
_chemical_formula_sum "Si O2"
_cell_formula_units_Z 18
_cell_length_a 11.050097
_cell_length_b 11.050097
_cell_length_c 7.296220
_cell_angle_alpha 90.000000
_cell_angle_beta 90.000000
_cell_angle_gamma 120.000000
_cell_volume 771.544062
_symmetry_space_group_name_H-M "P 31 1 2"
_symmetry_group_IT_number 151
_symmetry_cell_setting 'hexagonal'
loop_
_space_group_symop_operation_xyz
x,y,z
-y,x-y,1/3+z
-x+y,-x,2/3+z
-y,-x,2/3-z
-x+y,y,1/3-z
x,x-y,-z
loop_
_atom_site_type_symbol
_atom_site_label
_atom_site_fract_x
_atom_site_fract_y
_atom_site_fract_z
Si Si1 0.054311 0.861777 0.549409
Si Si2 0.702642 0.562734 0.898718
Si Si3 0.375351 0.012685 0.637300
O O1 0.083817 0.916184 0.333334
O O2 0.207120 0.927007 0.640070
O O3 0.721837 0.575359 0.434076
O O4 0.981984 0.695228 0.538930
O O5 0.585731 0.414269 0.833334
O O6 0.113429 0.056715 0.000000
O O7 0.665697 0.586094 0.102933
O O8 0.470983 0.941965 0.666667
#
# Coordination Sequence:
#
# PCOD9575657 Si02
#       3
#     6   6   6
#     4  10  24  48  75 111 151 196 258 313 382 460
#     4  10  24  43  70 100 138 192 248 303 371 443
#     4  10  24  43  67 105 147 186 249 314 373 454
#
# _framework density 23.329840000000001
#
# number of rings (size 3 to 8) (size 9 to 14) (size 15 to 20)
#    0.000    2.000    0.000    0.000    9.333   10.667 
#    6.000    5.000    0.000    0.000    0.000    0.000 
#    0.000    0.000    0.000    0.000    0.000    0.000 
#
# Total GULP energy -100660.299246 kJ/mol
# GULP energy per Si atom -5592.238847 kJ/mol
# Density = 2.327674 g / cm^3
# Si number density = 23.329840 Si / 1000 Ang^3
#
#
#
# Elastic Constant Matrix: (Units=GPa)
#
#
# Indices 1 2 3 4 5 6 
#
# 1 183.4294 106.4392 62.6226 -0.0003 -7.0630 0.0000
# 2 106.4392 183.4294 62.6226 0.0003 7.0630 0.0000
# 3 62.6226 62.6226 110.4715 0.0000 0.0000 0.0000
# 4 -0.0003 0.0003 0.0000 40.5192 0.0000 7.0630
# 5 -7.0630 7.0630 0.0000 0.0000 40.5192 -0.0003
# 6 0.0000 0.0000 0.0000 7.0630 -0.0003 38.4951
#
#
#
# Elastic Compliance Matrix: (Units=1/GPa)
#
#
# Indices 1 2 3 4 5 6 
#
# 1 0.008993 -0.004424 -0.002590 0.000000 0.002339 0.000000
# 2 -0.004424 0.008993 -0.002590 0.000000 -0.002339 0.000000
# 3 -0.002590 -0.002590 0.011988 0.000000 0.000000 0.000000
# 4 0.000000 0.000000 0.000000 0.025495 0.000000 -0.004678
# 5 0.002339 -0.002339 0.000000 0.000000 0.025495 0.000000
# 6 0.000000 0.000000 0.000000 -0.004678 0.000000 0.026836
#
#
# Mechanical properties :
#
#
# Convention : Reuss Voigt Hill
#
# Bulk Modulus (GPa) = 92.88157 104.52212 98.70184
# Shear Modulus (GPa) = 38.28532 40.28307 39.28420
#
# Velocity S-wave (km/s) = 4.05538 4.15984 4.10794
# Velocity P-wave (km/s) = 7.86301 8.24448 8.05600
#
# Compressibility (1/GPa) = 0.01076640
#
# Stress axis : x y z
#
# Youngs Moduli (GPa) = 111.19332 111.19332 83.41378
#
# Poissons Ratio (x) = 0.49197 0.21604
# Poissons Ratio (y) = 0.49197 0.21604
# Poissons Ratio (z) = 0.28799 0.28799
#
# Static dielectric constant tensor:
#      x y z
#    x 1.866470 0.000000 0.000000 
#    y 0.000000 1.866470 0.000000 
#    z 0.000000 0.000000 2.024370 
# 
# From -- ./inp_files/1121.got.cif
#   From: 2010.05.17/outbox.cif.g08.bks.cpg/sg151_1_cif.got.tgz:1121.got - 2010.05.20 10:33:20.
