data_PCOD9575622
_publ_section_title
;
Structure prediction by ZEFSAII (Michael W. Deem and Ramdas Pophale) SiO2 
 PCOD9575622
Probable space group: P 31 1 2
;
_chemical_formula_sum "Si O2"
_cell_formula_units_Z 36
_cell_length_a 9.148649
_cell_length_b 9.148649
_cell_length_c 25.322673
_cell_angle_alpha 90.000000
_cell_angle_beta 90.000000
_cell_angle_gamma 120.000000
_cell_volume 1835.498821
_symmetry_space_group_name_H-M "P 31 1 2"
_symmetry_group_IT_number 151
_symmetry_cell_setting 'hexagonal'
loop_
_space_group_symop_operation_xyz
x,y,z
-y,x-y,1/3+z
-x+y,-x,2/3+z
-y,-x,2/3-z
-x+y,y,1/3-z
x,x-y,-z
loop_
_atom_site_type_symbol
_atom_site_label
_atom_site_fract_x
_atom_site_fract_y
_atom_site_fract_z
Si Si1 0.160391 0.084077 0.712999
Si Si2 0.994344 0.558687 0.363685
Si Si3 0.356825 0.831395 0.412406
Si Si4 0.082854 0.772558 0.778140
Si Si5 0.424400 0.117302 0.124049
Si Si6 0.148160 0.238110 0.516299
O O1 0.348813 0.231364 0.698582
O O2 0.128041 0.158065 0.766134
O O3 0.040999 0.081997 0.666667
O O4 0.112459 0.897563 0.729590
O O5 0.178897 0.682012 0.390619
O O6 0.040542 0.553532 0.302993
O O7 0.913175 0.395504 0.400406
O O8 0.493811 0.788757 0.434021
O O9 0.310828 0.910603 0.461415
O O10 0.128393 0.871608 0.833334
O O11 0.888254 0.625220 0.785123
O O12 0.569940 0.139880 0.166667
O O13 0.245738 0.955334 0.142876
O O14 0.187642 0.093821 0.500000
#
# Coordination Sequence:
#
# PCOD9575622 Si02
#       6
#     6   6   6   6   6   6
#     4  11  19  39  64  88 123 162 205 255 299 387
#     4  10  21  41  64  87 116 168 206 242 320 376
#     4  10  23  39  61  89 125 153 203 262 312 365
#     4  12  25  38  60  96 123 159 212 264 313 363
#     4  12  21  36  64  89 122 163 210 251 306 381
#     4  11  20  39  62  93 116 165 215 249 307 383
#
# _framework density 19.613197
#
# number of rings (size 3 to 8) (size 9 to 14) (size 15 to 20)
#    0.000    1.000   10.000    0.000    4.667    0.667 
#    0.000    0.000    0.000    0.000    0.000    0.000 
#    0.000    0.000    0.000    0.000    0.000    0.000 
#
# Total GULP energy -200580.612810 kJ/mol
# GULP energy per Si atom -5571.683689 kJ/mol
# Density = 1.956856 g / cm^3
# Si number density = 19.613197 Si / 1000 Ang^3
#
#
#
# Elastic Constant Matrix: (Units=GPa)
#
#
# Indices 1 2 3 4 5 6 
#
# 1 66.3746 19.1151 3.3430 0.0000 -3.9098 0.0000
# 2 19.1151 66.3746 3.3430 0.0000 3.9098 0.0000
# 3 3.3430 3.3430 40.0618 0.0000 0.0000 0.0000
# 4 0.0000 0.0000 0.0000 30.6230 0.0000 3.9098
# 5 -3.9098 3.9098 0.0000 0.0000 30.6230 0.0000
# 6 0.0000 0.0000 0.0000 3.9098 0.0000 23.6297
#
#
#
# Elastic Compliance Matrix: (Units=1/GPa)
#
#
# Indices 1 2 3 4 5 6 
#
# 1 0.016695 -0.004921 -0.000983 0.000000 0.002760 0.000000
# 2 -0.004921 0.016695 -0.000983 0.000000 -0.002760 0.000000
# 3 -0.000983 -0.000983 0.025125 0.000000 0.000000 0.000000
# 4 0.000000 0.000000 0.000000 0.033360 0.000000 -0.005520
# 5 0.002760 -0.002760 0.000000 0.000000 0.033360 0.000000
# 6 0.000000 0.000000 0.000000 -0.005520 0.000000 0.043233
#
#
# Mechanical properties :
#
#
# Convention : Reuss Voigt Hill
#
# Bulk Modulus (GPa) = 22.34953 24.93481 23.64217
# Shear Modulus (GPa) = 25.36067 26.77579 26.06823
#
# Velocity S-wave (km/s) = 3.59979 3.69886 3.64966
# Velocity P-wave (km/s) = 5.35704 5.56623 5.46264
#
# Compressibility (1/GPa) = 0.04474367
#
# Stress axis : x y z
#
# Youngs Moduli (GPa) = 59.89711 59.89711 39.80032
#
# Poissons Ratio (x) = 0.29476 0.03910
# Poissons Ratio (y) = 0.29476 0.03910
# Poissons Ratio (z) = 0.05885 0.05885
#
# Static dielectric constant tensor:
#      x y z
#    x 1.704920 0.000000 0.000000 
#    y 0.000000 1.704920 0.000000 
#    z 0.000000 0.000000 1.718010 
# 
# From -- ./inp_files/4632.got.cif
#   From: 2010.05.17/outbox.cif.g08.bks.cpg/sg151_3_cif.got.tgz:4632.got - 2010.05.20 10:33:20.
