data_PCOD9575448
_publ_section_title
;
Structure prediction by ZEFSAII (Michael W. Deem and Ramdas Pophale) SiO2 
 PCOD9575448
Probable space group: P 3 2 1
;
_chemical_formula_sum "Si O2"
_cell_formula_units_Z 18
_cell_length_a 7.314638
_cell_length_b 7.314638
_cell_length_c 16.476005
_cell_angle_alpha 90.000000
_cell_angle_beta 90.000000
_cell_angle_gamma 120.000000
_cell_volume 763.428243
_symmetry_space_group_name_H-M "P 3 2 1"
_symmetry_group_IT_number 150
_symmetry_cell_setting 'hexagonal'
loop_
_space_group_symop_operation_xyz
x,y,z
-y,x-y,z
-x+y,-x,z
x-y,-y,-z
-x,-x+y,-z
y,x,-z
loop_
_atom_site_type_symbol
_atom_site_label
_atom_site_fract_x
_atom_site_fract_y
_atom_site_fract_z
Si Si1 0.722174 0.595508 0.577803
Si Si2 0.668567 0.572792 0.259308
Si Si3 0.236726 0.992357 0.087616
O O1 0.495046 0.375818 0.574312
O O2 0.729928 0.729928 0.500000
O O3 0.717019 0.686913 0.665106
O O4 0.471150 0.334911 0.264762
O O5 0.653274 0.656042 0.171441
O O6 0.994916 0.801034 0.088515
O O7 0.337845 0.000000 0.000000
#
# Coordination Sequence:
#
# PCOD9575448 Si02
#       3
#     6   6   6
#     4  10  22  38  62  83 116 151 187 237 293 343
#     4  10  22  36  58  88 119 151 194 245 285 350
#     4   8  18  38  61  79 117 158 199 238 290 343
#
# _framework density 23.577855
#
# number of rings (size 3 to 8) (size 9 to 14) (size 15 to 20)
#    2.000    0.667    0.000    2.000    4.667    0.000 
#    6.000    0.000    0.000    2.667    0.000    0.000 
#    0.000    0.000    0.000    0.000    0.000    0.000 
#
# Total GULP energy -100256.103902 kJ/mol
# GULP energy per Si atom -5569.783550 kJ/mol
# Density = 2.352419 g / cm^3
# Si number density = 23.577855 Si / 1000 Ang^3
#
#
#
# Elastic Constant Matrix: (Units=GPa)
#
#
# Indices 1 2 3 4 5 6 
#
# 1 45.2188 0.9930 39.2603 9.1688 0.0000 0.0000
# 2 0.9930 45.2188 39.2603 -9.1688 0.0000 0.0000
# 3 39.2603 39.2603 246.6295 0.0000 0.0000 0.0000
# 4 9.1688 -9.1688 0.0000 39.8708 0.0000 0.0000
# 5 0.0000 0.0000 0.0000 0.0000 39.8708 9.1688
# 6 0.0000 0.0000 0.0000 0.0000 9.1688 22.1129
#
#
#
# Elastic Compliance Matrix: (Units=1/GPa)
#
#
# Indices 1 2 3 4 5 6 
#
# 1 0.027329 0.002334 -0.004722 -0.005748 0.000000 0.000000
# 2 0.002334 0.027329 -0.004722 0.005748 0.000000 0.000000
# 3 -0.004722 -0.004722 0.005558 0.000000 0.000000 0.000000
# 4 -0.005748 0.005748 0.000000 0.027725 0.000000 0.000000
# 5 0.000000 0.000000 0.000000 0.000000 0.027725 -0.011496
# 6 0.000000 0.000000 0.000000 0.000000 -0.011496 0.049989
#
#
# Mechanical properties :
#
#
# Convention : Reuss Voigt Hill
#
# Bulk Modulus (GPa) = 21.74117 55.12158 38.43138
# Shear Modulus (GPa) = 25.61413 37.54114 31.57764
#
# Velocity S-wave (km/s) = 3.29958 3.99459 3.66360
# Velocity P-wave (km/s) = 4.87415 6.68618 5.85074
#
# Compressibility (1/GPa) = 0.04599568
#
# Stress axis : x y z
#
# Youngs Moduli (GPa) = 36.59172 36.59172 179.92069
#
# Poissons Ratio (x) = -0.08541 0.84957
# Poissons Ratio (y) = -0.08541 0.84957
# Poissons Ratio (z) = 0.17278 0.17278
#
# Static dielectric constant tensor:
#      x y z
#    x 1.926780 0.000000 0.000000 
#    y 0.000000 1.926780 0.000000 
#    z 0.000000 0.000000 1.856680 
# 
# From -- ./inp_files/843.got.cif
#   From: 2010.05.17/outbox.cif.g08.bks.cpg/sg150_cif.got.tgz:843.got - 2010.05.20 13:53:18.
