data_PCOD9575258
_publ_section_title
;
Structure prediction by ZEFSAII (Michael W. Deem and Ramdas Pophale) SiO2 
 PCOD9575258
Probable space group: R -3
;
_chemical_formula_sum "Si O2"
_cell_formula_units_Z 126
_cell_length_a 20.439750
_cell_length_b 20.439750
_cell_length_c 16.779614
_cell_angle_alpha 90.000000
_cell_angle_beta 90.000000
_cell_angle_gamma 120.000000
_cell_volume 6071.049263
_symmetry_space_group_name_H-M "R -3"
_symmetry_group_IT_number 148
_symmetry_cell_setting 'hexagonal'
loop_
_space_group_symop_operation_xyz
x,y,z
-y,x-y,z
-x+y,-x,z
-x,-y,-z
y,-x+y,-z
x-y,x,-z
2/3+x,1/3+y,1/3+z
2/3-y,1/3+x-y,1/3+z
2/3-x+y,1/3-x,1/3+z
2/3-x,1/3-y,1/3-z
2/3+y,1/3-x+y,1/3-z
2/3+x-y,1/3+x,1/3-z
1/3+x,2/3+y,2/3+z
1/3-y,2/3+x-y,2/3+z
1/3-x+y,2/3-x,2/3+z
1/3-x,2/3-y,2/3-z
1/3+y,2/3-x+y,2/3-z
1/3+x-y,2/3+x,2/3-z
loop_
_atom_site_type_symbol
_atom_site_label
_atom_site_fract_x
_atom_site_fract_y
_atom_site_fract_z
Si Si1 0.238764 0.821847 0.536075
Si Si2 0.623829 0.653728 0.989373
Si Si3 0.956073 0.804226 0.234856
Si Si4 0.121143 0.366774 0.700752
Si Si5 0.722388 0.587004 0.803602
Si Si6 0.051395 0.832567 0.383907
Si Si7 0.652760 0.518860 0.521342
O O1 0.325750 0.856141 0.507712
O O2 0.220355 0.818284 0.630113
O O3 0.211710 0.877386 0.499711
O O4 0.192595 0.738844 0.498994
O O5 0.594076 0.564556 0.975152
O O6 0.589890 0.681458 0.921209
O O7 0.713324 0.691971 0.990944
O O8 0.598178 0.663611 0.076798
O O9 0.905086 0.717183 0.266012
O O10 0.899774 0.835158 0.218104
O O11 0.013594 0.845602 0.307103
O O12 0.142478 0.420508 0.775932
O O13 0.760482 0.549779 0.751179
O O14 0.676056 0.538689 0.878791
#
# Coordination Sequence:
#
# PCOD9575258 Si02
#       7
#    18  18  18  18  18  18  18
#     4  12  24  44  68  99 137 178 230 277 341 399
#     4  11  21  38  67  97 136 174 215 276 338 409
#     4  11  25  45  62  98 137 177 217 285 333 406
#     4  11  24  41  68 101 138 170 221 288 340 400
#     4  12  22  40  66 101 135 177 225 277 343 402
#     4  11  23  39  65  95 138 173 217 279 336 403
#     4  12  27  40  70  98 133 186 222 275 342 406
#
# _framework density 20.754238000000001
#
# number of rings (size 3 to 8) (size 9 to 14) (size 15 to 20)
#    0.000    0.571    7.143    3.429    6.000    0.000 
#    0.857    0.000    0.000    1.143    0.000    0.000 
#    0.000    0.000    0.000    0.000    0.000    0.000 
#
# Total GULP energy -234970.321030 kJ/mol
# GULP energy per Si atom -5594.531453 kJ/mol
# Density = 2.070700 g / cm^3
# Si number density = 20.754238 Si / 1000 Ang^3
#
#
#
# Elastic Constant Matrix: (Units=GPa)
#
#
# Indices 1 2 3 4 5 6 
#
# 1 44.6687 9.2486 -1.0214 -3.9220 -0.8823 0.0000
# 2 9.2486 44.6687 -1.0214 3.9220 0.8823 0.0000
# 3 -1.0214 -1.0214 84.9789 0.0000 0.0000 0.0000
# 4 -3.9220 3.9220 0.0000 12.0981 0.0000 0.8823
# 5 -0.8823 0.8823 0.0000 0.0000 12.0981 -3.9220
# 6 0.0000 0.0000 0.0000 0.8823 -3.9220 17.7100
#
#
#
# Elastic Compliance Matrix: (Units=1/GPa)
#
#
# Indices 1 2 3 4 5 6 
#
# 1 0.024546 -0.005990 0.000223 0.009899 0.002227 0.000000
# 2 -0.005990 0.024546 0.000223 -0.009899 -0.002227 0.000000
# 3 0.000223 0.000223 0.011773 0.000000 0.000000 0.000000
# 4 0.009899 -0.009899 0.000000 0.089401 0.000000 -0.004454
# 5 0.002227 -0.002227 0.000000 0.000000 0.089401 0.019798
# 6 0.000000 0.000000 0.000000 -0.004454 0.019798 0.061072
#
#
# Mechanical properties :
#
#
# Convention : Reuss Voigt Hill
#
# Bulk Modulus (GPa) = 20.09007 20.96977 20.52992
# Shear Modulus (GPa) = 15.22453 19.52194 17.37324
#
# Velocity S-wave (km/s) = 2.71137 3.07029 2.89640
# Velocity P-wave (km/s) = 4.41623 4.76389 4.59335
#
# Compressibility (1/GPa) = 0.04977583
#
# Stress axis : x y z
#
# Youngs Moduli (GPa) = 40.74054 40.74054 84.94021
#
# Poissons Ratio (x) = 0.24404 -0.01894
# Poissons Ratio (y) = 0.24404 -0.01894
# Poissons Ratio (z) = -0.00909 -0.00909
#
# Static dielectric constant tensor:
#      x y z
#    x 1.733220 0.000000 0.000000 
#    y 0.000000 1.733220 0.000000 
#    z 0.000000 0.000000 1.780480 
# 
# From -- ./inp_files/2763.got.cif
#   From: 2010.05.17/outbox.cif.g08.bks.cpg/sg148_2_cif.got.tgz:2763.got - 2010.05.20 13:50:20.
