data_PCOD9575400
_publ_section_title
;
Structure prediction by ZEFSAII (Michael W. Deem and Ramdas Pophale) SiO2 
 PCOD9575400
Probable space group: P 3 2 1
;
_chemical_formula_sum "Si O2"
_cell_formula_units_Z 36
_cell_length_a 19.738233
_cell_length_b 19.738233
_cell_length_c 5.409896
_cell_angle_alpha 90.000000
_cell_angle_beta 90.000000
_cell_angle_gamma 120.000000
_cell_volume 1825.307720
_symmetry_space_group_name_H-M "P 3 2 1"
_symmetry_group_IT_number 150
_symmetry_cell_setting 'hexagonal'
loop_
_space_group_symop_operation_xyz
x,y,z
-y,x-y,z
-x+y,-x,z
x-y,-y,-z
-x,-x+y,-z
y,x,-z
loop_
_atom_site_type_symbol
_atom_site_label
_atom_site_fract_x
_atom_site_fract_y
_atom_site_fract_z
Si Si1 0.000000 0.358158 0.500000
Si Si2 0.768043 0.383843 0.000000
Si Si3 0.171913 0.832311 1.000000
Si Si4 0.435833 0.180432 0.500000
Si Si5 0.608615 0.000000 0.500000
Si Si6 0.367148 0.538601 0.500000
Si Si7 0.270161 0.000000 0.000000
Si Si8 0.305462 0.305462 0.000000
O O1 0.906494 0.337538 0.500000
O O2 0.000000 0.316260 0.245326
O O3 0.708321 0.417775 0.000000
O O4 0.814155 0.411846 0.748060
O O5 0.814155 0.411847 0.251940
O O6 0.211503 0.821256 0.247406
O O7 0.189758 0.920570 1.000000
O O8 0.080616 0.774400 0.000000
O O9 0.211503 0.821256 0.752594
O O10 0.506320 0.272554 0.500000
O O11 0.610814 0.082027 0.500001
O O12 0.650732 0.000000 0.248456
#
# Coordination Sequence:
#
# PCOD9575400 Si02
#       8
#     3   6   6   6   3   6   3   3
#     4   8  16  28  44  69 108 137 196 226 270 342
#     4  10  24  43  66  88 108 152 214 253 268 342
#     4  10  17  29  43  68 107 148 193 235 285 347
#     4  10  18  30  50  79 108 156 184 241 285 348
#     4  12  24  32  56  97 130 155 182 232 328 374
#     4  12  20  38  62  91 127 152 195 252 303 354
#     4   8  16  26  42  59  88 145 198 230 272 320
#     4  12  18  32  44  77 126 153 192 240 296 378
#
# _framework density 19.722704
#
# number of rings (size 3 to 8) (size 9 to 14) (size 15 to 20)
#    0.333    1.333    3.333    3.000    0.000    0.000 
#    0.000    0.000    0.000    6.333    0.000    0.000 
#    0.000    5.333    0.000    0.000    0.000    1.500 
#
# Total GULP energy -200477.501490 kJ/mol
# GULP energy per Si atom -5568.819486 kJ/mol
# Density = 1.967781 g / cm^3
# Si number density = 19.722704 Si / 1000 Ang^3
#
#
#
# Elastic Constant Matrix: (Units=GPa)
#
#
# Indices 1 2 3 4 5 6 
#
# 1 34.5831 45.1952 42.7446 0.0000 0.0000 0.0000
# 2 45.1952 34.5831 42.7446 0.0000 0.0000 0.0000
# 3 42.7446 42.7446 198.6554 0.0000 0.0000 0.0000
# 4 0.0000 0.0000 0.0000 49.9682 0.0000 0.0000
# 5 0.0000 0.0000 0.0000 0.0000 49.9682 0.0000
# 6 0.0000 0.0000 0.0000 0.0000 0.0000 -5.3061
#
#
#
# Elastic Compliance Matrix: (Units=1/GPa)
#
#
# Indices 1 2 3 4 5 6 
#
# 1 -0.038970 0.055261 -0.003505 0.000000 0.000000 0.000000
# 2 0.055261 -0.038970 -0.003505 0.000000 0.000000 0.000000
# 3 -0.003505 -0.003505 0.006542 0.000000 0.000000 0.000000
# 4 0.000000 0.000000 0.000000 0.020013 0.000000 0.000000
# 5 0.000000 0.000000 0.000000 0.000000 0.020013 0.000000
# 6 0.000000 0.000000 0.000000 0.000000 0.000000 -0.188464
#
#
# Mechanical properties :
#
#
# Convention : Reuss Voigt Hill
#
# Bulk Modulus (GPa) = 39.83589 58.79894 49.31741
# Shear Modulus (GPa) = -16.23532 28.06854 5.91661
#
# Velocity S-wave (km/s) = -2.87222 3.77657 1.73390
# Velocity P-wave (km/s) = 3.04011 6.99244 5.39150
#
# Compressibility (1/GPa) = 0.02510299
#
# Stress axis : x y z
#
# Youngs Moduli (GPa) = -25.66048 -25.66048 152.85100
#
# Poissons Ratio (x) = 1.41803 0.53579
# Poissons Ratio (y) = 1.41803 0.53579
# Poissons Ratio (z) = -0.08995 -0.08995
#
# Static dielectric constant tensor:
#      x y z
#    x 2.277890 0.000000 0.000000 
#    y 0.000000 2.277890 0.000000 
#    z 0.000000 0.000000 1.677980 
# 
# From -- ./inp_files/255.got.cif
#   From: 2010.05.17/outbox.cif.g08.bks.cpg/sg150_cif.got.tgz:255.got - 2010.05.20 13:53:18.
