data_PCOD9575611
_publ_section_title
;
Structure prediction by ZEFSAII (Michael W. Deem and Ramdas Pophale) SiO2 
 PCOD9575611
Probable space group: P 31 1 2
;
_chemical_formula_sum "Si O2"
_cell_formula_units_Z 42
_cell_length_a 8.877972
_cell_length_b 8.877972
_cell_length_c 30.839303
_cell_angle_alpha 90.000000
_cell_angle_beta 90.000000
_cell_angle_gamma 120.000000
_cell_volume 2105.051511
_symmetry_space_group_name_H-M "P 31 1 2"
_symmetry_group_IT_number 151
_symmetry_cell_setting 'hexagonal'
loop_
_space_group_symop_operation_xyz
x,y,z
-y,x-y,1/3+z
-x+y,-x,2/3+z
-y,-x,2/3-z
-x+y,y,1/3-z
x,x-y,-z
loop_
_atom_site_type_symbol
_atom_site_label
_atom_site_fract_x
_atom_site_fract_y
_atom_site_fract_z
Si Si1 0.306398 0.891779 0.012535
Si Si2 0.485026 0.173980 0.332010
Si Si3 0.746610 0.253391 0.833334
Si Si4 0.036811 0.389886 0.139147
Si Si5 0.397838 0.697821 0.403424
Si Si6 0.222754 0.073976 0.257902
Si Si7 0.963943 0.036057 0.333334
Si Si8 0.682972 0.678555 0.087521
O O1 0.345329 0.785260 0.048526
O O2 0.179360 0.960996 0.024865
O O3 0.236021 0.767268 0.970409
O O4 0.481569 0.061939 0.998230
O O5 0.622339 0.377662 0.333334
O O6 0.395781 0.126926 0.285240
O O7 0.357495 0.098418 0.373601
O O8 0.869909 0.465559 0.842801
O O9 0.847557 0.246394 0.790580
O O10 0.194800 0.389600 0.166667
O O11 0.150358 0.546222 0.105458
O O12 0.952758 0.213415 0.111802
O O13 0.397684 0.870678 0.420682
O O14 0.099612 0.068055 0.296328
O O15 0.126584 0.881366 0.239068
#
# Coordination Sequence:
#
# PCOD9575611 Si02
#       8
#     6   6   3   6   6   6   3   6
#     4  10  21  37  66 104 135 178 219 281 358 413
#     4  11  21  39  68  99 138 176 222 284 346 416
#     4  12  28  48  72  96 134 192 240 286 350 434
#     4  12  27  50  70  99 140 191 240 293 350 433
#     4  10  21  43  69  94 140 179 227 285 347 418
#     4  12  25  43  67 105 141 175 228 296 351 414
#     4  12  22  38  62 108 144 170 224 290 356 418
#     4  11  23  44  68 100 136 183 229 286 353 413
#
# _framework density 19.952006999999998
#
# number of rings (size 3 to 8) (size 9 to 14) (size 15 to 20)
#    0.000    0.857    6.429    0.857    3.000    1.143 
#    2.571    1.429    0.000    0.000    0.000    0.000 
#    0.000    0.000    0.000    0.000    0.000    0.000 
#
# Total GULP energy -233942.417151 kJ/mol
# GULP energy per Si atom -5570.057551 kJ/mol
# Density = 1.990660 g / cm^3
# Si number density = 19.952007 Si / 1000 Ang^3
#
#
#
# Elastic Constant Matrix: (Units=GPa)
#
#
# Indices 1 2 3 4 5 6 
#
# 1 145.3525 -22.6959 29.0875 -0.0010 -12.2704 0.0000
# 2 -22.6959 145.3525 29.0875 0.0010 12.2704 0.0000
# 3 29.0875 29.0875 73.2060 0.0000 0.0000 0.0000
# 4 -0.0010 0.0010 0.0000 34.4208 0.0000 12.2704
# 5 -12.2704 12.2704 0.0000 0.0000 34.4208 -0.0010
# 6 0.0000 0.0000 0.0000 12.2704 -0.0010 84.0242
#
#
#
# Elastic Compliance Matrix: (Units=1/GPa)
#
#
# Indices 1 2 3 4 5 6 
#
# 1 0.008162 0.001884 -0.003992 0.000000 0.002238 0.000000
# 2 0.001884 0.008162 -0.003992 0.000000 -0.002238 0.000000
# 3 -0.003992 -0.003992 0.016832 0.000000 0.000000 0.000000
# 4 0.000000 0.000000 0.000000 0.030648 0.000000 -0.004476
# 5 0.002238 -0.002238 0.000000 0.000000 0.030648 0.000000
# 6 0.000000 0.000000 0.000000 -0.004476 0.000000 0.012555
#
#
# Mechanical properties :
#
#
# Convention : Reuss Voigt Hill
#
# Bulk Modulus (GPa) = 47.71544 48.31880 48.01712
# Shear Modulus (GPa) = 39.62283 52.46863 46.04573
#
# Velocity S-wave (km/s) = 4.46119 5.13366 4.80919
# Velocity P-wave (km/s) = 7.10657 7.70775 7.41326
#
# Compressibility (1/GPa) = 0.02095758
#
# Stress axis : x y z
#
# Youngs Moduli (GPa) = 122.52256 122.52256 59.41010
#
# Poissons Ratio (x) = -0.23087 0.23715
# Poissons Ratio (y) = -0.23087 0.23715
# Poissons Ratio (z) = 0.48907 0.48907
#
# Static dielectric constant tensor:
#      x y z
#    x 1.533650 0.000000 0.000000 
#    y 0.000000 1.533650 0.000000 
#    z 0.000000 0.000000 1.695680 
# 
# From -- ./inp_files/5070.got.cif
#   From: 2010.05.17/outbox.cif.g08.bks.cpg/sg151_3_cif.got.tgz:5070.got - 2010.05.20 10:33:20.
