data_PCOD9575052
_publ_section_title
;
Structure prediction by ZEFSAII (Michael W. Deem and Ramdas Pophale) SiO2 
 PCOD9575052
Probable space group: R -3
;
_chemical_formula_sum "Si O2"
_cell_formula_units_Z 96
_cell_length_a 22.237400
_cell_length_b 22.237400
_cell_length_c 10.569595
_cell_angle_alpha 90.000000
_cell_angle_beta 90.000000
_cell_angle_gamma 120.000000
_cell_volume 4526.442361
_symmetry_space_group_name_H-M "R -3"
_symmetry_group_IT_number 148
_symmetry_cell_setting 'hexagonal'
loop_
_space_group_symop_operation_xyz
x,y,z
-y,x-y,z
-x+y,-x,z
-x,-y,-z
y,-x+y,-z
x-y,x,-z
2/3+x,1/3+y,1/3+z
2/3-y,1/3+x-y,1/3+z
2/3-x+y,1/3-x,1/3+z
2/3-x,1/3-y,1/3-z
2/3+y,1/3-x+y,1/3-z
2/3+x-y,1/3+x,1/3-z
1/3+x,2/3+y,2/3+z
1/3-y,2/3+x-y,2/3+z
1/3-x+y,2/3-x,2/3+z
1/3-x,2/3-y,2/3-z
1/3+y,2/3-x+y,2/3-z
1/3+x-y,2/3+x,2/3-z
loop_
_atom_site_type_symbol
_atom_site_label
_atom_site_fract_x
_atom_site_fract_y
_atom_site_fract_z
Si Si1 0.163938 0.958559 0.068624
Si Si2 0.820897 0.164594 0.016098
Si Si3 0.476408 0.692256 0.480717
Si Si4 0.647873 0.612573 0.569085
Si Si5 0.000000 0.000000 0.843097
Si Si6 0.678612 0.590336 0.029013
O O1 0.104585 0.942838 0.168787
O O2 0.239790 0.998634 0.129331
O O3 0.148990 0.881402 0.038482
O O4 0.153851 0.995249 0.946933
O O5 0.833334 0.166667 0.166667
O O6 0.737279 0.115528 0.002687
O O7 0.862661 0.243942 0.971459
O O8 0.394142 0.653171 0.461348
O O9 0.528075 0.685843 0.383293
O O10 0.602590 0.641570 0.500060
O O11 0.713349 0.680797 0.626566
O O12 0.000000 0.000000 0.000000
#
# Coordination Sequence:
#
# PCOD9575052 Si02
#       6
#    18  18  18  18   6  18
#     4  12  21  35  61  90 121 154 195 255 309 367
#     4  10  19  33  58  84 116 160 196 238 309 362
#     4  12  23  38  60  89 126 158 200 254 317 369
#     4  11  21  37  58  89 122 159 204 248 300 372
#     4  12  24  36  60  96 129 156 202 258 318 384
#     4  11  22  39  59  86 124 164 202 249 306 369
#
# _framework density 21.208708999999999
#
# number of rings (size 3 to 8) (size 9 to 14) (size 15 to 20)
#    0.000    0.750    7.500    3.375    2.625    0.750 
#    0.000    0.000    0.000    0.000    0.000    0.000 
#    0.000    3.000    0.000    0.000    0.000    0.000 
#
# Total GULP energy -178467.017067 kJ/mol
# GULP energy per Si atom -5577.094283 kJ/mol
# Density = 2.116044 g / cm^3
# Si number density = 21.208709 Si / 1000 Ang^3
#
#
#
# Elastic Constant Matrix: (Units=GPa)
#
#
# Indices 1 2 3 4 5 6 
#
# 1 118.6401 42.8988 17.8906 -2.4472 -5.7567 0.0000
# 2 42.8988 118.6401 17.8907 2.4472 5.7567 0.0000
# 3 17.8906 17.8907 14.8776 0.0001 0.0002 0.0000
# 4 -2.4472 2.4472 0.0001 29.4138 0.0000 5.7567
# 5 -5.7567 5.7567 0.0002 0.0000 29.4138 -2.4472
# 6 0.0000 0.0000 0.0000 5.7567 -2.4472 37.8707
#
#
#
# Elastic Compliance Matrix: (Units=1/GPa)
#
#
# Indices 1 2 3 4 5 6 
#
# 1 0.011061 -0.002623 -0.010147 0.001138 0.002678 0.000000
# 2 -0.002623 0.011061 -0.010147 -0.001138 -0.002678 0.000000
# 3 -0.010147 -0.010147 0.091619 0.000000 0.000000 0.000000
# 4 0.001138 -0.001138 0.000000 0.035235 0.000000 -0.005356
# 5 0.002678 -0.002678 0.000000 0.000000 0.035235 0.002277
# 6 0.000000 0.000000 0.000000 -0.005356 0.002277 0.027367
#
#
# Mechanical properties :
#
#
# Convention : Reuss Voigt Hill
#
# Bulk Modulus (GPa) = 14.72593 45.50200 30.11397
# Shear Modulus (GPa) = 17.85412 30.90484 24.37948
#
# Velocity S-wave (km/s) = 2.90458 3.82144 3.39411
# Velocity P-wave (km/s) = 4.26699 6.40095 5.43964
#
# Compressibility (1/GPa) = 0.06790743
#
# Stress axis : x y z
#
# Youngs Moduli (GPa) = 90.40968 90.40971 10.91475
#
# Poissons Ratio (x) = 0.23712 0.11075
# Poissons Ratio (y) = 0.23712 0.11075
# Poissons Ratio (z) = 0.91738 0.91738
#
# Static dielectric constant tensor:
#      x y z
#    x 1.841560 0.000000 0.000000 
#    y 0.000000 1.841560 0.000000 
#    z 0.000000 0.000000 1.797210 
# 
# From -- ./inp_files/1511.got.cif
#   From: 2010.05.17/outbox.cif.g08.bks.cpg/sg148_1_cif.got.tgz:1511.got - 2010.05.20 13:50:20.
