data_PCOD9575609
_publ_section_title
;
Structure prediction by ZEFSAII (Michael W. Deem and Ramdas Pophale) SiO2 
 PCOD9575609
Probable space group: P 31 1 2
;
_chemical_formula_sum "Si O2"
_cell_formula_units_Z 24
_cell_length_a 16.473372
_cell_length_b 16.473372
_cell_length_c 5.042218
_cell_angle_alpha 90.000000
_cell_angle_beta 90.000000
_cell_angle_gamma 120.000000
_cell_volume 1184.997029
_symmetry_space_group_name_H-M "P 31 1 2"
_symmetry_group_IT_number 151
_symmetry_cell_setting 'hexagonal'
loop_
_space_group_symop_operation_xyz
x,y,z
-y,x-y,1/3+z
-x+y,-x,2/3+z
-y,-x,2/3-z
-x+y,y,1/3-z
x,x-y,-z
loop_
_atom_site_type_symbol
_atom_site_label
_atom_site_fract_x
_atom_site_fract_y
_atom_site_fract_z
Si Si1 0.692324 0.492195 0.406943
Si Si2 0.439456 0.450502 0.094682
Si Si3 0.705140 0.755574 0.518832
Si Si4 0.992466 0.811588 0.310363
O O1 0.613096 0.386905 0.333334
O O2 0.746257 0.492513 0.666667
O O3 0.632414 0.541742 0.473884
O O4 0.766099 0.532198 0.166667
O O5 0.475250 0.524751 0.333334
O O6 0.328465 0.394416 0.056285
O O7 0.499468 0.500533 0.833334
O O8 0.703438 0.851719 0.500000
O O9 0.735514 0.745909 0.223707
O O10 0.785002 0.769055 0.730467
O O11 0.084662 0.915339 0.333334
O O12 0.910372 0.820744 0.166667
#
# Coordination Sequence:
#
# PCOD9575609 Si02
#       4
#     6   6   6   6
#     4  11  21  33  50  74 108 148 186 222 262 311
#     4  11  23  39  59  84 112 147 192 242 297 350
#     4  10  22  40  60  84 114 151 192 239 299 355
#     4  10  21  36  57  86 122 160 196 233 275 332
#
# _framework density 20.253216999999999
#
# number of rings (size 3 to 8) (size 9 to 14) (size 15 to 20)
#    0.000    1.500    0.000    6.750    0.000    6.000 
#    0.000    0.000    0.000    1.500    0.000    0.000 
#    0.000    0.000    0.000    0.000    0.000    0.000 
#
# Total GULP energy -134003.043407 kJ/mol
# GULP energy per Si atom -5583.460142 kJ/mol
# Density = 2.020712 g / cm^3
# Si number density = 20.253217 Si / 1000 Ang^3
#
#
#
# Elastic Constant Matrix: (Units=GPa)
#
#
# Indices 1 2 3 4 5 6 
#
# 1 59.9261 25.1550 32.8427 -0.0005 -6.2944 0.0000
# 2 25.1550 59.9261 32.8427 0.0005 6.2944 0.0000
# 3 32.8427 32.8427 145.1955 0.0000 0.0000 0.0000
# 4 -0.0005 0.0005 0.0000 21.1400 0.0000 6.2944
# 5 -6.2944 6.2944 0.0000 0.0000 21.1400 -0.0005
# 6 0.0000 0.0000 0.0000 6.2944 -0.0005 17.3856
#
#
#
# Elastic Compliance Matrix: (Units=1/GPa)
#
#
# Indices 1 2 3 4 5 6 
#
# 1 0.023237 -0.008997 -0.003221 0.000001 0.009598 0.000000
# 2 -0.008997 0.023237 -0.003221 -0.000001 -0.009598 0.000000
# 3 -0.003221 -0.003221 0.008344 0.000000 0.000000 0.000000
# 4 0.000001 -0.000001 0.000000 0.053019 0.000000 -0.019195
# 5 0.009598 -0.009598 0.000000 0.000000 0.053019 0.000002
# 6 0.000000 0.000000 0.000000 -0.019195 0.000002 0.064469
#
#
# Mechanical properties :
#
#
# Convention : Reuss Voigt Hill
#
# Bulk Modulus (GPa) = 41.76999 49.63651 45.70325
# Shear Modulus (GPa) = 18.92617 23.54695 21.23656
#
# Velocity S-wave (km/s) = 3.06024 3.41343 3.24165
# Velocity P-wave (km/s) = 5.75807 6.33218 6.05194
#
# Compressibility (1/GPa) = 0.02394063
#
# Stress axis : x y z
#
# Youngs Moduli (GPa) = 43.03423 43.03423 119.83985
#
# Poissons Ratio (x) = 0.38718 0.38602
# Poissons Ratio (y) = 0.38718 0.38602
# Poissons Ratio (z) = 0.13862 0.13862
#
# Static dielectric constant tensor:
#      x y z
#    x 1.745330 0.000000 0.000000 
#    y 0.000000 1.745330 0.000000 
#    z 0.000000 0.000000 1.719770 
# 
# From -- ./inp_files/170.got.cif
#   From: 2010.05.17/outbox.cif.g08.bks.cpg/sg151_1_cif.got.tgz:170.got - 2010.05.20 10:33:20.
