data_PCOD9575958
_publ_section_title
;
Structure prediction by ZEFSAII (Michael W. Deem and Ramdas Pophale) SiO2 
 PCOD9575958
Probable space group: P 31 2 1
;
_chemical_formula_sum "Si O2"
_cell_formula_units_Z 27
_cell_length_a 7.544688
_cell_length_b 7.544688
_cell_length_c 22.638907
_cell_angle_alpha 90.000000
_cell_angle_beta 90.000000
_cell_angle_gamma 120.000000
_cell_volume 1116.011466
_symmetry_space_group_name_H-M "P 31 2 1"
_symmetry_group_IT_number 152
_symmetry_cell_setting 'hexagonal'
loop_
_space_group_symop_operation_xyz
x,y,z
-y,x-y,1/3+z
-x+y,-x,2/3+z
x-y,-y,2/3-z
-x,-x+y,1/3-z
y,x,-z
loop_
_atom_site_type_symbol
_atom_site_label
_atom_site_fract_x
_atom_site_fract_y
_atom_site_fract_z
Si Si1 0.089700 0.467241 0.250453
Si Si2 0.443535 0.000000 0.333334
Si Si3 0.590140 0.270720 0.620852
Si Si4 0.693883 0.965910 0.139394
Si Si5 0.332543 0.904358 0.208833
O O1 0.153035 0.476713 0.319562
O O2 0.119422 0.289702 0.221060
O O3 0.240482 0.662914 0.210036
O O4 0.888222 0.488846 0.252221
O O5 0.451156 0.803278 0.352248
O O6 0.298670 0.938956 0.277349
O O7 0.638885 0.128912 0.577817
O O8 0.571638 0.998769 0.192620
O O9 0.741026 0.786037 0.156857
#
# Coordination Sequence:
#
# PCOD9575958 Si02
#       5
#     6   3   6   6   6
#     4  11  21  40  64  92 127 167 215 264 327 391
#     4   8  20  40  58  86 128 162 204 270 330 380
#     4  10  21  39  63  91 120 166 215 262 322 395
#     4  11  21  40  65  89 125 172 213 269 325 383
#     4  10  21  39  64  89 126 172 213 266 335 380
#
# _framework density 24.193300000000001
#
# number of rings (size 3 to 8) (size 9 to 14) (size 15 to 20)
#    0.000    1.778    4.444    0.000    0.000    0.889 
#    4.000    0.000    9.778    0.000    0.000    0.000 
#    0.000    0.000    0.000    0.000    0.000    0.000 
#
# Total GULP energy -150347.290838 kJ/mol
# GULP energy per Si atom -5568.418179 kJ/mol
# Density = 2.413824 g / cm^3
# Si number density = 24.193300 Si / 1000 Ang^3
#
#
#
# Elastic Constant Matrix: (Units=GPa)
#
#
# Indices 1 2 3 4 5 6 
#
# 1 56.8681 -5.4615 6.3099 12.1449 -0.0001 0.0000
# 2 -5.4615 56.8681 6.3099 -12.1449 0.0001 0.0000
# 3 6.3099 6.3099 79.2406 0.0000 0.0000 0.0000
# 4 12.1449 -12.1449 0.0000 36.2301 0.0000 0.0001
# 5 -0.0001 0.0001 0.0000 0.0000 36.2301 12.1449
# 6 0.0000 0.0000 0.0000 0.0001 12.1449 31.1648
#
#
#
# Elastic Compliance Matrix: (Units=1/GPa)
#
#
# Indices 1 2 3 4 5 6 
#
# 1 0.019148 0.000693 -0.001580 -0.006186 0.000000 0.000000
# 2 0.000693 0.019148 -0.001580 0.006186 0.000000 0.000000
# 3 -0.001580 -0.001580 0.012871 0.000000 0.000000 0.000000
# 4 -0.006186 0.006186 0.000000 0.031749 0.000000 0.000000
# 5 0.000000 0.000000 0.000000 0.000000 0.031749 -0.012373
# 6 0.000000 0.000000 0.000000 0.000000 -0.012373 0.036909
#
#
# Mechanical properties :
#
#
# Convention : Reuss Voigt Hill
#
# Bulk Modulus (GPa) = 21.62956 23.03259 22.33108
# Shear Modulus (GPa) = 29.08365 33.11288 31.09827
#
# Velocity S-wave (km/s) = 3.47095 3.70358 3.58915
# Velocity P-wave (km/s) = 5.00230 5.27538 5.14065
#
# Compressibility (1/GPa) = 0.04623303
#
# Stress axis : x y z
#
# Youngs Moduli (GPa) = 52.22595 52.22595 77.69156
#
# Poissons Ratio (x) = -0.03619 0.12274
# Poissons Ratio (y) = -0.03619 0.12274
# Poissons Ratio (z) = 0.08251 0.08251
#
# Static dielectric constant tensor:
#      x y z
#    x 2.013330 0.000000 0.000000 
#    y 0.000000 2.013330 0.000000 
#    z 0.000000 0.000000 2.037840 
# 
# From -- ./inp_files/3240.got.cif
#   From: 2010.05.17/outbox.cif.g08.bks.cpg/sg152_2_cif.got.tgz:3240.got - 2010.05.20 10:36:06.
