data_PCOD9575869
_publ_section_title
;
Structure prediction by ZEFSAII (Michael W. Deem and Ramdas Pophale) SiO2 
 PCOD9575869
Probable space group: P 31 2 1
;
_chemical_formula_sum "Si O2"
_cell_formula_units_Z 24
_cell_length_a 7.487020
_cell_length_b 7.487020
_cell_length_c 21.798939
_cell_angle_alpha 90.000000
_cell_angle_beta 90.000000
_cell_angle_gamma 120.000000
_cell_volume 1058.239515
_symmetry_space_group_name_H-M "P 31 2 1"
_symmetry_group_IT_number 152
_symmetry_cell_setting 'hexagonal'
loop_
_space_group_symop_operation_xyz
x,y,z
-y,x-y,1/3+z
-x+y,-x,2/3+z
x-y,-y,2/3-z
-x,-x+y,1/3-z
y,x,-z
loop_
_atom_site_type_symbol
_atom_site_label
_atom_site_fract_x
_atom_site_fract_y
_atom_site_fract_z
Si Si1 0.635054 0.196022 0.095398
Si Si2 0.175782 0.966473 0.620521
Si Si3 0.802985 0.633841 0.049016
Si Si4 0.845267 0.140332 0.512783
O O1 0.436189 0.066049 0.051867
O O2 0.774630 0.412291 0.062570
O O3 0.529880 0.240864 0.154867
O O4 0.724677 0.054580 0.117972
O O5 0.084173 0.911957 0.551296
O O6 0.000000 0.814411 0.666667
O O7 0.229587 0.196003 0.636984
O O8 0.757855 0.719808 0.111323
O O9 0.648127 0.648127 0.000000
#
# Coordination Sequence:
#
# PCOD9575869 Si02
#       4
#     6   6   6   6
#     4  10  20  38  66  92 127 171 210 265 333 383
#     4   9  20  40  66  88 128 169 212 275 319 382
#     4  11  22  42  65  94 132 169 223 276 319 397
#     4  10  20  39  64  92 132 167 212 270 330 382
#
# _framework density 22.679179000000001
#
# number of rings (size 3 to 8) (size 9 to 14) (size 15 to 20)
#    1.500    0.500    2.500    1.500    0.000    0.000 
#    9.000   12.500    5.500    0.000    0.000    0.000 
#    0.000    0.000    0.000    0.000    0.000    0.000 
#
# Total GULP energy -133990.479194 kJ/mol
# GULP energy per Si atom -5582.936633 kJ/mol
# Density = 2.262756 g / cm^3
# Si number density = 22.679179 Si / 1000 Ang^3
#
#
#
# Elastic Constant Matrix: (Units=GPa)
#
#
# Indices 1 2 3 4 5 6 
#
# 1 80.4052 50.1583 14.1825 9.2371 0.0004 0.0000
# 2 50.1583 80.4052 14.1825 -9.2371 -0.0004 0.0000
# 3 14.1825 14.1825 117.1406 0.0000 0.0000 0.0000
# 4 9.2371 -9.2371 0.0000 33.1072 0.0000 -0.0004
# 5 0.0004 -0.0004 0.0000 0.0000 33.1072 9.2371
# 6 0.0000 0.0000 0.0000 -0.0004 9.2371 15.1235
#
#
#
# Elastic Compliance Matrix: (Units=1/GPa)
#
#
# Indices 1 2 3 4 5 6 
#
# 1 0.023859 -0.015993 -0.000952 -0.011119 -0.000001 0.000000
# 2 -0.015993 0.023859 -0.000952 0.011119 0.000001 0.000000
# 3 -0.000952 -0.000952 0.008767 0.000000 0.000000 0.000000
# 4 -0.011119 0.011119 0.000000 0.036410 0.000000 0.000001
# 5 -0.000001 0.000001 0.000000 0.000000 0.036410 -0.022238
# 6 0.000000 0.000000 0.000000 0.000001 -0.022238 0.079705
#
#
# Mechanical properties :
#
#
# Convention : Reuss Voigt Hill
#
# Bulk Modulus (GPa) = 48.33265 48.33307 48.33286
# Shear Modulus (GPa) = 19.86468 29.56275 24.71372
#
# Velocity S-wave (km/s) = 2.96277 3.61435 3.30466
# Velocity P-wave (km/s) = 5.74993 6.22703 5.99323
#
# Compressibility (1/GPa) = 0.02068995
#
# Stress axis : x y z
#
# Youngs Moduli (GPa) = 41.91233 41.91233 114.05939
#
# Poissons Ratio (x) = 0.67032 0.10863
# Poissons Ratio (y) = 0.67032 0.10863
# Poissons Ratio (z) = 0.03992 0.03992
#
# Static dielectric constant tensor:
#      x y z
#    x 1.842050 0.000000 0.000000 
#    y 0.000000 1.842050 0.000000 
#    z 0.000000 0.000000 1.852610 
# 
# From -- ./inp_files/2906.got.cif
#   From: 2010.05.17/outbox.cif.g08.bks.cpg/sg152_2_cif.got.tgz:2906.got - 2010.05.20 10:36:06.
