data_PCOD9575413
_publ_section_title
;
Structure prediction by ZEFSAII (Michael W. Deem and Ramdas Pophale) SiO2 
 PCOD9575413
Probable space group: P 3 2 1
;
_chemical_formula_sum "Si O2"
_cell_formula_units_Z 30
_cell_length_a 19.404456
_cell_length_b 19.404456
_cell_length_c 4.928482
_cell_angle_alpha 90.000000
_cell_angle_beta 90.000000
_cell_angle_gamma 120.000000
_cell_volume 1607.114244
_symmetry_space_group_name_H-M "P 3 2 1"
_symmetry_group_IT_number 150
_symmetry_cell_setting 'hexagonal'
loop_
_space_group_symop_operation_xyz
x,y,z
-y,x-y,z
-x+y,-x,z
x-y,-y,-z
-x,-x+y,-z
y,x,-z
loop_
_atom_site_type_symbol
_atom_site_label
_atom_site_fract_x
_atom_site_fract_y
_atom_site_fract_z
Si Si1 0.569548 0.873074 0.369471
Si Si2 0.906151 0.240644 0.035995
Si Si3 0.765046 0.083763 0.131852
Si Si4 0.942962 0.454376 0.733236
Si Si5 0.444066 0.160515 0.541376
O O1 0.642489 0.916202 0.580849
O O2 0.515523 0.913461 0.349595
O O3 0.525546 0.780236 0.459010
O O4 0.605973 0.881984 0.071596
O O5 0.858049 0.149397 0.135191
O O6 0.877589 0.286303 0.246907
O O7 0.875254 0.242922 0.737066
O O8 0.000000 0.282451 0.000000
O O9 0.743573 0.000000 0.000000
O O10 0.866806 0.366439 0.695078
O O11 0.000000 0.454789 0.500000
O O12 0.000000 0.483791 0.000000
#
# Coordination Sequence:
#
# PCOD9575413 Si02
#       5
#     6   6   6   6   6
#     4  10  21  35  51  76 105 136 174 216 266 312
#     4  10  19  33  53  75 104 134 169 214 259 311
#     4  10  19  33  53  75 104 134 169 214 259 311
#     4  12  22  34  56  80 104 138 184 226 266 314
#     4  10  21  35  51  76 105 136 174 216 266 312
#
# _framework density 18.666996999999999
#
# number of rings (size 3 to 8) (size 9 to 14) (size 15 to 20)
#    0.000    1.600    0.000    7.200    0.000    0.000 
#    1.200    0.000    0.000    0.400    0.000    0.000 
#    0.000    9.600    0.000    0.000    0.000    3.200 
#
# Total GULP energy -167056.455592 kJ/mol
# GULP energy per Si atom -5568.548520 kJ/mol
# Density = 1.862451 g / cm^3
# Si number density = 18.666997 Si / 1000 Ang^3
#
#
#
# Elastic Constant Matrix: (Units=GPa)
#
#
# Indices 1 2 3 4 5 6 
#
# 1 71.0016 10.0515 5.6292 -8.7395 0.0000 0.0000
# 2 10.0515 71.0016 5.6292 8.7395 0.0000 0.0000
# 3 5.6292 5.6292 97.9215 0.0000 0.0000 0.0000
# 4 -8.7395 8.7395 0.0000 21.5692 0.0000 0.0000
# 5 0.0000 0.0000 0.0000 0.0000 21.5692 -8.7395
# 6 0.0000 0.0000 0.0000 0.0000 -8.7395 30.4751
#
#
#
# Elastic Compliance Matrix: (Units=1/GPa)
#
#
# Indices 1 2 3 4 5 6 
#
# 1 0.015500 -0.003064 -0.000715 0.007522 0.000000 0.000000
# 2 -0.003064 0.015500 -0.000715 -0.007522 0.000000 0.000000
# 3 -0.000715 -0.000715 0.010294 0.000000 0.000000 0.000000
# 4 0.007522 -0.007522 0.000000 0.052458 0.000000 0.000000
# 5 0.000000 0.000000 0.000000 0.000000 0.052458 0.015044
# 6 0.000000 0.000000 0.000000 0.000000 0.015044 0.037128
#
#
# Mechanical properties :
#
#
# Convention : Reuss Voigt Hill
#
# Bulk Modulus (GPa) = 30.95165 31.39381 31.17273
# Shear Modulus (GPa) = 24.61896 29.29701 26.95799
#
# Velocity S-wave (km/s) = 3.63554 3.96593 3.80432
# Velocity P-wave (km/s) = 5.85148 6.15027 6.00273
#
# Compressibility (1/GPa) = 0.03230845
#
# Stress axis : x y z
#
# Youngs Moduli (GPa) = 64.51438 64.51438 97.13963
#
# Poissons Ratio (x) = 0.19764 0.06945
# Poissons Ratio (y) = 0.19764 0.06945
# Poissons Ratio (z) = 0.04612 0.04612
#
# Static dielectric constant tensor:
#      x y z
#    x 1.711980 0.000000 0.000000 
#    y 0.000000 1.711980 0.000000 
#    z 0.000000 0.000000 1.655610 
# 
# From -- ./inp_files/189.got.cif
#   From: 2010.05.17/outbox.cif.g08.bks.cpg/sg150_cif.got.tgz:189.got - 2010.05.20 13:53:18.
