data_PCOD9575219
_publ_section_title
;
Structure prediction by ZEFSAII (Michael W. Deem and Ramdas Pophale) SiO2 
 PCOD9575219
Probable space group: R -3
;
_chemical_formula_sum "Si O2"
_cell_formula_units_Z 84
_cell_length_a 16.604317
_cell_length_b 16.604317
_cell_length_c 14.096893
_cell_angle_alpha 90.000000
_cell_angle_beta 90.000000
_cell_angle_gamma 120.000000
_cell_volume 3365.860149
_symmetry_space_group_name_H-M "R -3"
_symmetry_group_IT_number 148
_symmetry_cell_setting 'hexagonal'
loop_
_space_group_symop_operation_xyz
x,y,z
-y,x-y,z
-x+y,-x,z
-x,-y,-z
y,-x+y,-z
x-y,x,-z
2/3+x,1/3+y,1/3+z
2/3-y,1/3+x-y,1/3+z
2/3-x+y,1/3-x,1/3+z
2/3-x,1/3-y,1/3-z
2/3+y,1/3-x+y,1/3-z
2/3+x-y,1/3+x,1/3-z
1/3+x,2/3+y,2/3+z
1/3-y,2/3+x-y,2/3+z
1/3-x+y,2/3-x,2/3+z
1/3-x,2/3-y,2/3-z
1/3+y,2/3-x+y,2/3-z
1/3+x-y,2/3+x,2/3-z
loop_
_atom_site_type_symbol
_atom_site_label
_atom_site_fract_x
_atom_site_fract_y
_atom_site_fract_z
Si Si1 0.333333 0.666667 0.278516
Si Si2 0.506296 0.858094 0.792434
Si Si3 0.629532 0.052854 0.075581
Si Si4 0.413835 0.953468 0.718443
Si Si5 0.195685 0.030767 0.675465
Si Si6 0.666668 0.333334 0.221550
O O1 0.333335 0.666668 0.166667
O O2 0.423672 0.659994 0.309954
O O3 0.501077 0.949255 0.762710
O O4 0.546390 0.834944 0.700530
O O5 0.552598 0.867241 0.894065
O O6 0.403390 0.770915 0.809547
O O7 0.650141 0.071437 0.187569
O O8 0.568273 0.097212 0.041399
O O9 0.715379 0.090796 0.003128
O O10 0.568269 0.940506 0.063696
O O11 0.666668 0.333335 0.333334
#
# Coordination Sequence:
#
# PCOD9575219 Si02
#       6
#     6  18  18  18  18   6
#     4  12  28  44  76 106 125 184 241 284 331 406
#     4  11  21  37  65  95 129 169 220 264 343 401
#     4  10  24  42  66  89 140 178 214 286 338 402
#     4  11  22  38  63  97 125 180 223 272 340 406
#     4  10  24  46  63  96 132 178 223 280 346 389
#     4  12  19  38  61  90 136 161 191 290 316 393
#
# _framework density 24.956472999999999
#
# number of rings (size 3 to 8) (size 9 to 14) (size 15 to 20)
#    0.000    1.286    2.143    2.571    3.000    4.286 
#    0.000    0.000    0.000    0.000    0.000    0.000 
#    0.000    0.000    0.000    0.000    0.000    0.000 
#
# Total GULP energy -156452.783669 kJ/mol
# GULP energy per Si atom -5587.599417 kJ/mol
# Density = 2.489967 g / cm^3
# Si number density = 24.956473 Si / 1000 Ang^3
#
#
#
# Elastic Constant Matrix: (Units=GPa)
#
#
# Indices 1 2 3 4 5 6 
#
# 1 55.3844 53.4742 18.9246 -10.5041 0.9403 0.0001
# 2 53.4742 55.3832 18.9245 10.5038 -0.9405 -0.0001
# 3 18.9246 18.9245 166.8450 -0.0001 0.0000 -0.0002
# 4 -10.5041 10.5038 -0.0001 27.2005 0.0000 -0.9406
# 5 0.9403 -0.9405 0.0000 0.0000 27.2005 -10.5038
# 6 0.0001 -0.0001 -0.0002 -0.9406 -10.5038 0.9549
#
#
#
# Elastic Compliance Matrix: (Units=1/GPa)
#
#
# Indices 1 2 3 4 5 6 
#
# 1 -0.074989 0.084553 -0.001085 -0.061609 0.005516 0.000001
# 2 0.084553 -0.074990 -0.001085 0.061610 -0.005516 -0.000001
# 3 -0.001085 -0.001085 0.006240 0.000000 0.000000 0.000000
# 4 -0.061609 0.061610 0.000000 -0.011201 -0.000001 -0.011034
# 5 0.005516 -0.005516 0.000000 -0.000001 -0.011202 -0.123225
# 6 0.000001 -0.000001 0.000000 -0.011034 -0.123225 -0.319101
#
#
# Mechanical properties :
#
#
# Convention : Reuss Voigt Hill
#
# Bulk Modulus (GPa) = 47.55664 51.13993 49.34828
# Shear Modulus (GPa) = -7.77605 23.49047 7.85721
#
# Velocity S-wave (km/s) = -1.76709 3.07132 1.77629
# Velocity P-wave (km/s) = 3.86442 5.75443 4.90139
#
# Compressibility (1/GPa) = 0.02102756
#
# Stress axis : x y z
#
# Youngs Moduli (GPa) = -13.33537 -13.33511 160.26511
#
# Poissons Ratio (x) = 1.12752 0.17385
# Poissons Ratio (y) = 1.12754 0.17384
# Poissons Ratio (z) = -0.01447 -0.01446
#
# Static dielectric constant tensor:
#      x y z
#    x 2.020900 0.000000 0.000000 
#    y 0.000000 2.020900 0.000000 
#    z 0.000000 0.000000 1.972460 
# 
# From -- ./inp_files/1985.got.cif
#   From: 2010.05.17/outbox.cif.g08.bks.cpg/sg148_1_cif.got.tgz:1985.got - 2010.05.20 13:50:20.
