data_PCOD9575372
_publ_section_title
;
Structure prediction by ZEFSAII (Michael W. Deem and Ramdas Pophale) SiO2 
 PCOD9575372
Probable space group: P 3 1 2
;
_chemical_formula_sum "Si O2"
_cell_formula_units_Z 42
_cell_length_a 20.770412
_cell_length_b 20.770412
_cell_length_c 5.559725
_cell_angle_alpha 90.000000
_cell_angle_beta 90.000000
_cell_angle_gamma 120.000000
_cell_volume 2077.180155
_symmetry_space_group_name_H-M "P 3 1 2"
_symmetry_group_IT_number 149
_symmetry_cell_setting 'hexagonal'
loop_
_space_group_symop_operation_xyz
x,y,z
-y,x-y,z
-x+y,-x,z
-y,-x,-z
-x+y,y,-z
x,x-y,-z
loop_
_atom_site_type_symbol
_atom_site_label
_atom_site_fract_x
_atom_site_fract_y
_atom_site_fract_z
Si Si1 0.759102 0.284796 0.749829
Si Si2 0.394698 0.928374 0.537380
Si Si3 0.189325 0.749837 0.247799
Si Si4 0.930634 0.529357 0.164083
Si Si5 0.791136 0.149036 0.742028
Si Si6 0.331365 0.337884 0.818009
Si Si7 0.156192 0.271815 0.757880
O O1 0.718889 0.281111 0.500000
O O2 0.844890 0.350002 0.762984
O O3 0.761481 0.207632 0.748115
O O4 0.718820 0.281180 0.000000
O O5 0.446587 0.893174 0.500000
O O6 0.332452 0.879895 0.731702
O O7 0.354452 0.938071 0.306335
O O8 0.448384 0.012550 0.619167
O O9 0.233883 0.766118 0.500000
O O10 0.156866 0.806221 0.247072
O O11 0.234334 0.765667 0.000000
O O12 0.936797 0.468399 0.000000
O O13 0.965995 0.610428 0.036254
O O14 0.837583 0.162418 0.500000
O O15 0.721011 0.068932 0.689237
O O16 0.834798 0.165203 0.000000
O O17 0.241860 0.295611 0.809033
O O18 0.118863 0.237726 0.500000
O O19 0.114687 0.229373 0.000000
#
# Coordination Sequence:
#
# PCOD9575372 Si02
#       7
#     6   6   6   6   6   6   6
#     4  10  20  39  57  77 113 156 196 238 309 383
#     4  12  24  36  58  91 124 154 205 269 323 371
#     4  10  20  39  57  77 113 156 196 238 309 383
#     4  12  24  36  58  91 124 154 205 269 323 371
#     4  10  20  35  56  80 113 157 193 228 300 365
#     4  12  22  38  58  86 124 160 200 256 298 384
#     4  10  20  35  56  80 113 157 193 228 300 365
#
# _framework density 20.219719999999999
#
# number of rings (size 3 to 8) (size 9 to 14) (size 15 to 20)
#    0.000    1.143    7.143    3.429    0.000    0.000 
#    0.000    0.000    0.000    0.571    0.000    2.000 
#    0.000    0.000    0.000    8.571    1.714    0.000 
#
# Total GULP energy -233904.773312 kJ/mol
# GULP energy per Si atom -5569.161269 kJ/mol
# Density = 2.017370 g / cm^3
# Si number density = 20.219720 Si / 1000 Ang^3
#
#
#
# Elastic Constant Matrix: (Units=GPa)
#
#
# Indices 1 2 3 4 5 6 
#
# 1 52.0079 24.7249 15.6022 0.0000 3.4751 0.0000
# 2 24.7249 52.0079 15.6022 0.0000 -3.4751 0.0000
# 3 15.6022 15.6022 162.8049 0.0000 0.0000 0.0000
# 4 0.0000 0.0000 0.0000 35.6371 0.0000 -3.4751
# 5 3.4751 -3.4751 0.0000 0.0000 35.6371 0.0000
# 6 0.0000 0.0000 0.0000 -3.4751 0.0000 13.6415
#
#
#
# Elastic Compliance Matrix: (Units=1/GPa)
#
#
# Indices 1 2 3 4 5 6 
#
# 1 0.025574 -0.012013 -0.001300 0.000000 -0.003665 0.000000
# 2 -0.012013 0.025574 -0.001300 0.000000 0.003665 0.000000
# 3 -0.001300 -0.001300 0.006391 0.000000 0.000000 0.000000
# 4 0.000000 0.000000 0.000000 0.028775 0.000000 0.007330
# 5 -0.003665 0.003665 0.000000 0.000000 0.028775 0.000000
# 6 0.000000 0.000000 0.000000 0.007330 0.000000 0.075173
#
#
# Mechanical properties :
#
#
# Convention : Reuss Voigt Hill
#
# Bulk Modulus (GPa) = 35.31752 42.07547 38.69650
# Shear Modulus (GPa) = 21.84123 31.04259 26.44191
#
# Velocity S-wave (km/s) = 3.29020 3.92249 3.62018
# Velocity P-wave (km/s) = 5.65143 6.43187 6.05424
#
# Compressibility (1/GPa) = 0.02831456
#
# Stress axis : x y z
#
# Youngs Moduli (GPa) = 39.10279 39.10279 156.46009
#
# Poissons Ratio (x) = 0.46974 0.20333
# Poissons Ratio (y) = 0.46974 0.20333
# Poissons Ratio (z) = 0.05082 0.05082
#
# Static dielectric constant tensor:
#      x y z
#    x 1.661030 0.000000 0.000000 
#    y 0.000000 1.661030 0.000000 
#    z 0.000000 0.000000 1.908160 
# 
# From -- ./inp_files/211.got.cif
#   From: 2010.05.17/outbox.cif.g08.bks.cpg/sg149_cif.got.tgz:211.got - 2010.05.20 13:52:34.
