data_PCOD9575560
_publ_section_title
;
Structure prediction by ZEFSAII (Michael W. Deem and Ramdas Pophale) SiO2 
 PCOD9575560
Probable space group: P 31 1 2
;
_chemical_formula_sum "Si O2"
_cell_formula_units_Z 24
_cell_length_a 8.646980
_cell_length_b 8.646980
_cell_length_c 14.084059
_cell_angle_alpha 90.000000
_cell_angle_beta 90.000000
_cell_angle_gamma 120.000000
_cell_volume 911.984330
_symmetry_space_group_name_H-M "P 31 1 2"
_symmetry_group_IT_number 151
_symmetry_cell_setting 'hexagonal'
loop_
_space_group_symop_operation_xyz
x,y,z
-y,x-y,1/3+z
-x+y,-x,2/3+z
-y,-x,2/3-z
-x+y,y,1/3-z
x,x-y,-z
loop_
_atom_site_type_symbol
_atom_site_label
_atom_site_fract_x
_atom_site_fract_y
_atom_site_fract_z
Si Si1 0.890784 0.616480 0.459791
Si Si2 0.342675 0.330383 0.367747
Si Si3 0.274500 0.329966 0.074633
Si Si4 0.524497 0.823366 0.880294
O O1 0.883691 0.441846 0.500000
O O2 0.777116 0.592451 0.364248
O O3 0.801555 0.666280 0.547673
O O4 0.093713 0.762016 0.434088
O O5 0.465101 0.534900 0.333334
O O6 0.138722 0.263608 0.339079
O O7 0.359205 0.362988 0.478959
O O8 0.176864 0.353728 0.166667
O O9 0.429124 0.531261 0.049216
O O10 0.356814 0.643186 0.833334
#
# Coordination Sequence:
#
# PCOD9575560 Si02
#       4
#     6   6   6   6
#     4  10  22  39  62 100 137 160 225 297 340 409
#     4  11  19  40  71  90 127 186 222 276 351 406
#     4   9  18  37  64  88 128 172 227 268 332 422
#     4  10  19  38  67  94 125 175 230 269 333 425
#
# _framework density 26.316241999999999
#
# number of rings (size 3 to 8) (size 9 to 14) (size 15 to 20)
#    0.000    2.000    7.500    0.000    0.000    1.000 
#    9.000    3.750    5.500    3.000    0.000    0.000 
#    0.000    0.000    0.000    0.000    0.000    0.000 
#
# Total GULP energy -133973.580825 kJ/mol
# GULP energy per Si atom -5582.232534 kJ/mol
# Density = 2.625635 g / cm^3
# Si number density = 26.316242 Si / 1000 Ang^3
#
#
#
# Elastic Constant Matrix: (Units=GPa)
#
#
# Indices 1 2 3 4 5 6 
#
# 1 116.8781 64.4623 16.8563 0.0004 4.6223 0.0000
# 2 64.4623 116.8781 16.8563 -0.0004 -4.6223 0.0000
# 3 16.8563 16.8563 66.4489 0.0000 0.0000 0.0000
# 4 0.0004 -0.0004 0.0000 34.2138 0.0000 -4.6223
# 5 4.6223 -4.6223 0.0000 0.0000 34.2138 0.0004
# 6 0.0000 0.0000 0.0000 -4.6223 0.0004 26.2079
#
#
#
# Elastic Compliance Matrix: (Units=1/GPa)
#
#
# Indices 1 2 3 4 5 6 
#
# 1 0.012666 -0.006878 -0.001468 0.000000 -0.002640 0.000000
# 2 -0.006878 0.012666 -0.001468 0.000000 0.002640 0.000000
# 3 -0.001468 -0.001468 0.015794 0.000000 0.000000 0.000000
# 4 0.000000 0.000000 0.000000 0.029941 0.000000 0.005281
# 5 -0.002640 0.002640 0.000000 0.000000 0.029941 0.000000
# 6 0.000000 0.000000 0.000000 0.005281 0.000000 0.039088
#
#
# Mechanical properties :
#
#
# Convention : Reuss Voigt Hill
#
# Bulk Modulus (GPa) = 46.51944 55.17276 50.84610
# Shear Modulus (GPa) = 29.95979 32.39577 31.17778
#
# Velocity S-wave (km/s) = 3.37776 3.51239 3.44573
# Velocity P-wave (km/s) = 5.73827 6.12046 5.93244
#
# Compressibility (1/GPa) = 0.02149639
#
# Stress axis : x y z
#
# Youngs Moduli (GPa) = 78.95366 78.95366 63.31522
#
# Poissons Ratio (x) = 0.54306 0.09295
# Poissons Ratio (y) = 0.54306 0.09295
# Poissons Ratio (z) = 0.11591 0.11591
#
# Static dielectric constant tensor:
#      x y z
#    x 2.073070 0.000000 0.000000 
#    y 0.000000 2.073070 0.000000 
#    z 0.000000 0.000000 2.321870 
# 
# From -- ./inp_files/3748.got.cif
#   From: 2010.05.17/outbox.cif.g08.bks.cpg/sg151_2_cif.got.tgz:3748.got - 2010.05.20 10:33:20.
