data_PCOD9575422
_publ_section_title
;
Structure prediction by ZEFSAII (Michael W. Deem and Ramdas Pophale) SiO2 
 PCOD9575422
Probable space group: P 3 2 1
;
_chemical_formula_sum "Si O2"
_cell_formula_units_Z 48
_cell_length_a 12.990277
_cell_length_b 12.990277
_cell_length_c 20.692776
_cell_angle_alpha 90.000000
_cell_angle_beta 90.000000
_cell_angle_gamma 120.000000
_cell_volume 3024.030813
_symmetry_space_group_name_H-M "P 3 2 1"
_symmetry_group_IT_number 150
_symmetry_cell_setting 'hexagonal'
loop_
_space_group_symop_operation_xyz
x,y,z
-y,x-y,z
-x+y,-x,z
x-y,-y,-z
-x,-x+y,-z
y,x,-z
loop_
_atom_site_type_symbol
_atom_site_label
_atom_site_fract_x
_atom_site_fract_y
_atom_site_fract_z
Si Si1 0.911578 0.333698 0.940153
Si Si2 0.666302 0.088422 0.940153
Si Si3 0.999916 0.757360 0.324661
Si Si4 0.242556 0.999916 0.675339
Si Si5 0.422119 0.333698 0.559847
Si Si6 0.999916 0.242556 0.175339
Si Si7 0.242640 0.242556 0.175339
Si Si8 0.666302 0.577881 0.559847
O O1 0.786667 0.213333 0.950317
O O2 0.892972 0.446486 0.934401
O O3 0.970165 0.316395 0.875462
O O4 0.000000 0.358515 0.000000
O O5 0.683605 0.029835 0.875462
O O6 0.641485 0.000000 0.000000
O O7 0.874231 0.748461 0.338094
O O8 0.999996 0.721582 0.250000
O O9 0.029835 0.683605 0.375462
O O10 0.105976 0.894024 0.330475
O O11 0.278414 0.999996 0.750000
O O12 0.346230 0.029835 0.624538
O O13 0.358515 0.358515 0.500000
O O14 0.553514 0.446486 0.565599
O O15 0.426667 0.213333 0.549683
O O16 0.105976 0.211952 0.169525
O O17 0.874231 0.125769 0.161906
O O18 0.641485 0.641485 0.500000
#
# Coordination Sequence:
#
# PCOD9575422 Si02
#       8
#     6   6   6   6   6   6   6   6
#     4  10  20  33  49  69  94 125 160 197 237 281
#     4  10  20  33  49  69  94 125 160 197 237 281
#     4   9  17  30  49  72  96 121 150 187 232 280
#     4   9  17  30  49  72  96 121 150 187 232 280
#     4  10  20  33  49  69  94 125 160 197 237 281
#     4   9  17  30  49  72  96 121 150 187 232 280
#     4   9  17  30  49  72  96 121 150 187 232 280
#     4  10  20  33  49  69  94 125 160 197 237 281
#
# _framework density 15.872852999999999
#
# number of rings (size 3 to 8) (size 9 to 14) (size 15 to 20)
#    0.000    2.500    0.000    2.500    0.000    3.000 
#    0.000    0.000    0.000   12.000    0.000    0.000 
#    0.000    0.000    0.000    0.000    0.000    0.000 
#
# Total GULP energy -267632.048344 kJ/mol
# GULP energy per Si atom -5575.667674 kJ/mol
# Density = 1.583673 g / cm^3
# Si number density = 15.872853 Si / 1000 Ang^3
#
#
#
# Elastic Constant Matrix: (Units=GPa)
#
#
# Indices 1 2 3 4 5 6 
#
# 1 112.5551 74.7437 86.2716 0.0000 0.0000 0.0000
# 2 74.7437 112.5551 86.2716 0.0000 0.0000 0.0000
# 3 86.2716 86.2716 116.5667 0.0000 0.0000 0.0000
# 4 0.0000 0.0000 0.0000 26.1947 0.0000 0.0000
# 5 0.0000 0.0000 0.0000 0.0000 26.1947 0.0000
# 6 0.0000 0.0000 0.0000 0.0000 0.0000 18.9057
#
#
#
# Elastic Compliance Matrix: (Units=1/GPa)
#
#
# Indices 1 2 3 4 5 6 
#
# 1 0.021613 -0.004834 -0.012418 0.000000 0.000000 0.000000
# 2 -0.004834 0.021613 -0.012418 0.000000 0.000000 0.000000
# 3 -0.012418 -0.012418 0.026960 0.000000 0.000000 0.000000
# 4 0.000000 0.000000 0.000000 0.038176 0.000000 0.000000
# 5 0.000000 0.000000 0.000000 0.000000 0.038176 0.000000
# 6 0.000000 0.000000 0.000000 0.000000 0.000000 0.052894
#
#
# Mechanical properties :
#
#
# Convention : Reuss Voigt Hill
#
# Bulk Modulus (GPa) = 92.20452 92.91673 92.56062
# Shear Modulus (GPa) = 19.05581 20.55170 19.80375
#
# Velocity S-wave (km/s) = 3.46862 3.60220 3.53604
# Velocity P-wave (km/s) = 8.61727 8.71586 8.66671
#
# Compressibility (1/GPa) = 0.01084546
#
# Stress axis : x y z
#
# Youngs Moduli (GPa) = 46.26856 46.26856 37.09172
#
# Poissons Ratio (x) = 0.22367 0.46061
# Poissons Ratio (y) = 0.22367 0.46061
# Poissons Ratio (z) = 0.57457 0.57457
#
# Static dielectric constant tensor:
#      x y z
#    x 1.501710 0.000000 0.000000 
#    y 0.000000 1.501710 0.000000 
#    z 0.000000 0.000000 1.523080 
# 
# From -- ./inp_files/1149.got.cif
#   From: 2010.05.17/outbox.cif.g08.bks.cpg/sg150_cif.got.tgz:1149.got - 2010.05.20 13:53:18.
