data_PCOD9575722
_publ_section_title
;
Structure prediction by ZEFSAII (Michael W. Deem and Ramdas Pophale) SiO2 
 PCOD9575722
Probable space group: P 31 2 1
;
_chemical_formula_sum "Si O2"
_cell_formula_units_Z 21
_cell_length_a 7.032691
_cell_length_b 7.032691
_cell_length_c 18.676379
_cell_angle_alpha 90.000000
_cell_angle_beta 90.000000
_cell_angle_gamma 120.000000
_cell_volume 799.956519
_symmetry_space_group_name_H-M "P 31 2 1"
_symmetry_group_IT_number 152
_symmetry_cell_setting 'hexagonal'
loop_
_space_group_symop_operation_xyz
x,y,z
-y,x-y,1/3+z
-x+y,-x,2/3+z
x-y,-y,2/3-z
-x,-x+y,1/3-z
y,x,-z
loop_
_atom_site_type_symbol
_atom_site_label
_atom_site_fract_x
_atom_site_fract_y
_atom_site_fract_z
Si Si1 0.456261 0.457586 0.716078
Si Si2 0.914885 0.544196 0.744772
Si Si3 0.840438 0.370763 0.228789
Si Si4 0.783259 0.783259 0.000000
O O1 0.404999 0.634431 0.752630
O O2 0.553613 0.530394 0.635909
O O3 0.666499 0.477516 0.756789
O O4 0.221101 0.238850 0.699477
O O5 0.111396 0.727057 0.791483
O O6 0.000000 0.657079 0.666667
O O7 0.923680 0.322384 0.730485
O O8 0.000000 0.513962 0.166667
#
# Coordination Sequence:
#
# PCOD9575722 Si02
#       4
#     6   6   6   3
#     4  10  17  38  60  86 131 164 210 285 326 406
#     4   7  15  33  56  77 121 159 197 272 317 380
#     4  10  21  37  62  91 125 176 223 275 353 414
#     4   8  16  32  56  82 116 160 200 266 326 370
#
# _framework density 26.251424
#
# number of rings (size 3 to 8) (size 9 to 14) (size 15 to 20)
#    0.857    2.286    2.857    0.000    0.000    1.143 
#    7.714    5.714    0.000    0.000    0.000    0.000 
#    0.000    0.000    0.000    0.000    0.000    0.000 
#
# Total GULP energy -117071.008534 kJ/mol
# GULP energy per Si atom -5574.809930 kJ/mol
# Density = 2.619167 g / cm^3
# Si number density = 26.251424 Si / 1000 Ang^3
#
#
#
# Elastic Constant Matrix: (Units=GPa)
#
#
# Indices 1 2 3 4 5 6 
#
# 1 156.9267 65.2906 19.3940 1.7729 -0.0002 0.0000
# 2 65.2906 156.9267 19.3940 -1.7729 0.0002 0.0000
# 3 19.3940 19.3940 101.8169 0.0000 0.0000 0.0000
# 4 1.7729 -1.7729 0.0000 29.5564 0.0000 0.0002
# 5 -0.0002 0.0002 0.0000 0.0000 29.5564 1.7729
# 6 0.0000 0.0000 0.0000 0.0002 1.7729 45.8181
#
#
#
# Elastic Compliance Matrix: (Units=1/GPa)
#
#
# Indices 1 2 3 4 5 6 
#
# 1 0.007796 -0.003142 -0.000887 -0.000656 0.000000 0.000000
# 2 -0.003142 0.007796 -0.000887 0.000656 0.000000 0.000000
# 3 -0.000887 -0.000887 0.010159 0.000000 0.000000 0.000000
# 4 -0.000656 0.000656 0.000000 0.033912 0.000000 0.000000
# 5 0.000000 0.000000 0.000000 0.000000 0.033912 -0.001312
# 6 0.000000 0.000000 0.000000 0.000000 -0.001312 0.021876
#
#
# Mechanical properties :
#
#
# Convention : Reuss Voigt Hill
#
# Bulk Modulus (GPa) = 62.80445 69.31417 66.05931
# Shear Modulus (GPa) = 38.28763 41.75897 40.02330
#
# Velocity S-wave (km/s) = 3.82317 3.99272 3.90887
# Velocity P-wave (km/s) = 6.59280 6.90776 6.75211
#
# Compressibility (1/GPa) = 0.01592244
#
# Stress axis : x y z
#
# Youngs Moduli (GPa) = 128.26286 128.26286 98.43172
#
# Poissons Ratio (x) = 0.40295 0.08727
# Poissons Ratio (y) = 0.40295 0.08727
# Poissons Ratio (z) = 0.11372 0.11372
#
# Static dielectric constant tensor:
#      x y z
#    x 2.091360 0.000000 0.000000 
#    y 0.000000 2.091360 0.000000 
#    z 0.000000 0.000000 2.117040 
# 
# From -- ./inp_files/2265.got.cif
#   From: 2010.05.17/outbox.cif.g08.bks.cpg/sg152_2_cif.got.tgz:2265.got - 2010.05.20 10:36:06.
