data_PCOD9575270
_publ_section_title
;
Structure prediction by ZEFSAII (Michael W. Deem and Ramdas Pophale) SiO2 
 PCOD9575270
Probable space group: R -3
;
_chemical_formula_sum "Si O2"
_cell_formula_units_Z 66
_cell_length_a 13.836836
_cell_length_b 13.836836
_cell_length_c 18.089105
_cell_angle_alpha 90.000000
_cell_angle_beta 90.000000
_cell_angle_gamma 120.000000
_cell_volume 2999.309606
_symmetry_space_group_name_H-M "R -3"
_symmetry_group_IT_number 148
_symmetry_cell_setting 'hexagonal'
loop_
_space_group_symop_operation_xyz
x,y,z
-y,x-y,z
-x+y,-x,z
-x,-y,-z
y,-x+y,-z
x-y,x,-z
2/3+x,1/3+y,1/3+z
2/3-y,1/3+x-y,1/3+z
2/3-x+y,1/3-x,1/3+z
2/3-x,1/3-y,1/3-z
2/3+y,1/3-x+y,1/3-z
2/3+x-y,1/3+x,1/3-z
1/3+x,2/3+y,2/3+z
1/3-y,2/3+x-y,2/3+z
1/3-x+y,2/3-x,2/3+z
1/3-x,2/3-y,2/3-z
1/3+y,2/3-x+y,2/3-z
1/3+x-y,2/3+x,2/3-z
loop_
_atom_site_type_symbol
_atom_site_label
_atom_site_fract_x
_atom_site_fract_y
_atom_site_fract_z
Si Si1 0.339280 0.979013 0.998160
Si Si2 0.000000 0.000000 0.606378
Si Si3 0.666668 0.333335 0.546908
Si Si4 0.780504 0.598929 0.905194
Si Si5 0.247709 0.105943 0.770746
O O1 0.414917 0.065734 0.061746
O O2 0.233908 0.885387 0.039685
O O3 0.341338 0.053720 0.931154
O O4 0.399045 0.915717 0.962614
O O5 0.049934 0.129998 0.580016
O O6 0.000000 0.000000 0.695979
O O7 0.538116 0.280851 0.523678
O O8 0.822117 0.645725 0.823217
#
# Coordination Sequence:
#
# PCOD9575270 Si02
#       5
#    18   6   6  18  18
#     4  11  22  42  62  99 142 172 228 293 334 405
#     4  12  21  48  74  96 136 184 226 296 337 382
#     4  12  21  48  70  92 142 189 214 278 355 399
#     4  12  25  41  71 100 134 184 232 279 347 405
#     4  11  23  40  70 100 131 183 231 277 344 413
#
# _framework density 22.005063
#
# number of rings (size 3 to 8) (size 9 to 14) (size 15 to 20)
#    0.000    0.545    5.455    3.273    0.000    4.364 
#    0.000   13.636    0.000    2.182    0.000    0.000 
#    0.000    0.000    0.000    0.000    0.000    0.000 
#
# Total GULP energy -122852.994233 kJ/mol
# GULP energy per Si atom -5584.227011 kJ/mol
# Density = 2.195498 g / cm^3
# Si number density = 22.005063 Si / 1000 Ang^3
#
#
#
# Elastic Constant Matrix: (Units=GPa)
#
#
# Indices 1 2 3 4 5 6 
#
# 1 66.9643 27.2827 0.5438 7.0900 14.1601 -0.0001
# 2 27.2827 66.9653 0.5437 -7.0898 -14.1601 0.0001
# 3 0.5438 0.5437 74.4833 0.0003 -0.0001 0.0001
# 4 7.0900 -7.0898 0.0003 29.5377 0.0001 -14.1601
# 5 14.1601 -14.1601 -0.0001 0.0001 29.5378 7.0900
# 6 -0.0001 0.0001 0.0001 -14.1601 7.0900 19.8410
#
#
#
# Elastic Compliance Matrix: (Units=1/GPa)
#
#
# Indices 1 2 3 4 5 6 
#
# 1 0.027330 -0.016719 -0.000077 -0.010573 -0.021117 0.000001
# 2 -0.016719 0.027330 -0.000077 0.010572 0.021116 -0.000001
# 3 -0.000077 -0.000077 0.013427 0.000000 0.000000 0.000000
# 4 -0.010573 0.010572 0.000000 0.059177 -0.000001 0.042233
# 5 -0.021117 0.021116 0.000000 -0.000001 0.059177 -0.021147
# 6 0.000001 -0.000001 0.000000 0.042233 -0.021147 0.088098
#
#
# Mechanical properties :
#
#
# Convention : Reuss Voigt Hill
#
# Bulk Modulus (GPa) = 29.12090 29.46149 29.29119
# Shear Modulus (GPa) = 15.63806 27.78614 21.71210
#
# Velocity S-wave (km/s) = 2.66871 3.55733 3.14456
# Velocity P-wave (km/s) = 4.77058 5.50367 5.15018
#
# Compressibility (1/GPa) = 0.03433960
#
# Stress axis : x y z
#
# Youngs Moduli (GPa) = 36.58960 36.59023 74.47702
#
# Poissons Ratio (x) = 0.61174 0.00577
# Poissons Ratio (y) = 0.61173 0.00577
# Poissons Ratio (z) = 0.00283 0.00283
#
# Static dielectric constant tensor:
#      x y z
#    x 1.873700 0.000000 0.000000 
#    y 0.000000 1.873690 0.000000 
#    z 0.000000 0.000000 1.768360 
# 
# From -- ./inp_files/3027.got.cif
#   From: 2010.05.17/outbox.cif.g08.bks.cpg/sg148_2_cif.got.tgz:3027.got - 2010.05.20 13:50:20.
