data_PCOD9575888
_publ_section_title
;
Structure prediction by ZEFSAII (Michael W. Deem and Ramdas Pophale) SiO2 
 PCOD9575888
Probable space group: P 31 2 1
;
_chemical_formula_sum "Si O2"
_cell_formula_units_Z 42
_cell_length_a 10.942248
_cell_length_b 10.942248
_cell_length_c 18.189158
_cell_angle_alpha 90.000000
_cell_angle_beta 90.000000
_cell_angle_gamma 120.000000
_cell_volume 1886.063604
_symmetry_space_group_name_H-M "P 31 2 1"
_symmetry_group_IT_number 152
_symmetry_cell_setting 'hexagonal'
loop_
_space_group_symop_operation_xyz
x,y,z
-y,x-y,1/3+z
-x+y,-x,2/3+z
x-y,-y,2/3-z
-x,-x+y,1/3-z
y,x,-z
loop_
_atom_site_type_symbol
_atom_site_label
_atom_site_fract_x
_atom_site_fract_y
_atom_site_fract_z
Si Si1 0.562312 0.824146 0.402630
Si Si2 0.516983 0.688982 0.551506
Si Si3 0.101355 0.865642 0.984188
Si Si4 0.836446 0.000000 0.333334
Si Si5 0.431917 0.123340 0.239711
Si Si6 0.549495 0.933511 0.997731
Si Si7 0.200848 0.000000 0.333334
Si Si8 0.851022 0.348905 0.411367
O O1 0.535354 0.707895 0.464316
O O2 0.458935 0.886034 0.416548
O O3 0.532313 0.753630 0.323108
O O4 0.724461 0.945716 0.399523
O O5 0.431735 0.538573 0.589767
O O6 0.425130 0.761894 0.571087
O O7 0.669148 0.786381 0.589798
O O8 0.945887 0.835100 0.962243
O O9 0.052009 0.712376 0.019751
O O10 0.154245 0.015774 0.023022
O O11 0.452492 0.256213 0.290420
O O12 0.421020 0.143933 0.153473
O O13 0.290910 0.983825 0.267587
O O14 0.477613 0.999350 0.050442
#
# Coordination Sequence:
#
# PCOD9575888 Si02
#       8
#     6   6   6   3   6   6   3   6
#     4  11  23  40  68 100 136 182 232 290 357 424
#     4  10  21  42  67  97 133 181 238 297 348 424
#     4   9  21  40  62  92 133 177 220 287 350 419
#     4  11  23  38  62  98 137 175 232 276 348 449
#     4  10  21  39  64 100 132 174 232 284 350 427
#     4  10  20  40  67  91 133 175 224 293 360 415
#     4   9  19  38  62  88 133 181 216 270 352 417
#     4  10  22  38  62  99 133 172 226 290 354 415
#
# _framework density 22.268602999999999
#
# number of rings (size 3 to 8) (size 9 to 14) (size 15 to 20)
#    0.000    2.000    1.429    1.286    0.000    8.000 
#    2.571    1.429    0.000   23.143    0.000    0.000 
#    0.000    0.000    0.000    0.000    0.000    0.000 
#
# Total GULP energy -233896.434255 kJ/mol
# GULP energy per Si atom -5568.962720 kJ/mol
# Density = 2.221792 g / cm^3
# Si number density = 22.268603 Si / 1000 Ang^3
#
#
#
# Elastic Constant Matrix: (Units=GPa)
#
#
# Indices 1 2 3 4 5 6 
#
# 1 75.9226 9.6454 36.8533 -2.9076 0.0001 0.0000
# 2 9.6454 75.9226 36.8533 2.9076 -0.0001 0.0000
# 3 36.8533 36.8533 134.1736 0.0000 0.0000 0.0000
# 4 -2.9076 2.9076 0.0000 25.6500 0.0000 -0.0001
# 5 0.0001 -0.0001 0.0000 0.0000 25.6500 -2.9076
# 6 0.0000 0.0000 0.0000 -0.0001 -2.9076 33.1386
#
#
#
# Elastic Compliance Matrix: (Units=1/GPa)
#
#
# Indices 1 2 3 4 5 6 
#
# 1 0.015274 0.000034 -0.004205 0.001728 0.000000 0.000000
# 2 0.000034 0.015274 -0.004205 -0.001728 0.000000 0.000000
# 3 -0.004205 -0.004205 0.009763 0.000000 0.000000 0.000000
# 4 0.001728 -0.001728 0.000000 0.039378 0.000000 0.000000
# 5 0.000000 0.000000 0.000000 0.000000 0.039378 0.003455
# 6 0.000000 0.000000 0.000000 0.000000 0.003455 0.030479
#
#
# Mechanical properties :
#
#
# Convention : Reuss Voigt Hill
#
# Bulk Modulus (GPa) = 42.44332 50.30251 46.37292
# Shear Modulus (GPa) = 28.71082 30.39885 29.55483
#
# Velocity S-wave (km/s) = 3.59457 3.69873 3.64702
# Velocity P-wave (km/s) = 6.02736 6.39366 6.21321
#
# Compressibility (1/GPa) = 0.02356083
#
# Stress axis : x y z
#
# Youngs Moduli (GPa) = 65.47021 65.47021 102.42892
#
# Poissons Ratio (x) = -0.00225 0.43069
# Poissons Ratio (y) = -0.00225 0.43069
# Poissons Ratio (z) = 0.27529 0.27529
#
# Static dielectric constant tensor:
#      x y z
#    x 1.919240 0.000000 0.000000 
#    y 0.000000 1.919240 0.000000 
#    z 0.000000 0.000000 1.799810 
# 
# From -- ./inp_files/3119.got.cif
#   From: 2010.05.17/outbox.cif.g08.bks.cpg/sg152_2_cif.got.tgz:3119.got - 2010.05.20 10:36:06.
