data_PCOD9575477
_publ_section_title
;
Structure prediction by ZEFSAII (Michael W. Deem and Ramdas Pophale) SiO2 
 PCOD9575477
Probable space group: P 3 2 1
;
_chemical_formula_sum "Si O2"
_cell_formula_units_Z 25
_cell_length_a 11.107754
_cell_length_b 11.107754
_cell_length_c 11.465326
_cell_angle_alpha 90.000000
_cell_angle_beta 90.000000
_cell_angle_gamma 120.000000
_cell_volume 1225.094374
_symmetry_space_group_name_H-M "P 3 2 1"
_symmetry_group_IT_number 150
_symmetry_cell_setting 'hexagonal'
loop_
_space_group_symop_operation_xyz
x,y,z
-y,x-y,z
-x+y,-x,z
x-y,-y,-z
-x,-x+y,-z
y,x,-z
loop_
_atom_site_type_symbol
_atom_site_label
_atom_site_fract_x
_atom_site_fract_y
_atom_site_fract_z
Si Si1 0.788572 0.179998 0.393325
Si Si2 0.333334 0.666668 0.998502
Si Si3 0.534021 0.534021 0.000000
Si Si4 0.411558 0.040457 0.745435
Si Si5 0.333334 0.666668 0.725089
Si Si6 0.597421 0.881413 0.342667
O O1 0.677877 0.207041 0.326070
O O2 0.762784 0.188899 0.529756
O O3 0.935450 0.293386 0.343362
O O4 0.742710 0.023532 0.358623
O O5 0.402397 0.566215 0.026341
O O6 0.333334 0.666667 0.860234
O O7 0.584776 0.608431 0.874530
O O8 0.562874 0.086075 0.692137
O O9 0.398987 0.177456 0.750771
#
# Coordination Sequence:
#
# PCOD9575477 Si02
#       6
#     6   2   3   6   2   6
#     4  11  22  39  67  99 131 177 221 288 356 418
#     4  12  24  45  70 107 142 198 249 310 368 424
#     4  12  26  44  74 102 146 196 248 306 358 448
#     4  12  24  44  65 102 139 180 234 291 354 425
#     4  12  18  39  67  95 130 174 228 277 341 418
#     4  11  24  40  67 102 135 175 228 293 353 422
#
# _framework density 20.406590999999999
#
# number of rings (size 3 to 8) (size 9 to 14) (size 15 to 20)
#    0.000    0.480    4.800    4.080    3.360    0.000 
#    1.440    0.000    0.000    0.480    0.000    0.000 
#    0.000    0.000    0.000    0.000    0.000    0.000 
#
# Total GULP energy -139192.546987 kJ/mol
# GULP energy per Si atom -5567.701879 kJ/mol
# Density = 2.036014 g / cm^3
# Si number density = 20.406591 Si / 1000 Ang^3
#
#
#
# Elastic Constant Matrix: (Units=GPa)
#
#
# Indices 1 2 3 4 5 6 
#
# 1 92.7886 43.0550 27.5416 0.5154 0.0000 0.0000
# 2 43.0550 92.7903 27.5405 -0.5142 0.0000 0.0000
# 3 27.5416 27.5405 122.3542 -0.0015 0.0000 0.0000
# 4 0.5154 -0.5142 -0.0015 13.5027 0.0000 0.0000
# 5 0.0000 0.0000 0.0000 0.0000 13.5055 0.5160
# 6 0.0000 0.0000 0.0000 0.0000 0.5160 24.8658
#
#
#
# Elastic Compliance Matrix: (Units=1/GPa)
#
#
# Indices 1 2 3 4 5 6 
#
# 1 0.014112 -0.006011 -0.001824 -0.000768 0.000000 0.000000
# 2 -0.006011 0.014112 -0.001823 0.000767 0.000000 0.000000
# 3 -0.001824 -0.001823 0.008994 0.000001 0.000000 0.000000
# 4 -0.000768 0.000767 0.000001 0.074118 0.000000 0.000000
# 5 0.000000 0.000000 0.000000 0.000000 0.074103 -0.001538
# 6 0.000000 0.000000 0.000000 0.000000 -0.001538 0.040248
#
#
# Mechanical properties :
#
#
# Convention : Reuss Voigt Hill
#
# Bulk Modulus (GPa) = 55.86079 56.02305 55.94192
# Shear Modulus (GPa) = 19.92281 24.36119 22.14200
#
# Velocity S-wave (km/s) = 3.12796 3.45888 3.29757
# Velocity P-wave (km/s) = 6.36230 6.59278 6.47856
#
# Compressibility (1/GPa) = 0.01790164
#
# Stress axis : x y z
#
# Youngs Moduli (GPa) = 70.86226 70.86416 111.18681
#
# Poissons Ratio (x) = 0.42596 0.20276
# Poissons Ratio (y) = 0.42595 0.20272
# Poissons Ratio (z) = 0.12922 0.12920
#
# Static dielectric constant tensor:
#      x y z
#    x 1.829490 0.000000 0.000000 
#    y 0.000000 1.829480 0.000000 
#    z 0.000000 0.000000 1.712300 
# 
# From -- ./inp_files/909.got.cif
#   From: 2010.05.17/outbox.cif.g08.bks.cpg/sg150_cif.got.tgz:909.got - 2010.05.20 13:53:18.
