data_PCOD9575879
_publ_section_title
;
Structure prediction by ZEFSAII (Michael W. Deem and Ramdas Pophale) SiO2 
 PCOD9575879
Probable space group: P 31 2 1
;
_chemical_formula_sum "Si O2"
_cell_formula_units_Z 45
_cell_length_a 11.195738
_cell_length_b 11.195738
_cell_length_c 17.770344
_cell_angle_alpha 90.000000
_cell_angle_beta 90.000000
_cell_angle_gamma 120.000000
_cell_volume 1928.998634
_symmetry_space_group_name_H-M "P 31 2 1"
_symmetry_group_IT_number 152
_symmetry_cell_setting 'hexagonal'
loop_
_space_group_symop_operation_xyz
x,y,z
-y,x-y,1/3+z
-x+y,-x,2/3+z
x-y,-y,2/3-z
-x,-x+y,1/3-z
y,x,-z
loop_
_atom_site_type_symbol
_atom_site_label
_atom_site_fract_x
_atom_site_fract_y
_atom_site_fract_z
Si Si1 0.243674 0.469584 0.700064
Si Si2 0.479035 0.969335 0.450930
Si Si3 0.840816 0.840816 0.500000
Si Si4 0.515738 0.603528 0.288790
Si Si5 0.236587 0.489917 0.377582
Si Si6 0.810068 0.879519 0.082721
Si Si7 0.596918 0.780130 0.869434
Si Si8 0.796935 0.125115 0.288250
O O1 0.103031 0.467000 0.719861
O O2 0.356692 0.620133 0.723689
O O3 0.213115 0.335310 0.746613
O O4 0.264040 0.437050 0.614289
O O5 0.415734 0.906415 0.532588
O O6 0.599956 0.946815 0.422875
O O7 0.508534 0.123779 0.459146
O O8 0.808691 0.719808 0.557455
O O9 0.974761 0.886843 0.449590
O O10 0.361710 0.507393 0.324292
O O11 0.646909 0.577403 0.306753
O O12 0.571745 0.756497 0.321052
O O13 0.251495 0.425144 0.455448
O O14 0.801713 0.751134 0.128852
O O15 0.853177 0.853177 0.000000
O O16 0.797144 0.000000 0.333334
#
# Coordination Sequence:
#
# PCOD9575879 Si02
#       8
#     6   6   3   6   6   6   6   6
#     4  10  20  39  72  99 130 180 243 298 356 427
#     4  10  22  42  73  99 136 181 246 301 358 439
#     4  12  28  42  74 106 150 194 232 314 380 444
#     4  11  28  47  69 108 146 193 243 310 380 454
#     4  11  25  43  70 103 146 189 236 305 374 457
#     4   9  21  45  66 100 138 186 245 293 352 446
#     4   9  21  42  69  99 134 186 245 299 358 445
#     4  12  28  47  75 109 146 192 249 310 373 449
#
# _framework density 23.328164000000001
#
# number of rings (size 3 to 8) (size 9 to 14) (size 15 to 20)
#    0.000    1.600    1.333    2.400   13.067    0.000 
#    4.800    0.000    0.000    0.000    0.000    0.000 
#    0.000    0.000    0.000    0.000    0.000    0.000 
#
# Total GULP energy -250950.263240 kJ/mol
# GULP energy per Si atom -5576.672516 kJ/mol
# Density = 2.327507 g / cm^3
# Si number density = 23.328164 Si / 1000 Ang^3
#
#
#
# Elastic Constant Matrix: (Units=GPa)
#
#
# Indices 1 2 3 4 5 6 
#
# 1 55.4621 5.2001 19.5118 -4.4337 0.0000 0.0000
# 2 5.2001 55.4621 19.5118 4.4337 0.0000 0.0000
# 3 19.5118 19.5118 85.1689 0.0000 0.0000 0.0000
# 4 -4.4337 4.4337 0.0000 28.1163 0.0000 0.0000
# 5 0.0000 0.0000 0.0000 0.0000 28.1163 -4.4337
# 6 0.0000 0.0000 0.0000 0.0000 -4.4337 25.1310
#
#
#
# Elastic Compliance Matrix: (Units=1/GPa)
#
#
# Indices 1 2 3 4 5 6 
#
# 1 0.019900 -0.000565 -0.004429 0.003227 0.000000 0.000000
# 2 -0.000565 0.019900 -0.004429 -0.003227 0.000000 0.000000
# 3 -0.004429 -0.004429 0.013771 0.000000 0.000000 0.000000
# 4 0.003227 -0.003227 0.000000 0.036584 0.000000 0.000000
# 5 0.000000 0.000000 0.000000 0.000000 0.036584 0.006454
# 6 0.000000 0.000000 0.000000 0.000000 0.006454 0.040930
#
#
# Mechanical properties :
#
#
# Convention : Reuss Voigt Hill
#
# Bulk Modulus (GPa) = 28.80049 31.61563 30.20806
# Shear Modulus (GPa) = 25.24088 26.39734 25.81911
#
# Velocity S-wave (km/s) = 3.29293 3.36752 3.33044
# Velocity P-wave (km/s) = 5.17981 5.35745 5.26938
#
# Compressibility (1/GPa) = 0.03472163
#
# Stress axis : x y z
#
# Youngs Moduli (GPa) = 50.25226 50.25226 72.61702
#
# Poissons Ratio (x) = 0.02842 0.32165
# Poissons Ratio (y) = 0.02842 0.32165
# Poissons Ratio (z) = 0.22259 0.22259
#
# Static dielectric constant tensor:
#      x y z
#    x 1.973210 0.000000 0.000000 
#    y 0.000000 1.973210 0.000000 
#    z 0.000000 0.000000 1.914160 
# 
# From -- ./inp_files/2510.got.cif
#   From: 2010.05.17/outbox.cif.g08.bks.cpg/sg152_2_cif.got.tgz:2510.got - 2010.05.20 10:36:06.
