data_PCOD9575343
_publ_section_title
;
Structure prediction by ZEFSAII (Michael W. Deem and Ramdas Pophale) SiO2 
 PCOD9575343
Probable space group: P 3 1 2
;
_chemical_formula_sum "Si O2"
_cell_formula_units_Z 36
_cell_length_a 17.241918
_cell_length_b 17.241918
_cell_length_c 10.582242
_cell_angle_alpha 90.000000
_cell_angle_beta 90.000000
_cell_angle_gamma 120.000000
_cell_volume 2724.453948
_symmetry_space_group_name_H-M "P 3 1 2"
_symmetry_group_IT_number 149
_symmetry_cell_setting 'hexagonal'
loop_
_space_group_symop_operation_xyz
x,y,z
-y,x-y,z
-x+y,-x,z
-y,-x,-z
-x+y,y,-z
x,x-y,-z
loop_
_atom_site_type_symbol
_atom_site_label
_atom_site_fract_x
_atom_site_fract_y
_atom_site_fract_z
Si Si1 0.817434 0.817026 0.849413
Si Si2 0.627518 0.907750 0.247864
Si Si3 0.627518 0.907750 0.752136
Si Si4 0.147606 0.665174 1.000000
Si Si5 0.182974 0.000408 0.150587
Si Si6 0.519952 0.665890 0.500000
O O1 0.730468 0.747076 0.771439
O O2 0.906495 0.812990 0.822555
O O3 0.833631 0.916816 0.825855
O O4 0.797201 0.800180 0.000000
O O5 0.629913 0.814956 0.246061
O O6 0.570870 0.903474 0.125354
O O7 0.577028 0.904567 0.375877
O O8 0.577028 0.904567 0.624123
O O9 0.730467 0.983391 0.771439
O O10 0.570870 0.903474 0.874646
O O11 0.243893 0.756108 0.000000
O O12 0.160823 0.580412 0.000000
O O13 0.423805 0.576196 0.500000
O O14 0.507808 0.753904 0.500000
#
# Coordination Sequence:
#
# PCOD9575343 Si02
#       6
#     6   6   6   6   6   6
#     4   9  15  25  42  63  85 111 142 172 202 243
#     4   9  17  28  40  57  82 108 138 175 212 241
#     4   9  17  28  40  57  82 108 138 175 212 241
#     4  10  17  26  39  56  78 106 140 176 209 244
#     4   9  15  25  42  63  85 111 142 172 202 243
#     4  10  19  30  43  58  80 114 150 178 203 240
#
# _framework density 13.213657
#
# number of rings (size 3 to 8) (size 9 to 14) (size 15 to 20)
#    0.000    2.667    1.667    1.667    0.000    1.333 
#    0.000    4.167    0.000    0.000    0.000    2.333 
#    0.000    0.000    0.000   20.000    0.000    0.000 
#
# Total GULP energy -200456.270107 kJ/mol
# GULP energy per Si atom -5568.229725 kJ/mol
# Density = 1.318358 g / cm^3
# Si number density = 13.213657 Si / 1000 Ang^3
#
#
#
# Elastic Constant Matrix: (Units=GPa)
#
#
# Indices 1 2 3 4 5 6 
#
# 1 79.8551 38.8780 48.7289 0.0000 0.0000 0.0000
# 2 38.8780 79.8551 48.7289 0.0000 0.0000 0.0000
# 3 48.7289 48.7289 109.0995 0.0000 0.0000 0.0000
# 4 0.0000 0.0000 0.0000 14.3729 0.0000 0.0000
# 5 0.0000 0.0000 0.0000 0.0000 14.3729 0.0000
# 6 0.0000 0.0000 0.0000 0.0000 0.0000 20.4886
#
#
#
# Elastic Compliance Matrix: (Units=1/GPa)
#
#
# Indices 1 2 3 4 5 6 
#
# 1 0.018851 -0.005553 -0.005939 0.000000 0.000000 0.000000
# 2 -0.005553 0.018851 -0.005939 0.000000 0.000000 0.000000
# 3 -0.005939 -0.005939 0.014471 0.000000 0.000000 0.000000
# 4 0.000000 0.000000 0.000000 0.069576 0.000000 0.000000
# 5 0.000000 0.000000 0.000000 0.000000 0.069576 0.000000
# 6 0.000000 0.000000 0.000000 0.000000 0.000000 0.048808
#
#
# Mechanical properties :
#
#
# Convention : Reuss Voigt Hill
#
# Bulk Modulus (GPa) = 57.77294 60.16460 58.96877
# Shear Modulus (GPa) = 17.80854 18.67846 18.24350
#
# Velocity S-wave (km/s) = 3.67514 3.76383 3.71975
# Velocity P-wave (km/s) = 7.86295 8.03240 7.94813
#
# Compressibility (1/GPa) = 0.01730914
#
# Stress axis : x y z
#
# Youngs Moduli (GPa) = 53.04897 53.04897 69.10210
#
# Poissons Ratio (x) = 0.29460 0.41041
# Poissons Ratio (y) = 0.29460 0.41041
# Poissons Ratio (z) = 0.31507 0.31507
#
# Static dielectric constant tensor:
#      x y z
#    x 1.415040 0.000000 0.000000 
#    y 0.000000 1.415040 0.000000 
#    z 0.000000 0.000000 1.446180 
# 
# From -- ./inp_files/644.got.cif
#   From: 2010.05.17/outbox.cif.g08.bks.cpg/sg149_cif.got.tgz:644.got - 2010.05.20 13:52:34.
