data_PCOD9575451
_publ_section_title
;
Structure prediction by ZEFSAII (Michael W. Deem and Ramdas Pophale) SiO2 
 PCOD9575451
Probable space group: P 3 2 1
;
_chemical_formula_sum "Si O2"
_cell_formula_units_Z 40
_cell_length_a 11.400974
_cell_length_b 11.400974
_cell_length_c 17.837877
_cell_angle_alpha 90.000000
_cell_angle_beta 90.000000
_cell_angle_gamma 120.000000
_cell_volume 2007.972253
_symmetry_space_group_name_H-M "P 3 2 1"
_symmetry_group_IT_number 150
_symmetry_cell_setting 'hexagonal'
loop_
_space_group_symop_operation_xyz
x,y,z
-y,x-y,z
-x+y,-x,z
x-y,-y,-z
-x,-x+y,-z
y,x,-z
loop_
_atom_site_type_symbol
_atom_site_label
_atom_site_fract_x
_atom_site_fract_y
_atom_site_fract_z
Si Si1 0.552222 0.583938 0.421000
Si Si2 0.666668 0.333335 0.590921
Si Si3 0.906728 0.362762 0.864093
Si Si4 0.301795 0.367456 0.078564
Si Si5 0.333335 0.666668 0.232854
Si Si6 0.726701 0.982268 0.762221
Si Si7 0.267858 0.987045 0.270844
Si Si8 0.536915 0.374280 0.324042
O O1 0.629198 0.629198 0.500000
O O2 0.422999 0.601383 0.431623
O O3 0.634096 0.663794 0.346512
O O4 0.509144 0.428295 0.401344
O O5 0.666668 0.333334 0.680140
O O6 0.949092 0.498282 0.910838
O O7 0.814230 0.224738 0.911580
O O8 0.807941 0.367590 0.801541
O O9 0.010382 0.348443 0.808865
O O10 0.279528 0.268364 0.148023
O O11 0.300551 0.300551 0.000000
O O12 0.761326 0.872426 0.728517
O O13 0.576968 0.941061 0.731988
O O14 0.843161 0.130429 0.738170
O O15 0.529948 0.229667 0.315816
#
# Coordination Sequence:
#
# PCOD9575451 Si02
#       8
#     6   2   6   6   2   6   6   6
#     4  12  26  40  65  96 131 166 217 280 334 383
#     4  12  24  39  69  96 123 175 224 259 333 408
#     4   9  19  36  61  84 124 165 210 266 306 398
#     4  10  22  38  60  95 130 166 217 274 342 387
#     4   9  15  33  60  87 102 151 218 247 288 363
#     4  11  23  40  68  91 127 175 219 266 324 404
#     4  11  21  42  62  93 123 171 224 264 320 403
#     4  10  22  42  63  91 131 164 210 272 324 390
#
# _framework density 19.920591999999999
#
# number of rings (size 3 to 8) (size 9 to 14) (size 15 to 20)
#    0.300    1.200    3.000    2.400    4.200    1.200 
#    0.000    3.000    0.000    0.000    0.000    0.000 
#    0.000    0.000    0.000    0.000    0.000    0.000 
#
# Total GULP energy -222762.600185 kJ/mol
# GULP energy per Si atom -5569.065005 kJ/mol
# Density = 1.987525 g / cm^3
# Si number density = 19.920592 Si / 1000 Ang^3
#
#
#
# Elastic Constant Matrix: (Units=GPa)
#
#
# Indices 1 2 3 4 5 6 
#
# 1 70.1266 25.4395 32.9340 8.2299 0.0000 0.0000
# 2 25.4395 70.1289 32.9335 -8.2271 0.0000 0.0000
# 3 32.9340 32.9335 138.8078 0.0003 0.0000 0.0000
# 4 8.2299 -8.2271 0.0003 -17.2243 0.0000 0.0000
# 5 0.0000 0.0000 0.0000 0.0000 -17.2373 8.2336
# 6 0.0000 0.0000 0.0000 0.0000 8.2336 22.3428
#
#
#
# Elastic Compliance Matrix: (Units=1/GPa)
#
#
# Indices 1 2 3 4 5 6 
#
# 1 0.015769 -0.003260 -0.002968 0.009092 0.000000 0.000000
# 2 -0.003260 0.015769 -0.002968 -0.009090 0.000000 0.000000
# 3 -0.002968 -0.002968 0.008613 0.000000 0.000000 0.000000
# 4 0.009092 -0.009090 0.000000 -0.049372 0.000000 0.000000
# 5 0.000000 0.000000 0.000000 0.000000 -0.049330 0.018179
# 6 0.000000 0.000000 0.000000 0.000000 0.018179 0.038058
#
#
# Mechanical properties :
#
#
# Convention : Reuss Voigt Hill
#
# Bulk Modulus (GPa) = 45.95697 51.29746 48.62721
# Shear Modulus (GPa) = 970.38922 10.09334 490.24128
#
# Velocity S-wave (km/s) = 22.09494 2.25339 15.70452
# Velocity P-wave (km/s) = 25.96219 5.70765 18.79644
#
# Compressibility (1/GPa) = 0.02175949
#
# Stress axis : x y z
#
# Youngs Moduli (GPa) = 63.41383 63.41381 116.10902
#
# Poissons Ratio (x) = 0.20673 0.34462
# Poissons Ratio (y) = 0.20673 0.34461
# Poissons Ratio (z) = 0.18822 0.18821
#
# Static dielectric constant tensor:
#      x y z
#    x 1.783310 0.000000 0.000000 
#    y 0.000000 1.783300 0.000000 
#    z 0.000000 0.000000 1.715340 
# 
# From -- ./inp_files/1118.got.cif
#   From: 2010.05.17/outbox.cif.g08.bks.cpg/sg150_cif.got.tgz:1118.got - 2010.05.20 13:53:18.
