data_PCOD9575495
_publ_section_title
;
Structure prediction by ZEFSAII (Michael W. Deem and Ramdas Pophale) SiO2 
 PCOD9575495
Probable space group: P 31 1 2
;
_chemical_formula_sum "Si O2"
_cell_formula_units_Z 36
_cell_length_a 11.708722
_cell_length_b 11.708722
_cell_length_c 15.710114
_cell_angle_alpha 90.000000
_cell_angle_beta 90.000000
_cell_angle_gamma 120.000000
_cell_volume 1865.215250
_symmetry_space_group_name_H-M "P 31 1 2"
_symmetry_group_IT_number 151
_symmetry_cell_setting 'hexagonal'
loop_
_space_group_symop_operation_xyz
x,y,z
-y,x-y,1/3+z
-x+y,-x,2/3+z
-y,-x,2/3-z
-x+y,y,1/3-z
x,x-y,-z
loop_
_atom_site_type_symbol
_atom_site_label
_atom_site_fract_x
_atom_site_fract_y
_atom_site_fract_z
Si Si1 0.804938 0.454070 0.852456
Si Si2 0.888048 0.776096 0.166667
Si Si3 0.525808 0.762904 0.000000
Si Si4 0.047899 0.236490 0.549054
Si Si5 0.366830 0.175546 0.335805
Si Si6 0.644367 0.574840 0.771267
Si Si7 0.506357 0.991353 0.938964
O O1 0.701424 0.298577 0.833334
O O2 0.740571 0.518014 0.791378
O O3 0.950898 0.498281 0.819270
O O4 0.806943 0.516884 0.945323
O O5 0.836064 0.869644 0.129842
O O6 0.892898 0.688386 0.088390
O O7 0.624889 0.766763 0.928166
O O8 0.457166 0.838095 0.957017
O O9 0.915335 0.160850 0.605806
O O10 0.004636 0.278212 0.464001
O O11 0.415704 0.076320 0.368218
O O12 0.517362 0.482639 0.833334
O O13 0.597594 0.560698 0.675870
#
# Coordination Sequence:
#
# PCOD9575495 Si02
#       7
#     6   3   3   6   6   6   6
#     4  10  20  33  54  87 120 146 185 248 323 364
#     4  12  20  36  60  86 124 160 202 242 300 366
#     4  10  18  34  56  78 106 156 212 236 280 366
#     4  10  19  35  57  83 113 154 208 243 286 368
#     4  10  21  36  54  85 117 160 195 243 306 367
#     4  10  17  34  58  84 113 147 199 255 302 355
#     4  11  19  34  56  83 116 155 197 250 295 359
#
# _framework density 19.300722
#
# number of rings (size 3 to 8) (size 9 to 14) (size 15 to 20)
#    0.000    1.667   10.000    0.500    1.167    0.000 
#    0.000    6.667    0.000    4.000    0.000    0.000 
#    0.000    0.000    0.000    0.000    0.000    0.000 
#
# Total GULP energy -200459.321118 kJ/mol
# GULP energy per Si atom -5568.314476 kJ/mol
# Density = 1.925679 g / cm^3
# Si number density = 19.300722 Si / 1000 Ang^3
#
#
#
# Elastic Constant Matrix: (Units=GPa)
#
#
# Indices 1 2 3 4 5 6 
#
# 1 55.8527 22.8727 26.1645 0.0001 -5.5231 0.0000
# 2 22.8727 55.8527 26.1645 -0.0001 5.5231 0.0000
# 3 26.1645 26.1645 71.7128 0.0000 0.0000 0.0000
# 4 0.0001 -0.0001 0.0000 24.0313 0.0000 5.5231
# 5 -5.5231 5.5231 0.0000 0.0000 24.0313 0.0001
# 6 0.0000 0.0000 0.0000 5.5231 0.0001 16.4900
#
#
#
# Elastic Compliance Matrix: (Units=1/GPa)
#
#
# Indices 1 2 3 4 5 6 
#
# 1 0.024810 -0.008040 -0.006118 0.000000 0.007550 0.000000
# 2 -0.008040 0.024810 -0.006118 0.000000 -0.007550 0.000000
# 3 -0.006118 -0.006118 0.018409 0.000000 0.000000 0.000000
# 4 0.000000 0.000000 0.000000 0.045083 0.000000 -0.015100
# 5 0.007550 -0.007550 0.000000 0.000000 0.045083 0.000000
# 6 0.000000 0.000000 0.000000 -0.015100 0.000000 0.065700
#
#
# Mechanical properties :
#
#
# Convention : Reuss Voigt Hill
#
# Bulk Modulus (GPa) = 36.39757 37.09132 36.74444
# Shear Modulus (GPa) = 18.27442 20.12495 19.19968
#
# Velocity S-wave (km/s) = 3.08039 3.23260 3.15741
# Velocity P-wave (km/s) = 5.61701 5.76127 5.68960
#
# Compressibility (1/GPa) = 0.02747436
#
# Stress axis : x y z
#
# Youngs Moduli (GPa) = 40.30686 40.30686 54.32111
#
# Poissons Ratio (x) = 0.32409 0.33235
# Poissons Ratio (y) = 0.32409 0.33235
# Poissons Ratio (z) = 0.24661 0.24661
#
# Static dielectric constant tensor:
#      x y z
#    x 1.723640 0.000000 0.000000 
#    y 0.000000 1.723640 0.000000 
#    z 0.000000 0.000000 3.312100 
# 
# From -- ./inp_files/3459.got.cif
#   From: 2010.05.17/outbox.cif.g08.bks.cpg/sg151_2_cif.got.tgz:3459.got - 2010.05.20 10:33:20.
