data_PCOD9575447
_publ_section_title
;
Structure prediction by ZEFSAII (Michael W. Deem and Ramdas Pophale) SiO2 
 PCOD9575447
Probable space group: P 3 2 1
;
_chemical_formula_sum "Si O2"
_cell_formula_units_Z 24
_cell_length_a 13.451134
_cell_length_b 13.451134
_cell_length_c 7.362083
_cell_angle_alpha 90.000000
_cell_angle_beta 90.000000
_cell_angle_gamma 120.000000
_cell_volume 1153.583776
_symmetry_space_group_name_H-M "P 3 2 1"
_symmetry_group_IT_number 150
_symmetry_cell_setting 'hexagonal'
loop_
_space_group_symop_operation_xyz
x,y,z
-y,x-y,z
-x+y,-x,z
x-y,-y,-z
-x,-x+y,-z
y,x,-z
loop_
_atom_site_type_symbol
_atom_site_label
_atom_site_fract_x
_atom_site_fract_y
_atom_site_fract_z
Si Si1 0.819433 0.253242 0.769094
Si Si2 0.879815 0.128518 0.475291
Si Si3 0.240762 0.341375 0.884528
Si Si4 0.061271 0.575134 0.308228
O O1 0.884876 0.209334 0.638370
O O2 0.895450 0.389624 0.778157
O O3 0.694096 0.183317 0.671695
O O4 0.787374 0.198849 0.969300
O O5 0.849018 0.155297 0.278410
O O6 0.000000 0.134542 0.500000
O O7 0.776451 0.000000 0.500000
O O8 0.235487 0.235487 0.000000
O O9 0.401119 0.371681 0.195825
O O10 0.000000 0.525494 0.500000
#
# Coordination Sequence:
#
# PCOD9575447 Si02
#       4
#     6   6   6   6
#     4  11  23  44  70 103 141 189 238 283 368 426
#     4  12  23  45  70 105 140 180 230 288 358 420
#     4  10  21  46  69  95 148 179 227 299 351 414
#     4  11  21  45  74 103 146 189 239 308 354 434
#
# _framework density 20.804728999999998
#
# number of rings (size 3 to 8) (size 9 to 14) (size 15 to 20)
#    0.000    1.000    7.500    1.500    0.000    1.000 
#   27.000    0.000    0.000    0.000    0.000    0.000 
#    0.000    0.000    0.000    0.000    0.000    0.000 
#
# Total GULP energy -133624.078848 kJ/mol
# GULP energy per Si atom -5567.669952 kJ/mol
# Density = 2.075738 g / cm^3
# Si number density = 20.804729 Si / 1000 Ang^3
#
#
#
# Elastic Constant Matrix: (Units=GPa)
#
#
# Indices 1 2 3 4 5 6 
#
# 1 119.6241 27.1314 58.7636 -4.2273 0.0000 0.0000
# 2 27.1314 119.6241 58.7636 4.2273 0.0000 0.0000
# 3 58.7636 58.7636 111.7607 0.0000 0.0000 0.0000
# 4 -4.2273 4.2273 0.0000 42.9870 0.0000 0.0000
# 5 0.0000 0.0000 0.0000 0.0000 42.9870 -4.2273
# 6 0.0000 0.0000 0.0000 0.0000 -4.2273 46.2464
#
#
#
# Elastic Compliance Matrix: (Units=1/GPa)
#
#
# Indices 1 2 3 4 5 6 
#
# 1 0.011340 0.000430 -0.006189 0.001073 0.000000 0.000000
# 2 0.000430 0.011340 -0.006189 -0.001073 0.000000 0.000000
# 3 -0.006189 -0.006189 0.015456 0.000000 0.000000 0.000000
# 4 0.001073 -0.001073 0.000000 0.023474 0.000000 0.000000
# 5 0.000000 0.000000 0.000000 0.000000 0.023474 0.002146
# 6 0.000000 0.000000 0.000000 0.000000 0.002146 0.021819
#
#
# Mechanical properties :
#
#
# Convention : Reuss Voigt Hill
#
# Bulk Modulus (GPa) = 70.21890 71.14735 70.68313
# Shear Modulus (GPa) = 36.88821 40.20077 38.54449
#
# Velocity S-wave (km/s) = 4.21535 4.40055 4.30895
# Velocity P-wave (km/s) = 7.58399 7.75188 7.66840
#
# Compressibility (1/GPa) = 0.01424118
#
# Stress axis : x y z
#
# Youngs Moduli (GPa) = 88.18338 88.18338 64.70057
#
# Poissons Ratio (x) = -0.03794 0.40042
# Poissons Ratio (y) = -0.03794 0.40042
# Poissons Ratio (z) = 0.54575 0.54575
#
# Static dielectric constant tensor:
#      x y z
#    x 1.748670 0.000000 0.000000 
#    y 0.000000 1.748670 0.000000 
#    z 0.000000 0.000000 2.007580 
# 
# From -- ./inp_files/126.got.cif
#   From: 2010.05.17/outbox.cif.g08.bks.cpg/sg150_cif.got.tgz:126.got - 2010.05.20 13:53:18.
