data_PCOD9575203
_publ_section_title
;
Structure prediction by ZEFSAII (Michael W. Deem and Ramdas Pophale) SiO2 
 PCOD9575203
Probable space group: R -3
;
_chemical_formula_sum "Si O2"
_cell_formula_units_Z 108
_cell_length_a 20.578704
_cell_length_b 20.578704
_cell_length_c 13.040588
_cell_angle_alpha 90.000000
_cell_angle_beta 90.000000
_cell_angle_gamma 120.000000
_cell_volume 4782.597656
_symmetry_space_group_name_H-M "R -3"
_symmetry_group_IT_number 148
_symmetry_cell_setting 'hexagonal'
loop_
_space_group_symop_operation_xyz
x,y,z
-y,x-y,z
-x+y,-x,z
-x,-y,-z
y,-x+y,-z
x-y,x,-z
2/3+x,1/3+y,1/3+z
2/3-y,1/3+x-y,1/3+z
2/3-x+y,1/3-x,1/3+z
2/3-x,1/3-y,1/3-z
2/3+y,1/3-x+y,1/3-z
2/3+x-y,1/3+x,1/3-z
1/3+x,2/3+y,2/3+z
1/3-y,2/3+x-y,2/3+z
1/3-x+y,2/3-x,2/3+z
1/3-x,2/3-y,2/3-z
1/3+y,2/3-x+y,2/3-z
1/3+x-y,2/3+x,2/3-z
loop_
_atom_site_type_symbol
_atom_site_label
_atom_site_fract_x
_atom_site_fract_y
_atom_site_fract_z
Si Si1 0.524316 0.686866 0.909146
Si Si2 0.519341 0.416587 0.432106
Si Si3 0.454175 0.869055 0.787823
Si Si4 0.741081 0.643555 0.835373
Si Si5 0.682115 0.021006 0.019352
Si Si6 0.701156 0.480518 0.789286
O O1 0.573301 0.770004 0.861224
O O2 0.462463 0.629051 0.831031
O O3 0.581781 0.656469 0.927211
O O4 0.482137 0.677453 0.017183
O O5 0.568978 0.453939 0.332266
O O6 0.516700 0.340100 0.464948
O O7 0.435330 0.389774 0.389422
O O8 0.512156 0.948177 0.842143
O O9 0.708467 0.643433 0.947021
O O10 0.677779 0.644928 0.762683
O O11 0.742493 0.568549 0.814441
O O12 0.763976 0.456674 0.791030
#
# Coordination Sequence:
#
# PCOD9575203 Si02
#       6
#    18  18  18  18  18  18
#     4  11  25  43  71 101 138 185 235 295 357 422
#     4  11  23  44  68 105 138 184 230 295 356 432
#     4  11  24  43  69 101 143 177 234 295 361 433
#     4  10  25  40  72 101 138 179 229 298 359 424
#     4  10  23  42  68 103 137 176 233 290 364 422
#     4  11  28  47  67  96 137 190 243 288 350 434
#
# _framework density 22.581869999999999
#
# number of rings (size 3 to 8) (size 9 to 14) (size 15 to 20)
#    0.000    1.333    1.667    1.667   14.000    2.667 
#    1.000    0.833    0.000    0.000    0.000    0.000 
#    0.000    0.000    0.000    0.000    0.000    0.000 
#
# Total GULP energy -200887.493700 kJ/mol
# GULP energy per Si atom -5580.208158 kJ/mol
# Density = 2.253047 g / cm^3
# Si number density = 22.581870 Si / 1000 Ang^3
#
#
#
# Elastic Constant Matrix: (Units=GPa)
#
#
# Indices 1 2 3 4 5 6 
#
# 1 57.5257 26.5136 17.7402 5.4352 2.6278 0.0000
# 2 26.5136 57.5257 17.7402 -5.4352 -2.6278 0.0000
# 3 17.7402 17.7402 45.7489 0.0000 0.0000 0.0000
# 4 5.4352 -5.4352 0.0000 20.7618 0.0000 -2.6278
# 5 2.6278 -2.6278 0.0000 0.0000 20.7618 5.4352
# 6 0.0000 0.0000 0.0000 -2.6278 5.4352 15.5061
#
#
#
# Elastic Compliance Matrix: (Units=1/GPa)
#
#
# Indices 1 2 3 4 5 6 
#
# 1 0.025295 -0.011067 -0.005517 -0.009519 -0.004602 0.000000
# 2 -0.011067 0.025295 -0.005517 0.009519 0.004602 0.000000
# 3 -0.005517 -0.005517 0.026138 0.000000 0.000000 0.000000
# 4 -0.009519 0.009519 0.000000 0.054315 0.000000 0.009205
# 5 -0.004602 0.004602 0.000000 0.000000 0.054315 -0.019038
# 6 0.000000 0.000000 0.000000 0.009205 -0.019038 0.072724
#
#
# Mechanical properties :
#
#
# Convention : Reuss Voigt Hill
#
# Bulk Modulus (GPa) = 30.74577 31.64317 31.19447
# Shear Modulus (GPa) = 15.96799 17.99301 16.98050
#
# Velocity S-wave (km/s) = 2.66205 2.82581 2.74515
# Velocity P-wave (km/s) = 4.80557 4.96890 4.88792
#
# Compressibility (1/GPa) = 0.03252480
#
# Stress axis : x y z
#
# Youngs Moduli (GPa) = 39.53296 39.53296 38.25919
#
# Poissons Ratio (x) = 0.43750 0.21109
# Poissons Ratio (y) = 0.43750 0.21109
# Poissons Ratio (z) = 0.21812 0.21812
#
# Static dielectric constant tensor:
#      x y z
#    x 1.830550 0.000000 0.000000 
#    y 0.000000 1.830550 0.000000 
#    z 0.000000 0.000000 1.904910 
# 
# From -- ./inp_files/2071.got.cif
#   From: 2010.05.17/outbox.cif.g08.bks.cpg/sg148_2_cif.got.tgz:2071.got - 2010.05.20 13:50:20.
