data_PCOD9575112
_publ_section_title
;
Structure prediction by ZEFSAII (Michael W. Deem and Ramdas Pophale) SiO2 
 PCOD9575112
Probable space group: R -3
;
_chemical_formula_sum "Si O2"
_cell_formula_units_Z 90
_cell_length_a 16.726583
_cell_length_b 16.726583
_cell_length_c 19.803104
_cell_angle_alpha 90.000000
_cell_angle_beta 90.000000
_cell_angle_gamma 120.000000
_cell_volume 4798.200148
_symmetry_space_group_name_H-M "R -3"
_symmetry_group_IT_number 148
_symmetry_cell_setting 'hexagonal'
loop_
_space_group_symop_operation_xyz
x,y,z
-y,x-y,z
-x+y,-x,z
-x,-y,-z
y,-x+y,-z
x-y,x,-z
2/3+x,1/3+y,1/3+z
2/3-y,1/3+x-y,1/3+z
2/3-x+y,1/3-x,1/3+z
2/3-x,1/3-y,1/3-z
2/3+y,1/3-x+y,1/3-z
2/3+x-y,1/3+x,1/3-z
1/3+x,2/3+y,2/3+z
1/3-y,2/3+x-y,2/3+z
1/3-x+y,2/3-x,2/3+z
1/3-x,2/3-y,2/3-z
1/3+y,2/3-x+y,2/3-z
1/3+x-y,2/3+x,2/3-z
loop_
_atom_site_type_symbol
_atom_site_label
_atom_site_fract_x
_atom_site_fract_y
_atom_site_fract_z
Si Si1 0.612860 0.716026 0.511423
Si Si2 0.357840 0.254678 0.886740
Si Si3 0.837380 0.319471 0.040884
Si Si4 0.001101 0.702134 0.015665
Si Si5 0.847966 0.502949 0.997948
O O1 0.692147 0.692297 0.492225
O O2 0.660523 0.826239 0.517100
O O3 0.540218 0.678808 0.450712
O O4 0.580214 0.673884 0.585817
O O5 0.288648 0.239011 0.949616
O O6 0.458291 0.302812 0.923488
O O7 0.854547 0.411655 0.002788
O O8 0.731137 0.242178 0.036443
O O9 0.898526 0.280735 0.005469
O O10 0.938136 0.591630 0.028690
#
# Coordination Sequence:
#
# PCOD9575112 Si02
#       5
#    18  18  18  18  18
#     4  11  20  37  60  83 112 152 193 227 286 333
#     4   9  22  32  56  85 111 146 187 231 274 339
#     4  11  21  36  59  82 116 155 181 240 276 342
#     4   9  19  37  55  81 117 146 192 231 273 329
#     4  10  21  36  53  84 119 147 187 230 288 327
#
# _framework density 18.757034000000001
#
# number of rings (size 3 to 8) (size 9 to 14) (size 15 to 20)
#    1.200    0.800    2.000    2.200    2.800    0.800 
#    0.000    2.000    0.000    1.600    0.000    1.400 
#    0.000    0.000    0.000    0.000    0.000    0.000 
#
# Total GULP energy -167101.554841 kJ/mol
# GULP energy per Si atom -5570.051828 kJ/mol
# Density = 1.871434 g / cm^3
# Si number density = 18.757034 Si / 1000 Ang^3
#
#
#
# Elastic Constant Matrix: (Units=GPa)
#
#
# Indices 1 2 3 4 5 6 
#
# 1 22.3125 -5.6265 3.2339 -7.2693 -6.2070 0.0000
# 2 -5.6265 22.3125 3.2339 7.2693 6.2070 0.0000
# 3 3.2339 3.2339 60.6893 0.0000 0.0000 0.0000
# 4 -7.2693 7.2693 0.0000 19.3015 0.0000 6.2070
# 5 -6.2070 6.2070 0.0000 0.0000 19.3015 -7.2693
# 6 0.0000 0.0000 0.0000 6.2070 -7.2693 13.9695
#
#
#
# Elastic Compliance Matrix: (Units=1/GPa)
#
#
# Indices 1 2 3 4 5 6 
#
# 1 0.057666 0.003528 -0.003261 0.020389 0.017410 0.000000
# 2 0.003528 0.057666 -0.003261 -0.020389 -0.017410 0.000000
# 3 -0.003261 -0.003261 0.016825 0.000000 0.000000 0.000000
# 4 0.020389 -0.020389 0.000000 0.078365 0.000000 -0.034820
# 5 0.017410 -0.017410 0.000000 0.000000 0.078365 0.040779
# 6 0.000000 0.000000 0.000000 -0.034820 0.040779 0.108276
#
#
# Mechanical properties :
#
#
# Convention : Reuss Voigt Hill
#
# Bulk Modulus (GPa) = 7.92580 11.88856 9.90718
# Shear Modulus (GPa) = 11.23076 17.47938 14.35507
#
# Velocity S-wave (km/s) = 2.44959 3.05599 2.76944
# Velocity P-wave (km/s) = 3.49790 4.33636 3.93950
#
# Compressibility (1/GPa) = 0.12617025
#
# Stress axis : x y z
#
# Youngs Moduli (GPa) = 17.34121 17.34121 59.43578
#
# Poissons Ratio (x) = -0.06118 0.19381
# Poissons Ratio (y) = -0.06118 0.19381
# Poissons Ratio (z) = 0.05655 0.05655
#
# Static dielectric constant tensor:
#      x y z
#    x 1.635500 0.000000 0.000000 
#    y 0.000000 1.635500 0.000000 
#    z 0.000000 0.000000 1.688560 
# 
# From -- ./inp_files/2670.got.cif
#   From: 2010.05.17/outbox.cif.g08.bks.cpg/sg148_2_cif.got.tgz:2670.got - 2010.05.20 13:50:20.
