data_PCOD9575581
_publ_section_title
;
Structure prediction by ZEFSAII (Michael W. Deem and Ramdas Pophale) SiO2 
 PCOD9575581
Probable space group: P 31 1 2
;
_chemical_formula_sum "Si O2"
_cell_formula_units_Z 42
_cell_length_a 11.593897
_cell_length_b 11.593897
_cell_length_c 19.663649
_cell_angle_alpha 90.000000
_cell_angle_beta 90.000000
_cell_angle_gamma 120.000000
_cell_volume 2289.041259
_symmetry_space_group_name_H-M "P 31 1 2"
_symmetry_group_IT_number 151
_symmetry_cell_setting 'hexagonal'
loop_
_space_group_symop_operation_xyz
x,y,z
-y,x-y,1/3+z
-x+y,-x,2/3+z
-y,-x,2/3-z
-x+y,y,1/3-z
x,x-y,-z
loop_
_atom_site_type_symbol
_atom_site_label
_atom_site_fract_x
_atom_site_fract_y
_atom_site_fract_z
Si Si1 0.337565 0.936795 0.830967
Si Si2 0.092461 0.674381 0.203713
Si Si3 0.674856 0.081227 0.644589
Si Si4 0.950261 0.643253 0.690050
Si Si5 0.182630 0.560831 0.578282
Si Si6 0.933319 0.364672 0.669178
Si Si7 0.171812 0.792229 0.064996
O O1 0.215047 0.784954 0.833334
O O2 0.480101 0.944209 0.834948
O O3 0.351037 0.016804 0.762635
O O4 0.320282 0.003755 0.898910
O O5 0.224852 0.708306 0.245165
O O6 0.133569 0.784023 0.144839
O O7 0.985111 0.651478 0.260332
O O8 0.547983 0.095965 0.666667
O O9 0.806041 0.227285 0.646983
O O10 0.666179 0.966910 0.694774
O O11 0.827227 0.654453 0.666667
O O12 0.908938 0.487934 0.683742
O O13 0.067870 0.743404 0.639775
O O14 0.145617 0.572809 0.500000
O O15 0.248268 0.712414 0.604944
O O16 0.055112 0.441846 0.615816
#
# Coordination Sequence:
#
# PCOD9575581 Si02
#       7
#     6   6   6   6   6   6   6
#     4  11  21  37  64  93 121 157 204 261 315 364
#     4  10  20  37  62  94 120 155 200 263 318 359
#     4  12  24  38  59  91 128 160 205 252 314 370
#     4  10  22  42  63  85 122 166 214 247 303 378
#     4   9  19  37  64  92 116 155 209 262 316 353
#     4  10  23  38  57  89 128 164 199 251 313 384
#     4  10  20  37  63  89 120 151 202 264 302 363
#
# _framework density 18.348292000000001
#
# number of rings (size 3 to 8) (size 9 to 14) (size 15 to 20)
#    0.000    1.714    2.857    2.143    0.000    4.000 
#    0.000    2.857    3.143    0.000    0.000    0.000 
#    0.000    0.000    0.000    0.000    0.000    0.000 
#
# Total GULP energy -233871.324150 kJ/mol
# GULP energy per Si atom -5568.364861 kJ/mol
# Density = 1.830653 g / cm^3
# Si number density = 18.348292 Si / 1000 Ang^3
#
#
#
# Elastic Constant Matrix: (Units=GPa)
#
#
# Indices 1 2 3 4 5 6 
#
# 1 59.1097 12.1337 22.3267 0.0424 28.5874 0.0000
# 2 12.1337 59.1097 22.3267 -0.0424 -28.5874 0.0000
# 3 22.3267 22.3267 83.1896 0.0000 0.0000 0.0000
# 4 0.0424 -0.0424 0.0000 287.7160 0.0000 -28.5874
# 5 28.5874 -28.5874 0.0000 0.0000 287.7159 0.0424
# 6 0.0000 0.0000 0.0000 -28.5874 0.0424 23.4880
#
#
#
# Elastic Compliance Matrix: (Units=1/GPa)
#
#
# Indices 1 2 3 4 5 6 
#
# 1 0.020545 -0.003670 -0.004529 -0.000004 -0.002406 0.000000
# 2 -0.003670 0.020545 -0.004529 0.000004 0.002406 0.000000
# 3 -0.004529 -0.004529 0.014452 0.000000 0.000000 0.000000
# 4 -0.000004 0.000004 0.000000 0.003954 0.000000 0.004812
# 5 -0.002406 0.002406 0.000000 0.000000 0.003954 -0.000007
# 6 0.000000 0.000000 0.000000 0.004812 -0.000007 0.048432
#
#
# Mechanical properties :
#
#
# Convention : Reuss Voigt Hill
#
# Bulk Modulus (GPa) = 33.23819 34.99814 34.11816
# Shear Modulus (GPa) = 33.92875 129.42544 81.67710
#
# Velocity S-wave (km/s) = 4.30484 8.40781 6.67918
# Velocity P-wave (km/s) = 6.54701 10.64757 8.83839
#
# Compressibility (1/GPa) = 0.03008588
#
# Stress axis : x y z
#
# Youngs Moduli (GPa) = 48.67250 48.67250 69.19581
#
# Poissons Ratio (x) = 0.17865 0.31339
# Poissons Ratio (y) = 0.17865 0.31339
# Poissons Ratio (z) = 0.22044 0.22044
#
# Static dielectric constant tensor:
#      x y z
#    x 0.459850 0.000000 0.000000 
#    y 0.000000 0.459850 0.000000 
#    z 0.000000 0.000000 1.743430 
# 
# From -- ./inp_files/3934.got.cif
#   From: 2010.05.17/outbox.cif.g08.bks.cpg/sg151_2_cif.got.tgz:3934.got - 2010.05.20 10:33:20.
