data_PCOD9575281
_publ_section_title
;
Structure prediction by ZEFSAII (Michael W. Deem and Ramdas Pophale) SiO2 
 PCOD9575281
Probable space group: R -3
;
_chemical_formula_sum "Si O2"
_cell_formula_units_Z 108
_cell_length_a 19.880974
_cell_length_b 19.880974
_cell_length_c 13.279845
_cell_angle_alpha 90.000000
_cell_angle_beta 90.000000
_cell_angle_gamma 120.000000
_cell_volume 4545.680971
_symmetry_space_group_name_H-M "R -3"
_symmetry_group_IT_number 148
_symmetry_cell_setting 'hexagonal'
loop_
_space_group_symop_operation_xyz
x,y,z
-y,x-y,z
-x+y,-x,z
-x,-y,-z
y,-x+y,-z
x-y,x,-z
2/3+x,1/3+y,1/3+z
2/3-y,1/3+x-y,1/3+z
2/3-x+y,1/3-x,1/3+z
2/3-x,1/3-y,1/3-z
2/3+y,1/3-x+y,1/3-z
2/3+x-y,1/3+x,1/3-z
1/3+x,2/3+y,2/3+z
1/3-y,2/3+x-y,2/3+z
1/3-x+y,2/3-x,2/3+z
1/3-x,2/3-y,2/3-z
1/3+y,2/3-x+y,2/3-z
1/3+x-y,2/3+x,2/3-z
loop_
_atom_site_type_symbol
_atom_site_label
_atom_site_fract_x
_atom_site_fract_y
_atom_site_fract_z
Si Si1 0.325190 0.463768 0.434373
Si Si2 0.298676 0.378303 0.234283
Si Si3 0.318282 0.075819 0.082416
Si Si4 0.754926 0.178814 0.443697
Si Si5 0.193575 0.508283 0.211055
Si Si6 0.374761 0.837913 0.425486
O O1 0.287372 0.420363 0.330625
O O2 0.387882 0.441062 0.474556
O O3 0.260447 0.436489 0.519796
O O4 0.374698 0.556900 0.423943
O O5 0.338151 0.330910 0.276328
O O6 0.222358 0.314866 0.174832
O O7 0.351267 0.448904 0.158206
O O8 0.403086 0.149781 0.076302
O O9 0.263620 0.087077 0.004853
O O10 0.676823 0.179038 0.475638
O O11 0.181387 0.578641 0.172246
O O12 0.199707 0.517128 0.330840
#
# Coordination Sequence:
#
# PCOD9575281 Si02
#       6
#    18  18  18  18  18  18
#     4  12  26  43  75  99 139 189 236 292 357 418
#     4  11  23  45  70 109 138 182 227 296 360 422
#     4  11  26  44  72 102 144 182 233 298 353 422
#     4  11  26  46  70 103 142 183 237 295 354 430
#     4  12  25  44  72 104 144 186 232 288 359 430
#     4  11  25  46  65 104 140 181 235 292 355 430
#
# _framework density 23.758814999999998
#
# number of rings (size 3 to 8) (size 9 to 14) (size 15 to 20)
#    0.000    0.667    3.333    4.167    9.333    0.000 
#    1.000    0.000    0.000    1.000    0.000    0.000 
#    0.000    0.000    0.000    0.000    0.000    0.000 
#
# Total GULP energy -201603.891686 kJ/mol
# GULP energy per Si atom -5600.108102 kJ/mol
# Density = 2.370474 g / cm^3
# Si number density = 23.758815 Si / 1000 Ang^3
#
#
#
# Elastic Constant Matrix: (Units=GPa)
#
#
# Indices 1 2 3 4 5 6 
#
# 1 72.3898 21.6253 4.2133 -6.3008 -1.3440 0.0000
# 2 21.6253 72.3898 4.2133 6.3008 1.3440 0.0000
# 3 4.2133 4.2133 34.5831 0.0000 0.0000 0.0000
# 4 -6.3008 6.3008 0.0000 27.7467 0.0000 1.3440
# 5 -1.3440 1.3440 0.0000 0.0000 27.7467 -6.3008
# 6 0.0000 0.0000 0.0000 1.3440 -6.3008 25.3823
#
#
#
# Elastic Compliance Matrix: (Units=1/GPa)
#
#
# Indices 1 2 3 4 5 6 
#
# 1 0.015843 -0.005089 -0.001310 0.004753 0.001014 0.000000
# 2 -0.005089 0.015843 -0.001310 -0.004753 -0.001014 0.000000
# 3 -0.001310 -0.001310 0.029235 0.000000 0.000000 0.000000
# 4 0.004753 -0.004753 0.000000 0.038297 0.000000 -0.002028
# 5 0.001014 -0.001014 0.000000 0.000000 0.038297 0.009507
# 6 0.000000 0.000000 0.000000 -0.002028 0.009507 0.041865
#
#
# Mechanical properties :
#
#
# Convention : Reuss Voigt Hill
#
# Bulk Modulus (GPa) = 21.97684 26.60739 24.29211
# Shear Modulus (GPa) = 23.81318 26.12918 24.97118
#
# Velocity S-wave (km/s) = 3.16933 3.31987 3.24547
# Velocity P-wave (km/s) = 4.76056 5.09104 4.92857
#
# Compressibility (1/GPa) = 0.04550246
#
# Stress axis : x y z
#
# Youngs Moduli (GPa) = 63.11844 63.11844 34.20545
#
# Poissons Ratio (x) = 0.32122 0.04482
# Poissons Ratio (y) = 0.32122 0.04482
# Poissons Ratio (z) = 0.08270 0.08270
#
# Static dielectric constant tensor:
#      x y z
#    x 1.929540 0.000000 0.000000 
#    y 0.000000 1.929540 0.000000 
#    z 0.000000 0.000000 1.876880 
# 
# From -- ./inp_files/2067.got.cif
#   From: 2010.05.17/outbox.cif.g08.bks.cpg/sg148_2_cif.got.tgz:2067.got - 2010.05.20 13:50:20.
