data_PCOD9575401
_publ_section_title
;
Structure prediction by ZEFSAII (Michael W. Deem and Ramdas Pophale) SiO2 
 PCOD9575401
Probable space group: P 3 2 1
;
_chemical_formula_sum "Si O2"
_cell_formula_units_Z 36
_cell_length_a 18.922488
_cell_length_b 18.922488
_cell_length_c 8.615372
_cell_angle_alpha 90.000000
_cell_angle_beta 90.000000
_cell_angle_gamma 120.000000
_cell_volume 2671.536691
_symmetry_space_group_name_H-M "P 3 2 1"
_symmetry_group_IT_number 150
_symmetry_cell_setting 'hexagonal'
loop_
_space_group_symop_operation_xyz
x,y,z
-y,x-y,z
-x+y,-x,z
x-y,-y,-z
-x,-x+y,-z
y,x,-z
loop_
_atom_site_type_symbol
_atom_site_label
_atom_site_fract_x
_atom_site_fract_y
_atom_site_fract_z
Si Si1 0.177595 0.672212 0.812133
Si Si2 0.511205 0.174108 0.685072
Si Si3 0.672212 0.177595 0.812133
Si Si4 0.662903 0.488795 0.314928
Si Si5 0.592349 0.000000 0.178573
Si Si6 0.579309 0.579309 0.178932
O O1 0.187682 0.597032 0.752035
O O2 0.251947 0.756090 0.752812
O O3 0.088661 0.655317 0.754702
O O4 0.176396 0.669622 1.000000
O O5 0.597032 0.187682 0.752035
O O6 0.495856 0.243910 0.752812
O O7 0.516351 0.179004 0.500000
O O8 0.442065 0.083876 0.737929
O O9 0.655317 0.088661 0.754702
O O10 0.641811 0.557935 0.262071
O O11 0.506619 0.000000 0.177935
O O12 0.616963 0.000000 0.000000
O O13 0.602480 0.602480 0.000000
#
# Coordination Sequence:
#
# PCOD9575401 Si02
#       6
#     6   6   6   6   6   6
#     4  10  18  30  44  58  77 106 139 170 202 243
#     4  11  20  29  41  61  83 104 133 173 210 240
#     4  10  18  30  44  58  77 106 139 170 202 243
#     4  11  20  29  41  61  83 104 133 173 210 240
#     4   7  14  27  43  57  71  95 132 167 196 231
#     4   9  17  31  45  57  75 105 136 163 200 247
#
# _framework density 13.475390000000001
#
# number of rings (size 3 to 8) (size 9 to 14) (size 15 to 20)
#    0.000    2.333    0.000    7.167    0.000    0.000 
#    0.000    2.500    0.000    0.000    0.000    0.000 
#    0.000    0.000    0.000    1.000    0.000   16.333 
#
# Total GULP energy -200550.175960 kJ/mol
# GULP energy per Si atom -5570.838221 kJ/mol
# Density = 1.344472 g / cm^3
# Si number density = 13.475390 Si / 1000 Ang^3
#
#
#
# Elastic Constant Matrix: (Units=GPa)
#
#
# Indices 1 2 3 4 5 6 
#
# 1 98.1538 57.2803 34.7265 0.0000 0.0000 0.0000
# 2 57.2803 98.1538 34.7265 0.0000 0.0000 0.0000
# 3 34.7265 34.7265 89.8386 0.0000 0.0000 0.0000
# 4 0.0000 0.0000 0.0000 14.1385 0.0000 0.0000
# 5 0.0000 0.0000 0.0000 0.0000 14.1385 0.0000
# 6 0.0000 0.0000 0.0000 0.0000 0.0000 20.4367
#
#
#
# Elastic Compliance Matrix: (Units=1/GPa)
#
#
# Indices 1 2 3 4 5 6 
#
# 1 0.016121 -0.008344 -0.003006 0.000000 0.000000 0.000000
# 2 -0.008344 0.016121 -0.003006 0.000000 0.000000 0.000000
# 3 -0.003006 -0.003006 0.013455 0.000000 0.000000 0.000000
# 4 0.000000 0.000000 0.000000 0.070729 0.000000 0.000000
# 5 0.000000 0.000000 0.000000 0.000000 0.070729 0.000000
# 6 0.000000 0.000000 0.000000 0.000000 0.000000 0.048931
#
#
# Mechanical properties :
#
#
# Convention : Reuss Voigt Hill
#
# Bulk Modulus (GPa) = 58.87775 59.95700 59.41738
# Shear Modulus (GPa) = 18.48693 20.37028 19.42860
#
# Velocity S-wave (km/s) = 3.70794 3.89223 3.80120
# Velocity P-wave (km/s) = 7.88159 8.04920 7.96583
#
# Compressibility (1/GPa) = 0.01698434
#
# Stress axis : x y z
#
# Youngs Moduli (GPa) = 62.02985 62.02985 74.32168
#
# Poissons Ratio (x) = 0.51761 0.22342
# Poissons Ratio (y) = 0.51761 0.22342
# Poissons Ratio (z) = 0.18647 0.18647
#
# Static dielectric constant tensor:
#      x y z
#    x 1.440460 0.000000 0.000000 
#    y 0.000000 1.440460 0.000000 
#    z 0.000000 0.000000 1.451680 
# 
# From -- ./inp_files/705.got.cif
#   From: 2010.05.17/outbox.cif.g08.bks.cpg/sg150_cif.got.tgz:705.got - 2010.05.20 13:53:18.
