data_PCOD9575262
_publ_section_title
;
Structure prediction by ZEFSAII (Michael W. Deem and Ramdas Pophale) SiO2 
 PCOD9575262
Probable space group: R -3
;
_chemical_formula_sum "Si O2"
_cell_formula_units_Z 126
_cell_length_a 20.290488
_cell_length_b 20.290488
_cell_length_c 17.578173
_cell_angle_alpha 90.000000
_cell_angle_beta 90.000000
_cell_angle_gamma 120.000000
_cell_volume 6267.427957
_symmetry_space_group_name_H-M "R -3"
_symmetry_group_IT_number 148
_symmetry_cell_setting 'hexagonal'
loop_
_space_group_symop_operation_xyz
x,y,z
-y,x-y,z
-x+y,-x,z
-x,-y,-z
y,-x+y,-z
x-y,x,-z
2/3+x,1/3+y,1/3+z
2/3-y,1/3+x-y,1/3+z
2/3-x+y,1/3-x,1/3+z
2/3-x,1/3-y,1/3-z
2/3+y,1/3-x+y,1/3-z
2/3+x-y,1/3+x,1/3-z
1/3+x,2/3+y,2/3+z
1/3-y,2/3+x-y,2/3+z
1/3-x+y,2/3-x,2/3+z
1/3-x,2/3-y,2/3-z
1/3+y,2/3-x+y,2/3-z
1/3+x-y,2/3+x,2/3-z
loop_
_atom_site_type_symbol
_atom_site_label
_atom_site_fract_x
_atom_site_fract_y
_atom_site_fract_z
Si Si1 0.464231 0.357531 0.655940
Si Si2 0.252143 0.265399 0.027941
Si Si3 0.013332 0.241070 0.132747
Si Si4 0.406759 0.472218 0.382940
Si Si5 0.260497 0.253308 0.568150
Si Si6 0.462579 0.824278 0.139846
Si Si7 0.729506 0.907491 0.183264
O O1 0.392891 0.367728 0.683390
O O2 0.529110 0.443332 0.637060
O O3 0.495933 0.327461 0.723282
O O4 0.441902 0.299315 0.585345
O O5 0.310254 0.234068 0.040969
O O6 0.204901 0.253172 0.103634
O O7 0.206972 0.222798 0.951337
O O8 0.022028 0.324100 0.118309
O O9 0.093389 0.253706 0.164753
O O10 0.953960 0.197587 0.198615
O O11 0.337911 0.436992 0.320933
O O12 0.185907 0.231710 0.519787
O O13 0.308838 0.214907 0.540590
O O14 0.470665 0.760139 0.185688
#
# Coordination Sequence:
#
# PCOD9575262 Si02
#       7
#    18  18  18  18  18  18  18
#     4  12  24  40  66  95 127 174 220 264 322 396
#     4  11  21  42  61  93 130 163 211 265 332 385
#     4  11  24  40  64  96 131 169 209 271 334 385
#     4  11  22  40  62  92 130 170 210 269 325 378
#     4  11  21  41  61  94 128 160 212 264 327 383
#     4  12  25  42  62  89 131 178 218 258 316 386
#     4  12  24  39  66  98 129 170 217 267 328 396
#
# _framework density 20.103940999999999
#
# number of rings (size 3 to 8) (size 9 to 14) (size 15 to 20)
#    0.000    0.571    7.143    2.714    2.000    4.000 
#    0.000    0.000    0.000    0.571    0.000    1.000 
#    0.000    0.000    0.000    0.000    0.000    0.000 
#
# Total GULP energy -234346.098207 kJ/mol
# GULP energy per Si atom -5579.669005 kJ/mol
# Density = 2.005818 g / cm^3
# Si number density = 20.103941 Si / 1000 Ang^3
#
#
#
# Elastic Constant Matrix: (Units=GPa)
#
#
# Indices 1 2 3 4 5 6 
#
# 1 43.5054 27.8555 37.7185 -4.1854 -1.5479 0.0000
# 2 27.8555 43.5054 37.7185 4.1854 1.5479 0.0000
# 3 37.7185 37.7185 141.0725 0.0000 0.0000 0.0000
# 4 -4.1854 4.1854 0.0000 18.1352 0.0000 1.5479
# 5 -1.5479 1.5479 0.0000 0.0000 18.1352 -4.1854
# 6 0.0000 0.0000 0.0000 1.5479 -4.1854 7.8249
#
#
#
# Elastic Compliance Matrix: (Units=1/GPa)
#
#
# Indices 1 2 3 4 5 6 
#
# 1 0.046932 -0.027397 -0.005223 0.017154 0.006344 0.000000
# 2 -0.027397 0.046932 -0.005223 -0.017154 -0.006344 0.000000
# 3 -0.005223 -0.005223 0.009881 0.000000 0.000000 0.000000
# 4 0.017154 -0.017154 0.000000 0.064142 0.000000 -0.012689
# 5 0.006344 -0.006344 0.000000 0.000000 0.064142 0.034309
# 6 0.000000 0.000000 0.000000 -0.012689 0.034309 0.148658
#
#
# Mechanical properties :
#
#
# Convention : Reuss Voigt Hill
#
# Bulk Modulus (GPa) = 35.63945 48.29648 41.96797
# Shear Modulus (GPa) = 10.73589 17.13844 13.93716
#
# Velocity S-wave (km/s) = 2.31339 2.92291 2.63583
# Velocity P-wave (km/s) = 4.99017 5.95540 5.49402
#
# Compressibility (1/GPa) = 0.02805879
#
# Stress axis : x y z
#
# Youngs Moduli (GPa) = 21.30750 21.30750 101.19953
#
# Poissons Ratio (x) = 0.58377 0.52856
# Poissons Ratio (y) = 0.58377 0.52856
# Poissons Ratio (z) = 0.11129 0.11129
#
# Static dielectric constant tensor:
#      x y z
#    x 1.724740 0.000000 0.000000 
#    y 0.000000 1.724740 0.000000 
#    z 0.000000 0.000000 1.768630 
# 
# From -- ./inp_files/2741.got.cif
#   From: 2010.05.17/outbox.cif.g08.bks.cpg/sg148_2_cif.got.tgz:2741.got - 2010.05.20 13:50:20.
