data_PCOD9575055
_publ_section_title
;
Structure prediction by ZEFSAII (Michael W. Deem and Ramdas Pophale) SiO2 
 PCOD9575055
Probable space group: R -3
;
_chemical_formula_sum "Si O2"
_cell_formula_units_Z 126
_cell_length_a 15.782402
_cell_length_b 15.782402
_cell_length_c 26.153018
_cell_angle_alpha 90.000000
_cell_angle_beta 90.000000
_cell_angle_gamma 120.000000
_cell_volume 5641.552668
_symmetry_space_group_name_H-M "R -3"
_symmetry_group_IT_number 148
_symmetry_cell_setting 'hexagonal'
loop_
_space_group_symop_operation_xyz
x,y,z
-y,x-y,z
-x+y,-x,z
-x,-y,-z
y,-x+y,-z
x-y,x,-z
2/3+x,1/3+y,1/3+z
2/3-y,1/3+x-y,1/3+z
2/3-x+y,1/3-x,1/3+z
2/3-x,1/3-y,1/3-z
2/3+y,1/3-x+y,1/3-z
2/3+x-y,1/3+x,1/3-z
1/3+x,2/3+y,2/3+z
1/3-y,2/3+x-y,2/3+z
1/3-x+y,2/3-x,2/3+z
1/3-x,2/3-y,2/3-z
1/3+y,2/3-x+y,2/3-z
1/3+x-y,2/3+x,2/3-z
loop_
_atom_site_type_symbol
_atom_site_label
_atom_site_fract_x
_atom_site_fract_y
_atom_site_fract_z
Si Si1 0.573841 0.072708 0.160581
Si Si2 0.283859 0.916940 0.573822
Si Si3 0.244787 0.843789 0.258555
Si Si4 0.304811 0.964168 0.760071
Si Si5 0.491223 0.881704 0.657367
Si Si6 0.909520 0.418123 0.575978
Si Si7 0.689890 0.565824 0.674279
O O1 0.507471 0.086700 0.202284
O O2 0.630847 0.026620 0.191185
O O3 0.661248 0.159988 0.127337
O O4 0.497030 0.993106 0.120532
O O5 0.251287 0.877845 0.631420
O O6 0.232320 0.983125 0.568073
O O7 0.401425 0.990484 0.570164
O O8 0.221665 0.749885 0.291808
O O9 0.223679 0.908842 0.299325
O O10 0.283344 0.864728 0.731915
O O11 0.191501 0.934715 0.769986
O O12 0.371950 0.041855 0.716791
O O13 0.511307 0.798284 0.674675
O O14 0.883943 0.394157 0.636484
#
# Coordination Sequence:
#
# PCOD9575055 Si02
#       7
#    18  18  18  18  18  18  18
#     4  10  22  34  54  83 127 161 201 262 321 364
#     4  10  19  35  55  81 122 153 205 262 304 377
#     4   9  20  36  54  86 115 153 204 269 314 364
#     4  12  19  34  60  89 124 165 203 260 320 373
#     4  12  21  35  54  84 123 166 212 252 311 371
#     4  10  22  37  56  92 123 165 215 259 315 385
#     4   9  19  35  58  83 122 154 207 263 311 368
#
# _framework density 22.334275999999999
#
# number of rings (size 3 to 8) (size 9 to 14) (size 15 to 20)
#    0.000    2.000    5.714    0.571    4.000    0.000 
#    0.000    0.000    0.000    0.000    0.000    0.000 
#   32.857   18.286    0.000    0.000    0.000    0.000 
#
# Total GULP energy -233834.876670 kJ/mol
# GULP energy per Si atom -5567.497064 kJ/mol
# Density = 2.228344 g / cm^3
# Si number density = 22.334276 Si / 1000 Ang^3
#
#
#
# Elastic Constant Matrix: (Units=GPa)
#
#
# Indices 1 2 3 4 5 6 
#
# 1 47.0215 9.7682 16.4763 1.4066 3.0558 0.0000
# 2 9.7682 47.0215 16.4763 -1.4066 -3.0558 0.0000
# 3 16.4763 16.4763 119.0295 0.0000 0.0000 0.0000
# 4 1.4066 -1.4066 0.0000 33.2909 0.0000 -3.0558
# 5 3.0558 -3.0558 0.0000 0.0000 33.2909 1.4066
# 6 0.0000 0.0000 0.0000 -3.0558 1.4066 18.6267
#
#
#
# Elastic Compliance Matrix: (Units=1/GPa)
#
#
# Indices 1 2 3 4 5 6 
#
# 1 0.023244 -0.004098 -0.002650 -0.001155 -0.002510 0.000000
# 2 -0.004098 0.023244 -0.002650 0.001155 0.002510 0.000000
# 3 -0.002650 -0.002650 0.009135 0.000000 0.000000 0.000000
# 4 -0.001155 0.001155 0.000000 0.030597 0.000000 0.005020
# 5 -0.002510 0.002510 0.000000 0.000000 0.030597 -0.002311
# 6 0.000000 0.000000 0.000000 0.005020 -0.002311 0.054684
#
#
# Mechanical properties :
#
#
# Convention : Reuss Voigt Hill
#
# Bulk Modulus (GPa) = 27.15391 33.16822 30.16107
# Shear Modulus (GPa) = 24.68233 28.39849 26.54041
#
# Velocity S-wave (km/s) = 3.32796 3.56971 3.45095
# Velocity P-wave (km/s) = 5.19148 5.64566 5.42332
#
# Compressibility (1/GPa) = 0.03682711
#
# Stress axis : x y z
#
# Youngs Moduli (GPa) = 43.02100 43.02100 109.46907
#
# Poissons Ratio (x) = 0.17629 0.29013
# Poissons Ratio (y) = 0.17629 0.29013
# Poissons Ratio (z) = 0.11402 0.11402
#
# Static dielectric constant tensor:
#      x y z
#    x 1.899020 0.000000 0.000000 
#    y 0.000000 1.899020 0.000000 
#    z 0.000000 0.000000 1.865100 
# 
# From -- ./inp_files/3440.got.cif
#   From: 2010.05.17/outbox.cif.g08.bks.cpg/sg148_2_cif.got.tgz:3440.got - 2010.05.20 13:50:20.
