data_PCOD9575709
_publ_section_title
;
Structure prediction by ZEFSAII (Michael W. Deem and Ramdas Pophale) SiO2 
 PCOD9575709
Probable space group: P 31 2 1
;
_chemical_formula_sum "Si O2"
_cell_formula_units_Z 39
_cell_length_a 8.897571
_cell_length_b 8.897571
_cell_length_c 28.983618
_cell_angle_alpha 90.000000
_cell_angle_beta 90.000000
_cell_angle_gamma 120.000000
_cell_volume 1987.129420
_symmetry_space_group_name_H-M "P 31 2 1"
_symmetry_group_IT_number 152
_symmetry_cell_setting 'hexagonal'
loop_
_space_group_symop_operation_xyz
x,y,z
-y,x-y,1/3+z
-x+y,-x,2/3+z
x-y,-y,2/3-z
-x,-x+y,1/3-z
y,x,-z
loop_
_atom_site_type_symbol
_atom_site_label
_atom_site_fract_x
_atom_site_fract_y
_atom_site_fract_z
Si Si1 0.498702 0.527722 0.273832
Si Si2 0.629310 0.497304 0.370614
Si Si3 0.779329 0.104546 0.413363
Si Si4 0.921225 0.760219 0.922607
Si Si5 0.763955 0.730480 0.548948
Si Si6 0.898276 0.330459 0.715243
Si Si7 0.000000 0.959823 0.666667
O O1 0.609635 0.552333 0.319569
O O2 0.318449 0.516770 0.289401
O O3 0.598873 0.693168 0.240467
O O4 0.426041 0.334956 0.254856
O O5 0.635801 0.633055 0.408470
O O6 0.477539 0.299585 0.377333
O O7 0.602544 0.095532 0.396959
O O8 0.883555 0.072973 0.372074
O O9 0.726345 0.941542 0.446517
O O10 0.730613 0.731231 0.917734
O O11 0.995742 0.866516 0.971376
O O12 0.066723 0.886423 0.887105
O O13 0.670701 0.670701 0.500000
O O14 0.000000 0.374496 0.666667
#
# Coordination Sequence:
#
# PCOD9575709 Si02
#       7
#     6   6   6   6   6   6   3
#     4  10  18  31  51  89 112 136 174 229 298 335
#     4  10  21  32  58  83 118 142 179 228 292 349
#     4  10  20  31  54  78 109 142 189 231 281 330
#     4  10  19  33  56  81 117 147 178 229 289 347
#     4  10  23  42  55  72 109 162 201 229 263 341
#     4  11  19  33  53  91 122 137 167 238 307 350
#     4  10  16  30  48  80 110 150 174 220 278 338
#
# _framework density 19.626303
#
# number of rings (size 3 to 8) (size 9 to 14) (size 15 to 20)
#    0.000    1.846    3.077    2.769    2.154    1.231 
#    0.000    5.385    0.000    0.000    0.000    0.000 
#    0.000    0.000    0.000    0.000    0.000    0.000 
#
# Total GULP energy -217281.841897 kJ/mol
# GULP energy per Si atom -5571.329279 kJ/mol
# Density = 1.958163 g / cm^3
# Si number density = 19.626303 Si / 1000 Ang^3
#
#
#
# Elastic Constant Matrix: (Units=GPa)
#
#
# Indices 1 2 3 4 5 6 
#
# 1 73.9869 17.7319 -5.4467 1.0144 0.0000 0.0000
# 2 17.7319 73.9869 -5.4467 -1.0144 0.0000 0.0000
# 3 -5.4467 -5.4467 7.5344 0.0000 0.0000 0.0000
# 4 1.0144 -1.0144 0.0000 4.6819 0.0000 0.0000
# 5 0.0000 0.0000 0.0000 0.0000 4.6819 1.0144
# 6 0.0000 0.0000 0.0000 0.0000 1.0144 28.1275
#
#
#
# Elastic Compliance Matrix: (Units=1/GPa)
#
#
# Indices 1 2 3 4 5 6 
#
# 1 0.014922 -0.002995 0.008622 -0.003882 0.000000 0.000000
# 2 -0.002995 0.014922 0.008622 0.003882 0.000000 0.000000
# 3 0.008622 0.008622 0.145191 0.000000 0.000000 0.000000
# 4 -0.003882 0.003882 0.000000 0.215271 0.000000 0.000000
# 5 0.000000 0.000000 0.000000 0.000000 0.215271 -0.007763
# 6 0.000000 0.000000 0.000000 0.000000 -0.007763 0.035832
#
#
# Mechanical properties :
#
#
# Convention : Reuss Voigt Hill
#
# Bulk Modulus (GPa) = 4.91320 18.79835 11.85578
# Shear Modulus (GPa) = 7.34480 17.40957 12.37719
#
# Velocity S-wave (km/s) = 1.93661 2.98157 2.51398
# Velocity P-wave (km/s) = 2.74033 4.63163 3.80535
#
# Compressibility (1/GPa) = 0.20353318
#
# Stress axis : x y z
#
# Youngs Moduli (GPa) = 67.01711 67.01711 6.88749
#
# Poissons Ratio (x) = 0.20069 -0.05938
# Poissons Ratio (y) = 0.20069 -0.05938
# Poissons Ratio (z) = -0.57783 -0.57783
#
# Static dielectric constant tensor:
#      x y z
#    x 1.730000 0.000000 0.000000 
#    y 0.000000 1.730000 0.000000 
#    z 0.000000 0.000000 1.716290 
# 
# From -- ./inp_files/3630.got.cif
#   From: 2010.05.17/outbox.cif.g08.bks.cpg/sg152_2_cif.got.tgz:3630.got - 2010.05.20 10:36:06.
