data_PCOD9575578
_publ_section_title
;
Structure prediction by ZEFSAII (Michael W. Deem and Ramdas Pophale) SiO2 
 PCOD9575578
Probable space group: P 31 1 2
;
_chemical_formula_sum "Si O2"
_cell_formula_units_Z 27
_cell_length_a 7.496288
_cell_length_b 7.496288
_cell_length_c 26.443991
_cell_angle_alpha 90.000000
_cell_angle_beta 90.000000
_cell_angle_gamma 120.000000
_cell_volume 1286.915878
_symmetry_space_group_name_H-M "P 31 1 2"
_symmetry_group_IT_number 151
_symmetry_cell_setting 'hexagonal'
loop_
_space_group_symop_operation_xyz
x,y,z
-y,x-y,1/3+z
-x+y,-x,2/3+z
-y,-x,2/3-z
-x+y,y,1/3-z
x,x-y,-z
loop_
_atom_site_type_symbol
_atom_site_label
_atom_site_fract_x
_atom_site_fract_y
_atom_site_fract_z
Si Si1 0.439608 0.560392 0.833334
Si Si2 0.995396 0.009232 0.723518
Si Si3 0.103706 0.652849 0.719358
Si Si4 0.993508 0.330082 0.797990
Si Si5 0.122832 0.654039 0.606052
O O1 0.194667 0.461591 0.831460
O O2 0.474562 0.489861 0.888413
O O3 0.048929 0.097857 0.666667
O O4 0.749465 0.862359 0.728304
O O5 0.089831 0.857740 0.728521
O O6 0.048881 0.182250 0.764886
O O7 0.967116 0.479535 0.759684
O O8 0.034861 0.571387 0.662078
O O9 0.333968 0.687937 0.726464
O O10 0.802287 0.197714 0.833334
#
# Coordination Sequence:
#
# PCOD9575578 Si02
#       5
#     3   6   6   6   6
#     4  10  20  36  60  90 126 154 206 260 296 374
#     4  10  21  40  66  92 120 163 215 252 309 387
#     4   9  21  39  64  87 125 163 203 259 311 369
#     4  11  22  41  63  92 125 166 207 260 318 370
#     4   9  18  39  62  86 125 159 200 259 306 368
#
# _framework density 20.980391000000001
#
# number of rings (size 3 to 8) (size 9 to 14) (size 15 to 20)
#    0.000    2.222    2.222    0.000    6.222    0.000 
#   10.000    4.444   14.667    0.000    0.000    0.000 
#    0.000    0.000    0.000    0.000    0.000    0.000 
#
# Total GULP energy -150530.677433 kJ/mol
# GULP energy per Si atom -5575.210275 kJ/mol
# Density = 2.093264 g / cm^3
# Si number density = 20.980391 Si / 1000 Ang^3
#
#
#
# Elastic Constant Matrix: (Units=GPa)
#
#
# Indices 1 2 3 4 5 6 
#
# 1 61.9086 15.9719 15.4006 -0.0005 -11.2318 0.0000
# 2 15.9719 61.9086 15.4006 0.0005 11.2318 0.0000
# 3 15.4006 15.4006 86.9601 0.0000 0.0000 0.0000
# 4 -0.0005 0.0005 0.0000 5.3485 0.0000 11.2318
# 5 -11.2318 11.2318 0.0000 0.0000 5.3485 -0.0005
# 6 0.0000 0.0000 0.0000 11.2318 -0.0005 22.9684
#
#
#
# Elastic Compliance Matrix: (Units=1/GPa)
#
#
# Indices 1 2 3 4 5 6 
#
# 1 -0.397428 0.411235 -0.002445 -0.000076 -1.698184 0.000000
# 2 0.411235 -0.397428 -0.002445 0.000076 1.698184 0.000000
# 3 -0.002445 -0.002445 0.012366 0.000000 0.000000 0.000000
# 4 -0.000076 0.000076 0.000000 -6.945369 -0.000002 3.396369
# 5 -1.698184 1.698184 0.000000 -0.000002 -6.945366 -0.000150
# 6 0.000000 0.000000 0.000000 3.396369 -0.000150 -1.617327
#
#
# Mechanical properties :
#
#
# Convention : Reuss Voigt Hill
#
# Bulk Modulus (GPa) = 33.11354 33.81373 33.46364
# Shear Modulus (GPa) = -0.29251 17.66668 8.68708
#
# Velocity S-wave (km/s) = -0.37380 2.90497 2.03705
# Velocity P-wave (km/s) = 3.95361 5.23485 4.63868
#
# Compressibility (1/GPa) = 0.03019912
#
# Stress axis : x y z
#
# Youngs Moduli (GPa) = -2.51618 -2.51618 80.86923
#
# Poissons Ratio (x) = 1.03474 0.19775
# Poissons Ratio (y) = 1.03474 0.19775
# Poissons Ratio (z) = -0.00615 -0.00615
#
# Static dielectric constant tensor:
#      x y z
#    x 1.739940 0.000000 0.000000 
#    y 0.000000 1.739940 0.000000 
#    z 0.000000 0.000000 1.846120 
# 
# From -- ./inp_files/4479.got.cif
#   From: 2010.05.17/outbox.cif.g08.bks.cpg/sg151_3_cif.got.tgz:4479.got - 2010.05.20 10:33:20.
