data_PCOD9575591
_publ_section_title
;
Structure prediction by ZEFSAII (Michael W. Deem and Ramdas Pophale) SiO2 
 PCOD9575591
Probable space group: P 31 1 2
;
_chemical_formula_sum "Si O2"
_cell_formula_units_Z 42
_cell_length_a 8.376992
_cell_length_b 8.376992
_cell_length_c 32.284392
_cell_angle_alpha 90.000000
_cell_angle_beta 90.000000
_cell_angle_gamma 120.000000
_cell_volume 1962.001997
_symmetry_space_group_name_H-M "P 31 1 2"
_symmetry_group_IT_number 151
_symmetry_cell_setting 'hexagonal'
loop_
_space_group_symop_operation_xyz
x,y,z
-y,x-y,1/3+z
-x+y,-x,2/3+z
-y,-x,2/3-z
-x+y,y,1/3-z
x,x-y,-z
loop_
_atom_site_type_symbol
_atom_site_label
_atom_site_fract_x
_atom_site_fract_y
_atom_site_fract_z
Si Si1 0.798543 0.873700 0.784054
Si Si2 0.959367 0.244538 0.612268
Si Si3 0.992500 0.698848 0.241639
Si Si4 0.000904 0.177851 0.290061
Si Si5 0.752484 0.156242 0.145739
Si Si6 0.546342 0.431299 0.644074
Si Si7 0.589413 0.019390 0.825026
O O1 0.812132 0.774169 0.825270
O O2 0.846715 0.784190 0.745370
O O3 0.615600 0.888878 0.792584
O O4 0.935051 0.091830 0.776192
O O5 0.907869 0.295348 0.568095
O O6 0.936952 0.337032 0.652874
O O7 0.176439 0.320393 0.607967
O O8 0.841287 0.020874 0.614439
O O9 0.839934 0.529731 0.268650
O O10 0.064240 0.627216 0.204186
O O11 0.020427 0.377962 0.295942
O O12 0.926430 0.073571 0.333334
O O13 0.573702 0.147403 0.166667
O O14 0.919644 0.365303 0.146095
O O15 0.719967 0.439933 0.666667
O O16 0.783733 0.216268 0.833334
#
# Coordination Sequence:
#
# PCOD9575591 Si02
#       7
#     6   6   6   6   6   6   6
#     4  10  20  39  69  95 132 178 241 281 360 437
#     4  11  23  43  67  98 137 186 239 287 362 436
#     4  10  20  41  69  97 129 185 224 283 362 423
#     4  10  23  42  70  97 130 188 241 292 358 435
#     4  11  24  38  66 106 141 184 234 302 357 437
#     4  11  25  41  69 101 134 182 242 303 348 428
#     4   9  19  35  64  94 129 169 222 288 348 418
#
# _framework density 21.406704000000001
#
# number of rings (size 3 to 8) (size 9 to 14) (size 15 to 20)
#    0.000    1.714    1.429    3.000   12.000    0.000 
#    0.000    2.857    6.286    0.000    0.000    0.000 
#    0.000    0.000    0.000    0.000    0.000    0.000 
#
# Total GULP energy -233867.592683 kJ/mol
# GULP energy per Si atom -5568.276016 kJ/mol
# Density = 2.135798 g / cm^3
# Si number density = 21.406704 Si / 1000 Ang^3
#
#
#
# Elastic Constant Matrix: (Units=GPa)
#
#
# Indices 1 2 3 4 5 6 
#
# 1 71.8366 27.6212 41.0005 0.0001 -1.7345 0.0000
# 2 27.6212 71.8366 41.0005 -0.0001 1.7345 0.0000
# 3 41.0005 41.0005 151.7562 0.0000 0.0000 0.0000
# 4 0.0001 -0.0001 0.0000 32.6763 0.0000 1.7345
# 5 -1.7345 1.7345 0.0000 0.0000 32.6763 0.0001
# 6 0.0000 0.0000 0.0000 1.7345 0.0001 22.1077
#
#
#
# Elastic Compliance Matrix: (Units=1/GPa)
#
#
# Indices 1 2 3 4 5 6 
#
# 1 0.017824 -0.004888 -0.003495 0.000000 0.001206 0.000000
# 2 -0.004888 0.017824 -0.003495 0.000000 -0.001206 0.000000
# 3 -0.003495 -0.003495 0.008478 0.000000 0.000000 0.000000
# 4 0.000000 0.000000 0.000000 0.030731 0.000000 -0.002411
# 5 0.001206 -0.001206 0.000000 0.000000 0.030731 0.000000
# 6 0.000000 0.000000 0.000000 -0.002411 0.000000 0.045422
#
#
# Mechanical properties :
#
#
# Convention : Reuss Voigt Hill
#
# Bulk Modulus (GPa) = 49.09126 57.18596 53.13861
# Shear Modulus (GPa) = 27.53986 29.87919 28.70952
#
# Velocity S-wave (km/s) = 3.59068 3.74008 3.66614
# Velocity P-wave (km/s) = 6.33822 6.73965 6.54202
#
# Compressibility (1/GPa) = 0.02037023
#
# Stress axis : x y z
#
# Youngs Moduli (GPa) = 56.10538 56.10538 117.95207
#
# Poissons Ratio (x) = 0.27422 0.41224
# Poissons Ratio (y) = 0.27422 0.41224
# Poissons Ratio (z) = 0.19609 0.19609
#
# Static dielectric constant tensor:
#      x y z
#    x 1.836130 0.000000 0.000000 
#    y 0.000000 1.836130 0.000000 
#    z 0.000000 0.000000 1.831550 
# 
# From -- ./inp_files/5025.got.cif
#   From: 2010.05.17/outbox.cif.g08.bks.cpg/sg151_3_cif.got.tgz:5025.got - 2010.05.20 10:33:20.
