data_PCOD9575434
_publ_section_title
;
Structure prediction by ZEFSAII (Michael W. Deem and Ramdas Pophale) SiO2 
 PCOD9575434
Probable space group: P 3 2 1
;
_chemical_formula_sum "Si O2"
_cell_formula_units_Z 45
_cell_length_a 18.617894
_cell_length_b 18.617894
_cell_length_c 7.714255
_cell_angle_alpha 90.000000
_cell_angle_beta 90.000000
_cell_angle_gamma 120.000000
_cell_volume 2315.718307
_symmetry_space_group_name_H-M "P 3 2 1"
_symmetry_group_IT_number 150
_symmetry_cell_setting 'hexagonal'
loop_
_space_group_symop_operation_xyz
x,y,z
-y,x-y,z
-x+y,-x,z
x-y,-y,-z
-x,-x+y,-z
y,x,-z
loop_
_atom_site_type_symbol
_atom_site_label
_atom_site_fract_x
_atom_site_fract_y
_atom_site_fract_z
Si Si1 0.505526 0.688063 0.493726
Si Si2 0.106533 0.590603 0.892941
Si Si3 0.415732 0.357068 0.781494
Si Si4 0.000000 0.745491 0.000000
Si Si5 0.731903 0.828479 0.040457
Si Si6 0.352382 0.517584 0.521790
Si Si7 0.053772 0.332357 0.328942
Si Si8 0.680297 0.578394 0.141744
O O1 0.441283 0.592274 0.470219
O O2 0.465455 0.744974 0.469497
O O3 0.580484 0.712843 0.366721
O O4 0.545254 0.703037 0.685538
O O5 0.162641 0.643482 0.731180
O O6 0.108668 0.506242 0.931255
O O7 0.016659 0.565754 0.809956
O O8 0.119794 0.645030 0.064923
O O9 0.320865 0.298279 0.842725
O O10 0.439346 0.340201 0.592065
O O11 0.918586 0.753686 0.021738
O O12 0.721976 0.811212 0.245111
O O13 0.796574 0.796574 0.000000
O O14 0.639899 0.762419 0.966125
O O15 0.000000 0.291535 0.500000
O O16 0.991371 0.346700 0.206345
#
# Coordination Sequence:
#
# PCOD9575434 Si02
#       8
#     6   6   6   3   6   6   6   6
#     4  10  21  33  54  76 118 151 202 243 288 363
#     4   9  20  35  53  83 112 148 201 241 299 360
#     4  10  22  35  60  82 120 152 191 258 295 369
#     4  10  22  40  56  96 122 148 210 246 312 380
#     4  10  21  36  64  85 117 155 192 260 308 366
#     4  11  21  37  51  81 114 166 193 244 305 346
#     4   9  18  34  56  87 108 142 197 248 293 348
#     4   9  19  33  57  82 106 148 194 248 296 350
#
# _framework density 19.432414000000001
#
# number of rings (size 3 to 8) (size 9 to 14) (size 15 to 20)
#    0.000    2.400    0.000    2.267   11.200    2.133 
#    0.400    0.000    0.000    0.000    0.000    0.000 
#    0.000    0.000    0.000    0.000    0.000    0.000 
#
# Total GULP energy -250586.740266 kJ/mol
# GULP energy per Si atom -5568.594228 kJ/mol
# Density = 1.938819 g / cm^3
# Si number density = 19.432414 Si / 1000 Ang^3
#
#
#
# Elastic Constant Matrix: (Units=GPa)
#
#
# Indices 1 2 3 4 5 6 
#
# 1 84.8766 38.4796 22.5060 0.1120 0.0000 0.0000
# 2 38.4796 84.8766 22.5060 -0.1120 0.0000 0.0000
# 3 22.5060 22.5060 51.2508 0.0000 0.0000 0.0000
# 4 0.1120 -0.1120 0.0000 8.6203 0.0000 0.0000
# 5 0.0000 0.0000 0.0000 0.0000 8.6203 0.1120
# 6 0.0000 0.0000 0.0000 0.0000 0.1120 23.1985
#
#
#
# Elastic Compliance Matrix: (Units=1/GPa)
#
#
# Indices 1 2 3 4 5 6 
#
# 1 0.015604 -0.005951 -0.004239 -0.000280 0.000000 0.000000
# 2 -0.005951 0.015604 -0.004239 0.000280 0.000000 0.000000
# 3 -0.004239 -0.004239 0.023235 0.000000 0.000000 0.000000
# 4 -0.000280 0.000280 0.000000 0.116012 0.000000 0.000000
# 5 0.000000 0.000000 0.000000 0.000000 0.116012 -0.000560
# 6 0.000000 0.000000 0.000000 0.000000 -0.000560 0.043109
#
#
# Mechanical properties :
#
#
# Convention : Reuss Voigt Hill
#
# Bulk Modulus (GPa) = 39.08501 43.10969 41.09735
# Shear Modulus (GPa) = 13.62538 17.25532 15.44035
#
# Velocity S-wave (km/s) = 2.65083 2.98311 2.82186
# Velocity P-wave (km/s) = 5.43380 5.83933 5.64021
#
# Compressibility (1/GPa) = 0.02558526
#
# Stress axis : x y z
#
# Youngs Moduli (GPa) = 64.08627 64.08627 43.03854
#
# Poissons Ratio (x) = 0.38135 0.18245
# Poissons Ratio (y) = 0.38135 0.18245
# Poissons Ratio (z) = 0.27167 0.27167
#
# Static dielectric constant tensor:
#      x y z
#    x 1.682370 0.000000 0.000000 
#    y 0.000000 1.682370 0.000000 
#    z 0.000000 0.000000 1.803110 
# 
# From -- ./inp_files/767.got.cif
#   From: 2010.05.17/outbox.cif.g08.bks.cpg/sg150_cif.got.tgz:767.got - 2010.05.20 13:53:18.
