data_PCOD9575079
_publ_section_title
;
Structure prediction by ZEFSAII (Michael W. Deem and Ramdas Pophale) SiO2 
 PCOD9575079
Probable space group: R -3
;
_chemical_formula_sum "Si O2"
_cell_formula_units_Z 126
_cell_length_a 18.112105
_cell_length_b 18.112105
_cell_length_c 21.327875
_cell_angle_alpha 90.000000
_cell_angle_beta 90.000000
_cell_angle_gamma 120.000000
_cell_volume 6059.210953
_symmetry_space_group_name_H-M "R -3"
_symmetry_group_IT_number 148
_symmetry_cell_setting 'hexagonal'
loop_
_space_group_symop_operation_xyz
x,y,z
-y,x-y,z
-x+y,-x,z
-x,-y,-z
y,-x+y,-z
x-y,x,-z
2/3+x,1/3+y,1/3+z
2/3-y,1/3+x-y,1/3+z
2/3-x+y,1/3-x,1/3+z
2/3-x,1/3-y,1/3-z
2/3+y,1/3-x+y,1/3-z
2/3+x-y,1/3+x,1/3-z
1/3+x,2/3+y,2/3+z
1/3-y,2/3+x-y,2/3+z
1/3-x+y,2/3-x,2/3+z
1/3-x,2/3-y,2/3-z
1/3+y,2/3-x+y,2/3-z
1/3+x-y,2/3+x,2/3-z
loop_
_atom_site_type_symbol
_atom_site_label
_atom_site_fract_x
_atom_site_fract_y
_atom_site_fract_z
Si Si1 0.434056 0.013336 0.272681
Si Si2 0.185950 0.150134 0.178095
Si Si3 0.840402 0.008102 0.328840
Si Si4 0.678582 0.016012 0.172486
Si Si5 0.676104 0.493478 0.658224
Si Si6 0.678445 0.741353 0.027650
Si Si7 0.699296 0.508312 0.513755
O O1 0.413249 0.078690 0.310425
O O2 0.376057 0.926155 0.309716
O O3 0.390905 0.992089 0.203491
O O4 0.530210 0.031278 0.281525
O O5 0.179840 0.154981 0.253857
O O6 0.283630 0.219213 0.164464
O O7 0.116015 0.175284 0.154557
O O8 0.161162 0.057537 0.152102
O O9 0.937194 0.070262 0.351834
O O10 0.808795 0.912072 0.350067
O O11 0.652850 0.003117 0.245292
O O12 0.635034 0.070242 0.150735
O O13 0.638287 0.556111 0.663751
O O14 0.689024 0.479253 0.585749
#
# Coordination Sequence:
#
# PCOD9575079 Si02
#       7
#    18  18  18  18  18  18  18
#     4  11  24  42  62  89 125 167 212 259 316 381
#     4  10  20  35  58  88 119 153 196 250 309 367
#     4   9  18  34  58  86 116 151 193 244 302 366
#     4  12  23  38  60  90 123 164 210 264 319 376
#     4   9  18  34  58  86 116 151 193 244 302 366
#     4  11  24  42  62  89 125 167 212 259 316 381
#     4  10  20  35  58  88 119 153 196 250 309 367
#
# _framework density 20.794785999999998
#
# number of rings (size 3 to 8) (size 9 to 14) (size 15 to 20)
#    0.000    1.714    2.857    1.857    0.000    6.286 
#    0.000    0.000    0.000    0.286    0.000    5.000 
#    0.000    0.000    0.000    0.000    0.000    0.000 
#
# Total GULP energy -233844.358840 kJ/mol
# GULP energy per Si atom -5567.722830 kJ/mol
# Density = 2.074746 g / cm^3
# Si number density = 20.794786 Si / 1000 Ang^3
#
#
#
# Elastic Constant Matrix: (Units=GPa)
#
#
# Indices 1 2 3 4 5 6 
#
# 1 60.6248 12.0434 -7.4173 -5.0401 1.4984 0.0000
# 2 12.0434 60.6248 -7.4173 5.0401 -1.4984 0.0000
# 3 -7.4173 -7.4173 47.6678 0.0000 0.0000 0.0000
# 4 -5.0401 5.0401 0.0000 14.0860 0.0000 -1.4984
# 5 1.4984 -1.4984 0.0000 0.0000 14.0860 -5.0401
# 6 0.0000 0.0000 0.0000 -1.4984 -5.0401 24.2907
#
#
#
# Elastic Compliance Matrix: (Units=1/GPa)
#
#
# Indices 1 2 3 4 5 6 
#
# 1 0.018303 -0.004090 0.002212 0.008013 -0.002382 0.000000
# 2 -0.004090 0.018303 0.002212 -0.008013 0.002382 0.000000
# 3 0.002212 0.002212 0.021667 0.000000 0.000000 0.000000
# 4 0.008013 -0.008013 0.000000 0.077233 0.000000 0.004764
# 5 -0.002382 0.002382 0.000000 0.000000 0.077233 0.016025
# 6 0.000000 0.000000 0.000000 0.004764 0.016025 0.044787
#
#
# Mechanical properties :
#
#
# Convention : Reuss Voigt Hill
#
# Bulk Modulus (GPa) = 16.96693 18.14835 17.55764
# Shear Modulus (GPa) = 18.08275 21.93980 20.01127
#
# Velocity S-wave (km/s) = 2.95206 3.25170 3.10550
# Velocity P-wave (km/s) = 4.44933 4.77958 4.61741
#
# Compressibility (1/GPa) = 0.05893817
#
# Stress axis : x y z
#
# Youngs Moduli (GPa) = 54.63571 54.63571 46.15366
#
# Poissons Ratio (x) = 0.22348 -0.10207
# Poissons Ratio (y) = 0.22348 -0.10207
# Poissons Ratio (z) = -0.12083 -0.12083
#
# Static dielectric constant tensor:
#      x y z
#    x 1.790410 0.000000 0.000000 
#    y 0.000000 1.790410 0.000000 
#    z 0.000000 0.000000 1.787160 
# 
# From -- ./inp_files/3430.got.cif
#   From: 2010.05.17/outbox.cif.g08.bks.cpg/sg148_2_cif.got.tgz:3430.got - 2010.05.20 13:50:20.
