data_PCOD9575257
_publ_section_title
;
Structure prediction by ZEFSAII (Michael W. Deem and Ramdas Pophale) SiO2 
 PCOD9575257
Probable space group: R -3
;
_chemical_formula_sum "Si O2"
_cell_formula_units_Z 126
_cell_length_a 30.581408
_cell_length_b 30.581408
_cell_length_c 9.267924
_cell_angle_alpha 90.000000
_cell_angle_beta 90.000000
_cell_angle_gamma 120.000000
_cell_volume 7506.336844
_symmetry_space_group_name_H-M "R -3"
_symmetry_group_IT_number 148
_symmetry_cell_setting 'hexagonal'
loop_
_space_group_symop_operation_xyz
x,y,z
-y,x-y,z
-x+y,-x,z
-x,-y,-z
y,-x+y,-z
x-y,x,-z
2/3+x,1/3+y,1/3+z
2/3-y,1/3+x-y,1/3+z
2/3-x+y,1/3-x,1/3+z
2/3-x,1/3-y,1/3-z
2/3+y,1/3-x+y,1/3-z
2/3+x-y,1/3+x,1/3-z
1/3+x,2/3+y,2/3+z
1/3-y,2/3+x-y,2/3+z
1/3-x+y,2/3-x,2/3+z
1/3-x,2/3-y,2/3-z
1/3+y,2/3-x+y,2/3-z
1/3+x-y,2/3+x,2/3-z
loop_
_atom_site_type_symbol
_atom_site_label
_atom_site_fract_x
_atom_site_fract_y
_atom_site_fract_z
Si Si1 0.336449 0.021062 0.150142
Si Si2 0.960177 0.204565 0.156512
Si Si3 0.421914 0.466551 0.220248
Si Si4 0.568602 0.667789 0.344995
Si Si5 0.741490 0.599487 0.513308
Si Si6 0.434093 0.961911 0.167553
Si Si7 0.833562 0.749722 0.866037
O O1 0.296458 0.039476 0.135576
O O2 0.330156 0.001283 0.319388
O O3 0.393103 0.066105 0.136638
O O4 0.932625 0.185808 0.308156
O O5 0.018894 0.222644 0.150013
O O6 0.931092 0.166591 0.029966
O O7 0.374206 0.438523 0.113397
O O8 0.444195 0.428754 0.245536
O O9 0.470694 0.518229 0.165823
O O10 0.537159 0.611904 0.274151
O O11 0.550883 0.702605 0.428989
O O12 0.743407 0.617849 0.676530
O O13 0.780800 0.580063 0.504195
O O14 0.459336 0.022260 0.190926
#
# Coordination Sequence:
#
# PCOD9575257 Si02
#       7
#    18  18  18  18  18  18  18
#     4  12  23  34  52  78 103 136 187 237 269 316
#     4  12  23  35  52  79 102 137 186 231 268 321
#     4  11  23  35  55  76 103 141 183 227 274 322
#     4  12  19  36  56  72  99 141 183 223 267 321
#     4  11  22  37  55  73 106 144 178 229 283 319
#     4  11  21  38  55  75 105 142 183 230 276 324
#     4  11  23  37  51  76 107 139 180 225 281 323
#
# _framework density 16.785817000000002
#
# number of rings (size 3 to 8) (size 9 to 14) (size 15 to 20)
#    0.000    0.571    7.143    3.429    0.000    3.429 
#    0.000    0.000    0.000    0.000    0.000    0.000 
#    0.000    0.000    0.000   17.143    0.000    0.000 
#
# Total GULP energy -233875.344193 kJ/mol
# GULP energy per Si atom -5568.460576 kJ/mol
# Density = 1.674761 g / cm^3
# Si number density = 16.785817 Si / 1000 Ang^3
#
#
#
# Elastic Constant Matrix: (Units=GPa)
#
#
# Indices 1 2 3 4 5 6 
#
# 1 53.5462 19.1606 6.5125 -4.5948 -1.7653 0.0087
# 2 19.1606 53.5390 6.5090 4.6020 1.7823 0.0019
# 3 6.5125 6.5090 62.6687 0.0155 0.0374 0.0173
# 4 -4.5948 4.6020 0.0155 19.8202 0.0121 1.7801
# 5 -1.7653 1.7823 0.0374 0.0121 19.8432 -4.5909
# 6 0.0087 0.0019 0.0173 1.7801 -4.5909 17.1897
#
#
#
# Elastic Compliance Matrix: (Units=1/GPa)
#
#
# Indices 1 2 3 4 5 6 
#
# 1 0.022664 -0.008651 -0.001460 0.007263 0.002788 -0.000017
# 2 -0.008651 0.022668 -0.001452 -0.007267 -0.002796 0.000009
# 3 -0.001460 -0.001452 0.016260 -0.000012 -0.000036 -0.000024
# 4 0.007263 -0.007267 -0.000012 0.054331 -0.000039 -0.005640
# 5 0.002788 -0.002796 -0.000036 -0.000039 0.054247 0.014491
# 6 -0.000017 0.000009 -0.000024 -0.005640 0.014491 0.062628
#
#
# Mechanical properties :
#
#
# Convention : Reuss Voigt Hill
#
# Bulk Modulus (GPa) = 25.99702 26.01310 26.00506
# Shear Modulus (GPa) = 18.60501 20.54209 19.57355
#
# Velocity S-wave (km/s) = 3.33284 3.50205 3.41849
# Velocity P-wave (km/s) = 5.50741 5.64652 5.57740
#
# Compressibility (1/GPa) = 0.03846594
#
# Stress axis : x y z
#
# Youngs Moduli (GPa) = 44.12349 44.11493 61.50247
#
# Poissons Ratio (x) = 0.38162 0.08980
# Poissons Ratio (y) = 0.38169 0.08930
# Poissons Ratio (z) = 0.06443 0.06405
#
# Static dielectric constant tensor:
#      x y z
#    x 1.602030 0.000000 -0.000020 
#    y 0.000000 1.602040 0.000000 
#    z -0.000020 0.000000 1.656220 
# 
# From -- ./inp_files/1103.got.cif
#   From: 2010.05.17/outbox.cif.g08.bks.cpg/sg148_1_cif.got.tgz:1103.got - 2010.05.20 13:50:20.
