data_PCOD9575827
_publ_section_title
;
Structure prediction by ZEFSAII (Michael W. Deem and Ramdas Pophale) SiO2 
 PCOD9575827
Probable space group: P 31 2 1
;
_chemical_formula_sum "Si O2"
_cell_formula_units_Z 42
_cell_length_a 15.697278
_cell_length_b 15.697278
_cell_length_c 9.843198
_cell_angle_alpha 90.000000
_cell_angle_beta 90.000000
_cell_angle_gamma 120.000000
_cell_volume 2100.465498
_symmetry_space_group_name_H-M "P 31 2 1"
_symmetry_group_IT_number 152
_symmetry_cell_setting 'hexagonal'
loop_
_space_group_symop_operation_xyz
x,y,z
-y,x-y,1/3+z
-x+y,-x,2/3+z
x-y,-y,2/3-z
-x,-x+y,1/3-z
y,x,-z
loop_
_atom_site_type_symbol
_atom_site_label
_atom_site_fract_x
_atom_site_fract_y
_atom_site_fract_z
Si Si1 0.763392 0.368086 0.733362
Si Si2 0.006549 0.662560 0.500443
Si Si3 0.453732 0.730960 0.670223
Si Si4 0.550689 0.772224 0.150541
Si Si5 0.488562 0.945486 0.697262
Si Si6 0.153329 0.336047 0.235346
Si Si7 0.332018 0.033861 0.020388
O O1 0.791579 0.336118 0.873465
O O2 0.645705 0.309934 0.740978
O O3 0.787114 0.315192 0.612386
O O4 0.787391 0.480650 0.737854
O O5 0.115170 0.731452 0.439561
O O6 0.000000 0.661323 0.666667
O O7 0.976335 0.555776 0.437826
O O8 0.930879 0.695147 0.440812
O O9 0.454290 0.830460 0.713383
O O10 0.546551 0.762978 0.577136
O O11 0.628069 0.739190 0.191982
O O12 0.401074 0.970527 0.683909
O O13 0.547450 0.000000 0.833334
O O14 0.072733 0.306792 0.355416
O O15 0.092264 0.311220 0.097617
#
# Coordination Sequence:
#
# PCOD9575827 Si02
#       7
#     6   6   6   6   6   6   6
#     4  10  22  33  54  84 126 167 198 244 299 370
#     4  11  24  38  58  86 127 155 202 265 316 357
#     4  10  20  35  53  79 120 161 204 241 286 365
#     4  11  23  38  56  87 128 165 204 259 321 371
#     4  11  21  34  58  81 113 163 205 236 295 379
#     4  10  22  38  57  82 115 158 209 260 299 364
#     4  11  21  36  61  81 117 157 212 252 303 370
#
# _framework density 19.995566
#
# number of rings (size 3 to 8) (size 9 to 14) (size 15 to 20)
#    0.000    1.429    4.286    1.714    8.000    0.000 
#    0.000    0.714    0.000    0.000    0.000    0.000 
#   77.143    0.000    0.000    0.000    0.000    0.000 
#
# Total GULP energy -233907.247193 kJ/mol
# GULP energy per Si atom -5569.220171 kJ/mol
# Density = 1.995006 g / cm^3
# Si number density = 19.995566 Si / 1000 Ang^3
#
#
#
# Elastic Constant Matrix: (Units=GPa)
#
#
# Indices 1 2 3 4 5 6 
#
# 1 84.3277 32.6301 9.2982 -4.3652 0.0000 0.0000
# 2 32.6301 84.3277 9.2982 4.3652 0.0000 0.0000
# 3 9.2982 9.2982 26.6814 0.0000 0.0000 0.0000
# 4 -4.3652 4.3652 0.0000 22.4580 0.0000 0.0000
# 5 0.0000 0.0000 0.0000 0.0000 22.4580 -4.3652
# 6 0.0000 0.0000 0.0000 0.0000 -4.3652 25.8488
#
#
#
# Elastic Compliance Matrix: (Units=1/GPa)
#
#
# Indices 1 2 3 4 5 6 
#
# 1 0.014526 -0.005474 -0.003154 0.003887 0.000000 0.000000
# 2 -0.005474 0.014526 -0.003154 -0.003887 0.000000 0.000000
# 3 -0.003154 -0.003154 0.039678 0.000000 0.000000 0.000000
# 4 0.003887 -0.003887 0.000000 0.046039 0.000000 0.000000
# 5 0.000000 0.000000 0.000000 0.000000 0.046039 0.007775
# 6 0.000000 0.000000 0.000000 0.000000 0.007775 0.039999
#
#
# Mechanical properties :
#
#
# Convention : Reuss Voigt Hill
#
# Bulk Modulus (GPa) = 22.14176 33.08776 27.61476
# Shear Modulus (GPa) = 20.88325 23.76032 22.32179
#
# Velocity S-wave (km/s) = 3.23521 3.45088 3.34479
# Velocity P-wave (km/s) = 5.00528 5.69751 5.36258
#
# Compressibility (1/GPa) = 0.04516352
#
# Stress axis : x y z
#
# Youngs Moduli (GPa) = 68.84354 68.84354 25.20293
#
# Poissons Ratio (x) = 0.37685 0.07950
# Poissons Ratio (y) = 0.37685 0.07950
# Poissons Ratio (z) = 0.21716 0.21716
#
# Static dielectric constant tensor:
#      x y z
#    x 1.755050 0.000000 0.000000 
#    y 0.000000 1.755050 0.000000 
#    z 0.000000 0.000000 1.849170 
# 
# From -- ./inp_files/1805.got.cif
#   From: 2010.05.17/outbox.cif.g08.bks.cpg/sg152_1_cif.got.tgz:1805.got - 2010.05.20 10:36:06.
