data_PCOD9575939
_publ_section_title
;
Structure prediction by ZEFSAII (Michael W. Deem and Ramdas Pophale) SiO2 
 PCOD9575939
Probable space group: P 31 2 1
;
_chemical_formula_sum "Si O2"
_cell_formula_units_Z 21
_cell_length_a 8.714729
_cell_length_b 8.714729
_cell_length_c 14.942730
_cell_angle_alpha 90.000000
_cell_angle_beta 90.000000
_cell_angle_gamma 120.000000
_cell_volume 982.807255
_symmetry_space_group_name_H-M "P 31 2 1"
_symmetry_group_IT_number 152
_symmetry_cell_setting 'hexagonal'
loop_
_space_group_symop_operation_xyz
x,y,z
-y,x-y,1/3+z
-x+y,-x,2/3+z
x-y,-y,2/3-z
-x,-x+y,1/3-z
y,x,-z
loop_
_atom_site_type_symbol
_atom_site_label
_atom_site_fract_x
_atom_site_fract_y
_atom_site_fract_z
Si Si1 0.282523 0.731494 0.596220
Si Si2 0.199723 0.017923 0.154101
Si Si3 0.357102 0.536936 0.448523
Si Si4 0.351147 0.000000 0.333334
O O1 0.360082 0.699366 0.503727
O O2 0.418015 0.824390 0.677917
O O3 0.154021 0.534366 0.629842
O O4 0.173512 0.831404 0.576370
O O5 0.196012 0.836268 0.123774
O O6 0.000000 0.974744 0.166667
O O7 0.281008 0.066415 0.252828
O O8 0.489665 0.489665 0.500000
#
# Coordination Sequence:
#
# PCOD9575939 Si02
#       4
#     6   6   6   3
#     4  11  20  40  63  93 131 177 225 287 348 418
#     4  10  22  40  63  91 134 177 225 284 350 417
#     4  10  21  37  64  94 126 174 232 284 344 409
#     4  10  22  40  62  94 130 174 222 290 342 416
#
# _framework density 21.367366000000001
#
# number of rings (size 3 to 8) (size 9 to 14) (size 15 to 20)
#    0.000    1.714    2.857    1.714    0.000    1.143 
#    0.000    1.429    0.000    0.000    0.000    0.000 
#    0.000    0.000    0.000    0.000    0.000    0.000 
#
# Total GULP energy -117258.317241 kJ/mol
# GULP energy per Si atom -5583.729392 kJ/mol
# Density = 2.131873 g / cm^3
# Si number density = 21.367366 Si / 1000 Ang^3
#
#
#
# Elastic Constant Matrix: (Units=GPa)
#
#
# Indices 1 2 3 4 5 6 
#
# 1 73.9178 22.0404 22.1672 1.0770 -0.0002 0.0000
# 2 22.0404 73.9178 22.1672 -1.0770 0.0002 0.0000
# 3 22.1672 22.1672 90.1816 0.0000 0.0000 0.0000
# 4 1.0770 -1.0770 0.0000 24.5717 0.0000 0.0002
# 5 -0.0002 0.0002 0.0000 0.0000 24.5717 1.0770
# 6 0.0000 0.0000 0.0000 0.0002 1.0770 25.9387
#
#
#
# Elastic Compliance Matrix: (Units=1/GPa)
#
#
# Indices 1 2 3 4 5 6 
#
# 1 0.015534 -0.003778 -0.002890 -0.000846 0.000000 0.000000
# 2 -0.003778 0.015534 -0.002890 0.000846 0.000000 0.000000
# 3 -0.002890 -0.002890 0.012509 0.000000 0.000000 0.000000
# 4 -0.000846 0.000846 0.000000 0.040771 0.000000 0.000000
# 5 0.000000 0.000000 0.000000 0.000000 0.040771 -0.001693
# 6 0.000000 0.000000 0.000000 0.000000 -0.001693 0.038623
#
#
# Mechanical properties :
#
#
# Convention : Reuss Voigt Hill
#
# Bulk Modulus (GPa) = 40.87817 41.19631 41.03724
# Shear Modulus (GPa) = 26.17649 26.45924 26.31786
#
# Velocity S-wave (km/s) = 3.50389 3.52277 3.51334
# Velocity P-wave (km/s) = 5.96174 5.98902 5.97540
#
# Compressibility (1/GPa) = 0.02446294
#
# Stress axis : x y z
#
# Youngs Moduli (GPa) = 64.37554 64.37554 79.93990
#
# Poissons Ratio (x) = 0.24318 0.23101
# Poissons Ratio (y) = 0.24318 0.23101
# Poissons Ratio (z) = 0.18603 0.18603
#
# Static dielectric constant tensor:
#      x y z
#    x 1.781100 0.000000 0.000000 
#    y 0.000000 1.781100 0.000000 
#    z 0.000000 0.000000 1.757940 
# 
# From -- ./inp_files/2246.got.cif
#   From: 2010.05.17/outbox.cif.g08.bks.cpg/sg152_2_cif.got.tgz:2246.got - 2010.05.20 10:36:06.
