data_PCOD9575410
_publ_section_title
;
Structure prediction by ZEFSAII (Michael W. Deem and Ramdas Pophale) SiO2 
 PCOD9575410
Probable space group: P 3 2 1
;
_chemical_formula_sum "Si O2"
_cell_formula_units_Z 24
_cell_length_a 15.162315
_cell_length_b 15.162315
_cell_length_c 7.327714
_cell_angle_alpha 90.000000
_cell_angle_beta 90.000000
_cell_angle_gamma 120.000000
_cell_volume 1458.915613
_symmetry_space_group_name_H-M "P 3 2 1"
_symmetry_group_IT_number 150
_symmetry_cell_setting 'hexagonal'
loop_
_space_group_symop_operation_xyz
x,y,z
-y,x-y,z
-x+y,-x,z
x-y,-y,-z
-x,-x+y,-z
y,x,-z
loop_
_atom_site_type_symbol
_atom_site_label
_atom_site_fract_x
_atom_site_fract_y
_atom_site_fract_z
Si Si1 0.245262 0.878285 0.500000
Si Si2 0.404284 0.281445 0.788212
Si Si3 0.549531 0.427117 0.500000
Si Si4 0.404284 0.281445 0.211788
O O1 0.176721 0.823858 0.322892
O O2 0.334414 0.848829 0.499999
O O3 0.176721 0.823858 0.677108
O O4 0.297269 0.000000 0.500000
O O5 0.508081 0.355777 0.678177
O O6 0.334132 0.334132 0.775775
O O7 0.421431 0.270225 1.000000
O O8 0.488648 0.488648 0.500000
O O9 0.508082 0.355778 0.321823
#
# Coordination Sequence:
#
# PCOD9575410 Si02
#       4
#     6   6   6   6
#     4  10  19  31  51  77 101 125 161 208 246 282
#     4   9  18  34  53  70  96 135 168 195 238 294
#     4   8  16  31  48  67  94 125 158 198 241 284
#     4   9  18  34  53  70  96 135 168 195 238 294
#
# _framework density 16.450575000000001
#
# number of rings (size 3 to 8) (size 9 to 14) (size 15 to 20)
#    0.000    3.000    0.000    2.250    0.000    3.000 
#   12.000    5.000    0.000    4.000    0.000    0.000 
#    0.000    0.000    0.000    0.000    0.000    0.000 
#
# Total GULP energy -133602.873332 kJ/mol
# GULP energy per Si atom -5566.786389 kJ/mol
# Density = 1.641313 g / cm^3
# Si number density = 16.450575 Si / 1000 Ang^3
#
#
#
# Elastic Constant Matrix: (Units=GPa)
#
#
# Indices 1 2 3 4 5 6 
#
# 1 61.9949 14.0958 50.1727 0.0001 0.0000 0.0000
# 2 14.0958 61.9949 50.1727 -0.0001 0.0000 0.0000
# 3 50.1727 50.1727 178.5628 0.0000 0.0000 0.0000
# 4 0.0001 -0.0001 0.0000 10.2129 0.0000 0.0000
# 5 0.0000 0.0000 0.0000 0.0000 10.2129 0.0001
# 6 0.0000 0.0000 0.0000 0.0000 0.0001 23.9495
#
#
#
# Elastic Compliance Matrix: (Units=1/GPa)
#
#
# Indices 1 2 3 4 5 6 
#
# 1 0.020878 0.000001 -0.005867 0.000000 0.000000 0.000000
# 2 0.000001 0.020878 -0.005867 0.000000 0.000000 0.000000
# 3 -0.005867 -0.005867 0.008897 0.000000 0.000000 0.000000
# 4 0.000000 0.000000 0.000000 0.097915 0.000000 0.000000
# 5 0.000000 0.000000 0.000000 0.000000 0.097915 0.000000
# 6 0.000000 0.000000 0.000000 0.000000 0.000000 0.041754
#
#
# Mechanical properties :
#
#
# Convention : Reuss Voigt Hill
#
# Bulk Modulus (GPa) = 36.78035 59.04834 47.91434
# Shear Modulus (GPa) = 15.58772 21.41583 18.50177
#
# Velocity S-wave (km/s) = 3.08157 3.61200 3.35728
# Velocity P-wave (km/s) = 5.92183 7.30532 6.64965
#
# Compressibility (1/GPa) = 0.02718843
#
# Stress axis : x y z
#
# Youngs Moduli (GPa) = 47.89732 47.89732 112.39704
#
# Poissons Ratio (x) = -0.00004 0.65938
# Poissons Ratio (y) = -0.00004 0.65938
# Poissons Ratio (z) = 0.28099 0.28099
#
# Static dielectric constant tensor:
#      x y z
#    x 1.561550 0.000000 0.000000 
#    y 0.000000 1.561550 0.000000 
#    z 0.000000 0.000000 1.547080 
# 
# From -- ./inp_files/505.got.cif
#   From: 2010.05.17/outbox.cif.g08.bks.cpg/sg150_cif.got.tgz:505.got - 2010.05.20 13:53:18.
