data_PCOD9575966
_publ_section_title
;
Structure prediction by ZEFSAII (Michael W. Deem and Ramdas Pophale) SiO2 
 PCOD9575966
Probable space group: P 31 2 1
;
_chemical_formula_sum "Si O2"
_cell_formula_units_Z 39
_cell_length_a 9.698336
_cell_length_b 9.698336
_cell_length_c 24.368170
_cell_angle_alpha 90.000000
_cell_angle_beta 90.000000
_cell_angle_gamma 120.000000
_cell_volume 1984.942817
_symmetry_space_group_name_H-M "P 31 2 1"
_symmetry_group_IT_number 152
_symmetry_cell_setting 'hexagonal'
loop_
_space_group_symop_operation_xyz
x,y,z
-y,x-y,1/3+z
-x+y,-x,2/3+z
x-y,-y,2/3-z
-x,-x+y,1/3-z
y,x,-z
loop_
_atom_site_type_symbol
_atom_site_label
_atom_site_fract_x
_atom_site_fract_y
_atom_site_fract_z
Si Si1 0.716477 0.399490 0.025666
Si Si2 0.372881 0.765032 0.180853
Si Si3 0.419967 0.419967 0.000000
Si Si4 0.772687 0.051325 0.444850
Si Si5 0.859596 0.145866 0.876243
Si Si6 0.142016 0.445203 0.127066
Si Si7 0.605552 0.076421 0.970634
O O1 0.694972 0.418567 0.090329
O O2 0.592181 0.435216 0.993910
O O3 0.897264 0.515781 0.007663
O O4 0.670004 0.217753 0.014329
O O5 0.562637 0.859995 0.184726
O O6 0.297054 0.860114 0.151735
O O7 0.301686 0.600648 0.147386
O O8 0.341794 0.307802 0.052208
O O9 0.961871 0.153592 0.442912
O O10 0.704922 0.871138 0.463780
O O11 0.746822 0.101761 0.929511
O O12 0.782051 0.000000 0.833334
O O13 0.098442 0.480383 0.067242
O O14 0.000000 0.421287 0.166667
#
# Coordination Sequence:
#
# PCOD9575966 Si02
#       7
#     6   6   3   6   6   6   6
#     4  11  22  43  64  89 129 169 212 263 336 384
#     4  10  21  40  64  90 127 165 214 265 317 386
#     4  10  24  42  60  90 134 162 208 278 322 390
#     4  11  23  38  65  92 128 168 212 263 325 376
#     4  11  22  43  64  93 130 169 216 272 318 381
#     4  11  20  41  62  92 122 162 217 264 308 378
#     4  11  23  40  66  91 125 173 211 260 327 388
#
# _framework density 19.647922000000001
#
# number of rings (size 3 to 8) (size 9 to 14) (size 15 to 20)
#    0.000    1.231    4.615    2.308    4.308    0.000 
#    0.000    2.308    0.000    0.000    0.000    0.000 
#    0.000    0.000    0.000    0.000    0.000    0.000 
#
# Total GULP energy -217964.704853 kJ/mol
# GULP energy per Si atom -5588.838586 kJ/mol
# Density = 1.960320 g / cm^3
# Si number density = 19.647922 Si / 1000 Ang^3
#
#
#
# Elastic Constant Matrix: (Units=GPa)
#
#
# Indices 1 2 3 4 5 6 
#
# 1 110.0765 45.1701 9.0331 9.5754 -0.0001 0.0000
# 2 45.1701 110.0765 9.0331 -9.5754 0.0001 0.0000
# 3 9.0331 9.0331 32.3476 0.0000 0.0000 0.0000
# 4 9.5754 -9.5754 0.0000 15.3546 0.0000 0.0001
# 5 -0.0001 0.0001 0.0000 0.0000 15.3546 9.5754
# 6 0.0000 0.0000 0.0000 0.0001 9.5754 32.4532
#
#
#
# Elastic Compliance Matrix: (Units=1/GPa)
#
#
# Indices 1 2 3 4 5 6 
#
# 1 0.012769 -0.006112 -0.001859 -0.011774 0.000000 0.000000
# 2 -0.006112 0.012769 -0.001859 0.011774 0.000000 0.000000
# 3 -0.001859 -0.001859 0.031953 0.000000 0.000000 0.000000
# 4 -0.011774 0.011774 0.000000 0.079813 0.000000 0.000000
# 5 0.000000 0.000000 0.000000 0.000000 0.079813 -0.023549
# 6 0.000000 0.000000 0.000000 0.000000 -0.023549 0.037762
#
#
# Mechanical properties :
#
#
# Convention : Reuss Voigt Hill
#
# Bulk Modulus (GPa) = 26.43315 42.10812 34.27063
# Shear Modulus (GPa) = 17.41262 25.25009 21.33135
#
# Velocity S-wave (km/s) = 2.98019 3.58876 3.29854
# Velocity P-wave (km/s) = 5.03236 6.21692 5.65574
#
# Compressibility (1/GPa) = 0.03783129
#
# Stress axis : x y z
#
# Youngs Moduli (GPa) = 78.31291 78.31291 31.29643
#
# Poissons Ratio (x) = 0.47861 0.05819
# Poissons Ratio (y) = 0.47861 0.05819
# Poissons Ratio (z) = 0.14560 0.14560
#
# Static dielectric constant tensor:
#      x y z
#    x 1.688380 0.000000 0.000000 
#    y 0.000000 1.688380 0.000000 
#    z 0.000000 0.000000 1.691140 
# 
# From -- ./inp_files/3641.got.cif
#   From: 2010.05.17/outbox.cif.g08.bks.cpg/sg152_2_cif.got.tgz:3641.got - 2010.05.20 10:36:06.
