data_PCOD9575466
_publ_section_title
;
Structure prediction by ZEFSAII (Michael W. Deem and Ramdas Pophale) SiO2 
 PCOD9575466
Probable space group: P 3 2 1
;
_chemical_formula_sum "Si O2"
_cell_formula_units_Z 18
_cell_length_a 7.446675
_cell_length_b 7.446675
_cell_length_c 16.228290
_cell_angle_alpha 90.000000
_cell_angle_beta 90.000000
_cell_angle_gamma 120.000000
_cell_volume 779.342198
_symmetry_space_group_name_H-M "P 3 2 1"
_symmetry_group_IT_number 150
_symmetry_cell_setting 'hexagonal'
loop_
_space_group_symop_operation_xyz
x,y,z
-y,x-y,z
-x+y,-x,z
x-y,-y,-z
-x,-x+y,-z
y,x,-z
loop_
_atom_site_type_symbol
_atom_site_label
_atom_site_fract_x
_atom_site_fract_y
_atom_site_fract_z
Si Si1 0.446491 0.359164 0.590064
Si Si2 0.795571 0.053123 0.250000
Si Si3 0.912673 0.553509 0.909936
O O1 0.463686 0.151107 0.595520
O O2 0.364626 0.364626 0.500000
O O3 0.317662 0.370993 0.666380
O O4 0.682337 0.053330 0.166380
O O5 0.790391 0.830796 0.250000
O O6 0.687421 0.536314 0.904480
O O7 0.000000 0.635375 0.000000
#
# Coordination Sequence:
#
# PCOD9575466 Si02
#       3
#     6   6   6
#     4  10  24  41  65  94 132 166 213 268 318 383
#     4  10  24  38  68  86 124 170 216 258 322 380
#     4  10  24  41  65  94 132 166 213 268 318 383
#
# _framework density 23.096401
#
# number of rings (size 3 to 8) (size 9 to 14) (size 15 to 20)
#    2.000    0.000    0.000    2.000    9.333    0.000 
#    0.000    0.000    0.000    0.000    0.000    0.000 
#    0.000    0.000    0.000    0.000    0.000    0.000 
#
# Total GULP energy -100390.854835 kJ/mol
# GULP energy per Si atom -5577.269713 kJ/mol
# Density = 2.304383 g / cm^3
# Si number density = 23.096401 Si / 1000 Ang^3
#
#
#
# Elastic Constant Matrix: (Units=GPa)
#
#
# Indices 1 2 3 4 5 6 
#
# 1 43.2124 5.1849 32.5343 0.0001 0.0000 0.0000
# 2 5.1849 43.2124 32.5343 -0.0001 0.0000 0.0000
# 3 32.5343 32.5343 223.2028 0.0000 0.0000 0.0000
# 4 0.0001 -0.0001 0.0000 44.1449 0.0000 0.0000
# 5 0.0000 0.0000 0.0000 0.0000 44.1449 0.0001
# 6 0.0000 0.0000 0.0000 0.0000 0.0001 19.0137
#
#
#
# Elastic Compliance Matrix: (Units=1/GPa)
#
#
# Indices 1 2 3 4 5 6 
#
# 1 0.025998 -0.000299 -0.003746 0.000000 0.000000 0.000000
# 2 -0.000299 0.025998 -0.003746 0.000000 0.000000 0.000000
# 3 -0.003746 -0.003746 0.005572 0.000000 0.000000 0.000000
# 4 0.000000 0.000000 0.000000 0.022653 0.000000 0.000000
# 5 0.000000 0.000000 0.000000 0.000000 0.022653 0.000000
# 6 0.000000 0.000000 0.000000 0.000000 0.000000 0.052594
#
#
# Mechanical properties :
#
#
# Convention : Reuss Voigt Hill
#
# Bulk Modulus (GPa) = 23.81759 50.01498 36.91628
# Shear Modulus (GPa) = 27.02069 37.41897 32.21983
#
# Velocity S-wave (km/s) = 3.42410 4.02944 3.73904
# Velocity P-wave (km/s) = 5.09581 6.58410 5.88718
#
# Compressibility (1/GPa) = 0.04198578
#
# Stress axis : x y z
#
# Youngs Moduli (GPa) = 38.46505 38.46505 179.46149
#
# Poissons Ratio (x) = 0.01151 0.67223
# Poissons Ratio (y) = 0.01151 0.67223
# Poissons Ratio (z) = 0.14408 0.14408
#
# Static dielectric constant tensor:
#      x y z
#    x 1.894550 0.000000 0.000000 
#    y 0.000000 1.894550 0.000000 
#    z 0.000000 0.000000 1.794610 
# 
# From -- ./inp_files/850.got.cif
#   From: 2010.05.17/outbox.cif.g08.bks.cpg/sg150_cif.got.tgz:850.got - 2010.05.20 13:53:18.
