data_PCOD9575770
_publ_section_title
;
Structure prediction by ZEFSAII (Michael W. Deem and Ramdas Pophale) SiO2 
 PCOD9575770
Probable space group: P 31 2 1
;
_chemical_formula_sum "Si O2"
_cell_formula_units_Z 24
_cell_length_a 12.146413
_cell_length_b 12.146413
_cell_length_c 8.447274
_cell_angle_alpha 90.000000
_cell_angle_beta 90.000000
_cell_angle_gamma 120.000000
_cell_volume 1079.302793
_symmetry_space_group_name_H-M "P 31 2 1"
_symmetry_group_IT_number 152
_symmetry_cell_setting 'hexagonal'
loop_
_space_group_symop_operation_xyz
x,y,z
-y,x-y,1/3+z
-x+y,-x,2/3+z
x-y,-y,2/3-z
-x,-x+y,1/3-z
y,x,-z
loop_
_atom_site_type_symbol
_atom_site_label
_atom_site_fract_x
_atom_site_fract_y
_atom_site_fract_z
Si Si1 0.718836 0.058261 0.660779
Si Si2 0.419775 0.116740 0.177620
Si Si3 0.829254 0.528885 0.544600
Si Si4 0.100343 0.484769 0.311041
O O1 0.849951 0.180935 0.615366
O O2 0.618748 0.109256 0.664952
O O3 0.655856 0.951604 0.522816
O O4 0.715172 0.000000 0.833334
O O5 0.557654 0.144238 0.239614
O O6 0.358312 0.972394 0.117089
O O7 0.448488 0.211986 0.028229
O O8 0.730055 0.493589 0.400377
O O9 0.000000 0.421343 0.166667
#
# Coordination Sequence:
#
# PCOD9575770 Si02
#       4
#     6   6   6   6
#     4  10  20  33  49  77 112 147 189 238 291 353
#     4  10  19  32  52  78 109 148 188 232 294 357
#     4  10  19  33  53  76 109 145 187 237 289 360
#     4   8  17  32  49  73 106 144 182 231 292 348
#
# _framework density 22.236578000000002
#
# number of rings (size 3 to 8) (size 9 to 14) (size 15 to 20)
#    0.000    2.500    0.000    3.750    0.000    2.000 
#    0.000    3.750    0.000    0.000    0.000   15.750 
#    0.000    0.000    0.000    1.250    0.000    0.000 
#
# Total GULP energy -134063.951255 kJ/mol
# GULP energy per Si atom -5585.997969 kJ/mol
# Density = 2.218597 g / cm^3
# Si number density = 22.236578 Si / 1000 Ang^3
#
#
#
# Elastic Constant Matrix: (Units=GPa)
#
#
# Indices 1 2 3 4 5 6 
#
# 1 46.6723 1.4221 29.7312 1.0460 0.0000 0.0000
# 2 1.4221 46.6723 29.7312 -1.0460 0.0000 0.0000
# 3 29.7312 29.7312 82.8230 0.0000 0.0000 0.0000
# 4 1.0460 -1.0460 0.0000 40.8527 0.0000 0.0000
# 5 0.0000 0.0000 0.0000 0.0000 40.8527 1.0460
# 6 0.0000 0.0000 0.0000 0.0000 1.0460 22.6251
#
#
#
# Elastic Compliance Matrix: (Units=1/GPa)
#
#
# Indices 1 2 3 4 5 6 
#
# 1 0.029755 0.007629 -0.013420 -0.000567 0.000000 0.000000
# 2 0.007629 0.029755 -0.013420 0.000567 0.000000 0.000000
# 3 -0.013420 -0.013420 0.021709 0.000000 0.000000 0.000000
# 4 -0.000567 0.000567 0.000000 0.024507 0.000000 0.000000
# 5 0.000000 0.000000 0.000000 0.000000 0.024507 -0.001133
# 6 0.000000 0.000000 0.000000 0.000000 -0.001133 0.044251
#
#
# Mechanical properties :
#
#
# Convention : Reuss Voigt Hill
#
# Bulk Modulus (GPa) = 23.36572 33.10407 28.23489
# Shear Modulus (GPa) = 22.00984 28.55167 25.28075
#
# Velocity S-wave (km/s) = 3.14953 3.58718 3.37545
# Velocity P-wave (km/s) = 4.87408 5.66362 5.28362
#
# Compressibility (1/GPa) = 0.04279774
#
# Stress axis : x y z
#
# Youngs Moduli (GPa) = 33.60778 33.60778 46.06435
#
# Poissons Ratio (x) = -0.25641 0.61818
# Poissons Ratio (y) = -0.25641 0.61818
# Poissons Ratio (z) = 0.45102 0.45102
#
# Static dielectric constant tensor:
#      x y z
#    x 1.790060 0.000000 0.000000 
#    y 0.000000 1.790060 0.000000 
#    z 0.000000 0.000000 1.971800 
# 
# From -- ./inp_files/953.got.cif
#   From: 2010.05.17/outbox.cif.g08.bks.cpg/sg152_1_cif.got.tgz:953.got - 2010.05.20 10:36:06.
