data_PCOD9575211
_publ_section_title
;
Structure prediction by ZEFSAII (Michael W. Deem and Ramdas Pophale) SiO2 
 PCOD9575211
Probable space group: R -3
;
_chemical_formula_sum "Si O2"
_cell_formula_units_Z 54
_cell_length_a 11.213209
_cell_length_b 11.213209
_cell_length_c 19.888137
_cell_angle_alpha 90.000000
_cell_angle_beta 90.000000
_cell_angle_gamma 120.000000
_cell_volume 2165.631543
_symmetry_space_group_name_H-M "R -3"
_symmetry_group_IT_number 148
_symmetry_cell_setting 'hexagonal'
loop_
_space_group_symop_operation_xyz
x,y,z
-y,x-y,z
-x+y,-x,z
-x,-y,-z
y,-x+y,-z
x-y,x,-z
2/3+x,1/3+y,1/3+z
2/3-y,1/3+x-y,1/3+z
2/3-x+y,1/3-x,1/3+z
2/3-x,1/3-y,1/3-z
2/3+y,1/3-x+y,1/3-z
2/3+x-y,1/3+x,1/3-z
1/3+x,2/3+y,2/3+z
1/3-y,2/3+x-y,2/3+z
1/3-x+y,2/3-x,2/3+z
1/3-x,2/3-y,2/3-z
1/3+y,2/3-x+y,2/3-z
1/3+x-y,2/3+x,2/3-z
loop_
_atom_site_type_symbol
_atom_site_label
_atom_site_fract_x
_atom_site_fract_y
_atom_site_fract_z
Si Si1 0.352748 0.189040 0.345162
Si Si2 0.675433 0.093198 0.854464
Si Si3 0.497745 0.198010 0.113279
O O1 0.454703 0.351253 0.354618
O O2 0.298352 0.107814 0.414421
O O3 0.230070 0.166538 0.295316
O O4 0.539217 0.104441 0.867262
O O5 0.616109 0.930446 0.844770
O O6 0.640309 0.195929 0.124419
#
# Coordination Sequence:
#
# PCOD9575211 Si02
#       3
#    18  18  18
#     4  10  23  45  73  97 133 181 227 266 329 413
#     4  11  26  42  67 101 138 169 225 285 335 383
#     4   9  23  44  68  94 134 182 225 264 332 410
#
# _framework density 24.934991
#
# number of rings (size 3 to 8) (size 9 to 14) (size 15 to 20)
#    0.667    1.333    0.000    0.667    9.333    4.000 
#    6.000    0.000    0.000    0.000    0.000    0.000 
#    0.000    0.000    0.000    0.000    0.000    0.000 
#
# Total GULP energy -100521.464924 kJ/mol
# GULP energy per Si atom -5584.525829 kJ/mol
# Density = 2.487824 g / cm^3
# Si number density = 24.934991 Si / 1000 Ang^3
#
#
#
# Elastic Constant Matrix: (Units=GPa)
#
#
# Indices 1 2 3 4 5 6 
#
# 1 154.9478 75.9674 41.5842 8.4648 13.6409 0.0000
# 2 75.9674 154.9478 41.5842 -8.4648 -13.6409 0.0000
# 3 41.5842 41.5842 90.0355 0.0000 0.0000 0.0000
# 4 8.4648 -8.4648 0.0000 34.4743 0.0000 -13.6409
# 5 13.6409 -13.6409 0.0000 0.0000 34.4743 8.4648
# 6 0.0000 0.0000 0.0000 -13.6409 8.4648 39.4902
#
#
#
# Elastic Compliance Matrix: (Units=1/GPa)
#
#
# Indices 1 2 3 4 5 6 
#
# 1 0.010406 -0.005212 -0.002399 -0.003835 -0.006180 0.000000
# 2 -0.005212 0.010406 -0.002399 0.003835 0.006180 0.000000
# 3 -0.002399 -0.002399 0.013323 0.000000 0.000000 0.000000
# 4 -0.003835 0.003835 0.000000 0.035781 0.000000 0.012360
# 5 -0.006180 0.006180 0.000000 0.000000 0.035781 -0.007670
# 6 0.000000 0.000000 0.000000 0.012360 -0.007670 0.031236
#
#
# Mechanical properties :
#
#
# Convention : Reuss Voigt Hill
#
# Bulk Modulus (GPa) = 70.84454 79.80030 75.32242
# Shear Modulus (GPa) = 30.92931 37.74079 34.33505
#
# Velocity S-wave (km/s) = 3.52575 3.89468 3.71480
# Velocity P-wave (km/s) = 6.71177 7.23170 6.97658
#
# Compressibility (1/GPa) = 0.01411541
#
# Stress axis : x y z
#
# Youngs Moduli (GPa) = 96.09488 96.09488 75.05822
#
# Poissons Ratio (x) = 0.50081 0.18008
# Poissons Ratio (y) = 0.50081 0.18008
# Poissons Ratio (z) = 0.23056 0.23056
#
# Static dielectric constant tensor:
#      x y z
#    x 2.018870 0.000000 0.000000 
#    y 0.000000 2.018870 0.000000 
#    z 0.000000 0.000000 1.955450 
# 
# From -- ./inp_files/2933.got.cif
#   From: 2010.05.17/outbox.cif.g08.bks.cpg/sg148_2_cif.got.tgz:2933.got - 2010.05.20 13:50:20.
