data_PCOD9575344
_publ_section_title
;
Structure prediction by ZEFSAII (Michael W. Deem and Ramdas Pophale) SiO2 
 PCOD9575344
Probable space group: P 3 1 2
;
_chemical_formula_sum "Si O2"
_cell_formula_units_Z 32
_cell_length_a 16.520095
_cell_length_b 16.520095
_cell_length_c 7.198946
_cell_angle_alpha 90.000000
_cell_angle_beta 90.000000
_cell_angle_gamma 120.000000
_cell_volume 1701.471302
_symmetry_space_group_name_H-M "P 3 1 2"
_symmetry_group_IT_number 149
_symmetry_cell_setting 'hexagonal'
loop_
_space_group_symop_operation_xyz
x,y,z
-y,x-y,z
-x+y,-x,z
-y,-x,-z
-x+y,y,-z
x,x-y,-z
loop_
_atom_site_type_symbol
_atom_site_label
_atom_site_fract_x
_atom_site_fract_y
_atom_site_fract_z
Si Si1 0.436586 0.033144 0.266364
Si Si2 0.090024 0.730384 0.990241
Si Si3 0.000000 0.000000 0.773955
Si Si4 0.813168 0.210712 0.292714
Si Si5 0.405190 0.031763 0.707217
Si Si6 0.961214 0.803710 0.822960
O O1 0.444945 0.131568 0.205466
O O2 0.403425 0.023779 0.482426
O O3 0.533050 0.034194 0.245198
O O4 0.357714 0.949221 0.147276
O O5 0.049987 0.685148 0.191158
O O6 0.199648 0.800353 0.000000
O O7 0.043142 0.788664 0.905343
O O8 0.994975 0.902721 0.723438
O O9 0.000000 0.000000 0.000000
O O10 0.782392 0.217609 0.500000
O O11 0.717886 0.125197 0.217891
O O12 0.891839 0.179539 0.294108
O O13 0.900450 0.800899 0.000000
#
# Coordination Sequence:
#
# PCOD9575344 Si02
#       6
#     6   6   2   6   6   6
#     4   9  21  36  55  85 110 146 183 221 278 326
#     4  11  21  33  56  81 104 143 186 222 271 326
#     4   9  18  27  46  68 106 141 178 215 244 309
#     4   9  18  33  52  76 109 145 181 219 262 318
#     4  10  19  37  58  79 116 143 179 231 270 323
#     4  10  17  30  47  72 102 142 180 211 259 303
#
# _framework density 18.807252999999999
#
# number of rings (size 3 to 8) (size 9 to 14) (size 15 to 20)
#    0.000    2.250    1.875    2.250    0.000    0.750 
#    1.125    0.938    0.000    3.000    0.000    0.000 
#    0.000    0.000    0.000    0.000    0.000    0.000 
#
# Total GULP energy -178271.602080 kJ/mol
# GULP energy per Si atom -5570.987565 kJ/mol
# Density = 1.876445 g / cm^3
# Si number density = 18.807253 Si / 1000 Ang^3
#
#
#
# Elastic Constant Matrix: (Units=GPa)
#
#
# Indices 1 2 3 4 5 6 
#
# 1 87.7663 53.8081 10.6080 -0.0003 -5.1445 0.0000
# 2 53.8081 87.7663 10.6080 0.0003 5.1445 0.0000
# 3 10.6080 10.6080 56.2062 0.0000 0.0000 0.0000
# 4 -0.0003 0.0003 0.0000 6.2076 0.0000 5.1445
# 5 -5.1445 5.1445 0.0000 0.0000 6.2076 -0.0003
# 6 0.0000 0.0000 0.0000 5.1445 -0.0003 16.9791
#
#
#
# Elastic Compliance Matrix: (Units=1/GPa)
#
#
# Indices 1 2 3 4 5 6 
#
# 1 0.023295 -0.016026 -0.001372 0.000002 0.032588 0.000000
# 2 -0.016026 0.023295 -0.001372 -0.000002 -0.032588 0.000000
# 3 -0.001372 -0.001372 0.018309 0.000000 0.000000 0.000000
# 4 0.000002 -0.000002 0.000000 0.215109 0.000000 -0.065176
# 5 0.032588 -0.032588 0.000000 0.000000 0.215109 0.000004
# 6 0.000000 0.000000 0.000000 -0.065176 0.000004 0.078644
#
#
# Mechanical properties :
#
#
# Convention : Reuss Voigt Hill
#
# Bulk Modulus (GPa) = 36.54985 42.42076 39.48531
# Shear Modulus (GPa) = 8.05902 16.32648 12.19275
#
# Velocity S-wave (km/s) = 2.07228 2.94954 2.54894
# Velocity P-wave (km/s) = 5.02015 5.84844 5.45005
#
# Compressibility (1/GPa) = 0.02735989
#
# Stress axis : x y z
#
# Youngs Moduli (GPa) = 42.92675 42.92675 54.61649
#
# Poissons Ratio (x) = 0.68796 0.07493
# Poissons Ratio (y) = 0.68796 0.07493
# Poissons Ratio (z) = 0.05889 0.05889
#
# Static dielectric constant tensor:
#      x y z
#    x 1.671270 0.000000 0.000000 
#    y 0.000000 1.671270 0.000000 
#    z 0.000000 0.000000 1.715430 
# 
# From -- ./inp_files/604.got.cif
#   From: 2010.05.17/outbox.cif.g08.bks.cpg/sg149_cif.got.tgz:604.got - 2010.05.20 13:52:34.
