data_PCOD9575761
_publ_section_title
;
Structure prediction by ZEFSAII (Michael W. Deem and Ramdas Pophale) SiO2 
 PCOD9575761
Probable space group: P 31 2 1
;
_chemical_formula_sum "Si O2"
_cell_formula_units_Z 33
_cell_length_a 14.053475
_cell_length_b 14.053475
_cell_length_c 9.232540
_cell_angle_alpha 90.000000
_cell_angle_beta 90.000000
_cell_angle_gamma 120.000000
_cell_volume 1579.135077
_symmetry_space_group_name_H-M "P 31 2 1"
_symmetry_group_IT_number 152
_symmetry_cell_setting 'hexagonal'
loop_
_space_group_symop_operation_xyz
x,y,z
-y,x-y,1/3+z
-x+y,-x,2/3+z
x-y,-y,2/3-z
-x,-x+y,1/3-z
y,x,-z
loop_
_atom_site_type_symbol
_atom_site_label
_atom_site_fract_x
_atom_site_fract_y
_atom_site_fract_z
Si Si1 0.405527 0.052306 0.980575
Si Si2 0.661384 0.000000 0.833334
Si Si3 0.653943 0.486105 0.225344
Si Si4 0.646075 0.872741 0.338824
Si Si5 0.508155 0.356898 0.739484
Si Si6 0.188112 0.742717 0.359379
O O1 0.524039 0.138388 0.049682
O O2 0.350060 0.947568 0.085062
O O3 0.338541 0.112547 0.932686
O O4 0.421010 0.000000 0.833334
O O5 0.755529 0.106168 0.752653
O O6 0.579264 0.942277 0.699919
O O7 0.736671 0.476213 0.338184
O O8 0.537127 0.382113 0.265403
O O9 0.698631 0.490080 0.063383
O O10 0.547216 0.868013 0.436156
O O11 0.614744 0.828512 0.176314
O O12 0.740355 0.000000 0.333334
#
# Coordination Sequence:
#
# PCOD9575761 Si02
#       6
#     6   3   6   6   6   6
#     4  12  23  43  68 100 135 181 234 280 348 420
#     4  10  18  42  60  84 132 174 220 264 326 404
#     4  11  24  41  63  99 134 187 223 274 340 424
#     4  12  26  42  64  99 135 184 230 289 341 405
#     4  11  22  39  67  91 137 175 218 274 342 416
#     4  11  25  39  64  97 143 178 223 274 342 421
#
# _framework density 20.897516
#
# number of rings (size 3 to 8) (size 9 to 14) (size 15 to 20)
#    0.000    0.727    6.364    1.091    5.091    0.727 
#    0.000    0.000    0.000    0.000   14.182    0.000 
#    0.000    0.000    0.000    0.000    0.000    0.000 
#
# Total GULP energy -183848.448472 kJ/mol
# GULP energy per Si atom -5571.165105 kJ/mol
# Density = 2.084995 g / cm^3
# Si number density = 20.897516 Si / 1000 Ang^3
#
#
#
# Elastic Constant Matrix: (Units=GPa)
#
#
# Indices 1 2 3 4 5 6 
#
# 1 69.3175 23.7834 2.4007 2.4553 0.0000 0.0000
# 2 23.7834 69.3175 2.4007 -2.4553 0.0000 0.0000
# 3 2.4007 2.4007 115.5464 0.0000 0.0000 0.0000
# 4 2.4553 -2.4553 0.0000 15.6812 0.0000 0.0000
# 5 0.0000 0.0000 0.0000 0.0000 15.6812 2.4553
# 6 0.0000 0.0000 0.0000 0.0000 2.4553 22.7671
#
#
#
# Elastic Compliance Matrix: (Units=1/GPa)
#
#
# Indices 1 2 3 4 5 6 
#
# 1 0.016546 -0.005793 -0.000223 -0.003498 0.000000 0.000000
# 2 -0.005793 0.016546 -0.000223 0.003498 0.000000 0.000000
# 3 -0.000223 -0.000223 0.008664 0.000000 0.000000 0.000000
# 4 -0.003498 0.003498 0.000000 0.064866 0.000000 0.000000
# 5 0.000000 0.000000 0.000000 0.000000 0.064866 -0.006996
# 6 0.000000 0.000000 0.000000 0.000000 -0.006996 0.044678
#
#
# Mechanical properties :
#
#
# Convention : Reuss Voigt Hill
#
# Bulk Modulus (GPa) = 34.15847 34.59455 34.37651
# Shear Modulus (GPa) = 20.97290 25.86568 23.41929
#
# Velocity S-wave (km/s) = 3.17141 3.52197 3.35128
# Velocity P-wave (km/s) = 5.45818 5.75581 5.60897
#
# Compressibility (1/GPa) = 0.02927531
#
# Stress axis : x y z
#
# Youngs Moduli (GPa) = 60.43882 60.43882 115.42258
#
# Poissons Ratio (x) = 0.35013 0.02579
# Poissons Ratio (y) = 0.35013 0.02579
# Poissons Ratio (z) = 0.01350 0.01350
#
# Static dielectric constant tensor:
#      x y z
#    x 1.809770 0.000000 0.000000 
#    y 0.000000 1.809770 0.000000 
#    z 0.000000 0.000000 1.831790 
# 
# From -- ./inp_files/1166.got.cif
#   From: 2010.05.17/outbox.cif.g08.bks.cpg/sg152_1_cif.got.tgz:1166.got - 2010.05.20 10:36:06.
