data_PCOD9575515
_publ_section_title
;
Structure prediction by ZEFSAII (Michael W. Deem and Ramdas Pophale) SiO2 
 PCOD9575515
Probable space group: P 31 1 2
;
_chemical_formula_sum "Si O2"
_cell_formula_units_Z 24
_cell_length_a 16.095806
_cell_length_b 16.095806
_cell_length_c 5.246237
_cell_angle_alpha 90.000000
_cell_angle_beta 90.000000
_cell_angle_gamma 120.000000
_cell_volume 1177.074620
_symmetry_space_group_name_H-M "P 31 1 2"
_symmetry_group_IT_number 151
_symmetry_cell_setting 'hexagonal'
loop_
_space_group_symop_operation_xyz
x,y,z
-y,x-y,1/3+z
-x+y,-x,2/3+z
-y,-x,2/3-z
-x+y,y,1/3-z
x,x-y,-z
loop_
_atom_site_type_symbol
_atom_site_label
_atom_site_fract_x
_atom_site_fract_y
_atom_site_fract_z
Si Si1 0.996715 0.186159 0.732197
Si Si2 0.382230 0.102278 0.112761
Si Si3 0.988317 0.355747 0.946719
Si Si4 0.492459 0.694250 0.258769
O O1 0.950847 0.217964 0.502992
O O2 0.095527 0.191054 0.666667
O O3 0.009437 0.266852 0.935933
O O4 0.917475 0.082526 0.833334
O O5 0.405060 0.047714 0.894072
O O6 0.411936 0.205968 0.000000
O O7 0.418483 0.090550 0.389962
O O8 0.088093 0.447771 0.882952
O O9 0.385789 0.614212 0.333334
O O10 0.532387 0.766194 0.500000
O O11 0.495116 0.747558 0.000000
#
# Coordination Sequence:
#
# PCOD9575515 Si02
#       4
#     6   6   6   6
#     4  10  21  33  47  73 108 143 191 224 268 310
#     4  10  18  36  52  74 106 142 183 225 264 311
#     4  10  21  35  56  75 102 143 187 227 279 340
#     4  12  25  42  61  83 109 144 192 253 314 364
#
# _framework density 20.389531000000002
#
# number of rings (size 3 to 8) (size 9 to 14) (size 15 to 20)
#    1.500    0.000    2.500    4.500    3.500    1.000 
#    0.000    0.000    0.000    0.000    0.000    0.000 
#    0.000    0.000    0.000   22.500    0.000    0.250 
#
# Total GULP energy -133723.542983 kJ/mol
# GULP energy per Si atom -5571.814291 kJ/mol
# Density = 2.034312 g / cm^3
# Si number density = 20.389531 Si / 1000 Ang^3
#
#
#
# Elastic Constant Matrix: (Units=GPa)
#
#
# Indices 1 2 3 4 5 6 
#
# 1 12.2873 7.1991 4.7227 0.0008 -4.5878 0.0000
# 2 7.1991 12.2873 4.7227 -0.0008 4.5878 0.0000
# 3 4.7227 4.7227 127.6241 0.0000 0.0000 0.0000
# 4 0.0008 -0.0008 0.0000 1.4663 0.0000 4.5878
# 5 -4.5878 4.5878 0.0000 0.0000 1.4663 0.0008
# 6 0.0000 0.0000 0.0000 4.5878 0.0008 2.5441
#
#
#
# Elastic Compliance Matrix: (Units=1/GPa)
#
#
# Indices 1 2 3 4 5 6 
#
# 1 0.004959 0.047296 -0.001934 0.000023 -0.132462 0.000000
# 2 0.047296 0.004959 -0.001934 -0.000023 0.132462 0.000000
# 3 -0.001934 -0.001934 0.007979 0.000000 0.000000 0.000000
# 4 0.000023 -0.000023 0.000000 -0.146909 0.000000 0.264924
# 5 -0.132462 0.132462 0.000000 0.000000 -0.146909 0.000047
# 6 0.000000 0.000000 0.000000 0.264924 0.000047 -0.084675
#
#
# Mechanical properties :
#
#
# Convention : Reuss Voigt Hill
#
# Bulk Modulus (GPa) = 9.54613 20.60974 15.07793
# Shear Modulus (GPa) = -12.12015 10.13230 -0.99393
#
# Velocity S-wave (km/s) = -2.44074 2.23163 -0.69895
# Velocity P-wave (km/s) = 1.80303 4.09514 2.59993
#
# Compressibility (1/GPa) = 0.10475449
#
# Stress axis : x y z
#
# Youngs Moduli (GPa) = 201.65439 201.65437 125.33493
#
# Poissons Ratio (x) = -9.53752 0.24236
# Poissons Ratio (y) = -9.53752 0.24236
# Poissons Ratio (z) = 0.38994 0.38994
#
# Static dielectric constant tensor:
#      x y z
#    x 1.731540 0.000000 0.000000 
#    y 0.000000 1.731540 0.000000 
#    z 0.000000 0.000000 1.677750 
# 
# From -- ./inp_files/345.got.cif
#   From: 2010.05.17/outbox.cif.g08.bks.cpg/sg151_1_cif.got.tgz:345.got - 2010.05.20 10:33:20.
