data_PCOD9575015
_publ_section_title
;
Structure prediction by ZEFSAII (Michael W. Deem and Ramdas Pophale) SiO2 
 PCOD9575015
Probable space group: R -3
;
_chemical_formula_sum "Si O2"
_cell_formula_units_Z 72
_cell_length_a 14.671225
_cell_length_b 14.671225
_cell_length_c 17.246853
_cell_angle_alpha 90.000000
_cell_angle_beta 90.000000
_cell_angle_gamma 120.000000
_cell_volume 3214.942786
_symmetry_space_group_name_H-M "R -3"
_symmetry_group_IT_number 148
_symmetry_cell_setting 'hexagonal'
loop_
_space_group_symop_operation_xyz
x,y,z
-y,x-y,z
-x+y,-x,z
-x,-y,-z
y,-x+y,-z
x-y,x,-z
2/3+x,1/3+y,1/3+z
2/3-y,1/3+x-y,1/3+z
2/3-x+y,1/3-x,1/3+z
2/3-x,1/3-y,1/3-z
2/3+y,1/3-x+y,1/3-z
2/3+x-y,1/3+x,1/3-z
1/3+x,2/3+y,2/3+z
1/3-y,2/3+x-y,2/3+z
1/3-x+y,2/3-x,2/3+z
1/3-x,2/3-y,2/3-z
1/3+y,2/3-x+y,2/3-z
1/3+x-y,2/3+x,2/3-z
loop_
_atom_site_type_symbol
_atom_site_label
_atom_site_fract_x
_atom_site_fract_y
_atom_site_fract_z
Si Si1 0.685455 0.555579 0.036150
Si Si2 0.568144 0.712562 0.538714
Si Si3 0.190824 0.183280 0.460922
Si Si4 0.442470 0.412387 0.321738
O O1 0.648651 0.503216 0.119705
O O2 0.670940 0.658195 0.029976
O O3 0.630788 0.488130 0.959299
O O4 0.809358 0.602232 0.018360
O O5 0.686780 0.730155 0.531712
O O6 0.514984 0.625796 0.605564
O O7 0.585517 0.818519 0.579410
O O8 0.113933 0.189586 0.521929
#
# Coordination Sequence:
#
# PCOD9575015 Si02
#       4
#    18  18  18  18
#     4  10  19  35  59  82 108 145 182 220 274 325
#     4  10  18  34  55  80 108 146 183 219 269 315
#     4  10  21  37  56  81 114 142 175 227 274 322
#     4   8  18  32  52  81 110 136 176 231 264 307
#
# _framework density 22.395423000000001
#
# number of rings (size 3 to 8) (size 9 to 14) (size 15 to 20)
#    0.000    3.000    0.000    4.000    0.000    1.000 
#    0.000   10.000    0.000   32.000    0.000    0.000 
#    0.000    0.000    0.000    0.000    0.000    0.000 
#
# Total GULP energy -133804.145779 kJ/mol
# GULP energy per Si atom -5575.172741 kJ/mol
# Density = 2.234445 g / cm^3
# Si number density = 22.395423 Si / 1000 Ang^3
#
#
#
# Elastic Constant Matrix: (Units=GPa)
#
#
# Indices 1 2 3 4 5 6 
#
# 1 34.2473 22.9711 43.6334 6.8047 2.3269 0.0000
# 2 22.9711 34.2473 43.6334 -6.8047 -2.3269 0.0000
# 3 43.6334 43.6334 221.5281 0.0000 0.0000 0.0000
# 4 6.8047 -6.8047 0.0000 25.4019 0.0000 -2.3269
# 5 2.3269 -2.3269 0.0000 0.0000 25.4019 6.8047
# 6 0.0000 0.0000 0.0000 -2.3269 6.8047 5.6381
#
#
#
# Elastic Compliance Matrix: (Units=1/GPa)
#
#
# Indices 1 2 3 4 5 6 
#
# 1 0.081894 -0.056913 -0.004920 -0.037184 -0.012715 0.000000
# 2 -0.056913 0.081894 -0.004920 0.037184 0.012715 0.000000
# 3 -0.004920 -0.004920 0.006452 0.000000 0.000000 0.000000
# 4 -0.037184 0.037184 0.000000 0.061618 0.000000 0.025430
# 5 -0.012715 0.012715 0.000000 0.000000 0.061618 -0.074368
# 6 0.000000 0.000000 0.000000 0.025430 -0.074368 0.277615
#
#
# Mechanical properties :
#
#
# Convention : Reuss Voigt Hill
#
# Bulk Modulus (GPa) = 27.22327 56.72204 41.97265
# Shear Modulus (GPa) = 6.97501 23.27405 15.12453
#
# Velocity S-wave (km/s) = 1.76670 3.22721 2.60155
# Velocity P-wave (km/s) = 4.04274 6.26650 5.27318
#
# Compressibility (1/GPa) = 0.03673328
#
# Stress axis : x y z
#
# Youngs Moduli (GPa) = 12.21086 12.21086 154.98055
#
# Poissons Ratio (x) = 0.69496 0.76258
# Poissons Ratio (y) = 0.69496 0.76258
# Poissons Ratio (z) = 0.06008 0.06008
#
# Static dielectric constant tensor:
#      x y z
#    x 1.856960 0.000000 0.000000 
#    y 0.000000 1.856960 0.000000 
#    z 0.000000 0.000000 1.917260 
# 
# From -- ./inp_files/2539.got.cif
#   From: 2010.05.17/outbox.cif.g08.bks.cpg/sg148_2_cif.got.tgz:2539.got - 2010.05.20 13:50:20.
