data_PCOD9575345
_publ_section_title
;
Structure prediction by ZEFSAII (Michael W. Deem and Ramdas Pophale) SiO2 
 PCOD9575345
Probable space group: P 3 1 2
;
_chemical_formula_sum "Si O2"
_cell_formula_units_Z 42
_cell_length_a 11.462937
_cell_length_b 11.462937
_cell_length_c 17.693374
_cell_angle_alpha 90.000000
_cell_angle_beta 90.000000
_cell_angle_gamma 120.000000
_cell_volume 2013.414076
_symmetry_space_group_name_H-M "P 3 1 2"
_symmetry_group_IT_number 149
_symmetry_cell_setting 'hexagonal'
loop_
_space_group_symop_operation_xyz
x,y,z
-y,x-y,z
-x+y,-x,z
-y,-x,-z
-x+y,y,-z
x,x-y,-z
loop_
_atom_site_type_symbol
_atom_site_label
_atom_site_fract_x
_atom_site_fract_y
_atom_site_fract_z
Si Si1 0.285555 0.893800 0.112372
Si Si2 0.559087 0.938853 0.169924
Si Si3 0.406091 0.045919 0.669175
Si Si4 0.367745 0.064633 0.340279
Si Si5 0.923683 0.332637 0.976391
Si Si6 0.141709 0.979973 0.221509
Si Si7 0.667667 0.057753 0.495500
O O1 0.423958 0.946273 0.158699
O O2 0.198043 0.737475 0.133511
O O3 0.199803 0.959665 0.143699
O O4 0.325944 0.940963 0.026383
O O5 0.608635 0.957228 0.255574
O O6 0.662642 0.051641 0.112557
O O7 0.554899 0.061254 0.666640
O O8 0.409502 0.188472 0.674012
O O9 0.333897 0.995194 0.587046
O O10 0.314102 0.008027 0.425012
O O11 0.244002 0.982208 0.283779
O O12 0.815118 0.184883 0.000000
O O13 0.874529 0.437265 0.000000
O O14 0.983776 0.868515 0.228078
O O15 0.786959 0.213042 0.500000
O O16 0.526536 0.053072 0.500000
#
# Coordination Sequence:
#
# PCOD9575345 Si02
#       7
#     6   6   6   6   6   6   6
#     4  11  23  43  62  93 121 164 213 260 318 365
#     4  11  23  40  65  89 123 160 211 267 310 371
#     4  10  19  31  59  91 120 156 199 259 312 369
#     4  10  18  35  55  93 125 159 205 252 321 372
#     4  10  24  40  63  91 126 162 196 251 314 379
#     4  10  23  38  60  90 128 170 207 262 304 382
#     4   8  15  27  50  83 122 150 190 245 308 366
#
# _framework density 20.86009
#
# number of rings (size 3 to 8) (size 9 to 14) (size 15 to 20)
#    0.286    1.714    1.429    2.143    4.000    2.286 
#    0.000    1.429    0.000   13.714    0.000    0.000 
#    0.000    0.000    0.000    0.000    0.000    0.000 
#
# Total GULP energy -233853.722058 kJ/mol
# GULP energy per Si atom -5567.945763 kJ/mol
# Density = 2.081261 g / cm^3
# Si number density = 20.860090 Si / 1000 Ang^3
#
#
#
# Elastic Constant Matrix: (Units=GPa)
#
#
# Indices 1 2 3 4 5 6 
#
# 1 -28.1056 110.2008 22.9757 -0.0006 8.8421 0.0000
# 2 110.2008 -28.1056 22.9757 0.0006 -8.8421 0.0000
# 3 22.9757 22.9757 129.0821 0.0000 0.0000 0.0000
# 4 -0.0006 0.0006 0.0000 16.1404 0.0000 -8.8421
# 5 8.8421 -8.8421 0.0000 0.0000 16.1404 -0.0006
# 6 0.0000 0.0000 0.0000 -8.8421 -0.0006 -69.1532
#
#
#
# Elastic Compliance Matrix: (Units=1/GPa)
#
#
# Indices 1 2 3 4 5 6 
#
# 1 0.003386 0.010143 -0.002408 0.000000 0.003702 0.000000
# 2 0.010143 0.003386 -0.002408 0.000000 -0.003702 0.000000
# 3 -0.002408 -0.002408 0.008604 0.000000 0.000000 0.000000
# 4 0.000000 0.000000 0.000000 0.057901 0.000000 -0.007403
# 5 0.003702 -0.003702 0.000000 0.000000 0.057901 0.000000
# 6 0.000000 0.000000 0.000000 -0.007403 0.000000 -0.013514
#
#
# Mechanical properties :
#
#
# Convention : Reuss Voigt Hill
#
# Bulk Modulus (GPa) = 38.41760 42.79729 40.60744
# Shear Modulus (GPa) = 43.22046 -12.92657 15.14694
#
# Velocity S-wave (km/s) = 4.55677 -2.49204 2.69759
# Velocity P-wave (km/s) = 6.79282 3.50436 5.40476
#
# Compressibility (1/GPa) = 0.02602974
#
# Stress axis : x y z
#
# Youngs Moduli (GPa) = 295.34187 295.34187 116.22180
#
# Poissons Ratio (x) = -2.99563 0.27987
# Poissons Ratio (y) = -2.99563 0.27987
# Poissons Ratio (z) = 0.71120 0.71120
#
# Static dielectric constant tensor:
#      x y z
#    x 2.009170 0.000000 0.000000 
#    y 0.000000 2.009170 0.000000 
#    z 0.000000 0.000000 1.826960 
# 
# From -- ./inp_files/1098.got.cif
#   From: 2010.05.17/outbox.cif.g08.bks.cpg/sg149_cif.got.tgz:1098.got - 2010.05.20 13:52:34.
