data_PCOD9575148
_publ_section_title
;
Structure prediction by ZEFSAII (Michael W. Deem and Ramdas Pophale) SiO2 
 PCOD9575148
Probable space group: R -3
;
_chemical_formula_sum "Si O2"
_cell_formula_units_Z 126
_cell_length_a 17.941957
_cell_length_b 17.941957
_cell_length_c 23.183801
_cell_angle_alpha 90.000000
_cell_angle_beta 90.000000
_cell_angle_gamma 120.000000
_cell_volume 6463.308639
_symmetry_space_group_name_H-M "R -3"
_symmetry_group_IT_number 148
_symmetry_cell_setting 'hexagonal'
loop_
_space_group_symop_operation_xyz
x,y,z
-y,x-y,z
-x+y,-x,z
-x,-y,-z
y,-x+y,-z
x-y,x,-z
2/3+x,1/3+y,1/3+z
2/3-y,1/3+x-y,1/3+z
2/3-x+y,1/3-x,1/3+z
2/3-x,1/3-y,1/3-z
2/3+y,1/3-x+y,1/3-z
2/3+x-y,1/3+x,1/3-z
1/3+x,2/3+y,2/3+z
1/3-y,2/3+x-y,2/3+z
1/3-x+y,2/3-x,2/3+z
1/3-x,2/3-y,2/3-z
1/3+y,2/3-x+y,2/3-z
1/3+x-y,2/3+x,2/3-z
loop_
_atom_site_type_symbol
_atom_site_label
_atom_site_fract_x
_atom_site_fract_y
_atom_site_fract_z
Si Si1 0.509609 0.822781 0.091596
Si Si2 0.015227 0.415021 0.332394
Si Si3 0.903716 0.509022 0.335543
Si Si4 0.971718 0.328322 0.117112
Si Si5 0.830972 0.322443 0.456281
Si Si6 0.187434 0.165460 0.563912
Si Si7 0.498798 0.654190 0.534325
O O1 0.515779 0.828977 0.160714
O O2 0.507863 0.733310 0.079178
O O3 0.428637 0.835558 0.079048
O O4 0.588102 0.892133 0.054012
O O5 0.052488 0.428261 0.396737
O O6 0.960671 0.464132 0.328695
O O7 0.945106 0.314298 0.332322
O O8 0.840680 0.486248 0.280563
O O9 0.858522 0.495436 0.397035
O O10 0.008120 0.263392 0.130739
O O11 0.916262 0.327722 0.171539
O O12 0.050278 0.420005 0.096586
O O13 0.744817 0.240222 0.478558
O O14 0.838822 0.408869 0.482577
#
# Coordination Sequence:
#
# PCOD9575148 Si02
#       7
#    18  18  18  18  18  18  18
#     4  10  21  40  65  88 123 156 198 269 308 362
#     4  11  22  39  59  89 124 161 204 248 311 376
#     4  11  20  35  62  90 114 158 205 255 306 362
#     4  11  25  39  60  93 126 166 209 250 312 391
#     4  11  23  39  63  89 123 158 212 261 298 376
#     4  10  22  39  65  96 117 156 212 256 317 364
#     4  12  22  41  61  90 124 166 205 260 321 353
#
# _framework density 19.494661000000001
#
# number of rings (size 3 to 8) (size 9 to 14) (size 15 to 20)
#    0.000    1.143    4.286    3.571    4.000    1.714 
#    0.000    2.857    0.000    0.000    0.000    0.000 
#    0.000    0.000    0.000    0.000    0.000    0.000 
#
# Total GULP energy -233963.912006 kJ/mol
# GULP energy per Si atom -5570.569333 kJ/mol
# Density = 1.945029 g / cm^3
# Si number density = 19.494661 Si / 1000 Ang^3
#
#
#
# Elastic Constant Matrix: (Units=GPa)
#
#
# Indices 1 2 3 4 5 6 
#
# 1 106.3105 48.9829 25.2022 -2.1766 -1.2312 0.0000
# 2 48.9829 106.3105 25.2022 2.1766 1.2312 0.0000
# 3 25.2022 25.2022 17.1850 0.0000 0.0000 0.0000
# 4 -2.1766 2.1766 0.0000 22.3899 0.0000 1.2312
# 5 -1.2312 1.2312 0.0000 0.0000 22.3899 -2.1766
# 6 0.0000 0.0000 0.0000 1.2312 -2.1766 28.6638
#
#
#
# Elastic Compliance Matrix: (Units=1/GPa)
#
#
# Indices 1 2 3 4 5 6 
#
# 1 0.014952 -0.002663 -0.018022 0.001712 0.000969 0.000000
# 2 -0.002663 0.014952 -0.018022 -0.001712 -0.000969 0.000000
# 3 -0.018022 -0.018022 0.111050 0.000000 0.000000 0.000000
# 4 0.001712 -0.001712 0.000000 0.045103 0.000000 -0.001937
# 5 0.000969 -0.000969 0.000000 0.000000 0.045103 0.003425
# 6 0.000000 0.000000 0.000000 -0.001937 0.003425 0.035230
#
#
# Mechanical properties :
#
#
# Convention : Reuss Voigt Hill
#
# Bulk Modulus (GPa) = 15.73819 47.62006 31.67913
# Shear Modulus (GPa) = 13.69923 23.38329 18.54126
#
# Velocity S-wave (km/s) = 2.65376 3.46710 3.08733
# Velocity P-wave (km/s) = 4.18097 6.36458 5.38463
#
# Compressibility (1/GPa) = 0.06353972
#
# Stress axis : x y z
#
# Youngs Moduli (GPa) = 66.88031 66.88031 9.00496
#
# Poissons Ratio (x) = 0.17811 0.16229
# Poissons Ratio (y) = 0.17811 0.16229
# Poissons Ratio (z) = 1.20532 1.20532
#
# Static dielectric constant tensor:
#      x y z
#    x 1.717720 0.000000 0.000000 
#    y 0.000000 1.717720 0.000000 
#    z 0.000000 0.000000 1.723980 
# 
# From -- ./inp_files/3456.got.cif
#   From: 2010.05.17/outbox.cif.g08.bks.cpg/sg148_2_cif.got.tgz:3456.got - 2010.05.20 13:50:20.
