data_PCOD9575533
_publ_section_title
;
Structure prediction by ZEFSAII (Michael W. Deem and Ramdas Pophale) SiO2 
 PCOD9575533
Probable space group: P 31 1 2
;
_chemical_formula_sum "Si O2"
_cell_formula_units_Z 42
_cell_length_a 20.042951
_cell_length_b 20.042951
_cell_length_c 5.764439
_cell_angle_alpha 90.000000
_cell_angle_beta 90.000000
_cell_angle_gamma 120.000000
_cell_volume 2005.446169
_symmetry_space_group_name_H-M "P 31 1 2"
_symmetry_group_IT_number 151
_symmetry_cell_setting 'hexagonal'
loop_
_space_group_symop_operation_xyz
x,y,z
-y,x-y,1/3+z
-x+y,-x,2/3+z
-y,-x,2/3-z
-x+y,y,1/3-z
x,x-y,-z
loop_
_atom_site_type_symbol
_atom_site_label
_atom_site_fract_x
_atom_site_fract_y
_atom_site_fract_z
Si Si1 0.046637 0.416781 0.714341
Si Si2 0.942468 0.577468 0.664592
Si Si3 0.205125 0.410250 0.166667
Si Si4 0.950375 0.475188 0.000000
Si Si5 0.779038 0.617975 0.918316
Si Si6 0.702495 0.973908 0.632898
Si Si7 0.199610 0.675055 0.448333
Si Si8 0.916448 0.795614 0.919309
O O1 0.137192 0.468408 0.737530
O O2 0.022706 0.425147 0.455383
O O3 0.003963 0.446800 0.880464
O O4 0.025405 0.329952 0.777762
O O5 0.907939 0.498453 0.805892
O O6 0.893930 0.581787 0.449893
O O7 0.965921 0.651507 0.824725
O O8 0.235992 0.350494 0.224548
O O9 0.199697 0.468165 0.352752
O O10 0.796864 0.593727 0.666667
O O11 0.836137 0.711207 0.921135
O O12 0.796174 0.592348 0.166667
O O13 0.792936 0.010773 0.603030
O O14 0.282890 0.717111 0.333334
O O15 0.177742 0.588871 0.500000
O O16 0.914873 0.829745 0.666667
O O17 0.916762 0.833524 0.166667
#
# Coordination Sequence:
#
# PCOD9575533 Si02
#       8
#     6   6   3   3   6   6   6   6
#     4  11  22  39  59  81 112 162 209 270 348 404
#     4  11  20  36  57  84 124 162 203 261 321 407
#     4  12  26  44  60  90 116 162 232 288 372 414
#     4  10  24  34  56  86 110 168 208 254 336 398
#     4  10  19  32  54  88 120 160 199 234 305 390
#     4  11  22  37  62  87 127 160 208 273 331 423
#     4  12  27  42  59  78 107 158 232 309 365 417
#     4  10  19  34  58  95 125 163 196 235 316 404
#
# _framework density 20.942971
#
# number of rings (size 3 to 8) (size 9 to 14) (size 15 to 20)
#    0.000    1.143    5.714    3.000    5.000    0.000 
#    0.000    0.000    0.000    0.000    0.000    0.000 
#    2.143    0.000   12.143    0.000    1.143    0.000 
#
# Total GULP energy -233830.778922 kJ/mol
# GULP energy per Si atom -5567.399498 kJ/mol
# Density = 2.089530 g / cm^3
# Si number density = 20.942971 Si / 1000 Ang^3
#
#
#
# Elastic Constant Matrix: (Units=GPa)
#
#
# Indices 1 2 3 4 5 6 
#
# 1 61.0175 23.5630 22.8445 -0.0002 3.4553 0.0000
# 2 23.5630 61.0175 22.8445 0.0002 -3.4553 0.0000
# 3 22.8445 22.8445 105.7830 0.0000 0.0000 0.0000
# 4 -0.0002 0.0002 0.0000 21.5522 0.0000 -3.4553
# 5 3.4553 -3.4553 0.0000 0.0000 21.5522 -0.0002
# 6 0.0000 0.0000 0.0000 -3.4553 -0.0002 18.7273
#
#
#
# Elastic Compliance Matrix: (Units=1/GPa)
#
#
# Indices 1 2 3 4 5 6 
#
# 1 0.020449 -0.007064 -0.002890 0.000000 -0.004411 0.000000
# 2 -0.007064 0.020449 -0.002890 0.000000 0.004411 0.000000
# 3 -0.002890 -0.002890 0.010702 0.000000 0.000000 0.000000
# 4 0.000000 0.000000 0.000000 0.047813 0.000000 0.008822
# 5 -0.004411 0.004411 0.000000 0.000000 0.047813 0.000000
# 6 0.000000 0.000000 0.000000 0.008822 0.000000 0.055026
#
#
# Mechanical properties :
#
#
# Convention : Reuss Voigt Hill
#
# Bulk Modulus (GPa) = 38.59693 40.70245 39.64969
# Shear Modulus (GPa) = 21.13468 22.93739 22.03604
#
# Velocity S-wave (km/s) = 3.18016 3.31302 3.24727
# Velocity P-wave (km/s) = 5.65280 5.84054 5.74743
#
# Compressibility (1/GPa) = 0.02590879
#
# Stress axis : x y z
#
# Youngs Moduli (GPa) = 48.90298 48.90298 93.44274
#
# Poissons Ratio (x) = 0.34546 0.27009
# Poissons Ratio (y) = 0.34546 0.27009
# Poissons Ratio (z) = 0.14135 0.14135
#
# Static dielectric constant tensor:
#      x y z
#    x 1.800560 0.000000 0.000000 
#    y 0.000000 1.800560 0.000000 
#    z 0.000000 0.000000 1.883550 
# 
# From -- ./inp_files/834.got.cif
#   From: 2010.05.17/outbox.cif.g08.bks.cpg/sg151_1_cif.got.tgz:834.got - 2010.05.20 10:33:20.
