data_PCOD9575652
_publ_section_title
;
Structure prediction by ZEFSAII (Michael W. Deem and Ramdas Pophale) SiO2 
 PCOD9575652
Probable space group: P 31 1 2
;
_chemical_formula_sum "Si O2"
_cell_formula_units_Z 30
_cell_length_a 8.146317
_cell_length_b 8.146317
_cell_length_c 21.664959
_cell_angle_alpha 90.000000
_cell_angle_beta 90.000000
_cell_angle_gamma 120.000000
_cell_volume 1245.119730
_symmetry_space_group_name_H-M "P 31 1 2"
_symmetry_group_IT_number 151
_symmetry_cell_setting 'hexagonal'
loop_
_space_group_symop_operation_xyz
x,y,z
-y,x-y,1/3+z
-x+y,-x,2/3+z
-y,-x,2/3-z
-x+y,y,1/3-z
x,x-y,-z
loop_
_atom_site_type_symbol
_atom_site_label
_atom_site_fract_x
_atom_site_fract_y
_atom_site_fract_z
Si Si1 0.384504 0.311377 0.882379
Si Si2 0.312390 0.620436 0.903488
Si Si3 0.943579 0.971790 0.500000
Si Si4 0.719300 0.816111 0.065609
Si Si5 0.033062 0.516531 0.000000
Si Si6 0.746698 0.300393 0.758109
O O1 0.529443 0.470558 0.833334
O O2 0.250844 0.396226 0.902690
O O3 0.538533 0.303615 0.925858
O O4 0.245535 0.095456 0.858103
O O5 0.314011 0.685990 0.833334
O O6 0.528127 0.705514 0.925941
O O7 0.186490 0.663987 0.950351
O O8 0.074562 0.116773 0.552404
O O9 0.636725 0.595119 0.074350
O O10 0.802691 0.901346 0.000000
O O11 0.887108 0.371032 0.949546
O O12 0.727202 0.272799 0.833334
#
# Coordination Sequence:
#
# PCOD9575652 Si02
#       6
#     6   6   3   6   3   6
#     4  10  23  47  76 108 155 203 263 340 407 495
#     4  11  22  47  76 111 157 206 264 339 411 495
#     4  12  22  50  80 106 152 214 260 332 424 484
#     4  12  25  46  75 108 153 204 265 326 404 495
#     4  12  26  44  82 110 162 216 266 332 430 482
#     4  11  26  49  75 112 158 206 264 338 406 495
#
# _framework density 24.094071
#
# number of rings (size 3 to 8) (size 9 to 14) (size 15 to 20)
#    0.000    0.800    6.000    2.400    2.800    0.000 
#   14.400    0.000    0.000    0.000    0.000    0.000 
#    0.000    0.000    0.000    0.000    0.000    0.000 
#
# Total GULP energy -167024.589817 kJ/mol
# GULP energy per Si atom -5567.486327 kJ/mol
# Density = 2.403923 g / cm^3
# Si number density = 24.094071 Si / 1000 Ang^3
#
#
#
# Elastic Constant Matrix: (Units=GPa)
#
#
# Indices 1 2 3 4 5 6 
#
# 1 73.8622 30.6876 27.1160 -0.0004 -14.3730 0.0000
# 2 30.6876 73.8622 27.1160 0.0004 14.3730 0.0000
# 3 27.1160 27.1160 158.8683 0.0000 0.0000 0.0000
# 4 -0.0004 0.0004 0.0000 31.0273 0.0000 14.3730
# 5 -14.3730 14.3730 0.0000 0.0000 31.0273 -0.0004
# 6 0.0000 0.0000 0.0000 14.3730 -0.0004 21.5873
#
#
#
# Elastic Compliance Matrix: (Units=1/GPa)
#
#
# Indices 1 2 3 4 5 6 
#
# 1 0.021993 -0.011499 -0.001791 0.000000 0.015514 0.000000
# 2 -0.011499 0.021993 -0.001791 0.000000 -0.015514 0.000000
# 3 -0.001791 -0.001791 0.006906 0.000000 0.000000 0.000000
# 4 0.000000 0.000000 0.000000 0.046603 0.000000 -0.031029
# 5 0.015514 -0.015514 0.000000 0.000000 0.046603 0.000001
# 6 0.000000 0.000000 0.000000 -0.031029 0.000001 0.066983
#
#
# Mechanical properties :
#
#
# Convention : Reuss Voigt Hill
#
# Bulk Modulus (GPa) = 48.24097 52.93689 50.58893
# Shear Modulus (GPa) = 20.14888 31.50660 25.82774
#
# Velocity S-wave (km/s) = 2.89495 3.62007 3.27762
# Velocity P-wave (km/s) = 5.58925 6.28425 5.94691
#
# Compressibility (1/GPa) = 0.02072927
#
# Stress axis : x y z
#
# Youngs Moduli (GPa) = 45.46968 45.46968 144.80262
#
# Poissons Ratio (x) = 0.52285 0.25936
# Poissons Ratio (y) = 0.52285 0.25936
# Poissons Ratio (z) = 0.08144 0.08144
#
# Static dielectric constant tensor:
#      x y z
#    x 1.980630 0.000000 0.000000 
#    y 0.000000 1.980630 0.000000 
#    z 0.000000 0.000000 2.022970 
# 
# From -- ./inp_files/4228.got.cif
#   From: 2010.05.17/outbox.cif.g08.bks.cpg/sg151_3_cif.got.tgz:4228.got - 2010.05.20 10:33:20.
