data_PCOD9575409
_publ_section_title
;
Structure prediction by ZEFSAII (Michael W. Deem and Ramdas Pophale) SiO2 
 PCOD9575409
Probable space group: P 3 2 1
;
_chemical_formula_sum "Si O2"
_cell_formula_units_Z 42
_cell_length_a 15.716394
_cell_length_b 15.716394
_cell_length_c 12.425891
_cell_angle_alpha 90.000000
_cell_angle_beta 90.000000
_cell_angle_gamma 120.000000
_cell_volume 2658.055146
_symmetry_space_group_name_H-M "P 3 2 1"
_symmetry_group_IT_number 150
_symmetry_cell_setting 'hexagonal'
loop_
_space_group_symop_operation_xyz
x,y,z
-y,x-y,z
-x+y,-x,z
x-y,-y,-z
-x,-x+y,-z
y,x,-z
loop_
_atom_site_type_symbol
_atom_site_label
_atom_site_fract_x
_atom_site_fract_y
_atom_site_fract_z
Si Si1 0.434407 0.205945 0.630147
Si Si2 0.113263 0.884363 0.000000
Si Si3 0.883243 0.764479 0.761151
Si Si4 0.454696 0.888202 0.369268
Si Si5 0.545304 0.433506 0.369268
Si Si6 0.118764 0.235521 0.761151
Si Si7 0.205945 0.434407 0.630147
O O1 0.326661 0.154750 0.681148
O O2 0.496309 0.154033 0.663857
O O3 0.496624 0.320260 0.662521
O O4 0.426049 0.201108 0.500000
O O5 0.127746 0.849947 0.116615
O O6 0.127746 0.849947 0.883385
O O7 0.000000 0.857897 0.000000
O O8 0.183265 0.000000 0.000000
O O9 0.833014 0.833015 0.757437
O O10 1.000000 0.829018 0.738281
O O11 0.453953 0.887951 0.500000
O O12 0.521043 0.000000 0.332816
O O13 0.657724 0.503691 0.336143
O O14 0.496624 0.320260 0.337479
O O15 0.154750 0.326661 0.681147
#
# Coordination Sequence:
#
# PCOD9575409 Si02
#       7
#     6   6   6   6   6   6   6
#     4  10  19  31  48  69  92 120 154 193 235 274
#     4   8  15  28  46  66  88 120 160 194 221 258
#     4  10  19  31  48  70  97 126 155 187 226 277
#     4   9  17  29  44  63  88 117 149 183 220 266
#     4   9  17  29  44  63  88 117 149 183 220 266
#     4  10  19  31  48  70  97 126 155 187 226 277
#     4  10  19  31  48  69  92 120 154 193 235 274
#
# _framework density 15.801026999999999
#
# number of rings (size 3 to 8) (size 9 to 14) (size 15 to 20)
#    0.000    2.571    0.000    2.714    0.000    8.000 
#    0.000    0.000    0.000    3.429    0.000    8.000 
#    0.000    0.000    0.000    0.000    0.000    0.000 
#
# Total GULP energy -233820.522892 kJ/mol
# GULP energy per Si atom -5567.155307 kJ/mol
# Density = 1.576506 g / cm^3
# Si number density = 15.801027 Si / 1000 Ang^3
#
#
#
# Elastic Constant Matrix: (Units=GPa)
#
#
# Indices 1 2 3 4 5 6 
#
# 1 61.9638 4.0502 10.7872 -0.0001 0.0000 0.0000
# 2 4.0502 61.9638 10.7872 0.0001 0.0000 0.0000
# 3 10.7872 10.7872 32.2933 0.0000 0.0000 0.0000
# 4 -0.0001 0.0001 0.0000 6.0856 0.0000 0.0000
# 5 0.0000 0.0000 0.0000 0.0000 6.0856 -0.0001
# 6 0.0000 0.0000 0.0000 0.0000 -0.0001 28.9568
#
#
#
# Elastic Compliance Matrix: (Units=1/GPa)
#
#
# Indices 1 2 3 4 5 6 
#
# 1 0.017136 -0.000131 -0.005680 0.000000 0.000000 0.000000
# 2 -0.000131 0.017136 -0.005680 0.000000 0.000000 0.000000
# 3 -0.005680 -0.005680 0.034761 0.000000 0.000000 0.000000
# 4 0.000000 0.000000 0.000000 0.164323 0.000000 0.000000
# 5 0.000000 0.000000 0.000000 0.000000 0.164323 0.000000
# 6 0.000000 0.000000 0.000000 0.000000 0.000000 0.034534
#
#
# Mechanical properties :
#
#
# Convention : Reuss Voigt Hill
#
# Bulk Modulus (GPa) = 21.71576 23.05223 22.38400
# Shear Modulus (GPa) = 10.62597 16.93203 13.77900
#
# Velocity S-wave (km/s) = 2.59605 3.27705 2.95622
# Velocity P-wave (km/s) = 4.77064 5.37954 5.08422
#
# Compressibility (1/GPa) = 0.04604950
#
# Stress axis : x y z
#
# Youngs Moduli (GPa) = 58.35708 58.35708 28.76789
#
# Poissons Ratio (x) = 0.00766 0.16341
# Poissons Ratio (y) = 0.00766 0.16341
# Poissons Ratio (z) = 0.33148 0.33148
#
# Static dielectric constant tensor:
#      x y z
#    x 1.520080 0.000000 0.000000 
#    y 0.000000 1.520080 0.000000 
#    z 0.000000 0.000000 1.541760 
# 
# From -- ./inp_files/961.got.cif
#   From: 2010.05.17/outbox.cif.g08.bks.cpg/sg150_cif.got.tgz:961.got - 2010.05.20 13:53:18.
