data_PCOD9575099
_publ_section_title
;
Structure prediction by ZEFSAII (Michael W. Deem and Ramdas Pophale) SiO2 
 PCOD9575099
Probable space group: R -3
;
_chemical_formula_sum "Si O2"
_cell_formula_units_Z 126
_cell_length_a 16.135359
_cell_length_b 16.135359
_cell_length_c 25.122204
_cell_angle_alpha 90.000000
_cell_angle_beta 90.000000
_cell_angle_gamma 120.000000
_cell_volume 5664.292015
_symmetry_space_group_name_H-M "R -3"
_symmetry_group_IT_number 148
_symmetry_cell_setting 'hexagonal'
loop_
_space_group_symop_operation_xyz
x,y,z
-y,x-y,z
-x+y,-x,z
-x,-y,-z
y,-x+y,-z
x-y,x,-z
2/3+x,1/3+y,1/3+z
2/3-y,1/3+x-y,1/3+z
2/3-x+y,1/3-x,1/3+z
2/3-x,1/3-y,1/3-z
2/3+y,1/3-x+y,1/3-z
2/3+x-y,1/3+x,1/3-z
1/3+x,2/3+y,2/3+z
1/3-y,2/3+x-y,2/3+z
1/3-x+y,2/3-x,2/3+z
1/3-x,2/3-y,2/3-z
1/3+y,2/3-x+y,2/3-z
1/3+x-y,2/3+x,2/3-z
loop_
_atom_site_type_symbol
_atom_site_label
_atom_site_fract_x
_atom_site_fract_y
_atom_site_fract_z
Si Si1 0.015235 0.534734 0.359254
Si Si2 0.710722 0.553062 0.112070
Si Si3 0.701580 0.006544 0.117073
Si Si4 0.817409 0.504316 0.867528
Si Si5 0.363866 0.152107 0.427319
Si Si6 0.445225 0.685794 0.013828
Si Si7 0.822801 0.290031 0.529143
O O1 0.045169 0.467931 0.393651
O O2 0.121440 0.622377 0.344520
O O3 0.960465 0.565329 0.400271
O O4 0.961661 0.506390 0.302882
O O5 0.712414 0.614140 0.163090
O O6 0.604100 0.462987 0.111584
O O7 0.780004 0.508738 0.123826
O O8 0.622581 0.038540 0.117951
O O9 0.664728 0.895809 0.109830
O O10 0.846298 0.432524 0.841213
O O11 0.895232 0.610775 0.887012
O O12 0.765635 0.457630 0.922937
O O13 0.454277 0.180588 0.465151
O O14 0.413086 0.763620 0.998921
#
# Coordination Sequence:
#
# PCOD9575099 Si02
#       7
#    18  18  18  18  18  18  18
#     4  10  21  34  57  81 114 151 186 235 300 338
#     4  10  22  38  64  88 113 152 202 238 296 348
#     4  10  22  41  58  85 118 151 197 241 293 356
#     4  11  17  31  53  77 111 159 191 227 270 334
#     4  10  23  37  55  86 117 153 193 236 295 348
#     4   9  18  29  47  80 109 139 184 229 271 326
#     4  10  20  39  62  88 115 153 196 249 281 352
#
# _framework density 22.244615
#
# number of rings (size 3 to 8) (size 9 to 14) (size 15 to 20)
#    0.286    1.714    1.429    3.000    4.000    2.286 
#    0.000    2.143    0.000    0.000    0.000    8.000 
#    0.000    0.000    0.000    0.000    0.000    0.000 
#
# Total GULP energy -234277.625028 kJ/mol
# GULP energy per Si atom -5578.038691 kJ/mol
# Density = 2.219399 g / cm^3
# Si number density = 22.244615 Si / 1000 Ang^3
#
#
#
# Elastic Constant Matrix: (Units=GPa)
#
#
# Indices 1 2 3 4 5 6 
#
# 1 44.9216 3.9713 10.9867 2.0135 -0.6594 0.0000
# 2 3.9713 44.9216 10.9867 -2.0135 0.6594 0.0000
# 3 10.9867 10.9867 163.2314 0.0000 0.0000 0.0000
# 4 2.0135 -2.0135 0.0000 24.3754 0.0000 0.6594
# 5 -0.6594 0.6594 0.0000 0.0000 24.3754 2.0135
# 6 0.0000 0.0000 0.0000 0.6594 2.0135 20.4752
#
#
#
# Elastic Compliance Matrix: (Units=1/GPa)
#
#
# Indices 1 2 3 4 5 6 
#
# 1 0.022866 -0.001775 -0.001420 -0.002035 0.000667 0.000000
# 2 -0.001775 0.022866 -0.001420 0.002035 -0.000667 0.000000
# 3 -0.001420 -0.001420 0.006317 0.000000 0.000000 0.000000
# 4 -0.002035 0.002035 0.000000 0.041397 0.000000 -0.001333
# 5 0.000667 -0.000667 0.000000 0.000000 0.041397 -0.004071
# 6 0.000000 0.000000 0.000000 -0.001333 -0.004071 0.049283
#
#
# Mechanical properties :
#
#
# Convention : Reuss Voigt Hill
#
# Bulk Modulus (GPa) = 23.35314 33.88487 28.61901
# Shear Modulus (GPa) = 24.08132 28.98718 26.53425
#
# Velocity S-wave (km/s) = 3.29381 3.61378 3.45750
# Velocity P-wave (km/s) = 4.99867 5.71650 5.36960
#
# Compressibility (1/GPa) = 0.04282080
#
# Stress axis : x y z
#
# Youngs Moduli (GPa) = 43.73274 43.73274 158.29375
#
# Poissons Ratio (x) = 0.07764 0.22471
# Poissons Ratio (y) = 0.07764 0.22471
# Poissons Ratio (z) = 0.06208 0.06208
#
# Static dielectric constant tensor:
#      x y z
#    x 1.840340 0.000000 0.000000 
#    y 0.000000 1.840340 0.000000 
#    z 0.000000 0.000000 1.860970 
# 
# From -- ./inp_files/3432.got.cif
#   From: 2010.05.17/outbox.cif.g08.bks.cpg/sg148_2_cif.got.tgz:3432.got - 2010.05.20 13:50:20.
