data_PCOD9575069
_publ_section_title
;
Structure prediction by ZEFSAII (Michael W. Deem and Ramdas Pophale) SiO2 
 PCOD9575069
Probable space group: R -3
;
_chemical_formula_sum "Si O2"
_cell_formula_units_Z 108
_cell_length_a 20.746991
_cell_length_b 20.746991
_cell_length_c 10.732919
_cell_angle_alpha 90.000000
_cell_angle_beta 90.000000
_cell_angle_gamma 120.000000
_cell_volume 4000.909434
_symmetry_space_group_name_H-M "R -3"
_symmetry_group_IT_number 148
_symmetry_cell_setting 'hexagonal'
loop_
_space_group_symop_operation_xyz
x,y,z
-y,x-y,z
-x+y,-x,z
-x,-y,-z
y,-x+y,-z
x-y,x,-z
2/3+x,1/3+y,1/3+z
2/3-y,1/3+x-y,1/3+z
2/3-x+y,1/3-x,1/3+z
2/3-x,1/3-y,1/3-z
2/3+y,1/3-x+y,1/3-z
2/3+x-y,1/3+x,1/3-z
1/3+x,2/3+y,2/3+z
1/3-y,2/3+x-y,2/3+z
1/3-x+y,2/3-x,2/3+z
1/3-x,2/3-y,2/3-z
1/3+y,2/3-x+y,2/3-z
1/3+x-y,2/3+x,2/3-z
loop_
_atom_site_type_symbol
_atom_site_label
_atom_site_fract_x
_atom_site_fract_y
_atom_site_fract_z
Si Si1 0.475408 0.683978 0.865428
Si Si2 0.469473 0.082572 0.088082
Si Si3 0.446509 0.031734 0.640345
Si Si4 0.038876 0.382878 0.205242
Si Si5 0.742681 0.474211 0.748565
Si Si6 0.850379 0.053493 0.036826
O O1 0.554737 0.733185 0.933541
O O2 0.410138 0.645310 0.964836
O O3 0.475338 0.739563 0.763581
O O4 0.485157 0.627606 0.775874
O O5 0.539021 0.116188 0.994457
O O6 0.477788 0.126557 0.215337
O O7 0.422059 0.997426 0.132051
O O8 0.409072 0.088975 0.000267
O O9 0.429969 0.042081 0.783134
O O10 0.368640 0.012326 0.572333
O O11 0.449734 0.956811 0.617916
O O12 0.555000 0.349773 0.809352
#
# Coordination Sequence:
#
# PCOD9575069 Si02
#       6
#    18  18  18  18  18  18
#     4  12  25  45  71 106 146 193 260 306 377 451
#     4  10  22  43  71 110 149 196 250 306 384 459
#     4  10  19  40  66 102 146 195 231 301 379 457
#     4   9  19  39  71 103 154 190 229 297 386 463
#     4  12  27  49  75 103 145 201 266 327 373 433
#     4  11  24  42  71 104 152 196 248 310 378 456
#
# _framework density 26.993862
#
# number of rings (size 3 to 8) (size 9 to 14) (size 15 to 20)
#    0.000    1.333    1.667    3.667    2.333    0.000 
#    3.000    7.500    0.000    3.333    0.000    0.000 
#    0.000    0.000    0.000    0.000    0.000    0.000 
#
# Total GULP energy -201045.435818 kJ/mol
# GULP energy per Si atom -5584.595439 kJ/mol
# Density = 2.693242 g / cm^3
# Si number density = 26.993862 Si / 1000 Ang^3
#
#
#
# Elastic Constant Matrix: (Units=GPa)
#
#
# Indices 1 2 3 4 5 6 
#
# 1 68.2910 16.0792 40.8217 -3.9549 3.8086 0.0000
# 2 16.0792 68.2910 40.8217 3.9549 -3.8086 0.0000
# 3 40.8217 40.8217 179.3101 0.0000 0.0001 0.0000
# 4 -3.9549 3.9549 0.0000 40.3487 0.0000 -3.8086
# 5 3.8086 -3.8086 0.0001 0.0000 40.3487 -3.9549
# 6 0.0000 0.0000 0.0000 -3.8086 -3.9549 26.1059
#
#
#
# Elastic Compliance Matrix: (Units=1/GPa)
#
#
# Indices 1 2 3 4 5 6 
#
# 1 0.017459 -0.002258 -0.003461 0.001933 -0.001861 0.000000
# 2 -0.002258 0.017459 -0.003461 -0.001933 0.001861 0.000000
# 3 -0.003461 -0.003461 0.007153 0.000000 0.000000 0.000000
# 4 0.001933 -0.001933 0.000000 0.025514 0.000000 0.003722
# 5 -0.001861 0.001861 0.000000 0.000000 0.025514 0.003865
# 6 0.000000 0.000000 0.000000 0.003722 0.003865 0.039434
#
#
# Mechanical properties :
#
#
# Convention : Reuss Voigt Hill
#
# Bulk Modulus (GPa) = 42.17181 56.81527 49.49354
# Shear Modulus (GPa) = 31.48687 35.90532 33.69609
#
# Velocity S-wave (km/s) = 3.41903 3.65105 3.53694
# Velocity P-wave (km/s) = 5.58955 6.23432 5.92072
#
# Compressibility (1/GPa) = 0.02371252
#
# Stress axis : x y z
#
# Youngs Moduli (GPa) = 57.27626 57.27626 139.80762
#
# Poissons Ratio (x) = 0.12932 0.48384
# Poissons Ratio (y) = 0.12932 0.48384
# Poissons Ratio (z) = 0.19822 0.19822
#
# Static dielectric constant tensor:
#      x y z
#    x 2.211180 0.000000 0.000000 
#    y 0.000000 2.211180 0.000000 
#    z 0.000000 0.000000 2.092410 
# 
# From -- ./inp_files/1538.got.cif
#   From: 2010.05.17/outbox.cif.g08.bks.cpg/sg148_1_cif.got.tgz:1538.got - 2010.05.20 13:50:20.
