data_PCOD9575018
_publ_section_title
;
Structure prediction by ZEFSAII (Michael W. Deem and Ramdas Pophale) SiO2 
 PCOD9575018
Probable space group: R -3
;
_chemical_formula_sum "Si O2"
_cell_formula_units_Z 144
_cell_length_a 20.668126
_cell_length_b 20.668126
_cell_length_c 19.445504
_cell_angle_alpha 90.000000
_cell_angle_beta 90.000000
_cell_angle_gamma 120.000000
_cell_volume 7193.695266
_symmetry_space_group_name_H-M "R -3"
_symmetry_group_IT_number 148
_symmetry_cell_setting 'hexagonal'
loop_
_space_group_symop_operation_xyz
x,y,z
-y,x-y,z
-x+y,-x,z
-x,-y,-z
y,-x+y,-z
x-y,x,-z
2/3+x,1/3+y,1/3+z
2/3-y,1/3+x-y,1/3+z
2/3-x+y,1/3-x,1/3+z
2/3-x,1/3-y,1/3-z
2/3+y,1/3-x+y,1/3-z
2/3+x-y,1/3+x,1/3-z
1/3+x,2/3+y,2/3+z
1/3-y,2/3+x-y,2/3+z
1/3-x+y,2/3-x,2/3+z
1/3-x,2/3-y,2/3-z
1/3+y,2/3-x+y,2/3-z
1/3+x-y,2/3+x,2/3-z
loop_
_atom_site_type_symbol
_atom_site_label
_atom_site_fract_x
_atom_site_fract_y
_atom_site_fract_z
Si Si1 0.590907 0.422816 0.308935
Si Si2 0.597056 0.106283 0.705602
Si Si3 0.586264 0.002161 0.834657
Si Si4 0.502497 0.416718 0.182541
Si Si5 0.533956 0.517310 0.391024
Si Si6 0.384555 0.452525 0.235765
Si Si7 0.420547 0.034836 0.533602
Si Si8 0.181136 0.631092 0.133760
O O1 0.680145 0.460943 0.313152
O O2 0.554978 0.401135 0.232748
O O3 0.568806 0.482201 0.339525
O O4 0.519627 0.107730 0.710731
O O5 0.666194 0.186478 0.725799
O O6 0.590383 0.054273 0.770781
O O7 0.589381 0.056587 0.640114
O O8 0.499690 0.945386 0.847091
O O9 0.635739 0.966579 0.809820
O O10 0.632658 0.054108 0.899091
O O11 0.440261 0.419787 0.232746
O O12 0.449633 0.354714 0.127445
O O13 0.577906 0.537408 0.462124
O O14 0.448348 0.457350 0.408545
O O15 0.397022 0.495449 0.162364
O O16 0.234980 0.699186 0.185142
#
# Coordination Sequence:
#
# PCOD9575018 Si02
#       8
#    18  18  18  18  18  18  18  18
#     4  12  23  37  59  88 116 143 188 235 286 339
#     4   9  17  31  51  77 103 148 183 228 279 335
#     4   9  16  31  52  78 107 139 176 226 281 333
#     4  10  18  35  55  81 113 152 179 228 292 335
#     4  11  21  36  56  81 110 148 192 233 286 335
#     4   8  15  27  50  78 104 134 180 223 268 329
#     4  10  22  34  54  84 111 145 190 239 280 345
#     4   9  16  27  48  79 108 140 184 235 283 330
#
# _framework density 20.017529
#
# number of rings (size 3 to 8) (size 9 to 14) (size 15 to 20)
#    0.000    2.250    3.750    1.750    0.000    0.000 
#    0.000    0.000    5.500    0.750    0.000    0.000 
#    0.000    0.000    0.000    0.000    0.000    0.000 
#
# Total GULP energy -267255.681845 kJ/mol
# GULP energy per Si atom -5567.826705 kJ/mol
# Density = 1.997197 g / cm^3
# Si number density = 20.017529 Si / 1000 Ang^3
#
#
#
# Elastic Constant Matrix: (Units=GPa)
#
#
# Indices 1 2 3 4 5 6 
#
# 1 75.1809 19.8058 1.0723 2.8745 -0.2759 0.0000
# 2 19.8058 75.1809 1.0723 -2.8745 0.2759 0.0000
# 3 1.0723 1.0723 12.0696 0.0000 0.0000 0.0000
# 4 2.8745 -2.8745 0.0000 14.3686 0.0000 0.2759
# 5 -0.2759 0.2759 0.0000 0.0000 14.3686 2.8745
# 6 0.0000 0.0000 0.0000 0.2759 2.8745 27.6875
#
#
#
# Elastic Compliance Matrix: (Units=1/GPa)
#
#
# Indices 1 2 3 4 5 6 
#
# 1 0.014497 -0.003948 -0.000937 -0.003690 0.000354 0.000000
# 2 -0.003948 0.014497 -0.000937 0.003690 -0.000354 0.000000
# 3 -0.000937 -0.000937 0.083019 0.000000 0.000000 0.000000
# 4 -0.003690 0.003690 0.000000 0.071086 0.000000 -0.000708
# 5 0.000354 -0.000354 0.000000 0.000000 0.071086 -0.007380
# 6 0.000000 0.000000 0.000000 -0.000708 -0.007380 0.036891
#
#
# Mechanical properties :
#
#
# Convention : Reuss Voigt Hill
#
# Bulk Modulus (GPa) = 9.96329 22.92578 16.44453
# Shear Modulus (GPa) = 14.87310 20.65036 17.76173
#
# Velocity S-wave (km/s) = 2.72877 3.21536 2.98200
# Velocity P-wave (km/s) = 3.86216 5.02617 4.48212
#
# Compressibility (1/GPa) = 0.10036849
#
# Stress axis : x y z
#
# Youngs Moduli (GPa) = 68.97921 68.97921 12.04540
#
# Poissons Ratio (x) = 0.27234 0.01129
# Poissons Ratio (y) = 0.27234 0.01129
# Poissons Ratio (z) = 0.06464 0.06464
#
# Static dielectric constant tensor:
#      x y z
#    x 1.763530 0.000000 0.000000 
#    y 0.000000 1.763530 0.000000 
#    z 0.000000 0.000000 1.714330 
# 
# From -- ./inp_files/3161.got.cif
#   From: 2010.05.17/outbox.cif.g08.bks.cpg/sg148_2_cif.got.tgz:3161.got - 2010.05.20 13:50:20.
