data_PCOD9575833
_publ_section_title
;
Structure prediction by ZEFSAII (Michael W. Deem and Ramdas Pophale) SiO2 
 PCOD9575833
Probable space group: P 31 2 1
;
_chemical_formula_sum "Si O2"
_cell_formula_units_Z 36
_cell_length_a 9.100225
_cell_length_b 9.100225
_cell_length_c 25.323237
_cell_angle_alpha 90.000000
_cell_angle_beta 90.000000
_cell_angle_gamma 120.000000
_cell_volume 1816.160023
_symmetry_space_group_name_H-M "P 31 2 1"
_symmetry_group_IT_number 152
_symmetry_cell_setting 'hexagonal'
loop_
_space_group_symop_operation_xyz
x,y,z
-y,x-y,1/3+z
-x+y,-x,2/3+z
x-y,-y,2/3-z
-x,-x+y,1/3-z
y,x,-z
loop_
_atom_site_type_symbol
_atom_site_label
_atom_site_fract_x
_atom_site_fract_y
_atom_site_fract_z
Si Si1 0.357064 0.007231 0.214782
Si Si2 0.892526 0.503283 0.882532
Si Si3 0.994326 0.637740 0.606152
Si Si4 0.898605 0.539641 0.112721
Si Si5 0.422726 0.630218 0.391607
Si Si6 0.221545 0.581107 0.934141
O O1 0.372564 0.188950 0.207063
O O2 0.469111 0.012834 0.265369
O O3 0.453969 0.967609 0.167801
O O4 0.172122 0.842829 0.219445
O O5 0.734272 0.334920 0.905937
O O6 0.043608 0.568881 0.924186
O O7 0.805283 0.587157 0.587744
O O8 0.000000 0.686330 0.666667
O O9 0.182008 0.771236 0.585257
O O10 0.730500 0.359714 0.102330
O O11 0.000000 0.559514 0.166667
O O12 0.025416 0.558767 0.066194
O O13 0.392721 0.653534 0.330057
#
# Coordination Sequence:
#
# PCOD9575833 Si02
#       6
#     6   6   6   6   6   6
#     4  10  20  35  58  84 117 154 203 246 297 361
#     4  11  21  37  61  86 114 158 205 249 294 364
#     4   8  17  33  56  83 111 148 194 240 287 352
#     4  11  21  38  57  87 122 157 193 252 317 362
#     4  10  20  37  61  85 120 154 197 249 307 361
#     4  10  21  37  59  89 116 158 202 248 299 374
#
# _framework density 19.822044000000002
#
# number of rings (size 3 to 8) (size 9 to 14) (size 15 to 20)
#    0.000    2.000    1.667    3.000    2.333    1.333 
#    0.000    2.500    0.000    0.000    0.000    0.000 
#    0.000    0.000    0.000    0.000    0.000    0.000 
#
# Total GULP energy -200409.836944 kJ/mol
# GULP energy per Si atom -5566.939915 kJ/mol
# Density = 1.977693 g / cm^3
# Si number density = 19.822044 Si / 1000 Ang^3
#
#
#
# Elastic Constant Matrix: (Units=GPa)
#
#
# Indices 1 2 3 4 5 6 
#
# 1 103.9520 48.6392 16.2580 2.2624 -0.0001 0.0000
# 2 48.6392 103.9520 16.2580 -2.2624 0.0001 0.0000
# 3 16.2580 16.2580 52.0713 0.0000 0.0000 0.0000
# 4 2.2624 -2.2624 0.0000 27.8802 0.0000 0.0001
# 5 -0.0001 0.0001 0.0000 0.0000 27.8802 2.2624
# 6 0.0000 0.0000 0.0000 0.0001 2.2624 27.6564
#
#
#
# Elastic Compliance Matrix: (Units=1/GPa)
#
#
# Indices 1 2 3 4 5 6 
#
# 1 0.012610 -0.005590 -0.002192 -0.001477 0.000000 0.000000
# 2 -0.005590 0.012610 -0.002192 0.001477 0.000000 0.000000
# 3 -0.002192 -0.002192 0.020573 0.000000 0.000000 0.000000
# 4 -0.001477 0.001477 0.000000 0.036107 0.000000 0.000000
# 5 0.000000 0.000000 0.000000 0.000000 0.036107 -0.002954
# 6 0.000000 0.000000 0.000000 0.000000 -0.002954 0.036400
#
#
# Mechanical properties :
#
#
# Convention : Reuss Voigt Hill
#
# Bulk Modulus (GPa) = 38.69017 46.92062 42.80540
# Shear Modulus (GPa) = 27.32676 28.60469 27.96572
#
# Velocity S-wave (km/s) = 3.71698 3.80290 3.76019
# Velocity P-wave (km/s) = 6.16299 6.55783 6.36347
#
# Compressibility (1/GPa) = 0.02584636
#
# Stress axis : x y z
#
# Youngs Moduli (GPa) = 79.30100 79.30100 48.60682
#
# Poissons Ratio (x) = 0.44326 0.10655
# Poissons Ratio (y) = 0.44326 0.10655
# Poissons Ratio (z) = 0.17383 0.17383
#
# Static dielectric constant tensor:
#      x y z
#    x 1.725360 0.000000 0.000000 
#    y 0.000000 1.725360 0.000000 
#    z 0.000000 0.000000 1.774030 
# 
# From -- ./inp_files/3555.got.cif
#   From: 2010.05.17/outbox.cif.g08.bks.cpg/sg152_2_cif.got.tgz:3555.got - 2010.05.20 10:36:06.
