data_PCOD9575235
_publ_section_title
;
Structure prediction by ZEFSAII (Michael W. Deem and Ramdas Pophale) SiO2 
 PCOD9575235
Probable space group: R -3
;
_chemical_formula_sum "Si O2"
_cell_formula_units_Z 126
_cell_length_a 19.861440
_cell_length_b 19.861440
_cell_length_c 14.819893
_cell_angle_alpha 90.000000
_cell_angle_beta 90.000000
_cell_angle_gamma 120.000000
_cell_volume 5062.874534
_symmetry_space_group_name_H-M "R -3"
_symmetry_group_IT_number 148
_symmetry_cell_setting 'hexagonal'
loop_
_space_group_symop_operation_xyz
x,y,z
-y,x-y,z
-x+y,-x,z
-x,-y,-z
y,-x+y,-z
x-y,x,-z
2/3+x,1/3+y,1/3+z
2/3-y,1/3+x-y,1/3+z
2/3-x+y,1/3-x,1/3+z
2/3-x,1/3-y,1/3-z
2/3+y,1/3-x+y,1/3-z
2/3+x-y,1/3+x,1/3-z
1/3+x,2/3+y,2/3+z
1/3-y,2/3+x-y,2/3+z
1/3-x+y,2/3-x,2/3+z
1/3-x,2/3-y,2/3-z
1/3+y,2/3-x+y,2/3-z
1/3+x-y,2/3+x,2/3-z
loop_
_atom_site_type_symbol
_atom_site_label
_atom_site_fract_x
_atom_site_fract_y
_atom_site_fract_z
Si Si1 0.761519 0.416384 0.466386
Si Si2 0.115700 0.611668 0.937330
Si Si3 0.791719 0.508704 0.812274
Si Si4 0.643664 0.031907 0.698509
Si Si5 0.444701 0.502098 0.309838
Si Si6 0.473005 0.360284 0.325507
Si Si7 0.782818 0.023663 0.786056
O O1 0.675478 0.408469 0.467970
O O2 0.807360 0.471708 0.550383
O O3 0.879131 0.332376 0.444945
O O4 0.130732 0.602759 0.042516
O O5 0.053103 0.641250 0.941259
O O6 0.087954 0.527383 0.896130
O O7 0.809923 0.440576 0.830371
O O8 0.843163 0.577248 0.882230
O O9 0.580510 0.941841 0.705756
O O10 0.587591 0.068872 0.700695
O O11 0.710653 0.035739 0.762011
O O12 0.477654 0.443859 0.327344
O O13 0.379919 0.484281 0.386493
O O14 0.540356 0.356233 0.380505
#
# Coordination Sequence:
#
# PCOD9575235 Si02
#       7
#    18  18  18  18  18  18  18
#     4  10  29  58  85 119 171 225 293 355 427 500
#     4  12  26  49  85 118 165 213 282 345 428 514
#     4  12  25  46  81 118 164 210 264 345 429 515
#     4  11  27  49  81 120 165 214 274 350 426 520
#     4  11  26  49  80 121 165 210 279 348 429 517
#     4  11  28  54  82 116 167 223 286 351 422 515
#     4  11  27  51  80 119 163 219 280 348 426 509
#
# _framework density 24.887046999999999
#
# number of rings (size 3 to 8) (size 9 to 14) (size 15 to 20)
#    0.286    0.571    2.857    1.429   10.000    1.714 
#    5.143    0.714    0.000    0.000    0.000    0.000 
#    0.000    0.000    0.000    0.000    0.000    0.000 
#
# Total GULP energy -234608.487783 kJ/mol
# GULP energy per Si atom -5585.916376 kJ/mol
# Density = 2.483040 g / cm^3
# Si number density = 24.887047 Si / 1000 Ang^3
#
#
#
# Elastic Constant Matrix: (Units=GPa)
#
#
# Indices 1 2 3 4 5 6 
#
# 1 101.3695 18.5420 -8.5322 -5.9193 5.8622 0.0000
# 2 18.5420 101.3695 -8.5322 5.9193 -5.8622 0.0000
# 3 -8.5322 -8.5322 92.9749 0.0000 0.0000 0.0000
# 4 -5.9193 5.9193 0.0000 34.2886 0.0000 -5.8622
# 5 5.8622 -5.8622 0.0000 0.0000 34.2886 -5.9193
# 6 0.0000 0.0000 0.0000 -5.8622 -5.9193 41.4137
#
#
#
# Elastic Compliance Matrix: (Units=1/GPa)
#
#
# Indices 1 2 3 4 5 6 
#
# 1 0.010572 -0.002122 0.000775 0.002191 -0.002170 0.000000
# 2 -0.002122 0.010572 0.000775 -0.002191 0.002170 0.000000
# 3 0.000775 0.000775 0.010898 0.000000 0.000000 0.000000
# 4 0.002191 -0.002191 0.000000 0.030663 0.000000 0.004340
# 5 -0.002170 0.002170 0.000000 0.000000 0.030663 0.004383
# 6 0.000000 0.000000 0.000000 0.004340 0.004383 0.025387
#
#
# Mechanical properties :
#
#
# Convention : Reuss Voigt Hill
#
# Bulk Modulus (GPa) = 32.36317 33.18544 32.77431
# Shear Modulus (GPa) = 38.40351 41.61394 40.00873
#
# Velocity S-wave (km/s) = 3.93251 4.09358 4.01385
# Velocity P-wave (km/s) = 5.80101 5.97550 5.88890
#
# Compressibility (1/GPa) = 0.03089932
#
# Stress axis : x y z
#
# Youngs Moduli (GPa) = 94.59158 94.59158 91.76070
#
# Poissons Ratio (x) = 0.20072 -0.07115
# Poissons Ratio (y) = 0.20072 -0.07115
# Poissons Ratio (z) = -0.07335 -0.07335
#
# Static dielectric constant tensor:
#      x y z
#    x 2.031860 0.000000 0.000000 
#    y 0.000000 2.031860 0.000000 
#    z 0.000000 0.000000 1.956140 
# 
# From -- ./inp_files/3710.got.cif
#   From: 2010.05.17/outbox.cif.g08.bks.cpg/sg148_2_cif.got.tgz:3710.got - 2010.05.20 13:50:20.
