data_PCOD9575090
_publ_section_title
;
Structure prediction by ZEFSAII (Michael W. Deem and Ramdas Pophale) SiO2 
 PCOD9575090
Probable space group: R -3
;
_chemical_formula_sum "Si O2"
_cell_formula_units_Z 108
_cell_length_a 14.629496
_cell_length_b 14.629496
_cell_length_c 34.454748
_cell_angle_alpha 90.000000
_cell_angle_beta 90.000000
_cell_angle_gamma 120.000000
_cell_volume 6386.140051
_symmetry_space_group_name_H-M "R -3"
_symmetry_group_IT_number 148
_symmetry_cell_setting 'hexagonal'
loop_
_space_group_symop_operation_xyz
x,y,z
-y,x-y,z
-x+y,-x,z
-x,-y,-z
y,-x+y,-z
x-y,x,-z
2/3+x,1/3+y,1/3+z
2/3-y,1/3+x-y,1/3+z
2/3-x+y,1/3-x,1/3+z
2/3-x,1/3-y,1/3-z
2/3+y,1/3-x+y,1/3-z
2/3+x-y,1/3+x,1/3-z
1/3+x,2/3+y,2/3+z
1/3-y,2/3+x-y,2/3+z
1/3-x+y,2/3-x,2/3+z
1/3-x,2/3-y,2/3-z
1/3+y,2/3-x+y,2/3-z
1/3+x-y,2/3+x,2/3-z
loop_
_atom_site_type_symbol
_atom_site_label
_atom_site_fract_x
_atom_site_fract_y
_atom_site_fract_z
Si Si1 0.867647 0.965643 0.295674
Si Si2 0.031259 0.571697 0.256321
Si Si3 0.665144 0.578964 0.967890
Si Si4 0.654072 0.807004 0.422569
Si Si5 0.340362 0.876223 0.678271
Si Si6 0.548040 0.466519 0.829463
O O1 0.795565 0.944041 0.258265
O O2 0.918536 0.890080 0.296370
O O3 0.797425 0.952088 0.333035
O O4 0.085272 0.517374 0.280711
O O5 0.099411 0.698199 0.255357
O O6 0.025537 0.535760 0.211846
O O7 0.923005 0.539171 0.279061
O O8 0.578412 0.557224 0.935747
O O9 0.707787 0.690242 0.989590
O O10 0.668329 0.832357 0.467957
O O11 0.432000 0.866147 0.656449
O O12 0.672699 0.515458 0.837695
#
# Coordination Sequence:
#
# PCOD9575090 Si02
#       6
#    18  18  18  18  18  18
#     4  10  23  35  56  83 120 149 186 234 297 348
#     4  10  21  36  56  85 114 155 189 235 293 348
#     4  11  20  35  55  89 112 152 184 239 292 355
#     4  11  21  35  58  80 123 150 196 234 285 354
#     4  10  22  36  60  82 115 144 192 239 299 339
#     4  10  20  37  56  82 116 155 195 237 286 342
#
# _framework density 16.911625000000001
#
# number of rings (size 3 to 8) (size 9 to 14) (size 15 to 20)
#    0.333    1.333    3.333    1.833    4.667    0.000 
#    1.000    0.000    7.333    3.000    0.000    0.000 
#    0.000    0.000    0.000    0.000    0.000    0.000 
#
# Total GULP energy -200796.563876 kJ/mol
# GULP energy per Si atom -5577.682330 kJ/mol
# Density = 1.687313 g / cm^3
# Si number density = 16.911625 Si / 1000 Ang^3
#
#
#
# Elastic Constant Matrix: (Units=GPa)
#
#
# Indices 1 2 3 4 5 6 
#
# 1 76.2160 27.9324 47.4803 7.5045 -1.5729 0.0000
# 2 27.9324 76.2160 47.4803 -7.5045 1.5729 0.0000
# 3 47.4803 47.4803 133.0964 0.0000 0.0000 0.0000
# 4 7.5045 -7.5045 0.0000 23.1140 0.0000 1.5729
# 5 -1.5729 1.5729 0.0000 0.0000 23.1140 7.5045
# 6 0.0000 0.0000 0.0000 1.5729 7.5045 24.1418
#
#
#
# Elastic Compliance Matrix: (Units=1/GPa)
#
#
# Indices 1 2 3 4 5 6 
#
# 1 0.018690 -0.004460 -0.005076 -0.007516 0.001575 0.000000
# 2 -0.004460 0.018690 -0.005076 0.007516 -0.001575 0.000000
# 3 -0.005076 -0.005076 0.011135 0.000000 0.000000 0.000000
# 4 -0.007516 0.007516 0.000000 0.048359 0.000000 -0.003151
# 5 0.001575 -0.001575 0.000000 0.000000 0.048359 -0.015032
# 6 0.000000 0.000000 0.000000 -0.003151 -0.015032 0.046300
#
#
# Mechanical properties :
#
#
# Convention : Reuss Voigt Hill
#
# Bulk Modulus (GPa) = 51.84029 59.03494 55.43762
# Shear Modulus (GPa) = 22.00813 24.91633 23.46223
#
# Velocity S-wave (km/s) = 3.61135 3.84256 3.72875
# Velocity P-wave (km/s) = 6.93609 7.39396 7.16868
#
# Compressibility (1/GPa) = 0.01929002
#
# Stress axis : x y z
#
# Youngs Moduli (GPa) = 53.50412 53.50412 89.80476
#
# Poissons Ratio (x) = 0.23862 0.45589
# Poissons Ratio (y) = 0.23862 0.45589
# Poissons Ratio (z) = 0.27161 0.27161
#
# Static dielectric constant tensor:
#      x y z
#    x 1.574150 0.000000 0.000000 
#    y 0.000000 1.574150 0.000000 
#    z 0.000000 0.000000 1.557470 
# 
# From -- ./inp_files/3993.got.cif
#   From: 2010.05.17/outbox.cif.g08.bks.cpg/sg148_2_cif.got.tgz:3993.got - 2010.05.20 13:50:20.
