data_PCOD9575941
_publ_section_title
;
Structure prediction by ZEFSAII (Michael W. Deem and Ramdas Pophale) SiO2 
 PCOD9575941
Probable space group: P 31 2 1
;
_chemical_formula_sum "Si O2"
_cell_formula_units_Z 30
_cell_length_a 19.044284
_cell_length_b 19.044284
_cell_length_c 4.996012
_cell_angle_alpha 90.000000
_cell_angle_beta 90.000000
_cell_angle_gamma 120.000000
_cell_volume 1569.218441
_symmetry_space_group_name_H-M "P 31 2 1"
_symmetry_group_IT_number 152
_symmetry_cell_setting 'hexagonal'
loop_
_space_group_symop_operation_xyz
x,y,z
-y,x-y,1/3+z
-x+y,-x,2/3+z
x-y,-y,2/3-z
-x,-x+y,1/3-z
y,x,-z
loop_
_atom_site_type_symbol
_atom_site_label
_atom_site_fract_x
_atom_site_fract_y
_atom_site_fract_z
Si Si1 0.587272 0.672356 0.655457
Si Si2 0.087945 0.574679 0.294994
Si Si3 0.417347 0.178703 0.194982
Si Si4 0.317888 0.578978 0.535264
Si Si5 0.349771 0.294271 0.234019
O O1 0.638515 0.638515 0.500000
O O2 0.499619 0.596113 0.729435
O O3 0.579414 0.731372 0.440036
O O4 0.614832 0.717720 0.936432
O O5 0.166779 0.630622 0.109796
O O6 0.080629 0.636838 0.493007
O O7 0.000000 0.529938 0.166667
O O8 0.509002 0.247274 0.282835
O O9 0.358644 0.215515 0.241446
O O10 0.385458 0.661815 0.676442
O O11 0.319855 0.319855 0.500000
O O12 0.293725 0.293725 0.000000
#
# Coordination Sequence:
#
# PCOD9575941 Si02
#       5
#     6   6   6   6   6
#     4  11  22  39  56  80 111 150 187 232 285 345
#     4   9  20  36  52  74 104 144 189 235 291 346
#     4  11  23  38  57  83 110 148 191 236 289 341
#     4  11  21  35  53  76 105 141 189 250 296 331
#     4  10  21  38  58  81 108 146 188 240 284 340
#
# _framework density 19.117795000000001
#
# number of rings (size 3 to 8) (size 9 to 14) (size 15 to 20)
#    0.000    1.600    2.000    3.000    0.000    4.800 
#    7.200    0.000    0.000    0.000    0.000    0.000 
#    0.000    0.000    0.000   75.600    0.000    0.000 
#
# Total GULP energy -167159.068139 kJ/mol
# GULP energy per Si atom -5571.968938 kJ/mol
# Density = 1.907428 g / cm^3
# Si number density = 19.117795 Si / 1000 Ang^3
#
#
#
# Elastic Constant Matrix: (Units=GPa)
#
#
# Indices 1 2 3 4 5 6 
#
# 1 63.2969 27.3436 0.0957 1.9780 0.0000 0.0000
# 2 27.3436 63.2969 0.0957 -1.9780 0.0000 0.0000
# 3 0.0957 0.0957 52.0739 0.0000 0.0000 0.0000
# 4 1.9780 -1.9780 0.0000 21.6983 0.0000 0.0000
# 5 0.0000 0.0000 0.0000 0.0000 21.6983 1.9780
# 6 0.0000 0.0000 0.0000 0.0000 1.9780 17.9766
#
#
#
# Elastic Compliance Matrix: (Units=1/GPa)
#
#
# Indices 1 2 3 4 5 6 
#
# 1 0.019564 -0.008532 -0.000020 -0.002561 0.000000 0.000000
# 2 -0.008532 0.019564 -0.000020 0.002561 0.000000 0.000000
# 3 -0.000020 -0.000020 0.019204 0.000000 0.000000 0.000000
# 4 -0.002561 0.002561 0.000000 0.046553 0.000000 0.000000
# 5 0.000000 0.000000 0.000000 0.000000 0.046553 -0.005122
# 6 0.000000 0.000000 0.000000 0.000000 -0.005122 0.056191
#
#
# Mechanical properties :
#
#
# Convention : Reuss Voigt Hill
#
# Bulk Modulus (GPa) = 24.27908 25.97086 25.12497
# Shear Modulus (GPa) = 20.96404 22.35016 21.65710
#
# Velocity S-wave (km/s) = 3.31505 3.42289 3.36940
# Velocity P-wave (km/s) = 5.23259 5.40700 5.32051
#
# Compressibility (1/GPa) = 0.04118772
#
# Stress axis : x y z
#
# Youngs Moduli (GPa) = 51.11387 51.11387 52.07366
#
# Poissons Ratio (x) = 0.43608 0.00106
# Poissons Ratio (y) = 0.43608 0.00106
# Poissons Ratio (z) = 0.00104 0.00104
#
# Static dielectric constant tensor:
#      x y z
#    x 1.717800 0.000000 0.000000 
#    y 0.000000 1.717800 0.000000 
#    z 0.000000 0.000000 1.711480 
# 
# From -- ./inp_files/326.got.cif
#   From: 2010.05.17/outbox.cif.g08.bks.cpg/sg152_1_cif.got.tgz:326.got - 2010.05.20 10:36:06.
