data_PCOD9575947
_publ_section_title
;
Structure prediction by ZEFSAII (Michael W. Deem and Ramdas Pophale) SiO2 
 PCOD9575947
Probable space group: P 31 2 1
;
_chemical_formula_sum "Si O2"
_cell_formula_units_Z 30
_cell_length_a 7.195268
_cell_length_b 7.195268
_cell_length_c 27.517912
_cell_angle_alpha 90.000000
_cell_angle_beta 90.000000
_cell_angle_gamma 120.000000
_cell_volume 1233.786626
_symmetry_space_group_name_H-M "P 31 2 1"
_symmetry_group_IT_number 152
_symmetry_cell_setting 'hexagonal'
loop_
_space_group_symop_operation_xyz
x,y,z
-y,x-y,1/3+z
-x+y,-x,2/3+z
x-y,-y,2/3-z
-x,-x+y,1/3-z
y,x,-z
loop_
_atom_site_type_symbol
_atom_site_label
_atom_site_fract_x
_atom_site_fract_y
_atom_site_fract_z
Si Si1 0.478633 0.450833 0.582838
Si Si2 0.550555 0.253523 0.489955
Si Si3 0.691267 0.830152 0.123791
Si Si4 0.538520 0.906887 0.384108
Si Si5 0.999409 0.062335 0.943410
O O1 0.578078 0.410468 0.533859
O O2 0.376771 0.591343 0.561625
O O3 0.675681 0.528635 0.619960
O O4 0.281653 0.223682 0.600730
O O5 0.301816 0.074495 0.488431
O O6 0.668091 0.124916 0.507388
O O7 0.533374 0.652248 0.084713
O O8 0.886844 0.004390 0.092698
O O9 0.516505 0.000000 0.333334
O O10 0.783110 0.067155 0.400433
O O11 0.009308 0.009308 0.000000
#
# Coordination Sequence:
#
# PCOD9575947 Si02
#       5
#     6   6   6   6   6
#     4   9  20  42  59  86 129 153 212 259 298 384
#     4   9  20  36  59  90 118 162 197 262 314 359
#     4  10  21  38  61  92 121 155 212 251 310 383
#     4  10  22  42  61  91 122 166 205 254 316 369
#     4  10  22  42  61  91 122 166 205 254 316 369
#
# _framework density 24.315389
#
# number of rings (size 3 to 8) (size 9 to 14) (size 15 to 20)
#    0.000    2.400    0.000    0.600    5.600    0.000 
#   28.800    0.000    0.000    0.000    0.000    0.000 
#    0.000    0.000    0.000    0.000    0.000    0.000 
#
# Total GULP energy -167359.498001 kJ/mol
# GULP energy per Si atom -5578.649933 kJ/mol
# Density = 2.426005 g / cm^3
# Si number density = 24.315389 Si / 1000 Ang^3
#
#
#
# Elastic Constant Matrix: (Units=GPa)
#
#
# Indices 1 2 3 4 5 6 
#
# 1 66.2123 -5.3199 13.3283 4.4216 0.0002 0.0000
# 2 -5.3199 66.2123 13.3283 -4.4216 -0.0002 0.0000
# 3 13.3283 13.3283 77.0518 0.0000 0.0000 0.0000
# 4 4.4216 -4.4216 0.0000 35.1058 0.0000 -0.0002
# 5 0.0002 -0.0002 0.0000 0.0000 35.1058 4.4216
# 6 0.0000 0.0000 0.0000 -0.0002 4.4216 35.7661
#
#
#
# Elastic Compliance Matrix: (Units=1/GPa)
#
#
# Indices 1 2 3 4 5 6 
#
# 1 0.015984 0.001784 -0.003073 -0.001789 0.000000 0.000000
# 2 0.001784 0.015984 -0.003073 0.001789 0.000000 0.000000
# 3 -0.003073 -0.003073 0.014042 0.000000 0.000000 0.000000
# 4 -0.001789 0.001789 0.000000 0.028936 0.000000 0.000000
# 5 0.000000 0.000000 0.000000 0.000000 0.028936 -0.003577
# 6 0.000000 0.000000 0.000000 0.000000 -0.003577 0.028402
#
#
# Mechanical properties :
#
#
# Convention : Reuss Voigt Hill
#
# Bulk Modulus (GPa) = 26.82155 28.01665 27.41910
# Shear Modulus (GPa) = 32.58638 33.73818 33.16228
#
# Velocity S-wave (km/s) = 3.66478 3.72899 3.69703
# Velocity P-wave (km/s) = 5.38165 5.48522 5.43368
#
# Compressibility (1/GPa) = 0.03728345
#
# Stress axis : x y z
#
# Youngs Moduli (GPa) = 62.56118 62.56118 71.21710
#
# Poissons Ratio (x) = -0.11158 0.21888
# Poissons Ratio (y) = -0.11158 0.21888
# Poissons Ratio (z) = 0.19228 0.19228
#
# Static dielectric constant tensor:
#      x y z
#    x 2.000550 0.000000 0.000000 
#    y 0.000000 2.000550 0.000000 
#    z 0.000000 0.000000 2.042910 
# 
# From -- ./inp_files/3310.got.cif
#   From: 2010.05.17/outbox.cif.g08.bks.cpg/sg152_2_cif.got.tgz:3310.got - 2010.05.20 10:36:06.
