data_PCOD9575651
_publ_section_title
;
Structure prediction by ZEFSAII (Michael W. Deem and Ramdas Pophale) SiO2 
 PCOD9575651
Probable space group: P 31 1 2
;
_chemical_formula_sum "Si O2"
_cell_formula_units_Z 18
_cell_length_a 8.585198
_cell_length_b 8.585198
_cell_length_c 10.863754
_cell_angle_alpha 90.000000
_cell_angle_beta 90.000000
_cell_angle_gamma 120.000000
_cell_volume 693.443667
_symmetry_space_group_name_H-M "P 31 1 2"
_symmetry_group_IT_number 151
_symmetry_cell_setting 'hexagonal'
loop_
_space_group_symop_operation_xyz
x,y,z
-y,x-y,1/3+z
-x+y,-x,2/3+z
-y,-x,2/3-z
-x+y,y,1/3-z
x,x-y,-z
loop_
_atom_site_type_symbol
_atom_site_label
_atom_site_fract_x
_atom_site_fract_y
_atom_site_fract_z
Si Si1 0.341987 0.152049 0.771788
Si Si2 0.723701 0.447402 0.666667
Si Si3 0.152052 0.341987 0.894882
Si Si4 0.276296 0.552592 0.666667
O O1 0.523205 0.317718 0.716169
O O2 0.427811 0.131369 0.898089
O O3 0.202924 0.202923 0.833335
O O4 0.259409 0.999998 0.666669
O O5 0.131368 0.427807 0.768579
O O6 0.317723 0.523208 0.950498
#
# Coordination Sequence:
#
# PCOD9575651 Si02
#       4
#     6   3   6   3
#     4  11  26  49  80 120 160 209 267 336 402 473
#     4  10  23  46  81 118 158 214 272 320 399 494
#     4  11  26  49  80 120 160 209 267 336 402 473
#     4  10  23  46  81 118 158 214 272 320 399 494
#
# _framework density 25.957408000000001
#
# number of rings (size 3 to 8) (size 9 to 14) (size 15 to 20)
#    0.000    1.333    0.000    5.000    0.000   24.000 
#    0.000   11.667    0.000    0.000    0.000    0.000 
#    0.000    0.000    0.000    0.000    0.000    0.000 
#
# Total GULP energy -100497.964184 kJ/mol
# GULP energy per Si atom -5583.220232 kJ/mol
# Density = 2.589833 g / cm^3
# Si number density = 25.957408 Si / 1000 Ang^3
#
#
#
# Elastic Constant Matrix: (Units=GPa)
#
#
# Indices 1 2 3 4 5 6 
#
# 1 153.8510 85.3180 112.9273 0.0000 0.0001 0.0000
# 2 85.3180 153.8510 112.9273 0.0000 -0.0001 0.0000
# 3 112.9273 112.9273 246.0715 0.0000 0.0000 0.0000
# 4 0.0000 0.0000 0.0000 64.1458 0.0000 -0.0001
# 5 0.0001 -0.0001 0.0000 0.0000 64.1458 0.0000
# 6 0.0000 0.0000 0.0000 -0.0001 0.0000 34.2665
#
#
#
# Elastic Compliance Matrix: (Units=1/GPa)
#
#
# Indices 1 2 3 4 5 6 
#
# 1 0.010985 -0.003606 -0.003386 0.000000 0.000000 0.000000
# 2 -0.003606 0.010985 -0.003386 0.000000 0.000000 0.000000
# 3 -0.003386 -0.003386 0.007172 0.000000 0.000000 0.000000
# 4 0.000000 0.000000 0.000000 0.015589 0.000000 0.000000
# 5 0.000000 0.000000 0.000000 0.000000 0.015589 0.000000
# 6 0.000000 0.000000 0.000000 0.000000 0.000000 0.029183
#
#
# Mechanical properties :
#
#
# Convention : Reuss Voigt Hill
#
# Bulk Modulus (GPa) = 119.26747 130.67982 124.97365
# Shear Modulus (GPa) = 44.22533 48.68501 46.45517
#
# Velocity S-wave (km/s) = 4.13215 4.33549 4.23504
# Velocity P-wave (km/s) = 8.29538 8.68995 8.49495
#
# Compressibility (1/GPa) = 0.00838452
#
# Stress axis : x y z
#
# Youngs Moduli (GPa) = 91.03111 91.03111 139.43083
#
# Poissons Ratio (x) = 0.32828 0.47217
# Poissons Ratio (y) = 0.32828 0.47217
# Poissons Ratio (z) = 0.30827 0.30827
#
# Static dielectric constant tensor:
#      x y z
#    x 2.058510 0.000000 0.000000 
#    y 0.000000 2.058510 0.000000 
#    z 0.000000 0.000000 2.180410 
# 
# From -- ./inp_files/2221.got.cif
#   From: 2010.05.17/outbox.cif.g08.bks.cpg/sg151_2_cif.got.tgz:2221.got - 2010.05.20 10:33:20.
