data_PCOD9575473
_publ_section_title
;
Structure prediction by ZEFSAII (Michael W. Deem and Ramdas Pophale) SiO2 
 PCOD9575473
Probable space group: P 3 2 1
;
_chemical_formula_sum "Si O2"
_cell_formula_units_Z 13
_cell_length_a 7.984403
_cell_length_b 7.984403
_cell_length_c 8.733393
_cell_angle_alpha 90.000000
_cell_angle_beta 90.000000
_cell_angle_gamma 120.000000
_cell_volume 482.168166
_symmetry_space_group_name_H-M "P 3 2 1"
_symmetry_group_IT_number 150
_symmetry_cell_setting 'hexagonal'
loop_
_space_group_symop_operation_xyz
x,y,z
-y,x-y,z
-x+y,-x,z
x-y,-y,-z
-x,-x+y,-z
y,x,-z
loop_
_atom_site_type_symbol
_atom_site_label
_atom_site_fract_x
_atom_site_fract_y
_atom_site_fract_z
Si Si1 0.878852 0.127497 0.798894
Si Si2 0.000000 0.336124 0.500000
Si Si3 0.333333 0.666667 0.048564
Si Si4 0.333333 0.666665 0.684057
O O1 0.777962 0.227645 0.884665
O O2 0.107239 0.207217 0.831994
O O3 0.874121 0.164438 0.618255
O O4 0.128880 0.512725 0.611905
O O5 0.333334 0.666667 0.865979
#
# Coordination Sequence:
#
# PCOD9575473 Si02
#       4
#     6   3   2   2
#     4  10  26  53  94 134 177 241 307 378 472 557
#     4  12  26  56  86 126 182 236 312 376 454 560
#     4  12  28  65  82 138 202 224 313 402 463 554
#     4  12  34  53  94 126 181 254 301 393 472 551
#
# _framework density 26.961542999999999
#
# number of rings (size 3 to 8) (size 9 to 14) (size 15 to 20)
#    0.923    0.000    0.000    4.154   12.923    1.846 
#   11.077    2.308    0.000    0.000    0.000    0.000 
#    0.000    0.000    0.000    0.000    0.000    0.000 
#
# Total GULP energy -73011.799028 kJ/mol
# GULP energy per Si atom -5616.292233 kJ/mol
# Density = 2.690018 g / cm^3
# Si number density = 26.961543 Si / 1000 Ang^3
#
#
#
# Elastic Constant Matrix: (Units=GPa)
#
#
# Indices 1 2 3 4 5 6 
#
# 1 192.7036 93.9824 132.6780 16.5468 0.0000 0.0000
# 2 93.9824 192.6993 132.6771 -16.5458 0.0000 0.0000
# 3 132.6780 132.6771 271.2187 0.0000 0.0000 0.0000
# 4 16.5468 -16.5458 0.0000 56.7949 0.0000 0.0000
# 5 0.0000 0.0000 0.0000 0.0000 56.7956 16.5464
# 6 0.0000 0.0000 0.0000 0.0000 16.5464 49.3596
#
#
#
# Elastic Compliance Matrix: (Units=1/GPa)
#
#
# Indices 1 2 3 4 5 6 
#
# 1 0.008800 -0.002426 -0.003118 -0.003271 0.000000 0.000000
# 2 -0.002426 0.008800 -0.003118 0.003271 0.000000 0.000000
# 3 -0.003118 -0.003118 0.006738 0.000000 0.000000 0.000000
# 4 -0.003271 0.003271 0.000000 0.019513 0.000000 0.000000
# 5 0.000000 0.000000 0.000000 0.000000 0.019513 -0.006541
# 6 0.000000 0.000000 0.000000 0.000000 -0.006541 0.022452
#
#
# Mechanical properties :
#
#
# Convention : Reuss Voigt Hill
#
# Bulk Modulus (GPa) = 142.57971 152.81074 147.69523
# Shear Modulus (GPa) = 47.40274 52.40897 49.90585
#
# Velocity S-wave (km/s) = 4.19759 4.41368 4.30699
# Velocity P-wave (km/s) = 8.74588 9.09805 8.92370
#
# Compressibility (1/GPa) = 0.00701362
#
# Stress axis : x y z
#
# Youngs Moduli (GPa) = 113.63361 113.63094 148.41215
#
# Poissons Ratio (x) = 0.27565 0.46280
# Poissons Ratio (y) = 0.27565 0.46281
# Poissons Ratio (z) = 0.35435 0.35434
#
# Static dielectric constant tensor:
#      x y z
#    x 2.116650 0.000000 0.000000 
#    y 0.000000 2.116660 0.000000 
#    z 0.000000 0.000000 2.092140 
# 
# From -- ./inp_files/349.got.cif
#   From: 2010.05.17/outbox.cif.g08.bks.cpg/sg150_cif.got.tgz:349.got - 2010.05.20 13:53:18.
