data_PCOD9575385
_publ_section_title
;
Structure prediction by ZEFSAII (Michael W. Deem and Ramdas Pophale) SiO2 
 PCOD9575385
Probable space group: P 3 1 2
;
_chemical_formula_sum "Si O2"
_cell_formula_units_Z 30
_cell_length_a 16.747568
_cell_length_b 16.747568
_cell_length_c 5.636215
_cell_angle_alpha 90.000000
_cell_angle_beta 90.000000
_cell_angle_gamma 120.000000
_cell_volume 1369.057481
_symmetry_space_group_name_H-M "P 3 1 2"
_symmetry_group_IT_number 149
_symmetry_cell_setting 'hexagonal'
loop_
_space_group_symop_operation_xyz
x,y,z
-y,x-y,z
-x+y,-x,z
-y,-x,-z
-x+y,y,-z
x,x-y,-z
loop_
_atom_site_type_symbol
_atom_site_label
_atom_site_fract_x
_atom_site_fract_y
_atom_site_fract_z
Si Si1 0.636376 0.968023 0.243015
Si Si2 0.868684 0.824628 0.250035
Si Si3 0.794785 0.176465 0.248686
Si Si4 0.090763 0.545382 0.500000
Si Si5 0.508450 0.667950 0.107310
Si Si6 0.135544 0.864457 0.500000
O O1 0.546881 0.969688 0.348458
O O2 0.668072 0.903788 0.380775
O O3 0.721813 0.068717 0.245689
O O4 0.603283 0.926361 0.980284
O O5 0.926148 0.852295 0.500000
O O6 0.817892 0.712628 0.247291
O O7 0.794234 0.856773 0.298030
O O8 0.926878 0.853755 0.000000
O O9 0.784967 0.215034 0.500000
O O10 0.783935 0.216066 0.000000
O O11 0.156681 0.513043 0.378237
O O12 0.424017 0.575984 0.000000
O O13 0.504149 0.752075 0.000000
#
# Coordination Sequence:
#
# PCOD9575385 Si02
#       6
#     6   6   6   3   6   3
#     4  11  23  40  66  94 136 183 240 298 362 433
#     4  10  22  42  59  93 135 179 246 301 344 418
#     4  10  21  40  62  91 127 170 224 287 340 419
#     4  10  24  42  62 101 138 174 244 309 368 434
#     4  10  22  39  60  92 129 181 230 297 357 426
#     4  12  22  42  70 101 136 212 240 303 368 454
#
# _framework density 21.912884999999999
#
# number of rings (size 3 to 8) (size 9 to 14) (size 15 to 20)
#    0.000    1.600    4.000    1.400    2.800    6.400 
#    4.200    0.000    0.000    0.400    0.000    0.000 
#    1.000    4.800    0.000    0.000    0.000    0.000 
#
# Total GULP energy -167237.262256 kJ/mol
# GULP energy per Si atom -5574.575409 kJ/mol
# Density = 2.186301 g / cm^3
# Si number density = 21.912885 Si / 1000 Ang^3
#
#
#
# Elastic Constant Matrix: (Units=GPa)
#
#
# Indices 1 2 3 4 5 6 
#
# 1 64.8620 27.7225 33.1876 -0.0011 2.1803 0.0000
# 2 27.7225 64.8620 33.1876 0.0011 -2.1803 0.0000
# 3 33.1876 33.1876 155.2749 0.0000 0.0000 0.0000
# 4 -0.0011 0.0011 0.0000 17.2232 0.0000 -2.1803
# 5 2.1803 -2.1803 0.0000 0.0000 17.2232 -0.0011
# 6 0.0000 0.0000 0.0000 -2.1803 -0.0011 18.5698
#
#
#
# Elastic Compliance Matrix: (Units=1/GPa)
#
#
# Indices 1 2 3 4 5 6 
#
# 1 0.020044 -0.007288 -0.002726 0.000002 -0.003460 0.000000
# 2 -0.007288 0.020044 -0.002726 -0.000002 0.003460 0.000000
# 3 -0.002726 -0.002726 0.007606 0.000000 0.000000 0.000000
# 4 0.000002 -0.000002 0.000000 0.058937 0.000000 0.006920
# 5 -0.003460 0.003460 0.000000 0.000000 0.058937 0.000004
# 6 0.000000 0.000000 0.000000 0.006920 0.000004 0.054663
#
#
# Mechanical properties :
#
#
# Convention : Reuss Voigt Hill
#
# Bulk Modulus (GPa) = 45.02198 52.57713 48.79955
# Shear Modulus (GPa) = 19.75379 23.32999 21.54189
#
# Velocity S-wave (km/s) = 3.00570 3.26647 3.13880
# Velocity P-wave (km/s) = 5.71281 6.18645 5.95434
#
# Compressibility (1/GPa) = 0.02221138
#
# Stress axis : x y z
#
# Youngs Moduli (GPa) = 49.89127 49.89127 131.48231
#
# Poissons Ratio (x) = 0.36361 0.35846
# Poissons Ratio (y) = 0.36361 0.35846
# Poissons Ratio (z) = 0.13602 0.13602
#
# Static dielectric constant tensor:
#      x y z
#    x 1.772970 0.000000 0.000000 
#    y 0.000000 1.772970 0.000000 
#    z 0.000000 0.000000 2.293340 
# 
# From -- ./inp_files/128.got.cif
#   From: 2010.05.17/outbox.cif.g08.bks.cpg/sg149_cif.got.tgz:128.got - 2010.05.20 13:52:34.
