data_PCOD9575017
_publ_section_title
;
Structure prediction by ZEFSAII (Michael W. Deem and Ramdas Pophale) SiO2 
 PCOD9575017
Probable space group: R -3
;
_chemical_formula_sum "Si O2"
_cell_formula_units_Z 90
_cell_length_a 17.125886
_cell_length_b 17.125886
_cell_length_c 14.107734
_cell_angle_alpha 90.000000
_cell_angle_beta 90.000000
_cell_angle_gamma 120.000000
_cell_volume 3583.389293
_symmetry_space_group_name_H-M "R -3"
_symmetry_group_IT_number 148
_symmetry_cell_setting 'hexagonal'
loop_
_space_group_symop_operation_xyz
x,y,z
-y,x-y,z
-x+y,-x,z
-x,-y,-z
y,-x+y,-z
x-y,x,-z
2/3+x,1/3+y,1/3+z
2/3-y,1/3+x-y,1/3+z
2/3-x+y,1/3-x,1/3+z
2/3-x,1/3-y,1/3-z
2/3+y,1/3-x+y,1/3-z
2/3+x-y,1/3+x,1/3-z
1/3+x,2/3+y,2/3+z
1/3-y,2/3+x-y,2/3+z
1/3-x+y,2/3-x,2/3+z
1/3-x,2/3-y,2/3-z
1/3+y,2/3-x+y,2/3-z
1/3+x-y,2/3+x,2/3-z
loop_
_atom_site_type_symbol
_atom_site_label
_atom_site_fract_x
_atom_site_fract_y
_atom_site_fract_z
Si Si1 0.467216 0.169708 0.467614
Si Si2 0.630756 0.151623 0.693397
Si Si3 0.027772 0.676478 0.922035
Si Si4 0.182683 0.697960 0.810732
Si Si5 0.625394 0.129706 0.969206
O O1 0.488319 0.267870 0.436505
O O2 0.549226 0.153016 0.440330
O O3 0.452932 0.162301 0.582242
O O4 0.383236 0.087650 0.416727
O O5 0.624906 0.055591 0.676902
O O6 0.640558 0.187218 0.584986
O O7 0.541752 0.150142 0.726730
O O8 0.728830 0.221378 0.732149
O O9 0.095355 0.708020 0.831391
O O10 0.965843 0.569140 0.926479
#
# Coordination Sequence:
#
# PCOD9575017 Si02
#       5
#    18  18  18  18  18
#     4  10  18  35  55  79 107 142 186 221 265 326
#     4   8  18  31  53  75 101 139 181 223 257 319
#     4  10  20  32  50  84 104 134 176 226 282 300
#     4   8  18  31  53  75 101 139 181 223 257 319
#     4  10  18  35  55  79 107 142 186 221 265 326
#
# _framework density 25.115888000000002
#
# number of rings (size 3 to 8) (size 9 to 14) (size 15 to 20)
#    1.200    1.600    0.000    2.000    0.000    3.200 
#    3.600    0.000    0.000    0.000    0.000    2.800 
#    0.000    0.000    0.000    0.000    0.000    0.000 
#
# Total GULP energy -167490.456978 kJ/mol
# GULP energy per Si atom -5583.015233 kJ/mol
# Density = 2.505872 g / cm^3
# Si number density = 25.115888 Si / 1000 Ang^3
#
#
#
# Elastic Constant Matrix: (Units=GPa)
#
#
# Indices 1 2 3 4 5 6 
#
# 1 97.2821 3.4443 7.6993 -5.5891 1.8183 0.0000
# 2 3.4443 97.2821 7.6993 5.5891 -1.8183 0.0000
# 3 7.6993 7.6993 109.5314 0.0000 0.0000 0.0000
# 4 -5.5891 5.5891 0.0000 -5.5195 0.0000 -1.8183
# 5 1.8183 -1.8183 0.0000 0.0000 -5.5195 -5.5891
# 6 0.0000 0.0000 0.0000 -1.8183 -5.5891 46.9189
#
#
#
# Elastic Compliance Matrix: (Units=1/GPa)
#
#
# Indices 1 2 3 4 5 6 
#
# 1 0.009719 0.000317 -0.000705 -0.009521 0.003097 0.000000
# 2 0.000317 0.009719 -0.000705 0.009521 -0.003097 0.000000
# 3 -0.000705 -0.000705 0.009229 0.000000 0.000000 0.000000
# 4 -0.009521 0.009521 0.000000 -0.159853 0.000000 -0.006195
# 5 0.003097 -0.003097 0.000000 0.000000 -0.159853 -0.019042
# 6 0.000000 0.000000 0.000000 -0.006195 -0.019042 0.018805
#
#
# Mechanical properties :
#
#
# Convention : Reuss Voigt Hill
#
# Bulk Modulus (GPa) = 37.76624 37.97570 37.87097
# Shear Modulus (GPa) = -19.14106 26.19282 3.52588
#
# Velocity S-wave (km/s) = -2.76363 3.23287 1.18612
# Velocity P-wave (km/s) = 2.21041 5.39335 4.12154
#
# Compressibility (1/GPa) = 0.02647868
#
# Stress axis : x y z
#
# Youngs Moduli (GPa) = 102.89006 102.89006 108.35440
#
# Poissons Ratio (x) = -0.03258 0.07644
# Poissons Ratio (y) = -0.03258 0.07644
# Poissons Ratio (z) = 0.07258 0.07258
#
# Static dielectric constant tensor:
#      x y z
#    x 1.934910 0.000000 0.000000 
#    y 0.000000 1.934910 0.000000 
#    z 0.000000 0.000000 2.105750 
# 
# From -- ./inp_files/2654.got.cif
#   From: 2010.05.17/outbox.cif.g08.bks.cpg/sg148_2_cif.got.tgz:2654.got - 2010.05.20 13:50:20.
