data_PCOD9575170
_publ_section_title
;
Structure prediction by ZEFSAII (Michael W. Deem and Ramdas Pophale) SiO2 
 PCOD9575170
Probable space group: R -3
;
_chemical_formula_sum "Si O2"
_cell_formula_units_Z 84
_cell_length_a 14.555327
_cell_length_b 14.555327
_cell_length_c 18.128011
_cell_angle_alpha 90.000000
_cell_angle_beta 90.000000
_cell_angle_gamma 120.000000
_cell_volume 3326.018965
_symmetry_space_group_name_H-M "R -3"
_symmetry_group_IT_number 148
_symmetry_cell_setting 'hexagonal'
loop_
_space_group_symop_operation_xyz
x,y,z
-y,x-y,z
-x+y,-x,z
-x,-y,-z
y,-x+y,-z
x-y,x,-z
2/3+x,1/3+y,1/3+z
2/3-y,1/3+x-y,1/3+z
2/3-x+y,1/3-x,1/3+z
2/3-x,1/3-y,1/3-z
2/3+y,1/3-x+y,1/3-z
2/3+x-y,1/3+x,1/3-z
1/3+x,2/3+y,2/3+z
1/3-y,2/3+x-y,2/3+z
1/3-x+y,2/3-x,2/3+z
1/3-x,2/3-y,2/3-z
1/3+y,2/3-x+y,2/3-z
1/3+x-y,2/3+x,2/3-z
loop_
_atom_site_type_symbol
_atom_site_label
_atom_site_fract_x
_atom_site_fract_y
_atom_site_fract_z
Si Si1 0.846199 0.770429 0.340505
Si Si2 0.279795 0.290337 0.273976
Si Si3 0.333334 0.666668 0.507725
Si Si4 0.992774 0.162364 0.054991
Si Si5 0.666668 0.333334 0.999196
Si Si6 0.249093 0.148066 0.493974
O O1 0.719275 0.723336 0.329657
O O2 0.857625 0.710520 0.411922
O O3 0.941016 0.775733 0.290612
O O4 0.895154 0.894261 0.360385
O O5 0.389836 0.307009 0.242489
O O6 0.221055 0.328465 0.217854
O O7 0.314586 0.559359 0.545559
O O8 0.333334 0.666667 0.421037
O O9 0.077964 0.192257 0.988780
O O10 0.167405 0.191818 0.485424
#
# Coordination Sequence:
#
# PCOD9575170 Si02
#       6
#    18  18   6  18   6  18
#     4  11  25  43  65  92 130 170 214 269 320 376
#     4  11  22  39  67  97 126 166 213 264 324 386
#     4   9  22  37  66  91 124 171 211 260 322 390
#     4   9  17  37  64  93 127 164 201 252 324 393
#     4  12  27  46  62  91 132 174 220 272 313 360
#     4  10  22  40  63  87 119 171 222 263 314 374
#
# _framework density 25.255419
#
# number of rings (size 3 to 8) (size 9 to 14) (size 15 to 20)
#    0.000    1.714    2.143    3.643    0.000    8.571 
#    0.000    2.143    0.000    0.000    0.000    0.000 
#    0.000    0.000    0.000    0.000    0.000    0.000 
#
# Total GULP energy -156106.653492 kJ/mol
# GULP energy per Si atom -5575.237625 kJ/mol
# Density = 2.519794 g / cm^3
# Si number density = 25.255419 Si / 1000 Ang^3
#
#
#
# Elastic Constant Matrix: (Units=GPa)
#
#
# Indices 1 2 3 4 5 6 
#
# 1 69.9776 -7.6792 3.5264 1.6924 -4.4269 0.0006
# 2 -7.6792 69.9768 3.5268 -1.6924 4.4271 0.0004
# 3 3.5264 3.5268 79.7831 0.0004 -0.0003 0.0003
# 4 1.6924 -1.6924 0.0004 25.7759 0.0004 4.4266
# 5 -4.4269 4.4271 -0.0003 0.0004 25.7755 1.6925
# 6 0.0006 0.0004 0.0003 4.4266 1.6925 38.8278
#
#
#
# Elastic Compliance Matrix: (Units=1/GPa)
#
#
# Indices 1 2 3 4 5 6 
#
# 1 0.014653 0.001480 -0.000713 -0.000865 0.002262 0.000000
# 2 0.001480 0.014653 -0.000713 0.000865 -0.002263 0.000000
# 3 -0.000713 -0.000713 0.012597 0.000000 0.000000 0.000000
# 4 -0.000865 0.000865 0.000000 0.039686 -0.000001 -0.004524
# 5 0.002262 -0.002263 0.000000 -0.000001 0.039687 -0.001730
# 6 0.000000 0.000000 0.000000 -0.004524 -0.001730 0.026346
#
#
# Mechanical properties :
#
#
# Convention : Reuss Voigt Hill
#
# Bulk Modulus (GPa) = 23.80391 24.27614 24.04002
# Shear Modulus (GPa) = 30.95625 32.76674 31.86150
#
# Velocity S-wave (km/s) = 3.50484 3.60587 3.55571
# Velocity P-wave (km/s) = 5.08176 5.19322 5.13779
#
# Compressibility (1/GPa) = 0.04200991
#
# Stress axis : x y z
#
# Youngs Moduli (GPa) = 68.24702 68.24605 79.38381
#
# Poissons Ratio (x) = -0.10100 0.05660
# Poissons Ratio (y) = -0.10100 0.05661
# Poissons Ratio (z) = 0.04866 0.04867
#
# Static dielectric constant tensor:
#      x y z
#    x 2.095820 0.000000 0.000000 
#    y 0.000000 2.095820 0.000000 
#    z 0.000000 0.000000 2.035480 
# 
# From -- ./inp_files/3365.got.cif
#   From: 2010.05.17/outbox.cif.g08.bks.cpg/sg148_2_cif.got.tgz:3365.got - 2010.05.20 13:50:20.
