data_PCOD9575124
_publ_section_title
;
Structure prediction by ZEFSAII (Michael W. Deem and Ramdas Pophale) SiO2 
 PCOD9575124
Probable space group: R -3
;
_chemical_formula_sum "Si O2"
_cell_formula_units_Z 126
_cell_length_a 17.517257
_cell_length_b 17.517257
_cell_length_c 24.217175
_cell_angle_alpha 90.000000
_cell_angle_beta 90.000000
_cell_angle_gamma 120.000000
_cell_volume 6435.559577
_symmetry_space_group_name_H-M "R -3"
_symmetry_group_IT_number 148
_symmetry_cell_setting 'hexagonal'
loop_
_space_group_symop_operation_xyz
x,y,z
-y,x-y,z
-x+y,-x,z
-x,-y,-z
y,-x+y,-z
x-y,x,-z
2/3+x,1/3+y,1/3+z
2/3-y,1/3+x-y,1/3+z
2/3-x+y,1/3-x,1/3+z
2/3-x,1/3-y,1/3-z
2/3+y,1/3-x+y,1/3-z
2/3+x-y,1/3+x,1/3-z
1/3+x,2/3+y,2/3+z
1/3-y,2/3+x-y,2/3+z
1/3-x+y,2/3-x,2/3+z
1/3-x,2/3-y,2/3-z
1/3+y,2/3-x+y,2/3-z
1/3+x-y,2/3+x,2/3-z
loop_
_atom_site_type_symbol
_atom_site_label
_atom_site_fract_x
_atom_site_fract_y
_atom_site_fract_z
Si Si1 0.441105 0.492746 0.381999
Si Si2 0.143191 0.941589 0.002540
Si Si3 0.465455 0.406227 0.110157
Si Si4 0.101559 0.646103 0.928517
Si Si5 0.804264 0.932761 0.597064
Si Si6 0.129418 0.601981 0.055106
Si Si7 0.645780 0.930202 0.561773
O O1 0.489367 0.435038 0.377401
O O2 0.341502 0.436561 0.401428
O O3 0.491269 0.585322 0.414255
O O4 0.440075 0.522155 0.319565
O O5 0.198748 0.950716 0.057961
O O6 0.039742 0.875166 0.011994
O O7 0.571580 0.466936 0.108481
O O8 0.431136 0.470921 0.088750
O O9 0.426593 0.361411 0.168942
O O10 0.012779 0.649717 0.916845
O O11 0.109110 0.618134 0.991643
O O12 0.848746 0.874498 0.586703
O O13 0.730628 0.918454 0.553360
O O14 0.868475 0.035339 0.608277
#
# Coordination Sequence:
#
# PCOD9575124 Si02
#       7
#    18  18  18  18  18  18  18
#     4  10  23  41  68  93 123 166 217 267 312 383
#     4  11  23  45  71  94 123 168 222 272 323 386
#     4  12  25  40  65  96 133 173 208 264 332 380
#     4  11  22  45  66  92 125 172 218 264 318 390
#     4  10  21  37  61  97 127 163 216 255 303 382
#     4  11  21  38  68  93 130 173 212 258 311 387
#     4  11  25  41  61  98 127 165 215 269 319 383
#
# _framework density 19.578716
#
# number of rings (size 3 to 8) (size 9 to 14) (size 15 to 20)
#    0.000    1.143    4.286    2.571    6.000    0.571 
#    3.429    0.000    0.000    1.714    0.000    0.000 
#    0.000    0.000    0.000    0.000    0.000    0.000 
#
# Total GULP energy -234323.193766 kJ/mol
# GULP energy per Si atom -5579.123661 kJ/mol
# Density = 1.953415 g / cm^3
# Si number density = 19.578716 Si / 1000 Ang^3
#
#
#
# Elastic Constant Matrix: (Units=GPa)
#
#
# Indices 1 2 3 4 5 6 
#
# 1 99.0354 49.2991 -9.9205 1.1589 -10.7185 0.0000
# 2 49.2991 99.0354 -9.9205 -1.1589 10.7185 0.0000
# 3 -9.9205 -9.9205 15.8700 0.0000 0.0000 0.0000
# 4 1.1589 -1.1589 0.0000 1.2998 0.0000 10.7185
# 5 -10.7185 10.7185 0.0000 0.0000 1.2998 1.1589
# 6 0.0000 0.0000 0.0000 10.7185 1.1589 24.8681
#
#
#
# Elastic Compliance Matrix: (Units=1/GPa)
#
#
# Indices 1 2 3 4 5 6 
#
# 1 -0.000195 0.007551 0.004599 0.006906 -0.063873 0.000000
# 2 0.007551 -0.000195 0.004599 -0.006906 0.063873 0.000000
# 3 0.004599 0.004599 0.068761 0.000000 0.000000 0.000000
# 4 0.006906 -0.006906 0.000000 -0.296384 0.000000 0.127745
# 5 -0.063873 0.063873 0.000000 0.000000 -0.296384 0.013812
# 6 0.000000 0.000000 0.000000 0.127745 0.013812 -0.015491
#
#
# Mechanical properties :
#
#
# Convention : Reuss Voigt Hill
#
# Bulk Modulus (GPa) = 9.81652 30.31746 20.06699
# Shear Modulus (GPa) = -9.26908 17.79239 4.26166
#
# Velocity S-wave (km/s) = -2.17820 3.01784 1.47696
# Velocity P-wave (km/s) = 1.14074 5.25943 3.63045
#
# Compressibility (1/GPa) = 0.10186912
#
# Stress axis : x y z
#
# Youngs Moduli (GPa) = -5140.01519 -5140.01440 14.54309
#
# Poissons Ratio (x) = 38.81319 -0.06688
# Poissons Ratio (y) = 38.81319 -0.06688
# Poissons Ratio (z) = 23.63727 23.63726
#
# Static dielectric constant tensor:
#      x y z
#    x 1.696840 0.000000 0.000000 
#    y 0.000000 1.696840 0.000000 
#    z 0.000000 0.000000 1.685880 
# 
# From -- ./inp_files/3436.got.cif
#   From: 2010.05.17/outbox.cif.g08.bks.cpg/sg148_2_cif.got.tgz:3436.got - 2010.05.20 13:50:20.
