data_PCOD9575930
_publ_section_title
;
Structure prediction by ZEFSAII (Michael W. Deem and Ramdas Pophale) SiO2 
 PCOD9575930
Probable space group: P 31 2 1
;
_chemical_formula_sum "Si O2"
_cell_formula_units_Z 42
_cell_length_a 20.519254
_cell_length_b 20.519254
_cell_length_c 6.108612
_cell_angle_alpha 90.000000
_cell_angle_beta 90.000000
_cell_angle_gamma 120.000000
_cell_volume 2227.390216
_symmetry_space_group_name_H-M "P 31 2 1"
_symmetry_group_IT_number 152
_symmetry_cell_setting 'hexagonal'
loop_
_space_group_symop_operation_xyz
x,y,z
-y,x-y,1/3+z
-x+y,-x,2/3+z
x-y,-y,2/3-z
-x,-x+y,1/3-z
y,x,-z
loop_
_atom_site_type_symbol
_atom_site_label
_atom_site_fract_x
_atom_site_fract_y
_atom_site_fract_z
Si Si1 0.407217 0.083407 0.874330
Si Si2 0.658413 0.469580 0.225725
Si Si3 0.438197 0.924816 0.459078
Si Si4 0.606842 0.818729 0.242449
Si Si5 0.417618 0.335513 0.750488
Si Si6 0.973238 0.725248 0.918022
Si Si7 0.481912 0.803348 0.927777
O O1 0.448972 0.134288 0.664648
O O2 0.339129 0.000000 0.833334
O O3 0.473196 0.073114 0.983277
O O4 0.385411 0.132754 0.029312
O O5 0.590339 0.399813 0.348574
O O6 0.729697 0.458042 0.217375
O O7 0.621312 0.470438 0.995617
O O8 0.516883 0.926485 0.469794
O O9 0.454452 0.000000 0.333334
O O10 0.602687 0.861237 0.458665
O O11 0.675694 0.882827 0.100466
O O12 0.527356 0.793402 0.126519
O O13 0.338094 0.331628 0.745021
O O14 0.456930 0.335493 0.525314
O O15 0.000000 0.763805 0.666667
O O16 0.000000 0.764135 0.166667
#
# Coordination Sequence:
#
# PCOD9575930 Si02
#       7
#     6   6   6   6   6   6   6
#     4  12  25  40  60  83 111 156 205 256 313 387
#     4  12  26  39  57  81 113 152 204 264 324 392
#     4  12  23  37  58  83 109 145 197 263 317 372
#     4  11  22  39  58  82 115 147 194 260 321 382
#     4  11  22  36  61  85 109 145 195 256 328 384
#     4  10  21  36  61  93 117 147 191 252 323 386
#     4  12  24  38  59  79 110 152 201 260 330 389
#
# _framework density 18.856147
#
# number of rings (size 3 to 8) (size 9 to 14) (size 15 to 20)
#    0.000    0.571    8.571    1.286    0.000    2.857 
#    0.000    0.000    0.000    0.000    0.000    0.000 
#    0.000    0.000    0.000    0.000    0.000  167.143 
#
# Total GULP energy -234136.984248 kJ/mol
# GULP energy per Si atom -5574.690101 kJ/mol
# Density = 1.881323 g / cm^3
# Si number density = 18.856147 Si / 1000 Ang^3
#
#
#
# Elastic Constant Matrix: (Units=GPa)
#
#
# Indices 1 2 3 4 5 6 
#
# 1 76.4379 33.7729 17.3597 -1.4446 0.0000 0.0000
# 2 33.7729 76.4379 17.3597 1.4446 0.0000 0.0000
# 3 17.3597 17.3597 58.3204 0.0000 0.0000 0.0000
# 4 -1.4446 1.4446 0.0000 26.1715 0.0000 0.0000
# 5 0.0000 0.0000 0.0000 0.0000 26.1715 -1.4446
# 6 0.0000 0.0000 0.0000 0.0000 -1.4446 21.3325
#
#
#
# Elastic Compliance Matrix: (Units=1/GPa)
#
#
# Indices 1 2 3 4 5 6 
#
# 1 0.016769 -0.006757 -0.002980 0.001299 0.000000 0.000000
# 2 -0.006757 0.016769 -0.002980 -0.001299 0.000000 0.000000
# 3 -0.002980 -0.002980 0.018921 0.000000 0.000000 0.000000
# 4 0.001299 -0.001299 0.000000 0.038353 0.000000 0.000000
# 5 0.000000 0.000000 0.000000 0.000000 0.038353 0.002597
# 6 0.000000 0.000000 0.000000 0.000000 0.002597 0.047053
#
#
# Mechanical properties :
#
#
# Convention : Reuss Voigt Hill
#
# Bulk Modulus (GPa) = 37.00345 38.68675 37.84510
# Shear Modulus (GPa) = 23.73477 24.24870 23.99173
#
# Velocity S-wave (km/s) = 3.55171 3.58995 3.57088
# Velocity P-wave (km/s) = 6.04038 6.14370 6.09226
#
# Compressibility (1/GPa) = 0.02702451
#
# Stress axis : x y z
#
# Youngs Moduli (GPa) = 59.63252 59.63252 52.85158
#
# Poissons Ratio (x) = 0.40294 0.15751
# Poissons Ratio (y) = 0.40294 0.15751
# Poissons Ratio (z) = 0.17772 0.17772
#
# Static dielectric constant tensor:
#      x y z
#    x 1.643140 0.000000 0.000000 
#    y 0.000000 1.643140 0.000000 
#    z 0.000000 0.000000 1.811950 
# 
# From -- ./inp_files/510.got.cif
#   From: 2010.05.17/outbox.cif.g08.bks.cpg/sg152_1_cif.got.tgz:510.got - 2010.05.20 10:36:06.
