data_PCOD9575118
_publ_section_title
;
Structure prediction by ZEFSAII (Michael W. Deem and Ramdas Pophale) SiO2 
 PCOD9575118
Probable space group: R -3
;
_chemical_formula_sum "Si O2"
_cell_formula_units_Z 54
_cell_length_a 14.644440
_cell_length_b 14.644440
_cell_length_c 14.028895
_cell_angle_alpha 90.000000
_cell_angle_beta 90.000000
_cell_angle_gamma 120.000000
_cell_volume 2605.551337
_symmetry_space_group_name_H-M "R -3"
_symmetry_group_IT_number 148
_symmetry_cell_setting 'hexagonal'
loop_
_space_group_symop_operation_xyz
x,y,z
-y,x-y,z
-x+y,-x,z
-x,-y,-z
y,-x+y,-z
x-y,x,-z
2/3+x,1/3+y,1/3+z
2/3-y,1/3+x-y,1/3+z
2/3-x+y,1/3-x,1/3+z
2/3-x,1/3-y,1/3-z
2/3+y,1/3-x+y,1/3-z
2/3+x-y,1/3+x,1/3-z
1/3+x,2/3+y,2/3+z
1/3-y,2/3+x-y,2/3+z
1/3-x+y,2/3-x,2/3+z
1/3-x,2/3-y,2/3-z
1/3+y,2/3-x+y,2/3-z
1/3+x-y,2/3+x,2/3-z
loop_
_atom_site_type_symbol
_atom_site_label
_atom_site_fract_x
_atom_site_fract_y
_atom_site_fract_z
Si Si1 0.603024 0.485131 0.885049
Si Si2 0.196110 0.947454 0.726115
Si Si3 0.368096 0.376204 0.414862
O O1 0.708421 0.526065 0.821748
O O2 0.579693 0.581468 0.882950
O O3 0.638324 0.484451 0.994232
O O4 0.295468 0.950353 0.671321
O O5 0.097118 0.830772 0.719826
O O6 0.232008 0.972264 0.834847
#
# Coordination Sequence:
#
# PCOD9575118 Si02
#       3
#    18  18  18
#     4  10  21  36  59  90 122 154 194 250 293 351
#     4   9  19  36  57  87 114 157 197 248 281 363
#     4   9  19  36  58  85 115 157 199 239 295 346
#
# _framework density 20.724981
#
# number of rings (size 3 to 8) (size 9 to 14) (size 15 to 20)
#    2.000    0.667    0.000    2.333    0.000    1.333 
#    0.000    0.000    0.000    0.667    0.000    0.000 
#    0.000    0.000    0.000    0.000    0.000    0.000 
#
# Total GULP energy -100255.847407 kJ/mol
# GULP energy per Si atom -5569.769300 kJ/mol
# Density = 2.067781 g / cm^3
# Si number density = 20.724981 Si / 1000 Ang^3
#
#
#
# Elastic Constant Matrix: (Units=GPa)
#
#
# Indices 1 2 3 4 5 6 
#
# 1 59.9046 36.6890 8.7020 -4.5384 2.3407 0.0000
# 2 36.6890 59.9046 8.7020 4.5384 -2.3407 0.0000
# 3 8.7020 8.7020 72.8978 0.0000 0.0000 0.0000
# 4 -4.5384 4.5384 0.0000 25.7014 0.0000 -2.3407
# 5 2.3407 -2.3407 0.0000 0.0000 25.7014 -4.5384
# 6 0.0000 0.0000 0.0000 -2.3407 -4.5384 11.6078
#
#
#
# Elastic Compliance Matrix: (Units=1/GPa)
#
#
# Indices 1 2 3 4 5 6 
#
# 1 0.028890 -0.018310 -0.001263 0.008335 -0.004299 0.000000
# 2 -0.018310 0.028890 -0.001263 -0.008335 0.004299 0.000000
# 3 -0.001263 -0.001263 0.014019 0.000000 0.000000 0.000000
# 4 0.008335 -0.008335 0.000000 0.042635 0.000000 0.008597
# 5 -0.004299 0.004299 0.000000 0.000000 0.042635 0.016669
# 6 0.000000 0.000000 0.000000 0.008597 0.016669 0.094400
#
#
# Mechanical properties :
#
#
# Convention : Reuss Voigt Hill
#
# Bulk Modulus (GPa) = 33.19190 33.43257 33.31224
# Shear Modulus (GPa) = 16.49171 21.84307 19.16739
#
# Velocity S-wave (km/s) = 2.82395 3.24998 3.04443
# Velocity P-wave (km/s) = 5.16557 5.49997 5.33539
#
# Compressibility (1/GPa) = 0.03012783
#
# Stress axis : x y z
#
# Youngs Moduli (GPa) = 34.61406 34.61406 71.32988
#
# Poissons Ratio (x) = 0.63378 0.09009
# Poissons Ratio (y) = 0.63378 0.09009
# Poissons Ratio (z) = 0.04372 0.04372
#
# Static dielectric constant tensor:
#      x y z
#    x 1.727440 0.000000 0.000000 
#    y 0.000000 1.727440 0.000000 
#    z 0.000000 0.000000 1.805750 
# 
# From -- ./inp_files/1800.got.cif
#   From: 2010.05.17/outbox.cif.g08.bks.cpg/sg148_1_cif.got.tgz:1800.got - 2010.05.20 13:50:20.
