data_PCOD9575420
_publ_section_title
;
Structure prediction by ZEFSAII (Michael W. Deem and Ramdas Pophale) SiO2 
 PCOD9575420
Probable space group: P 3 2 1
;
_chemical_formula_sum "Si O2"
_cell_formula_units_Z 18
_cell_length_a 6.864417
_cell_length_b 6.864417
_cell_length_c 16.606884
_cell_angle_alpha 90.000000
_cell_angle_beta 90.000000
_cell_angle_gamma 120.000000
_cell_volume 677.682234
_symmetry_space_group_name_H-M "P 3 2 1"
_symmetry_group_IT_number 150
_symmetry_cell_setting 'hexagonal'
loop_
_space_group_symop_operation_xyz
x,y,z
-y,x-y,z
-x+y,-x,z
x-y,-y,-z
-x,-x+y,-z
y,x,-z
loop_
_atom_site_type_symbol
_atom_site_label
_atom_site_fract_x
_atom_site_fract_y
_atom_site_fract_z
Si Si1 0.115257 0.731782 0.918789
Si Si2 0.383577 0.270552 0.255995
Si Si3 0.879663 0.616582 0.581129
O O1 0.103706 0.488332 0.919490
O O2 0.024507 0.748694 0.831504
O O3 0.000000 0.744229 0.000000
O O4 0.487338 0.104750 0.257415
O O5 0.252788 0.260774 0.336017
O O6 0.611922 0.509890 0.580480
O O7 0.000000 0.744980 0.500000
#
# Coordination Sequence:
#
# PCOD9575420 Si02
#       3
#     6   6   6
#     4   8  16  28  46  72  97 126 156 196 235 270
#     4   8  16  32  50  66  96 128 156 194 236 272
#     4  10  20  30  50  74  92 120 156 194 236 282
#
# _framework density 26.561122000000001
#
# number of rings (size 3 to 8) (size 9 to 14) (size 15 to 20)
#    2.000    1.333    0.000    2.000    0.000    2.667 
#    0.000    0.000    0.000   12.667    0.000    0.000 
#    0.000    0.000    0.000    0.000    0.000    0.000 
#
# Total GULP energy -100452.423963 kJ/mol
# GULP energy per Si atom -5580.690220 kJ/mol
# Density = 2.650067 g / cm^3
# Si number density = 26.561122 Si / 1000 Ang^3
#
#
#
# Elastic Constant Matrix: (Units=GPa)
#
#
# Indices 1 2 3 4 5 6 
#
# 1 102.0408 23.5679 63.9948 -0.6383 0.0000 0.0000
# 2 23.5679 102.0408 63.9948 0.6383 0.0000 0.0000
# 3 63.9948 63.9948 346.8731 0.0000 0.0000 0.0000
# 4 -0.6383 0.6383 0.0000 -23.9902 0.0000 0.0000
# 5 0.0000 0.0000 0.0000 0.0000 -23.9902 -0.6383
# 6 0.0000 0.0000 0.0000 0.0000 -0.6383 39.2364
#
#
#
# Elastic Compliance Matrix: (Units=1/GPa)
#
#
# Indices 1 2 3 4 5 6 
#
# 1 0.011271 -0.001467 -0.001809 -0.000339 0.000000 0.000000
# 2 -0.001467 0.011271 -0.001809 0.000339 0.000000 0.000000
# 3 -0.001809 -0.001809 0.003550 0.000000 0.000000 0.000000
# 4 -0.000339 0.000339 0.000000 -0.041666 0.000000 0.000000
# 5 0.000000 0.000000 0.000000 0.000000 -0.041666 -0.000678
# 6 0.000000 0.000000 0.000000 0.000000 -0.000678 0.025475
#
#
# Mechanical properties :
#
#
# Convention : Reuss Voigt Hill
#
# Bulk Modulus (GPa) = 62.79933 94.89662 78.84797
# Shear Modulus (GPa) = -306.99306 24.87771 -141.05768
#
# Velocity S-wave (km/s) = -10.76247 3.06375 -7.29535
# Velocity P-wave (km/s) = 11.43444 6.95130 6.41973
#
# Compressibility (1/GPa) = 0.01592374
#
# Stress axis : x y z
#
# Youngs Moduli (GPa) = 88.72303 88.72303 281.66543
#
# Poissons Ratio (x) = 0.13013 0.50948
# Poissons Ratio (y) = 0.13013 0.50948
# Poissons Ratio (z) = 0.16048 0.16048
#
# Static dielectric constant tensor:
#      x y z
#    x 2.075110 0.000000 0.000000 
#    y 0.000000 2.075110 0.000000 
#    z 0.000000 0.000000 2.009700 
# 
# From -- ./inp_files/1077.got.cif
#   From: 2010.05.17/outbox.cif.g08.bks.cpg/sg150_cif.got.tgz:1077.got - 2010.05.20 13:53:18.
