data_PCOD9575229
_publ_section_title
;
Structure prediction by ZEFSAII (Michael W. Deem and Ramdas Pophale) SiO2 
 PCOD9575229
Probable space group: R -3
;
_chemical_formula_sum "Si O2"
_cell_formula_units_Z 72
_cell_length_a 11.362362
_cell_length_b 11.362362
_cell_length_c 28.875152
_cell_angle_alpha 90.000000
_cell_angle_beta 90.000000
_cell_angle_gamma 120.000000
_cell_volume 3228.435796
_symmetry_space_group_name_H-M "R -3"
_symmetry_group_IT_number 148
_symmetry_cell_setting 'hexagonal'
loop_
_space_group_symop_operation_xyz
x,y,z
-y,x-y,z
-x+y,-x,z
-x,-y,-z
y,-x+y,-z
x-y,x,-z
2/3+x,1/3+y,1/3+z
2/3-y,1/3+x-y,1/3+z
2/3-x+y,1/3-x,1/3+z
2/3-x,1/3-y,1/3-z
2/3+y,1/3-x+y,1/3-z
2/3+x-y,1/3+x,1/3-z
1/3+x,2/3+y,2/3+z
1/3-y,2/3+x-y,2/3+z
1/3-x+y,2/3-x,2/3+z
1/3-x,2/3-y,2/3-z
1/3+y,2/3-x+y,2/3-z
1/3+x-y,2/3+x,2/3-z
loop_
_atom_site_type_symbol
_atom_site_label
_atom_site_fract_x
_atom_site_fract_y
_atom_site_fract_z
Si Si1 0.156175 0.151407 0.914721
Si Si2 0.617778 0.896655 0.393014
Si Si3 0.946394 0.559614 0.646411
Si Si4 0.357166 0.265090 0.830554
O O1 0.221258 0.233786 0.961393
O O2 0.250431 0.233301 0.871894
O O3 0.124586 0.996620 0.912587
O O4 0.606791 0.754098 0.380421
O O5 0.491385 0.899078 0.369135
O O6 0.620667 0.914969 0.447530
O O7 0.750285 0.014146 0.366888
O O8 0.485785 0.415327 0.834153
#
# Coordination Sequence:
#
# PCOD9575229 Si02
#       4
#    18  18  18  18
#     4  10  25  45  75 108 145 185 238 298 360 432
#     4  11  27  44  74 102 149 186 246 290 364 426
#     4  11  25  47  68 107 138 193 233 303 349 431
#     4  12  26  46  73 107 146 193 240 295 359 431
#
# _framework density 22.301824
#
# number of rings (size 3 to 8) (size 9 to 14) (size 15 to 20)
#    0.500    0.500    2.500    2.250   10.500    2.000 
#    0.000    1.250    0.000    0.000    0.000    0.000 
#    0.000    0.000    0.000    0.000    0.000    0.000 
#
# Total GULP energy -134341.980791 kJ/mol
# GULP energy per Si atom -5597.582533 kJ/mol
# Density = 2.225106 g / cm^3
# Si number density = 22.301824 Si / 1000 Ang^3
#
#
#
# Elastic Constant Matrix: (Units=GPa)
#
#
# Indices 1 2 3 4 5 6 
#
# 1 100.5833 33.1440 17.1922 -4.2535 1.3423 0.0000
# 2 33.1440 100.5833 17.1922 4.2535 -1.3423 0.0000
# 3 17.1922 17.1922 103.0033 0.0000 0.0000 0.0000
# 4 -4.2535 4.2535 0.0000 29.3758 0.0000 -1.3423
# 5 1.3423 -1.3423 0.0000 0.0000 29.3758 -4.2535
# 6 0.0000 0.0000 0.0000 -1.3423 -4.2535 33.7197
#
#
#
# Elastic Compliance Matrix: (Units=1/GPa)
#
#
# Indices 1 2 3 4 5 6 
#
# 1 0.011473 -0.003659 -0.001304 0.002191 -0.000691 0.000000
# 2 -0.003659 0.011473 -0.001304 -0.002191 0.000691 0.000000
# 3 -0.001304 -0.001304 0.010144 0.000000 0.000000 0.000000
# 4 0.002191 -0.002191 0.000000 0.034739 0.000000 0.001383
# 5 -0.000691 0.000691 0.000000 0.000000 0.034739 0.004382
# 6 0.000000 0.000000 0.000000 0.001383 0.004382 0.030264
#
#
# Mechanical properties :
#
#
# Convention : Reuss Voigt Hill
#
# Bulk Modulus (GPa) = 48.65282 48.80299 48.72790
# Shear Modulus (GPa) = 32.84758 34.27036 33.55897
#
# Velocity S-wave (km/s) = 3.84196 3.92428 3.88334
# Velocity P-wave (km/s) = 6.44545 6.51642 6.48103
#
# Compressibility (1/GPa) = 0.02055380
#
# Stress axis : x y z
#
# Youngs Moduli (GPa) = 87.16397 87.16397 98.58281
#
# Poissons Ratio (x) = 0.31897 0.12856
# Poissons Ratio (y) = 0.31897 0.12856
# Poissons Ratio (z) = 0.11367 0.11367
#
# Static dielectric constant tensor:
#      x y z
#    x 1.835260 0.000000 0.000000 
#    y 0.000000 1.835260 0.000000 
#    z 0.000000 0.000000 1.772260 
# 
# From -- ./inp_files/3900.got.cif
#   From: 2010.05.17/outbox.cif.g08.bks.cpg/sg148_2_cif.got.tgz:3900.got - 2010.05.20 13:50:20.
