data_PCOD9575043
_publ_section_title
;
Structure prediction by ZEFSAII (Michael W. Deem and Ramdas Pophale) SiO2 
 PCOD9575043
Probable space group: R -3
;
_chemical_formula_sum "Si O2"
_cell_formula_units_Z 126
_cell_length_a 17.455073
_cell_length_b 17.455073
_cell_length_c 27.071382
_cell_angle_alpha 90.000000
_cell_angle_beta 90.000000
_cell_angle_gamma 120.000000
_cell_volume 7143.061639
_symmetry_space_group_name_H-M "R -3"
_symmetry_group_IT_number 148
_symmetry_cell_setting 'hexagonal'
loop_
_space_group_symop_operation_xyz
x,y,z
-y,x-y,z
-x+y,-x,z
-x,-y,-z
y,-x+y,-z
x-y,x,-z
2/3+x,1/3+y,1/3+z
2/3-y,1/3+x-y,1/3+z
2/3-x+y,1/3-x,1/3+z
2/3-x,1/3-y,1/3-z
2/3+y,1/3-x+y,1/3-z
2/3+x-y,1/3+x,1/3-z
1/3+x,2/3+y,2/3+z
1/3-y,2/3+x-y,2/3+z
1/3-x+y,2/3-x,2/3+z
1/3-x,2/3-y,2/3-z
1/3+y,2/3-x+y,2/3-z
1/3+x-y,2/3+x,2/3-z
loop_
_atom_site_type_symbol
_atom_site_label
_atom_site_fract_x
_atom_site_fract_y
_atom_site_fract_z
Si Si1 0.286501 0.054275 0.048092
Si Si2 0.000615 0.178213 0.850293
Si Si3 0.750887 0.073033 0.763827
Si Si4 0.344520 0.260300 0.569506
Si Si5 0.666667 0.151729 0.833333
Si Si6 0.666052 0.510931 0.483040
Si Si7 0.046832 0.434440 0.618575
O O1 0.368809 0.039186 0.057547
O O2 0.226726 0.016970 0.097237
O O3 0.312308 0.156154 0.043156
O O4 0.234735 1.000000 0.000000
O O5 0.969474 0.223968 0.809865
O O6 0.092155 0.184310 0.834916
O O7 0.016970 0.226726 0.902763
O O8 0.922616 0.077384 0.854883
O O9 0.841315 0.158685 0.746734
O O10 0.688043 0.107360 0.786842
O O11 0.776032 0.030526 0.809865
O O12 0.702142 0.996290 0.724214
O O13 0.247350 0.225973 0.546491
O O14 0.579647 0.159294 0.824875
#
# Coordination Sequence:
#
# PCOD9575043 Si02
#       7
#    18  18  18  18  18  18  18
#     4  11  22  35  53  78 109 146 183 221 265 320
#     4  10  19  33  53  79 108 139 176 219 269 322
#     4  10  20  35  57  79 104 138 179 227 275 322
#     4  10  20  35  57  79 104 138 179 227 275 322
#     4  10  19  32  53  80 108 136 172 220 271 318
#     4  10  19  33  53  79 108 139 176 219 269 322
#     4  11  22  35  53  78 109 146 183 221 265 320
#
# _framework density 17.639496000000001
#
# number of rings (size 3 to 8) (size 9 to 14) (size 15 to 20)
#    0.000    1.714    2.857    2.143    0.000    4.000 
#    0.000    0.000    0.000    5.143    0.000    2.000 
#    0.000    0.000    0.000    0.000    0.000    0.000 
#
# Total GULP energy -234501.073647 kJ/mol
# GULP energy per Si atom -5583.358896 kJ/mol
# Density = 1.759935 g / cm^3
# Si number density = 17.639496 Si / 1000 Ang^3
#
#
#
# Elastic Constant Matrix: (Units=GPa)
#
#
# Indices 1 2 3 4 5 6 
#
# 1 110.9636 56.1585 20.3380 -1.1895 0.0000 0.0000
# 2 56.1585 110.9636 20.3380 1.1895 0.0000 0.0000
# 3 20.3380 20.3380 37.6815 0.0000 0.0000 0.0000
# 4 -1.1895 1.1895 0.0000 22.4765 0.0000 0.0000
# 5 0.0000 0.0000 0.0000 0.0000 22.4765 -1.1895
# 6 0.0000 0.0000 0.0000 0.0000 -1.1895 27.4025
#
#
#
# Elastic Compliance Matrix: (Units=1/GPa)
#
#
# Indices 1 2 3 4 5 6 
#
# 1 0.012589 -0.005700 -0.003718 0.000968 0.000000 0.000000
# 2 -0.005700 0.012589 -0.003718 -0.000968 0.000000 0.000000
# 3 -0.003718 -0.003718 0.030552 0.000000 0.000000 0.000000
# 4 0.000968 -0.000968 0.000000 0.044593 0.000000 0.000000
# 5 0.000000 0.000000 0.000000 0.000000 0.044593 0.001936
# 6 0.000000 0.000000 0.000000 0.000000 0.001936 0.036577
#
#
# Mechanical properties :
#
#
# Convention : Reuss Voigt Hill
#
# Bulk Modulus (GPa) = 33.94795 50.36418 42.15607
# Shear Modulus (GPa) = 22.97972 25.32274 24.15123
#
# Velocity S-wave (km/s) = 3.61327 3.79300 3.70423
# Velocity P-wave (km/s) = 6.05762 6.91350 6.49966
#
# Compressibility (1/GPa) = 0.02945686
#
# Stress axis : x y z
#
# Youngs Moduli (GPa) = 79.43739 79.43739 32.73143
#
# Poissons Ratio (x) = 0.45279 0.12170
# Poissons Ratio (y) = 0.45279 0.12170
# Poissons Ratio (z) = 0.29535 0.29535
#
# Static dielectric constant tensor:
#      x y z
#    x 1.603920 0.000000 0.000000 
#    y 0.000000 1.603920 0.000000 
#    z 0.000000 0.000000 1.575560 
# 
# From -- ./inp_files/3469.got.cif
#   From: 2010.05.17/outbox.cif.g08.bks.cpg/sg148_2_cif.got.tgz:3469.got - 2010.05.20 13:50:20.
