data_PCOD9575382
_publ_section_title
;
Structure prediction by ZEFSAII (Michael W. Deem and Ramdas Pophale) SiO2 
 PCOD9575382
Probable space group: P 3 1 2
;
_chemical_formula_sum "Si O2"
_cell_formula_units_Z 20
_cell_length_a 11.925923
_cell_length_b 11.925923
_cell_length_c 8.288265
_cell_angle_alpha 90.000000
_cell_angle_beta 90.000000
_cell_angle_gamma 120.000000
_cell_volume 1020.888383
_symmetry_space_group_name_H-M "P 3 1 2"
_symmetry_group_IT_number 149
_symmetry_cell_setting 'hexagonal'
loop_
_space_group_symop_operation_xyz
x,y,z
-y,x-y,z
-x+y,-x,z
-y,-x,-z
-x+y,y,-z
x,x-y,-z
loop_
_atom_site_type_symbol
_atom_site_label
_atom_site_fract_x
_atom_site_fract_y
_atom_site_fract_z
Si Si1 0.589136 0.922466 0.305412
Si Si2 0.589136 0.666670 0.305412
Si Si3 0.000000 0.000000 0.803485
Si Si4 0.851360 0.702721 0.192920
O O1 0.610383 0.805192 0.246471
O O2 0.450845 0.901690 0.251656
O O3 0.588079 0.918348 0.500000
O O4 0.705301 0.061310 0.252320
O O5 0.705301 0.643990 0.252319
O O6 0.926075 0.852150 0.748791
O O7 0.000000 0.000000 0.000000
O O8 0.851010 0.702019 0.000000
#
# Coordination Sequence:
#
# PCOD9575382 Si02
#       4
#     6   6   2   6
#     4  10  21  38  60  86 115 149 190 237 287 339
#     4  10  21  38  60  86 115 149 190 237 287 339
#     4   9  18  33  55  83 115 144 175 230 283 327
#     4  11  21  37  59  85 117 150 187 234 285 339
#
# _framework density 19.590781
#
# number of rings (size 3 to 8) (size 9 to 14) (size 15 to 20)
#    0.000    1.800    3.000    1.500    0.000    3.600 
#    1.800    0.000    0.000    3.600    0.000    0.000 
#    0.000    0.000    0.000    0.000    0.000    0.000 
#
# Total GULP energy -111674.654981 kJ/mol
# GULP energy per Si atom -5583.732749 kJ/mol
# Density = 1.954619 g / cm^3
# Si number density = 19.590781 Si / 1000 Ang^3
#
#
#
# Elastic Constant Matrix: (Units=GPa)
#
#
# Indices 1 2 3 4 5 6 
#
# 1 111.0305 39.1800 14.5148 0.0000 0.0000 0.0000
# 2 39.1800 111.0305 14.5148 0.0000 0.0000 0.0000
# 3 14.5148 14.5148 14.4496 0.0000 0.0000 0.0000
# 4 0.0000 0.0000 0.0000 15.7450 0.0000 0.0000
# 5 0.0000 0.0000 0.0000 0.0000 15.7450 0.0000
# 6 0.0000 0.0000 0.0000 0.0000 0.0000 35.9253
#
#
#
# Elastic Compliance Matrix: (Units=1/GPa)
#
#
# Indices 1 2 3 4 5 6 
#
# 1 0.011089 -0.002828 -0.008298 0.000000 0.000000 0.000000
# 2 -0.002828 0.011089 -0.008298 0.000000 0.000000 0.000000
# 3 -0.008298 -0.008298 0.085877 0.000000 0.000000 0.000000
# 4 0.000000 0.000000 0.000000 0.063512 0.000000 0.000000
# 5 0.000000 0.000000 0.000000 0.000000 0.063512 0.000000
# 6 0.000000 0.000000 0.000000 0.000000 0.000000 0.027836
#
#
# Mechanical properties :
#
#
# Convention : Reuss Voigt Hill
#
# Bulk Modulus (GPa) = 14.44956 41.43664 27.94310
# Shear Modulus (GPa) = 15.39245 24.70314 20.04779
#
# Velocity S-wave (km/s) = 2.80607 3.55485 3.20242
# Velocity P-wave (km/s) = 4.22971 6.16817 5.28851
#
# Compressibility (1/GPa) = 0.06920624
#
# Stress axis : x y z
#
# Youngs Moduli (GPa) = 90.17610 90.17610 11.64451
#
# Poissons Ratio (x) = 0.25505 0.09663
# Poissons Ratio (y) = 0.25505 0.09663
# Poissons Ratio (z) = 0.74831 0.74831
#
# Static dielectric constant tensor:
#      x y z
#    x 1.673380 0.000000 0.000000 
#    y 0.000000 1.673380 0.000000 
#    z 0.000000 0.000000 1.672200 
# 
# From -- ./inp_files/422.got.cif
#   From: 2010.05.17/outbox.cif.g08.bks.cpg/sg149_cif.got.tgz:422.got - 2010.05.20 13:52:34.
