data_PCOD9575249
_publ_section_title
;
Structure prediction by ZEFSAII (Michael W. Deem and Ramdas Pophale) SiO2 
 PCOD9575249
Probable space group: R -3
;
_chemical_formula_sum "Si O2"
_cell_formula_units_Z 108
_cell_length_a 22.409639
_cell_length_b 22.409639
_cell_length_c 13.159563
_cell_angle_alpha 90.000000
_cell_angle_beta 90.000000
_cell_angle_gamma 120.000000
_cell_volume 5723.238183
_symmetry_space_group_name_H-M "R -3"
_symmetry_group_IT_number 148
_symmetry_cell_setting 'hexagonal'
loop_
_space_group_symop_operation_xyz
x,y,z
-y,x-y,z
-x+y,-x,z
-x,-y,-z
y,-x+y,-z
x-y,x,-z
2/3+x,1/3+y,1/3+z
2/3-y,1/3+x-y,1/3+z
2/3-x+y,1/3-x,1/3+z
2/3-x,1/3-y,1/3-z
2/3+y,1/3-x+y,1/3-z
2/3+x-y,1/3+x,1/3-z
1/3+x,2/3+y,2/3+z
1/3-y,2/3+x-y,2/3+z
1/3-x+y,2/3-x,2/3+z
1/3-x,2/3-y,2/3-z
1/3+y,2/3-x+y,2/3-z
1/3+x-y,2/3+x,2/3-z
loop_
_atom_site_type_symbol
_atom_site_label
_atom_site_fract_x
_atom_site_fract_y
_atom_site_fract_z
Si Si1 0.612180 0.720941 0.959886
Si Si2 0.863560 0.301758 0.242726
Si Si3 0.572218 0.718593 0.364189
Si Si4 0.750786 0.604867 0.718750
Si Si5 0.153720 0.423297 0.743575
Si Si6 0.147294 0.762716 0.045997
O O1 0.693437 0.748454 0.945797
O O2 0.581597 0.696398 0.847456
O O3 0.570196 0.663694 0.042683
O O4 0.601564 0.783866 0.990695
O O5 0.889472 0.352342 0.144752
O O6 0.794172 0.228527 0.228597
O O7 0.853770 0.342468 0.335042
O O8 0.557347 0.780463 0.336737
O O9 0.653310 0.762577 0.337315
O O10 0.536860 0.648888 0.299659
O O11 0.776925 0.622231 0.834281
O O12 0.110927 0.351891 0.679236
#
# Coordination Sequence:
#
# PCOD9575249 Si02
#       6
#    18  18  18  18  18  18
#     4  11  23  38  60  91 121 165 208 239 310 376
#     4  11  22  38  61  86 125 158 202 253 303 368
#     4  11  22  39  55  86 125 154 193 253 301 354
#     4  11  25  34  60  91 120 158 204 249 306 360
#     4  11  22  37  62  88 118 166 204 249 311 365
#     4  11  20  41  59  83 122 160 200 249 305 361
#
# _framework density 18.870436999999999
#
# number of rings (size 3 to 8) (size 9 to 14) (size 15 to 20)
#    0.000    1.000    5.000    3.000    2.333    1.333 
#    0.000    0.000    0.000    1.000    4.333    2.333 
#    0.000    0.000    0.000    0.000    0.000    0.000 
#
# Total GULP energy -200535.244971 kJ/mol
# GULP energy per Si atom -5570.423471 kJ/mol
# Density = 1.882749 g / cm^3
# Si number density = 18.870437 Si / 1000 Ang^3
#
#
#
# Elastic Constant Matrix: (Units=GPa)
#
#
# Indices 1 2 3 4 5 6 
#
# 1 41.0126 5.5238 17.5430 4.4790 1.2447 0.0000
# 2 5.5238 41.0126 17.5430 -4.4790 -1.2447 0.0000
# 3 17.5430 17.5430 92.6231 0.0000 0.0000 0.0000
# 4 4.4790 -4.4790 0.0000 26.9459 0.0000 -1.2447
# 5 1.2447 -1.2447 0.0000 0.0000 26.9459 4.4790
# 6 0.0000 0.0000 0.0000 -1.2447 4.4790 17.7444
#
#
#
# Elastic Compliance Matrix: (Units=1/GPa)
#
#
# Indices 1 2 3 4 5 6 
#
# 1 0.027290 -0.002222 -0.004748 -0.004906 -0.001363 0.000000
# 2 -0.002222 0.027290 -0.004748 0.004906 0.001363 0.000000
# 3 -0.004748 -0.004748 0.012595 0.000000 0.000000 0.000000
# 4 -0.004906 0.004906 0.000000 0.038868 0.000000 0.002727
# 5 -0.001363 0.001363 0.000000 0.000000 0.038868 -0.009811
# 6 0.000000 0.000000 0.000000 0.002727 -0.009811 0.059024
#
#
# Mechanical properties :
#
#
# Convention : Reuss Voigt Hill
#
# Bulk Modulus (GPa) = 22.86255 28.42975 25.64615
# Shear Modulus (GPa) = 20.66538 23.26312 21.96425
#
# Velocity S-wave (km/s) = 3.31285 3.51491 3.41537
# Velocity P-wave (km/s) = 5.17447 5.61883 5.40122
#
# Compressibility (1/GPa) = 0.04373965
#
# Stress axis : x y z
#
# Youngs Moduli (GPa) = 36.64339 36.64339 79.39664
#
# Poissons Ratio (x) = 0.08141 0.37697
# Poissons Ratio (y) = 0.08141 0.37697
# Poissons Ratio (z) = 0.17398 0.17398
#
# Static dielectric constant tensor:
#      x y z
#    x 1.713670 0.000000 0.000000 
#    y 0.000000 1.713670 0.000000 
#    z 0.000000 0.000000 1.676270 
# 
# From -- ./inp_files/2041.got.cif
#   From: 2010.05.17/outbox.cif.g08.bks.cpg/sg148_2_cif.got.tgz:2041.got - 2010.05.20 13:50:20.
