data_PCOD9575335
_publ_section_title
;
Structure prediction by ZEFSAII (Michael W. Deem and Ramdas Pophale) SiO2 
 PCOD9575335
Probable space group: R -3
;
_chemical_formula_sum "Si O2"
_cell_formula_units_Z 72
_cell_length_a 23.553644
_cell_length_b 23.553644
_cell_length_c 8.374286
_cell_angle_alpha 90.000000
_cell_angle_beta 90.000000
_cell_angle_gamma 120.000000
_cell_volume 4023.413177
_symmetry_space_group_name_H-M "R -3"
_symmetry_group_IT_number 148
_symmetry_cell_setting 'hexagonal'
loop_
_space_group_symop_operation_xyz
x,y,z
-y,x-y,z
-x+y,-x,z
-x,-y,-z
y,-x+y,-z
x-y,x,-z
2/3+x,1/3+y,1/3+z
2/3-y,1/3+x-y,1/3+z
2/3-x+y,1/3-x,1/3+z
2/3-x,1/3-y,1/3-z
2/3+y,1/3-x+y,1/3-z
2/3+x-y,1/3+x,1/3-z
1/3+x,2/3+y,2/3+z
1/3-y,2/3+x-y,2/3+z
1/3-x+y,2/3-x,2/3+z
1/3-x,2/3-y,2/3-z
1/3+y,2/3-x+y,2/3-z
1/3+x-y,2/3+x,2/3-z
loop_
_atom_site_type_symbol
_atom_site_label
_atom_site_fract_x
_atom_site_fract_y
_atom_site_fract_z
Si Si1 0.062124 0.917825 0.542776
Si Si2 0.090978 0.499798 0.433109
Si Si3 0.737357 0.936058 0.349693
Si Si4 0.974754 0.507093 0.249859
O O1 0.104522 0.929825 0.703864
O O2 0.068150 0.862373 0.445960
O O3 0.985124 0.890499 0.557146
O O4 0.090716 0.435015 0.370095
O O5 0.076946 0.495827 0.621481
O O6 0.033394 0.506523 0.348002
O O7 0.674351 0.903863 0.466668
O O8 0.720749 0.889088 0.197773
#
# Coordination Sequence:
#
# PCOD9575335 Si02
#       4
#    18  18  18  18
#     4   9  17  30  51  74 101 131 170 207 250 303
#     4   9  18  33  50  73  99 135 167 207 261 301
#     4   9  18  33  50  73 100 135 166 210 260 297
#     4   9  18  34  51  70 104 131 171 214 251 308
#
# _framework density 17.895254000000001
#
# number of rings (size 3 to 8) (size 9 to 14) (size 15 to 20)
#    0.000    3.000    0.000    0.250    0.000    2.000 
#    4.500    5.000    0.000    0.000    0.000    8.750 
#    0.000    0.000    0.000    0.000    0.000    0.000 
#
# Total GULP energy -133601.262569 kJ/mol
# GULP energy per Si atom -5566.719274 kJ/mol
# Density = 1.785452 g / cm^3
# Si number density = 17.895254 Si / 1000 Ang^3
#
#
#
# Elastic Constant Matrix: (Units=GPa)
#
#
# Indices 1 2 3 4 5 6 
#
# 1 48.3964 14.0926 24.8453 2.0623 -10.4339 -0.0053
# 2 14.0926 48.4192 24.8627 -2.0663 10.4203 0.0020
# 3 24.8453 24.8627 103.3423 -0.0034 -0.0059 -0.0036
# 4 2.0623 -2.0663 -0.0034 15.2293 -0.0041 10.4198
# 5 -10.4339 10.4203 -0.0059 -0.0041 15.2248 2.0654
# 6 -0.0053 0.0020 -0.0036 10.4198 2.0654 17.1638
#
#
#
# Elastic Compliance Matrix: (Units=1/GPa)
#
#
# Indices 1 2 3 4 5 6 
#
# 1 0.035581 -0.015782 -0.004756 -0.006949 0.035183 -0.000003
# 2 -0.015782 0.035552 -0.004761 0.006950 -0.035149 0.000000
# 3 -0.004756 -0.004761 0.011965 0.000000 0.000004 0.000001
# 4 -0.006949 0.006950 0.000000 0.115544 0.000029 -0.070151
# 5 0.035183 -0.035149 0.000004 0.000029 0.115741 -0.013930
# 6 -0.000003 0.000000 0.000001 -0.070151 -0.013930 0.102526
#
#
# Mechanical properties :
#
#
# Convention : Reuss Voigt Hill
#
# Bulk Modulus (GPa) = 30.76821 36.41768 33.59295
# Shear Modulus (GPa) = 10.45280 18.61407 14.53343
#
# Velocity S-wave (km/s) = 2.41946 3.22866 2.85290
# Velocity P-wave (km/s) = 5.00359 5.85608 5.44654
#
# Compressibility (1/GPa) = 0.03250107
#
# Stress axis : x y z
#
# Youngs Moduli (GPa) = 28.10483 28.12773 83.57530
#
# Poissons Ratio (x) = 0.44392 0.39744
# Poissons Ratio (y) = 0.44356 0.39788
# Poissons Ratio (z) = 0.13365 0.13391
#
# Static dielectric constant tensor:
#      x y z
#    x 1.619160 0.000000 -0.000010 
#    y 0.000000 1.619160 0.000000 
#    z -0.000010 0.000000 1.621960 
# 
# From -- ./inp_files/815.got.cif
#   From: 2010.05.17/outbox.cif.g08.bks.cpg/sg148_1_cif.got.tgz:815.got - 2010.05.20 13:50:20.
