data_PCOD9575861
_publ_section_title
;
Structure prediction by ZEFSAII (Michael W. Deem and Ramdas Pophale) SiO2 
 PCOD9575861
Probable space group: P 31 2 1
;
_chemical_formula_sum "Si O2"
_cell_formula_units_Z 33
_cell_length_a 15.342486
_cell_length_b 15.342486
_cell_length_c 7.325941
_cell_angle_alpha 90.000000
_cell_angle_beta 90.000000
_cell_angle_gamma 120.000000
_cell_volume 1493.432230
_symmetry_space_group_name_H-M "P 31 2 1"
_symmetry_group_IT_number 152
_symmetry_cell_setting 'hexagonal'
loop_
_space_group_symop_operation_xyz
x,y,z
-y,x-y,1/3+z
-x+y,-x,2/3+z
x-y,-y,2/3-z
-x,-x+y,1/3-z
y,x,-z
loop_
_atom_site_type_symbol
_atom_site_label
_atom_site_fract_x
_atom_site_fract_y
_atom_site_fract_z
Si Si1 0.859178 0.248432 0.964737
Si Si2 0.111471 0.827130 0.486223
Si Si3 0.896693 0.559467 0.063084
Si Si4 0.676531 0.676531 0.000000
Si Si5 0.662316 0.407485 0.464943
Si Si6 0.894153 0.085922 0.119026
O O1 0.759357 0.168459 0.858426
O O2 0.938434 0.338495 0.832462
O O3 0.811198 0.281736 0.127948
O O4 0.912184 0.183295 0.008374
O O5 0.088852 0.714670 0.448200
O O6 0.100742 0.847492 0.695083
O O7 0.023090 0.835772 0.381076
O O8 0.220577 0.911181 0.419079
O O9 0.823288 0.442449 0.035290
O O10 0.000000 0.589205 0.166667
O O11 0.635651 0.351607 0.661557
O O12 0.000000 0.095631 0.166667
#
# Coordination Sequence:
#
# PCOD9575861 Si02
#       6
#     6   6   6   3   6   6
#     4  10  21  40  61  88 127 162 214 269 335 391
#     4  10  22  35  58  82 125 165 211 256 318 389
#     4  10  20  41  63  89 123 170 214 263 336 401
#     4  10  20  38  58  86 120 172 202 264 314 398
#     4  10  24  44  69  98 130 174 223 289 349 413
#     4  11  21  36  55  91 121 164 210 261 318 381
#
# _framework density 22.096748999999999
#
# number of rings (size 3 to 8) (size 9 to 14) (size 15 to 20)
#    0.000    1.818    3.636    0.000    2.545    2.182 
#    0.000    5.455    0.000    0.000    0.000    0.000 
#    0.000    0.000    0.000    0.000    0.000    0.000 
#
# Total GULP energy -183852.523534 kJ/mol
# GULP energy per Si atom -5571.288592 kJ/mol
# Density = 2.204646 g / cm^3
# Si number density = 22.096749 Si / 1000 Ang^3
#
#
#
# Elastic Constant Matrix: (Units=GPa)
#
#
# Indices 1 2 3 4 5 6 
#
# 1 44.1573 18.2562 -16.4796 7.4090 0.0000 0.0000
# 2 18.2562 44.1573 -16.4796 -7.4090 0.0000 0.0000
# 3 -16.4796 -16.4796 29.1297 0.0000 0.0000 0.0000
# 4 7.4090 -7.4090 0.0000 30.6436 0.0000 0.0000
# 5 0.0000 0.0000 0.0000 0.0000 30.6436 7.4090
# 6 0.0000 0.0000 0.0000 0.0000 7.4090 12.9506
#
#
#
# Elastic Compliance Matrix: (Units=1/GPa)
#
#
# Indices 1 2 3 4 5 6 
#
# 1 0.033827 -0.010979 0.012926 -0.010833 0.000000 0.000000
# 2 -0.010979 0.033827 0.012926 0.010833 0.000000 0.000000
# 3 0.012926 0.012926 0.048955 0.000000 0.000000 0.000000
# 4 -0.010833 0.010833 0.000000 0.037872 0.000000 0.000000
# 5 0.000000 0.000000 0.000000 0.000000 0.037872 -0.021666
# 6 0.000000 0.000000 0.000000 0.000000 -0.021666 0.089612
#
#
# Mechanical properties :
#
#
# Convention : Reuss Voigt Hill
#
# Bulk Modulus (GPa) = 6.83273 9.78202 8.30738
# Shear Modulus (GPa) = 16.61112 23.65736 20.13424
#
# Velocity S-wave (km/s) = 2.74477 3.27559 3.02186
# Velocity P-wave (km/s) = 3.62546 4.32926 3.99290
#
# Compressibility (1/GPa) = 0.14635431
#
# Stress axis : x y z
#
# Youngs Moduli (GPa) = 29.56214 29.56214 20.42713
#
# Poissons Ratio (x) = 0.32456 -0.26404
# Poissons Ratio (y) = 0.32456 -0.26404
# Poissons Ratio (z) = -0.38212 -0.38212
#
# Static dielectric constant tensor:
#      x y z
#    x 1.883220 0.000000 0.000000 
#    y 0.000000 1.883220 0.000000 
#    z 0.000000 0.000000 1.908150 
# 
# From -- ./inp_files/1173.got.cif
#   From: 2010.05.17/outbox.cif.g08.bks.cpg/sg152_1_cif.got.tgz:1173.got - 2010.05.20 10:36:06.
