data_PCOD9575977
_publ_section_title
;
Structure prediction by ZEFSAII (Michael W. Deem and Ramdas Pophale) SiO2 
 PCOD9575977
Probable space group: P 31 2 1
;
_chemical_formula_sum "Si O2"
_cell_formula_units_Z 30
_cell_length_a 11.982658
_cell_length_b 11.982658
_cell_length_c 11.888402
_cell_angle_alpha 90.000000
_cell_angle_beta 90.000000
_cell_angle_gamma 120.000000
_cell_volume 1478.292734
_symmetry_space_group_name_H-M "P 31 2 1"
_symmetry_group_IT_number 152
_symmetry_cell_setting 'hexagonal'
loop_
_space_group_symop_operation_xyz
x,y,z
-y,x-y,1/3+z
-x+y,-x,2/3+z
x-y,-y,2/3-z
-x,-x+y,1/3-z
y,x,-z
loop_
_atom_site_type_symbol
_atom_site_label
_atom_site_fract_x
_atom_site_fract_y
_atom_site_fract_z
Si Si1 0.455162 0.047013 0.633311
Si Si2 0.465815 0.240671 0.025886
Si Si3 0.483369 0.134751 0.383783
Si Si4 0.139817 0.311046 0.200245
Si Si5 0.909364 0.638259 0.930629
O O1 0.463144 0.117276 0.516261
O O2 0.404500 0.105729 0.728094
O O3 0.594721 0.064186 0.651252
O O4 0.355552 0.894293 0.621732
O O5 0.606242 0.368539 0.019970
O O6 0.399225 0.264460 0.134042
O O7 0.387499 0.218130 0.910641
O O8 0.380605 0.164877 0.327939
O O9 0.459274 0.000000 0.333334
O O10 0.226008 0.265306 0.266065
O O11 0.000000 0.193499 0.166667
#
# Coordination Sequence:
#
# PCOD9575977 Si02
#       5
#     6   6   6   6   6
#     4  10  23  41  63  96 129 162 215 266 324 384
#     4  10  21  42  68  89 126 169 219 259 317 391
#     4  11  22  40  65  95 127 169 210 263 318 388
#     4  10  23  43  63  93 127 170 215 263 317 388
#     4  11  23  39  67  94 127 170 210 263 325 387
#
# _framework density 20.293680999999999
#
# number of rings (size 3 to 8) (size 9 to 14) (size 15 to 20)
#    0.000    1.600    2.000    3.000    2.800    2.400 
#    7.200    4.000    0.000    0.000    0.000    0.000 
#    0.000    0.000    0.000    0.000    0.000    0.000 
#
# Total GULP energy -167611.267812 kJ/mol
# GULP energy per Si atom -5587.042260 kJ/mol
# Density = 2.024749 g / cm^3
# Si number density = 20.293681 Si / 1000 Ang^3
#
#
#
# Elastic Constant Matrix: (Units=GPa)
#
#
# Indices 1 2 3 4 5 6 
#
# 1 98.7015 43.9256 22.8682 -8.2010 0.0001 0.0000
# 2 43.9256 98.7015 22.8682 8.2010 -0.0001 0.0000
# 3 22.8682 22.8682 45.6223 0.0000 0.0000 0.0000
# 4 -8.2010 8.2010 0.0000 24.0319 0.0000 -0.0001
# 5 0.0001 -0.0001 0.0000 0.0000 24.0319 -8.2010
# 6 0.0000 0.0000 0.0000 -0.0001 -8.2010 27.3880
#
#
#
# Elastic Compliance Matrix: (Units=1/GPa)
#
#
# Indices 1 2 3 4 5 6 
#
# 1 0.014344 -0.005990 -0.004187 0.006939 0.000000 0.000000
# 2 -0.005990 0.014344 -0.004187 -0.006939 0.000000 0.000000
# 3 -0.004187 -0.004187 0.026117 0.000000 0.000000 0.000000
# 4 0.006939 -0.006939 0.000000 0.046347 0.000000 0.000000
# 5 0.000000 0.000000 0.000000 0.000000 0.046347 0.013878
# 6 0.000000 0.000000 0.000000 0.000000 0.013878 0.040668
#
#
# Mechanical properties :
#
#
# Convention : Reuss Voigt Hill
#
# Bulk Modulus (GPa) = 38.35050 46.92770 42.63910
# Shear Modulus (GPa) = 22.16413 25.31457 23.73935
#
# Velocity S-wave (km/s) = 3.30838 3.53570 3.42393
# Velocity P-wave (km/s) = 5.79074 6.31211 6.05704
#
# Compressibility (1/GPa) = 0.02607528
#
# Stress axis : x y z
#
# Youngs Moduli (GPa) = 69.71527 69.71527 38.28915
#
# Poissons Ratio (x) = 0.41759 0.16034
# Poissons Ratio (y) = 0.41759 0.16034
# Poissons Ratio (z) = 0.29193 0.29193
#
# Static dielectric constant tensor:
#      x y z
#    x 1.717890 0.000000 0.000000 
#    y 0.000000 1.717890 0.000000 
#    z 0.000000 0.000000 1.724580 
# 
# From -- ./inp_files/1962.got.cif
#   From: 2010.05.17/outbox.cif.g08.bks.cpg/sg152_1_cif.got.tgz:1962.got - 2010.05.20 10:36:06.
