data_PCOD9575184
_publ_section_title
;
Structure prediction by ZEFSAII (Michael W. Deem and Ramdas Pophale) SiO2 
 PCOD9575184
Probable space group: R -3
;
_chemical_formula_sum "Si O2"
_cell_formula_units_Z 126
_cell_length_a 16.194456
_cell_length_b 16.194456
_cell_length_c 26.311015
_cell_angle_alpha 90.000000
_cell_angle_beta 90.000000
_cell_angle_gamma 120.000000
_cell_volume 5975.867529
_symmetry_space_group_name_H-M "R -3"
_symmetry_group_IT_number 148
_symmetry_cell_setting 'hexagonal'
loop_
_space_group_symop_operation_xyz
x,y,z
-y,x-y,z
-x+y,-x,z
-x,-y,-z
y,-x+y,-z
x-y,x,-z
2/3+x,1/3+y,1/3+z
2/3-y,1/3+x-y,1/3+z
2/3-x+y,1/3-x,1/3+z
2/3-x,1/3-y,1/3-z
2/3+y,1/3-x+y,1/3-z
2/3+x-y,1/3+x,1/3-z
1/3+x,2/3+y,2/3+z
1/3-y,2/3+x-y,2/3+z
1/3-x+y,2/3-x,2/3+z
1/3-x,2/3-y,2/3-z
1/3+y,2/3-x+y,2/3-z
1/3+x-y,2/3+x,2/3-z
loop_
_atom_site_type_symbol
_atom_site_label
_atom_site_fract_x
_atom_site_fract_y
_atom_site_fract_z
Si Si1 0.260356 0.151517 0.801730
Si Si2 0.371445 0.867752 0.762771
Si Si3 0.344781 0.393359 0.273387
Si Si4 0.088428 0.396389 0.943301
Si Si5 0.832102 0.289322 0.229729
Si Si6 0.047588 0.227656 0.776475
Si Si7 0.805875 0.268561 0.815078
O O1 0.226376 0.195484 0.845315
O O2 0.293259 0.220956 0.754648
O O3 0.349366 0.147231 0.826900
O O4 0.177045 0.050622 0.781242
O O5 0.265306 0.794210 0.746912
O O6 0.441292 0.825582 0.767019
O O7 0.419191 0.965308 0.732297
O O8 0.332381 0.411740 0.331369
O O9 0.289294 0.283068 0.252204
O O10 0.316356 0.455346 0.237313
O O11 0.033730 0.285544 0.929574
O O12 0.195941 0.432029 0.920599
O O13 0.846274 0.266988 0.170880
O O14 0.692286 0.195989 0.816004
#
# Coordination Sequence:
#
# PCOD9575184 Si02
#       7
#    18  18  18  18  18  18  18
#     4  10  23  41  71  96 127 170 226 277 325 395
#     4  11  21  41  64 105 129 176 222 267 319 397
#     4  11  25  42  66  99 135 174 224 269 333 400
#     4  12  24  42  65  98 141 180 212 274 341 395
#     4  11  23  38  73  96 139 174 223 272 323 398
#     4  10  22  43  65  95 129 176 225 273 324 396
#     4  11  24  45  69  95 125 169 225 285 330 387
#
# _framework density 21.084803999999998
#
# number of rings (size 3 to 8) (size 9 to 14) (size 15 to 20)
#    0.000    1.143    4.286    1.714    6.000    2.286 
#    3.429    0.000    0.000    1.714    0.000    0.000 
#    0.000    0.000    0.000    0.000    0.000    0.000 
#
# Total GULP energy -234013.008306 kJ/mol
# GULP energy per Si atom -5571.738293 kJ/mol
# Density = 2.103681 g / cm^3
# Si number density = 21.084804 Si / 1000 Ang^3
#
#
#
# Elastic Constant Matrix: (Units=GPa)
#
#
# Indices 1 2 3 4 5 6 
#
# 1 65.2942 13.9279 6.0281 -8.2115 4.4000 0.0000
# 2 13.9279 65.2942 6.0281 8.2115 -4.4000 0.0000
# 3 6.0281 6.0281 31.1996 0.0000 0.0000 0.0000
# 4 -8.2115 8.2115 0.0000 -3.9361 0.0000 -4.4000
# 5 4.4000 -4.4000 0.0000 0.0000 -3.9361 -8.2115
# 6 0.0000 0.0000 0.0000 -4.4000 -8.2115 25.6832
#
#
#
# Elastic Compliance Matrix: (Units=1/GPa)
#
#
# Indices 1 2 3 4 5 6 
#
# 1 0.011740 0.001265 -0.002513 -0.021853 0.011710 0.000000
# 2 0.001265 0.011740 -0.002513 0.021853 -0.011710 0.000000
# 3 -0.002513 -0.002513 0.033023 0.000000 0.000000 0.000000
# 4 -0.021853 0.021853 0.000000 -0.136700 0.000000 -0.023419
# 5 0.011710 -0.011710 0.000000 0.000000 -0.136700 -0.043706
# 6 0.000000 0.000000 0.000000 -0.023419 -0.043706 0.020950
#
#
# Mechanical properties :
#
#
# Convention : Reuss Voigt Hill
#
# Bulk Modulus (GPa) = 20.41567 23.75071 22.08319
# Shear Modulus (GPa) = -29.05320 12.61578 -8.21871
#
# Velocity S-wave (km/s) = -3.71606 2.44874 -1.97646
# Velocity P-wave (km/s) = 2.95102 4.39135 2.29951
#
# Compressibility (1/GPa) = 0.04898199
#
# Stress axis : x y z
#
# Youngs Moduli (GPa) = 85.17828 85.17828 30.28218
#
# Poissons Ratio (x) = -0.10775 0.07609
# Poissons Ratio (y) = -0.10775 0.07609
# Poissons Ratio (z) = 0.21403 0.21403
#
# Static dielectric constant tensor:
#      x y z
#    x 1.811990 0.000000 0.000000 
#    y 0.000000 1.811990 0.000000 
#    z 0.000000 0.000000 1.747480 
# 
# From -- ./inp_files/3437.got.cif
#   From: 2010.05.17/outbox.cif.g08.bks.cpg/sg148_2_cif.got.tgz:3437.got - 2010.05.20 13:50:20.
