data_PCOD9575845
_publ_section_title
;
Structure prediction by ZEFSAII (Michael W. Deem and Ramdas Pophale) SiO2 
 PCOD9575845
Probable space group: P 31 2 1
;
_chemical_formula_sum "Si O2"
_cell_formula_units_Z 36
_cell_length_a 9.210200
_cell_length_b 9.210200
_cell_length_c 26.581316
_cell_angle_alpha 90.000000
_cell_angle_beta 90.000000
_cell_angle_gamma 120.000000
_cell_volume 1952.743641
_symmetry_space_group_name_H-M "P 31 2 1"
_symmetry_group_IT_number 152
_symmetry_cell_setting 'hexagonal'
loop_
_space_group_symop_operation_xyz
x,y,z
-y,x-y,1/3+z
-x+y,-x,2/3+z
x-y,-y,2/3-z
-x,-x+y,1/3-z
y,x,-z
loop_
_atom_site_type_symbol
_atom_site_label
_atom_site_fract_x
_atom_site_fract_y
_atom_site_fract_z
Si Si1 0.618076 0.526997 0.186886
Si Si2 0.838988 0.929147 0.631340
Si Si3 0.370004 0.250545 0.606956
Si Si4 0.606251 0.648601 0.421398
Si Si5 0.713897 0.253425 0.151594
Si Si6 0.964577 0.124306 0.789198
O O1 0.711510 0.573882 0.241203
O O2 0.638153 0.375740 0.163214
O O3 0.431786 0.496119 0.190188
O O4 0.721149 0.687290 0.150291
O O5 0.690308 0.892758 0.669477
O O6 0.796360 0.750780 0.609853
O O7 0.000000 0.006456 0.666667
O O8 0.888198 0.055503 0.584093
O O9 0.525325 0.436378 0.606655
O O10 0.212543 0.233744 0.574219
O O11 0.679149 0.530760 0.440823
O O12 0.555069 0.726754 0.467042
O O13 0.958662 0.000000 0.833334
#
# Coordination Sequence:
#
# PCOD9575845 Si02
#       6
#     6   6   6   6   6   6
#     4  10  20  36  60  90 118 148 198 243 291 343
#     4  10  22  36  60  85 114 154 202 235 286 353
#     4   9  19  40  58  79 119 157 186 233 299 353
#     4  10  21  40  58  84 122 156 188 241 300 343
#     4  10  22  36  62  90 119 149 197 248 290 345
#     4   9  18  35  60  85 112 151 190 241 287 345
#
# _framework density 18.435599
#
# number of rings (size 3 to 8) (size 9 to 14) (size 15 to 20)
#    0.000    2.333    1.667    0.000    4.667    4.000 
#    3.000    0.000    0.000    0.000    0.000    0.000 
#    0.000    0.000    0.000    0.000    0.000    0.000 
#
# Total GULP energy -200738.783815 kJ/mol
# GULP energy per Si atom -5576.077328 kJ/mol
# Density = 1.839364 g / cm^3
# Si number density = 18.435599 Si / 1000 Ang^3
#
#
#
# Elastic Constant Matrix: (Units=GPa)
#
#
# Indices 1 2 3 4 5 6 
#
# 1 67.3650 13.0132 12.9433 -8.6397 0.0001 0.0000
# 2 13.0132 67.3650 12.9433 8.6397 -0.0001 0.0000
# 3 12.9433 12.9433 64.2352 0.0000 0.0000 0.0000
# 4 -8.6397 8.6397 0.0000 6.3691 0.0000 -0.0001
# 5 0.0001 -0.0001 0.0000 0.0000 6.3691 -8.6397
# 6 0.0000 0.0000 0.0000 -0.0001 -8.6397 27.1759
#
#
#
# Elastic Compliance Matrix: (Units=1/GPa)
#
#
# Indices 1 2 3 4 5 6 
#
# 1 0.022827 -0.009522 -0.002681 0.043882 -0.000001 0.000000
# 2 -0.009522 0.022827 -0.002681 -0.043882 0.000001 0.000000
# 3 -0.002681 -0.002681 0.016648 0.000000 0.000000 0.000000
# 4 0.043882 -0.043882 0.000000 0.276058 0.000000 0.000001
# 5 -0.000001 0.000001 0.000000 0.000000 0.276058 0.087763
# 6 0.000000 0.000000 0.000000 0.000001 0.087763 0.064699
#
#
# Mechanical properties :
#
#
# Convention : Reuss Voigt Hill
#
# Bulk Modulus (GPa) = 30.73715 30.75164 30.74440
# Shear Modulus (GPa) = 6.94704 18.65383 12.80044
#
# Velocity S-wave (km/s) = 1.94331 3.18439 2.63788
# Velocity P-wave (km/s) = 4.66307 5.49884 5.09811
#
# Compressibility (1/GPa) = 0.03253392
#
# Stress axis : x y z
#
# Youngs Moduli (GPa) = 43.80779 43.80779 60.06664
#
# Poissons Ratio (x) = 0.41716 0.16103
# Poissons Ratio (y) = 0.41716 0.16103
# Poissons Ratio (z) = 0.11744 0.11744
#
# Static dielectric constant tensor:
#      x y z
#    x 1.626810 0.000000 0.000000 
#    y 0.000000 1.626810 0.000000 
#    z 0.000000 0.000000 1.659180 
# 
# From -- ./inp_files/3418.got.cif
#   From: 2010.05.17/outbox.cif.g08.bks.cpg/sg152_2_cif.got.tgz:3418.got - 2010.05.20 10:36:06.
