data_PCOD9575085
_publ_section_title
;
Structure prediction by ZEFSAII (Michael W. Deem and Ramdas Pophale) SiO2 
 PCOD9575085
Probable space group: R -3
;
_chemical_formula_sum "Si O2"
_cell_formula_units_Z 84
_cell_length_a 14.821802
_cell_length_b 14.821802
_cell_length_c 21.686973
_cell_angle_alpha 90.000000
_cell_angle_beta 90.000000
_cell_angle_gamma 120.000000
_cell_volume 4126.022436
_symmetry_space_group_name_H-M "R -3"
_symmetry_group_IT_number 148
_symmetry_cell_setting 'hexagonal'
loop_
_space_group_symop_operation_xyz
x,y,z
-y,x-y,z
-x+y,-x,z
-x,-y,-z
y,-x+y,-z
x-y,x,-z
2/3+x,1/3+y,1/3+z
2/3-y,1/3+x-y,1/3+z
2/3-x+y,1/3-x,1/3+z
2/3-x,1/3-y,1/3-z
2/3+y,1/3-x+y,1/3-z
2/3+x-y,1/3+x,1/3-z
1/3+x,2/3+y,2/3+z
1/3-y,2/3+x-y,2/3+z
1/3-x+y,2/3-x,2/3+z
1/3-x,2/3-y,2/3-z
1/3+y,2/3-x+y,2/3-z
1/3+x-y,2/3+x,2/3-z
loop_
_atom_site_type_symbol
_atom_site_label
_atom_site_fract_x
_atom_site_fract_y
_atom_site_fract_z
Si Si1 0.037179 0.846775 0.349306
Si Si2 0.306266 0.377593 0.263458
Si Si3 0.333334 0.666667 0.540883
Si Si4 0.042114 0.193335 0.041660
Si Si5 0.666668 0.333334 0.059439
Si Si6 0.224513 0.177246 0.479416
O O1 0.053486 0.769603 0.306752
O O2 0.144801 0.940201 0.379355
O O3 0.988255 0.896347 0.304755
O O4 0.970978 0.778728 0.407418
O O5 0.422618 0.396051 0.271320
O O6 0.268258 0.349937 0.192034
O O7 0.308349 0.554751 0.569713
O O8 0.333334 0.666667 0.466725
O O9 0.134613 0.197964 0.999638
O O10 0.196078 0.060916 0.492331
#
# Coordination Sequence:
#
# PCOD9575085 Si02
#       6
#    18  18   6  18   6  18
#     4  10  23  40  59  94 126 165 205 258 308 373
#     4  10  22  38  63  94 122 160 212 259 305 371
#     4   9  22  43  63  94 118 162 214 260 304 384
#     4   9  20  40  66  90 121 162 209 256 317 371
#     4  12  24  43  65  82 141 162 202 254 331 357
#     4  10  20  36  60  87 119 160 207 247 308 372
#
# _framework density 20.358591000000001
#
# number of rings (size 3 to 8) (size 9 to 14) (size 15 to 20)
#    0.000    2.143    0.000    3.643    6.000    5.143 
#    3.857    1.071    0.000    0.000    0.000    0.000 
#    0.000    0.000    0.000    0.000    0.000    0.000 
#
# Total GULP energy -156005.079671 kJ/mol
# GULP energy per Si atom -5571.609988 kJ/mol
# Density = 2.031225 g / cm^3
# Si number density = 20.358591 Si / 1000 Ang^3
#
#
#
# Elastic Constant Matrix: (Units=GPa)
#
#
# Indices 1 2 3 4 5 6 
#
# 1 55.5523 18.8334 41.0926 -11.7772 4.7238 0.0003
# 2 18.8334 55.5513 41.0927 11.7774 -4.7239 -0.0004
# 3 41.0926 41.0927 201.6884 -0.0001 -0.0002 -0.0003
# 4 -11.7772 11.7774 -0.0001 26.5991 0.0000 -4.7237
# 5 4.7238 -4.7239 -0.0002 0.0000 26.5992 -11.7769
# 6 0.0003 -0.0004 -0.0003 -4.7237 -11.7769 18.3611
#
#
#
# Elastic Compliance Matrix: (Units=1/GPa)
#
#
# Indices 1 2 3 4 5 6 
#
# 1 0.028990 -0.011641 -0.003535 0.017990 -0.007217 -0.000001
# 2 -0.011641 0.028991 -0.003535 -0.017991 0.007217 0.000001
# 3 -0.003535 -0.003535 0.006398 0.000000 0.000000 0.000000
# 4 0.017990 -0.017991 0.000000 0.056089 -0.000002 0.014428
# 5 -0.007217 0.007217 0.000000 -0.000002 0.056085 0.035973
# 6 -0.000001 0.000001 0.000000 0.014428 0.035973 0.081248
#
#
# Mechanical properties :
#
#
# Convention : Reuss Voigt Hill
#
# Bulk Modulus (GPa) = 37.09555 57.20329 47.14942
# Shear Modulus (GPa) = 16.43607 28.43010 22.43309
#
# Velocity S-wave (km/s) = 2.84444 3.74099 3.32309
# Velocity P-wave (km/s) = 5.38966 6.84243 6.15903
#
# Compressibility (1/GPa) = 0.02695741
#
# Stress axis : x y z
#
# Youngs Moduli (GPa) = 34.49473 34.49371 156.28674
#
# Poissons Ratio (x) = 0.40156 0.55242
# Poissons Ratio (y) = 0.40157 0.55244
# Poissons Ratio (z) = 0.12193 0.12193
#
# Static dielectric constant tensor:
#      x y z
#    x 1.755400 0.000000 0.000000 
#    y 0.000000 1.755400 0.000000 
#    z 0.000000 0.000000 1.914070 
# 
# From -- ./inp_files/3341.got.cif
#   From: 2010.05.17/outbox.cif.g08.bks.cpg/sg148_2_cif.got.tgz:3341.got - 2010.05.20 13:50:20.
