data_PCOD9575981
_publ_section_title
;
Structure prediction by ZEFSAII (Michael W. Deem and Ramdas Pophale) SiO2 
 PCOD9575981
Probable space group: P 31 2 1
;
_chemical_formula_sum "Si O2"
_cell_formula_units_Z 45
_cell_length_a 14.577764
_cell_length_b 14.577764
_cell_length_c 11.259670
_cell_angle_alpha 90.000000
_cell_angle_beta 90.000000
_cell_angle_gamma 120.000000
_cell_volume 2072.230799
_symmetry_space_group_name_H-M "P 31 2 1"
_symmetry_group_IT_number 152
_symmetry_cell_setting 'hexagonal'
loop_
_space_group_symop_operation_xyz
x,y,z
-y,x-y,1/3+z
-x+y,-x,2/3+z
x-y,-y,2/3-z
-x,-x+y,1/3-z
y,x,-z
loop_
_atom_site_type_symbol
_atom_site_label
_atom_site_fract_x
_atom_site_fract_y
_atom_site_fract_z
Si Si1 0.234372 0.270365 0.329948
Si Si2 0.550848 0.526825 0.272874
Si Si3 0.150444 0.696991 0.322979
Si Si4 0.919191 0.279403 0.562122
Si Si5 0.478213 0.224288 0.718020
Si Si6 0.089229 0.089229 0.500000
Si Si7 0.876094 0.067948 0.453703
Si Si8 0.415310 0.598093 0.428216
O O1 0.337600 0.275726 0.387238
O O2 0.241174 0.381888 0.317364
O O3 0.134679 0.179673 0.399419
O O4 0.231042 0.228388 0.197875
O O5 0.490105 0.400552 0.251721
O O6 0.575386 0.605875 0.164398
O O7 0.661808 0.549507 0.328290
O O8 0.482708 0.550838 0.367778
O O9 0.241777 0.804594 0.379441
O O10 0.179612 0.648136 0.211537
O O11 0.902490 0.190268 0.463637
O O12 0.000000 0.288360 0.666667
O O13 0.504274 0.218752 0.855485
O O14 0.581959 0.323907 0.661823
O O15 0.973731 0.071263 0.524253
O O16 0.855605 0.000000 0.333334
#
# Coordination Sequence:
#
# PCOD9575981 Si02
#       8
#     6   6   6   6   6   3   6   6
#     4  11  22  39  67  92 128 183 223 278 349 415
#     4  11  24  43  68 102 136 181 237 300 359 439
#     4  10  21  43  67  95 134 182 235 293 354 446
#     4  11  24  45  72 101 141 191 241 296 373 445
#     4  11  23  40  69  97 131 180 227 292 353 429
#     4  12  22  38  64  96 136 172 224 274 330 422
#     4  11  24  40  61  99 140 177 227 283 348 419
#     4  11  24  43  67  99 135 174 239 291 363 428
#
# _framework density 21.715726
#
# number of rings (size 3 to 8) (size 9 to 14) (size 15 to 20)
#    0.000    1.067    1.333    6.800    1.867    2.133 
#    2.400    4.000    0.000    0.000    0.000    0.000 
#    0.000    0.000    0.000    0.000    0.000    0.000 
#
# Total GULP energy -251226.837250 kJ/mol
# GULP energy per Si atom -5582.818606 kJ/mol
# Density = 2.166630 g / cm^3
# Si number density = 21.715726 Si / 1000 Ang^3
#
#
#
# Elastic Constant Matrix: (Units=GPa)
#
#
# Indices 1 2 3 4 5 6 
#
# 1 86.8064 11.0817 28.5618 1.4544 0.0000 0.0000
# 2 11.0817 86.8064 28.5618 -1.4544 0.0000 0.0000
# 3 28.5618 28.5618 58.1422 0.0000 0.0000 0.0000
# 4 1.4544 -1.4544 0.0000 26.7445 0.0000 0.0000
# 5 0.0000 0.0000 0.0000 0.0000 26.7445 1.4544
# 6 0.0000 0.0000 0.0000 0.0000 1.4544 37.8624
#
#
#
# Elastic Compliance Matrix: (Units=1/GPa)
#
#
# Indices 1 2 3 4 5 6 
#
# 1 0.013777 0.000544 -0.007035 -0.000720 0.000000 0.000000
# 2 0.000544 0.013777 -0.007035 0.000720 0.000000 0.000000
# 3 -0.007035 -0.007035 0.024111 0.000000 0.000000 0.000000
# 4 -0.000720 0.000720 0.000000 0.037469 0.000000 0.000000
# 5 0.000000 0.000000 0.000000 0.000000 0.037469 -0.001439
# 6 0.000000 0.000000 0.000000 0.000000 -0.001439 0.026467
#
#
# Mechanical properties :
#
#
# Convention : Reuss Voigt Hill
#
# Bulk Modulus (GPa) = 40.62910 40.90727 40.76818
# Shear Modulus (GPa) = 26.54946 29.17358 27.86152
#
# Velocity S-wave (km/s) = 3.50035 3.66926 3.58580
# Velocity P-wave (km/s) = 5.92341 6.06876 5.99652
#
# Compressibility (1/GPa) = 0.02461290
#
# Stress axis : x y z
#
# Youngs Moduli (GPa) = 72.58325 72.58325 41.47464
#
# Poissons Ratio (x) = -0.03948 0.29178
# Poissons Ratio (y) = -0.03948 0.29178
# Poissons Ratio (z) = 0.51063 0.51063
#
# Static dielectric constant tensor:
#      x y z
#    x 1.811510 0.000000 0.000000 
#    y 0.000000 1.811510 0.000000 
#    z 0.000000 0.000000 1.851110 
# 
# From -- ./inp_files/1867.got.cif
#   From: 2010.05.17/outbox.cif.g08.bks.cpg/sg152_1_cif.got.tgz:1867.got - 2010.05.20 10:36:06.
