data_PCOD9575368
_publ_section_title
;
Structure prediction by ZEFSAII (Michael W. Deem and Ramdas Pophale) SiO2 
 PCOD9575368
Probable space group: P 3 1 2
;
_chemical_formula_sum "Si O2"
_cell_formula_units_Z 36
_cell_length_a 12.623181
_cell_length_b 12.623181
_cell_length_c 15.736117
_cell_angle_alpha 90.000000
_cell_angle_beta 90.000000
_cell_angle_gamma 120.000000
_cell_volume 2171.529965
_symmetry_space_group_name_H-M "P 3 1 2"
_symmetry_group_IT_number 149
_symmetry_cell_setting 'hexagonal'
loop_
_space_group_symop_operation_xyz
x,y,z
-y,x-y,z
-x+y,-x,z
-y,-x,-z
-x+y,y,-z
x,x-y,-z
loop_
_atom_site_type_symbol
_atom_site_label
_atom_site_fract_x
_atom_site_fract_y
_atom_site_fract_z
Si Si1 0.333844 0.918342 0.499999
Si Si2 0.414506 0.081407 0.999999
Si Si3 0.999537 0.748164 0.166181
Si Si4 0.918841 0.333239 0.666728
Si Si5 0.251836 0.000462 0.166179
Si Si6 0.414400 0.333242 0.666730
O O1 0.203764 0.796237 0.500000
O O2 0.443719 0.887438 0.500000
O O3 0.353122 0.999330 0.583580
O O4 0.353120 0.999325 0.416416
O O5 0.334209 0.018867 0.083588
O O6 0.538384 0.076768 0.000000
O O7 0.443409 0.221705 0.000000
O O8 0.334214 0.018870 0.916407
O O9 0.979978 0.668906 0.250690
O O10 0.889337 0.778674 0.164164
O O11 0.129140 0.870859 0.165743
O O12 0.785742 0.214255 0.656100
O O13 0.907193 0.453595 0.677896
O O14 0.331099 0.020023 0.250685
#
# Coordination Sequence:
#
# PCOD9575368 Si02
#       6
#     6   6   6   6   6   6
#     4  10  20  34  52  74 102 136 172 208 248 298
#     4  10  20  34  54  78 104 134 168 210 256 302
#     4  10  20  34  53  76 103 135 170 209 252 300
#     4  10  20  34  54  78 104 134 168 210 256 302
#     4  10  20  34  53  76 103 135 170 209 252 300
#     4  10  20  34  54  78 104 134 168 210 256 302
#
# _framework density 16.578175000000002
#
# number of rings (size 3 to 8) (size 9 to 14) (size 15 to 20)
#    0.000    2.000    0.000    4.000    0.000    0.000 
#    0.000    6.667    0.000   16.000    0.000    0.000 
#    0.000    0.000    0.000    0.000    0.000    0.000 
#
# Total GULP energy -201023.095129 kJ/mol
# GULP energy per Si atom -5583.974865 kJ/mol
# Density = 1.654044 g / cm^3
# Si number density = 16.578175 Si / 1000 Ang^3
#
#
#
# Elastic Constant Matrix: (Units=GPa)
#
#
# Indices 1 2 3 4 5 6 
#
# 1 149.5798 111.9641 103.0889 0.0000 0.0008 0.0000
# 2 111.9641 149.5798 103.0889 0.0000 -0.0008 0.0000
# 3 103.0889 103.0889 179.4968 0.0000 0.0000 0.0000
# 4 0.0000 0.0000 0.0000 14.2709 0.0000 -0.0008
# 5 0.0008 -0.0008 0.0000 0.0000 14.2709 0.0000
# 6 0.0000 0.0000 0.0000 -0.0008 0.0000 18.8079
#
#
#
# Elastic Compliance Matrix: (Units=1/GPa)
#
#
# Indices 1 2 3 4 5 6 
#
# 1 0.016786 -0.009799 -0.004013 0.000000 -0.000001 0.000000
# 2 -0.009799 0.016786 -0.004013 0.000000 0.000001 0.000000
# 3 -0.004013 -0.004013 0.010180 0.000000 0.000000 0.000000
# 4 0.000000 0.000000 0.000000 0.070073 0.000000 0.000003
# 5 -0.000001 0.000001 0.000000 0.000000 0.070073 0.000000
# 6 0.000000 0.000000 0.000000 0.000003 0.000000 0.053169
#
#
# Mechanical properties :
#
#
# Convention : Reuss Voigt Hill
#
# Bulk Modulus (GPa) = 123.40960 123.88222 123.64591
# Shear Modulus (GPa) = 18.15439 20.17090 19.16264
#
# Velocity S-wave (km/s) = 3.31279 3.49193 3.40354
# Velocity P-wave (km/s) = 9.44645 9.54706 9.49689
#
# Compressibility (1/GPa) = 0.00810310
#
# Stress axis : x y z
#
# Youngs Moduli (GPa) = 59.57490 59.57490 98.23084
#
# Poissons Ratio (x) = 0.58378 0.39416
# Poissons Ratio (y) = 0.58378 0.39416
# Poissons Ratio (z) = 0.23905 0.23905
#
# Static dielectric constant tensor:
#      x y z
#    x 1.522880 0.000000 0.000000 
#    y 0.000000 1.522880 0.000000 
#    z 0.000000 0.000000 1.543930 
# 
# From -- ./inp_files/1002.got.cif
#   From: 2010.05.17/outbox.cif.g08.bks.cpg/sg149_cif.got.tgz:1002.got - 2010.05.20 13:52:34.
