data_PCOD9575798
_publ_section_title
;
Structure prediction by ZEFSAII (Michael W. Deem and Ramdas Pophale) SiO2 
 PCOD9575798
Probable space group: P 31 2 1
;
_chemical_formula_sum "Si O2"
_cell_formula_units_Z 30
_cell_length_a 15.705604
_cell_length_b 15.705604
_cell_length_c 6.541595
_cell_angle_alpha 90.000000
_cell_angle_beta 90.000000
_cell_angle_gamma 120.000000
_cell_volume 1397.409111
_symmetry_space_group_name_H-M "P 31 2 1"
_symmetry_group_IT_number 152
_symmetry_cell_setting 'hexagonal'
loop_
_space_group_symop_operation_xyz
x,y,z
-y,x-y,1/3+z
-x+y,-x,2/3+z
x-y,-y,2/3-z
-x,-x+y,1/3-z
y,x,-z
loop_
_atom_site_type_symbol
_atom_site_label
_atom_site_fract_x
_atom_site_fract_y
_atom_site_fract_z
Si Si1 0.000000 0.748627 0.666667
Si Si2 0.345925 0.591614 0.133595
Si Si3 0.389366 0.287147 0.375409
Si Si4 0.380909 0.000000 0.833334
Si Si5 0.915818 0.457851 0.818776
Si Si6 0.187494 0.368480 0.231845
O O1 0.913839 0.732731 0.509880
O O2 0.072710 0.741760 0.501978
O O3 0.379871 0.657097 0.335600
O O4 0.284564 0.473830 0.175731
O O5 0.440205 0.612691 0.996480
O O6 0.350044 0.350044 0.500000
O O7 0.498465 0.364777 0.304331
O O8 0.371715 0.198626 0.521682
O O9 0.449651 0.027556 0.633851
O O10 0.371654 0.095848 0.859839
O O11 0.000000 0.536125 0.666667
#
# Coordination Sequence:
#
# PCOD9575798 Si02
#       6
#     3   6   6   3   6   6
#     4  10  20  42  68  90 118 172 224 270 336 414
#     4  12  27  40  60  91 132 184 236 280 340 416
#     4  10  19  37  64  91 118 169 230 261 325 407
#     4  12  28  40  62 102 142 170 226 300 354 402
#     4  12  23  39  62  88 129 181 220 279 339 400
#     4  11  25  41  66  96 130 179 226 287 344 419
#
# _framework density 21.468302000000001
#
# number of rings (size 3 to 8) (size 9 to 14) (size 15 to 20)
#    0.000    0.800    4.000    3.600    8.400    1.600 
#    0.000    0.000    0.000    0.000    7.800    0.000 
#    0.000    0.000    0.000    0.000    0.000    0.000 
#
# Total GULP energy -167183.756838 kJ/mol
# GULP energy per Si atom -5572.791895 kJ/mol
# Density = 2.141944 g / cm^3
# Si number density = 21.468302 Si / 1000 Ang^3
#
#
#
# Elastic Constant Matrix: (Units=GPa)
#
#
# Indices 1 2 3 4 5 6 
#
# 1 57.9857 12.2166 11.9660 6.7269 0.0000 0.0000
# 2 12.2166 57.9857 11.9660 -6.7269 0.0000 0.0000
# 3 11.9660 11.9660 79.3489 0.0000 0.0000 0.0000
# 4 6.7269 -6.7269 0.0000 26.9527 0.0000 0.0000
# 5 0.0000 0.0000 0.0000 0.0000 26.9527 6.7269
# 6 0.0000 0.0000 0.0000 0.0000 6.7269 22.8845
#
#
#
# Elastic Compliance Matrix: (Units=1/GPa)
#
#
# Indices 1 2 3 4 5 6 
#
# 1 0.019298 -0.004281 -0.002265 -0.005885 0.000000 0.000000
# 2 -0.004281 0.019298 -0.002265 0.005885 0.000000 0.000000
# 3 -0.002265 -0.002265 0.013286 0.000000 0.000000 0.000000
# 4 -0.005885 0.005885 0.000000 0.040039 0.000000 0.000000
# 5 0.000000 0.000000 0.000000 0.000000 0.040039 -0.011770
# 6 0.000000 0.000000 0.000000 0.000000 -0.011770 0.047157
#
#
# Mechanical properties :
#
#
# Convention : Reuss Voigt Hill
#
# Bulk Modulus (GPa) = 29.18810 29.73525 29.46167
# Shear Modulus (GPa) = 24.02030 25.96944 24.99487
#
# Velocity S-wave (km/s) = 3.34858 3.48180 3.41584
# Velocity P-wave (km/s) = 5.34566 5.48131 5.41391
#
# Compressibility (1/GPa) = 0.03426054
#
# Stress axis : x y z
#
# Youngs Moduli (GPa) = 51.81995 51.81995 75.26971
#
# Poissons Ratio (x) = 0.22184 0.17045
# Poissons Ratio (y) = 0.22184 0.17045
# Poissons Ratio (z) = 0.11735 0.11735
#
# Static dielectric constant tensor:
#      x y z
#    x 1.808250 0.000000 0.000000 
#    y 0.000000 1.808250 0.000000 
#    z 0.000000 0.000000 1.852110 
# 
# From -- ./inp_files/398.got.cif
#   From: 2010.05.17/outbox.cif.g08.bks.cpg/sg152_1_cif.got.tgz:398.got - 2010.05.20 10:36:06.
