data_PCOD9575155
_publ_section_title
;
Structure prediction by ZEFSAII (Michael W. Deem and Ramdas Pophale) SiO2 
 PCOD9575155
Probable space group: R -3
;
_chemical_formula_sum "Si O2"
_cell_formula_units_Z 72
_cell_length_a 20.433816
_cell_length_b 20.433816
_cell_length_c 8.892705
_cell_angle_alpha 90.000000
_cell_angle_beta 90.000000
_cell_angle_gamma 120.000000
_cell_volume 3215.610766
_symmetry_space_group_name_H-M "R -3"
_symmetry_group_IT_number 148
_symmetry_cell_setting 'hexagonal'
loop_
_space_group_symop_operation_xyz
x,y,z
-y,x-y,z
-x+y,-x,z
-x,-y,-z
y,-x+y,-z
x-y,x,-z
2/3+x,1/3+y,1/3+z
2/3-y,1/3+x-y,1/3+z
2/3-x+y,1/3-x,1/3+z
2/3-x,1/3-y,1/3-z
2/3+y,1/3-x+y,1/3-z
2/3+x-y,1/3+x,1/3-z
1/3+x,2/3+y,2/3+z
1/3-y,2/3+x-y,2/3+z
1/3-x+y,2/3-x,2/3+z
1/3-x,2/3-y,2/3-z
1/3+y,2/3-x+y,2/3-z
1/3+x-y,2/3+x,2/3-z
loop_
_atom_site_type_symbol
_atom_site_label
_atom_site_fract_x
_atom_site_fract_y
_atom_site_fract_z
Si Si1 0.790706 0.114709 0.981016
Si Si2 0.821066 0.454112 0.409604
Si Si3 0.909046 0.530936 0.669603
Si Si4 0.084188 0.716234 0.326233
O O1 0.840497 0.201579 0.027234
O O2 0.791177 0.104396 0.799497
O O3 0.705248 0.080920 0.037614
O O4 0.820965 0.060839 0.034095
O O5 0.804880 0.373839 0.348361
O O6 0.830119 0.470519 0.589693
O O7 0.930494 0.615661 0.620240
O O8 0.915756 0.534201 0.851560
#
# Coordination Sequence:
#
# PCOD9575155 Si02
#       4
#    18  18  18  18
#     4  11  20  37  63  94 128 164 202 254 312 374
#     4  12  25  42  62  88 123 169 216 260 311 375
#     4  11  22  39  62  91 128 165 202 256 314 371
#     4  10  22  38  61  99 130 158 207 258 312 378
#
# _framework density 22.39077
#
# number of rings (size 3 to 8) (size 9 to 14) (size 15 to 20)
#    0.000    1.000    0.000    9.250    0.000    2.000 
#    0.000    0.000    0.000    0.000    0.000   10.500 
#    0.000    0.000    0.000    0.000    0.000    0.000 
#
# Total GULP energy -133923.453652 kJ/mol
# GULP energy per Si atom -5580.143902 kJ/mol
# Density = 2.233981 g / cm^3
# Si number density = 22.390770 Si / 1000 Ang^3
#
#
#
# Elastic Constant Matrix: (Units=GPa)
#
#
# Indices 1 2 3 4 5 6 
#
# 1 73.3928 17.8891 33.1987 -7.7551 9.9174 -0.0001
# 2 17.8891 73.3930 33.1985 7.7546 -9.9183 -0.0001
# 3 33.1987 33.1985 130.1180 -0.0012 -0.0009 -0.0009
# 4 -7.7551 7.7546 -0.0012 29.3067 -0.0008 -9.9180
# 5 9.9174 -9.9183 -0.0009 -0.0008 29.3063 -7.7553
# 6 -0.0001 -0.0001 -0.0009 -9.9180 -7.7553 27.7517
#
#
#
# Elastic Compliance Matrix: (Units=1/GPa)
#
#
# Indices 1 2 3 4 5 6 
#
# 1 0.017915 -0.004463 -0.003432 0.005921 -0.007573 0.000000
# 2 -0.004463 0.017915 -0.003432 -0.005921 0.007573 0.000000
# 3 -0.003432 -0.003432 0.009437 0.000001 0.000000 0.000001
# 4 0.005921 -0.005921 0.000001 0.042381 0.000002 0.015147
# 5 -0.007573 0.007573 0.000000 0.000002 0.042382 0.011845
# 6 0.000000 0.000000 0.000001 0.015147 0.011845 0.044757
#
#
# Mechanical properties :
#
#
# Convention : Reuss Voigt Hill
#
# Bulk Modulus (GPa) = 44.22541 49.49739 46.86140
# Shear Modulus (GPa) = 24.39281 30.11411 27.25346
#
# Velocity S-wave (km/s) = 3.30421 3.67131 3.49259
# Velocity P-wave (km/s) = 5.86102 6.33447 6.10234
#
# Compressibility (1/GPa) = 0.02261143
#
# Stress axis : x y z
#
# Youngs Moduli (GPa) = 55.82046 55.82036 105.96976
#
# Poissons Ratio (x) = 0.24913 0.36369
# Poissons Ratio (y) = 0.24913 0.36369
# Poissons Ratio (z) = 0.19158 0.19158
#
# Static dielectric constant tensor:
#      x y z
#    x 1.800820 0.000000 0.000000 
#    y 0.000000 1.800820 0.000000 
#    z 0.000000 0.000000 2.301090 
# 
# From -- ./inp_files/826.got.cif
#   From: 2010.05.17/outbox.cif.g08.bks.cpg/sg148_1_cif.got.tgz:826.got - 2010.05.20 13:50:20.
