data_PCOD9575721
_publ_section_title
;
Structure prediction by ZEFSAII (Michael W. Deem and Ramdas Pophale) SiO2 
 PCOD9575721
Probable space group: P 31 2 1
;
_chemical_formula_sum "Si O2"
_cell_formula_units_Z 36
_cell_length_a 9.659054
_cell_length_b 9.659054
_cell_length_c 20.723900
_cell_angle_alpha 90.000000
_cell_angle_beta 90.000000
_cell_angle_gamma 120.000000
_cell_volume 1674.446622
_symmetry_space_group_name_H-M "P 31 2 1"
_symmetry_group_IT_number 152
_symmetry_cell_setting 'hexagonal'
loop_
_space_group_symop_operation_xyz
x,y,z
-y,x-y,1/3+z
-x+y,-x,2/3+z
x-y,-y,2/3-z
-x,-x+y,1/3-z
y,x,-z
loop_
_atom_site_type_symbol
_atom_site_label
_atom_site_fract_x
_atom_site_fract_y
_atom_site_fract_z
Si Si1 0.913079 0.307711 0.365928
Si Si2 0.023705 0.973556 0.066688
Si Si3 0.926547 0.485193 0.730071
Si Si4 0.341997 0.820227 0.130479
Si Si5 0.735761 0.000000 0.833334
Si Si6 0.000000 0.207628 0.166667
Si Si7 0.751914 0.518308 0.568275
O O1 0.962115 0.172408 0.382022
O O2 0.727154 0.235628 0.385262
O O3 0.902224 0.340443 0.289943
O O4 0.042874 0.453489 0.409168
O O5 0.005208 0.106462 0.106177
O O6 0.951995 0.816648 0.110067
O O7 0.934393 0.934393 0.000000
O O8 0.900107 0.404779 0.799846
O O9 0.000000 0.443945 0.666667
O O10 0.068323 0.666460 0.739118
O O11 0.149531 0.729914 0.138777
O O12 0.357779 0.668079 0.110262
O O13 0.150587 0.384530 0.162704
#
# Coordination Sequence:
#
# PCOD9575721 Si02
#       7
#     6   6   6   6   3   3   6
#     4  10  20  42  64  86 133 169 213 273 322 393
#     4  10  17  36  62  90 116 163 220 260 302 394
#     4  10  21  42  68  87 121 173 222 262 320 403
#     4  11  23  42  59  95 133 165 212 278 332 394
#     4   9  23  36  56  84 130 160 190 268 332 358
#     4  11  19  34  68  94 120 164 220 264 326 382
#     4  11  22  40  65  96 124 172 217 271 332 399
#
# _framework density 21.499641
#
# number of rings (size 3 to 8) (size 9 to 14) (size 15 to 20)
#    0.000    1.667    3.333    2.000    0.000    0.667 
#   15.000    0.000    0.000    0.000    0.000    0.000 
#    0.000    0.000    0.000    0.000    0.000    0.000 
#
# Total GULP energy -200436.196867 kJ/mol
# GULP energy per Si atom -5567.672135 kJ/mol
# Density = 2.145071 g / cm^3
# Si number density = 21.499641 Si / 1000 Ang^3
#
#
#
# Elastic Constant Matrix: (Units=GPa)
#
#
# Indices 1 2 3 4 5 6 
#
# 1 39.6340 5.6375 17.3612 0.0953 0.0000 0.0000
# 2 5.6375 39.6340 17.3612 -0.0953 0.0000 0.0000
# 3 17.3612 17.3612 114.3372 0.0000 0.0000 0.0000
# 4 0.0953 -0.0953 0.0000 26.8553 0.0000 0.0000
# 5 0.0000 0.0000 0.0000 0.0000 26.8553 0.0953
# 6 0.0000 0.0000 0.0000 0.0000 0.0953 16.9983
#
#
#
# Elastic Compliance Matrix: (Units=1/GPa)
#
#
# Indices 1 2 3 4 5 6 
#
# 1 0.027208 -0.002207 -0.003796 -0.000104 0.000000 0.000000
# 2 -0.002207 0.027208 -0.003796 0.000104 0.000000 0.000000
# 3 -0.003796 -0.003796 0.009899 0.000000 0.000000 0.000000
# 4 -0.000104 0.000104 0.000000 0.037237 0.000000 0.000000
# 5 0.000000 0.000000 0.000000 0.000000 0.037237 -0.000209
# 6 0.000000 0.000000 0.000000 0.000000 -0.000209 0.058831
#
#
# Mechanical properties :
#
#
# Convention : Reuss Voigt Hill
#
# Bulk Modulus (GPa) = 22.36367 30.48054 26.42210
# Shear Modulus (GPa) = 21.54017 24.35814 22.94915
#
# Velocity S-wave (km/s) = 3.16869 3.36959 3.27068
# Velocity P-wave (km/s) = 4.87975 5.41728 5.15552
#
# Compressibility (1/GPa) = 0.04471538
#
# Stress axis : x y z
#
# Youngs Moduli (GPa) = 36.75403 36.75403 101.02154
#
# Poissons Ratio (x) = 0.08113 0.38349
# Poissons Ratio (y) = 0.08113 0.38349
# Poissons Ratio (z) = 0.13952 0.13952
#
# Static dielectric constant tensor:
#      x y z
#    x 1.806750 0.000000 0.000000 
#    y 0.000000 1.806750 0.000000 
#    z 0.000000 0.000000 1.862390 
# 
# From -- ./inp_files/2427.got.cif
#   From: 2010.05.17/outbox.cif.g08.bks.cpg/sg152_2_cif.got.tgz:2427.got - 2010.05.20 10:36:06.
