data_PCOD9575256
_publ_section_title
;
Structure prediction by ZEFSAII (Michael W. Deem and Ramdas Pophale) SiO2 
 PCOD9575256
Probable space group: R -3
;
_chemical_formula_sum "Si O2"
_cell_formula_units_Z 126
_cell_length_a 27.163733
_cell_length_b 27.163733
_cell_length_c 8.487749
_cell_angle_alpha 90.000000
_cell_angle_beta 90.000000
_cell_angle_gamma 120.000000
_cell_volume 5423.780007
_symmetry_space_group_name_H-M "R -3"
_symmetry_group_IT_number 148
_symmetry_cell_setting 'hexagonal'
loop_
_space_group_symop_operation_xyz
x,y,z
-y,x-y,z
-x+y,-x,z
-x,-y,-z
y,-x+y,-z
x-y,x,-z
2/3+x,1/3+y,1/3+z
2/3-y,1/3+x-y,1/3+z
2/3-x+y,1/3-x,1/3+z
2/3-x,1/3-y,1/3-z
2/3+y,1/3-x+y,1/3-z
2/3+x-y,1/3+x,1/3-z
1/3+x,2/3+y,2/3+z
1/3-y,2/3+x-y,2/3+z
1/3-x+y,2/3-x,2/3+z
1/3-x,2/3-y,2/3-z
1/3+y,2/3-x+y,2/3-z
1/3+x-y,2/3+x,2/3-z
loop_
_atom_site_type_symbol
_atom_site_label
_atom_site_fract_x
_atom_site_fract_y
_atom_site_fract_z
Si Si1 0.269047 0.028427 0.071113
Si Si2 0.145265 0.586895 0.962510
Si Si3 0.286924 0.243779 0.460348
Si Si4 0.119305 0.767546 0.675234
Si Si5 0.363365 0.244358 0.716348
Si Si6 0.183229 0.130986 0.367789
Si Si7 0.887040 0.792293 0.051689
O O1 0.306636 0.070035 0.211963
O O2 0.220308 0.043343 0.036496
O O3 0.317399 0.048067 0.939614
O O4 0.239414 0.961179 0.069991
O O5 0.153666 0.570800 0.783717
O O6 0.080331 0.575019 0.960693
O O7 0.183539 0.653823 0.998807
O O8 0.153871 0.557482 0.118617
O O9 0.306093 0.228277 0.622106
O O10 0.252431 0.277457 0.452586
O O11 0.245300 0.187937 0.363088
O O12 0.128007 0.810643 0.535880
O O13 0.181221 0.783772 0.733821
O O14 0.178785 0.091499 0.220124
#
# Coordination Sequence:
#
# PCOD9575256 Si02
#       7
#    18  18  18  18  18  18  18
#     4  12  23  38  59  90 131 179 233 282 331 387
#     4  11  26  46  70 100 135 173 222 276 336 408
#     4  11  21  37  58  89 134 178 231 276 323 377
#     4  12  24  37  60  89 129 183 232 283 337 386
#     4  11  22  36  58  90 131 183 232 280 325 385
#     4  11  26  46  70 100 135 176 220 275 337 405
#     4  12  25  42  66  97 135 177 233 278 334 391
#
# _framework density 23.231030000000001
#
# number of rings (size 3 to 8) (size 9 to 14) (size 15 to 20)
#    0.000    0.571    2.857    6.429    2.000    5.714 
#    0.000    0.000    0.000    0.286    0.000    1.000 
#    0.000    0.000    0.000    0.000    0.000    0.000 
#
# Total GULP energy -234634.928911 kJ/mol
# GULP energy per Si atom -5586.545926 kJ/mol
# Density = 2.317816 g / cm^3
# Si number density = 23.231030 Si / 1000 Ang^3
#
#
#
# Elastic Constant Matrix: (Units=GPa)
#
#
# Indices 1 2 3 4 5 6 
#
# 1 72.1920 11.4841 19.5693 -4.8031 -2.7163 -0.0051
# 2 11.4841 72.2264 19.6017 4.7810 2.6842 -0.0020
# 3 19.5693 19.6017 118.6050 -0.0550 -0.0671 -0.0180
# 4 -4.8031 4.7810 -0.0550 24.4375 -0.0234 2.6899
# 5 -2.7163 2.6842 -0.0671 -0.0234 24.4148 -4.7910
# 6 -0.0051 -0.0020 -0.0180 2.6899 -4.7910 30.3605
#
#
#
# Elastic Compliance Matrix: (Units=1/GPa)
#
#
# Indices 1 2 3 4 5 6 
#
# 1 0.015062 -0.002110 -0.002134 0.003370 0.001906 0.000003
# 2 -0.002110 0.015056 -0.002143 -0.003367 -0.001899 -0.000002
# 3 -0.002134 -0.002143 0.009138 0.000020 0.000025 0.000007
# 4 0.003370 -0.003367 0.000020 0.042657 0.000046 -0.003772
# 5 0.001906 -0.001899 0.000025 0.000046 0.042701 0.006735
# 6 0.000003 -0.000002 0.000007 -0.003772 0.006735 0.034334
#
#
# Mechanical properties :
#
#
# Convention : Reuss Voigt Hill
#
# Bulk Modulus (GPa) = 37.76055 40.48151 39.12103
# Shear Modulus (GPa) = 27.69345 30.00043 28.84694
#
# Velocity S-wave (km/s) = 3.45641 3.59750 3.52766
# Velocity P-wave (km/s) = 5.67615 5.89232 5.78524
#
# Compressibility (1/GPa) = 0.02648267
#
# Stress axis : x y z
#
# Youngs Moduli (GPa) = 66.39285 66.41973 109.43806
#
# Poissons Ratio (x) = 0.14012 0.23352
# Poissons Ratio (y) = 0.14006 0.23450
# Poissons Ratio (z) = 0.14167 0.14232
#
# Static dielectric constant tensor:
#      x y z
#    x 1.842030 0.000000 -0.000040 
#    y 0.000000 1.842040 0.000000 
#    z -0.000040 0.000000 2.086050 
# 
# From -- ./inp_files/1114.got.cif
#   From: 2010.05.17/outbox.cif.g08.bks.cpg/sg148_1_cif.got.tgz:1114.got - 2010.05.20 13:50:20.
