data_PCOD9575615
_publ_section_title
;
Structure prediction by ZEFSAII (Michael W. Deem and Ramdas Pophale) SiO2 
 PCOD9575615
Probable space group: P 31 1 2
;
_chemical_formula_sum "Si O2"
_cell_formula_units_Z 39
_cell_length_a 11.339151
_cell_length_b 11.339151
_cell_length_c 17.514092
_cell_angle_alpha 90.000000
_cell_angle_beta 90.000000
_cell_angle_gamma 120.000000
_cell_volume 1950.200825
_symmetry_space_group_name_H-M "P 31 1 2"
_symmetry_group_IT_number 151
_symmetry_cell_setting 'hexagonal'
loop_
_space_group_symop_operation_xyz
x,y,z
-y,x-y,1/3+z
-x+y,-x,2/3+z
-y,-x,2/3-z
-x+y,y,1/3-z
x,x-y,-z
loop_
_atom_site_type_symbol
_atom_site_label
_atom_site_fract_x
_atom_site_fract_y
_atom_site_fract_z
Si Si1 0.840033 0.953339 0.142819
Si Si2 0.487439 0.520613 0.629525
Si Si3 0.521729 0.637438 0.465114
Si Si4 0.770110 0.107804 0.911409
Si Si5 0.236334 0.985791 0.026215
Si Si6 0.254808 0.029289 0.709858
Si Si7 0.314698 0.657349 0.000000
O O1 0.766508 0.802320 0.105922
O O2 0.759795 0.960443 0.217204
O O3 0.984968 0.969936 0.166667
O O4 0.885045 0.082801 0.087944
O O5 0.477539 0.543777 0.538955
O O6 0.431422 0.360959 0.629689
O O7 0.635698 0.614788 0.665511
O O8 0.404456 0.585350 0.669225
O O9 0.575815 0.787908 0.500000
O O10 0.645969 0.634884 0.423678
O O11 0.403924 0.617618 0.406187
O O12 0.805125 0.194876 0.833334
O O13 0.899414 0.201227 0.962762
O O14 0.125271 0.857305 0.978261
O O15 0.212766 0.106383 0.000000
#
# Coordination Sequence:
#
# PCOD9575615 Si02
#       7
#     6   6   6   6   6   6   3
#     4  11  21  34  65 100 127 163 211 284 342 391
#     4  11  26  42  62  97 135 180 219 276 342 413
#     4  10  21  38  65  93 126 170 219 268 328 406
#     4  11  25  41  64  96 132 174 222 276 345 400
#     4  12  21  39  67  96 134 165 224 279 338 405
#     4  12  20  40  63 100 126 163 226 283 339 404
#     4  10  22  38  64  94 128 164 214 266 334 404
#
# _framework density 19.997941000000001
#
# number of rings (size 3 to 8) (size 9 to 14) (size 15 to 20)
#    0.000    0.923    7.692    1.846    6.462    0.000 
#    0.000    2.308    0.000    0.000    0.000    0.000 
#    0.000    0.000    0.000    0.000    0.000    0.000 
#
# Total GULP energy -217543.892157 kJ/mol
# GULP energy per Si atom -5578.048517 kJ/mol
# Density = 1.995242 g / cm^3
# Si number density = 19.997941 Si / 1000 Ang^3
#
#
#
# Elastic Constant Matrix: (Units=GPa)
#
#
# Indices 1 2 3 4 5 6 
#
# 1 48.5612 13.2799 20.2946 -0.0001 -7.0752 0.0000
# 2 13.2799 48.5612 20.2946 0.0001 7.0752 0.0000
# 3 20.2946 20.2946 95.5414 0.0000 0.0000 0.0000
# 4 -0.0001 0.0001 0.0000 23.2443 0.0000 7.0752
# 5 -7.0752 7.0752 0.0000 0.0000 23.2443 -0.0001
# 6 0.0000 0.0000 0.0000 7.0752 -0.0001 17.6406
#
#
#
# Elastic Compliance Matrix: (Units=1/GPa)
#
#
# Indices 1 2 3 4 5 6 
#
# 1 0.025538 -0.006747 -0.003991 0.000000 0.009827 0.000000
# 2 -0.006747 0.025538 -0.003991 0.000000 -0.009827 0.000000
# 3 -0.003991 -0.003991 0.012162 0.000000 0.000000 0.000000
# 4 0.000000 0.000000 0.000000 0.049004 0.000000 -0.019654
# 5 0.009827 -0.009827 0.000000 0.000000 0.049004 0.000000
# 6 0.000000 0.000000 0.000000 -0.019654 0.000000 0.064570
#
#
# Mechanical properties :
#
#
# Convention : Reuss Voigt Hill
#
# Bulk Modulus (GPa) = 29.60568 33.37801 31.49184
# Shear Modulus (GPa) = 18.75928 22.07879 20.41904
#
# Velocity S-wave (km/s) = 3.06610 3.32633 3.19886
# Velocity P-wave (km/s) = 5.23174 5.61067 5.42452
#
# Compressibility (1/GPa) = 0.03377730
#
# Stress axis : x y z
#
# Youngs Moduli (GPa) = 39.15789 39.15789 82.22102
#
# Poissons Ratio (x) = 0.26421 0.32817
# Poissons Ratio (y) = 0.26421 0.32817
# Poissons Ratio (z) = 0.15629 0.15629
#
# Static dielectric constant tensor:
#      x y z
#    x 1.747450 0.000000 0.000000 
#    y 0.000000 1.747450 0.000000 
#    z 0.000000 0.000000 1.576700 
# 
# From -- ./inp_files/3512.got.cif
#   From: 2010.05.17/outbox.cif.g08.bks.cpg/sg151_2_cif.got.tgz:3512.got - 2010.05.20 10:33:20.
