data_PCOD9575325
_publ_section_title
;
Structure prediction by ZEFSAII (Michael W. Deem and Ramdas Pophale) SiO2 
 PCOD9575325
Probable space group: R -3
;
_chemical_formula_sum "Si O2"
_cell_formula_units_Z 60
_cell_length_a 19.360572
_cell_length_b 19.360572
_cell_length_c 7.710425
_cell_angle_alpha 90.000000
_cell_angle_beta 90.000000
_cell_angle_gamma 120.000000
_cell_volume 2502.910483
_symmetry_space_group_name_H-M "R -3"
_symmetry_group_IT_number 148
_symmetry_cell_setting 'hexagonal'
loop_
_space_group_symop_operation_xyz
x,y,z
-y,x-y,z
-x+y,-x,z
-x,-y,-z
y,-x+y,-z
x-y,x,-z
2/3+x,1/3+y,1/3+z
2/3-y,1/3+x-y,1/3+z
2/3-x+y,1/3-x,1/3+z
2/3-x,1/3-y,1/3-z
2/3+y,1/3-x+y,1/3-z
2/3+x-y,1/3+x,1/3-z
1/3+x,2/3+y,2/3+z
1/3-y,2/3+x-y,2/3+z
1/3-x+y,2/3-x,2/3+z
1/3-x,2/3-y,2/3-z
1/3+y,2/3-x+y,2/3-z
1/3+x-y,2/3+x,2/3-z
loop_
_atom_site_type_symbol
_atom_site_label
_atom_site_fract_x
_atom_site_fract_y
_atom_site_fract_z
Si Si1 0.143997 0.324340 0.629888
Si Si2 0.505729 0.280863 0.432136
Si Si3 0.957256 0.352648 0.848914
Si Si4 0.666667 0.333333 0.633860
O O1 0.165713 0.411171 0.553221
O O2 0.192746 0.293609 0.521054
O O3 0.051687 0.262829 0.598043
O O4 0.166667 0.333334 0.833334
O O5 0.541142 0.363219 0.324792
O O6 0.603444 0.243922 0.096530
O O7 0.968981 0.325118 0.658370
O O8 0.666668 0.333335 0.833334
#
# Coordination Sequence:
#
# PCOD9575325 Si02
#       4
#    18  18  18   6
#     4  12  26  48  77 108 156 197 253 316 376 455
#     4   9  20  42  73  99 141 194 241 303 372 437
#     4  12  26  51  78 111 152 204 254 316 386 447
#     4   9  19  44  67 108 148 188 247 306 376 443
#
# _framework density 23.972090999999999
#
# number of rings (size 3 to 8) (size 9 to 14) (size 15 to 20)
#    0.000    1.200    3.000    3.900    0.000    0.000 
#    5.400    0.000    0.000    0.600    0.000    0.000 
#    0.000    0.000    0.000    0.000    0.000    0.000 
#
# Total GULP energy -111858.335546 kJ/mol
# GULP energy per Si atom -5592.916777 kJ/mol
# Density = 2.391753 g / cm^3
# Si number density = 23.972091 Si / 1000 Ang^3
#
#
#
# Elastic Constant Matrix: (Units=GPa)
#
#
# Indices 1 2 3 4 5 6 
#
# 1 71.6864 41.1279 19.0182 -1.0872 -3.4169 0.0008
# 2 41.1279 71.6826 19.0096 1.0885 3.4211 0.0001
# 3 19.0182 19.0096 121.8155 -0.0011 0.0065 0.0050
# 4 -1.0872 1.0885 -0.0011 22.5202 0.0015 3.4237
# 5 -3.4169 3.4211 0.0065 0.0015 22.5269 -1.0862
# 6 0.0008 0.0001 0.0050 3.4237 -1.0862 15.2763
#
#
#
# Elastic Compliance Matrix: (Units=1/GPa)
#
#
# Indices 1 2 3 4 5 6 
#
# 1 0.021677 -0.012321 -0.001462 0.001642 0.005159 -0.000002
# 2 -0.012321 0.021677 -0.001459 -0.001643 -0.005160 0.000002
# 3 -0.001462 -0.001459 0.008665 0.000001 -0.000003 -0.000003
# 4 0.001642 -0.001643 0.000001 0.046135 -0.000003 -0.010340
# 5 0.005159 -0.005160 -0.000003 -0.000003 0.046116 0.003280
# 6 -0.000002 0.000002 -0.000003 -0.010340 0.003280 0.068011
#
#
# Mechanical properties :
#
#
# Convention : Reuss Voigt Hill
#
# Bulk Modulus (GPa) = 46.43300 47.05512 46.74406
# Shear Modulus (GPa) = 20.00454 24.46661 22.23558
#
# Velocity S-wave (km/s) = 2.89189 3.19819 3.04889
# Velocity P-wave (km/s) = 5.52833 5.77145 5.65120
#
# Compressibility (1/GPa) = 0.02153641
#
# Stress axis : x y z
#
# Youngs Moduli (GPa) = 46.13214 46.13083 115.40609
#
# Poissons Ratio (x) = 0.56836 0.16871
# Poissons Ratio (y) = 0.56838 0.16838
# Poissons Ratio (z) = 0.06744 0.06731
#
# Static dielectric constant tensor:
#      x y z
#    x 1.814660 -0.000010 0.000000 
#    y -0.000010 1.814670 0.000000 
#    z 0.000000 0.000000 1.960400 
# 
# From -- ./inp_files/769.got.cif
#   From: 2010.05.17/outbox.cif.g08.bks.cpg/sg148_1_cif.got.tgz:769.got - 2010.05.20 13:50:20.
