data_PCOD9575514
_publ_section_title
;
Structure prediction by ZEFSAII (Michael W. Deem and Ramdas Pophale) SiO2 
 PCOD9575514
Probable space group: P 31 1 2
;
_chemical_formula_sum "Si O2"
_cell_formula_units_Z 42
_cell_length_a 9.473328
_cell_length_b 9.473328
_cell_length_c 28.589861
_cell_angle_alpha 90.000000
_cell_angle_beta 90.000000
_cell_angle_gamma 120.000000
_cell_volume 2222.019287
_symmetry_space_group_name_H-M "P 31 1 2"
_symmetry_group_IT_number 151
_symmetry_cell_setting 'hexagonal'
loop_
_space_group_symop_operation_xyz
x,y,z
-y,x-y,1/3+z
-x+y,-x,2/3+z
-y,-x,2/3-z
-x+y,y,1/3-z
x,x-y,-z
loop_
_atom_site_type_symbol
_atom_site_label
_atom_site_fract_x
_atom_site_fract_y
_atom_site_fract_z
Si Si1 0.732315 0.352006 0.614307
Si Si2 0.876456 0.133562 0.041244
Si Si3 0.249694 0.579621 0.881598
Si Si4 0.690823 0.561523 0.212419
Si Si5 0.943216 0.867775 0.062297
Si Si6 0.532019 0.743832 0.365076
Si Si7 0.311816 0.970229 0.053768
O O1 0.666514 0.333028 0.666667
O O2 0.848798 0.274910 0.611388
O O3 0.580397 0.240618 0.581755
O O4 0.848655 0.542502 0.604315
O O5 0.043695 0.305427 0.043588
O O6 0.889181 0.999066 0.071462
O O7 0.864730 0.084748 0.986768
O O8 0.342289 0.657712 0.833334
O O9 0.283354 0.719279 0.920085
O O10 0.304770 0.462082 0.907330
O O11 0.052402 0.467277 0.874388
O O12 0.762623 0.525246 0.166667
O O13 0.832659 0.732237 0.232616
O O14 0.137555 0.960039 0.054628
O O15 0.414302 0.585699 0.333334
O O16 0.578257 0.896985 0.330812
#
# Coordination Sequence:
#
# PCOD9575514 Si02
#       7
#     6   6   6   6   6   6   6
#     4  12  23  38  62  97 123 155 198 268 315 360
#     4  10  18  35  66  87 120 149 206 245 309 358
#     4  10  21  41  65  84 120 171 209 247 301 378
#     4  11  24  43  61  89 128 170 205 254 319 378
#     4   9  20  40  60  88 117 164 198 249 300 378
#     4   9  17  36  63  91 119 159 201 254 312 372
#     4   9  22  37  62  89 123 152 202 261 312 352
#
# _framework density 18.901726
#
# number of rings (size 3 to 8) (size 9 to 14) (size 15 to 20)
#    0.000    2.000    2.857    1.286    4.000    2.857 
#    7.714    2.143    0.000    0.000    0.000    0.000 
#    0.000    0.000    0.000    0.000    0.000    0.000 
#
# Total GULP energy -234357.189872 kJ/mol
# GULP energy per Si atom -5579.933092 kJ/mol
# Density = 1.885870 g / cm^3
# Si number density = 18.901726 Si / 1000 Ang^3
#
#
#
# Elastic Constant Matrix: (Units=GPa)
#
#
# Indices 1 2 3 4 5 6 
#
# 1 70.4185 27.2937 30.2323 0.0027 -4.7570 0.0000
# 2 27.2937 70.4185 30.2323 -0.0027 4.7570 0.0000
# 3 30.2323 30.2323 99.7762 0.0000 0.0000 0.0000
# 4 0.0027 -0.0027 0.0000 15.4254 0.0000 4.7570
# 5 -4.7570 4.7570 0.0000 0.0000 15.4254 0.0027
# 6 0.0000 0.0000 0.0000 4.7570 0.0027 21.5624
#
#
#
# Elastic Compliance Matrix: (Units=1/GPa)
#
#
# Indices 1 2 3 4 5 6 
#
# 1 0.018739 -0.006143 -0.003817 -0.000004 0.007673 0.000000
# 2 -0.006143 0.018739 -0.003817 0.000004 -0.007673 0.000000
# 3 -0.003817 -0.003817 0.012335 0.000000 0.000000 0.000000
# 4 -0.000004 0.000004 0.000000 0.069561 0.000000 -0.015346
# 5 0.007673 -0.007673 0.000000 0.000000 0.069561 -0.000009
# 6 0.000000 0.000000 0.000000 -0.015346 -0.000009 0.049763
#
#
# Mechanical properties :
#
#
# Convention : Reuss Voigt Hill
#
# Bulk Modulus (GPa) = 44.92217 46.23665 45.57941
# Shear Modulus (GPa) = 18.27026 20.67296 19.47161
#
# Velocity S-wave (km/s) = 3.11238 3.31071 3.21308
# Velocity P-wave (km/s) = 6.06083 6.25533 6.15885
#
# Compressibility (1/GPa) = 0.02226072
#
# Stress axis : x y z
#
# Youngs Moduli (GPa) = 53.36589 53.36589 81.06834
#
# Poissons Ratio (x) = 0.32781 0.30940
# Poissons Ratio (y) = 0.32781 0.30940
# Poissons Ratio (z) = 0.20367 0.20367
#
# Static dielectric constant tensor:
#      x y z
#    x 1.609590 0.000000 0.000000 
#    y 0.000000 1.609590 0.000000 
#    z 0.000000 0.000000 1.859690 
# 
# From -- ./inp_files/5032.got.cif
#   From: 2010.05.17/outbox.cif.g08.bks.cpg/sg151_3_cif.got.tgz:5032.got - 2010.05.20 10:33:20.
