data_PCOD9575020
_publ_section_title
;
Structure prediction by ZEFSAII (Michael W. Deem and Ramdas Pophale) SiO2 
 PCOD9575020
Probable space group: R -3
;
_chemical_formula_sum "Si O2"
_cell_formula_units_Z 144
_cell_length_a 22.232059
_cell_length_b 22.232059
_cell_length_c 17.535774
_cell_angle_alpha 90.000000
_cell_angle_beta 90.000000
_cell_angle_gamma 120.000000
_cell_volume 7506.110335
_symmetry_space_group_name_H-M "R -3"
_symmetry_group_IT_number 148
_symmetry_cell_setting 'hexagonal'
loop_
_space_group_symop_operation_xyz
x,y,z
-y,x-y,z
-x+y,-x,z
-x,-y,-z
y,-x+y,-z
x-y,x,-z
2/3+x,1/3+y,1/3+z
2/3-y,1/3+x-y,1/3+z
2/3-x+y,1/3-x,1/3+z
2/3-x,1/3-y,1/3-z
2/3+y,1/3-x+y,1/3-z
2/3+x-y,1/3+x,1/3-z
1/3+x,2/3+y,2/3+z
1/3-y,2/3+x-y,2/3+z
1/3-x+y,2/3-x,2/3+z
1/3-x,2/3-y,2/3-z
1/3+y,2/3-x+y,2/3-z
1/3+x-y,2/3+x,2/3-z
loop_
_atom_site_type_symbol
_atom_site_label
_atom_site_fract_x
_atom_site_fract_y
_atom_site_fract_z
Si Si1 0.524730 0.318303 0.807878
Si Si2 0.967244 0.738872 0.574030
Si Si3 0.438571 0.242124 0.670166
Si Si4 0.705648 0.929864 0.119552
Si Si5 0.664007 0.193279 0.423927
Si Si6 0.470653 0.803135 0.574353
Si Si7 0.371030 0.009178 0.963665
Si Si8 0.066187 0.486286 0.850754
O O1 0.593393 0.392096 0.816638
O O2 0.465100 0.325550 0.853716
O O3 0.505788 0.295199 0.719639
O O4 0.900346 0.741165 0.608430
O O5 0.938722 0.671918 0.521867
O O6 0.001664 0.723857 0.646724
O O7 0.393704 0.280122 0.667993
O O8 0.435588 0.208968 0.587449
O O9 0.698710 0.853689 0.129240
O O10 0.787621 0.981843 0.122811
O O11 0.671561 0.951150 0.050918
O O12 0.590814 0.183282 0.448428
O O13 0.724449 0.271454 0.442493
O O14 0.664782 0.187095 0.332112
O O15 0.541512 0.850270 0.530845
O O16 0.393932 0.981908 0.889217
#
# Coordination Sequence:
#
# PCOD9575020 Si02
#       8
#    18  18  18  18  18  18  18  18
#     4  10  21  37  59  86 117 154 198 248 297 345
#     4  10  19  35  55  81 111 154 195 234 290 351
#     4  10  18  35  60  83 111 150 204 238 281 354
#     4  11  20  33  57  85 110 145 195 242 285 342
#     4   9  19  35  59  87 109 148 194 232 290 355
#     4   9  18  37  59  81 116 146 187 243 287 345
#     4  11  20  34  58  80 116 152 195 245 284 347
#     4  10  20  37  58  84 115 155 198 239 290 348
#
# _framework density 19.184370000000001
#
# number of rings (size 3 to 8) (size 9 to 14) (size 15 to 20)
#    0.000    2.000    3.750    1.125    0.000    2.000 
#    0.000    9.375    0.000    0.000    0.000    0.000 
#    0.000    0.000    0.000    0.000    0.000    0.000 
#
# Total GULP energy -267296.136897 kJ/mol
# GULP energy per Si atom -5568.669519 kJ/mol
# Density = 1.914071 g / cm^3
# Si number density = 19.184370 Si / 1000 Ang^3
#
#
#
# Elastic Constant Matrix: (Units=GPa)
#
#
# Indices 1 2 3 4 5 6 
#
# 1 82.6351 35.8418 26.4161 -6.0492 -0.9189 0.0000
# 2 35.8418 82.6351 26.4161 6.0492 0.9189 0.0000
# 3 26.4161 26.4161 30.1913 0.0000 0.0000 0.0000
# 4 -6.0492 6.0492 0.0000 26.2102 0.0000 0.9189
# 5 -0.9189 0.9189 0.0000 0.0000 26.2102 -6.0492
# 6 0.0000 0.0000 0.0000 0.9189 -6.0492 23.3967
#
#
#
# Elastic Compliance Matrix: (Units=1/GPa)
#
#
# Indices 1 2 3 4 5 6 
#
# 1 0.018300 -0.004460 -0.012110 0.005253 0.000798 0.000000
# 2 -0.004460 0.018300 -0.012110 -0.005253 -0.000798 0.000000
# 3 -0.012110 -0.012110 0.054314 0.000000 0.000000 0.000000
# 4 0.005253 -0.005253 0.000000 0.040634 0.000000 -0.001596
# 5 0.000798 -0.000798 0.000000 0.000000 0.040634 0.010506
# 6 0.000000 0.000000 0.000000 -0.001596 0.010506 0.045520
#
#
# Mechanical properties :
#
#
# Convention : Reuss Voigt Hill
#
# Bulk Modulus (GPa) = 29.80184 41.42327 35.61256
# Shear Modulus (GPa) = 17.46748 22.28260 19.87504
#
# Velocity S-wave (km/s) = 3.02073 3.41177 3.22219
# Velocity P-wave (km/s) = 5.26636 6.09585 5.69622
#
# Compressibility (1/GPa) = 0.03355497
#
# Stress axis : x y z
#
# Youngs Moduli (GPa) = 54.64378 54.64378 18.41159
#
# Poissons Ratio (x) = 0.24369 0.22296
# Poissons Ratio (y) = 0.24369 0.22296
# Poissons Ratio (z) = 0.66174 0.66174
#
# Static dielectric constant tensor:
#      x y z
#    x 1.684480 0.000000 0.000000 
#    y 0.000000 1.684480 0.000000 
#    z 0.000000 0.000000 1.742400 
# 
# From -- ./inp_files/3162.got.cif
#   From: 2010.05.17/outbox.cif.g08.bks.cpg/sg148_2_cif.got.tgz:3162.got - 2010.05.20 13:50:20.
