data_PCOD9575632
_publ_section_title
;
Structure prediction by ZEFSAII (Michael W. Deem and Ramdas Pophale) SiO2 
 PCOD9575632
Probable space group: P 31 1 2
;
_chemical_formula_sum "Si O2"
_cell_formula_units_Z 39
_cell_length_a 8.453996
_cell_length_b 8.453996
_cell_length_c 30.277019
_cell_angle_alpha 90.000000
_cell_angle_beta 90.000000
_cell_angle_gamma 120.000000
_cell_volume 1873.992382
_symmetry_space_group_name_H-M "P 31 1 2"
_symmetry_group_IT_number 151
_symmetry_cell_setting 'hexagonal'
loop_
_space_group_symop_operation_xyz
x,y,z
-y,x-y,1/3+z
-x+y,-x,2/3+z
-y,-x,2/3-z
-x+y,y,1/3-z
x,x-y,-z
loop_
_atom_site_type_symbol
_atom_site_label
_atom_site_fract_x
_atom_site_fract_y
_atom_site_fract_z
Si Si1 0.812493 0.624986 0.666667
Si Si2 0.518862 0.259431 0.500000
Si Si3 0.435269 0.922480 0.945496
Si Si4 0.280471 0.920107 0.150068
Si Si5 0.766301 0.993954 0.899393
Si Si6 0.721587 0.838867 0.272507
Si Si7 0.146933 0.573467 0.000000
Si Si8 0.978165 0.670505 0.813068
O O1 0.627523 0.520979 0.638330
O O2 0.762959 0.745604 0.699364
O O3 0.397899 0.229168 0.543232
O O4 0.617691 0.138885 0.506534
O O5 0.614145 0.908674 0.936885
O O6 0.371576 0.942654 0.897007
O O7 0.279672 0.743914 0.968951
O O8 0.467268 0.934535 0.166667
O O9 0.143418 0.855655 0.191665
O O10 0.207667 0.806176 0.104856
O O11 0.294741 0.108472 0.135451
O O12 0.961324 0.081629 0.921915
O O13 0.609629 0.659102 0.303429
O O14 0.149838 0.850163 0.833334
#
# Coordination Sequence:
#
# PCOD9575632 Si02
#       8
#     3   3   6   6   6   6   3   6
#     4  10  22  42  64  80 130 178 216 254 316 402
#     4  10  22  40  58 102 126 162 208 274 348 402
#     4  10  23  41  62  92 124 173 213 270 323 400
#     4  12  23  41  68  99 128 171 216 286 341 402
#     4  11  23  40  67  95 131 158 217 282 339 388
#     4  11  22  42  62  93 130 172 221 263 326 404
#     4  10  24  40  62  90 128 180 222 258 324 394
#     4  11  23  39  67  96 131 169 219 276 346 403
#
# _framework density 20.811181999999999
#
# number of rings (size 3 to 8) (size 9 to 14) (size 15 to 20)
#    0.000    1.231    3.846    1.846    2.154    3.692 
#    0.000    0.000    0.000    0.000    0.000    0.000 
#    0.000    0.000    0.000    0.000    0.000    0.000 
#
# Total GULP energy -217392.049901 kJ/mol
# GULP energy per Si atom -5574.155126 kJ/mol
# Density = 2.076382 g / cm^3
# Si number density = 20.811182 Si / 1000 Ang^3
#
#
#
# Elastic Constant Matrix: (Units=GPa)
#
#
# Indices 1 2 3 4 5 6 
#
# 1 62.8572 18.0998 19.9038 0.0012 4.3361 0.0000
# 2 18.0998 62.8572 19.9038 -0.0012 -4.3361 0.0000
# 3 19.9038 19.9038 69.8479 0.0000 0.0000 0.0000
# 4 0.0012 -0.0012 0.0000 32.3156 0.0000 -4.3361
# 5 4.3361 -4.3361 0.0000 0.0000 32.3156 0.0012
# 6 0.0000 0.0000 0.0000 -4.3361 0.0012 22.3787
#
#
#
# Elastic Compliance Matrix: (Units=1/GPa)
#
#
# Indices 1 2 3 4 5 6 
#
# 1 0.018652 -0.004287 -0.004093 -0.000001 -0.003078 0.000000
# 2 -0.004287 0.018652 -0.004093 0.000001 0.003078 0.000000
# 3 -0.004093 -0.004093 0.016650 0.000000 0.000000 0.000000
# 4 -0.000001 0.000001 0.000000 0.031771 0.000000 0.006156
# 5 -0.003078 0.003078 0.000000 0.000000 0.031771 -0.000002
# 6 0.000000 0.000000 0.000000 0.006156 -0.000002 0.045878
#
#
# Mechanical properties :
#
#
# Convention : Reuss Voigt Hill
#
# Bulk Modulus (GPa) = 34.47561 34.59748 34.53654
# Shear Modulus (GPa) = 25.25378 26.57897 25.91638
#
# Velocity S-wave (km/s) = 3.48727 3.57760 3.53272
# Velocity P-wave (km/s) = 5.72858 5.80742 5.76814
#
# Compressibility (1/GPa) = 0.02900602
#
# Stress axis : x y z
#
# Youngs Moduli (GPa) = 53.61340 53.61340 60.06093
#
# Poissons Ratio (x) = 0.22984 0.24586
# Poissons Ratio (y) = 0.22984 0.24586
# Poissons Ratio (z) = 0.21946 0.21946
#
# Static dielectric constant tensor:
#      x y z
#    x 1.799700 0.000000 0.000000 
#    y 0.000000 1.799700 0.000000 
#    z 0.000000 0.000000 1.738020 
# 
# From -- ./inp_files/4997.got.cif
#   From: 2010.05.17/outbox.cif.g08.bks.cpg/sg151_3_cif.got.tgz:4997.got - 2010.05.20 10:33:20.
