data_PCOD9575469
_publ_section_title
;
Structure prediction by ZEFSAII (Michael W. Deem and Ramdas Pophale) SiO2 
 PCOD9575469
Probable space group: P 3 2 1
;
_chemical_formula_sum "Si O2"
_cell_formula_units_Z 21
_cell_length_a 12.624824
_cell_length_b 12.624824
_cell_length_c 6.680786
_cell_angle_alpha 90.000000
_cell_angle_beta 90.000000
_cell_angle_gamma 120.000000
_cell_volume 922.165472
_symmetry_space_group_name_H-M "P 3 2 1"
_symmetry_group_IT_number 150
_symmetry_cell_setting 'hexagonal'
loop_
_space_group_symop_operation_xyz
x,y,z
-y,x-y,z
-x+y,-x,z
x-y,-y,-z
-x,-x+y,-z
y,x,-z
loop_
_atom_site_type_symbol
_atom_site_label
_atom_site_fract_x
_atom_site_fract_y
_atom_site_fract_z
Si Si1 0.000000 0.202940 0.500000
Si Si2 0.585506 0.728054 0.178205
Si Si3 0.062282 0.599660 0.287554
Si Si4 0.089465 0.820343 0.839650
O O1 0.070556 0.308554 0.338423
O O2 0.101586 0.202687 0.644766
O O3 0.499008 0.583438 0.174179
O O4 0.523655 0.803399 0.270210
O O5 0.642940 0.786922 0.962385
O O6 0.026810 0.676045 0.789038
O O7 0.000000 0.541340 0.500000
O O8 0.000000 0.829451 0.000000
#
# Coordination Sequence:
#
# PCOD9575469 Si02
#       4
#     3   6   6   6
#     4  12  22  42  74 104 148 190 256 308 390 454
#     4  11  24  43  73 111 151 203 253 317 387 470
#     4  11  22  47  75 110 157 198 254 324 388 458
#     4  10  25  44  72 109 149 200 253 316 392 457
#
# _framework density 22.772487000000002
#
# number of rings (size 3 to 8) (size 9 to 14) (size 15 to 20)
#    0.000    1.143    4.286    1.429    0.000    6.857 
#    0.000    0.000    0.000   77.714    0.000    0.000 
#    0.000    0.000    0.000    0.000    0.000    0.000 
#
# Total GULP energy -117234.769389 kJ/mol
# GULP energy per Si atom -5582.608066 kJ/mol
# Density = 2.272066 g / cm^3
# Si number density = 22.772487 Si / 1000 Ang^3
#
#
#
# Elastic Constant Matrix: (Units=GPa)
#
#
# Indices 1 2 3 4 5 6 
#
# 1 139.2167 59.0526 92.6317 20.2797 0.0000 0.0000
# 2 59.0526 139.2167 92.6317 -20.2797 0.0000 0.0000
# 3 92.6317 92.6317 130.8476 0.0000 0.0000 0.0000
# 4 20.2797 -20.2797 0.0000 38.2384 0.0000 0.0000
# 5 0.0000 0.0000 0.0000 0.0000 38.2384 20.2797
# 6 0.0000 0.0000 0.0000 0.0000 20.2797 40.0820
#
#
#
# Elastic Compliance Matrix: (Units=1/GPa)
#
#
# Indices 1 2 3 4 5 6 
#
# 1 0.015975 -0.001075 -0.010548 -0.009042 0.000000 0.000000
# 2 -0.001075 0.015975 -0.010548 0.009042 0.000000 0.000000
# 3 -0.010548 -0.010548 0.022577 0.000000 0.000000 0.000000
# 4 -0.009042 0.009042 0.000000 0.035743 0.000000 0.000000
# 5 0.000000 0.000000 0.000000 0.000000 0.035743 -0.018084
# 6 0.000000 0.000000 0.000000 0.000000 -0.018084 0.034099
#
#
# Mechanical properties :
#
#
# Convention : Reuss Voigt Hill
#
# Bulk Modulus (GPa) = 98.18900 99.76811 98.97856
# Shear Modulus (GPa) = 24.05614 34.30945 29.18280
#
# Velocity S-wave (km/s) = 3.25371 3.88573 3.58368
# Velocity P-wave (km/s) = 7.57143 8.00236 7.78987
#
# Compressibility (1/GPa) = 0.01018444
#
# Stress axis : x y z
#
# Youngs Moduli (GPa) = 62.59945 62.59945 44.29232
#
# Poissons Ratio (x) = 0.06728 0.46720
# Poissons Ratio (y) = 0.06728 0.46720
# Poissons Ratio (z) = 0.66031 0.66031
#
# Static dielectric constant tensor:
#      x y z
#    x 1.898110 0.000000 0.000000 
#    y 0.000000 1.898110 0.000000 
#    z 0.000000 0.000000 1.862140 
# 
# From -- ./inp_files/140.got.cif
#   From: 2010.05.17/outbox.cif.g08.bks.cpg/sg150_cif.got.tgz:140.got - 2010.05.20 13:53:18.
