data_PCOD9575823
_publ_section_title
;
Structure prediction by ZEFSAII (Michael W. Deem and Ramdas Pophale) SiO2 
 PCOD9575823
Probable space group: P 31 2 1
;
_chemical_formula_sum "Si O2"
_cell_formula_units_Z 33
_cell_length_a 19.824836
_cell_length_b 19.824836
_cell_length_c 5.408969
_cell_angle_alpha 90.000000
_cell_angle_beta 90.000000
_cell_angle_gamma 120.000000
_cell_volume 1841.044690
_symmetry_space_group_name_H-M "P 31 2 1"
_symmetry_group_IT_number 152
_symmetry_cell_setting 'hexagonal'
loop_
_space_group_symop_operation_xyz
x,y,z
-y,x-y,1/3+z
-x+y,-x,2/3+z
x-y,-y,2/3-z
-x,-x+y,1/3-z
y,x,-z
loop_
_atom_site_type_symbol
_atom_site_label
_atom_site_fract_x
_atom_site_fract_y
_atom_site_fract_z
Si Si1 0.556895 0.000000 0.833334
Si Si2 0.691435 0.279015 0.286343
Si Si3 0.542249 0.416485 0.152686
Si Si4 0.581626 0.756681 0.531573
Si Si5 0.695135 0.077314 0.218561
Si Si6 0.668771 0.577206 0.963268
O O1 0.583489 0.949422 0.671639
O O2 0.542049 0.064563 0.704801
O O3 0.730398 0.362991 0.405559
O O4 0.637958 0.218312 0.501237
O O5 0.755072 0.261404 0.176937
O O6 0.454744 0.351853 0.072167
O O7 0.596865 0.487573 0.971369
O O8 0.630056 0.850889 0.512097
O O9 0.595675 0.715738 0.294199
O O10 0.586369 0.722354 0.796690
O O11 0.690012 0.000000 0.333334
O O12 0.632460 0.632460 0.000000
#
# Coordination Sequence:
#
# PCOD9575823 Si02
#       6
#     3   6   6   6   6   6
#     4  10  20  34  60  78 106 148 196 242 292 346
#     4  11  22  37  54  78 110 147 193 262 310 338
#     4  10  22  35  55  77 107 151 198 245 294 348
#     4  11  26  39  60  84 112 150 199 237 296 346
#     4   9  21  38  59  83 110 144 193 248 294 342
#     4  12  25  42  57  81 114 156 194 234 286 355
#
# _framework density 17.924603999999999
#
# number of rings (size 3 to 8) (size 9 to 14) (size 15 to 20)
#    0.000    1.455    1.818    3.273   12.727    1.455 
#    0.000    0.000    0.000    0.000    0.000    0.000 
#    0.000    0.000    0.000    8.182    0.727    0.000 
#
# Total GULP energy -184032.059945 kJ/mol
# GULP energy per Si atom -5576.729089 kJ/mol
# Density = 1.788381 g / cm^3
# Si number density = 17.924604 Si / 1000 Ang^3
#
#
#
# Elastic Constant Matrix: (Units=GPa)
#
#
# Indices 1 2 3 4 5 6 
#
# 1 50.2815 35.0093 6.4829 -5.5570 0.0000 0.0000
# 2 35.0093 50.2815 6.4829 5.5570 0.0000 0.0000
# 3 6.4829 6.4829 56.5463 0.0000 0.0000 0.0000
# 4 -5.5570 5.5570 0.0000 15.7276 0.0000 0.0000
# 5 0.0000 0.0000 0.0000 0.0000 15.7276 -5.5570
# 6 0.0000 0.0000 0.0000 0.0000 -5.5570 7.6361
#
#
#
# Elastic Compliance Matrix: (Units=1/GPa)
#
#
# Indices 1 2 3 4 5 6 
#
# 1 0.050037 -0.038105 -0.001368 0.031143 0.000000 0.000000
# 2 -0.038105 0.050037 -0.001368 -0.031143 0.000000 0.000000
# 3 -0.001368 -0.001368 0.017998 0.000000 0.000000 0.000000
# 4 0.031143 -0.031143 0.000000 0.085590 0.000000 0.000000
# 5 0.000000 0.000000 0.000000 0.000000 0.085590 0.062285
# 6 0.000000 0.000000 0.000000 0.000000 0.062285 0.176283
#
#
# Mechanical properties :
#
#
# Convention : Reuss Voigt Hill
#
# Bulk Modulus (GPa) = 27.47911 28.11771 27.79841
# Shear Modulus (GPa) = 8.93901 15.09387 12.01644
#
# Velocity S-wave (km/s) = 2.23558 2.90500 2.59199
# Velocity P-wave (km/s) = 4.69334 5.19353 4.94976
#
# Compressibility (1/GPa) = 0.03639129
#
# Stress axis : x y z
#
# Youngs Moduli (GPa) = 19.98518 19.98518 55.56080
#
# Poissons Ratio (x) = 0.76153 0.07601
# Poissons Ratio (y) = 0.76153 0.07601
# Poissons Ratio (z) = 0.02734 0.02734
#
# Static dielectric constant tensor:
#      x y z
#    x 1.650160 0.000000 0.000000 
#    y 0.000000 1.650160 0.000000 
#    z 0.000000 0.000000 1.666470 
# 
# From -- ./inp_files/443.got.cif
#   From: 2010.05.17/outbox.cif.g08.bks.cpg/sg152_1_cif.got.tgz:443.got - 2010.05.20 10:36:06.
