data_PCOD9575236
_publ_section_title
;
Structure prediction by ZEFSAII (Michael W. Deem and Ramdas Pophale) SiO2 
 PCOD9575236
Probable space group: R -3
;
_chemical_formula_sum "Si O2"
_cell_formula_units_Z 108
_cell_length_a 24.483040
_cell_length_b 24.483040
_cell_length_c 11.463792
_cell_angle_alpha 90.000000
_cell_angle_beta 90.000000
_cell_angle_gamma 120.000000
_cell_volume 5950.995386
_symmetry_space_group_name_H-M "R -3"
_symmetry_group_IT_number 148
_symmetry_cell_setting 'hexagonal'
loop_
_space_group_symop_operation_xyz
x,y,z
-y,x-y,z
-x+y,-x,z
-x,-y,-z
y,-x+y,-z
x-y,x,-z
2/3+x,1/3+y,1/3+z
2/3-y,1/3+x-y,1/3+z
2/3-x+y,1/3-x,1/3+z
2/3-x,1/3-y,1/3-z
2/3+y,1/3-x+y,1/3-z
2/3+x-y,1/3+x,1/3-z
1/3+x,2/3+y,2/3+z
1/3-y,2/3+x-y,2/3+z
1/3-x+y,2/3-x,2/3+z
1/3-x,2/3-y,2/3-z
1/3+y,2/3-x+y,2/3-z
1/3+x-y,2/3+x,2/3-z
loop_
_atom_site_type_symbol
_atom_site_label
_atom_site_fract_x
_atom_site_fract_y
_atom_site_fract_z
Si Si1 0.414010 0.701307 0.337299
Si Si2 0.985788 0.422049 0.816887
Si Si3 0.037127 0.909747 0.066220
Si Si4 0.226126 0.450470 0.255056
Si Si5 0.033418 0.414538 0.074823
Si Si6 0.596994 0.768225 0.516125
O O1 0.371936 0.734410 0.318500
O O2 0.435563 0.707518 0.471913
O O3 0.475367 0.731185 0.259001
O O4 0.920623 0.422394 0.834604
O O5 0.970653 0.358607 0.750880
O O6 0.034276 0.492590 0.772154
O O7 0.009474 0.415981 0.945151
O O8 0.058269 0.857451 0.078234
O O9 0.967436 0.882199 0.014927
O O10 0.275409 0.426230 0.234947
O O11 0.197535 0.425597 0.384720
O O12 0.979516 0.409842 0.163735
#
# Coordination Sequence:
#
# PCOD9575236 Si02
#       6
#    18  18  18  18  18  18
#     4   9  16  28  44  67 102 130 157 191 243 294
#     4   9  17  33  53  70  93 126 168 205 247 293
#     4  11  17  28  47  73 103 134 166 196 238 308
#     4   8  16  32  47  66  90 130 160 194 236 289
#     4   9  17  33  53  70  93 126 168 205 247 293
#     4   8  18  31  47  69  94 129 168 199 237 289
#
# _framework density 18.148223999999999
#
# number of rings (size 3 to 8) (size 9 to 14) (size 15 to 20)
#    0.333    2.667    1.667    2.167    0.000    1.333 
#    6.000    0.000    0.000    1.000    0.000   12.833 
#    0.000    0.000    0.000    0.000    0.000    0.000 
#
# Total GULP energy -200446.226499 kJ/mol
# GULP energy per Si atom -5567.950736 kJ/mol
# Density = 1.810692 g / cm^3
# Si number density = 18.148224 Si / 1000 Ang^3
#
#
#
# Elastic Constant Matrix: (Units=GPa)
#
#
# Indices 1 2 3 4 5 6 
#
# 1 47.0834 -6.6653 -5.3644 -11.5619 0.1263 0.0000
# 2 -6.6653 47.0835 -5.3643 11.5618 -0.1265 0.0000
# 3 -5.3644 -5.3643 19.7499 0.0000 -0.0001 0.0001
# 4 -11.5619 11.5618 0.0000 14.5947 0.0000 -0.1264
# 5 0.1263 -0.1265 -0.0001 0.0000 14.5946 -11.5618
# 6 0.0000 0.0000 0.0001 -0.1264 -11.5618 26.8744
#
#
#
# Elastic Compliance Matrix: (Units=1/GPa)
#
#
# Indices 1 2 3 4 5 6 
#
# 1 0.027445 -0.000781 0.007242 0.022361 -0.000244 0.000000
# 2 -0.000781 0.027445 0.007242 -0.022361 0.000245 0.000000
# 3 0.007242 0.007242 0.054567 0.000000 0.000001 0.000000
# 4 0.022361 -0.022361 0.000000 0.103950 0.000000 0.000489
# 5 -0.000244 0.000245 0.000001 0.000000 0.103951 0.044721
# 6 0.000000 0.000000 0.000000 0.000489 0.044721 0.056452
#
#
# Mechanical properties :
#
#
# Convention : Reuss Voigt Hill
#
# Bulk Modulus (GPa) = 7.30655 8.79212 8.04933
# Shear Modulus (GPa) = 12.75427 19.96678 16.36052
#
# Velocity S-wave (km/s) = 2.65388 3.32053 3.00575
# Velocity P-wave (km/s) = 3.66409 4.42226 4.06091
#
# Compressibility (1/GPa) = 0.13686351
#
# Stress axis : x y z
#
# Youngs Moduli (GPa) = 36.43649 36.43671 18.32597
#
# Poissons Ratio (x) = 0.02847 -0.13272
# Poissons Ratio (y) = 0.02847 -0.13272
# Poissons Ratio (z) = -0.26388 -0.26388
#
# Static dielectric constant tensor:
#      x y z
#    x 1.634910 0.000000 0.000000 
#    y 0.000000 1.634910 0.000000 
#    z 0.000000 0.000000 1.611800 
# 
# From -- ./inp_files/1535.got.cif
#   From: 2010.05.17/outbox.cif.g08.bks.cpg/sg148_1_cif.got.tgz:1535.got - 2010.05.20 13:50:20.
