data_PCOD9575129
_publ_section_title
;
Structure prediction by ZEFSAII (Michael W. Deem and Ramdas Pophale) SiO2 
 PCOD9575129
Probable space group: R -3
;
_chemical_formula_sum "Si O2"
_cell_formula_units_Z 108
_cell_length_a 21.448105
_cell_length_b 21.448105
_cell_length_c 11.518306
_cell_angle_alpha 90.000000
_cell_angle_beta 90.000000
_cell_angle_gamma 120.000000
_cell_volume 4588.778532
_symmetry_space_group_name_H-M "R -3"
_symmetry_group_IT_number 148
_symmetry_cell_setting 'hexagonal'
loop_
_space_group_symop_operation_xyz
x,y,z
-y,x-y,z
-x+y,-x,z
-x,-y,-z
y,-x+y,-z
x-y,x,-z
2/3+x,1/3+y,1/3+z
2/3-y,1/3+x-y,1/3+z
2/3-x+y,1/3-x,1/3+z
2/3-x,1/3-y,1/3-z
2/3+y,1/3-x+y,1/3-z
2/3+x-y,1/3+x,1/3-z
1/3+x,2/3+y,2/3+z
1/3-y,2/3+x-y,2/3+z
1/3-x+y,2/3-x,2/3+z
1/3-x,2/3-y,2/3-z
1/3+y,2/3-x+y,2/3-z
1/3+x-y,2/3+x,2/3-z
loop_
_atom_site_type_symbol
_atom_site_label
_atom_site_fract_x
_atom_site_fract_y
_atom_site_fract_z
Si Si1 0.421639 0.583681 0.679038
Si Si2 0.012963 0.710856 0.956152
Si Si3 0.545569 0.129306 0.064486
Si Si4 0.897052 0.619078 0.779402
Si Si5 0.992746 0.862595 0.547357
Si Si6 0.246709 0.197406 0.160983
O O1 0.336467 0.547050 0.663388
O O2 0.442009 0.564537 0.803753
O O3 0.458524 0.565200 0.573223
O O4 0.086586 0.745153 0.882238
O O5 0.939996 0.676911 0.880488
O O6 0.020239 0.647611 0.018833
O O7 0.005228 0.755045 0.060646
O O8 0.484523 0.152233 0.083393
O O9 0.506323 0.066746 0.966521
O O10 0.620551 0.183311 0.003961
O O11 0.868636 0.541872 0.843169
O O12 0.935691 0.867320 0.461871
#
# Coordination Sequence:
#
# PCOD9575129 Si02
#       6
#    18  18  18  18  18  18
#     4  10  21  38  58  84 118 160 210 262 317 380
#     4   9  18  37  60  81 123 169 201 259 324 365
#     4   9  20  37  57  83 119 155 201 260 304 369
#     4   9  19  37  61  90 122 161 210 257 311 384
#     4  10  21  38  60  92 128 163 207 261 316 370
#     4   9  19  37  59  88 121 162 214 261 312 388
#
# _framework density 23.535675000000001
#
# number of rings (size 3 to 8) (size 9 to 14) (size 15 to 20)
#    0.000    2.667    0.000    0.333    0.000    9.333 
#    0.000   34.167    0.000    0.000    0.000    0.000 
#    0.000    0.000    0.000    0.000    0.000    0.000 
#
# Total GULP energy -200411.727375 kJ/mol
# GULP energy per Si atom -5566.992427 kJ/mol
# Density = 2.348211 g / cm^3
# Si number density = 23.535675 Si / 1000 Ang^3
#
#
#
# Elastic Constant Matrix: (Units=GPa)
#
#
# Indices 1 2 3 4 5 6 
#
# 1 -29.4226 168.3449 29.5155 5.5803 10.2968 0.0000
# 2 168.3449 -29.4226 29.5156 -5.5803 -10.2968 0.0000
# 3 29.5155 29.5156 104.4764 0.0000 0.0000 0.0000
# 4 5.5803 -5.5803 0.0000 31.6909 0.0000 -10.2969
# 5 10.2968 -10.2968 0.0000 0.0000 31.6909 5.5803
# 6 0.0000 0.0000 0.0000 -10.2969 5.5803 -98.8837
#
#
#
# Elastic Compliance Matrix: (Units=1/GPa)
#
#
# Indices 1 2 3 4 5 6 
#
# 1 0.001668 0.006512 -0.002311 0.000853 0.001574 0.000000
# 2 0.006512 0.001668 -0.002311 -0.000853 -0.001574 0.000000
# 3 -0.002311 -0.002311 0.010877 0.000000 0.000000 0.000000
# 4 0.000853 -0.000853 0.000000 0.030232 0.000000 -0.003148
# 5 0.001574 -0.001574 0.000000 0.000000 0.030232 0.001706
# 6 0.000000 0.000000 0.000000 -0.003148 0.001706 -0.009689
#
#
# Mechanical properties :
#
#
# Convention : Reuss Voigt Hill
#
# Bulk Modulus (GPa) = 55.57464 55.59814 55.58639
# Shear Modulus (GPa) = 74.39947 -19.21670 27.59138
#
# Velocity S-wave (km/s) = 5.62850 -2.86053 3.42763
# Velocity P-wave (km/s) = 8.11814 3.57267 6.27169
#
# Compressibility (1/GPa) = 0.01799382
#
# Stress axis : x y z
#
# Youngs Moduli (GPa) = 599.54451 599.54512 91.93458
#
# Poissons Ratio (x) = -3.90444 0.21246
# Poissons Ratio (y) = -3.90443 0.21246
# Poissons Ratio (z) = 1.38555 1.38555
#
# Static dielectric constant tensor:
#      x y z
#    x 1.904510 0.000000 0.000000 
#    y 0.000000 1.904510 0.000000 
#    z 0.000000 0.000000 1.943350 
# 
# From -- ./inp_files/1572.got.cif
#   From: 2010.05.17/outbox.cif.g08.bks.cpg/sg148_1_cif.got.tgz:1572.got - 2010.05.20 13:50:20.
