data_PCOD9575891
_publ_section_title
;
Structure prediction by ZEFSAII (Michael W. Deem and Ramdas Pophale) SiO2 
 PCOD9575891
Probable space group: P 31 2 1
;
_chemical_formula_sum "Si O2"
_cell_formula_units_Z 48
_cell_length_a 16.112238
_cell_length_b 16.112238
_cell_length_c 11.046654
_cell_angle_alpha 90.000000
_cell_angle_beta 90.000000
_cell_angle_gamma 120.000000
_cell_volume 2483.551212
_symmetry_space_group_name_H-M "P 31 2 1"
_symmetry_group_IT_number 152
_symmetry_cell_setting 'hexagonal'
loop_
_space_group_symop_operation_xyz
x,y,z
-y,x-y,1/3+z
-x+y,-x,2/3+z
x-y,-y,2/3-z
-x,-x+y,1/3-z
y,x,-z
loop_
_atom_site_type_symbol
_atom_site_label
_atom_site_fract_x
_atom_site_fract_y
_atom_site_fract_z
Si Si1 0.271922 0.305626 0.368413
Si Si2 0.675769 0.561897 0.018038
Si Si3 0.899682 0.828037 0.394740
Si Si4 0.483739 0.265397 0.549071
Si Si5 0.458051 0.794286 0.314079
Si Si6 0.369678 0.229767 0.190448
Si Si7 0.283376 0.603914 0.219763
Si Si8 0.915713 0.071449 0.447875
O O1 0.254610 0.254610 0.500000
O O2 0.175265 0.263685 0.288514
O O3 0.299265 0.412452 0.401976
O O4 0.347130 0.288976 0.291309
O O5 0.733873 0.568402 0.141823
O O6 0.593195 0.450947 0.008919
O O7 0.630755 0.630755 0.000000
O O8 0.756399 0.584975 0.918116
O O9 0.830164 0.830164 0.500000
O O10 0.870861 0.851799 0.266563
O O11 0.005824 0.908782 0.439146
O O12 0.566455 0.350189 0.469201
O O13 0.542187 0.255369 0.659867
O O14 0.559094 0.853347 0.248035
O O15 0.387208 0.699701 0.235661
O O16 0.457286 0.747649 0.443170
O O17 0.266716 0.151194 0.140284
O O18 0.872086 0.000000 0.333334
#
# Coordination Sequence:
#
# PCOD9575891 Si02
#       8
#     6   6   6   6   6   6   6   6
#     4  11  23  38  61  94 128 173 212 261 329 378
#     4  11  24  39  63  96 125 167 215 268 315 378
#     4   9  20  37  56  84 121 166 212 264 307 371
#     4  10  22  41  66  92 129 167 217 258 322 389
#     4  10  20  41  66  91 124 164 213 261 323 385
#     4  11  23  40  65  93 132 164 208 271 323 374
#     4   9  20  40  70  90 120 172 208 260 325 381
#     4   9  20  37  58  85 121 163 213 257 308 373
#
# _framework density 19.327162000000001
#
# number of rings (size 3 to 8) (size 9 to 14) (size 15 to 20)
#    0.000    2.000    2.500    0.000    3.500    7.000 
#    0.000    6.250    0.000    0.000    0.000    0.000 
#    0.000    0.000    0.000    0.000    0.000    0.000 
#
# Total GULP energy -267681.175322 kJ/mol
# GULP energy per Si atom -5576.691153 kJ/mol
# Density = 1.928317 g / cm^3
# Si number density = 19.327162 Si / 1000 Ang^3
#
#
#
# Elastic Constant Matrix: (Units=GPa)
#
#
# Indices 1 2 3 4 5 6 
#
# 1 77.0024 42.6546 23.2762 -3.2454 0.0000 0.0000
# 2 42.6546 77.0024 23.2762 3.2454 0.0000 0.0000
# 3 23.2762 23.2762 53.4688 0.0000 0.0000 0.0000
# 4 -3.2454 3.2454 0.0000 30.2972 0.0000 0.0000
# 5 0.0000 0.0000 0.0000 0.0000 30.2972 -3.2454
# 6 0.0000 0.0000 0.0000 0.0000 -3.2454 17.1739
#
#
#
# Elastic Compliance Matrix: (Units=1/GPa)
#
#
# Indices 1 2 3 4 5 6 
#
# 1 0.019888 -0.009827 -0.004380 0.003183 0.000000 0.000000
# 2 -0.009827 0.019888 -0.004380 -0.003183 0.000000 0.000000
# 3 -0.004380 -0.004380 0.022516 0.000000 0.000000 0.000000
# 4 0.003183 -0.003183 0.000000 0.033688 0.000000 0.000000
# 5 0.000000 0.000000 0.000000 0.000000 0.033688 0.006366
# 6 0.000000 0.000000 0.000000 0.000000 0.006366 0.059431
#
#
# Mechanical properties :
#
#
# Convention : Reuss Voigt Hill
#
# Bulk Modulus (GPa) = 39.81090 42.87637 41.34364
# Shear Modulus (GPa) = 21.30866 23.43812 22.37339
#
# Velocity S-wave (km/s) = 3.32403 3.48617 3.40606
# Velocity P-wave (km/s) = 5.94772 6.19977 6.07505
#
# Compressibility (1/GPa) = 0.02511875
#
# Stress axis : x y z
#
# Youngs Moduli (GPa) = 50.28080 50.28080 44.41322
#
# Poissons Ratio (x) = 0.49411 0.19452
# Poissons Ratio (y) = 0.49411 0.19452
# Poissons Ratio (z) = 0.22022 0.22022
#
# Static dielectric constant tensor:
#      x y z
#    x 1.671040 0.000000 0.000000 
#    y 0.000000 1.671040 0.000000 
#    z 0.000000 0.000000 1.718550 
# 
# From -- ./inp_files/1892.got.cif
#   From: 2010.05.17/outbox.cif.g08.bks.cpg/sg152_1_cif.got.tgz:1892.got - 2010.05.20 10:36:06.
