data_PCOD9575367
_publ_section_title
;
Structure prediction by ZEFSAII (Michael W. Deem and Ramdas Pophale) SiO2 
 PCOD9575367
Probable space group: P 3 1 2
;
_chemical_formula_sum "Si O2"
_cell_formula_units_Z 48
_cell_length_a 12.674737
_cell_length_b 12.674737
_cell_length_c 20.863721
_cell_angle_alpha 90.000000
_cell_angle_beta 90.000000
_cell_angle_gamma 120.000000
_cell_volume 2902.687691
_symmetry_space_group_name_H-M "P 3 1 2"
_symmetry_group_IT_number 149
_symmetry_cell_setting 'hexagonal'
loop_
_space_group_symop_operation_xyz
x,y,z
-y,x-y,z
-x+y,-x,z
-y,-x,-z
-x+y,y,-z
x,x-y,-z
loop_
_atom_site_type_symbol
_atom_site_label
_atom_site_fract_x
_atom_site_fract_y
_atom_site_fract_z
Si Si1 0.333806 0.917307 1.000000
Si Si2 0.749082 0.749082 0.250000
Si Si3 0.415480 0.082358 0.875327
Si Si4 0.917307 0.583501 0.500000
Si Si5 0.250918 0.250918 0.250000
Si Si6 0.917641 0.333121 0.124672
Si Si7 0.333122 0.917642 0.375327
Si Si8 0.333121 0.415479 0.375328
O O1 0.352930 0.998033 0.062983
O O2 0.204430 0.795571 0.000000
O O3 0.443316 0.886631 0.000000
O O4 0.352929 0.998031 0.937016
O O5 0.880685 0.761370 0.259090
O O6 0.688620 0.665609 0.187741
O O7 0.665606 0.688619 0.312257
O O8 0.761371 0.880686 0.240910
O O9 0.334394 0.023013 0.812258
O O10 0.547539 0.095078 0.867694
O O11 0.427877 0.213938 0.884650
O O12 0.795570 0.591140 0.500000
O O13 0.886635 0.443318 0.500000
O O14 0.998031 0.645104 0.562984
O O15 0.998033 0.645105 0.437017
O O16 0.311380 0.334392 0.312259
O O17 0.452462 0.904923 0.367695
O O18 0.213939 0.786061 0.384650
#
# Coordination Sequence:
#
# PCOD9575367 Si02
#       8
#     6   6   6   6   6   6   6   6
#     4  10  20  34  52  74 100 130 164 202 246 296
#     4  10  20  34  52  74 102 136 172 210 252 300
#     4  10  20  34  53  76 102 132 167 208 253 300
#     4  10  20  34  52  74 100 130 164 202 246 296
#     4  10  20  34  52  74 102 136 172 210 252 300
#     4  10  20  34  53  76 102 132 167 208 253 300
#     4  10  20  34  53  76 102 132 167 208 253 300
#     4  10  20  34  53  76 102 132 167 208 253 300
#
# _framework density 16.536398999999999
#
# number of rings (size 3 to 8) (size 9 to 14) (size 15 to 20)
#    0.000    2.000    0.000    4.000    0.000    0.000 
#    0.000    2.500    0.000   23.000    0.000    0.000 
#    0.000    0.000    0.000    0.000    0.000    0.000 
#
# Total GULP energy -268010.104370 kJ/mol
# GULP energy per Si atom -5583.543841 kJ/mol
# Density = 1.649876 g / cm^3
# Si number density = 16.536399 Si / 1000 Ang^3
#
#
#
# Elastic Constant Matrix: (Units=GPa)
#
#
# Indices 1 2 3 4 5 6 
#
# 1 148.7391 110.0185 111.2890 0.0000 -0.0001 0.0000
# 2 110.0185 148.7391 111.2890 0.0000 0.0001 0.0000
# 3 111.2890 111.2890 161.7612 0.0000 0.0000 0.0000
# 4 0.0000 0.0000 0.0000 25.9947 0.0000 0.0001
# 5 -0.0001 0.0001 0.0000 0.0000 25.9947 0.0000
# 6 0.0000 0.0000 0.0000 0.0001 0.0000 19.3603
#
#
#
# Elastic Compliance Matrix: (Units=1/GPa)
#
#
# Indices 1 2 3 4 5 6 
#
# 1 0.017647 -0.008179 -0.006513 0.000000 0.000000 0.000000
# 2 -0.008179 0.017647 -0.006513 0.000000 0.000000 0.000000
# 3 -0.006513 -0.006513 0.015144 0.000000 0.000000 0.000000
# 4 0.000000 0.000000 0.000000 0.038469 0.000000 0.000000
# 5 0.000000 0.000000 0.000000 0.000000 0.038469 0.000000
# 6 0.000000 0.000000 0.000000 0.000000 0.000000 0.051652
#
#
# Mechanical properties :
#
#
# Convention : Reuss Voigt Hill
#
# Bulk Modulus (GPa) = 124.60586 124.93692 124.77139
# Shear Modulus (GPa) = 22.30996 22.71281 22.51139
#
# Velocity S-wave (km/s) = 3.67705 3.71010 3.69361
# Velocity P-wave (km/s) = 9.67180 9.69896 9.68539
#
# Compressibility (1/GPa) = 0.00802530
#
# Stress axis : x y z
#
# Youngs Moduli (GPa) = 56.66803 56.66803 66.03271
#
# Poissons Ratio (x) = 0.46351 0.43009
# Poissons Ratio (y) = 0.46351 0.43009
# Poissons Ratio (z) = 0.36909 0.36909
#
# Static dielectric constant tensor:
#      x y z
#    x 1.523710 0.000000 0.000000 
#    y 0.000000 1.523710 0.000000 
#    z 0.000000 0.000000 1.531940 
# 
# From -- ./inp_files/1148.got.cif
#   From: 2010.05.17/outbox.cif.g08.bks.cpg/sg149_cif.got.tgz:1148.got - 2010.05.20 13:52:34.
