data_PCOD9575404
_publ_section_title
;
Structure prediction by ZEFSAII (Michael W. Deem and Ramdas Pophale) SiO2 
 PCOD9575404
Probable space group: P 3 2 1
;
_chemical_formula_sum "Si O2"
_cell_formula_units_Z 40
_cell_length_a 12.063291
_cell_length_b 12.063291
_cell_length_c 13.897643
_cell_angle_alpha 90.000000
_cell_angle_beta 90.000000
_cell_angle_gamma 120.000000
_cell_volume 1751.472778
_symmetry_space_group_name_H-M "P 3 2 1"
_symmetry_group_IT_number 150
_symmetry_cell_setting 'hexagonal'
loop_
_space_group_symop_operation_xyz
x,y,z
-y,x-y,z
-x+y,-x,z
x-y,-y,-z
-x,-x+y,-z
y,x,-z
loop_
_atom_site_type_symbol
_atom_site_label
_atom_site_fract_x
_atom_site_fract_y
_atom_site_fract_z
Si Si1 0.077388 0.666100 0.368066
Si Si2 0.151556 0.303111 0.640638
Si Si3 0.588712 0.666100 0.368066
Si Si4 0.696889 0.848444 0.859362
Si Si5 0.000000 0.000000 0.386006
Si Si6 0.333900 0.922611 0.131934
Si Si7 0.000000 0.000000 0.886006
Si Si8 0.666100 0.077388 0.868066
O O1 0.199178 0.800822 0.396421
O O2 0.091407 0.545703 0.396954
O O3 0.075476 0.667597 0.250000
O O4 0.944868 0.655100 0.401685
O O5 0.175975 0.351950 0.750000
O O6 0.055132 0.344900 0.598315
O O7 0.073959 0.147918 0.644239
O O8 0.592122 0.667598 0.250000
O O9 0.655100 0.710231 0.901685
O O10 0.655100 0.944868 0.901685
O O11 0.852082 0.926041 0.855761
O O12 0.000000 0.000000 0.500000
O O13 0.454296 0.908593 0.103046
O O14 0.199178 0.800822 0.103579
O O15 0.000000 0.000000 0.000000
#
# Coordination Sequence:
#
# PCOD9575404 Si02
#       8
#     6   6   6   6   2   6   2   6
#     4   9  16  26  44  71 100 127 159 200 246 298
#     4  10  18  32  52  74 102 133 163 202 258 307
#     4   9  16  26  44  71 100 127 159 200 246 298
#     4  10  18  32  52  74 102 133 163 202 258 307
#     4  12  22  32  52  78 100 125 172 222 253 290
#     4   9  16  26  44  71 100 127 159 200 246 298
#     4  12  22  32  52  78 100 125 172 222 253 290
#     4   9  16  26  44  71 100 127 159 200 246 298
#
# _framework density 22.837923
#
# number of rings (size 3 to 8) (size 9 to 14) (size 15 to 20)
#    0.000    2.400    3.000    1.500    0.000    2.400 
#    1.800    0.000    0.000    1.800    0.000    0.000 
#    0.000    0.000    0.000    0.000    0.000    0.000 
#
# Total GULP energy -223692.511305 kJ/mol
# GULP energy per Si atom -5592.312783 kJ/mol
# Density = 2.278594 g / cm^3
# Si number density = 22.837923 Si / 1000 Ang^3
#
#
#
# Elastic Constant Matrix: (Units=GPa)
#
#
# Indices 1 2 3 4 5 6 
#
# 1 163.1713 79.3540 5.3397 0.0000 0.0000 0.0000
# 2 79.3540 163.1713 5.3397 0.0000 0.0000 0.0000
# 3 5.3397 5.3397 83.3196 0.0000 0.0000 0.0000
# 4 0.0000 0.0000 0.0000 7.1257 0.0000 0.0000
# 5 0.0000 0.0000 0.0000 0.0000 7.1257 0.0000
# 6 0.0000 0.0000 0.0000 0.0000 0.0000 41.9086
#
#
#
# Elastic Compliance Matrix: (Units=1/GPa)
#
#
# Indices 1 2 3 4 5 6 
#
# 1 0.008033 -0.003898 -0.000265 0.000000 0.000000 0.000000
# 2 -0.003898 0.008033 -0.000265 0.000000 0.000000 0.000000
# 3 -0.000265 -0.000265 0.012036 0.000000 0.000000 0.000000
# 4 0.000000 0.000000 0.000000 0.140338 0.000000 0.000000
# 5 0.000000 0.000000 0.000000 0.000000 0.140338 0.000000
# 6 0.000000 0.000000 0.000000 0.000000 0.000000 0.023861
#
#
# Mechanical properties :
#
#
# Convention : Reuss Voigt Hill
#
# Bulk Modulus (GPa) = 51.95922 65.52543 58.74233
# Shear Modulus (GPa) = 14.37153 32.54058 23.45606
#
# Velocity S-wave (km/s) = 2.51127 3.77881 3.20826
# Velocity P-wave (km/s) = 5.58653 6.91325 6.28500
#
# Compressibility (1/GPa) = 0.01924586
#
# Stress axis : x y z
#
# Youngs Moduli (GPa) = 124.48910 124.48910 83.08448
#
# Poissons Ratio (x) = 0.48524 0.02202
# Poissons Ratio (y) = 0.48524 0.02202
# Poissons Ratio (z) = 0.03299 0.03299
#
# Static dielectric constant tensor:
#      x y z
#    x 1.785790 0.000000 0.000000 
#    y 0.000000 1.785790 0.000000 
#    z 0.000000 0.000000 1.882640 
# 
# From -- ./inp_files/1123.got.cif
#   From: 2010.05.17/outbox.cif.g08.bks.cpg/sg150_cif.got.tgz:1123.got - 2010.05.20 13:53:18.
