data_PCOD9575608
_publ_section_title
;
Structure prediction by ZEFSAII (Michael W. Deem and Ramdas Pophale) SiO2 
 PCOD9575608
Probable space group: P 31 1 2
;
_chemical_formula_sum "Si O2"
_cell_formula_units_Z 24
_cell_length_a 15.244571
_cell_length_b 15.244571
_cell_length_c 5.397958
_cell_angle_alpha 90.000000
_cell_angle_beta 90.000000
_cell_angle_gamma 120.000000
_cell_volume 1086.401977
_symmetry_space_group_name_H-M "P 31 1 2"
_symmetry_group_IT_number 151
_symmetry_cell_setting 'hexagonal'
loop_
_space_group_symop_operation_xyz
x,y,z
-y,x-y,1/3+z
-x+y,-x,2/3+z
-y,-x,2/3-z
-x+y,y,1/3-z
x,x-y,-z
loop_
_atom_site_type_symbol
_atom_site_label
_atom_site_fract_x
_atom_site_fract_y
_atom_site_fract_z
Si Si1 0.866277 0.249918 0.086836
Si Si2 0.388962 0.611039 0.333334
Si Si3 0.056707 0.113413 0.666667
Si Si4 0.225205 0.450409 0.666667
Si Si5 0.609202 0.218404 0.666667
Si Si6 0.725367 0.783605 0.671289
O O1 0.811200 0.188801 0.333334
O O2 0.851263 0.347566 0.096950
O O3 0.981022 0.282685 0.151652
O O4 0.814679 0.185322 0.833334
O O5 0.414366 0.707183 0.500000
O O6 0.334582 0.517854 0.528442
O O7 0.019012 0.185891 0.542222
O O8 0.072989 0.036495 0.500000
O O9 0.137306 0.378092 0.474867
O O10 0.595972 0.297986 0.500000
O O11 0.757817 0.878909 0.500000
#
# Coordination Sequence:
#
# PCOD9575608 Si02
#       6
#     6   3   3   3   3   6
#     4  11  27  45  80 112 152 198 253 315 385 461
#     4   9  18  39  73  98 128 198 246 304 371 450
#     4  11  26  43  71 102 145 206 253 301 382 464
#     4  10  22  44  73 100 147 198 258 315 381 450
#     4  10  20  48  79 104 146 190 249 314 390 456
#     4  11  27  44  68 108 154 195 250 321 374 461
#
# _framework density 22.091269
#
# number of rings (size 3 to 8) (size 9 to 14) (size 15 to 20)
#    0.000    1.500    1.250    1.500   12.250    0.000 
#    0.000   11.250   11.000    0.000    0.000    0.000 
#    0.000    0.000    0.000    0.000    0.000    0.000 
#
# Total GULP energy -133699.982628 kJ/mol
# GULP energy per Si atom -5570.832609 kJ/mol
# Density = 2.204099 g / cm^3
# Si number density = 22.091269 Si / 1000 Ang^3
#
#
#
# Elastic Constant Matrix: (Units=GPa)
#
#
# Indices 1 2 3 4 5 6 
#
# 1 134.7938 29.2954 33.8693 0.0049 -21.6294 0.0000
# 2 29.2954 134.7938 33.8693 -0.0049 21.6294 0.0000
# 3 33.8693 33.8693 101.6732 0.0000 0.0000 0.0000
# 4 0.0049 -0.0049 0.0000 41.4982 0.0000 21.6294
# 5 -21.6294 21.6294 0.0000 0.0000 41.4982 0.0049
# 6 0.0000 0.0000 0.0000 21.6294 0.0049 52.7492
#
#
#
# Elastic Compliance Matrix: (Units=1/GPa)
#
#
# Indices 1 2 3 4 5 6 
#
# 1 0.009561 -0.002495 -0.002354 -0.000001 0.006283 0.000000
# 2 -0.002495 0.009561 -0.002354 0.000001 -0.006283 0.000000
# 3 -0.002354 -0.002354 0.011404 0.000000 0.000000 0.000000
# 4 -0.000001 0.000001 0.000000 0.030647 0.000000 -0.012567
# 5 0.006283 -0.006283 0.000000 0.000000 0.030647 -0.000003
# 6 0.000000 0.000000 0.000000 -0.012567 -0.000003 0.024111
#
#
# Mechanical properties :
#
#
# Convention : Reuss Voigt Hill
#
# Bulk Modulus (GPa) = 62.03360 62.81431 62.42395
# Shear Modulus (GPa) = 36.84383 45.43092 41.13738
#
# Velocity S-wave (km/s) = 4.08830 4.53980 4.31995
# Velocity P-wave (km/s) = 7.10121 7.48167 7.29392
#
# Compressibility (1/GPa) = 0.01612030
#
# Stress axis : x y z
#
# Youngs Moduli (GPa) = 104.59599 104.59599 87.69138
#
# Poissons Ratio (x) = 0.26093 0.20641
# Poissons Ratio (y) = 0.26093 0.20641
# Poissons Ratio (z) = 0.24620 0.24620
#
# Static dielectric constant tensor:
#      x y z
#    x 1.642940 0.000000 0.000000 
#    y 0.000000 1.642940 0.000000 
#    z 0.000000 0.000000 3.008260 
# 
# From -- ./inp_files/285.got.cif
#   From: 2010.05.17/outbox.cif.g08.bks.cpg/sg151_1_cif.got.tgz:285.got - 2010.05.20 10:33:20.
