data_PCOD9575949
_publ_section_title
;
Structure prediction by ZEFSAII (Michael W. Deem and Ramdas Pophale) SiO2 
 PCOD9575949
Probable space group: P 31 2 1
;
_chemical_formula_sum "Si O2"
_cell_formula_units_Z 33
_cell_length_a 15.801230
_cell_length_b 15.801230
_cell_length_c 7.731008
_cell_angle_alpha 90.000000
_cell_angle_beta 90.000000
_cell_angle_gamma 120.000000
_cell_volume 1671.662283
_symmetry_space_group_name_H-M "P 31 2 1"
_symmetry_group_IT_number 152
_symmetry_cell_setting 'hexagonal'
loop_
_space_group_symop_operation_xyz
x,y,z
-y,x-y,1/3+z
-x+y,-x,2/3+z
x-y,-y,2/3-z
-x,-x+y,1/3-z
y,x,-z
loop_
_atom_site_type_symbol
_atom_site_label
_atom_site_fract_x
_atom_site_fract_y
_atom_site_fract_z
Si Si1 0.866046 0.598116 0.786555
Si Si2 0.168186 0.398840 0.533974
Si Si3 0.370293 0.749420 0.191872
Si Si4 0.000000 0.218702 0.666667
Si Si5 0.921084 0.680636 0.418188
Si Si6 0.116897 0.113481 0.188971
O O1 0.826486 0.483181 0.767397
O O2 0.862462 0.638704 0.597316
O O3 0.974850 0.663808 0.869580
O O4 0.795650 0.601943 0.931181
O O5 0.187899 0.505294 0.487941
O O6 0.059012 0.306200 0.531295
O O7 0.240900 0.381490 0.411450
O O8 0.315652 0.680291 0.358177
O O9 0.068476 0.182672 0.756425
O O10 0.939888 0.789204 0.370232
O O11 0.153415 0.153415 0.000000
O O12 0.000000 0.041088 0.166667
#
# Coordination Sequence:
#
# PCOD9575949 Si02
#       6
#     6   6   6   3   6   6
#     4  10  21  38  63  91 119 156 213 254 309 374
#     4  11  23  39  61  88 126 161 204 258 316 374
#     4  10  22  42  66  92 120 161 208 264 327 382
#     4  12  24  36  56  90 122 164 204 254 298 366
#     4  11  21  38  62  90 120 165 206 253 308 374
#     4  12  22  35  55  85 123 166 204 238 294 365
#
# _framework density 19.740829999999999
#
# number of rings (size 3 to 8) (size 9 to 14) (size 15 to 20)
#    0.000    1.091    4.545    2.727    0.000    1.455 
#    0.000    0.000    0.000   13.091    0.000    0.000 
#    0.000    0.000    0.000    0.000    0.000    0.000 
#
# Total GULP energy -183819.725098 kJ/mol
# GULP energy per Si atom -5570.294700 kJ/mol
# Density = 1.969590 g / cm^3
# Si number density = 19.740830 Si / 1000 Ang^3
#
#
#
# Elastic Constant Matrix: (Units=GPa)
#
#
# Indices 1 2 3 4 5 6 
#
# 1 107.4346 55.0451 18.9043 -1.5196 -0.0001 0.0000
# 2 55.0451 107.4346 18.9043 1.5196 0.0001 0.0000
# 3 18.9043 18.9043 72.6385 0.0000 0.0000 0.0000
# 4 -1.5196 1.5196 0.0000 23.7642 0.0000 0.0001
# 5 -0.0001 0.0001 0.0000 0.0000 23.7642 -1.5196
# 6 0.0000 0.0000 0.0000 0.0001 -1.5196 26.1947
#
#
#
# Elastic Compliance Matrix: (Units=1/GPa)
#
#
# Indices 1 2 3 4 5 6 
#
# 1 0.012855 -0.006304 -0.001705 0.001225 0.000000 0.000000
# 2 -0.006304 0.012855 -0.001705 -0.001225 0.000000 0.000000
# 3 -0.001705 -0.001705 0.014654 0.000000 0.000000 0.000000
# 4 0.001225 -0.001225 0.000000 0.042237 0.000000 0.000000
# 5 0.000000 0.000000 0.000000 0.000000 0.042237 0.002450
# 6 0.000000 0.000000 0.000000 0.000000 0.002450 0.038318
#
#
# Mechanical properties :
#
#
# Convention : Reuss Voigt Hill
#
# Bulk Modulus (GPa) = 47.76236 52.57944 50.17090
# Shear Modulus (GPa) = 26.37654 27.72155 27.04904
#
# Velocity S-wave (km/s) = 3.65929 3.75143 3.70565
# Velocity P-wave (km/s) = 6.48854 6.74218 6.61657
#
# Compressibility (1/GPa) = 0.02093699
#
# Stress axis : x y z
#
# Youngs Moduli (GPa) = 77.79005 77.79005 68.23949
#
# Poissons Ratio (x) = 0.49037 0.11635
# Poissons Ratio (y) = 0.49037 0.11635
# Poissons Ratio (z) = 0.13263 0.13263
#
# Static dielectric constant tensor:
#      x y z
#    x 1.760840 0.000000 0.000000 
#    y 0.000000 1.760840 0.000000 
#    z 0.000000 0.000000 1.722970 
# 
# From -- ./inp_files/1177.got.cif
#   From: 2010.05.17/outbox.cif.g08.bks.cpg/sg152_1_cif.got.tgz:1177.got - 2010.05.20 10:36:06.
