data_PCOD9575672
_publ_section_title
;
Structure prediction by ZEFSAII (Michael W. Deem and Ramdas Pophale) SiO2 
 PCOD9575672
Probable space group: P 31 1 2
;
_chemical_formula_sum "Si O2"
_cell_formula_units_Z 45
_cell_length_a 11.061478
_cell_length_b 11.061478
_cell_length_c 17.910732
_cell_angle_alpha 90.000000
_cell_angle_beta 90.000000
_cell_angle_gamma 120.000000
_cell_volume 1897.886721
_symmetry_space_group_name_H-M "P 31 1 2"
_symmetry_group_IT_number 151
_symmetry_cell_setting 'hexagonal'
loop_
_space_group_symop_operation_xyz
x,y,z
-y,x-y,1/3+z
-x+y,-x,2/3+z
-y,-x,2/3-z
-x+y,y,1/3-z
x,x-y,-z
loop_
_atom_site_type_symbol
_atom_site_label
_atom_site_fract_x
_atom_site_fract_y
_atom_site_fract_z
Si Si1 0.997990 0.660517 0.901061
Si Si2 0.802393 0.637130 0.086873
Si Si3 0.131455 0.505589 0.394783
Si Si4 0.918530 0.064512 0.047144
Si Si5 0.732767 0.348816 0.084719
Si Si6 0.183397 0.591699 0.000000
Si Si7 0.124176 0.366972 0.534817
Si Si8 0.456461 0.945797 0.433156
O O1 0.009873 0.810314 0.903141
O O2 0.832881 0.549659 0.912316
O O3 0.044403 0.606475 0.829848
O O4 0.088177 0.649585 0.967844
O O5 0.855420 0.710840 0.166667
O O6 0.841838 0.516065 0.085948
O O7 0.634219 0.544811 0.086413
O O8 0.857800 0.741877 0.020048
O O9 0.300105 0.584660 0.395236
O O10 0.087781 0.374001 0.448274
O O11 0.080750 0.609351 0.425942
O O12 0.092233 0.491789 0.308730
O O13 0.784105 0.950682 0.093898
O O14 0.991893 0.995947 0.000000
O O15 0.656654 0.313308 0.166667
O O16 0.667310 0.333655 0.000000
O O17 0.291625 0.445360 0.548141
#
# Coordination Sequence:
#
# PCOD9575672 Si02
#       8
#     6   6   6   6   6   3   6   6
#     4  12  25  40  69 106 142 193 253 312 378 458
#     4  11  21  37  69 100 138 191 242 314 364 447
#     4  11  23  38  69 111 143 185 239 318 379 440
#     4  12  24  45  71 104 148 195 254 308 377 469
#     4  11  21  39  60  99 140 187 245 304 376 449
#     4  12  22  42  74 106 140 176 254 318 376 448
#     4  11  22  41  68 108 148 195 249 302 386 460
#     4  12  21  42  67 106 149 188 249 313 385 452
#
# _framework density 23.710584000000001
#
# number of rings (size 3 to 8) (size 9 to 14) (size 15 to 20)
#    0.000    0.533   10.000    0.000    0.000    0.533 
#    4.800    0.667    2.933    0.000    0.000    0.000 
#    0.000    0.000    0.000    0.000    0.000    0.000 
#
# Total GULP energy -251200.948416 kJ/mol
# GULP energy per Si atom -5582.243298 kJ/mol
# Density = 2.365662 g / cm^3
# Si number density = 23.710584 Si / 1000 Ang^3
#
#
#
# Elastic Constant Matrix: (Units=GPa)
#
#
# Indices 1 2 3 4 5 6 
#
# 1 68.6757 14.5774 35.1433 0.0000 2.5119 0.0000
# 2 14.5774 68.6757 35.1433 0.0000 -2.5119 0.0000
# 3 35.1433 35.1433 151.0301 0.0000 0.0000 0.0000
# 4 0.0000 0.0000 0.0000 37.2174 0.0000 -2.5119
# 5 2.5119 -2.5119 0.0000 0.0000 37.2174 0.0000
# 6 0.0000 0.0000 0.0000 -2.5119 0.0000 27.0492
#
#
#
# Elastic Compliance Matrix: (Units=1/GPa)
#
#
# Indices 1 2 3 4 5 6 
#
# 1 0.016775 -0.001827 -0.003478 0.000000 -0.001255 0.000000
# 2 -0.001827 0.016775 -0.003478 0.000000 0.001255 0.000000
# 3 -0.003478 -0.003478 0.008240 0.000000 0.000000 0.000000
# 4 0.000000 0.000000 0.000000 0.027039 0.000000 0.002511
# 5 -0.001255 0.001255 0.000000 0.000000 0.027039 0.000000
# 6 0.000000 0.000000 0.000000 0.002511 0.000000 0.037203
#
#
# Mechanical properties :
#
#
# Convention : Reuss Voigt Hill
#
# Bulk Modulus (GPa) = 41.28304 50.90106 46.09205
# Shear Modulus (GPa) = 31.50389 33.86461 32.68425
#
# Velocity S-wave (km/s) = 3.64907 3.78332 3.71680
# Velocity P-wave (km/s) = 5.93324 6.37173 6.15639
#
# Compressibility (1/GPa) = 0.02422302
#
# Stress axis : x y z
#
# Youngs Moduli (GPa) = 59.61324 59.61324 121.36021
#
# Poissons Ratio (x) = 0.10889 0.42213
# Poissons Ratio (y) = 0.10889 0.42213
# Poissons Ratio (z) = 0.20735 0.20735
#
# Static dielectric constant tensor:
#      x y z
#    x 1.974380 0.000000 0.000000 
#    y 0.000000 1.974380 0.000000 
#    z 0.000000 0.000000 1.971820 
# 
# From -- ./inp_files/3575.got.cif
#   From: 2010.05.17/outbox.cif.g08.bks.cpg/sg151_2_cif.got.tgz:3575.got - 2010.05.20 10:33:20.
