data_PCOD9575500
_publ_section_title
;
Structure prediction by ZEFSAII (Michael W. Deem and Ramdas Pophale) SiO2 
 PCOD9575500
Probable space group: P 31 1 2
;
_chemical_formula_sum "Si O2"
_cell_formula_units_Z 33
_cell_length_a 11.038586
_cell_length_b 11.038586
_cell_length_c 14.099786
_cell_angle_alpha 90.000000
_cell_angle_beta 90.000000
_cell_angle_gamma 120.000000
_cell_volume 1487.887324
_symmetry_space_group_name_H-M "P 31 1 2"
_symmetry_group_IT_number 151
_symmetry_cell_setting 'hexagonal'
loop_
_space_group_symop_operation_xyz
x,y,z
-y,x-y,1/3+z
-x+y,-x,2/3+z
-y,-x,2/3-z
-x+y,y,1/3-z
x,x-y,-z
loop_
_atom_site_type_symbol
_atom_site_label
_atom_site_fract_x
_atom_site_fract_y
_atom_site_fract_z
Si Si1 0.555250 0.581962 0.532794
Si Si2 0.312257 0.185610 0.888927
Si Si3 0.360620 0.056882 0.539565
Si Si4 0.219304 0.376258 0.302426
Si Si5 0.057541 0.942460 0.833334
Si Si6 0.740459 0.370230 0.000000
Si Si7 0.575814 0.424187 0.833334
O O1 0.711849 0.608584 0.519122
O O2 0.442886 0.420995 0.540221
O O3 0.557948 0.678112 0.619153
O O4 0.537235 0.649225 0.435035
O O5 0.411006 0.342632 0.855133
O O6 0.153606 0.106414 0.850566
O O7 0.308369 0.154185 0.000000
O O8 0.294888 0.147444 0.500000
O O9 0.485693 0.160454 0.611025
O O10 0.264666 0.915727 0.597093
O O11 0.129560 0.222596 0.254252
O O12 0.643954 0.251560 0.075142
#
# Coordination Sequence:
#
# PCOD9575500 Si02
#       7
#     6   6   6   6   3   3   3
#     4   9  17  31  48  78 116 164 200 259 308 397
#     4  10  18  31  52  80 116 163 209 258 330 410
#     4  12  19  28  51  86 130 165 212 271 338 393
#     4   8  16  31  50  69 117 161 219 242 296 409
#     4   8  18  36  52  72 109 177 218 256 298 412
#     4  12  18  28  42  84 138 164 194 256 352 426
#     4  12  20  28  48  88 137 165 192 268 374 410
#
# _framework density 22.179099999999998
#
# number of rings (size 3 to 8) (size 9 to 14) (size 15 to 20)
#    0.000    2.545    5.455    1.091    0.000    0.000 
#    0.000    0.000    8.000    0.000    0.000   35.636 
#    0.000    0.000    0.000    0.000    0.000    0.000 
#
# Total GULP energy -184070.283343 kJ/mol
# GULP energy per Si atom -5577.887374 kJ/mol
# Density = 2.212862 g / cm^3
# Si number density = 22.179100 Si / 1000 Ang^3
#
#
#
# Elastic Constant Matrix: (Units=GPa)
#
#
# Indices 1 2 3 4 5 6 
#
# 1 88.3303 41.2986 31.7701 0.0000 5.5614 0.0000
# 2 41.2986 88.3303 31.7701 0.0000 -5.5614 0.0000
# 3 31.7701 31.7701 72.4199 0.0000 0.0000 0.0000
# 4 0.0000 0.0000 0.0000 23.0180 0.0000 -5.5614
# 5 5.5614 -5.5614 0.0000 0.0000 23.0180 0.0000
# 6 0.0000 0.0000 0.0000 -5.5614 0.0000 23.5158
#
#
#
# Elastic Compliance Matrix: (Units=1/GPa)
#
#
# Indices 1 2 3 4 5 6 
#
# 1 0.016189 -0.006362 -0.004311 0.000000 -0.005449 0.000000
# 2 -0.006362 0.016189 -0.004311 0.000000 0.005449 0.000000
# 3 -0.004311 -0.004311 0.017591 0.000000 0.000000 0.000000
# 4 0.000000 0.000000 0.000000 0.046077 0.000000 0.010897
# 5 -0.005449 0.005449 0.000000 0.000000 0.046077 0.000000
# 6 0.000000 0.000000 0.000000 0.010897 0.000000 0.045102
#
#
# Mechanical properties :
#
#
# Convention : Reuss Voigt Hill
#
# Bulk Modulus (GPa) = 49.99741 50.97312 50.48526
# Shear Modulus (GPa) = 22.33531 23.52648 22.93090
#
# Velocity S-wave (km/s) = 3.17684 3.26045 3.21891
# Velocity P-wave (km/s) = 6.00399 6.09971 6.05204
#
# Compressibility (1/GPa) = 0.02000104
#
# Stress axis : x y z
#
# Youngs Moduli (GPa) = 61.76953 61.76953 56.84719
#
# Poissons Ratio (x) = 0.39295 0.24508
# Poissons Ratio (y) = 0.39295 0.24508
# Poissons Ratio (z) = 0.26631 0.26631
#
# Static dielectric constant tensor:
#      x y z
#    x 1.880880 0.000000 0.000000 
#    y 0.000000 1.880880 0.000000 
#    z 0.000000 0.000000 1.857930 
# 
# From -- ./inp_files/2953.got.cif
#   From: 2010.05.17/outbox.cif.g08.bks.cpg/sg151_2_cif.got.tgz:2953.got - 2010.05.20 10:33:20.
