data_PCOD9575829
_publ_section_title
;
Structure prediction by ZEFSAII (Michael W. Deem and Ramdas Pophale) SiO2 
 PCOD9575829
Probable space group: P 31 2 1
;
_chemical_formula_sum "Si O2"
_cell_formula_units_Z 18
_cell_length_a 8.228820
_cell_length_b 8.228820
_cell_length_c 11.615484
_cell_angle_alpha 90.000000
_cell_angle_beta 90.000000
_cell_angle_gamma 120.000000
_cell_volume 681.150481
_symmetry_space_group_name_H-M "P 31 2 1"
_symmetry_group_IT_number 152
_symmetry_cell_setting 'hexagonal'
loop_
_space_group_symop_operation_xyz
x,y,z
-y,x-y,1/3+z
-x+y,-x,2/3+z
x-y,-y,2/3-z
-x,-x+y,1/3-z
y,x,-z
loop_
_atom_site_type_symbol
_atom_site_label
_atom_site_fract_x
_atom_site_fract_y
_atom_site_fract_z
Si Si1 0.757468 0.000000 0.333334
Si Si2 0.713802 0.963101 0.086372
Si Si3 0.724465 0.404145 0.540676
Si Si4 0.701450 0.000000 0.833334
O O1 0.553995 0.816112 0.354759
O O2 0.844125 0.026892 0.459900
O O3 0.520123 0.769290 0.095385
O O4 0.680217 0.140068 0.106028
O O5 0.781245 0.979341 0.955839
O O6 0.509543 0.332256 0.511785
#
# Coordination Sequence:
#
# PCOD9575829 Si02
#       4
#     3   6   6   3
#     4   8  20  34  52  80 116 142 172 230 292 314
#     4  10  20  35  55  83 112 149 187 235 280 333
#     4  10  22  38  60  83 117 147 192 236 288 330
#     4  12  20  32  58  88 106 148 198 232 262 350
#
# _framework density 26.425879999999999
#
# number of rings (size 3 to 8) (size 9 to 14) (size 15 to 20)
#    2.000    0.000    0.000    6.000    0.000    0.000 
#    0.000    0.000    0.000    4.000    0.000    0.000 
#    0.000    0.000    0.000    0.000    0.000    0.000 
#
# Total GULP energy -100429.153031 kJ/mol
# GULP energy per Si atom -5579.397391 kJ/mol
# Density = 2.636573 g / cm^3
# Si number density = 26.425880 Si / 1000 Ang^3
#
#
#
# Elastic Constant Matrix: (Units=GPa)
#
#
# Indices 1 2 3 4 5 6 
#
# 1 -11.6249 155.8436 78.2193 24.8291 -0.0003 0.0000
# 2 155.8436 -11.6249 78.2193 -24.8291 0.0003 0.0000
# 3 78.2193 78.2193 362.9410 0.0000 0.0000 0.0000
# 4 24.8291 -24.8291 0.0000 -5.0383 0.0000 0.0003
# 5 -0.0003 0.0003 0.0000 0.0000 -5.0383 24.8291
# 6 0.0000 0.0000 0.0000 0.0003 24.8291 -83.7342
#
#
#
# Elastic Compliance Matrix: (Units=1/GPa)
#
#
# Indices 1 2 3 4 5 6 
#
# 1 0.010997 -0.001948 -0.001950 0.063792 -0.000001 0.000000
# 2 -0.001948 0.010997 -0.001950 -0.063792 0.000001 0.000000
# 3 -0.001950 -0.001950 0.003596 0.000000 0.000000 0.000000
# 4 0.063792 -0.063792 0.000000 0.430268 0.000000 0.000002
# 5 -0.000001 0.000001 0.000000 0.000000 0.430268 0.127584
# 6 0.000000 0.000000 0.000000 0.000002 0.127584 0.025889
#
#
# Mechanical properties :
#
#
# Convention : Reuss Voigt Hill
#
# Bulk Modulus (GPa) = 71.97539 107.13952 89.55745
# Shear Modulus (GPa) = 5.38594 -16.93489 -5.77447
#
# Velocity S-wave (km/s) = 1.42918 -2.53424 -1.47983
# Velocity P-wave (km/s) = 5.47898 5.66289 5.57169
#
# Compressibility (1/GPa) = 0.01389364
#
# Stress axis : x y z
#
# Youngs Moduli (GPa) = 90.93363 90.93363 278.09407
#
# Poissons Ratio (x) = 0.17710 0.54237
# Poissons Ratio (y) = 0.17710 0.54237
# Poissons Ratio (z) = 0.17735 0.17735
#
# Static dielectric constant tensor:
#      x y z
#    x 2.224030 0.000000 0.000000 
#    y 0.000000 2.224030 0.000000 
#    z 0.000000 0.000000 1.830640 
# 
# From -- ./inp_files/2217.got.cif
#   From: 2010.05.17/outbox.cif.g08.bks.cpg/sg152_2_cif.got.tgz:2217.got - 2010.05.20 10:36:06.
