data_PCOD9575694
_publ_section_title
;
Structure prediction by ZEFSAII (Michael W. Deem and Ramdas Pophale) SiO2 
 PCOD9575694
Probable space group: P 31 1 2
;
_chemical_formula_sum "Si O2"
_cell_formula_units_Z 24
_cell_length_a 15.968923
_cell_length_b 15.968923
_cell_length_c 5.063348
_cell_angle_alpha 90.000000
_cell_angle_beta 90.000000
_cell_angle_gamma 120.000000
_cell_volume 1118.200449
_symmetry_space_group_name_H-M "P 31 1 2"
_symmetry_group_IT_number 151
_symmetry_cell_setting 'hexagonal'
loop_
_space_group_symop_operation_xyz
x,y,z
-y,x-y,1/3+z
-x+y,-x,2/3+z
-y,-x,2/3-z
-x+y,y,1/3-z
x,x-y,-z
loop_
_atom_site_type_symbol
_atom_site_label
_atom_site_fract_x
_atom_site_fract_y
_atom_site_fract_z
Si Si1 1.000000 0.691030 0.750004
Si Si2 0.474145 0.833766 0.422100
Si Si3 0.192476 0.000001 0.416663
Si Si4 0.525856 0.359621 0.077901
O O1 0.090642 0.676128 0.696137
O O2 0.976623 0.737001 0.499126
O O3 0.909357 0.585484 0.803865
O O4 0.023376 0.760376 0.000886
O O5 0.434427 0.868854 0.666667
O O6 0.463885 0.731943 0.500000
O O7 0.411106 0.822211 0.166667
O O8 0.181727 0.090864 0.500000
O O9 0.090863 0.909138 0.333334
O O10 0.588895 0.411106 0.333334
O O11 0.565573 0.434428 0.833334
O O12 0.536116 0.268058 0.000000
#
# Coordination Sequence:
#
# PCOD9575694 Si02
#       4
#     6   6   6   6
#     4  12  26  46  70 100 136 178 224 276 334 398
#     4  12  24  42  67  99 137 180 226 276 330 392
#     4  12  26  46  72 102 134 174 220 276 338 402
#     4  12  24  42  67  99 137 180 226 276 330 392
#
# _framework density 21.463056000000002
#
# number of rings (size 3 to 8) (size 9 to 14) (size 15 to 20)
#    0.000    0.000    0.000   12.000    0.000    2.000 
#    0.000    0.000    0.000    0.000    0.000    0.000 
#    0.000    0.000    0.000    0.000    0.000    0.000 
#
# Total GULP energy -134636.396467 kJ/mol
# GULP energy per Si atom -5609.849853 kJ/mol
# Density = 2.141420 g / cm^3
# Si number density = 21.463056 Si / 1000 Ang^3
#
#
#
# Elastic Constant Matrix: (Units=GPa)
#
#
# Indices 1 2 3 4 5 6 
#
# 1 140.1625 112.7535 76.6800 0.0000 -0.0097 0.0000
# 2 112.7535 140.1625 76.6800 0.0000 0.0097 0.0000
# 3 76.6800 76.6800 171.2340 0.0000 0.0000 0.0000
# 4 0.0000 0.0000 0.0000 32.8020 0.0000 0.0097
# 5 -0.0097 0.0097 0.0000 0.0000 32.8020 0.0000
# 6 0.0000 0.0000 0.0000 0.0097 0.0000 13.7045
#
#
#
# Elastic Compliance Matrix: (Units=1/GPa)
#
#
# Indices 1 2 3 4 5 6 
#
# 1 0.020956 -0.015528 -0.002431 0.000000 0.000011 0.000000
# 2 -0.015528 0.020956 -0.002431 0.000000 -0.000011 0.000000
# 3 -0.002431 -0.002431 0.008017 0.000000 0.000000 0.000000
# 4 0.000000 0.000000 0.000000 0.030486 0.000000 -0.000022
# 5 0.000011 -0.000011 0.000000 0.000000 0.030486 0.000000
# 6 0.000000 0.000000 0.000000 -0.000022 0.000000 0.072969
#
#
# Mechanical properties :
#
#
# Convention : Reuss Voigt Hill
#
# Bulk Modulus (GPa) = 109.29029 109.30955 109.29992
# Shear Modulus (GPa) = 21.95886 28.22473 25.09180
#
# Velocity S-wave (km/s) = 3.20206 3.63028 3.42287
# Velocity P-wave (km/s) = 8.04374 8.28321 8.16435
#
# Compressibility (1/GPa) = 0.00914994
#
# Stress axis : x y z
#
# Youngs Moduli (GPa) = 47.71894 47.71894 124.73774
#
# Poissons Ratio (x) = 0.74100 0.30318
# Poissons Ratio (y) = 0.74100 0.30318
# Poissons Ratio (z) = 0.11598 0.11598
#
# Static dielectric constant tensor:
#      x y z
#    x 1.753170 0.000000 0.000000 
#    y 0.000000 1.753170 0.000000 
#    z 0.000000 0.000000 1.739440 
# 
# From -- ./inp_files/178.got.cif
#   From: 2010.05.17/outbox.cif.g08.bks.cpg/sg151_1_cif.got.tgz:178.got - 2010.05.20 10:33:20.
