data_PCOD9575518
_publ_section_title
;
Structure prediction by ZEFSAII (Michael W. Deem and Ramdas Pophale) SiO2 
 PCOD9575518
Probable space group: P 31 1 2
;
_chemical_formula_sum "Si O2"
_cell_formula_units_Z 48
_cell_length_a 11.517131
_cell_length_b 11.517131
_cell_length_c 23.493747
_cell_angle_alpha 90.000000
_cell_angle_beta 90.000000
_cell_angle_gamma 120.000000
_cell_volume 2698.805165
_symmetry_space_group_name_H-M "P 31 1 2"
_symmetry_group_IT_number 151
_symmetry_cell_setting 'hexagonal'
loop_
_space_group_symop_operation_xyz
x,y,z
-y,x-y,1/3+z
-x+y,-x,2/3+z
-y,-x,2/3-z
-x+y,y,1/3-z
x,x-y,-z
loop_
_atom_site_type_symbol
_atom_site_label
_atom_site_fract_x
_atom_site_fract_y
_atom_site_fract_z
Si Si1 0.867451 0.464635 0.148896
Si Si2 0.467103 0.000773 0.055184
Si Si3 0.297069 0.540768 0.779700
Si Si4 0.237249 0.038349 0.345985
Si Si5 0.031370 0.743136 0.518797
Si Si6 0.022244 0.540160 0.266252
Si Si7 0.771604 0.180041 0.095481
Si Si8 0.242977 0.032260 0.551839
O O1 0.724444 0.448887 0.166667
O O2 0.838018 0.336932 0.110167
O O3 0.955472 0.609880 0.117720
O O4 0.939988 0.473463 0.208932
O O5 0.447506 0.852904 0.066882
O O6 0.355874 0.000606 0.095092
O O7 0.611967 0.112300 0.080498
O O8 0.457187 0.013273 0.987575
O O9 0.360407 0.639594 0.833334
O O10 0.256467 0.397905 0.808531
O O11 0.177116 0.551380 0.751891
O O12 0.306480 0.128602 0.290666
O O13 0.218086 0.130448 0.390562
O O14 0.346027 0.008488 0.376088
O O15 0.101835 0.898165 0.333334
O O16 0.895981 0.683295 0.483114
O O17 0.111609 0.891986 0.541000
O O18 0.252640 0.126320 0.500000
#
# Coordination Sequence:
#
# PCOD9575518 Si02
#       8
#     6   6   6   6   6   6   6   6
#     4  11  21  36  56  85 124 154 190 241 320 378
#     4   9  19  32  56  86 108 146 198 248 288 340
#     4   9  16  29  54  80 110 143 192 244 287 337
#     4  11  21  37  62  89 108 151 213 263 284 353
#     4  10  18  36  57  81 113 153 200 242 303 364
#     4  11  18  34  55  84 113 150 199 241 290 361
#     4  10  21  36  59  86 118 150 199 256 307 366
#     4  11  20  36  59  87 115 156 202 249 308 363
#
# _framework density 17.785648999999999
#
# number of rings (size 3 to 8) (size 9 to 14) (size 15 to 20)
#    0.000    1.750    3.750    5.250    0.000    0.500 
#    0.000    4.375    5.500    0.750    0.000    0.000 
#    0.000    0.000    0.000    0.000    0.000    0.000 
#
# Total GULP energy -267474.556512 kJ/mol
# GULP energy per Si atom -5572.386594 kJ/mol
# Density = 1.774517 g / cm^3
# Si number density = 17.785649 Si / 1000 Ang^3
#
#
#
# Elastic Constant Matrix: (Units=GPa)
#
#
# Indices 1 2 3 4 5 6 
#
# 1 47.3639 12.0838 18.8588 -0.0006 2.1160 0.0000
# 2 12.0838 47.3639 18.8588 0.0006 -2.1160 0.0000
# 3 18.8588 18.8588 64.8439 0.0000 0.0000 0.0000
# 4 -0.0006 0.0006 0.0000 18.4331 0.0000 -2.1160
# 5 2.1160 -2.1160 0.0000 0.0000 18.4331 -0.0006
# 6 0.0000 0.0000 0.0000 -2.1160 -0.0006 17.6400
#
#
#
# Elastic Compliance Matrix: (Units=1/GPa)
#
#
# Indices 1 2 3 4 5 6 
#
# 1 0.024684 -0.004056 -0.005999 0.000001 -0.003299 0.000000
# 2 -0.004056 0.024684 -0.005999 -0.000001 0.003299 0.000000
# 3 -0.005999 -0.005999 0.018911 0.000000 0.000000 0.000000
# 4 0.000001 -0.000001 0.000000 0.055008 0.000000 0.006598
# 5 -0.003299 0.003299 0.000000 0.000000 0.055008 0.000002
# 6 0.000000 0.000000 0.000000 0.006598 0.000002 0.057481
#
#
# Mechanical properties :
#
#
# Convention : Reuss Voigt Hill
#
# Bulk Modulus (GPa) = 27.64737 28.79718 28.22228
# Shear Modulus (GPa) = 17.86087 18.21928 18.04008
#
# Velocity S-wave (km/s) = 3.17240 3.20407 3.18827
# Velocity P-wave (km/s) = 5.38491 5.46941 5.42733
#
# Compressibility (1/GPa) = 0.03616980
#
# Stress axis : x y z
#
# Youngs Moduli (GPa) = 40.51191 40.51191 52.87856
#
# Poissons Ratio (x) = 0.16433 0.31723
# Poissons Ratio (y) = 0.16433 0.31723
# Poissons Ratio (z) = 0.24304 0.24304
#
# Static dielectric constant tensor:
#      x y z
#    x 1.642440 0.000000 0.000000 
#    y 0.000000 1.642440 0.000000 
#    z 0.000000 0.000000 1.611770 
# 
# From -- ./inp_files/3993.got.cif
#   From: 2010.05.17/outbox.cif.g08.bks.cpg/sg151_2_cif.got.tgz:3993.got - 2010.05.20 10:33:20.
