data_PCOD9575719
_publ_section_title
;
Structure prediction by ZEFSAII (Michael W. Deem and Ramdas Pophale) SiO2 
 PCOD9575719
Probable space group: P 31 2 1
;
_chemical_formula_sum "Si O2"
_cell_formula_units_Z 42
_cell_length_a 14.987953
_cell_length_b 14.987953
_cell_length_c 11.690858
_cell_angle_alpha 90.000000
_cell_angle_beta 90.000000
_cell_angle_gamma 120.000000
_cell_volume 2274.372849
_symmetry_space_group_name_H-M "P 31 2 1"
_symmetry_group_IT_number 152
_symmetry_cell_setting 'hexagonal'
loop_
_space_group_symop_operation_xyz
x,y,z
-y,x-y,1/3+z
-x+y,-x,2/3+z
x-y,-y,2/3-z
-x,-x+y,1/3-z
y,x,-z
loop_
_atom_site_type_symbol
_atom_site_label
_atom_site_fract_x
_atom_site_fract_y
_atom_site_fract_z
Si Si1 0.562478 0.862051 0.492710
Si Si2 0.759878 0.000000 0.333334
Si Si3 0.827493 0.382131 0.668092
Si Si4 0.496360 0.822224 0.104347
Si Si5 0.191969 0.880760 0.536519
Si Si6 0.411003 0.436855 0.376025
Si Si7 0.670950 0.576138 0.579297
Si Si8 0.000000 0.319218 0.666667
O O1 0.466896 0.866301 0.433623
O O2 0.579369 0.901332 0.622079
O O3 0.543998 0.747617 0.479200
O O4 0.663731 0.935629 0.418406
O O5 0.856491 0.085573 0.404245
O O6 0.720173 0.284802 0.629978
O O7 0.820319 0.436542 0.781884
O O8 0.905593 0.339698 0.688486
O O9 0.603356 0.830742 0.146362
O O10 0.521655 0.919051 0.025438
O O11 0.276072 0.905645 0.635063
O O12 0.243137 0.967456 0.440695
O O13 0.382945 0.382945 0.500000
O O14 0.479557 0.558569 0.399319
O O15 0.653675 0.653675 0.500000
#
# Coordination Sequence:
#
# PCOD9575719 Si02
#       8
#     6   3   6   6   6   6   6   3
#     4  11  20  38  64  83 123 170 210 257 310 373
#     4  10  17  34  68  86 111 162 220 241 298 394
#     4  11  21  35  60  88 121 168 213 257 311 378
#     4  11  21  37  56  86 121 166 212 254 310 369
#     4  10  19  37  59  89 114 160 211 252 316 380
#     4  11  23  41  55  84 127 163 211 264 311 368
#     4  10  22  39  56  87 121 162 213 258 313 372
#     4  10  21  34  58  88 131 158 206 265 316 364
#
# _framework density 18.466629999999999
#
# number of rings (size 3 to 8) (size 9 to 14) (size 15 to 20)
#    0.000    1.429    4.286    3.857    0.000    2.286 
#   10.286    0.000    0.000    0.000    0.000   16.000 
#    0.000    0.000    0.000    0.000    0.000    0.000 
#
# Total GULP energy -234528.611724 kJ/mol
# GULP energy per Si atom -5584.014565 kJ/mol
# Density = 1.842460 g / cm^3
# Si number density = 18.466630 Si / 1000 Ang^3
#
#
#
# Elastic Constant Matrix: (Units=GPa)
#
#
# Indices 1 2 3 4 5 6 
#
# 1 64.1760 17.2171 43.5512 -5.8595 0.0001 0.0000
# 2 17.2171 64.1760 43.5512 5.8595 -0.0001 0.0000
# 3 43.5512 43.5512 137.2004 0.0000 0.0000 0.0000
# 4 -5.8595 5.8595 0.0000 26.6673 0.0000 -0.0001
# 5 0.0001 -0.0001 0.0000 0.0000 26.6673 -5.8595
# 6 0.0000 0.0000 0.0000 -0.0001 -5.8595 23.4794
#
#
#
# Elastic Compliance Matrix: (Units=1/GPa)
#
#
# Indices 1 2 3 4 5 6 
#
# 1 0.020569 -0.001962 -0.005906 0.004951 0.000000 0.000000
# 2 -0.001962 0.020569 -0.005906 -0.004951 0.000000 0.000000
# 3 -0.005906 -0.005906 0.011038 0.000000 0.000000 0.000000
# 4 0.004951 -0.004951 0.000000 0.039675 0.000000 0.000000
# 5 0.000000 0.000000 0.000000 0.000000 0.039675 0.009901
# 6 0.000000 0.000000 0.000000 0.000000 0.009901 0.045061
#
#
# Mechanical properties :
#
#
# Convention : Reuss Voigt Hill
#
# Bulk Modulus (GPa) = 40.60683 52.68796 46.64739
# Shear Modulus (GPa) = 23.54670 26.11166 24.82918
#
# Velocity S-wave (km/s) = 3.57472 3.76439 3.67078
# Velocity P-wave (km/s) = 6.25102 6.89112 6.57886
#
# Compressibility (1/GPa) = 0.02462640
#
# Stress axis : x y z
#
# Youngs Moduli (GPa) = 48.61775 48.61775 90.59436
#
# Poissons Ratio (x) = 0.09539 0.53507
# Poissons Ratio (y) = 0.09539 0.53507
# Poissons Ratio (z) = 0.28715 0.28715
#
# Static dielectric constant tensor:
#      x y z
#    x 1.637240 0.000000 0.000000 
#    y 0.000000 1.637240 0.000000 
#    z 0.000000 0.000000 1.649430 
# 
# From -- ./inp_files/1833.got.cif
#   From: 2010.05.17/outbox.cif.g08.bks.cpg/sg152_1_cif.got.tgz:1833.got - 2010.05.20 10:36:06.
