data_PCOD9575353
_publ_section_title
;
Structure prediction by ZEFSAII (Michael W. Deem and Ramdas Pophale) SiO2 
 PCOD9575353
Probable space group: P 3 1 2
;
_chemical_formula_sum "Si O2"
_cell_formula_units_Z 32
_cell_length_a 16.872226
_cell_length_b 16.872226
_cell_length_c 8.708184
_cell_angle_alpha 90.000000
_cell_angle_beta 90.000000
_cell_angle_gamma 120.000000
_cell_volume 2146.856403
_symmetry_space_group_name_H-M "P 3 1 2"
_symmetry_group_IT_number 149
_symmetry_cell_setting 'hexagonal'
loop_
_space_group_symop_operation_xyz
x,y,z
-y,x-y,z
-x+y,-x,z
-y,-x,-z
-x+y,y,-z
x,x-y,-z
loop_
_atom_site_type_symbol
_atom_site_label
_atom_site_fract_x
_atom_site_fract_y
_atom_site_fract_z
Si Si1 0.149809 0.484071 0.814987
Si Si2 0.894433 0.105568 0.184132
Si Si3 0.234969 0.949383 0.683661
Si Si4 0.050616 0.285586 0.316340
Si Si5 0.000000 0.000000 0.813655
Si Si6 0.334262 0.484071 0.814987
O O1 0.080321 0.387111 0.740434
O O2 0.251934 0.503869 0.777137
O O3 0.137478 0.568739 0.766744
O O4 0.140745 0.475692 0.000000
O O5 0.955818 0.207770 0.246476
O O6 0.792230 0.044181 0.246475
O O7 0.893101 0.106900 0.000000
O O8 0.947595 0.052405 0.236848
O O9 0.235274 0.953835 0.500000
O O10 0.134485 0.865514 0.733201
O O11 0.080321 0.387111 0.259567
O O12 0.000000 0.000000 0.000000
#
# Coordination Sequence:
#
# PCOD9575353 Si02
#       6
#     6   6   6   6   2   6
#     4   9  17  30  48  68  90 119 155 193 229 267
#     4  11  19  31  47  65  89 121 159 193 225 264
#     4  10  20  31  43  64  93 123 153 187 228 273
#     4  10  20  31  43  64  93 123 153 187 228 273
#     4   9  18  27  43  65  85 117 157 191 223 258
#     4   9  17  30  48  68  90 119 155 193 229 267
#
# _framework density 14.905516
#
# number of rings (size 3 to 8) (size 9 to 14) (size 15 to 20)
#    0.000    2.250    1.875    2.062    0.000    3.750 
#    0.000    0.000    0.000    2.250    0.000    0.000 
#    1.875    0.000    3.375    0.000    3.375    0.000 
#
# Total GULP energy -178485.816586 kJ/mol
# GULP energy per Si atom -5577.681768 kJ/mol
# Density = 1.487159 g / cm^3
# Si number density = 14.905516 Si / 1000 Ang^3
#
#
#
# Elastic Constant Matrix: (Units=GPa)
#
#
# Indices 1 2 3 4 5 6 
#
# 1 117.4253 64.3778 38.0710 0.0000 0.0000 0.0000
# 2 64.3778 117.4253 38.0710 0.0000 0.0000 0.0000
# 3 38.0710 38.0710 36.8955 0.0000 0.0000 0.0000
# 4 0.0000 0.0000 0.0000 18.8621 0.0000 0.0000
# 5 0.0000 0.0000 0.0000 0.0000 18.8621 0.0000
# 6 0.0000 0.0000 0.0000 0.0000 0.0000 26.5238
#
#
#
# Elastic Compliance Matrix: (Units=1/GPa)
#
#
# Indices 1 2 3 4 5 6 
#
# 1 0.014269 -0.004582 -0.009995 0.000000 0.000000 0.000000
# 2 -0.004582 0.014269 -0.009995 0.000000 0.000000 0.000000
# 3 -0.009995 -0.009995 0.047731 0.000000 0.000000 0.000000
# 4 0.000000 0.000000 0.000000 0.053016 0.000000 0.000000
# 5 0.000000 0.000000 0.000000 0.000000 0.053016 0.000000
# 6 0.000000 0.000000 0.000000 0.000000 0.000000 0.037702
#
#
# Mechanical properties :
#
#
# Convention : Reuss Voigt Hill
#
# Bulk Modulus (GPa) = 36.86876 61.42065 49.14470
# Shear Modulus (GPa) = 17.97335 21.59803 19.78569
#
# Velocity S-wave (km/s) = 3.47626 3.81070 3.64731
# Velocity P-wave (km/s) = 6.39540 7.78832 7.12598
#
# Compressibility (1/GPa) = 0.02712324
#
# Stress axis : x y z
#
# Youngs Moduli (GPa) = 70.08287 70.08287 20.95075
#
# Poissons Ratio (x) = 0.32113 0.20941
# Poissons Ratio (y) = 0.32113 0.20941
# Poissons Ratio (z) = 0.70050 0.70050
#
# Static dielectric constant tensor:
#      x y z
#    x 1.481500 0.000000 0.000000 
#    y 0.000000 1.481500 0.000000 
#    z 0.000000 0.000000 1.496190 
# 
# From -- ./inp_files/590.got.cif
#   From: 2010.05.17/outbox.cif.g08.bks.cpg/sg149_cif.got.tgz:590.got - 2010.05.20 13:52:34.
