data_PCOD9575103
_publ_section_title
;
Structure prediction by ZEFSAII (Michael W. Deem and Ramdas Pophale) SiO2 
 PCOD9575103
Probable space group: R -3
;
_chemical_formula_sum "Si O2"
_cell_formula_units_Z 72
_cell_length_a 11.306997
_cell_length_b 11.306997
_cell_length_c 29.887434
_cell_angle_alpha 90.000000
_cell_angle_beta 90.000000
_cell_angle_gamma 120.000000
_cell_volume 3309.129899
_symmetry_space_group_name_H-M "R -3"
_symmetry_group_IT_number 148
_symmetry_cell_setting 'hexagonal'
loop_
_space_group_symop_operation_xyz
x,y,z
-y,x-y,z
-x+y,-x,z
-x,-y,-z
y,-x+y,-z
x-y,x,-z
2/3+x,1/3+y,1/3+z
2/3-y,1/3+x-y,1/3+z
2/3-x+y,1/3-x,1/3+z
2/3-x,1/3-y,1/3-z
2/3+y,1/3-x+y,1/3-z
2/3+x-y,1/3+x,1/3-z
1/3+x,2/3+y,2/3+z
1/3-y,2/3+x-y,2/3+z
1/3-x+y,2/3-x,2/3+z
1/3-x,2/3-y,2/3-z
1/3+y,2/3-x+y,2/3-z
1/3+x-y,2/3+x,2/3-z
loop_
_atom_site_type_symbol
_atom_site_label
_atom_site_fract_x
_atom_site_fract_y
_atom_site_fract_z
Si Si1 0.763209 0.687426 0.049993
Si Si2 0.603910 0.904448 0.144935
Si Si3 0.829428 0.478528 0.533029
Si Si4 0.236739 0.312286 0.050428
O O1 0.695103 0.574047 0.088033
O O2 0.729432 0.808357 0.056609
O O3 0.926236 0.748573 0.052273
O O4 0.719451 0.630149 0.999616
O O5 0.587252 0.760615 0.160471
O O6 0.759528 0.011099 0.159362
O O7 0.591215 0.909997 0.091710
O O8 0.680153 0.466026 0.531320
#
# Coordination Sequence:
#
# PCOD9575103 Si02
#       4
#    18  18  18  18
#     4  10  20  43  62 100 126 166 216 258 314 368
#     4  12  25  44  65  94 130 168 211 257 320 382
#     4  10  24  42  65  96 125 166 212 265 312 370
#     4  10  22  37  68  93 131 168 206 265 311 372
#
# _framework density 21.757985000000001
#
# number of rings (size 3 to 8) (size 9 to 14) (size 15 to 20)
#    0.500    1.000    2.500    2.250    3.500    4.000 
#    4.500    3.750    0.000    0.000    0.000    0.000 
#    0.000    0.000    0.000    0.000    0.000    0.000 
#
# Total GULP energy -134167.220219 kJ/mol
# GULP energy per Si atom -5590.300842 kJ/mol
# Density = 2.170846 g / cm^3
# Si number density = 21.757985 Si / 1000 Ang^3
#
#
#
# Elastic Constant Matrix: (Units=GPa)
#
#
# Indices 1 2 3 4 5 6 
#
# 1 67.4526 12.2666 20.8550 6.3887 0.1636 0.0000
# 2 12.2666 67.4526 20.8550 -6.3887 -0.1636 0.0000
# 3 20.8550 20.8550 141.4346 0.0000 0.0000 0.0000
# 4 6.3887 -6.3887 0.0000 31.2469 0.0000 -0.1636
# 5 0.1636 -0.1636 0.0000 0.0000 31.2469 6.3887
# 6 0.0000 0.0000 0.0000 -0.1636 6.3887 27.5930
#
#
#
# Elastic Compliance Matrix: (Units=1/GPa)
#
#
# Indices 1 2 3 4 5 6 
#
# 1 0.016307 -0.002714 -0.002004 -0.003889 -0.000100 0.000000
# 2 -0.002714 0.016307 -0.002004 0.003889 0.000100 0.000000
# 3 -0.002004 -0.002004 0.007661 0.000000 0.000000 0.000000
# 4 -0.003889 0.003889 0.000000 0.033595 0.000000 0.000199
# 5 -0.000100 0.000100 0.000000 0.000000 0.033595 -0.007778
# 6 0.000000 0.000000 0.000000 0.000199 -0.007778 0.038043
#
#
# Mechanical properties :
#
#
# Convention : Reuss Voigt Hill
#
# Bulk Modulus (GPa) = 37.27210 42.69923 39.98566
# Shear Modulus (GPa) = 29.78011 32.84159 31.31085
#
# Velocity S-wave (km/s) = 3.70361 3.88932 3.79760
# Velocity P-wave (km/s) = 5.95453 6.31160 6.13566
#
# Compressibility (1/GPa) = 0.02682972
#
# Stress axis : x y z
#
# Youngs Moduli (GPa) = 61.32285 61.32285 130.52302
#
# Poissons Ratio (x) = 0.16646 0.26161
# Poissons Ratio (y) = 0.16646 0.26161
# Poissons Ratio (z) = 0.12291 0.12291
#
# Static dielectric constant tensor:
#      x y z
#    x 1.806880 0.000000 0.000000 
#    y 0.000000 1.806880 0.000000 
#    z 0.000000 0.000000 1.771410 
# 
# From -- ./inp_files/3890.got.cif
#   From: 2010.05.17/outbox.cif.g08.bks.cpg/sg148_2_cif.got.tgz:3890.got - 2010.05.20 13:50:20.
