data_PCOD9575806
_publ_section_title
;
Structure prediction by ZEFSAII (Michael W. Deem and Ramdas Pophale) SiO2 
 PCOD9575806
Probable space group: P 31 2 1
;
_chemical_formula_sum "Si O2"
_cell_formula_units_Z 42
_cell_length_a 9.065013
_cell_length_b 9.065013
_cell_length_c 28.361875
_cell_angle_alpha 90.000000
_cell_angle_beta 90.000000
_cell_angle_gamma 120.000000
_cell_volume 2018.377670
_symmetry_space_group_name_H-M "P 31 2 1"
_symmetry_group_IT_number 152
_symmetry_cell_setting 'hexagonal'
loop_
_space_group_symop_operation_xyz
x,y,z
-y,x-y,1/3+z
-x+y,-x,2/3+z
x-y,-y,2/3-z
-x,-x+y,1/3-z
y,x,-z
loop_
_atom_site_type_symbol
_atom_site_label
_atom_site_fract_x
_atom_site_fract_y
_atom_site_fract_z
Si Si1 0.275772 0.143420 0.798841
Si Si2 0.475707 0.340931 0.141197
Si Si3 0.114043 0.120867 0.445969
Si Si4 0.628135 0.148313 0.365528
Si Si5 0.534546 0.898355 0.619402
Si Si6 0.299731 0.175210 0.354907
Si Si7 0.029303 0.403726 0.452358
O O1 0.307734 0.303821 0.831799
O O2 0.400500 0.213895 0.753595
O O3 0.080874 0.059983 0.779406
O O4 0.272349 0.000000 0.833334
O O5 0.484673 0.394018 0.086874
O O6 0.630375 0.483424 0.171785
O O7 0.474182 0.162962 0.139803
O O8 0.165238 0.165238 0.500000
O O9 0.264155 0.165951 0.410133
O O10 0.042191 0.245380 0.433004
O O11 0.786048 0.339880 0.364471
O O12 0.473478 0.173499 0.348145
O O13 0.623425 0.000000 0.333334
O O14 0.665635 0.973573 0.661883
O O15 0.531243 0.048467 0.589323
O O16 0.149957 0.000000 0.333334
#
# Coordination Sequence:
#
# PCOD9575806 Si02
#       7
#     6   6   6   6   6   6   6
#     4  10  19  38  68  95 129 163 219 280 338 391
#     4  10  20  39  62  93 121 170 209 271 322 400
#     4  11  20  37  66  97 120 166 222 278 322 402
#     4  10  24  43  61  88 132 179 220 267 340 409
#     4  10  23  42  60  97 131 174 215 275 336 409
#     4  11  23  41  66  91 128 176 222 276 332 405
#     4  10  21  37  64  90 129 163 218 259 340 391
#
# _framework density 20.808789999999998
#
# number of rings (size 3 to 8) (size 9 to 14) (size 15 to 20)
#    0.000    1.714    4.286    0.857    2.000    1.143 
#    2.571    6.429    0.000    0.000    0.000    0.000 
#    0.000    0.000    0.000    0.000    0.000    0.000 
#
# Total GULP energy -234131.110220 kJ/mol
# GULP energy per Si atom -5574.550243 kJ/mol
# Density = 2.076143 g / cm^3
# Si number density = 20.808790 Si / 1000 Ang^3
#
#
#
# Elastic Constant Matrix: (Units=GPa)
#
#
# Indices 1 2 3 4 5 6 
#
# 1 53.8530 8.1435 9.4283 -0.6888 0.0001 0.0000
# 2 8.1435 53.8530 9.4283 0.6888 -0.0001 0.0000
# 3 9.4283 9.4283 70.2180 0.0000 0.0000 0.0000
# 4 -0.6888 0.6888 0.0000 24.9389 0.0000 -0.0001
# 5 0.0001 -0.0001 0.0000 0.0000 24.9389 -0.6888
# 6 0.0000 0.0000 0.0000 -0.0001 -0.6888 22.8547
#
#
#
# Elastic Compliance Matrix: (Units=1/GPa)
#
#
# Indices 1 2 3 4 5 6 
#
# 1 0.019356 -0.002539 -0.002258 0.000605 0.000000 0.000000
# 2 -0.002539 0.019356 -0.002258 -0.000605 0.000000 0.000000
# 3 -0.002258 -0.002258 0.014848 0.000000 0.000000 0.000000
# 4 0.000605 -0.000605 0.000000 0.040131 0.000000 0.000000
# 5 0.000000 0.000000 0.000000 0.000000 0.040131 0.001209
# 6 0.000000 0.000000 0.000000 0.000000 0.001209 0.043791
#
#
# Mechanical properties :
#
#
# Convention : Reuss Voigt Hill
#
# Bulk Modulus (GPa) = 25.34907 25.76933 25.55920
# Shear Modulus (GPa) = 24.40522 24.60812 24.50667
#
# Velocity S-wave (km/s) = 3.42838 3.44260 3.43550
# Velocity P-wave (km/s) = 5.28016 5.31157 5.29589
#
# Compressibility (1/GPa) = 0.03944919
#
# Stress axis : x y z
#
# Youngs Moduli (GPa) = 51.66322 51.66322 67.35037
#
# Poissons Ratio (x) = 0.13119 0.15208
# Poissons Ratio (y) = 0.13119 0.15208
# Poissons Ratio (z) = 0.11666 0.11666
#
# Static dielectric constant tensor:
#      x y z
#    x 1.799660 0.000000 0.000000 
#    y 0.000000 1.799660 0.000000 
#    z 0.000000 0.000000 1.774950 
# 
# From -- ./inp_files/3699.got.cif
#   From: 2010.05.17/outbox.cif.g08.bks.cpg/sg152_2_cif.got.tgz:3699.got - 2010.05.20 10:36:06.
