data_PCOD9575037
_publ_section_title
;
Structure prediction by ZEFSAII (Michael W. Deem and Ramdas Pophale) SiO2 
 PCOD9575037
Probable space group: R -3
;
_chemical_formula_sum "Si O2"
_cell_formula_units_Z 126
_cell_length_a 16.408721
_cell_length_b 16.408721
_cell_length_c 21.136593
_cell_angle_alpha 90.000000
_cell_angle_beta 90.000000
_cell_angle_gamma 120.000000
_cell_volume 4928.503598
_symmetry_space_group_name_H-M "R -3"
_symmetry_group_IT_number 148
_symmetry_cell_setting 'hexagonal'
loop_
_space_group_symop_operation_xyz
x,y,z
-y,x-y,z
-x+y,-x,z
-x,-y,-z
y,-x+y,-z
x-y,x,-z
2/3+x,1/3+y,1/3+z
2/3-y,1/3+x-y,1/3+z
2/3-x+y,1/3-x,1/3+z
2/3-x,1/3-y,1/3-z
2/3+y,1/3-x+y,1/3-z
2/3+x-y,1/3+x,1/3-z
1/3+x,2/3+y,2/3+z
1/3-y,2/3+x-y,2/3+z
1/3-x+y,2/3-x,2/3+z
1/3-x,2/3-y,2/3-z
1/3+y,2/3-x+y,2/3-z
1/3+x-y,2/3+x,2/3-z
loop_
_atom_site_type_symbol
_atom_site_label
_atom_site_fract_x
_atom_site_fract_y
_atom_site_fract_z
Si Si1 0.436483 0.089781 0.083260
Si Si2 0.083397 0.612419 0.522311
Si Si3 0.536583 0.826647 0.261208
Si Si4 0.790073 0.869308 0.979553
Si Si5 0.325224 0.909450 0.269713
Si Si6 0.832210 0.301915 0.594669
Si Si7 0.473206 0.477661 0.242039
O O1 0.547558 0.146869 0.096020
O O2 0.358629 0.086326 0.130764
O O3 0.415216 0.981919 0.076594
O O4 0.420854 0.108960 0.010030
O O5 0.108106 0.559442 0.575703
O O6 0.123671 0.611920 0.453567
O O7 0.133563 0.724983 0.536473
O O8 0.527601 0.726511 0.246729
O O9 0.498731 0.815943 0.332926
O O10 0.501430 0.890551 0.227416
O O11 0.862653 0.831936 0.984453
O O12 0.696428 0.801162 0.019599
O O13 0.247606 0.940814 0.265011
O O14 0.420013 0.983060 0.234508
#
# Coordination Sequence:
#
# PCOD9575037 Si02
#       7
#    18  18  18  18  18  18  18
#     4   8  15  31  48  73 102 137 178 224 273 331
#     4  10  19  31  52  83 112 136 192 239 273 334
#     4   8  17  33  51  72 107 139 180 224 276 340
#     4  10  21  37  59  80 110 148 195 240 283 331
#     4   9  16  32  54  74 103 146 178 225 278 336
#     4   9  18  29  52  76 110 140 171 233 294 316
#     4  10  19  33  57  81 101 146 199 227 264 352
#
# _framework density 25.565570999999998
#
# number of rings (size 3 to 8) (size 9 to 14) (size 15 to 20)
#    0.000    2.857    1.429    1.857    4.000    0.000 
#    0.857    0.714   12.571    0.000    0.000    1.000 
#    0.000    0.000    0.000    0.000    0.000    0.000 
#
# Total GULP energy -234651.712323 kJ/mol
# GULP energy per Si atom -5586.945532 kJ/mol
# Density = 2.550738 g / cm^3
# Si number density = 25.565571 Si / 1000 Ang^3
#
#
#
# Elastic Constant Matrix: (Units=GPa)
#
#
# Indices 1 2 3 4 5 6 
#
# 1 89.8931 8.8348 11.4582 -8.4441 -6.8488 0.0000
# 2 8.8348 89.8931 11.4582 8.4441 6.8488 0.0000
# 3 11.4582 11.4582 139.0667 0.0000 0.0000 0.0000
# 4 -8.4441 8.4441 0.0000 14.2847 0.0000 6.8488
# 5 -6.8488 6.8488 0.0000 0.0000 14.2847 -8.4441
# 6 0.0000 0.0000 0.0000 6.8488 -8.4441 40.5291
#
#
#
# Elastic Compliance Matrix: (Units=1/GPa)
#
#
# Indices 1 2 3 4 5 6 
#
# 1 0.012914 -0.002588 -0.000851 0.009164 0.007432 0.000000
# 2 -0.002588 0.012914 -0.000851 -0.009164 -0.007432 0.000000
# 3 -0.000851 -0.000851 0.007331 0.000000 0.000000 0.000000
# 4 0.009164 -0.009164 0.000000 0.087966 0.000000 -0.014865
# 5 0.007432 -0.007432 0.000000 0.000000 0.087966 0.018327
# 6 0.000000 0.000000 0.000000 -0.014865 0.018327 0.031004
#
#
# Mechanical properties :
#
#
# Convention : Reuss Voigt Hill
#
# Bulk Modulus (GPa) = 40.68287 42.48394 41.58341
# Shear Modulus (GPa) = 19.46533 32.95981 26.21257
#
# Velocity S-wave (km/s) = 2.76232 3.59448 3.20552
# Velocity P-wave (km/s) = 5.11093 5.82071 5.47733
#
# Compressibility (1/GPa) = 0.02458037
#
# Stress axis : x y z
#
# Youngs Moduli (GPa) = 77.43443 77.43443 136.40704
#
# Poissons Ratio (x) = 0.20039 0.11606
# Poissons Ratio (y) = 0.20039 0.11606
# Poissons Ratio (z) = 0.06588 0.06588
#
# Static dielectric constant tensor:
#      x y z
#    x 2.033190 0.000000 0.000000 
#    y 0.000000 2.033190 0.000000 
#    z 0.000000 0.000000 2.120530 
# 
# From -- ./inp_files/3452.got.cif
#   From: 2010.05.17/outbox.cif.g08.bks.cpg/sg148_2_cif.got.tgz:3452.got - 2010.05.20 13:50:20.
