data_PCOD9575815
_publ_section_title
;
Structure prediction by ZEFSAII (Michael W. Deem and Ramdas Pophale) SiO2 
 PCOD9575815
Probable space group: P 31 2 1
;
_chemical_formula_sum "Si O2"
_cell_formula_units_Z 24
_cell_length_a 17.295489
_cell_length_b 17.295489
_cell_length_c 5.402260
_cell_angle_alpha 90.000000
_cell_angle_beta 90.000000
_cell_angle_gamma 120.000000
_cell_volume 1399.496461
_symmetry_space_group_name_H-M "P 31 2 1"
_symmetry_group_IT_number 152
_symmetry_cell_setting 'hexagonal'
loop_
_space_group_symop_operation_xyz
x,y,z
-y,x-y,1/3+z
-x+y,-x,2/3+z
x-y,-y,2/3-z
-x,-x+y,1/3-z
y,x,-z
loop_
_atom_site_type_symbol
_atom_site_label
_atom_site_fract_x
_atom_site_fract_y
_atom_site_fract_z
Si Si1 0.396393 0.498521 0.008479
Si Si2 0.454309 0.207145 0.833285
Si Si3 0.390205 0.759372 0.992411
Si Si4 0.416613 0.103392 0.317730
O O1 0.366206 0.521190 0.746914
O O2 0.421593 0.421593 0.000000
O O3 0.308380 0.471933 0.173137
O O4 0.490808 0.590548 0.052038
O O5 0.552961 0.219050 0.865177
O O6 0.419234 0.151848 0.577888
O O7 0.404657 0.153054 0.079912
O O8 0.398746 0.678468 0.888704
O O9 0.340668 0.000000 0.333334
#
# Coordination Sequence:
#
# PCOD9575815 Si02
#       4
#     6   6   6   6
#     4  10  20  33  48  74 104 134 168 219 268 303
#     4  11  20  34  52  74  97 133 171 220 257 297
#     4  11  19  32  51  68  96 130 188 220 254 285
#     4  10  22  37  53  72  99 134 178 217 253 298
#
# _framework density 17.149024000000001
#
# number of rings (size 3 to 8) (size 9 to 14) (size 15 to 20)
#    0.000    1.500    2.500    5.250    0.000    2.000 
#    0.000   12.500    0.000    0.000    0.000    0.000 
#    0.000    0.000    0.000   11.250    0.000    3.000 
#
# Total GULP energy -133644.810410 kJ/mol
# GULP energy per Si atom -5568.533767 kJ/mol
# Density = 1.710999 g / cm^3
# Si number density = 17.149024 Si / 1000 Ang^3
#
#
#
# Elastic Constant Matrix: (Units=GPa)
#
#
# Indices 1 2 3 4 5 6 
#
# 1 72.8263 30.0231 40.6101 -0.2437 0.0000 0.0000
# 2 30.0231 72.8263 40.6101 0.2437 0.0000 0.0000
# 3 40.6101 40.6101 107.5417 0.0000 0.0000 0.0000
# 4 -0.2437 0.2437 0.0000 15.0927 0.0000 0.0000
# 5 0.0000 0.0000 0.0000 0.0000 15.0927 -0.2437
# 6 0.0000 0.0000 0.0000 0.0000 -0.2437 21.4016
#
#
#
# Elastic Compliance Matrix: (Units=1/GPa)
#
#
# Indices 1 2 3 4 5 6 
#
# 1 0.018611 -0.004756 -0.005232 0.000377 0.000000 0.000000
# 2 -0.004756 0.018611 -0.005232 -0.000377 0.000000 0.000000
# 3 -0.005232 -0.005232 0.013250 0.000000 0.000000 0.000000
# 4 0.000377 -0.000377 0.000000 0.066269 0.000000 0.000000
# 5 0.000000 0.000000 0.000000 0.000000 0.066269 0.000755
# 6 0.000000 0.000000 0.000000 0.000000 0.000755 0.046734
#
#
# Mechanical properties :
#
#
# Convention : Reuss Voigt Hill
#
# Bulk Modulus (GPa) = 49.92036 52.85342 51.38689
# Shear Modulus (GPa) = 18.73636 19.78082 19.25859
#
# Velocity S-wave (km/s) = 3.30898 3.39996 3.35478
# Velocity P-wave (km/s) = 6.61604 6.80440 6.71089
#
# Compressibility (1/GPa) = 0.02003191
#
# Stress axis : x y z
#
# Youngs Moduli (GPa) = 53.73240 53.73240 75.47197
#
# Poissons Ratio (x) = 0.25557 0.39485
# Poissons Ratio (y) = 0.25557 0.39485
# Poissons Ratio (z) = 0.28111 0.28111
#
# Static dielectric constant tensor:
#      x y z
#    x 1.594660 0.000000 0.000000 
#    y 0.000000 1.594660 0.000000 
#    z 0.000000 0.000000 1.690880 
# 
# From -- ./inp_files/279.got.cif
#   From: 2010.05.17/outbox.cif.g08.bks.cpg/sg152_1_cif.got.tgz:279.got - 2010.05.20 10:36:06.
