data_PCOD9575261
_publ_section_title
;
Structure prediction by ZEFSAII (Michael W. Deem and Ramdas Pophale) SiO2 
 PCOD9575261
Probable space group: R -3
;
_chemical_formula_sum "Si O2"
_cell_formula_units_Z 108
_cell_length_a 16.750512
_cell_length_b 16.750512
_cell_length_c 19.149252
_cell_angle_alpha 90.000000
_cell_angle_beta 90.000000
_cell_angle_gamma 120.000000
_cell_volume 4653.059636
_symmetry_space_group_name_H-M "R -3"
_symmetry_group_IT_number 148
_symmetry_cell_setting 'hexagonal'
loop_
_space_group_symop_operation_xyz
x,y,z
-y,x-y,z
-x+y,-x,z
-x,-y,-z
y,-x+y,-z
x-y,x,-z
2/3+x,1/3+y,1/3+z
2/3-y,1/3+x-y,1/3+z
2/3-x+y,1/3-x,1/3+z
2/3-x,1/3-y,1/3-z
2/3+y,1/3-x+y,1/3-z
2/3+x-y,1/3+x,1/3-z
1/3+x,2/3+y,2/3+z
1/3-y,2/3+x-y,2/3+z
1/3-x+y,2/3-x,2/3+z
1/3-x,2/3-y,2/3-z
1/3+y,2/3-x+y,2/3-z
1/3+x-y,2/3+x,2/3-z
loop_
_atom_site_type_symbol
_atom_site_label
_atom_site_fract_x
_atom_site_fract_y
_atom_site_fract_z
Si Si1 0.764947 0.892888 0.282996
Si Si2 0.627504 0.556922 0.922289
Si Si3 0.994064 0.304292 0.438411
Si Si4 0.165399 0.349914 0.622357
Si Si5 0.858045 0.794016 0.093513
Si Si6 0.447511 0.830846 0.813445
O O1 0.701692 0.784245 0.269328
O O2 0.786357 0.915749 0.364667
O O3 0.701617 0.936937 0.255605
O O4 0.846520 0.932843 0.227402
O O5 0.649976 0.575433 0.840122
O O6 0.724989 0.613681 0.960610
O O7 0.924492 0.232543 0.380519
O O8 0.944113 0.365582 0.453455
O O9 0.193986 0.425133 0.683085
O O10 0.176804 0.398376 0.547619
O O11 0.878113 0.899062 0.101042
O O12 0.946260 0.806506 0.134417
#
# Coordination Sequence:
#
# PCOD9575261 Si02
#       6
#    18  18  18  18  18  18
#     4  11  23  39  65  87 126 175 213 260 320 370
#     4  11  21  41  61  88 125 166 220 261 308 375
#     4  11  21  42  62  94 127 168 209 269 316 374
#     4  11  22  38  65  95 127 163 217 258 318 385
#     4  11  23  39  64  97 132 167 209 258 327 387
#     4  11  22  41  60  94 134 172 207 260 321 387
#
# _framework density 23.210533999999999
#
# number of rings (size 3 to 8) (size 9 to 14) (size 15 to 20)
#    0.000    1.000    6.667    2.333    0.000    0.667 
#    3.000    4.167    0.000    0.667    0.000    2.333 
#    0.000    0.000    0.000    0.000    0.000    0.000 
#
# Total GULP energy -200419.709856 kJ/mol
# GULP energy per Si atom -5567.214163 kJ/mol
# Density = 2.315771 g / cm^3
# Si number density = 23.210534 Si / 1000 Ang^3
#
#
#
# Elastic Constant Matrix: (Units=GPa)
#
#
# Indices 1 2 3 4 5 6 
#
# 1 74.1284 24.2945 5.9963 8.9097 -1.0199 0.0000
# 2 24.2945 74.1284 5.9963 -8.9097 1.0199 0.0000
# 3 5.9963 5.9963 119.4819 0.0000 0.0000 0.0000
# 4 8.9097 -8.9097 0.0000 19.6727 0.0000 1.0199
# 5 -1.0199 1.0199 0.0000 0.0000 19.6727 8.9097
# 6 0.0000 0.0000 0.0000 1.0199 8.9097 24.9169
#
#
#
# Elastic Compliance Matrix: (Units=1/GPa)
#
#
# Indices 1 2 3 4 5 6 
#
# 1 0.017114 -0.006891 -0.000513 -0.010872 0.001245 0.000000
# 2 -0.006891 0.017114 -0.000513 0.010872 -0.001245 0.000000
# 3 -0.000513 -0.000513 0.008421 0.000000 0.000000 0.000000
# 4 -0.010872 0.010872 0.000000 0.060809 0.000000 -0.002489
# 5 0.001245 -0.001245 0.000000 0.000000 0.060809 -0.021744
# 6 0.000000 0.000000 0.000000 -0.002489 -0.021744 0.048010
#
#
# Mechanical properties :
#
#
# Convention : Reuss Voigt Hill
#
# Bulk Modulus (GPa) = 37.29350 37.81253 37.55302
# Shear Modulus (GPa) = 21.09268 28.28255 24.68761
#
# Velocity S-wave (km/s) = 3.01783 3.49452 3.26489
# Velocity P-wave (km/s) = 5.31464 5.71040 5.51607
#
# Compressibility (1/GPa) = 0.02681432
#
# Stress axis : x y z
#
# Youngs Moduli (GPa) = 58.43188 58.43188 118.75123
#
# Poissons Ratio (x) = 0.40267 0.06092
# Poissons Ratio (y) = 0.40267 0.06092
# Poissons Ratio (z) = 0.02998 0.02998
#
# Static dielectric constant tensor:
#      x y z
#    x 1.993330 0.000000 0.000000 
#    y 0.000000 1.993330 0.000000 
#    z 0.000000 0.000000 1.992150 
# 
# From -- ./inp_files/3121.got.cif
#   From: 2010.05.17/outbox.cif.g08.bks.cpg/sg148_2_cif.got.tgz:3121.got - 2010.05.20 13:50:20.
