data_PCOD9575644
_publ_section_title
;
Structure prediction by ZEFSAII (Michael W. Deem and Ramdas Pophale) SiO2 
 PCOD9575644
Probable space group: P 31 1 2
;
_chemical_formula_sum "Si O2"
_cell_formula_units_Z 30
_cell_length_a 8.011805
_cell_length_b 8.011805
_cell_length_c 25.789413
_cell_angle_alpha 90.000000
_cell_angle_beta 90.000000
_cell_angle_gamma 120.000000
_cell_volume 1433.615968
_symmetry_space_group_name_H-M "P 31 1 2"
_symmetry_group_IT_number 151
_symmetry_cell_setting 'hexagonal'
loop_
_space_group_symop_operation_xyz
x,y,z
-y,x-y,1/3+z
-x+y,-x,2/3+z
-y,-x,2/3-z
-x+y,y,1/3-z
x,x-y,-z
loop_
_atom_site_type_symbol
_atom_site_label
_atom_site_fract_x
_atom_site_fract_y
_atom_site_fract_z
Si Si1 0.707200 0.656078 0.616857
Si Si2 0.146491 0.712382 0.458005
Si Si3 0.362801 0.378985 0.684732
Si Si4 0.788469 0.720245 0.421329
Si Si5 0.534201 0.450729 0.152267
O O1 0.835510 0.671020 0.666667
O O2 0.497315 0.510450 0.639950
O O3 0.702336 0.554387 0.562067
O O4 0.753977 0.868115 0.600628
O O5 0.093597 0.546799 0.500000
O O6 0.127448 0.618972 0.401289
O O7 0.990828 0.784576 0.451449
O O8 0.354276 0.891375 0.469757
O O9 0.141652 0.283304 0.666667
O O10 0.398211 0.211787 0.707022
O O11 0.629426 0.595016 0.463166
O O12 0.743358 0.486715 0.166667
#
# Coordination Sequence:
#
# PCOD9575644 Si02
#       5
#     6   6   6   6   6
#     4  12  24  41  69  99 138 175 226 285 342 402
#     4  10  23  46  71  95 137 176 222 282 338 406
#     4  10  22  46  66  97 138 174 226 281 343 398
#     4  10  24  44  69  95 138 178 225 275 344 407
#     4  12  25  44  67 100 133 178 235 276 336 412
#
# _framework density 20.926103999999999
#
# number of rings (size 3 to 8) (size 9 to 14) (size 15 to 20)
#    1.200    0.000    2.000    4.200    2.800    1.600 
#    3.600    1.000    0.000    0.000    0.000    0.000 
#    0.000    0.000    0.000    0.000    0.000    0.000 
#
# Total GULP energy -167178.696801 kJ/mol
# GULP energy per Si atom -5572.623227 kJ/mol
# Density = 2.087848 g / cm^3
# Si number density = 20.926104 Si / 1000 Ang^3
#
#
#
# Elastic Constant Matrix: (Units=GPa)
#
#
# Indices 1 2 3 4 5 6 
#
# 1 77.4495 33.6041 36.3694 0.0000 5.4647 0.0000
# 2 33.6041 77.4495 36.3694 0.0000 -5.4647 0.0000
# 3 36.3694 36.3694 109.5895 0.0000 0.0000 0.0000
# 4 0.0000 0.0000 0.0000 45.0216 0.0000 -5.4647
# 5 5.4647 -5.4647 0.0000 0.0000 45.0216 0.0000
# 6 0.0000 0.0000 0.0000 -5.4647 0.0000 21.9227
#
#
#
# Elastic Compliance Matrix: (Units=1/GPa)
#
#
# Indices 1 2 3 4 5 6 
#
# 1 0.017512 -0.006007 -0.003818 0.000000 -0.002855 0.000000
# 2 -0.006007 0.017512 -0.003818 0.000000 0.002855 0.000000
# 3 -0.003818 -0.003818 0.011659 0.000000 0.000000 0.000000
# 4 0.000000 0.000000 0.000000 0.022905 0.000000 0.005709
# 5 -0.002855 0.002855 0.000000 0.000000 0.022905 0.000000
# 6 0.000000 0.000000 0.000000 0.005709 0.000000 0.047038
#
#
# Mechanical properties :
#
#
# Convention : Reuss Voigt Hill
#
# Bulk Modulus (GPa) = 51.55389 53.01935 52.28662
# Shear Modulus (GPa) = 28.85439 32.93622 30.89530
#
# Velocity S-wave (km/s) = 3.71734 3.97158 3.84656
# Velocity P-wave (km/s) = 6.56616 6.81342 6.69094
#
# Compressibility (1/GPa) = 0.01939718
#
# Stress axis : x y z
#
# Youngs Moduli (GPa) = 57.10258 57.10258 85.76795
#
# Poissons Ratio (x) = 0.34300 0.32749
# Poissons Ratio (y) = 0.34300 0.32749
# Poissons Ratio (z) = 0.21804 0.21804
#
# Static dielectric constant tensor:
#      x y z
#    x 1.765560 0.000000 0.000000 
#    y 0.000000 1.765560 0.000000 
#    z 0.000000 0.000000 1.794360 
# 
# From -- ./inp_files/4163.got.cif
#   From: 2010.05.17/outbox.cif.g08.bks.cpg/sg151_3_cif.got.tgz:4163.got - 2010.05.20 10:33:20.
