data_PCOD9575924
_publ_section_title
;
Structure prediction by ZEFSAII (Michael W. Deem and Ramdas Pophale) SiO2 
 PCOD9575924
Probable space group: P 31 2 1
;
_chemical_formula_sum "Si O2"
_cell_formula_units_Z 48
_cell_length_a 21.218287
_cell_length_b 21.218287
_cell_length_c 5.702290
_cell_angle_alpha 90.000000
_cell_angle_beta 90.000000
_cell_angle_gamma 120.000000
_cell_volume 2223.312813
_symmetry_space_group_name_H-M "P 31 2 1"
_symmetry_group_IT_number 152
_symmetry_cell_setting 'hexagonal'
loop_
_space_group_symop_operation_xyz
x,y,z
-y,x-y,1/3+z
-x+y,-x,2/3+z
x-y,-y,2/3-z
-x,-x+y,1/3-z
y,x,-z
loop_
_atom_site_type_symbol
_atom_site_label
_atom_site_fract_x
_atom_site_fract_y
_atom_site_fract_z
Si Si1 0.510270 0.158463 0.108179
Si Si2 0.919184 0.410937 0.938381
Si Si3 0.334679 0.609866 0.308399
Si Si4 0.877479 0.223849 0.441790
Si Si5 0.740001 0.186276 0.957079
Si Si6 0.743435 0.079843 0.320742
Si Si7 0.376873 0.439620 0.674878
Si Si8 0.271465 0.911710 0.065801
O O1 0.507369 0.116004 0.345577
O O2 0.585748 0.232534 0.140288
O O3 0.434479 0.158683 0.095404
O O4 0.513626 0.123857 0.856526
O O5 0.956123 0.497482 0.941608
O O6 0.955387 0.359420 0.943452
O O7 0.358590 0.641507 0.567533
O O8 0.293070 0.524660 0.253793
O O9 0.813810 0.140446 0.457527
O O10 0.916590 0.239213 0.186334
O O11 0.922542 0.243931 0.682909
O O12 0.747553 0.122256 0.083131
O O13 0.824367 0.244765 0.909803
O O14 0.676254 0.142168 0.768957
O O15 0.669345 0.067692 0.434826
O O16 0.733970 0.000000 0.333334
O O17 0.384696 0.384696 0.500000
#
# Coordination Sequence:
#
# PCOD9575924 Si02
#       8
#     6   6   6   6   6   6   6   6
#     4  10  21  38  51  68  86 114 133 172 209 245
#     4  10  21  36  53  65  86 108 139 166 207 246
#     4  12  26  32  47  67  88 111 137 165 211 255
#     4   9  18  31  50  63  84 101 134 160 199 237
#     4  11  22  36  44  62  88 103 139 170 201 250
#     4  11  21  34  48  63  83 113 138 169 204 244
#     4  12  23  34  50  66  86 114 139 172 207 254
#     4   9  18  33  49  64  78 108 127 165 204 229
#
# _framework density 21.589402
#
# number of rings (size 3 to 8) (size 9 to 14) (size 15 to 20)
#    0.000    1.500    3.750    3.000    5.250    1.000 
#    0.000    0.000    0.000    0.000    0.000    0.000 
#    0.000    0.000    0.000    0.000    0.000    0.000 
#
# Total GULP energy -267300.987063 kJ/mol
# GULP energy per Si atom -5568.770564 kJ/mol
# Density = 2.154026 g / cm^3
# Si number density = 21.589402 Si / 1000 Ang^3
#
#
#
# Elastic Constant Matrix: (Units=GPa)
#
#
# Indices 1 2 3 4 5 6 
#
# 1 61.0958 41.4783 17.9389 -0.5191 0.0000 0.0000
# 2 41.4783 61.0958 17.9389 0.5191 0.0000 0.0000
# 3 17.9389 17.9389 128.0335 0.0000 0.0000 0.0000
# 4 -0.5191 0.5191 0.0000 16.4321 0.0000 0.0000
# 5 0.0000 0.0000 0.0000 0.0000 16.4321 -0.5191
# 6 0.0000 0.0000 0.0000 0.0000 -0.5191 9.8088
#
#
#
# Elastic Compliance Matrix: (Units=1/GPa)
#
#
# Indices 1 2 3 4 5 6 
#
# 1 0.030656 -0.020404 -0.001436 0.001613 0.000000 0.000000
# 2 -0.020404 0.030656 -0.001436 -0.001613 0.000000 0.000000
# 3 -0.001436 -0.001436 0.008213 0.000000 0.000000 0.000000
# 4 0.001613 -0.001613 0.000000 0.060959 0.000000 0.000000
# 5 0.000000 0.000000 0.000000 0.000000 0.060959 0.003226
# 6 0.000000 0.000000 0.000000 0.000000 0.003226 0.102120
#
#
# Mechanical properties :
#
#
# Convention : Reuss Voigt Hill
#
# Bulk Modulus (GPa) = 43.53417 44.99307 44.26362
# Shear Modulus (GPa) = 14.37720 20.05918 17.21819
#
# Velocity S-wave (km/s) = 2.58338 3.05146 2.82712
# Velocity P-wave (km/s) = 5.39507 5.77068 5.58604
#
# Compressibility (1/GPa) = 0.02297046
#
# Stress axis : x y z
#
# Youngs Moduli (GPa) = 32.62028 32.62028 121.75894
#
# Poissons Ratio (x) = 0.66560 0.17489
# Poissons Ratio (y) = 0.66560 0.17489
# Poissons Ratio (z) = 0.04685 0.04685
#
# Static dielectric constant tensor:
#      x y z
#    x 1.832640 0.000000 0.000000 
#    y 0.000000 1.832640 0.000000 
#    z 0.000000 0.000000 1.943690 
# 
# From -- ./inp_files/593.got.cif
#   From: 2010.05.17/outbox.cif.g08.bks.cpg/sg152_1_cif.got.tgz:593.got - 2010.05.20 10:36:06.
