data_PCOD9575108
_publ_section_title
;
Structure prediction by ZEFSAII (Michael W. Deem and Ramdas Pophale) SiO2 
 PCOD9575108
Probable space group: R -3
;
_chemical_formula_sum "Si O2"
_cell_formula_units_Z 99
_cell_length_a 22.323386
_cell_length_b 22.323386
_cell_length_c 10.048785
_cell_angle_alpha 90.000000
_cell_angle_beta 90.000000
_cell_angle_gamma 120.000000
_cell_volume 4336.749366
_symmetry_space_group_name_H-M "R -3"
_symmetry_group_IT_number 148
_symmetry_cell_setting 'hexagonal'
loop_
_space_group_symop_operation_xyz
x,y,z
-y,x-y,z
-x+y,-x,z
-x,-y,-z
y,-x+y,-z
x-y,x,-z
2/3+x,1/3+y,1/3+z
2/3-y,1/3+x-y,1/3+z
2/3-x+y,1/3-x,1/3+z
2/3-x,1/3-y,1/3-z
2/3+y,1/3-x+y,1/3-z
2/3+x-y,1/3+x,1/3-z
1/3+x,2/3+y,2/3+z
1/3-y,2/3+x-y,2/3+z
1/3-x+y,2/3-x,2/3+z
1/3-x,2/3-y,2/3-z
1/3+y,2/3-x+y,2/3-z
1/3+x-y,2/3+x,2/3-z
loop_
_atom_site_type_symbol
_atom_site_label
_atom_site_fract_x
_atom_site_fract_y
_atom_site_fract_z
Si Si1 0.937584 0.268169 0.359363
Si Si2 0.273729 0.852123 0.408299
Si Si3 0.991229 0.135905 0.999736
Si Si4 0.239849 0.192964 0.750514
Si Si5 0.426456 0.397315 0.727260
Si Si6 0.833334 0.166667 0.166667
O O1 0.901608 0.256851 0.500960
O O2 0.883027 0.240377 0.240307
O O3 0.985230 0.233758 0.340251
O O4 0.982991 0.350250 0.337094
O O5 0.301672 0.831172 0.540641
O O6 0.209766 0.778375 0.361630
O O7 0.335389 0.893257 0.303278
O O8 0.246557 0.902603 0.466827
O O9 0.008613 0.183399 0.130854
O O10 0.060489 0.133627 0.968507
O O11 0.481594 0.462600 0.644794
#
# Coordination Sequence:
#
# PCOD9575108 Si02
#       6
#    18  18  18  18  18   9
#     4  12  22  36  56  81 114 150 189 230 285 338
#     4  11  23  36  57  84 112 152 194 234 285 347
#     4  10  21  34  52  78 111 148 188 232 282 336
#     4  11  23  36  57  84 112 152 194 234 285 347
#     4  12  22  36  56  81 114 150 189 230 285 338
#     4  12  20  32  60  84 110 150 194 228 284 348
#
# _framework density 22.828157999999998
#
# number of rings (size 3 to 8) (size 9 to 14) (size 15 to 20)
#    0.000    0.727    7.273    0.182    7.636    0.727 
#    0.000    0.000    0.000    0.000    0.000    0.000 
#    0.000    0.000    0.000    3.273    0.000    0.000 
#
# Total GULP energy -183862.297173 kJ/mol
# GULP energy per Si atom -5571.584763 kJ/mol
# Density = 2.277620 g / cm^3
# Si number density = 22.828158 Si / 1000 Ang^3
#
#
#
# Elastic Constant Matrix: (Units=GPa)
#
#
# Indices 1 2 3 4 5 6 
#
# 1 95.3645 53.4078 16.6278 6.7624 3.7779 0.0002
# 2 53.4078 95.3641 16.6280 -6.7623 -3.7779 0.0000
# 3 16.6278 16.6280 77.4086 0.0007 0.0035 0.0008
# 4 6.7624 -6.7623 0.0007 40.6473 0.0006 -3.7781
# 5 3.7779 -3.7779 0.0035 0.0006 40.6495 6.7632
# 6 0.0002 0.0000 0.0008 -3.7781 6.7632 20.9777
#
#
#
# Elastic Compliance Matrix: (Units=1/GPa)
#
#
# Indices 1 2 3 4 5 6 
#
# 1 0.016349 -0.009289 -0.001516 -0.004265 -0.002383 0.000000
# 2 -0.009289 0.016350 -0.001517 0.004265 0.002383 0.000000
# 3 -0.001516 -0.001517 0.013570 0.000000 -0.000001 0.000000
# 4 -0.004265 0.004265 0.000000 0.026464 -0.000001 0.004766
# 5 -0.002383 0.002383 -0.000001 -0.000001 0.026463 -0.008532
# 6 0.000000 0.000000 0.000000 0.004766 -0.008532 0.051279
#
#
# Mechanical properties :
#
#
# Convention : Reuss Voigt Hill
#
# Bulk Modulus (GPa) = 46.24335 49.05161 47.64748
# Shear Modulus (GPa) = 27.42321 32.55315 29.98818
#
# Velocity S-wave (km/s) = 3.46972 3.78035 3.62836
# Velocity P-wave (km/s) = 6.02935 6.37093 6.20249
#
# Compressibility (1/GPa) = 0.02162473
#
# Stress axis : x y z
#
# Youngs Moduli (GPa) = 61.16432 61.16376 73.69169
#
# Poissons Ratio (x) = 0.56814 0.11175
# Poissons Ratio (y) = 0.56814 0.11178
# Poissons Ratio (z) = 0.09275 0.09278
#
# Static dielectric constant tensor:
#      x y z
#    x 1.883420 0.000000 0.000000 
#    y 0.000000 1.883420 0.000000 
#    z 0.000000 0.000000 1.954340 
# 
# From -- ./inp_files/1492.got.cif
#   From: 2010.05.17/outbox.cif.g08.bks.cpg/sg148_1_cif.got.tgz:1492.got - 2010.05.20 13:50:20.
