data_PCOD9575354
_publ_section_title
;
Structure prediction by ZEFSAII (Michael W. Deem and Ramdas Pophale) SiO2 
 PCOD9575354
Probable space group: P 3 1 2
;
_chemical_formula_sum "Si O2"
_cell_formula_units_Z 42
_cell_length_a 13.396452
_cell_length_b 13.396452
_cell_length_c 17.910873
_cell_angle_alpha 90.000000
_cell_angle_beta 90.000000
_cell_angle_gamma 120.000000
_cell_volume 2783.729109
_symmetry_space_group_name_H-M "P 3 1 2"
_symmetry_group_IT_number 149
_symmetry_cell_setting 'hexagonal'
loop_
_space_group_symop_operation_xyz
x,y,z
-y,x-y,z
-x+y,-x,z
-y,-x,-z
-x+y,y,-z
x,x-y,-z
loop_
_atom_site_type_symbol
_atom_site_label
_atom_site_fract_x
_atom_site_fract_y
_atom_site_fract_z
Si Si1 0.430066 0.096835 0.085263
Si Si2 0.333920 0.902300 0.622345
Si Si3 0.000307 0.238787 0.500000
Si Si4 0.430066 0.096835 0.914737
Si Si5 0.332984 0.901061 0.202874
Si Si6 0.568077 0.667016 0.797126
Si Si7 0.568380 0.902300 0.622345
O O1 0.560351 0.120701 0.092680
O O2 0.427861 0.213931 0.095459
O O3 0.355525 0.002577 0.146704
O O4 0.392839 0.055421 0.000000
O O5 0.300784 0.979098 0.570889
O O6 0.336490 0.932125 0.709784
O O7 0.455770 0.911539 0.603100
O O8 0.229961 0.770039 0.612818
O O9 0.105999 0.211998 0.500000
O O10 0.020902 0.321686 0.429111
O O11 0.877885 0.122116 0.500000
O O12 0.355525 0.002577 0.853296
O O13 0.212584 0.787416 0.188148
O O14 0.437801 0.875603 0.191886
O O15 0.336490 0.932125 0.290216
#
# Coordination Sequence:
#
# PCOD9575354 Si02
#       7
#     6   6   6   6   6   6   6
#     4   9  17  29  45  64  86 115 152 191 225 257
#     4   9  17  30  49  71  92 115 145 183 224 264
#     4  10  20  32  46  64  88 118 150 184 220 258
#     4   9  17  29  45  64  86 115 152 191 225 257
#     4   9  17  29  46  69  95 119 143 176 222 272
#     4   9  17  29  46  69  95 119 143 176 222 272
#     4   9  17  30  49  71  92 115 145 183 224 264
#
# _framework density 15.087676
#
# number of rings (size 3 to 8) (size 9 to 14) (size 15 to 20)
#    0.000    2.857    0.000    1.429    0.000    5.143 
#    0.000    1.429    0.000    4.571    0.000    0.000 
#    0.000    0.000    0.000    0.000    0.000    0.000 
#
# Total GULP energy -233996.285307 kJ/mol
# GULP energy per Si atom -5571.340126 kJ/mol
# Density = 1.505334 g / cm^3
# Si number density = 15.087676 Si / 1000 Ang^3
#
#
#
# Elastic Constant Matrix: (Units=GPa)
#
#
# Indices 1 2 3 4 5 6 
#
# 1 98.8715 60.6489 75.1233 0.0000 0.0000 0.0000
# 2 60.6489 98.8715 75.1233 0.0000 0.0000 0.0000
# 3 75.1233 75.1233 100.9795 0.0000 0.0000 0.0000
# 4 0.0000 0.0000 0.0000 24.4742 0.0000 0.0000
# 5 0.0000 0.0000 0.0000 0.0000 24.4742 0.0000
# 6 0.0000 0.0000 0.0000 0.0000 0.0000 19.1113
#
#
#
# Elastic Compliance Matrix: (Units=1/GPa)
#
#
# Indices 1 2 3 4 5 6 
#
# 1 0.023554 -0.002609 -0.015582 0.000000 0.000000 0.000000
# 2 -0.002609 0.023554 -0.015582 0.000000 0.000000 0.000000
# 3 -0.015582 -0.015582 0.033087 0.000000 0.000000 0.000000
# 4 0.000000 0.000000 0.000000 0.040859 0.000000 0.000000
# 5 0.000000 0.000000 0.000000 0.000000 0.040859 0.000000
# 6 0.000000 0.000000 0.000000 0.000000 0.000000 0.052325
#
#
# Mechanical properties :
#
#
# Convention : Reuss Voigt Hill
#
# Bulk Modulus (GPa) = 79.05509 80.05706 79.55608
# Shear Modulus (GPa) = 17.48256 19.46705 18.47481
#
# Velocity S-wave (km/s) = 3.40771 3.59592 3.50308
# Velocity P-wave (km/s) = 8.24586 8.39150 8.31900
#
# Compressibility (1/GPa) = 0.01264941
#
# Stress axis : x y z
#
# Youngs Moduli (GPa) = 42.45635 42.45635 30.22342
#
# Poissons Ratio (x) = 0.11077 0.47093
# Poissons Ratio (y) = 0.11077 0.47093
# Poissons Ratio (z) = 0.66154 0.66154
#
# Static dielectric constant tensor:
#      x y z
#    x 1.472830 0.000000 0.000000 
#    y 0.000000 1.472830 0.000000 
#    z 0.000000 0.000000 1.516320 
# 
# From -- ./inp_files/1132.got.cif
#   From: 2010.05.17/outbox.cif.g08.bks.cpg/sg149_cif.got.tgz:1132.got - 2010.05.20 13:52:34.
