data_PCOD9575934
_publ_section_title
;
Structure prediction by ZEFSAII (Michael W. Deem and Ramdas Pophale) SiO2 
 PCOD9575934
Probable space group: P 31 2 1
;
_chemical_formula_sum "Si O2"
_cell_formula_units_Z 48
_cell_length_a 23.045528
_cell_length_b 23.045528
_cell_length_c 5.213257
_cell_angle_alpha 90.000000
_cell_angle_beta 90.000000
_cell_angle_gamma 120.000000
_cell_volume 2397.800753
_symmetry_space_group_name_H-M "P 31 2 1"
_symmetry_group_IT_number 152
_symmetry_cell_setting 'hexagonal'
loop_
_space_group_symop_operation_xyz
x,y,z
-y,x-y,1/3+z
-x+y,-x,2/3+z
x-y,-y,2/3-z
-x,-x+y,1/3-z
y,x,-z
loop_
_atom_site_type_symbol
_atom_site_label
_atom_site_fract_x
_atom_site_fract_y
_atom_site_fract_z
Si Si1 0.515466 0.821099 0.242101
Si Si2 0.298080 0.703160 0.384839
Si Si3 0.332135 0.254154 0.564329
Si Si4 0.612284 0.077755 0.795014
Si Si5 0.581686 0.170019 0.112278
Si Si6 0.920446 0.366025 0.674872
Si Si7 0.079173 0.368254 0.155576
Si Si8 0.811424 0.153611 0.377791
O O1 0.474040 0.770119 0.011778
O O2 0.459692 0.803188 0.452005
O O3 0.577645 0.813755 0.311980
O O4 0.537442 0.896551 0.155873
O O5 0.282019 0.630778 0.486746
O O6 0.340627 0.763052 0.589481
O O7 0.287259 0.287259 0.500000
O O8 0.408558 0.317298 0.589332
O O9 0.311906 0.216929 0.834900
O O10 0.328064 0.204593 0.333183
O O11 0.561281 0.000000 0.833334
O O12 0.577326 0.118829 0.895295
O O13 0.525141 0.126581 0.324258
O O14 0.907473 0.327403 0.406483
O O15 0.000000 0.420433 0.666667
O O16 0.904611 0.313986 0.909378
O O17 0.118223 0.330290 0.063259
O O18 0.000000 0.316583 0.166667
#
# Coordination Sequence:
#
# PCOD9575934 Si02
#       8
#     6   6   6   6   6   6   6   6
#     4  10  22  36  52  78  97 138 184 230 289 361
#     4  10  21  38  53  69  97 129 175 232 284 343
#     4  10  21  37  57  89 121 154 189 233 285 354
#     4  10  22  35  54  75 106 134 179 231 284 354
#     4  11  22  36  52  77  96 139 180 234 297 360
#     4  10  23  38  56  80 113 143 189 247 309 352
#     4  10  22  41  60  87 115 153 200 249 294 353
#     4  11  20  38  62  84 117 157 194 237 294 350
#
# _framework density 20.018346000000001
#
# number of rings (size 3 to 8) (size 9 to 14) (size 15 to 20)
#    0.000    1.750    1.250    2.625    3.500    1.500 
#    9.000    0.000    0.000    0.000    0.000    0.000 
#    0.000    0.000    0.000    5.625    0.000    0.375 
#
# Total GULP energy -267681.695182 kJ/mol
# GULP energy per Si atom -5576.701983 kJ/mol
# Density = 1.997278 g / cm^3
# Si number density = 20.018346 Si / 1000 Ang^3
#
#
#
# Elastic Constant Matrix: (Units=GPa)
#
#
# Indices 1 2 3 4 5 6 
#
# 1 61.4926 29.6745 15.2185 -0.3825 0.0000 0.0000
# 2 29.6745 61.4926 15.2185 0.3825 0.0000 0.0000
# 3 15.2185 15.2185 79.0786 0.0000 0.0000 0.0000
# 4 -0.3825 0.3825 0.0000 16.0406 0.0000 0.0000
# 5 0.0000 0.0000 0.0000 0.0000 16.0406 -0.3825
# 6 0.0000 0.0000 0.0000 0.0000 -0.3825 15.9091
#
#
#
# Elastic Compliance Matrix: (Units=1/GPa)
#
#
# Indices 1 2 3 4 5 6 
#
# 1 0.021584 -0.009862 -0.002256 0.000750 0.000000 0.000000
# 2 -0.009862 0.021584 -0.002256 -0.000750 0.000000 0.000000
# 3 -0.002256 -0.002256 0.013514 0.000000 0.000000 0.000000
# 4 0.000750 -0.000750 0.000000 0.062377 0.000000 0.000000
# 5 0.000000 0.000000 0.000000 0.000000 0.062377 0.001500
# 6 0.000000 0.000000 0.000000 0.000000 0.001500 0.062893
#
#
# Mechanical properties :
#
#
# Convention : Reuss Voigt Hill
#
# Bulk Modulus (GPa) = 35.79812 35.80967 35.80389
# Shear Modulus (GPa) = 17.70599 19.06156 18.38378
#
# Velocity S-wave (km/s) = 2.97726 3.08913 3.03371
# Velocity P-wave (km/s) = 5.45346 5.53632 5.49505
#
# Compressibility (1/GPa) = 0.02793443
#
# Stress axis : x y z
#
# Youngs Moduli (GPa) = 46.32992 46.32992 73.99774
#
# Poissons Ratio (x) = 0.45692 0.16693
# Poissons Ratio (y) = 0.45692 0.16693
# Poissons Ratio (z) = 0.10451 0.10451
#
# Static dielectric constant tensor:
#      x y z
#    x 1.746590 0.000000 0.000000 
#    y 0.000000 1.746590 0.000000 
#    z 0.000000 0.000000 1.837790 
# 
# From -- ./inp_files/606.got.cif
#   From: 2010.05.17/outbox.cif.g08.bks.cpg/sg152_1_cif.got.tgz:606.got - 2010.05.20 10:36:06.
