data_PCOD9575393
_publ_section_title
;
Structure prediction by ZEFSAII (Michael W. Deem and Ramdas Pophale) SiO2 
 PCOD9575393
Probable space group: P 3 1 2
;
_chemical_formula_sum "Si O2"
_cell_formula_units_Z 14
_cell_length_a 10.813441
_cell_length_b 10.813441
_cell_length_c 7.241547
_cell_angle_alpha 90.000000
_cell_angle_beta 90.000000
_cell_angle_gamma 120.000000
_cell_volume 733.313728
_symmetry_space_group_name_H-M "P 3 1 2"
_symmetry_group_IT_number 149
_symmetry_cell_setting 'hexagonal'
loop_
_space_group_symop_operation_xyz
x,y,z
-y,x-y,z
-x+y,-x,z
-y,-x,-z
-x+y,y,-z
x,x-y,-z
loop_
_atom_site_type_symbol
_atom_site_label
_atom_site_fract_x
_atom_site_fract_y
_atom_site_fract_z
Si Si1 0.284880 0.994517 0.499999
Si Si2 0.666667 0.333335 0.724134
Si Si3 0.500408 0.000820 0.791742
O O1 0.313488 0.156744 0.500000
O O2 0.360018 0.965505 0.674662
O O3 0.360023 0.965515 0.325334
O O4 0.117952 0.882049 0.500000
O O5 0.666668 0.333334 0.500000
O O6 0.586277 0.172573 0.792152
O O7 0.472479 0.944957 0.000000
#
# Coordination Sequence:
#
# PCOD9575393 Si02
#       3
#     6   2   6
#     4  11  23  40  60  88 123 159 198 242 296 359
#     4  12  16  35  67 100 113 139 190 260 307 340
#     4  11  21  38  65  91 116 149 197 253 301 347
#
# _framework density 19.091417
#
# number of rings (size 3 to 8) (size 9 to 14) (size 15 to 20)
#    0.000    0.857    8.571    1.714    0.000    1.714 
#   10.286    0.000    0.000    5.143    0.000    0.000 
#    0.000    0.000    0.000    0.000    0.000    0.000 
#
# Total GULP energy -78151.007208 kJ/mol
# GULP energy per Si atom -5582.214801 kJ/mol
# Density = 1.904796 g / cm^3
# Si number density = 19.091417 Si / 1000 Ang^3
#
#
#
# Elastic Constant Matrix: (Units=GPa)
#
#
# Indices 1 2 3 4 5 6 
#
# 1 80.3068 9.0355 27.4927 -0.0001 -0.0008 -0.0002
# 2 9.0355 80.3065 27.4926 0.0003 0.0009 -0.0001
# 3 27.4927 27.4926 182.5546 -0.0004 -0.0002 0.0000
# 4 -0.0001 0.0003 -0.0004 5.7086 0.0001 0.0011
# 5 -0.0008 0.0009 -0.0002 0.0001 5.7084 0.0002
# 6 -0.0002 -0.0001 0.0000 0.0011 0.0002 35.6356
#
#
#
# Elastic Compliance Matrix: (Units=1/GPa)
#
#
# Indices 1 2 3 4 5 6 
#
# 1 0.013184 -0.000847 -0.001858 0.000000 0.000002 0.000000
# 2 -0.000847 0.013184 -0.001858 -0.000001 -0.000002 0.000000
# 3 -0.001858 -0.001858 0.006037 0.000001 0.000000 0.000000
# 4 0.000000 -0.000001 0.000001 0.175173 -0.000004 -0.000005
# 5 0.000002 -0.000002 0.000000 -0.000004 0.175179 -0.000001
# 6 0.000000 0.000000 0.000000 -0.000005 -0.000001 0.028062
#
#
# Mechanical properties :
#
#
# Convention : Reuss Voigt Hill
#
# Bulk Modulus (GPa) = 42.95779 52.35661 47.65720
# Shear Modulus (GPa) = 11.69032 28.02035 19.85534
#
# Velocity S-wave (km/s) = 2.47722 3.83521 3.22842
# Velocity P-wave (km/s) = 5.54366 6.86261 6.23809
#
# Compressibility (1/GPa) = 0.02327866
#
# Stress axis : x y z
#
# Youngs Moduli (GPa) = 75.85183 75.85156 165.63441
#
# Poissons Ratio (x) = 0.06427 0.30772
# Poissons Ratio (y) = 0.06427 0.30772
# Poissons Ratio (z) = 0.14092 0.14092
#
# Static dielectric constant tensor:
#      x y z
#    x 1.636600 0.000000 0.000000 
#    y 0.000000 1.636610 0.000000 
#    z 0.000000 0.000000 1.729620 
# 
# From -- ./inp_files/50.got.cif
#   From: 2010.05.17/outbox.cif.g08.bks.cpg/sg149_cif.got.tgz:50.got - 2010.05.20 13:52:34.
