data_PCOD9575646
_publ_section_title
;
Structure prediction by ZEFSAII (Michael W. Deem and Ramdas Pophale) SiO2 
 PCOD9575646
Probable space group: P 31 1 2
;
_chemical_formula_sum "Si O2"
_cell_formula_units_Z 24
_cell_length_a 9.402179
_cell_length_b 9.402179
_cell_length_c 10.899705
_cell_angle_alpha 90.000000
_cell_angle_beta 90.000000
_cell_angle_gamma 120.000000
_cell_volume 834.454010
_symmetry_space_group_name_H-M "P 31 1 2"
_symmetry_group_IT_number 151
_symmetry_cell_setting 'hexagonal'
loop_
_space_group_symop_operation_xyz
x,y,z
-y,x-y,1/3+z
-x+y,-x,2/3+z
-y,-x,2/3-z
-x+y,y,1/3-z
x,x-y,-z
loop_
_atom_site_type_symbol
_atom_site_label
_atom_site_fract_x
_atom_site_fract_y
_atom_site_fract_z
Si Si1 0.941639 0.369457 0.714458
Si Si2 0.813940 0.565839 0.814055
Si Si3 0.491504 0.786157 0.284809
Si Si4 0.167992 0.006861 0.661853
O O1 0.203851 0.601926 0.500000
O O2 0.103857 0.548030 0.704500
O O3 0.563872 0.420765 0.514313
O O4 0.851569 0.327586 0.581812
O O5 0.792211 0.584422 0.666667
O O6 0.679839 0.846574 0.728551
O O7 0.957396 0.733505 0.875306
O O8 0.397835 0.602166 0.333334
O O9 0.805026 0.737337 0.061862
O O10 0.983639 0.967277 0.666667
#
# Coordination Sequence:
#
# PCOD9575646 Si02
#       4
#     6   6   6   6
#     4  10  25  51  88 130 177 233 304 370 454 545
#     4  10  22  48  93 137 173 237 297 377 455 542
#     4  12  29  55  85 125 180 241 302 378 460 541
#     4  10  27  56  90 132 182 241 308 382 454 549
#
# _framework density 28.761319
#
# number of rings (size 3 to 8) (size 9 to 14) (size 15 to 20)
#    1.500    0.000    0.000    3.000    3.500    4.000 
#    4.500    7.500    0.000    0.000    0.000    0.000 
#    0.000    0.000    0.000    0.000    0.000    0.000 
#
# Total GULP energy -133955.731132 kJ/mol
# GULP energy per Si atom -5581.488797 kJ/mol
# Density = 2.869586 g / cm^3
# Si number density = 28.761319 Si / 1000 Ang^3
#
#
#
# Elastic Constant Matrix: (Units=GPa)
#
#
# Indices 1 2 3 4 5 6 
#
# 1 247.1544 117.3431 54.4193 -0.0001 21.8901 0.0000
# 2 117.3431 247.1544 54.4193 0.0001 -21.8901 0.0000
# 3 54.4193 54.4193 115.2687 0.0000 0.0000 0.0000
# 4 -0.0001 0.0001 0.0000 34.6159 0.0000 -21.8901
# 5 21.8901 -21.8901 0.0000 0.0000 34.6159 -0.0001
# 6 0.0000 0.0000 0.0000 -21.8901 -0.0001 64.9056
#
#
#
# Elastic Compliance Matrix: (Units=1/GPa)
#
#
# Indices 1 2 3 4 5 6 
#
# 1 0.006493 -0.003299 -0.001508 0.000000 -0.006192 0.000000
# 2 -0.003299 0.006493 -0.001508 0.000000 0.006192 0.000000
# 3 -0.001508 -0.001508 0.010099 0.000000 0.000000 0.000000
# 4 0.000000 0.000000 0.000000 0.036720 0.000000 0.012384
# 5 -0.006192 0.006192 0.000000 0.000000 0.036720 0.000000
# 6 0.000000 0.000000 0.000000 0.012384 0.000000 0.019584
#
#
# Mechanical properties :
#
#
# Convention : Reuss Voigt Hill
#
# Bulk Modulus (GPa) = 95.64459 117.99343 106.81901
# Shear Modulus (GPa) = 37.81506 52.38718 45.10112
#
# Velocity S-wave (km/s) = 3.62994 4.27247 3.96424
# Velocity P-wave (km/s) = 7.13410 8.09029 7.62719
#
# Compressibility (1/GPa) = 0.01045537
#
# Stress axis : x y z
#
# Youngs Moduli (GPa) = 154.01717 154.01717 99.01911
#
# Poissons Ratio (x) = 0.50811 0.14930
# Poissons Ratio (y) = 0.50811 0.14930
# Poissons Ratio (z) = 0.23222 0.23222
#
# Static dielectric constant tensor:
#      x y z
#    x 2.403620 0.000000 0.000000 
#    y 0.000000 2.403620 0.000000 
#    z 0.000000 0.000000 2.384770 
# 
# From -- ./inp_files/2338.got.cif
#   From: 2010.05.17/outbox.cif.g08.bks.cpg/sg151_2_cif.got.tgz:2338.got - 2010.05.20 10:33:20.
