data_PCOD9575620
_publ_section_title
;
Structure prediction by ZEFSAII (Michael W. Deem and Ramdas Pophale) SiO2 
 PCOD9575620
Probable space group: P 31 1 2
;
_chemical_formula_sum "Si O2"
_cell_formula_units_Z 24
_cell_length_a 13.745973
_cell_length_b 13.745973
_cell_length_c 5.701248
_cell_angle_alpha 90.000000
_cell_angle_beta 90.000000
_cell_angle_gamma 120.000000
_cell_volume 932.935325
_symmetry_space_group_name_H-M "P 31 1 2"
_symmetry_group_IT_number 151
_symmetry_cell_setting 'hexagonal'
loop_
_space_group_symop_operation_xyz
x,y,z
-y,x-y,1/3+z
-x+y,-x,2/3+z
-y,-x,2/3-z
-x+y,y,1/3-z
x,x-y,-z
loop_
_atom_site_type_symbol
_atom_site_label
_atom_site_fract_x
_atom_site_fract_y
_atom_site_fract_z
Si Si1 0.771896 0.228105 0.833334
Si Si2 0.042289 0.694531 0.158058
Si Si3 0.894772 0.105229 0.333334
Si Si4 0.585179 0.414822 0.833334
Si Si5 0.081489 0.162978 0.666667
Si Si6 0.361198 0.985575 0.991392
O O1 0.758978 0.294103 0.615632
O O2 0.905844 0.284134 0.849351
O O3 0.075205 0.824270 0.155356
O O4 0.071703 0.666667 0.416667
O O5 0.082764 0.666666 0.916667
O O6 0.950801 0.239177 0.317315
O O7 0.960771 0.092312 0.551035
O O8 0.591463 0.509063 0.655357
#
# Coordination Sequence:
#
# PCOD9575620 Si02
#       6
#     3   6   3   3   3   6
#     4  10  22  42  61  92 130 172 248 304 347 450
#     4  10  21  40  60  85 123 164 224 297 347 420
#     4  10  22  42  61  92 130 172 248 304 347 450
#     4  10  22  42  67  86 130 192 230 304 393 414
#     4  10  22  42  67  86 130 192 230 304 393 414
#     4  10  21  40  60  85 123 164 224 297 347 420
#
# _framework density 25.725255000000001
#
# number of rings (size 3 to 8) (size 9 to 14) (size 15 to 20)
#    0.000    2.000    0.000    4.500    0.000    8.000 
#    0.000   40.000    0.000    0.000    0.000    0.000 
#    0.000    0.000    0.000 1093.500    0.000  513.000 
#
# Total GULP energy -134327.874958 kJ/mol
# GULP energy per Si atom -5596.994790 kJ/mol
# Density = 2.566670 g / cm^3
# Si number density = 25.725255 Si / 1000 Ang^3
#
#
#
# Elastic Constant Matrix: (Units=GPa)
#
#
# Indices 1 2 3 4 5 6 
#
# 1 79.1901 22.4149 16.6789 -0.0001 -0.0001 0.0000
# 2 22.4149 79.1901 16.6789 0.0001 0.0001 0.0000
# 3 16.6789 16.6789 210.0945 0.0000 0.0000 0.0000
# 4 -0.0001 0.0001 0.0000 36.8862 0.0000 0.0001
# 5 -0.0001 0.0001 0.0000 0.0000 36.8862 -0.0001
# 6 0.0000 0.0000 0.0000 0.0001 -0.0001 28.3876
#
#
#
# Elastic Compliance Matrix: (Units=1/GPa)
#
#
# Indices 1 2 3 4 5 6 
#
# 1 0.013859 -0.003754 -0.000802 0.000000 0.000000 0.000000
# 2 -0.003754 0.013859 -0.000802 0.000000 0.000000 0.000000
# 3 -0.000802 -0.000802 0.004887 0.000000 0.000000 0.000000
# 4 0.000000 0.000000 0.000000 0.027110 0.000000 0.000000
# 5 0.000000 0.000000 0.000000 0.000000 0.027110 0.000000
# 6 0.000000 0.000000 0.000000 0.000000 0.000000 0.035227
#
#
# Mechanical properties :
#
#
# Convention : Reuss Voigt Hill
#
# Bulk Modulus (GPa) = 45.68507 53.33559 49.51033
# Shear Modulus (GPa) = 35.69727 41.27877 38.48802
#
# Velocity S-wave (km/s) = 3.72914 4.01009 3.87216
# Velocity P-wave (km/s) = 6.02821 6.49761 6.26731
#
# Compressibility (1/GPa) = 0.02188899
#
# Stress axis : x y z
#
# Youngs Moduli (GPa) = 72.15327 72.15327 204.61869
#
# Poissons Ratio (x) = 0.27086 0.16415
# Poissons Ratio (y) = 0.27086 0.16415
# Poissons Ratio (z) = 0.05788 0.05788
#
# Static dielectric constant tensor:
#      x y z
#    x 2.022010 0.000000 0.000000 
#    y 0.000000 2.022010 0.000000 
#    z 0.000000 0.000000 2.277170 
# 
# From -- ./inp_files/314.got.cif
#   From: 2010.05.17/outbox.cif.g08.bks.cpg/sg151_1_cif.got.tgz:314.got - 2010.05.20 10:33:20.
