data_PCOD9575428
_publ_section_title
;
Structure prediction by ZEFSAII (Michael W. Deem and Ramdas Pophale) SiO2 
 PCOD9575428
Probable space group: P 3 2 1
;
_chemical_formula_sum "Si O2"
_cell_formula_units_Z 44
_cell_length_a 11.833314
_cell_length_b 11.833314
_cell_length_c 17.817110
_cell_angle_alpha 90.000000
_cell_angle_beta 90.000000
_cell_angle_gamma 120.000000
_cell_volume 2160.631336
_symmetry_space_group_name_H-M "P 3 2 1"
_symmetry_group_IT_number 150
_symmetry_cell_setting 'hexagonal'
loop_
_space_group_symop_operation_xyz
x,y,z
-y,x-y,z
-x+y,-x,z
x-y,-y,-z
-x,-x+y,-z
y,x,-z
loop_
_atom_site_type_symbol
_atom_site_label
_atom_site_fract_x
_atom_site_fract_y
_atom_site_fract_z
Si Si1 0.893131 0.168288 0.568115
Si Si2 0.392289 0.326057 0.079600
Si Si3 0.067321 0.685264 0.609936
Si Si4 0.404913 0.066209 0.078403
Si Si5 0.352909 0.927635 0.621646
Si Si6 0.653490 0.585390 0.766884
Si Si7 0.604845 0.923198 0.235954
Si Si8 0.000000 0.000000 0.593898
O O1 0.000000 0.213554 0.500000
O O2 0.929632 0.310127 0.595503
O O3 0.740400 0.057411 0.568036
O O4 0.950785 0.096346 0.619511
O O5 0.399147 0.196212 0.087654
O O6 0.539535 0.448026 0.077722
O O7 0.323401 0.344297 0.153017
O O8 0.328986 0.328986 0.000000
O O9 0.209690 0.812681 0.596302
O O10 0.085754 0.560712 0.595543
O O11 0.028146 0.675455 0.697801
O O12 0.339049 0.973265 0.148972
O O13 0.341349 0.000000 0.000000
O O14 0.350921 0.943233 0.711487
O O15 0.546834 0.432133 0.762891
O O16 0.796316 0.614403 0.746041
O O17 0.000000 0.000000 0.500000
#
# Coordination Sequence:
#
# PCOD9575428 Si02
#       8
#     6   6   6   6   6   6   6   2
#     4  11  22  42  67  94 127 167 214 262 317 385
#     4  10  20  34  54  80 114 158 203 261 326 385
#     4  11  23  41  67  97 133 173 215 269 329 388
#     4  10  20  34  54  80 113 152 204 260 319 391
#     4  11  23  41  64  94 132 168 214 265 322 392
#     4  10  20  35  58  86 119 162 207 261 320 375
#     4  10  20  35  58  87 122 162 211 267 315 388
#     4   9  18  36  69  93 117 159 208 260 295 366
#
# _framework density 20.364419000000002
#
# number of rings (size 3 to 8) (size 9 to 14) (size 15 to 20)
#    0.000    1.636    2.727    2.455    0.000    0.000 
#    3.273    5.455    0.000    6.545    0.000    0.000 
#    0.000    0.000    0.000    0.000    0.000    0.000 
#
# Total GULP energy -245141.755380 kJ/mol
# GULP energy per Si atom -5571.403531 kJ/mol
# Density = 2.031807 g / cm^3
# Si number density = 20.364419 Si / 1000 Ang^3
#
#
#
# Elastic Constant Matrix: (Units=GPa)
#
#
# Indices 1 2 3 4 5 6 
#
# 1 36.8817 147.5884 29.0143 -50.8670 0.0000 0.0000
# 2 147.5884 36.8817 29.0143 50.8670 0.0000 0.0000
# 3 29.0143 29.0143 70.5565 0.0000 0.0000 0.0000
# 4 -50.8670 50.8670 0.0000 -3.6783 0.0000 0.0000
# 5 0.0000 0.0000 0.0000 0.0000 -3.6783 -50.8670
# 6 0.0000 0.0000 0.0000 0.0000 -50.8670 -55.3534
#
#
#
# Elastic Compliance Matrix: (Units=1/GPa)
#
#
# Indices 1 2 3 4 5 6 
#
# 1 0.003499 0.002727 -0.002560 -0.010669 0.000000 0.000000
# 2 0.002727 0.003499 -0.002560 0.010669 0.000000 0.000000
# 3 -0.002560 -0.002560 0.016279 0.000000 0.000000 0.000000
# 4 -0.010669 0.010669 0.000000 0.023220 0.000000 0.000000
# 5 0.000000 0.000000 0.000000 0.000000 0.023220 -0.021338
# 6 0.000000 0.000000 0.000000 0.000000 -0.021338 0.001543
#
#
# Mechanical properties :
#
#
# Convention : Reuss Voigt Hill
#
# Bulk Modulus (GPa) = 54.08355 61.72821 57.90588
# Shear Modulus (GPa) = 60.81968 -16.62846 22.09561
#
# Velocity S-wave (km/s) = 5.47088 -2.86062 3.29752
# Velocity P-wave (km/s) = 8.15615 4.41211 6.55704
#
# Compressibility (1/GPa) = 0.01848991
#
# Stress axis : x y z
#
# Youngs Moduli (GPa) = 285.80168 285.80168 61.42946
#
# Poissons Ratio (x) = -0.77950 0.15728
# Poissons Ratio (y) = -0.77950 0.15728
# Poissons Ratio (z) = 0.73177 0.73177
#
# Static dielectric constant tensor:
#      x y z
#    x 1.820850 0.000000 0.000000 
#    y 0.000000 1.820850 0.000000 
#    z 0.000000 0.000000 1.747270 
# 
# From -- ./inp_files/1130.got.cif
#   From: 2010.05.17/outbox.cif.g08.bks.cpg/sg150_cif.got.tgz:1130.got - 2010.05.20 13:53:18.
