data_PCOD9575889
_publ_section_title
;
Structure prediction by ZEFSAII (Michael W. Deem and Ramdas Pophale) SiO2 
 PCOD9575889
Probable space group: P 31 2 1
;
_chemical_formula_sum "Si O2"
_cell_formula_units_Z 36
_cell_length_a 9.009697
_cell_length_b 9.009697
_cell_length_c 27.136963
_cell_angle_alpha 90.000000
_cell_angle_beta 90.000000
_cell_angle_gamma 120.000000
_cell_volume 1907.709514
_symmetry_space_group_name_H-M "P 31 2 1"
_symmetry_group_IT_number 152
_symmetry_cell_setting 'hexagonal'
loop_
_space_group_symop_operation_xyz
x,y,z
-y,x-y,1/3+z
-x+y,-x,2/3+z
x-y,-y,2/3-z
-x,-x+y,1/3-z
y,x,-z
loop_
_atom_site_type_symbol
_atom_site_label
_atom_site_fract_x
_atom_site_fract_y
_atom_site_fract_z
Si Si1 0.648540 0.441019 0.376852
Si Si2 0.214735 0.968312 0.888499
Si Si3 0.103295 0.792639 0.572613
Si Si4 0.374700 0.227843 0.208446
Si Si5 0.985229 0.444644 0.941897
Si Si6 0.945232 0.387057 0.722978
O O1 0.668628 0.598852 0.408956
O O2 0.606476 0.467368 0.321538
O O3 0.833193 0.451311 0.380505
O O4 0.501893 0.255370 0.395468
O O5 0.195821 0.129036 0.903306
O O6 0.287876 0.000000 0.833334
O O7 0.025397 0.803853 0.886453
O O8 0.165403 0.781246 0.517177
O O9 0.263195 0.955861 0.597155
O O10 0.054192 0.618163 0.601093
O O11 0.517627 0.410788 0.230079
O O12 0.377650 0.074883 0.238178
O O13 0.000000 0.381142 0.666667
#
# Coordination Sequence:
#
# PCOD9575889 Si02
#       6
#     6   6   6   6   6   6
#     4  10  22  37  56  83 118 150 193 237 293 348
#     4   9  21  40  59  83 117 154 193 245 297 354
#     4  10  22  37  62  87 115 152 203 244 295 358
#     4  10  20  41  60  83 119 156 193 244 300 350
#     4  10  21  37  56  85 115 152 192 236 292 349
#     4  11  22  38  59  89 119 156 198 245 297 364
#
# _framework density 18.870797
#
# number of rings (size 3 to 8) (size 9 to 14) (size 15 to 20)
#    0.000    2.000    1.667    1.000    4.667    2.667 
#    0.000    4.167    0.000    0.000    0.000    0.000 
#    0.000    0.000    0.000    0.000    0.000    0.000 
#
# Total GULP energy -200921.037901 kJ/mol
# GULP energy per Si atom -5581.139942 kJ/mol
# Density = 1.882785 g / cm^3
# Si number density = 18.870797 Si / 1000 Ang^3
#
#
#
# Elastic Constant Matrix: (Units=GPa)
#
#
# Indices 1 2 3 4 5 6 
#
# 1 43.8707 5.1960 5.8395 0.2813 0.0005 0.0000
# 2 5.1960 43.8707 5.8395 -0.2813 -0.0005 0.0000
# 3 5.8395 5.8395 19.4623 0.0000 0.0000 0.0000
# 4 0.2813 -0.2813 0.0000 32.7672 0.0000 -0.0005
# 5 0.0005 -0.0005 0.0000 0.0000 32.7672 0.2813
# 6 0.0000 0.0000 0.0000 -0.0005 0.2813 19.3374
#
#
#
# Elastic Compliance Matrix: (Units=1/GPa)
#
#
# Indices 1 2 3 4 5 6 
#
# 1 0.023904 -0.001956 -0.006585 -0.000222 0.000000 0.000000
# 2 -0.001956 0.023904 -0.006585 0.000222 0.000000 0.000000
# 3 -0.006585 -0.006585 0.055333 0.000000 0.000000 0.000000
# 4 -0.000222 0.000222 0.000000 0.030522 0.000000 0.000001
# 5 0.000000 0.000000 0.000000 0.000000 0.030522 -0.000444
# 6 0.000000 0.000000 0.000000 0.000001 -0.000444 0.051720
#
#
# Mechanical properties :
#
#
# Convention : Reuss Voigt Hill
#
# Bulk Modulus (GPa) = 13.71969 15.66149 14.69059
# Shear Modulus (GPa) = 18.48743 22.99627 20.74185
#
# Velocity S-wave (km/s) = 3.13339 3.49466 3.31894
# Velocity P-wave (km/s) = 4.51408 4.95992 4.74225
#
# Compressibility (1/GPa) = 0.07288793
#
# Stress axis : x y z
#
# Youngs Moduli (GPa) = 41.83420 41.83420 18.07235
#
# Poissons Ratio (x) = 0.08183 0.11901
# Poissons Ratio (y) = 0.08183 0.11901
# Poissons Ratio (z) = 0.27549 0.27549
#
# Static dielectric constant tensor:
#      x y z
#    x 1.645530 0.000000 0.000000 
#    y 0.000000 1.645530 0.000000 
#    z 0.000000 0.000000 1.660780 
# 
# From -- ./inp_files/3358.got.cif
#   From: 2010.05.17/outbox.cif.g08.bks.cpg/sg152_2_cif.got.tgz:3358.got - 2010.05.20 10:36:06.
