data_PCOD9575304
_publ_section_title
;
Structure prediction by ZEFSAII (Michael W. Deem and Ramdas Pophale) SiO2 
 PCOD9575304
Probable space group: R -3
;
_chemical_formula_sum "Si O2"
_cell_formula_units_Z 72
_cell_length_a 16.453269
_cell_length_b 16.453269
_cell_length_c 11.814635
_cell_angle_alpha 90.000000
_cell_angle_beta 90.000000
_cell_angle_gamma 120.000000
_cell_volume 2769.844174
_symmetry_space_group_name_H-M "R -3"
_symmetry_group_IT_number 148
_symmetry_cell_setting 'hexagonal'
loop_
_space_group_symop_operation_xyz
x,y,z
-y,x-y,z
-x+y,-x,z
-x,-y,-z
y,-x+y,-z
x-y,x,-z
2/3+x,1/3+y,1/3+z
2/3-y,1/3+x-y,1/3+z
2/3-x+y,1/3-x,1/3+z
2/3-x,1/3-y,1/3-z
2/3+y,1/3-x+y,1/3-z
2/3+x-y,1/3+x,1/3-z
1/3+x,2/3+y,2/3+z
1/3-y,2/3+x-y,2/3+z
1/3-x+y,2/3-x,2/3+z
1/3-x,2/3-y,2/3-z
1/3+y,2/3-x+y,2/3-z
1/3+x-y,2/3+x,2/3-z
loop_
_atom_site_type_symbol
_atom_site_label
_atom_site_fract_x
_atom_site_fract_y
_atom_site_fract_z
Si Si1 0.527015 0.684647 0.958803
Si Si2 0.798384 0.977510 0.338948
Si Si3 0.709213 0.190007 0.294480
Si Si4 0.689481 0.044653 0.444871
O O1 0.451078 0.586854 0.014932
O O2 0.506960 0.767668 0.994362
O O3 0.501991 0.662410 0.825660
O O4 0.637541 0.715617 0.944980
O O5 0.736900 0.973439 0.227660
O O6 0.743861 0.986575 0.447719
O O7 0.629839 0.176960 0.381310
O O8 0.743220 0.124080 0.348901
#
# Coordination Sequence:
#
# PCOD9575304 Si02
#       4
#    18  18  18  18
#     4  12  24  43  66  98 137 175 225 281 340 411
#     4  12  26  44  69 102 138 179 228 286 343 408
#     4  12  21  36  63  98 131 169 217 283 345 395
#     4  12  24  40  66  96 134 178 223 279 340 404
#
# _framework density 25.994240000000001
#
# number of rings (size 3 to 8) (size 9 to 14) (size 15 to 20)
#    0.000    0.000    7.500    3.750    0.000    0.000 
#    0.000    0.000    0.000    0.000    0.000    5.250 
#    0.000    0.000    0.000    0.000    0.000    0.000 
#
# Total GULP energy -134208.180769 kJ/mol
# GULP energy per Si atom -5592.007532 kJ/mol
# Density = 2.593508 g / cm^3
# Si number density = 25.994240 Si / 1000 Ang^3
#
#
#
# Elastic Constant Matrix: (Units=GPa)
#
#
# Indices 1 2 3 4 5 6 
#
# 1 134.1778 57.3004 24.3420 7.7010 1.6324 0.0000
# 2 57.3004 134.1778 24.3420 -7.7010 -1.6324 0.0000
# 3 24.3420 24.3420 28.7629 0.0000 0.0000 0.0000
# 4 7.7010 -7.7010 0.0000 35.0897 0.0000 -1.6324
# 5 1.6324 -1.6324 0.0000 0.0000 35.0897 7.7010
# 6 0.0000 0.0000 0.0000 -1.6324 7.7010 38.4387
#
#
#
# Elastic Compliance Matrix: (Units=1/GPa)
#
#
# Indices 1 2 3 4 5 6 
#
# 1 0.010144 -0.003490 -0.005632 -0.002992 -0.000634 0.000000
# 2 -0.003490 0.010144 -0.005632 0.002992 0.000634 0.000000
# 3 -0.005632 -0.005632 0.044299 0.000000 0.000000 0.000000
# 4 -0.002992 0.002992 0.000000 0.029871 0.000000 0.001269
# 5 -0.000634 0.000634 0.000000 0.000000 0.029871 -0.005984
# 6 0.000000 0.000000 0.000000 0.001269 -0.005984 0.027268
#
#
# Mechanical properties :
#
#
# Convention : Reuss Voigt Hill
#
# Bulk Modulus (GPa) = 28.50508 56.56527 42.53518
# Shear Modulus (GPa) = 25.93396 34.46591 30.19994
#
# Velocity S-wave (km/s) = 3.16204 3.64525 3.41221
# Velocity P-wave (km/s) = 4.93163 6.28690 5.65005
#
# Compressibility (1/GPa) = 0.03508146
#
# Stress axis : x y z
#
# Youngs Moduli (GPa) = 98.57800 98.57800 22.57380
#
# Poissons Ratio (x) = 0.34402 0.12713
# Poissons Ratio (y) = 0.34402 0.12713
# Poissons Ratio (z) = 0.55515 0.55515
#
# Static dielectric constant tensor:
#      x y z
#    x 2.059940 0.000000 0.000000 
#    y 0.000000 2.059940 0.000000 
#    z 0.000000 0.000000 2.071540 
# 
# From -- ./inp_files/1872.got.cif
#   From: 2010.05.17/outbox.cif.g08.bks.cpg/sg148_1_cif.got.tgz:1872.got - 2010.05.20 13:50:20.
