data_PCOD9575705
_publ_section_title
;
Structure prediction by ZEFSAII (Michael W. Deem and Ramdas Pophale) SiO2 
 PCOD9575705
Probable space group: P 31 2 1
;
_chemical_formula_sum "Si O2"
_cell_formula_units_Z 42
_cell_length_a 28.336490
_cell_length_b 28.336490
_cell_length_c 5.548167
_cell_angle_alpha 90.000000
_cell_angle_beta 90.000000
_cell_angle_gamma 120.000000
_cell_volume 3858.089198
_symmetry_space_group_name_H-M "P 31 2 1"
_symmetry_group_IT_number 152
_symmetry_cell_setting 'hexagonal'
loop_
_space_group_symop_operation_xyz
x,y,z
-y,x-y,1/3+z
-x+y,-x,2/3+z
x-y,-y,2/3-z
-x,-x+y,1/3-z
y,x,-z
loop_
_atom_site_type_symbol
_atom_site_label
_atom_site_fract_x
_atom_site_fract_y
_atom_site_fract_z
Si Si1 0.409510 0.548399 0.735619
Si Si2 0.455576 0.442100 0.250808
Si Si3 0.692188 0.390021 0.249263
Si Si4 0.675218 0.492585 0.240651
Si Si5 0.491781 0.153860 0.077819
Si Si6 0.431418 0.971427 0.583857
Si Si7 0.194677 0.618421 0.899363
O O1 0.427062 0.503090 0.742561
O O2 0.463290 0.608841 0.743496
O O3 0.379280 0.545904 0.484429
O O4 0.378925 0.545971 0.984433
O O5 0.423288 0.423288 0.500000
O O6 0.485438 0.508608 0.249799
O O7 0.423905 0.423905 0.000000
O O8 0.635639 0.342059 0.355643
O O9 0.687708 0.443388 0.217098
O O10 0.742175 0.405488 0.430241
O O11 0.694679 0.522884 0.495129
O O12 0.693572 0.526874 0.996434
O O13 0.558119 0.187744 0.089801
O O14 0.474879 0.090734 0.076691
O O15 0.430327 0.000000 0.333334
O O16 0.430221 0.000000 0.833334
#
# Coordination Sequence:
#
# PCOD9575705 Si02
#       7
#     6   6   6   6   6   6   6
#     4  10  17  30  36  49  66  75  87 105 148 149
#     4  10  16  23  38  54  63  75  87  99 117 168
#     4  12  22  30  40  48  58  74 111 128 140 158
#     4  10  19  28  37  46  58  80  88 118 139 152
#     4  10  17  30  36  49  66  75  87 105 148 149
#     4  10  16  23  38  54  63  75  87  99 117 168
#     4  10  19  28  37  46  58  80  88 118 139 152
#
# _framework density 10.886218
#
# number of rings (size 3 to 8) (size 9 to 14) (size 15 to 20)
#    0.000    1.714    2.857   10.286    0.000    0.000 
#    0.000    0.000    0.000    0.000    0.000    0.000 
#    0.000    0.000    0.000    0.000    0.000    0.000 
#
# Total GULP energy -234026.394416 kJ/mol
# GULP energy per Si atom -5572.057010 kJ/mol
# Density = 1.086144 g / cm^3
# Si number density = 10.886218 Si / 1000 Ang^3
#
#
#
# Elastic Constant Matrix: (Units=GPa)
#
#
# Indices 1 2 3 4 5 6 
#
# 1 12.2224 10.8842 10.3873 -0.8963 0.0000 0.0000
# 2 10.8842 12.2224 10.3873 0.8963 0.0000 0.0000
# 3 10.3873 10.3873 118.0509 0.0000 0.0000 0.0000
# 4 -0.8963 0.8963 0.0000 10.8049 0.0000 0.0000
# 5 0.0000 0.0000 0.0000 0.0000 10.8049 -0.8963
# 6 0.0000 0.0000 0.0000 0.0000 -0.8963 0.6691
#
#
#
# Elastic Compliance Matrix: (Units=1/GPa)
#
#
# Indices 1 2 3 4 5 6 
#
# 1 0.443863 -0.396868 -0.004135 0.069743 0.000001 0.000000
# 2 -0.396868 0.443863 -0.004135 -0.069743 -0.000001 0.000000
# 3 -0.004135 -0.004135 0.009199 0.000000 0.000000 0.000000
# 4 0.069743 -0.069743 0.000000 0.104121 0.000000 -0.000001
# 5 0.000001 -0.000001 0.000000 0.000000 0.104121 0.139486
# 6 0.000000 0.000000 0.000000 -0.000001 0.139486 1.681461
#
#
# Mechanical properties :
#
#
# Convention : Reuss Voigt Hill
#
# Bulk Modulus (GPa) = 11.54082 22.86814 17.20448
# Shear Modulus (GPa) = 1.37901 11.84492 6.61197
#
# Velocity S-wave (km/s) = 1.12672 3.30216 2.46716
# Velocity P-wave (km/s) = 3.50956 5.96583 4.89429
#
# Compressibility (1/GPa) = 0.08664899
#
# Stress axis : x y z
#
# Youngs Moduli (GPa) = 2.25295 2.25295 108.71202
#
# Poissons Ratio (x) = 0.89412 0.44954
# Poissons Ratio (y) = 0.89412 0.44954
# Poissons Ratio (z) = 0.00932 0.00932
#
# Static dielectric constant tensor:
#      x y z
#    x 1.330870 0.000000 0.000000 
#    y 0.000000 1.330870 0.000000 
#    z 0.000000 0.000000 1.479160 
# 
# From -- ./inp_files/576.got.cif
#   From: 2010.05.17/outbox.cif.g08.bks.cpg/sg152_1_cif.got.tgz:576.got - 2010.05.20 10:36:06.
