data_PCOD9575250
_publ_section_title
;
Structure prediction by ZEFSAII (Michael W. Deem and Ramdas Pophale) SiO2 
 PCOD9575250
Probable space group: R -3
;
_chemical_formula_sum "Si O2"
_cell_formula_units_Z 126
_cell_length_a 17.686563
_cell_length_b 17.686563
_cell_length_c 26.684987
_cell_angle_alpha 90.000000
_cell_angle_beta 90.000000
_cell_angle_gamma 120.000000
_cell_volume 7229.104755
_symmetry_space_group_name_H-M "R -3"
_symmetry_group_IT_number 148
_symmetry_cell_setting 'hexagonal'
loop_
_space_group_symop_operation_xyz
x,y,z
-y,x-y,z
-x+y,-x,z
-x,-y,-z
y,-x+y,-z
x-y,x,-z
2/3+x,1/3+y,1/3+z
2/3-y,1/3+x-y,1/3+z
2/3-x+y,1/3-x,1/3+z
2/3-x,1/3-y,1/3-z
2/3+y,1/3-x+y,1/3-z
2/3+x-y,1/3+x,1/3-z
1/3+x,2/3+y,2/3+z
1/3-y,2/3+x-y,2/3+z
1/3-x+y,2/3-x,2/3+z
1/3-x,2/3-y,2/3-z
1/3+y,2/3-x+y,2/3-z
1/3+x-y,2/3+x,2/3-z
loop_
_atom_site_type_symbol
_atom_site_label
_atom_site_fract_x
_atom_site_fract_y
_atom_site_fract_z
Si Si1 0.506887 0.664209 0.241127
Si Si2 0.093867 0.456727 0.983554
Si Si3 0.493113 0.157321 0.758873
Si Si4 0.666667 0.645748 0.833333
Si Si5 0.178002 0.180184 0.793398
Si Si6 0.155331 0.668848 0.873269
Si Si7 0.123394 0.427200 0.349779
O O1 0.514926 0.757463 0.231170
O O2 0.415237 0.584763 0.223266
O O3 0.585776 0.660939 0.213717
O O4 0.513626 0.657265 0.300944
O O5 0.131455 0.449993 0.930532
O O6 0.081519 0.540759 0.976235
O O7 0.153040 0.476972 0.032390
O O8 1.000000 0.377622 0.000000
O O9 0.414224 0.075162 0.786283
O O10 0.581610 0.655139 0.840145
O O11 0.751724 0.740196 0.826521
O O12 0.087411 0.174823 0.807589
O O13 0.169779 0.084890 0.795117
O O14 0.131455 0.681462 0.930532
#
# Coordination Sequence:
#
# PCOD9575250 Si02
#       7
#    18  18  18  18  18  18  18
#     4  11  21  34  53  79 110 145 181 219 266 326
#     4   9  17  33  55  77 104 138 175 218 267 317
#     4  11  21  34  53  79 110 145 181 219 266 326
#     4  12  23  36  53  76 112 150 178 218 271 326
#     4  11  22  38  58  81 107 140 184 231 275 319
#     4  11  22  38  58  81 107 140 184 231 275 319
#     4   9  17  33  55  77 104 138 175 218 267 317
#
# _framework density 17.429544
#
# number of rings (size 3 to 8) (size 9 to 14) (size 15 to 20)
#    0.000    1.429    2.857    4.429    0.000    0.000 
#    0.000    4.286    0.000    0.000    0.000    0.000 
#    0.000    0.000    0.000   12.286    0.000    0.000 
#
# Total GULP energy -234300.261386 kJ/mol
# GULP energy per Si atom -5578.577652 kJ/mol
# Density = 1.738987 g / cm^3
# Si number density = 17.429544 Si / 1000 Ang^3
#
#
#
# Elastic Constant Matrix: (Units=GPa)
#
#
# Indices 1 2 3 4 5 6 
#
# 1 123.5037 78.0668 34.2211 -14.0033 0.0004 0.0000
# 2 78.0668 123.5037 34.2211 14.0033 -0.0004 0.0000
# 3 34.2211 34.2211 43.9251 0.0000 0.0000 0.0000
# 4 -14.0033 14.0033 0.0000 -11.0243 0.0000 -0.0004
# 5 0.0004 -0.0004 0.0000 0.0000 -11.0243 -14.0033
# 6 0.0000 0.0000 0.0000 -0.0004 -14.0033 22.7184
#
#
#
# Elastic Compliance Matrix: (Units=1/GPa)
#
#
# Indices 1 2 3 4 5 6 
#
# 1 0.009545 -0.002799 -0.005255 -0.015679 0.000000 0.000000
# 2 -0.002799 0.009545 -0.005255 0.015679 0.000000 0.000000
# 3 -0.005255 -0.005255 0.030955 0.000000 0.000000 0.000000
# 4 -0.015679 0.015679 0.000000 -0.050876 0.000000 -0.000001
# 5 0.000000 0.000000 0.000000 0.000000 -0.050876 -0.031359
# 6 0.000000 0.000000 0.000000 -0.000001 -0.031359 0.024688
#
#
# Mechanical properties :
#
#
# Convention : Reuss Voigt Hill
#
# Bulk Modulus (GPa) = 42.69039 64.88341 53.78690
# Shear Modulus (GPa) = 674.95249 9.76218 342.35733
#
# Velocity S-wave (km/s) = 19.69992 2.36920 14.03032
# Velocity P-wave (km/s) = 23.28080 6.69261 17.12873
#
# Compressibility (1/GPa) = 0.02342448
#
# Stress axis : x y z
#
# Youngs Moduli (GPa) = 104.77021 104.77021 32.30547
#
# Poissons Ratio (x) = 0.29328 0.16977
# Poissons Ratio (y) = 0.29328 0.16977
# Poissons Ratio (z) = 0.55059 0.55059
#
# Static dielectric constant tensor:
#      x y z
#    x 1.589300 0.000000 0.000000 
#    y 0.000000 1.589300 0.000000 
#    z 0.000000 0.000000 1.623680 
# 
# From -- ./inp_files/3465.got.cif
#   From: 2010.05.17/outbox.cif.g08.bks.cpg/sg148_2_cif.got.tgz:3465.got - 2010.05.20 13:50:20.
