data_PCOD9575642
_publ_section_title
;
Structure prediction by ZEFSAII (Michael W. Deem and Ramdas Pophale) SiO2 
 PCOD9575642
Probable space group: P 31 1 2
;
_chemical_formula_sum "Si O2"
_cell_formula_units_Z 36
_cell_length_a 11.548833
_cell_length_b 11.548833
_cell_length_c 13.946754
_cell_angle_alpha 90.000000
_cell_angle_beta 90.000000
_cell_angle_gamma 120.000000
_cell_volume 1610.942262
_symmetry_space_group_name_H-M "P 31 1 2"
_symmetry_group_IT_number 151
_symmetry_cell_setting 'hexagonal'
loop_
_space_group_symop_operation_xyz
x,y,z
-y,x-y,1/3+z
-x+y,-x,2/3+z
-y,-x,2/3-z
-x+y,y,1/3-z
x,x-y,-z
loop_
_atom_site_type_symbol
_atom_site_label
_atom_site_fract_x
_atom_site_fract_y
_atom_site_fract_z
Si Si1 0.041960 0.958041 0.333334
Si Si2 0.257074 0.949623 0.468281
Si Si3 0.760460 0.777273 0.356070
Si Si4 0.724060 0.233514 0.600540
Si Si5 0.562139 0.112579 0.418021
Si Si6 0.263934 0.527867 0.666667
Si Si7 0.174582 0.474308 0.254256
O O1 0.160292 0.979844 0.404444
O O2 0.900770 0.904665 0.383227
O O3 0.219170 0.950553 0.577040
O O4 0.243786 0.814472 0.422077
O O5 0.413252 0.059074 0.459380
O O6 0.767731 0.645379 0.382879
O O7 0.638588 0.786161 0.400471
O O8 0.593467 0.186933 0.666667
O O9 0.673731 0.217070 0.490762
O O10 0.827922 0.377427 0.648711
O O11 0.581470 0.983534 0.422328
O O12 0.421626 0.627875 0.673579
O O13 0.277110 0.554220 0.166667
#
# Coordination Sequence:
#
# PCOD9575642 Si02
#       7
#     3   6   6   6   6   3   6
#     4  11  24  44  70 108 137 186 256 304 367 458
#     4  10  22  45  71 100 138 190 249 302 372 450
#     4  12  25  43  74 104 144 199 241 309 376 456
#     4  12  24  43  78 107 143 193 257 307 371 457
#     4  11  24  47  73 107 146 192 255 308 380 453
#     4   9  24  40  68 102 145 182 252 316 363 440
#     4  11  25  43  70 110 149 190 250 311 381 449
#
# _framework density 22.347169999999998
#
# number of rings (size 3 to 8) (size 9 to 14) (size 15 to 20)
#    0.000    1.000    5.000    1.000    5.833    1.333 
#    1.500    1.667    0.000    0.000    0.000    0.000 
#    0.000    0.000    0.000    0.000    0.000    0.000 
#
# Total GULP energy -200797.442396 kJ/mol
# GULP energy per Si atom -5577.706733 kJ/mol
# Density = 2.229631 g / cm^3
# Si number density = 22.347170 Si / 1000 Ang^3
#
#
#
# Elastic Constant Matrix: (Units=GPa)
#
#
# Indices 1 2 3 4 5 6 
#
# 1 111.2873 43.3083 31.3835 0.0000 -11.1574 0.0000
# 2 43.3083 111.2873 31.3835 0.0000 11.1574 0.0000
# 3 31.3835 31.3835 95.0948 0.0000 0.0000 0.0000
# 4 0.0000 0.0000 0.0000 23.3682 0.0000 11.1574
# 5 -11.1574 11.1574 0.0000 0.0000 23.3682 0.0000
# 6 0.0000 0.0000 0.0000 11.1574 0.0000 33.9895
#
#
#
# Elastic Compliance Matrix: (Units=1/GPa)
#
#
# Indices 1 2 3 4 5 6 
#
# 1 0.012457 -0.004988 -0.002465 0.000000 0.008329 0.000000
# 2 -0.004988 0.012457 -0.002465 0.000000 -0.008329 0.000000
# 3 -0.002465 -0.002465 0.012143 0.000000 0.000000 0.000000
# 4 0.000000 0.000000 0.000000 0.050747 0.000000 -0.016658
# 5 0.008329 -0.008329 0.000000 0.000000 0.050747 0.000000
# 6 0.000000 0.000000 0.000000 -0.016658 0.000000 0.034889
#
#
# Mechanical properties :
#
#
# Convention : Reuss Voigt Hill
#
# Bulk Modulus (GPa) = 58.06763 58.86892 58.46827
# Shear Modulus (GPa) = 25.12366 30.25143 27.68754
#
# Velocity S-wave (km/s) = 3.35661 3.68326 3.52372
# Velocity P-wave (km/s) = 6.40806 6.66998 6.54033
#
# Compressibility (1/GPa) = 0.01722130
#
# Stress axis : x y z
#
# Youngs Moduli (GPa) = 80.27655 80.27655 82.35285
#
# Poissons Ratio (x) = 0.40039 0.20300
# Poissons Ratio (y) = 0.40039 0.20300
# Poissons Ratio (z) = 0.19789 0.19789
#
# Static dielectric constant tensor:
#      x y z
#    x 1.860070 0.000000 0.000000 
#    y 0.000000 1.860070 0.000000 
#    z 0.000000 0.000000 1.938430 
# 
# From -- ./inp_files/2970.got.cif
#   From: 2010.05.17/outbox.cif.g08.bks.cpg/sg151_2_cif.got.tgz:2970.got - 2010.05.20 10:33:20.
