data_PCOD9575559
_publ_section_title
;
Structure prediction by ZEFSAII (Michael W. Deem and Ramdas Pophale) SiO2 
 PCOD9575559
Probable space group: P 31 1 2
;
_chemical_formula_sum "Si O2"
_cell_formula_units_Z 36
_cell_length_a 9.199134
_cell_length_b 9.199134
_cell_length_c 25.561121
_cell_angle_alpha 90.000000
_cell_angle_beta 90.000000
_cell_angle_gamma 120.000000
_cell_volume 1873.287426
_symmetry_space_group_name_H-M "P 31 1 2"
_symmetry_group_IT_number 151
_symmetry_cell_setting 'hexagonal'
loop_
_space_group_symop_operation_xyz
x,y,z
-y,x-y,1/3+z
-x+y,-x,2/3+z
-y,-x,2/3-z
-x+y,y,1/3-z
x,x-y,-z
loop_
_atom_site_type_symbol
_atom_site_label
_atom_site_fract_x
_atom_site_fract_y
_atom_site_fract_z
Si Si1 0.619198 0.646150 0.891926
Si Si2 0.944981 0.108422 0.037862
Si Si3 0.962727 0.374657 0.958484
Si Si4 0.661161 0.349356 0.557696
Si Si5 0.298227 0.189074 0.060234
Si Si6 0.146370 0.744139 0.559165
O O1 0.786209 0.773453 0.923554
O O2 0.634901 0.478988 0.886391
O O3 0.428493 0.562830 0.913775
O O4 0.610023 0.723230 0.836296
O O5 0.133885 0.211188 0.062707
O O6 0.913103 0.220114 0.996971
O O7 0.957415 0.978708 0.000000
O O8 0.092679 0.401744 0.912986
O O9 0.794260 0.351454 0.932809
O O10 0.048167 0.524084 0.000000
O O11 0.583466 0.291733 0.500000
O O12 0.685934 0.528733 0.576371
O O13 0.241992 0.008609 0.084935
O O14 0.340727 0.170364 0.000000
#
# Coordination Sequence:
#
# PCOD9575559 Si02
#       6
#     6   6   6   6   6   6
#     4  10  21  42  68  88 127 173 215 267 329 395
#     4  11  23  39  63 100 124 166 220 265 322 389
#     4  12  24  39  64  98 133 160 216 281 322 384
#     4  11  22  41  66  96 123 178 219 262 328 400
#     4  10  19  38  65  89 121 167 217 247 319 399
#     4  10  21  42  66  89 127 170 212 270 329 388
#
# _framework density 19.217552000000001
#
# number of rings (size 3 to 8) (size 9 to 14) (size 15 to 20)
#    0.000    1.333    8.333    0.500    2.333    2.667 
#    0.000    3.333    0.000    0.000    0.000    0.000 
#    0.000    0.000    0.000    0.000    0.000    0.000 
#
# Total GULP energy -200455.908636 kJ/mol
# GULP energy per Si atom -5568.219684 kJ/mol
# Density = 1.917381 g / cm^3
# Si number density = 19.217552 Si / 1000 Ang^3
#
#
#
# Elastic Constant Matrix: (Units=GPa)
#
#
# Indices 1 2 3 4 5 6 
#
# 1 79.5133 31.8225 37.8753 0.0001 -1.1473 0.0000
# 2 31.8225 79.5133 37.8753 -0.0001 1.1473 0.0000
# 3 37.8753 37.8753 81.1837 0.0000 0.0000 0.0000
# 4 0.0001 -0.0001 0.0000 35.8066 0.0000 1.1473
# 5 -1.1473 1.1473 0.0000 0.0000 35.8066 0.0001
# 6 0.0000 0.0000 0.0000 1.1473 0.0001 23.8454
#
#
#
# Elastic Compliance Matrix: (Units=1/GPa)
#
#
# Indices 1 2 3 4 5 6 
#
# 1 0.017080 -0.003921 -0.006139 0.000000 0.000673 0.000000
# 2 -0.003921 0.017080 -0.006139 0.000000 -0.000673 0.000000
# 3 -0.006139 -0.006139 0.018046 0.000000 0.000000 0.000000
# 4 0.000000 0.000000 0.000000 0.027971 0.000000 -0.001346
# 5 0.000673 -0.000673 0.000000 0.000000 0.027971 0.000000
# 6 0.000000 0.000000 0.000000 -0.001346 0.000000 0.042002
#
#
# Mechanical properties :
#
#
# Convention : Reuss Voigt Hill
#
# Bulk Modulus (GPa) = 50.48670 50.59517 50.54093
# Shear Modulus (GPa) = 26.43411 27.93418 27.18414
#
# Velocity S-wave (km/s) = 3.71282 3.81672 3.76513
# Velocity P-wave (km/s) = 6.68642 6.76815 6.72741
#
# Compressibility (1/GPa) = 0.01980720
#
# Stress axis : x y z
#
# Youngs Moduli (GPa) = 58.54887 58.54887 55.41410
#
# Poissons Ratio (x) = 0.22957 0.34019
# Poissons Ratio (y) = 0.22957 0.34019
# Poissons Ratio (z) = 0.35943 0.35943
#
# Static dielectric constant tensor:
#      x y z
#    x 1.662260 0.000000 0.000000 
#    y 0.000000 1.662260 0.000000 
#    z 0.000000 0.000000 1.719270 
# 
# From -- ./inp_files/4673.got.cif
#   From: 2010.05.17/outbox.cif.g08.bks.cpg/sg151_3_cif.got.tgz:4673.got - 2010.05.20 10:33:20.
