data_PCOD9575673
_publ_section_title
;
Structure prediction by ZEFSAII (Michael W. Deem and Ramdas Pophale) SiO2 
 PCOD9575673
Probable space group: P 31 1 2
;
_chemical_formula_sum "Si O2"
_cell_formula_units_Z 36
_cell_length_a 11.860872
_cell_length_b 11.860872
_cell_length_c 14.579335
_cell_angle_alpha 90.000000
_cell_angle_beta 90.000000
_cell_angle_gamma 120.000000
_cell_volume 1776.239751
_symmetry_space_group_name_H-M "P 31 1 2"
_symmetry_group_IT_number 151
_symmetry_cell_setting 'hexagonal'
loop_
_space_group_symop_operation_xyz
x,y,z
-y,x-y,1/3+z
-x+y,-x,2/3+z
-y,-x,2/3-z
-x+y,y,1/3-z
x,x-y,-z
loop_
_atom_site_type_symbol
_atom_site_label
_atom_site_fract_x
_atom_site_fract_y
_atom_site_fract_z
Si Si1 0.565091 0.070441 0.066790
Si Si2 0.941907 0.102195 0.225262
Si Si3 0.004203 0.391867 0.231124
Si Si4 0.449732 0.763926 0.895110
Si Si5 0.780294 0.367605 0.100802
Si Si6 0.717222 0.927842 0.085616
O O1 0.509322 0.018643 0.166667
O O2 0.663453 0.223217 0.077220
O O3 0.645409 0.999915 0.039596
O O4 0.451333 0.044636 0.997760
O O5 0.930851 0.069150 0.333334
O O6 0.007188 0.259093 0.223767
O O7 0.033396 0.066791 0.166667
O O8 0.807283 0.022277 0.166967
O O9 0.892299 0.370187 0.160675
O O10 0.129980 0.533574 0.215064
O O11 0.357957 0.642044 0.833334
O O12 0.601584 0.811758 0.875523
O O13 0.429744 0.714872 0.000000
O O14 0.715146 0.430291 0.166667
O O15 0.835398 0.417699 0.000000
O O16 0.780458 0.890229 0.000000
#
# Coordination Sequence:
#
# PCOD9575673 Si02
#       6
#     6   6   6   6   6   6
#     4  11  21  38  66 101 132 175 235 293 355 428
#     4  12  28  48  72 103 144 195 247 302 364 439
#     4  12  24  44  67 106 140 185 234 302 360 421
#     4  11  25  43  70 103 139 181 238 296 360 427
#     4  11  23  38  64  98 139 173 226 285 349 423
#     4  11  22  45  72  99 135 188 245 288 358 444
#
# _framework density 20.267534999999999
#
# number of rings (size 3 to 8) (size 9 to 14) (size 15 to 20)
#    0.000    0.667    6.667    2.500    4.667    0.667 
#    3.000    0.833    0.000    0.000    0.000    0.000 
#    0.000    0.000    0.000    0.000    0.000    0.000 
#
# Total GULP energy -200852.563773 kJ/mol
# GULP energy per Si atom -5579.237883 kJ/mol
# Density = 2.022141 g / cm^3
# Si number density = 20.267535 Si / 1000 Ang^3
#
#
#
# Elastic Constant Matrix: (Units=GPa)
#
#
# Indices 1 2 3 4 5 6 
#
# 1 65.8275 18.1419 15.3438 -0.0005 -2.9534 0.0000
# 2 18.1419 65.8275 15.3438 0.0005 2.9534 0.0000
# 3 15.3438 15.3438 110.0573 0.0000 0.0000 0.0000
# 4 -0.0005 0.0005 0.0000 23.1318 0.0000 2.9534
# 5 -2.9534 2.9534 0.0000 0.0000 23.1318 -0.0005
# 6 0.0000 0.0000 0.0000 2.9534 -0.0005 23.8428
#
#
#
# Elastic Compliance Matrix: (Units=1/GPa)
#
#
# Indices 1 2 3 4 5 6 
#
# 1 0.016928 -0.004380 -0.001749 0.000000 0.002721 0.000000
# 2 -0.004380 0.016928 -0.001749 0.000000 -0.002721 0.000000
# 3 -0.001749 -0.001749 0.009574 0.000000 0.000000 0.000000
# 4 0.000000 0.000000 0.000000 0.043925 0.000000 -0.005441
# 5 0.002721 -0.002721 0.000000 0.000000 0.043925 0.000001
# 6 0.000000 0.000000 0.000000 -0.005441 0.000001 0.042615
#
#
# Mechanical properties :
#
#
# Convention : Reuss Voigt Hill
#
# Bulk Modulus (GPa) = 36.13624 37.70792 36.92208
# Shear Modulus (GPa) = 25.14112 26.88013 26.01063
#
# Velocity S-wave (km/s) = 3.52584 3.64574 3.58629
# Velocity P-wave (km/s) = 5.86888 6.03054 5.95026
#
# Compressibility (1/GPa) = 0.02767305
#
# Stress axis : x y z
#
# Youngs Moduli (GPa) = 59.07352 59.07352 104.44971
#
# Poissons Ratio (x) = 0.25872 0.18273
# Poissons Ratio (y) = 0.25872 0.18273
# Poissons Ratio (z) = 0.10335 0.10335
#
# Static dielectric constant tensor:
#      x y z
#    x 1.758040 0.000000 0.000000 
#    y 0.000000 1.758040 0.000000 
#    z 0.000000 0.000000 1.762180 
# 
# From -- ./inp_files/2937.got.cif
#   From: 2010.05.17/outbox.cif.g08.bks.cpg/sg151_2_cif.got.tgz:2937.got - 2010.05.20 10:33:20.
