data_PCOD9575003
_publ_section_title
;
Structure prediction by ZEFSAII (Michael W. Deem and Ramdas Pophale) SiO2 
 PCOD9575003
Probable space group: R -3
;
_chemical_formula_sum "Si O2"
_cell_formula_units_Z 126
_cell_length_a 28.633057
_cell_length_b 28.633057
_cell_length_c 11.130846
_cell_angle_alpha 90.000000
_cell_angle_beta 90.000000
_cell_angle_gamma 120.000000
_cell_volume 7903.041118
_symmetry_space_group_name_H-M "R -3"
_symmetry_group_IT_number 148
_symmetry_cell_setting 'hexagonal'
loop_
_space_group_symop_operation_xyz
x,y,z
-y,x-y,z
-x+y,-x,z
-x,-y,-z
y,-x+y,-z
x-y,x,-z
2/3+x,1/3+y,1/3+z
2/3-y,1/3+x-y,1/3+z
2/3-x+y,1/3-x,1/3+z
2/3-x,1/3-y,1/3-z
2/3+y,1/3-x+y,1/3-z
2/3+x-y,1/3+x,1/3-z
1/3+x,2/3+y,2/3+z
1/3-y,2/3+x-y,2/3+z
1/3-x+y,2/3-x,2/3+z
1/3-x,2/3-y,2/3-z
1/3+y,2/3-x+y,2/3-z
1/3+x-y,2/3+x,2/3-z
loop_
_atom_site_type_symbol
_atom_site_label
_atom_site_fract_x
_atom_site_fract_y
_atom_site_fract_z
Si Si1 0.938517 0.525413 0.010346
Si Si2 0.515428 0.666669 0.166713
Si Si3 0.805574 0.848493 0.102786
Si Si4 0.271855 0.079775 0.677078
Si Si5 0.773379 0.439943 0.026770
Si Si6 0.559953 0.333222 0.639819
Si Si7 0.818138 0.527754 0.436058
O O1 0.902136 0.525359 0.900938
O O2 0.999997 0.572531 0.999931
O O3 0.908850 0.521454 0.136762
O O4 0.937982 0.468992 0.003159
O O5 0.568822 0.710108 0.234323
O O6 0.469936 0.646552 0.269768
O O7 0.490036 0.686790 0.063702
O O8 0.859823 0.875575 0.183474
O O9 0.797402 0.898681 0.061584
O O10 0.815036 0.815012 0.000040
O O11 0.242168 0.054077 0.803476
O O12 0.777628 0.388813 0.979332
O O13 0.712216 0.424432 0.042892
O O14 0.526510 0.317565 0.516701
#
# Coordination Sequence:
#
# PCOD9575003 Si02
#       7
#    18  18  18  18  18  18  18
#     4   9  18  33  51  68  88 117 152 192 238 285
#     4  10  18  30  47  68  88 116 157 196 236 280
#     4   9  17  29  46  68  94 126 160 189 222 268
#     4   9  18  33  51  68  88 117 152 192 238 285
#     4  10  18  27  42  67 101 135 163 190 219 259
#     4  10  18  27  42  67 101 135 163 190 219 259
#     4   9  17  29  46  68  94 126 160 189 222 268
#
# _framework density 15.94323
#
# number of rings (size 3 to 8) (size 9 to 14) (size 15 to 20)
#    0.000    2.571    0.000    5.429    0.000    0.000 
#    0.000    2.857    0.000    9.714    0.000   26.000 
#    0.000    0.000    0.000    0.000    0.000    0.000 
#
# Total GULP energy -233844.082818 kJ/mol
# GULP energy per Si atom -5567.716258 kJ/mol
# Density = 1.590694 g / cm^3
# Si number density = 15.943230 Si / 1000 Ang^3
#
#
#
# Elastic Constant Matrix: (Units=GPa)
#
#
# Indices 1 2 3 4 5 6 
#
# 1 97.1202 42.3469 51.7400 4.7088 0.0026 0.0004
# 2 42.3469 97.1187 51.7367 -4.7088 -0.0030 -0.0002
# 3 51.7400 51.7367 83.1627 -0.0004 -0.0019 0.0006
# 4 4.7088 -4.7088 -0.0004 15.2353 -0.0008 -0.0021
# 5 0.0026 -0.0030 -0.0019 -0.0008 15.2339 4.7090
# 6 0.0004 -0.0002 0.0006 -0.0021 4.7090 27.3858
#
#
#
# Elastic Compliance Matrix: (Units=1/GPa)
#
#
# Indices 1 2 3 4 5 6 
#
# 1 0.016300 -0.002982 -0.008286 -0.005960 -0.000005 0.000000
# 2 -0.002982 0.016299 -0.008285 0.005959 0.000003 0.000000
# 3 -0.008286 -0.008285 0.022334 0.000001 0.000003 -0.000001
# 4 -0.005960 0.005959 0.000001 0.069321 0.000004 0.000005
# 5 -0.000005 0.000003 0.000003 0.000004 0.069328 -0.011921
# 6 0.000000 0.000000 -0.000001 0.000005 -0.011921 0.038565
#
#
# Mechanical properties :
#
#
# Convention : Reuss Voigt Hill
#
# Bulk Modulus (GPa) = 63.18080 63.22766 63.20423
# Shear Modulus (GPa) = 18.08133 20.34287 19.21210
#
# Velocity S-wave (km/s) = 3.37130 3.57593 3.47512
# Velocity P-wave (km/s) = 7.40735 7.53616 7.47204
#
# Compressibility (1/GPa) = 0.01582759
#
# Stress axis : x y z
#
# Youngs Moduli (GPa) = 61.34945 61.35232 44.77552
#
# Poissons Ratio (x) = 0.18297 0.37100
# Poissons Ratio (y) = 0.18296 0.37094
# Poissons Ratio (z) = 0.50833 0.50828
#
# Static dielectric constant tensor:
#      x y z
#    x 1.532630 0.000000 0.000000 
#    y 0.000000 1.532630 0.000000 
#    z 0.000000 0.000000 1.540280 
# 
# From -- ./inp_files/1593.got.cif
#   From: 2010.05.17/outbox.cif.g08.bks.cpg/sg148_1_cif.got.tgz:1593.got - 2010.05.20 13:50:20.
