data_PCOD9575025
_publ_section_title
;
Structure prediction by ZEFSAII (Michael W. Deem and Ramdas Pophale) SiO2 
 PCOD9575025
Probable space group: R -3
;
_chemical_formula_sum "Si O2"
_cell_formula_units_Z 108
_cell_length_a 16.014906
_cell_length_b 16.014906
_cell_length_c 24.539630
_cell_angle_alpha 90.000000
_cell_angle_beta 90.000000
_cell_angle_gamma 120.000000
_cell_volume 5450.639131
_symmetry_space_group_name_H-M "R -3"
_symmetry_group_IT_number 148
_symmetry_cell_setting 'hexagonal'
loop_
_space_group_symop_operation_xyz
x,y,z
-y,x-y,z
-x+y,-x,z
-x,-y,-z
y,-x+y,-z
x-y,x,-z
2/3+x,1/3+y,1/3+z
2/3-y,1/3+x-y,1/3+z
2/3-x+y,1/3-x,1/3+z
2/3-x,1/3-y,1/3-z
2/3+y,1/3-x+y,1/3-z
2/3+x-y,1/3+x,1/3-z
1/3+x,2/3+y,2/3+z
1/3-y,2/3+x-y,2/3+z
1/3-x+y,2/3-x,2/3+z
1/3-x,2/3-y,2/3-z
1/3+y,2/3-x+y,2/3-z
1/3+x-y,2/3+x,2/3-z
loop_
_atom_site_type_symbol
_atom_site_label
_atom_site_fract_x
_atom_site_fract_y
_atom_site_fract_z
Si Si1 0.564048 0.463418 0.186571
Si Si2 0.880541 0.082886 0.474810
Si Si3 0.573013 0.600529 0.570973
Si Si4 0.464697 0.055140 0.074609
Si Si5 0.554657 0.923775 0.046397
Si Si6 0.051170 0.620922 0.551654
O O1 0.502070 0.518525 0.183181
O O2 0.657950 0.529755 0.221186
O O3 0.592929 0.467750 0.123060
O O4 0.496428 0.365022 0.217440
O O5 0.994489 0.148811 0.482585
O O6 0.834012 0.030270 0.417648
O O7 0.666242 0.659181 0.609341
O O8 0.476780 0.500966 0.584201
O O9 0.605594 0.576777 0.513216
O O10 0.354360 0.011289 0.093597
O O11 0.494301 0.974661 0.064442
O O12 0.469529 0.102699 0.016460
#
# Coordination Sequence:
#
# PCOD9575025 Si02
#       6
#    18  18  18  18  18  18
#     4  10  18  36  61  81 108 148 194 233 285 343
#     4  11  20  34  55  85 110 147 190 235 283 352
#     4   9  19  35  56  81 108 144 196 231 274 348
#     4  10  19  34  56  82 113 148 183 237 290 333
#     4  10  20  35  55  83 114 148 187 234 290 342
#     4  10  19  36  58  81 108 151 193 233 277 351
#
# _framework density 19.81419
#
# number of rings (size 3 to 8) (size 9 to 14) (size 15 to 20)
#    0.000    2.000    3.333    2.167    0.000    0.000 
#   10.000    0.000    0.000    0.667    0.000    1.167 
#    0.000    0.000    0.000    0.000    0.000    0.000 
#
# Total GULP energy -200544.806905 kJ/mol
# GULP energy per Si atom -5570.689081 kJ/mol
# Density = 1.976909 g / cm^3
# Si number density = 19.814190 Si / 1000 Ang^3
#
#
#
# Elastic Constant Matrix: (Units=GPa)
#
#
# Indices 1 2 3 4 5 6 
#
# 1 61.7321 30.0943 16.7826 3.2461 -0.3378 0.0000
# 2 30.0943 61.7321 16.7826 -3.2461 0.3378 0.0000
# 3 16.7826 16.7826 74.6442 0.0000 0.0000 0.0000
# 4 3.2461 -3.2461 0.0000 17.6341 0.0000 0.3378
# 5 -0.3378 0.3378 0.0000 0.0000 17.6341 3.2461
# 6 0.0000 0.0000 0.0000 0.3378 3.2461 15.8189
#
#
#
# Elastic Compliance Matrix: (Units=1/GPa)
#
#
# Indices 1 2 3 4 5 6 
#
# 1 0.022364 -0.010499 -0.002668 -0.006049 0.000629 0.000000
# 2 -0.010499 0.022364 -0.002668 0.006049 -0.000629 0.000000
# 3 -0.002668 -0.002668 0.014596 0.000000 0.000000 0.000000
# 4 -0.006049 0.006049 0.000000 0.058960 0.000000 -0.001259
# 5 0.000629 -0.000629 0.000000 0.000000 0.058960 -0.012099
# 6 0.000000 0.000000 0.000000 -0.001259 -0.012099 0.065725
#
#
# Mechanical properties :
#
#
# Convention : Reuss Voigt Hill
#
# Bulk Modulus (GPa) = 36.15837 36.15858 36.15848
# Shear Modulus (GPa) = 17.61458 19.18066 18.39762
#
# Velocity S-wave (km/s) = 2.98483 3.11469 3.05045
# Velocity P-wave (km/s) = 5.49247 5.58780 5.54034
#
# Compressibility (1/GPa) = 0.02765611
#
# Stress axis : x y z
#
# Youngs Moduli (GPa) = 44.71492 44.71492 68.50968
#
# Poissons Ratio (x) = 0.46945 0.18276
# Poissons Ratio (y) = 0.46945 0.18276
# Poissons Ratio (z) = 0.11929 0.11929
#
# Static dielectric constant tensor:
#      x y z
#    x 1.723450 0.000000 0.000000 
#    y 0.000000 1.723450 0.000000 
#    z 0.000000 0.000000 1.740720 
# 
# From -- ./inp_files/3402.got.cif
#   From: 2010.05.17/outbox.cif.g08.bks.cpg/sg148_2_cif.got.tgz:3402.got - 2010.05.20 13:50:20.
