data_PCOD9575023
_publ_section_title
;
Structure prediction by ZEFSAII (Michael W. Deem and Ramdas Pophale) SiO2 
 PCOD9575023
Probable space group: R -3
;
_chemical_formula_sum "Si O2"
_cell_formula_units_Z 54
_cell_length_a 20.840839
_cell_length_b 20.840839
_cell_length_c 8.060480
_cell_angle_alpha 90.000000
_cell_angle_beta 90.000000
_cell_angle_gamma 120.000000
_cell_volume 3031.949292
_symmetry_space_group_name_H-M "R -3"
_symmetry_group_IT_number 148
_symmetry_cell_setting 'hexagonal'
loop_
_space_group_symop_operation_xyz
x,y,z
-y,x-y,z
-x+y,-x,z
-x,-y,-z
y,-x+y,-z
x-y,x,-z
2/3+x,1/3+y,1/3+z
2/3-y,1/3+x-y,1/3+z
2/3-x+y,1/3-x,1/3+z
2/3-x,1/3-y,1/3-z
2/3+y,1/3-x+y,1/3-z
2/3+x-y,1/3+x,1/3-z
1/3+x,2/3+y,2/3+z
1/3-y,2/3+x-y,2/3+z
1/3-x+y,2/3-x,2/3+z
1/3-x,2/3-y,2/3-z
1/3+y,2/3-x+y,2/3-z
1/3+x-y,2/3+x,2/3-z
loop_
_atom_site_type_symbol
_atom_site_label
_atom_site_fract_x
_atom_site_fract_y
_atom_site_fract_z
Si Si1 0.587285 0.918784 0.132452
Si Si2 0.092414 0.448680 0.846387
Si Si3 0.745147 0.149003 0.466682
O O1 0.544014 0.885051 0.303502
O O2 0.649734 0.895021 0.120863
O O3 0.629908 0.008376 0.153428
O O4 0.540241 0.901916 0.965800
O O5 0.137722 0.439611 0.698353
O O6 0.083903 0.519948 0.818874
#
# Coordination Sequence:
#
# PCOD9575023 Si02
#       3
#    18  18  18
#     4  10  18  36  51  82 113 144 180 224 288 334
#     4  11  21  34  56  82 114 149 181 226 278 331
#     4  11  21  34  56  82 114 149 181 226 278 331
#
# _framework density 17.810324999999999
#
# number of rings (size 3 to 8) (size 9 to 14) (size 15 to 20)
#    0.000    1.333    6.667    4.000    0.000    8.000 
#    0.000    0.000    0.000    0.667    0.000    2.333 
#    0.000    0.000    0.000    0.000    0.000    0.000 
#
# Total GULP energy -100491.375634 kJ/mol
# GULP energy per Si atom -5582.854202 kJ/mol
# Density = 1.776979 g / cm^3
# Si number density = 17.810325 Si / 1000 Ang^3
#
#
#
# Elastic Constant Matrix: (Units=GPa)
#
#
# Indices 1 2 3 4 5 6 
#
# 1 22.6255 0.2916 20.0758 6.5590 -1.6626 -0.0038
# 2 0.2916 22.6160 20.0688 -6.5723 1.6791 -0.0015
# 3 20.0758 20.0688 151.9042 -0.0074 -0.0093 -0.0080
# 4 6.5590 -6.5723 -0.0074 7.0596 -0.0055 1.6707
# 5 -1.6626 1.6791 -0.0093 -0.0055 7.0649 6.5650
# 6 -0.0038 -0.0015 -0.0080 1.6707 6.5650 11.1642
#
#
#
# Elastic Compliance Matrix: (Units=1/GPa)
#
#
# Indices 1 2 3 4 5 6 
#
# 1 0.081866 -0.025186 -0.007495 -0.099559 0.024915 0.000268
# 2 -0.025186 0.082094 -0.007514 0.099810 -0.025326 -0.000047
# 3 -0.007495 -0.007514 0.008566 -0.000015 0.000063 -0.000032
# 4 -0.099559 0.099810 -0.000015 0.339180 0.000664 -0.051170
# 5 0.024915 -0.025326 0.000063 0.000664 0.338459 -0.199120
# 6 0.000268 -0.000047 -0.000032 -0.051170 -0.199120 0.214319
#
#
# Mechanical properties :
#
#
# Convention : Reuss Voigt Hill
#
# Bulk Modulus (GPa) = 10.85359 30.89089 20.87224
# Shear Modulus (GPa) = 4.25320 15.50505 9.87913
#
# Velocity S-wave (km/s) = 1.54701 2.95374 2.35773
# Velocity P-wave (km/s) = 3.04929 5.38654 4.37681
#
# Compressibility (1/GPa) = 0.09213541
#
# Stress axis : x y z
#
# Youngs Moduli (GPa) = 12.21511 12.18116 116.73544
#
# Poissons Ratio (x) = 0.30680 0.87497
# Poissons Ratio (y) = 0.30765 0.87713
# Poissons Ratio (z) = 0.09156 0.09153
#
# Static dielectric constant tensor:
#      x y z
#    x 1.583520 0.000000 0.000000 
#    y 0.000000 1.583520 0.000000 
#    z 0.000000 0.000000 1.673760 
# 
# From -- ./inp_files/663.got.cif
#   From: 2010.05.17/outbox.cif.g08.bks.cpg/sg148_1_cif.got.tgz:663.got - 2010.05.20 13:50:20.
