data_PCOD9575140
_publ_section_title
;
Structure prediction by ZEFSAII (Michael W. Deem and Ramdas Pophale) SiO2 
 PCOD9575140
Probable space group: R -3
;
_chemical_formula_sum "Si O2"
_cell_formula_units_Z 72
_cell_length_a 11.273716
_cell_length_b 11.273716
_cell_length_c 30.804964
_cell_angle_alpha 90.000000
_cell_angle_beta 90.000000
_cell_angle_gamma 120.000000
_cell_volume 3390.669952
_symmetry_space_group_name_H-M "R -3"
_symmetry_group_IT_number 148
_symmetry_cell_setting 'hexagonal'
loop_
_space_group_symop_operation_xyz
x,y,z
-y,x-y,z
-x+y,-x,z
-x,-y,-z
y,-x+y,-z
x-y,x,-z
2/3+x,1/3+y,1/3+z
2/3-y,1/3+x-y,1/3+z
2/3-x+y,1/3-x,1/3+z
2/3-x,1/3-y,1/3-z
2/3+y,1/3-x+y,1/3-z
2/3+x-y,1/3+x,1/3-z
1/3+x,2/3+y,2/3+z
1/3-y,2/3+x-y,2/3+z
1/3-x+y,2/3-x,2/3+z
1/3-x,2/3-y,2/3-z
1/3+y,2/3-x+y,2/3-z
1/3+x-y,2/3+x,2/3-z
loop_
_atom_site_type_symbol
_atom_site_label
_atom_site_fract_x
_atom_site_fract_y
_atom_site_fract_z
Si Si1 0.778084 0.739311 0.208729
Si Si2 0.423948 0.034356 0.088546
Si Si3 0.337766 0.442281 0.639500
Si Si4 0.105329 0.256045 0.120354
O O1 0.725822 0.819905 0.238557
O O2 0.808385 0.819332 0.162649
O O3 0.649957 0.584681 0.206225
O O4 0.916628 0.750343 0.226877
O O5 0.371149 0.015244 0.039569
O O6 0.300178 0.904967 0.114046
O O7 0.229268 0.416996 0.676298
O O8 0.291175 0.477496 0.593322
#
# Coordination Sequence:
#
# PCOD9575140 Si02
#       4
#    18  18  18  18
#     4  12  21  46  62 109 136 177 232 274 368 394
#     4  10  25  39  70  97 138 181 218 294 331 417
#     4  10  21  39  62  96 130 175 230 275 326 396
#     4  10  23  37  67  96 138 175 221 285 333 414
#
# _framework density 21.234741
#
# number of rings (size 3 to 8) (size 9 to 14) (size 15 to 20)
#    1.500    0.000    2.500    3.000    0.000    0.000 
#    3.000    6.250    0.000    0.000    0.000    0.000 
#    0.000    0.000    0.000    0.000    0.000    0.000 
#
# Total GULP energy -133661.662001 kJ/mol
# GULP energy per Si atom -5569.235917 kJ/mol
# Density = 2.118641 g / cm^3
# Si number density = 21.234741 Si / 1000 Ang^3
#
#
#
# Elastic Constant Matrix: (Units=GPa)
#
#
# Indices 1 2 3 4 5 6 
#
# 1 98.1072 51.7223 32.3617 3.6266 -1.3957 0.0000
# 2 51.7223 98.1072 32.3617 -3.6266 1.3957 0.0000
# 3 32.3617 32.3617 123.8971 0.0000 0.0000 0.0000
# 4 3.6266 -3.6266 0.0000 23.2478 0.0000 1.3957
# 5 -1.3957 1.3957 0.0000 0.0000 23.2478 3.6266
# 6 0.0000 0.0000 0.0000 1.3957 3.6266 23.1924
#
#
#
# Elastic Compliance Matrix: (Units=1/GPa)
#
#
# Indices 1 2 3 4 5 6 
#
# 1 0.014852 -0.007328 -0.001965 -0.003460 0.001332 0.000000
# 2 -0.007328 0.014852 -0.001965 0.003460 -0.001332 0.000000
# 3 -0.001965 -0.001965 0.009098 0.000000 0.000000 0.000000
# 4 -0.003460 0.003460 0.000000 0.044254 0.000000 -0.002663
# 5 0.001332 -0.001332 0.000000 0.000000 0.044254 -0.006920
# 6 0.000000 0.000000 0.000000 -0.002663 -0.006920 0.044360
#
#
# Mechanical properties :
#
#
# Convention : Reuss Voigt Hill
#
# Bulk Modulus (GPa) = 61.41049 61.44475 61.42762
# Shear Modulus (GPa) = 25.04834 27.51531 26.28183
#
# Velocity S-wave (km/s) = 3.43825 3.60358 3.52189
# Velocity P-wave (km/s) = 6.68914 6.80538 6.74751
#
# Compressibility (1/GPa) = 0.01628386
#
# Stress axis : x y z
#
# Youngs Moduli (GPa) = 67.33318 67.33318 109.91748
#
# Poissons Ratio (x) = 0.49345 0.21599
# Poissons Ratio (y) = 0.49345 0.21599
# Poissons Ratio (z) = 0.13231 0.13231
#
# Static dielectric constant tensor:
#      x y z
#    x 1.798970 0.000000 0.000000 
#    y 0.000000 1.798970 0.000000 
#    z 0.000000 0.000000 1.833050 
# 
# From -- ./inp_files/3902.got.cif
#   From: 2010.05.17/outbox.cif.g08.bks.cpg/sg148_2_cif.got.tgz:3902.got - 2010.05.20 13:50:20.
