data_PCOD9575985
_publ_section_title
;
Structure prediction by ZEFSAII (Michael W. Deem and Ramdas Pophale) SiO2 
 PCOD9575985
Probable space group: P 31 2 1
;
_chemical_formula_sum "Si O2"
_cell_formula_units_Z 45
_cell_length_a 10.650524
_cell_length_b 10.650524
_cell_length_c 17.494238
_cell_angle_alpha 90.000000
_cell_angle_beta 90.000000
_cell_angle_gamma 120.000000
_cell_volume 1718.571530
_symmetry_space_group_name_H-M "P 31 2 1"
_symmetry_group_IT_number 152
_symmetry_cell_setting 'hexagonal'
loop_
_space_group_symop_operation_xyz
x,y,z
-y,x-y,1/3+z
-x+y,-x,2/3+z
x-y,-y,2/3-z
-x,-x+y,1/3-z
y,x,-z
loop_
_atom_site_type_symbol
_atom_site_label
_atom_site_fract_x
_atom_site_fract_y
_atom_site_fract_z
Si Si1 0.153573 0.790074 0.344515
Si Si2 0.059346 0.059346 0.500000
Si Si3 0.483517 0.978983 0.086613
Si Si4 0.030753 0.328639 0.527563
Si Si5 0.590120 0.241713 0.434967
Si Si6 0.061723 0.180783 0.291722
Si Si7 0.771183 0.207070 0.152802
Si Si8 0.579513 0.751420 0.333896
O O1 0.246194 0.823864 0.264882
O O2 0.148124 0.645010 0.371997
O O3 0.001862 0.788416 0.334845
O O4 0.248886 0.914615 0.404126
O O5 0.960843 0.975401 0.573311
O O6 0.076861 0.216505 0.497415
O O7 0.637725 0.050803 0.131416
O O8 0.370989 0.861696 0.158320
O O9 0.411514 0.075571 0.129280
O O10 0.497540 0.075123 0.008630
O O11 0.671927 0.406482 0.456032
O O12 0.676564 0.193814 0.379492
O O13 0.104232 0.312021 0.231783
O O14 0.932330 0.177757 0.339788
O O15 0.784022 0.217367 0.243111
#
# Coordination Sequence:
#
# PCOD9575985 Si02
#       8
#     6   3   6   6   6   6   6   6
#     4   9  23  46  73 107 153 203 252 325 407 484
#     4  12  26  48  68 106 154 216 252 316 400 486
#     4  10  23  45  72 112 149 197 262 322 407 486
#     4  10  26  48  68 107 151 203 255 326 396 476
#     4   9  23  43  72 113 144 203 254 335 400 469
#     4  11  23  46  74 111 157 207 259 325 394 490
#     4  10  21  44  72 111 152 193 257 337 389 462
#     4  11  22  42  75 112 144 196 261 327 394 463
#
# _framework density 26.184539000000001
#
# number of rings (size 3 to 8) (size 9 to 14) (size 15 to 20)
#    0.800    1.067    1.333    0.800    3.733    2.667 
#    9.600    1.333    0.000    0.000    0.000    0.000 
#    0.000    0.000    0.000    0.000    0.000    0.000 
#
# Total GULP energy -251108.382174 kJ/mol
# GULP energy per Si atom -5580.186271 kJ/mol
# Density = 2.612494 g / cm^3
# Si number density = 26.184539 Si / 1000 Ang^3
#
#
#
# Elastic Constant Matrix: (Units=GPa)
#
#
# Indices 1 2 3 4 5 6 
#
# 1 118.8437 27.2984 44.9411 3.0178 0.0000 0.0000
# 2 27.2984 118.8437 44.9411 -3.0178 0.0000 0.0000
# 3 44.9411 44.9411 93.2818 0.0000 0.0000 0.0000
# 4 3.0178 -3.0178 0.0000 43.3258 0.0000 0.0000
# 5 0.0000 0.0000 0.0000 0.0000 43.3258 3.0178
# 6 0.0000 0.0000 0.0000 0.0000 3.0178 45.7726
#
#
#
# Elastic Compliance Matrix: (Units=1/GPa)
#
#
# Indices 1 2 3 4 5 6 
#
# 1 0.010349 -0.000625 -0.004685 -0.000764 0.000000 0.000000
# 2 -0.000625 0.010349 -0.004685 0.000764 0.000000 0.000000
# 3 -0.004685 -0.004685 0.015234 0.000000 0.000000 0.000000
# 4 -0.000764 0.000764 0.000000 0.023187 0.000000 0.000000
# 5 0.000000 0.000000 0.000000 0.000000 0.023187 -0.001529
# 6 0.000000 0.000000 0.000000 0.000000 -0.001529 0.021948
#
#
# Mechanical properties :
#
#
# Convention : Reuss Voigt Hill
#
# Bulk Modulus (GPa) = 62.72338 62.81450 62.76894
# Shear Modulus (GPa) = 38.59261 40.73739 39.66500
#
# Velocity S-wave (km/s) = 3.84327 3.94862 3.89630
# Velocity P-wave (km/s) = 6.61064 6.69552 6.65322
#
# Compressibility (1/GPa) = 0.01594302
#
# Stress axis : x y z
#
# Youngs Moduli (GPa) = 96.62809 96.62809 65.64157
#
# Poissons Ratio (x) = 0.06039 0.30752
# Poissons Ratio (y) = 0.06039 0.30752
# Poissons Ratio (z) = 0.45268 0.45268
#
# Static dielectric constant tensor:
#      x y z
#    x 2.152380 0.000000 0.000000 
#    y 0.000000 2.152380 0.000000 
#    z 0.000000 0.000000 2.438830 
# 
# From -- ./inp_files/2527.got.cif
#   From: 2010.05.17/outbox.cif.g08.bks.cpg/sg152_2_cif.got.tgz:2527.got - 2010.05.20 10:36:06.
