data_PCOD9575917
_publ_section_title
;
Structure prediction by ZEFSAII (Michael W. Deem and Ramdas Pophale) SiO2 
 PCOD9575917
Probable space group: P 31 2 1
;
_chemical_formula_sum "Si O2"
_cell_formula_units_Z 27
_cell_length_a 8.184661
_cell_length_b 8.184661
_cell_length_c 19.200540
_cell_angle_alpha 90.000000
_cell_angle_beta 90.000000
_cell_angle_gamma 120.000000
_cell_volume 1113.898110
_symmetry_space_group_name_H-M "P 31 2 1"
_symmetry_group_IT_number 152
_symmetry_cell_setting 'hexagonal'
loop_
_space_group_symop_operation_xyz
x,y,z
-y,x-y,1/3+z
-x+y,-x,2/3+z
x-y,-y,2/3-z
-x,-x+y,1/3-z
y,x,-z
loop_
_atom_site_type_symbol
_atom_site_label
_atom_site_fract_x
_atom_site_fract_y
_atom_site_fract_z
Si Si1 0.785012 0.000000 0.833334
Si Si2 0.695684 0.373759 0.404881
Si Si3 0.688261 0.688261 0.500000
Si Si4 0.350220 0.317986 0.343974
Si Si5 0.712455 0.889590 0.209197
Si Si6 0.963203 0.000000 0.333334
O O1 0.711420 0.021928 0.908290
O O2 0.803231 0.812266 0.838604
O O3 0.654708 0.522414 0.446598
O O4 0.525688 0.282968 0.349349
O O5 0.709969 0.222953 0.454993
O O6 0.890848 0.493178 0.363333
O O7 0.885290 0.720836 0.531959
O O8 0.166547 0.156103 0.304553
O O9 0.784080 0.879002 0.285833
#
# Coordination Sequence:
#
# PCOD9575917 Si02
#       6
#     3   6   3   6   6   3
#     4   9  21  42  68  98 150 190 252 317 383 458
#     4  12  26  45  76 109 153 199 261 323 396 477
#     4  11  25  50  72 112 154 206 264 325 385 486
#     4  11  23  44  67 111 143 198 247 320 384 475
#     4  10  23  44  72 104 147 203 248 323 389 462
#     4  10  20  46  70  96 154 190 246 314 384 458
#
# _framework density 24.239198999999999
#
# number of rings (size 3 to 8) (size 9 to 14) (size 15 to 20)
#    0.000    1.333    2.222    3.333    3.111    0.889 
#    4.000    0.000    0.000    0.000    0.000    0.000 
#    0.000    0.000    0.000    0.000    0.000    0.000 
#
# Total GULP energy -150447.015185 kJ/mol
# GULP energy per Si atom -5572.111674 kJ/mol
# Density = 2.418403 g / cm^3
# Si number density = 24.239199 Si / 1000 Ang^3
#
#
#
# Elastic Constant Matrix: (Units=GPa)
#
#
# Indices 1 2 3 4 5 6 
#
# 1 98.5657 51.8952 22.0277 9.4999 -0.0003 0.0000
# 2 51.8952 98.5657 22.0277 -9.4999 0.0003 0.0000
# 3 22.0277 22.0277 81.8658 0.0000 0.0000 0.0000
# 4 9.4999 -9.4999 0.0000 -15.1601 0.0000 0.0003
# 5 -0.0003 0.0003 0.0000 0.0000 -15.1601 9.4999
# 6 0.0000 0.0000 0.0000 0.0003 9.4999 23.3353
#
#
#
# Elastic Compliance Matrix: (Units=1/GPa)
#
#
# Indices 1 2 3 4 5 6 
#
# 1 0.012143 -0.004929 -0.001941 0.010698 0.000000 0.000000
# 2 -0.004929 0.012143 -0.001941 -0.010698 0.000000 0.000000
# 3 -0.001941 -0.001941 0.013260 0.000000 0.000000 0.000000
# 4 0.010698 -0.010698 0.000000 -0.052556 0.000000 0.000001
# 5 0.000000 0.000000 0.000000 0.000000 -0.052556 0.021396
# 6 0.000000 0.000000 0.000000 0.000001 0.021396 0.034143
#
#
# Mechanical properties :
#
#
# Convention : Reuss Voigt Hill
#
# Bulk Modulus (GPa) = 50.19051 52.32201 51.25626
# Shear Modulus (GPa) = -545.95949 10.80615 -267.57667
#
# Velocity S-wave (km/s) = -15.02422 2.11372 -10.51807
# Velocity P-wave (km/s) = 16.73972 5.25258 11.23897
#
# Compressibility (1/GPa) = 0.01992409
#
# Stress axis : x y z
#
# Youngs Moduli (GPa) = 82.35086 82.35086 75.41601
#
# Poissons Ratio (x) = 0.40587 0.14640
# Poissons Ratio (y) = 0.40587 0.14640
# Poissons Ratio (z) = 0.15986 0.15986
#
# Static dielectric constant tensor:
#      x y z
#    x 2.029430 0.000000 0.000000 
#    y 0.000000 2.029430 0.000000 
#    z 0.000000 0.000000 2.105350 
# 
# From -- ./inp_files/2949.got.cif
#   From: 2010.05.17/outbox.cif.g08.bks.cpg/sg152_2_cif.got.tgz:2949.got - 2010.05.20 10:36:06.
