data_PCOD9575538
_publ_section_title
;
Structure prediction by ZEFSAII (Michael W. Deem and Ramdas Pophale) SiO2 
 PCOD9575538
Probable space group: P 31 1 2
;
_chemical_formula_sum "Si O2"
_cell_formula_units_Z 42
_cell_length_a 7.977400
_cell_length_b 7.977400
_cell_length_c 32.538632
_cell_angle_alpha 90.000000
_cell_angle_beta 90.000000
_cell_angle_gamma 120.000000
_cell_volume 1793.298807
_symmetry_space_group_name_H-M "P 31 1 2"
_symmetry_group_IT_number 151
_symmetry_cell_setting 'hexagonal'
loop_
_space_group_symop_operation_xyz
x,y,z
-y,x-y,1/3+z
-x+y,-x,2/3+z
-y,-x,2/3-z
-x+y,y,1/3-z
x,x-y,-z
loop_
_atom_site_type_symbol
_atom_site_label
_atom_site_fract_x
_atom_site_fract_y
_atom_site_fract_z
Si Si1 0.681857 0.419445 0.877006
Si Si2 0.035446 0.574033 0.639263
Si Si3 0.277633 0.734235 0.945363
Si Si4 0.168885 0.206800 0.232654
Si Si5 0.904050 0.736627 0.347404
Si Si6 0.739946 0.757701 0.767764
Si Si7 0.656390 0.595164 0.266825
O O1 0.674471 0.325530 0.833334
O O2 0.854831 0.645039 0.879069
O O3 0.461913 0.381605 0.881531
O O4 0.749379 0.317013 0.910960
O O5 0.224410 0.597869 0.614081
O O6 0.112796 0.648227 0.684637
O O7 0.881910 0.349865 0.639744
O O8 0.968448 0.701275 0.614127
O O9 0.231228 0.811972 0.904141
O O10 0.121134 0.044384 0.881638
O O11 0.167373 0.131368 0.279389
O O12 0.443658 0.504404 0.286535
O O13 0.792205 0.701575 0.304925
O O14 0.124613 0.875388 0.333334
O O15 0.663993 0.911359 0.766006
#
# Coordination Sequence:
#
# PCOD9575538 Si02
#       7
#     6   6   6   6   6   6   6
#     4  11  27  52  71  95 136 185 249 302 345 410
#     4  10  19  33  57  93 137 185 210 255 346 421
#     4   9  19  35  54  83 137 177 205 266 326 418
#     4  11  23  41  65 102 138 174 229 287 351 423
#     4  12  20  34  61 106 147 176 217 278 348 445
#     4  11  23  43  70 101 136 181 230 288 353 413
#     4  10  24  44  66 100 140 184 226 283 361 419
#
# _framework density 23.420525999999999
#
# number of rings (size 3 to 8) (size 9 to 14) (size 15 to 20)
#    0.000    1.429    4.286    2.571    2.000    2.286 
#    2.571    0.000    0.000    0.000    0.000    0.000 
#    0.000    0.000    0.000    0.000    0.000    0.000 
#
# Total GULP energy -234052.473941 kJ/mol
# GULP energy per Si atom -5572.677951 kJ/mol
# Density = 2.336722 g / cm^3
# Si number density = 23.420526 Si / 1000 Ang^3
#
#
#
# Elastic Constant Matrix: (Units=GPa)
#
#
# Indices 1 2 3 4 5 6 
#
# 1 74.5941 15.6607 9.3904 -0.0005 -0.4759 0.0000
# 2 15.6607 74.5941 9.3904 0.0005 0.4759 0.0000
# 3 9.3904 9.3904 51.7494 0.0000 0.0000 0.0000
# 4 -0.0005 0.0005 0.0000 15.5810 0.0000 0.4759
# 5 -0.4759 0.4759 0.0000 0.0000 15.5810 -0.0005
# 6 0.0000 0.0000 0.0000 0.4759 -0.0005 29.4667
#
#
#
# Elastic Compliance Matrix: (Units=1/GPa)
#
#
# Indices 1 2 3 4 5 6 
#
# 1 0.014246 -0.002731 -0.002089 0.000001 0.000518 0.000000
# 2 -0.002731 0.014246 -0.002089 -0.000001 -0.000518 0.000000
# 3 -0.002089 -0.002089 0.020082 0.000000 0.000000 0.000000
# 4 0.000001 -0.000001 0.000000 0.064212 0.000000 -0.001037
# 5 0.000518 -0.000518 0.000000 0.000000 0.064212 0.000001
# 6 0.000000 0.000000 0.000000 -0.001037 0.000001 0.033953
#
#
# Mechanical properties :
#
#
# Convention : Reuss Voigt Hill
#
# Bulk Modulus (GPa) = 28.77401 29.98006 29.37704
# Shear Modulus (GPa) = 21.15457 23.22550 22.19003
#
# Velocity S-wave (km/s) = 3.00867 3.15250 3.08142
# Velocity P-wave (km/s) = 4.93781 5.10682 5.02302
#
# Compressibility (1/GPa) = 0.03475358
#
# Stress axis : x y z
#
# Youngs Moduli (GPa) = 70.19713 70.19713 49.79537
#
# Poissons Ratio (x) = 0.19171 0.10404
# Poissons Ratio (y) = 0.19171 0.10404
# Poissons Ratio (z) = 0.14667 0.14667
#
# Static dielectric constant tensor:
#      x y z
#    x 1.973140 0.000000 0.000000 
#    y 0.000000 1.973140 0.000000 
#    z 0.000000 0.000000 1.988860 
# 
# From -- ./inp_files/5029.got.cif
#   From: 2010.05.17/outbox.cif.g08.bks.cpg/sg151_3_cif.got.tgz:5029.got - 2010.05.20 10:33:20.
