data_PCOD9575102
_publ_section_title
;
Structure prediction by ZEFSAII (Michael W. Deem and Ramdas Pophale) SiO2 
 PCOD9575102
Probable space group: R -3
;
_chemical_formula_sum "Si O2"
_cell_formula_units_Z 117
_cell_length_a 19.865958
_cell_length_b 19.865958
_cell_length_c 13.668037
_cell_angle_alpha 90.000000
_cell_angle_beta 90.000000
_cell_angle_gamma 120.000000
_cell_volume 4671.494086
_symmetry_space_group_name_H-M "R -3"
_symmetry_group_IT_number 148
_symmetry_cell_setting 'hexagonal'
loop_
_space_group_symop_operation_xyz
x,y,z
-y,x-y,z
-x+y,-x,z
-x,-y,-z
y,-x+y,-z
x-y,x,-z
2/3+x,1/3+y,1/3+z
2/3-y,1/3+x-y,1/3+z
2/3-x+y,1/3-x,1/3+z
2/3-x,1/3-y,1/3-z
2/3+y,1/3-x+y,1/3-z
2/3+x-y,1/3+x,1/3-z
1/3+x,2/3+y,2/3+z
1/3-y,2/3+x-y,2/3+z
1/3-x+y,2/3-x,2/3+z
1/3-x,2/3-y,2/3-z
1/3+y,2/3-x+y,2/3-z
1/3+x-y,2/3+x,2/3-z
loop_
_atom_site_type_symbol
_atom_site_label
_atom_site_fract_x
_atom_site_fract_y
_atom_site_fract_z
Si Si1 0.631066 0.021849 0.859391
Si Si2 0.799241 0.887453 0.223031
Si Si3 0.166667 0.833334 0.333334
Si Si4 0.660038 0.185497 0.784037
Si Si5 0.244907 0.365051 0.600156
Si Si6 0.877491 0.786849 0.279405
Si Si7 0.813552 0.021250 0.111746
O O1 0.658017 0.104317 0.808214
O O2 0.704489 0.018994 0.901214
O O3 0.585724 0.946559 0.791549
O O4 0.583416 0.021651 0.953162
O O5 0.762165 0.899670 0.319800
O O6 0.714081 0.830076 0.170690
O O7 0.840812 0.838213 0.241114
O O8 0.839710 0.961041 0.151387
O O9 0.595482 0.189107 0.855131
O O10 0.617703 0.175001 0.680103
O O11 0.181757 0.288100 0.656164
O O12 0.276755 0.439403 0.670343
O O13 0.908247 0.760120 0.187636
#
# Coordination Sequence:
#
# PCOD9575102 Si02
#       7
#    18  18   9  18  18  18  18
#     4  11  25  41  72 108 144 190 240 319 378 454
#     4  11  26  46  72 106 146 194 247 315 374 469
#     4  10  20  42  64 100 142 176 236 290 382 438
#     4  12  27  46  72 110 154 201 247 314 388 471
#     4  12  25  46  73 106 146 192 249 316 385 445
#     4  12  26  48  74 106 153 197 251 316 388 465
#     4  11  29  43  76 105 146 197 252 317 378 454
#
# _framework density 25.04552
#
# number of rings (size 3 to 8) (size 9 to 14) (size 15 to 20)
#    0.000    0.615    3.077    3.385   12.923    0.000 
#    0.923    0.000    0.000    0.923    0.000    0.000 
#    0.000    0.000    0.000    0.000    0.000    0.000 
#
# Total GULP energy -217475.748967 kJ/mol
# GULP energy per Si atom -5576.301256 kJ/mol
# Density = 2.498851 g / cm^3
# Si number density = 25.045520 Si / 1000 Ang^3
#
#
#
# Elastic Constant Matrix: (Units=GPa)
#
#
# Indices 1 2 3 4 5 6 
#
# 1 84.1473 19.3042 18.4795 -1.6145 -0.8221 0.0000
# 2 19.3042 84.1473 18.4795 1.6145 0.8221 0.0000
# 3 18.4795 18.4795 41.1827 0.0000 0.0000 0.0000
# 4 -1.6145 1.6145 0.0000 34.9611 0.0000 0.8221
# 5 -0.8221 0.8221 0.0000 0.0000 34.9611 -1.6145
# 6 0.0000 0.0000 0.0000 0.8221 -1.6145 32.4215
#
#
#
# Elastic Compliance Matrix: (Units=1/GPa)
#
#
# Indices 1 2 3 4 5 6 
#
# 1 0.013489 -0.001977 -0.005166 0.000714 0.000364 0.000000
# 2 -0.001977 0.013489 -0.005166 -0.000714 -0.000364 0.000000
# 3 -0.005166 -0.005166 0.028918 0.000000 0.000000 0.000000
# 4 0.000714 -0.000714 0.000000 0.028686 0.000000 -0.000727
# 5 0.000364 -0.000364 0.000000 0.000000 0.028686 0.001429
# 6 0.000000 0.000000 0.000000 -0.000727 0.001429 0.030933
#
#
# Mechanical properties :
#
#
# Convention : Reuss Voigt Hill
#
# Bulk Modulus (GPa) = 31.97018 35.77820 33.87419
# Shear Modulus (GPa) = 27.89470 30.68305 29.28887
#
# Velocity S-wave (km/s) = 3.34092 3.50393 3.42340
# Velocity P-wave (km/s) = 5.26070 5.53952 5.40191
#
# Compressibility (1/GPa) = 0.03127915
#
# Stress axis : x y z
#
# Youngs Moduli (GPa) = 74.13328 74.13328 34.58076
#
# Poissons Ratio (x) = 0.14659 0.17863
# Poissons Ratio (y) = 0.14659 0.17863
# Poissons Ratio (z) = 0.38294 0.38294
#
# Static dielectric constant tensor:
#      x y z
#    x 2.041670 0.000000 0.000000 
#    y 0.000000 2.041670 0.000000 
#    z 0.000000 0.000000 0.871770 
# 
# From -- ./inp_files/2136.got.cif
#   From: 2010.05.17/outbox.cif.g08.bks.cpg/sg148_2_cif.got.tgz:2136.got - 2010.05.20 13:50:20.
