data_PCOD9575365
_publ_section_title
;
Structure prediction by ZEFSAII (Michael W. Deem and Ramdas Pophale) SiO2 
 PCOD9575365
Probable space group: P 3 1 2
;
_chemical_formula_sum "Si O2"
_cell_formula_units_Z 42
_cell_length_a 12.794885
_cell_length_b 12.794885
_cell_length_c 18.184283
_cell_angle_alpha 90.000000
_cell_angle_beta 90.000000
_cell_angle_gamma 120.000000
_cell_volume 2578.098980
_symmetry_space_group_name_H-M "P 3 1 2"
_symmetry_group_IT_number 149
_symmetry_cell_setting 'hexagonal'
loop_
_space_group_symop_operation_xyz
x,y,z
-y,x-y,z
-x+y,-x,z
-y,-x,-z
-x+y,y,-z
x,x-y,-z
loop_
_atom_site_type_symbol
_atom_site_label
_atom_site_fract_x
_atom_site_fract_y
_atom_site_fract_z
Si Si1 0.086103 0.666588 0.718941
Si Si2 0.914273 0.581670 1.000000
Si Si3 0.751516 0.751727 0.140557
Si Si4 0.000211 0.751727 0.140557
Si Si5 0.247146 0.000062 0.414996
Si Si6 0.999938 0.752854 0.414996
Si Si7 0.333412 0.913897 0.718941
O O1 0.023333 0.695491 0.786460
O O2 0.224749 0.775251 0.717377
O O3 0.078784 0.539392 0.727735
O O4 0.025249 0.675190 0.643419
O O5 0.975184 0.663432 0.071764
O O6 0.774801 0.549601 0.000000
O O7 0.923847 0.461924 0.000000
O O8 0.975184 0.663432 0.928235
O O9 0.883335 0.766670 0.149418
O O10 0.761978 0.880989 0.127595
O O11 0.023333 0.695490 0.213540
O O12 0.252715 0.126358 0.401187
O O13 0.281801 0.998010 0.500000
O O14 0.109575 0.890425 0.406265
O O15 0.025249 0.675190 0.356581
#
# Coordination Sequence:
#
# PCOD9575365 Si02
#       7
#     6   6   6   6   6   6   6
#     4  10  20  33  49  70  98 132 167 202 241 288
#     4  10  20  34  52  74 102 136 170 200 232 278
#     4  10  20  34  54  78 102 128 160 203 252 296
#     4  10  20  34  54  78 102 128 160 203 252 296
#     4   9  17  30  50  75 100 126 158 200 249 296
#     4   9  17  30  50  75 100 126 158 200 249 296
#     4  10  20  33  49  70  98 132 167 202 241 288
#
# _framework density 16.291073000000001
#
# number of rings (size 3 to 8) (size 9 to 14) (size 15 to 20)
#    0.000    2.286    0.000    3.143    0.000    1.714 
#    0.000    4.286    0.000   12.000    0.000    0.000 
#    0.000    0.000    0.000    0.000    0.000    0.000 
#
# Total GULP energy -234347.760317 kJ/mol
# GULP energy per Si atom -5579.708579 kJ/mol
# Density = 1.625399 g / cm^3
# Si number density = 16.291073 Si / 1000 Ang^3
#
#
#
# Elastic Constant Matrix: (Units=GPa)
#
#
# Indices 1 2 3 4 5 6 
#
# 1 124.1063 86.5141 76.9901 0.0000 0.0000 0.0000
# 2 86.5141 124.1063 76.9901 0.0000 0.0000 0.0000
# 3 76.9901 76.9901 107.0798 0.0000 0.0000 0.0000
# 4 0.0000 0.0000 0.0000 17.0769 0.0000 0.0000
# 5 0.0000 0.0000 0.0000 0.0000 17.0769 0.0000
# 6 0.0000 0.0000 0.0000 0.0000 0.0000 18.7961
#
#
#
# Elastic Compliance Matrix: (Units=1/GPa)
#
#
# Indices 1 2 3 4 5 6 
#
# 1 0.018305 -0.008296 -0.007197 0.000000 0.000000 0.000000
# 2 -0.008296 0.018305 -0.007197 0.000000 0.000000 0.000000
# 3 -0.007197 -0.007197 0.019687 0.000000 0.000000 0.000000
# 4 0.000000 0.000000 0.000000 0.058559 0.000000 0.000000
# 5 0.000000 0.000000 0.000000 0.000000 0.058559 0.000000
# 6 0.000000 0.000000 0.000000 0.000000 0.000000 0.053203
#
#
# Mechanical properties :
#
#
# Convention : Reuss Voigt Hill
#
# Bulk Modulus (GPa) = 91.57916 92.92013 92.24965
# Shear Modulus (GPa) = 18.13986 18.24316 18.19151
#
# Velocity S-wave (km/s) = 3.34051 3.35001 3.34526
# Velocity P-wave (km/s) = 8.43890 8.49263 8.46581
#
# Compressibility (1/GPa) = 0.01091951
#
# Stress axis : x y z
#
# Youngs Moduli (GPa) = 54.62931 54.62931 50.79386
#
# Poissons Ratio (x) = 0.45321 0.36554
# Poissons Ratio (y) = 0.45321 0.36554
# Poissons Ratio (z) = 0.39314 0.39314
#
# Static dielectric constant tensor:
#      x y z
#    x 1.513600 0.000000 0.000000 
#    y 0.000000 1.513600 0.000000 
#    z 0.000000 0.000000 1.545470 
# 
# From -- ./inp_files/1086.got.cif
#   From: 2010.05.17/outbox.cif.g08.bks.cpg/sg149_cif.got.tgz:1086.got - 2010.05.20 13:52:34.
