data_PCOD9575745
_publ_section_title
;
Structure prediction by ZEFSAII (Michael W. Deem and Ramdas Pophale) SiO2 
 PCOD9575745
Probable space group: P 31 2 1
;
_chemical_formula_sum "Si O2"
_cell_formula_units_Z 45
_cell_length_a 18.277322
_cell_length_b 18.277322
_cell_length_c 9.123471
_cell_angle_alpha 90.000000
_cell_angle_beta 90.000000
_cell_angle_gamma 120.000000
_cell_volume 2639.464673
_symmetry_space_group_name_H-M "P 31 2 1"
_symmetry_group_IT_number 152
_symmetry_cell_setting 'hexagonal'
loop_
_space_group_symop_operation_xyz
x,y,z
-y,x-y,1/3+z
-x+y,-x,2/3+z
x-y,-y,2/3-z
-x,-x+y,1/3-z
y,x,-z
loop_
_atom_site_type_symbol
_atom_site_label
_atom_site_fract_x
_atom_site_fract_y
_atom_site_fract_z
Si Si1 0.173694 0.538557 0.412205
Si Si2 0.617135 0.446575 0.575041
Si Si3 0.541206 0.562456 0.231621
Si Si4 0.000000 0.320851 0.666667
Si Si5 0.578758 0.908864 0.766060
Si Si6 0.560568 0.921192 0.434403
Si Si7 0.815713 0.217086 0.716646
Si Si8 0.716382 0.236546 0.445925
O O1 0.200554 0.536830 0.246162
O O2 0.178726 0.471394 0.516251
O O3 0.223408 0.631720 0.477628
O O4 0.074207 0.509608 0.403052
O O5 0.601963 0.522470 0.626939
O O6 0.522558 0.368547 0.555935
O O7 0.672695 0.438980 0.702437
O O8 0.615568 0.633591 0.135754
O O9 0.453959 0.517871 0.140168
O O10 0.088747 0.325474 0.639022
O O11 0.597906 0.918549 0.592785
O O12 0.621798 0.867825 0.862968
O O13 0.604740 0.000000 0.833334
O O14 0.524821 0.835563 0.343719
O O15 0.623099 0.000000 0.333334
O O16 0.773108 0.223063 0.566063
#
# Coordination Sequence:
#
# PCOD9575745 Si02
#       8
#     6   6   6   3   6   6   6   6
#     4  11  22  38  53  73 110 142 187 245 280 337
#     4  11  22  35  53  76 103 142 190 237 292 329
#     4  10  18  35  57  76  95 149 189 228 288 344
#     4  10  18  36  58  74 108 140 186 230 282 342
#     4  11  23  40  59  81 109 146 189 236 286 351
#     4  11  19  34  58  77 105 143 188 237 286 337
#     4  11  23  39  53  80 104 148 186 233 289 333
#     4  12  23  35  52  78 105 141 194 240 286 336
#
# _framework density 17.048912000000001
#
# number of rings (size 3 to 8) (size 9 to 14) (size 15 to 20)
#    0.000    1.067    4.667    4.400    1.867    1.067 
#    0.000    0.000    0.000    0.000    0.000    0.000 
#    0.000    0.000    6.800    0.000    0.000    0.000 
#
# Total GULP energy -251466.659965 kJ/mol
# GULP energy per Si atom -5588.147999 kJ/mol
# Density = 1.701011 g / cm^3
# Si number density = 17.048912 Si / 1000 Ang^3
#
#
#
# Elastic Constant Matrix: (Units=GPa)
#
#
# Indices 1 2 3 4 5 6 
#
# 1 64.9262 21.4923 24.5184 -1.4197 0.0000 0.0000
# 2 21.4923 64.9262 24.5184 1.4197 0.0000 0.0000
# 3 24.5184 24.5184 112.9282 0.0000 0.0000 0.0000
# 4 -1.4197 1.4197 0.0000 28.8935 0.0000 0.0000
# 5 0.0000 0.0000 0.0000 0.0000 28.8935 -1.4197
# 6 0.0000 0.0000 0.0000 0.0000 -1.4197 21.7169
#
#
#
# Elastic Compliance Matrix: (Units=1/GPa)
#
#
# Indices 1 2 3 4 5 6 
#
# 1 0.018148 -0.004950 -0.002865 0.001135 0.000000 0.000000
# 2 -0.004950 0.018148 -0.002865 -0.001135 0.000000 0.000000
# 3 -0.002865 -0.002865 0.010099 0.000000 0.000000 0.000000
# 4 0.001135 -0.001135 0.000000 0.034721 0.000000 0.000000
# 5 0.000000 0.000000 0.000000 0.000000 0.034721 0.002270
# 6 0.000000 0.000000 0.000000 0.000000 0.002270 0.046195
#
#
# Mechanical properties :
#
#
# Convention : Reuss Voigt Hill
#
# Bulk Modulus (GPa) = 39.94738 42.64875 41.29807
# Shear Modulus (GPa) = 26.07714 27.38421 26.73068
#
# Velocity S-wave (km/s) = 3.91519 4.01211 3.96394
# Velocity P-wave (km/s) = 6.62723 6.82147 6.72505
#
# Compressibility (1/GPa) = 0.02503293
#
# Stress axis : x y z
#
# Youngs Moduli (GPa) = 55.10372 55.10372 99.01559
#
# Poissons Ratio (x) = 0.27277 0.28372
# Poissons Ratio (y) = 0.27277 0.28372
# Poissons Ratio (z) = 0.15789 0.15789
#
# Static dielectric constant tensor:
#      x y z
#    x 1.588050 0.000000 0.000000 
#    y 0.000000 1.588050 0.000000 
#    z 0.000000 0.000000 1.626750 
# 
# From -- ./inp_files/1332.got.cif
#   From: 2010.05.17/outbox.cif.g08.bks.cpg/sg152_1_cif.got.tgz:1332.got - 2010.05.20 10:36:06.
