data_PCOD9575471
_publ_section_title
;
Structure prediction by ZEFSAII (Michael W. Deem and Ramdas Pophale) SiO2 
 PCOD9575471
Probable space group: P 3 2 1
;
_chemical_formula_sum "Si O2"
_cell_formula_units_Z 36
_cell_length_a 11.557431
_cell_length_b 11.557431
_cell_length_c 13.121941
_cell_angle_alpha 90.000000
_cell_angle_beta 90.000000
_cell_angle_gamma 120.000000
_cell_volume 1517.928555
_symmetry_space_group_name_H-M "P 3 2 1"
_symmetry_group_IT_number 150
_symmetry_cell_setting 'hexagonal'
loop_
_space_group_symop_operation_xyz
x,y,z
-y,x-y,z
-x+y,-x,z
x-y,-y,-z
-x,-x+y,-z
y,x,-z
loop_
_atom_site_type_symbol
_atom_site_label
_atom_site_fract_x
_atom_site_fract_y
_atom_site_fract_z
Si Si1 0.314204 0.138550 0.880636
Si Si2 0.576244 0.669114 0.330668
Si Si3 0.240892 0.127513 0.184357
Si Si4 0.345483 0.410041 0.402047
Si Si5 0.236131 0.090200 0.402343
Si Si6 0.258057 0.763516 0.919034
O O1 0.388663 0.121425 0.782462
O O2 0.254465 0.231490 0.848987
O O3 0.179552 0.996063 0.891764
O O4 0.407448 0.188401 0.978535
O O5 0.444801 0.525045 0.325535
O O6 0.572402 0.786885 0.398727
O O7 0.698591 0.659798 0.381017
O O8 0.170290 0.061207 0.290495
O O9 0.399461 0.182904 0.178283
O O10 0.440278 0.440278 0.500000
O O11 0.293398 0.250069 0.399074
O O12 0.151527 0.000000 0.500000
O O13 0.188957 0.603401 0.918650
#
# Coordination Sequence:
#
# PCOD9575471 Si02
#       6
#     6   6   6   6   6   6
#     4  11  24  44  76 109 155 201 265 327 409 491
#     4  11  26  46  73 115 150 213 264 338 416 486
#     4  11  24  44  73 109 149 199 266 333 399 491
#     4  12  25  46  77 105 160 201 272 335 406 497
#     4  11  24  48  71 114 151 211 265 336 420 484
#     4  10  26  46  71 111 155 209 258 324 405 492
#
# _framework density 23.716531
#
# number of rings (size 3 to 8) (size 9 to 14) (size 15 to 20)
#    0.333    0.667    3.333    2.167    2.333    5.333 
#    2.000    2.500    0.000    0.000    0.000    0.000 
#    0.000    0.000    0.000    0.000    0.000    0.000 
#
# Total GULP energy -200459.614883 kJ/mol
# GULP energy per Si atom -5568.322636 kJ/mol
# Density = 2.366255 g / cm^3
# Si number density = 23.716531 Si / 1000 Ang^3
#
#
#
# Elastic Constant Matrix: (Units=GPa)
#
#
# Indices 1 2 3 4 5 6 
#
# 1 141.6324 66.1038 47.9975 -9.0212 0.0000 0.0000
# 2 66.1038 141.6324 47.9975 9.0212 0.0000 0.0000
# 3 47.9975 47.9975 152.6659 0.0000 0.0000 0.0000
# 4 -9.0212 9.0212 0.0000 21.3486 0.0000 0.0000
# 5 0.0000 0.0000 0.0000 0.0000 21.3486 -9.0212
# 6 0.0000 0.0000 0.0000 0.0000 -9.0212 37.7643
#
#
#
# Elastic Compliance Matrix: (Units=1/GPa)
#
#
# Indices 1 2 3 4 5 6 
#
# 1 0.010179 -0.004547 -0.001771 0.006223 0.000000 0.000000
# 2 -0.004547 0.010179 -0.001771 -0.006223 0.000000 0.000000
# 3 -0.001771 -0.001771 0.007664 0.000000 0.000000 0.000000
# 4 0.006223 -0.006223 0.000000 0.052101 0.000000 0.000000
# 5 0.000000 0.000000 0.000000 0.000000 0.052101 0.012446
# 6 0.000000 0.000000 0.000000 0.000000 0.012446 0.029453
#
#
# Mechanical properties :
#
#
# Convention : Reuss Voigt Hill
#
# Bulk Modulus (GPa) = 84.42405 84.45867 84.44136
# Shear Modulus (GPa) = 27.50237 34.34775 30.92506
#
# Velocity S-wave (km/s) = 3.40903 3.80973 3.61494
# Velocity P-wave (km/s) = 7.15330 7.41897 7.28735
#
# Compressibility (1/GPa) = 0.01184497
#
# Stress axis : x y z
#
# Youngs Moduli (GPa) = 98.23856 98.23856 130.48628
#
# Poissons Ratio (x) = 0.44672 0.23105
# Poissons Ratio (y) = 0.44672 0.23105
# Poissons Ratio (z) = 0.17395 0.17395
#
# Static dielectric constant tensor:
#      x y z
#    x 1.959500 0.000000 0.000000 
#    y 0.000000 1.959500 0.000000 
#    z 0.000000 0.000000 2.102330 
# 
# From -- ./inp_files/1032.got.cif
#   From: 2010.05.17/outbox.cif.g08.bks.cpg/sg150_cif.got.tgz:1032.got - 2010.05.20 13:53:18.
