data_PCOD9575363
_publ_section_title
;
Structure prediction by ZEFSAII (Michael W. Deem and Ramdas Pophale) SiO2 
 PCOD9575363
Probable space group: P 3 1 2
;
_chemical_formula_sum "Si O2"
_cell_formula_units_Z 48
_cell_length_a 12.991441
_cell_length_b 12.991441
_cell_length_c 20.607226
_cell_angle_alpha 90.000000
_cell_angle_beta 90.000000
_cell_angle_gamma 120.000000
_cell_volume 3012.068307
_symmetry_space_group_name_H-M "P 3 1 2"
_symmetry_group_IT_number 149
_symmetry_cell_setting 'hexagonal'
loop_
_space_group_symop_operation_xyz
x,y,z
-y,x-y,z
-x+y,-x,z
-y,-x,-z
-x+y,y,-z
x,x-y,-z
loop_
_atom_site_type_symbol
_atom_site_label
_atom_site_fract_x
_atom_site_fract_y
_atom_site_fract_z
Si Si1 0.091295 0.667006 0.924097
Si Si2 0.577581 0.666381 0.690853
Si Si3 0.091295 0.667006 0.075903
Si Si4 0.757650 0.000069 0.575023
Si Si5 0.757650 0.757581 0.575023
Si Si6 0.910809 0.577462 0.189300
Si Si7 0.422538 0.089191 0.189300
Si Si8 0.333619 0.911200 0.309147
O O1 0.208034 0.791966 0.909256
O O2 0.119779 0.559889 0.914928
O O3 0.983818 0.638343 0.876161
O O4 0.061244 0.666573 1.000000
O O5 0.653238 0.684217 0.625753
O O6 0.640924 0.640347 0.750537
O O7 0.573163 0.786582 0.701910
O O8 0.445908 0.554092 0.685176
O O9 0.983818 0.638343 0.123839
O O10 0.788868 0.894434 0.580789
O O11 0.722133 0.000170 0.500000
O O12 0.653238 0.969021 0.625753
O O13 0.873910 0.126090 0.588766
O O14 0.882144 0.441072 0.188532
O O15 0.792055 0.584110 0.194727
O O16 0.359653 0.000576 0.249463
#
# Coordination Sequence:
#
# PCOD9575363 Si02
#       8
#     6   6   6   6   6   6   6   6
#     4   9  17  30  50  75 100 126 157 194 235 278
#     4  10  20  33  50  72  97 125 157 195 240 287
#     4   9  17  30  50  75 100 126 157 194 235 278
#     4   9  17  30  49  72  97 126 160 196 232 272
#     4   9  17  30  49  72  97 126 160 196 232 272
#     4  10  20  33  49  69  94 125 160 197 237 281
#     4  10  20  33  49  69  94 125 160 197 237 281
#     4  10  20  33  50  72  97 125 157 195 240 287
#
# _framework density 15.935895
#
# number of rings (size 3 to 8) (size 9 to 14) (size 15 to 20)
#    0.000    2.500    0.000    2.500    0.000    3.000 
#    0.000    2.500    0.000    9.000    0.000    0.000 
#    0.000    0.000    0.000    0.000    0.000    0.000 
#
# Total GULP energy -267674.408989 kJ/mol
# GULP energy per Si atom -5576.550187 kJ/mol
# Density = 1.589962 g / cm^3
# Si number density = 15.935895 Si / 1000 Ang^3
#
#
#
# Elastic Constant Matrix: (Units=GPa)
#
#
# Indices 1 2 3 4 5 6 
#
# 1 119.4966 80.2841 78.5442 0.0000 0.0000 0.0000
# 2 80.2841 119.4966 78.5442 0.0000 0.0000 0.0000
# 3 78.5442 78.5442 95.7861 0.0000 0.0000 0.0000
# 4 0.0000 0.0000 0.0000 23.6323 0.0000 0.0000
# 5 0.0000 0.0000 0.0000 0.0000 23.6323 0.0000
# 6 0.0000 0.0000 0.0000 0.0000 0.0000 19.6063
#
#
#
# Elastic Compliance Matrix: (Units=1/GPa)
#
#
# Indices 1 2 3 4 5 6 
#
# 1 0.019796 -0.005706 -0.011554 0.000000 0.000000 0.000000
# 2 -0.005706 0.019796 -0.011554 0.000000 0.000000 0.000000
# 3 -0.011554 -0.011554 0.029389 0.000000 0.000000 0.000000
# 4 0.000000 0.000000 0.000000 0.042315 0.000000 0.000000
# 5 0.000000 0.000000 0.000000 0.000000 0.042315 0.000000
# 6 0.000000 0.000000 0.000000 0.000000 0.000000 0.051004
#
#
# Mechanical properties :
#
#
# Convention : Reuss Voigt Hill
#
# Bulk Modulus (GPa) = 88.08208 89.94715 89.01461
# Shear Modulus (GPa) = 18.79499 19.86798 19.33149
#
# Velocity S-wave (km/s) = 3.43798 3.53476 3.48671
# Velocity P-wave (km/s) = 8.43519 8.55716 8.49639
#
# Compressibility (1/GPa) = 0.01135305
#
# Stress axis : x y z
#
# Youngs Moduli (GPa) = 50.51434 50.51434 34.02652
#
# Poissons Ratio (x) = 0.28822 0.39315
# Poissons Ratio (y) = 0.28822 0.39315
# Poissons Ratio (z) = 0.58366 0.58366
#
# Static dielectric constant tensor:
#      x y z
#    x 1.502900 0.000000 0.000000 
#    y 0.000000 1.502900 0.000000 
#    z 0.000000 0.000000 1.536240 
# 
# From -- ./inp_files/1142.got.cif
#   From: 2010.05.17/outbox.cif.g08.bks.cpg/sg149_cif.got.tgz:1142.got - 2010.05.20 13:52:34.
