data_PCOD9575920
_publ_section_title
;
Structure prediction by ZEFSAII (Michael W. Deem and Ramdas Pophale) SiO2 
 PCOD9575920
Probable space group: P 31 2 1
;
_chemical_formula_sum "Si O2"
_cell_formula_units_Z 30
_cell_length_a 14.495016
_cell_length_b 14.495016
_cell_length_c 7.897875
_cell_angle_alpha 90.000000
_cell_angle_beta 90.000000
_cell_angle_gamma 120.000000
_cell_volume 1437.071199
_symmetry_space_group_name_H-M "P 31 2 1"
_symmetry_group_IT_number 152
_symmetry_cell_setting 'hexagonal'
loop_
_space_group_symop_operation_xyz
x,y,z
-y,x-y,1/3+z
-x+y,-x,2/3+z
x-y,-y,2/3-z
-x,-x+y,1/3-z
y,x,-z
loop_
_atom_site_type_symbol
_atom_site_label
_atom_site_fract_x
_atom_site_fract_y
_atom_site_fract_z
Si Si1 0.660269 0.541902 0.442048
Si Si2 0.410611 0.722328 0.015232
Si Si3 0.368246 0.118235 0.408033
Si Si4 0.823173 0.937863 0.067194
Si Si5 0.842691 0.726388 0.567842
O O1 0.575800 0.575800 0.500000
O O2 0.599403 0.416630 0.407765
O O3 0.710744 0.594289 0.262482
O O4 0.767402 0.598361 0.559933
O O5 0.342121 0.630504 0.875068
O O6 0.528568 0.739329 0.017248
O O7 0.271307 0.142071 0.397022
O O8 0.322588 0.000000 0.333334
O O9 0.774508 0.877046 0.245084
O O10 0.844088 0.054291 0.114034
O O11 0.920643 0.920643 0.000000
O O12 0.763978 0.763978 0.500000
#
# Coordination Sequence:
#
# PCOD9575920 Si02
#       5
#     6   6   6   6   6
#     4  10  21  40  62  88 121 165 204 257 312 371
#     4  10  24  42  66  95 121 163 210 262 322 379
#     4  10  21  40  63  89 119 162 206 255 321 374
#     4  10  21  34  57  88 127 164 207 257 305 386
#     4  10  21  34  56  87 123 167 205 249 318 359
#
# _framework density 20.875793000000002
#
# number of rings (size 3 to 8) (size 9 to 14) (size 15 to 20)
#    0.000    2.000    0.000    4.800    8.400    2.400 
#    7.200    0.000    0.000    0.000    0.000    0.000 
#    0.000    0.000    0.000    0.000    0.000    0.000 
#
# Total GULP energy -167203.008558 kJ/mol
# GULP energy per Si atom -5573.433619 kJ/mol
# Density = 2.082828 g / cm^3
# Si number density = 20.875793 Si / 1000 Ang^3
#
#
#
# Elastic Constant Matrix: (Units=GPa)
#
#
# Indices 1 2 3 4 5 6 
#
# 1 81.9042 56.6050 10.9948 4.0073 0.0000 0.0000
# 2 56.6050 81.9042 10.9948 -4.0073 0.0000 0.0000
# 3 10.9948 10.9948 74.1789 0.0000 0.0000 0.0000
# 4 4.0073 -4.0073 0.0000 27.1393 0.0000 0.0000
# 5 0.0000 0.0000 0.0000 0.0000 27.1393 4.0073
# 6 0.0000 0.0000 0.0000 0.0000 4.0073 12.6496
#
#
#
# Elastic Compliance Matrix: (Units=1/GPa)
#
#
# Indices 1 2 3 4 5 6 
#
# 1 0.024430 -0.017036 -0.001096 -0.006123 0.000000 0.000000
# 2 -0.017036 0.024430 -0.001096 0.006123 0.000000 0.000000
# 3 -0.001096 -0.001096 0.013806 0.000000 0.000000 0.000000
# 4 -0.006123 0.006123 0.000000 0.038655 0.000000 0.000000
# 5 0.000000 0.000000 0.000000 0.000000 0.038655 -0.012246
# 6 0.000000 0.000000 0.000000 0.000000 -0.012246 0.082933
#
#
# Mechanical properties :
#
#
# Convention : Reuss Voigt Hill
#
# Bulk Modulus (GPa) = 41.30588 43.90852 42.60720
# Shear Modulus (GPa) = 18.55729 24.01184 21.28456
#
# Velocity S-wave (km/s) = 2.98474 3.39517 3.19655
# Velocity P-wave (km/s) = 5.63096 6.03726 5.83764
#
# Compressibility (1/GPa) = 0.02420963
#
# Stress axis : x y z
#
# Youngs Moduli (GPa) = 40.93300 40.93300 72.43336
#
# Poissons Ratio (x) = 0.69735 0.07938
# Poissons Ratio (y) = 0.69735 0.07938
# Poissons Ratio (z) = 0.04486 0.04486
#
# Static dielectric constant tensor:
#      x y z
#    x 1.851180 0.000000 0.000000 
#    y 0.000000 1.851180 0.000000 
#    z 0.000000 0.000000 1.818020 
# 
# From -- ./inp_files/1018.got.cif
#   From: 2010.05.17/outbox.cif.g08.bks.cpg/sg152_1_cif.got.tgz:1018.got - 2010.05.20 10:36:06.
