data_PCOD9575107
_publ_section_title
;
Structure prediction by ZEFSAII (Michael W. Deem and Ramdas Pophale) SiO2 
 PCOD9575107
Probable space group: R -3
;
_chemical_formula_sum "Si O2"
_cell_formula_units_Z 66
_cell_length_a 11.123847
_cell_length_b 11.123847
_cell_length_c 36.107121
_cell_angle_alpha 90.000000
_cell_angle_beta 90.000000
_cell_angle_gamma 120.000000
_cell_volume 3869.309830
_symmetry_space_group_name_H-M "R -3"
_symmetry_group_IT_number 148
_symmetry_cell_setting 'hexagonal'
loop_
_space_group_symop_operation_xyz
x,y,z
-y,x-y,z
-x+y,-x,z
-x,-y,-z
y,-x+y,-z
x-y,x,-z
2/3+x,1/3+y,1/3+z
2/3-y,1/3+x-y,1/3+z
2/3-x+y,1/3-x,1/3+z
2/3-x,1/3-y,1/3-z
2/3+y,1/3-x+y,1/3-z
2/3+x-y,1/3+x,1/3-z
1/3+x,2/3+y,2/3+z
1/3-y,2/3+x-y,2/3+z
1/3-x+y,2/3-x,2/3+z
1/3-x,2/3-y,2/3-z
1/3+y,2/3-x+y,2/3-z
1/3+x-y,2/3+x,2/3-z
loop_
_atom_site_type_symbol
_atom_site_label
_atom_site_fract_x
_atom_site_fract_y
_atom_site_fract_z
Si Si1 0.728208 0.990956 0.133567
Si Si2 0.333334 0.666668 0.122143
Si Si3 0.666667 0.333334 0.289510
Si Si4 0.139746 0.795663 0.215583
Si Si5 0.216378 0.228544 0.904485
O O1 0.683445 0.930772 0.174786
O O2 0.625694 0.043840 0.118921
O O3 0.718357 0.863625 0.109866
O O4 0.885302 0.113188 0.127363
O O5 0.333335 0.666668 0.166667
O O6 0.427924 0.602384 0.110883
O O7 0.666668 0.333335 0.333334
O O8 0.784920 0.479687 0.272205
O O9 0.008516 0.718291 0.242739
#
# Coordination Sequence:
#
# PCOD9575107 Si02
#       5
#    18   6   6  18  18
#     4  11  20  31  47  71 115 145 174 204 249 311
#     4  12  15  27  45  69 102 144 175 188 229 309
#     4   9  21  42  63  72  93 138 184 233 265 297
#     4  12  18  29  48  74 110 147 168 204 248 311
#     4  10  21  34  50  78 102 137 188 213 255 317
#
# _framework density 17.057306000000001
#
# number of rings (size 3 to 8) (size 9 to 14) (size 15 to 20)
#    0.000    1.091    8.182    1.364    0.000    0.000 
#    1.636    0.000    0.000    6.545    0.000    0.000 
#    0.000    0.000    0.000    0.000    0.000    0.000 
#
# Total GULP energy -122580.131631 kJ/mol
# GULP energy per Si atom -5571.824165 kJ/mol
# Density = 1.701848 g / cm^3
# Si number density = 17.057306 Si / 1000 Ang^3
#
#
#
# Elastic Constant Matrix: (Units=GPa)
#
#
# Indices 1 2 3 4 5 6 
#
# 1 84.4323 13.7598 25.4107 -2.3048 1.6091 0.0001
# 2 13.7598 84.4333 25.4109 2.3046 -1.6092 0.0002
# 3 25.4107 25.4109 60.5951 -0.0003 -0.0001 0.0001
# 4 -2.3048 2.3046 -0.0003 8.4107 0.0000 -1.6091
# 5 1.6091 -1.6092 -0.0001 0.0000 8.4107 -2.3048
# 6 0.0001 0.0002 0.0001 -1.6091 -2.3048 35.3364
#
#
#
# Elastic Compliance Matrix: (Units=1/GPa)
#
#
# Indices 1 2 3 4 5 6 
#
# 1 0.013772 -0.000764 -0.005455 0.003983 -0.002781 0.000000
# 2 -0.000764 0.013772 -0.005455 -0.003983 0.002781 0.000000
# 3 -0.005455 -0.005455 0.021078 0.000001 0.000000 0.000000
# 4 0.003983 -0.003983 0.000001 0.122143 0.000000 0.005562
# 5 -0.002781 0.002781 0.000000 0.000000 0.122144 0.007967
# 6 0.000000 0.000000 0.000000 0.005562 0.007967 0.029072
#
#
# Mechanical properties :
#
#
# Convention : Reuss Voigt Hill
#
# Bulk Modulus (GPa) = 39.56672 39.84703 39.70688
# Shear Modulus (GPa) = 14.13417 21.42350 17.77884
#
# Velocity S-wave (km/s) = 2.88171 3.54781 3.23197
# Velocity P-wave (km/s) = 5.85825 6.33988 6.10382
#
# Compressibility (1/GPa) = 0.02527376
#
# Stress axis : x y z
#
# Youngs Moduli (GPa) = 72.61249 72.61322 47.44322
#
# Poissons Ratio (x) = 0.05551 0.25878
# Poissons Ratio (y) = 0.05551 0.25879
# Poissons Ratio (z) = 0.39607 0.39608
#
# Static dielectric constant tensor:
#      x y z
#    x 1.638370 0.000000 0.000000 
#    y 0.000000 1.638370 0.000000 
#    z 0.000000 0.000000 1.532220 
# 
# From -- ./inp_files/3920.got.cif
#   From: 2010.05.17/outbox.cif.g08.bks.cpg/sg148_2_cif.got.tgz:3920.got - 2010.05.20 13:50:20.
