data_PCOD9575600
_publ_section_title
;
Structure prediction by ZEFSAII (Michael W. Deem and Ramdas Pophale) SiO2 
 PCOD9575600
Probable space group: P 31 1 2
;
_chemical_formula_sum "Si O2"
_cell_formula_units_Z 42
_cell_length_a 8.019651
_cell_length_b 8.019651
_cell_length_c 33.972726
_cell_angle_alpha 90.000000
_cell_angle_beta 90.000000
_cell_angle_gamma 120.000000
_cell_volume 1892.221471
_symmetry_space_group_name_H-M "P 31 1 2"
_symmetry_group_IT_number 151
_symmetry_cell_setting 'hexagonal'
loop_
_space_group_symop_operation_xyz
x,y,z
-y,x-y,1/3+z
-x+y,-x,2/3+z
-y,-x,2/3-z
-x+y,y,1/3-z
x,x-y,-z
loop_
_atom_site_type_symbol
_atom_site_label
_atom_site_fract_x
_atom_site_fract_y
_atom_site_fract_z
Si Si1 0.873013 0.257146 0.059893
Si Si2 0.203354 0.161198 0.347999
Si Si3 0.924390 0.410149 0.782560
Si Si4 0.990837 0.477555 0.869562
Si Si5 0.203574 0.830467 0.392175
Si Si6 0.489383 0.245398 0.953205
Si Si7 0.548721 0.739136 0.739749
O O1 0.974070 0.351566 0.100223
O O2 0.715400 0.315203 0.048578
O O3 0.759056 0.026154 0.060033
O O4 0.003084 0.301775 0.022000
O O5 0.233970 0.302524 0.383349
O O6 0.275654 0.010989 0.361613
O O7 0.986620 0.013381 0.333334
O O8 0.988271 0.520837 0.823744
O O9 0.724453 0.210545 0.789915
O O10 0.914908 0.528188 0.744505
O O11 0.080535 0.356246 0.768322
O O12 0.178072 0.470381 0.884945
O O13 0.253997 0.660429 0.387237
O O14 0.383254 0.343420 0.930756
O O15 0.440289 0.220145 0.000000
#
# Coordination Sequence:
#
# PCOD9575600 Si02
#       7
#     6   6   6   6   6   6   6
#     4   9  21  39  62  91 130 173 211 264 341 397
#     4  10  20  41  63  93 138 170 212 280 341 398
#     4  10  21  42  68  88 132 174 218 277 331 404
#     4  10  22  41  64  95 124 178 226 263 334 405
#     4  10  21  41  65  92 127 171 215 273 334 400
#     4  10  21  39  65  96 129 167 215 276 335 396
#     4  11  23  40  64  99 127 171 220 267 338 404
#
# _framework density 22.196133
#
# number of rings (size 3 to 8) (size 9 to 14) (size 15 to 20)
#    0.000    2.000    1.429    1.286    2.000    2.857 
#   23.143    2.857    0.000    0.000    0.000    0.000 
#    0.000    0.000    0.000    0.000    0.000    0.000 
#
# Total GULP energy -233955.621470 kJ/mol
# GULP energy per Si atom -5570.371940 kJ/mol
# Density = 2.214561 g / cm^3
# Si number density = 22.196133 Si / 1000 Ang^3
#
#
#
# Elastic Constant Matrix: (Units=GPa)
#
#
# Indices 1 2 3 4 5 6 
#
# 1 53.2392 13.8861 25.6523 -0.0005 3.6161 0.0000
# 2 13.8861 53.2392 25.6523 0.0005 -3.6161 0.0000
# 3 25.6523 25.6523 142.8306 0.0000 0.0000 0.0000
# 4 -0.0005 0.0005 0.0000 21.8063 0.0000 -3.6161
# 5 3.6161 -3.6161 0.0000 0.0000 21.8063 -0.0005
# 6 0.0000 0.0000 0.0000 -3.6161 -0.0005 19.6765
#
#
#
# Elastic Compliance Matrix: (Units=1/GPa)
#
#
# Indices 1 2 3 4 5 6 
#
# 1 0.021739 -0.004471 -0.003101 0.000001 -0.004346 0.000000
# 2 -0.004471 0.021739 -0.003101 -0.000001 0.004346 0.000000
# 3 -0.003101 -0.003101 0.008115 0.000000 0.000000 0.000000
# 4 0.000001 -0.000001 0.000000 0.047300 0.000000 0.008693
# 5 -0.004346 0.004346 0.000000 0.000000 0.047300 0.000001
# 6 0.000000 0.000000 0.000000 0.008693 0.000001 0.052419
#
#
# Mechanical properties :
#
#
# Convention : Reuss Voigt Hill
#
# Bulk Modulus (GPa) = 33.06243 42.18783 37.62513
# Shear Modulus (GPa) = 21.73527 24.93238 23.33383
#
# Velocity S-wave (km/s) = 3.13267 3.35517 3.24583
# Velocity P-wave (km/s) = 5.29271 5.83589 5.57092
#
# Compressibility (1/GPa) = 0.03024581
#
# Stress axis : x y z
#
# Youngs Moduli (GPa) = 46.00073 46.00073 123.22435
#
# Poissons Ratio (x) = 0.20567 0.38216
# Poissons Ratio (y) = 0.20567 0.38216
# Poissons Ratio (z) = 0.14266 0.14266
#
# Static dielectric constant tensor:
#      x y z
#    x 1.885310 0.000000 0.000000 
#    y 0.000000 1.885310 0.000000 
#    z 0.000000 0.000000 1.922340 
# 
# From -- ./inp_files/5050.got.cif
#   From: 2010.05.17/outbox.cif.g08.bks.cpg/sg151_3_cif.got.tgz:5050.got - 2010.05.20 10:33:20.
