data_PCOD9575648
_publ_section_title
;
Structure prediction by ZEFSAII (Michael W. Deem and Ramdas Pophale) SiO2 
 PCOD9575648
Probable space group: P 31 1 2
;
_chemical_formula_sum "Si O2"
_cell_formula_units_Z 36
_cell_length_a 8.908501
_cell_length_b 8.908501
_cell_length_c 22.668444
_cell_angle_alpha 90.000000
_cell_angle_beta 90.000000
_cell_angle_gamma 120.000000
_cell_volume 1557.979032
_symmetry_space_group_name_H-M "P 31 1 2"
_symmetry_group_IT_number 151
_symmetry_cell_setting 'hexagonal'
loop_
_space_group_symop_operation_xyz
x,y,z
-y,x-y,1/3+z
-x+y,-x,2/3+z
-y,-x,2/3-z
-x+y,y,1/3-z
x,x-y,-z
loop_
_atom_site_type_symbol
_atom_site_label
_atom_site_fract_x
_atom_site_fract_y
_atom_site_fract_z
Si Si1 0.310632 0.834581 0.272304
Si Si2 0.980874 0.810791 0.231205
Si Si3 0.829340 0.312402 0.398978
Si Si4 0.324893 0.510709 0.231804
Si Si5 0.018238 0.859765 0.766323
Si Si6 0.519600 0.355020 0.399871
O O1 0.205999 0.794001 0.333334
O O2 0.350645 0.680295 0.263589
O O3 0.166814 0.822692 0.226354
O O4 0.494131 0.008843 0.270721
O O5 0.897474 0.794948 0.166667
O O6 0.833978 0.648505 0.266475
O O7 0.009725 0.988400 0.259619
O O8 0.766530 0.233471 0.333334
O O9 0.859120 0.169636 0.431386
O O10 0.672815 0.330067 0.425771
O O11 0.260255 0.520509 0.166667
O O12 0.500221 0.502749 0.232444
O O13 0.166648 0.338142 0.261121
O O14 0.082184 0.917817 0.833334
O O15 0.573388 0.426613 0.333334
#
# Coordination Sequence:
#
# PCOD9575648 Si02
#       6
#     6   6   6   6   6   6
#     4  12  24  42  69 101 134 177 229 282 336 405
#     4  11  24  44  67 100 139 181 228 282 340 400
#     4  11  24  43  68  99 133 173 222 279 337 401
#     4  11  23  42  65  97 135 177 225 281 340 403
#     4  10  23  43  64  92 128 171 219 269 329 396
#     4  11  23  42  67  99 135 179 229 281 339 403
#
# _framework density 23.106857999999999
#
# number of rings (size 3 to 8) (size 9 to 14) (size 15 to 20)
#    0.000    1.000    0.000    7.500    0.000    4.667 
#    0.000    7.500    0.000    0.000    0.000    0.000 
#    0.000    0.000    0.000    0.000    0.000    0.000 
#
# Total GULP energy -201483.649735 kJ/mol
# GULP energy per Si atom -5596.768048 kJ/mol
# Density = 2.305427 g / cm^3
# Si number density = 23.106858 Si / 1000 Ang^3
#
#
#
# Elastic Constant Matrix: (Units=GPa)
#
#
# Indices 1 2 3 4 5 6 
#
# 1 183.2338 92.8835 14.8822 -0.0008 2.1657 0.0000
# 2 92.8835 183.2338 14.8822 0.0008 -2.1657 0.0000
# 3 14.8822 14.8822 64.0475 0.0000 0.0000 0.0000
# 4 -0.0008 0.0008 0.0000 20.4975 0.0000 -2.1657
# 5 2.1657 -2.1657 0.0000 0.0000 20.4975 -0.0008
# 6 0.0000 0.0000 0.0000 -2.1657 -0.0008 45.1751
#
#
#
# Elastic Compliance Matrix: (Units=1/GPa)
#
#
# Indices 1 2 3 4 5 6 
#
# 1 0.007420 -0.003705 -0.000863 0.000000 -0.001175 0.000000
# 2 -0.003705 0.007420 -0.000863 0.000000 0.001175 0.000000
# 3 -0.000863 -0.000863 0.016015 0.000000 0.000000 0.000000
# 4 0.000000 0.000000 0.000000 0.049035 0.000000 0.002351
# 5 -0.001175 0.001175 0.000000 0.000000 0.049035 0.000001
# 6 0.000000 0.000000 0.000000 0.002351 0.000001 0.022249
#
#
# Mechanical properties :
#
#
# Convention : Reuss Voigt Hill
#
# Bulk Modulus (GPa) = 50.02170 75.09008 62.55589
# Shear Modulus (GPa) = 29.63874 37.75850 33.69862
#
# Velocity S-wave (km/s) = 3.58534 4.04676 3.82302
# Velocity P-wave (km/s) = 6.23174 7.37580 6.82777
#
# Compressibility (1/GPa) = 0.01999132
#
# Stress axis : x y z
#
# Youngs Moduli (GPa) = 134.77928 134.77928 62.44321
#
# Poissons Ratio (x) = 0.49934 0.05390
# Poissons Ratio (y) = 0.49934 0.05390
# Poissons Ratio (z) = 0.11634 0.11634
#
# Static dielectric constant tensor:
#      x y z
#    x 1.876190 0.000000 0.000000 
#    y 0.000000 1.876190 0.000000 
#    z 0.000000 0.000000 1.161850 
# 
# From -- ./inp_files/4640.got.cif
#   From: 2010.05.17/outbox.cif.g08.bks.cpg/sg151_3_cif.got.tgz:4640.got - 2010.05.20 10:33:20.
