data_PCOD9575506
_publ_section_title
;
Structure prediction by ZEFSAII (Michael W. Deem and Ramdas Pophale) SiO2 
 PCOD9575506
Probable space group: P 31 1 2
;
_chemical_formula_sum "Si O2"
_cell_formula_units_Z 39
_cell_length_a 9.241800
_cell_length_b 9.241800
_cell_length_c 26.497362
_cell_angle_alpha 90.000000
_cell_angle_beta 90.000000
_cell_angle_gamma 120.000000
_cell_volume 1959.956363
_symmetry_space_group_name_H-M "P 31 1 2"
_symmetry_group_IT_number 151
_symmetry_cell_setting 'hexagonal'
loop_
_space_group_symop_operation_xyz
x,y,z
-y,x-y,1/3+z
-x+y,-x,2/3+z
-y,-x,2/3-z
-x+y,y,1/3-z
x,x-y,-z
loop_
_atom_site_type_symbol
_atom_site_label
_atom_site_fract_x
_atom_site_fract_y
_atom_site_fract_z
Si Si1 0.796122 0.155231 0.585359
Si Si2 0.153603 0.349502 0.030253
Si Si3 0.486152 0.019187 0.106856
Si Si4 0.559573 0.091855 0.828012
Si Si5 0.508610 0.675617 0.256519
Si Si6 0.628608 0.371393 0.333334
Si Si7 0.875856 0.341258 0.266617
O O1 0.703233 0.124184 0.532162
O O2 0.662896 0.156699 0.624817
O O3 0.949523 0.340565 0.584591
O O4 0.803052 0.998058 0.606078
O O5 0.193863 0.522340 0.058951
O O6 0.309991 0.321692 0.035373
O O7 0.111831 0.372876 0.972797
O O8 0.517747 0.035493 0.166667
O O9 0.336072 0.838166 0.093993
O O10 0.456072 0.169049 0.086538
O O11 0.734977 0.265024 0.833334
O O12 0.495756 0.038517 0.884692
O O13 0.571872 0.961624 0.790563
O O14 0.796813 0.421608 0.303023
#
# Coordination Sequence:
#
# PCOD9575506 Si02
#       7
#     6   6   6   6   6   3   6
#     4  10  18  35  60  88 119 154 209 251 295 376
#     4  10  22  39  60  95 118 164 205 256 315 374
#     4  11  21  40  60  90 119 163 204 258 312 369
#     4  11  19  38  61  94 119 164 211 258 305 381
#     4  10  24  38  62  88 132 157 206 258 321 376
#     4  10  18  32  62  86 116 166 198 256 300 370
#     4  11  21  36  64  91 121 159 216 250 311 382
#
# _framework density 19.898399999999999
#
# number of rings (size 3 to 8) (size 9 to 14) (size 15 to 20)
#    0.000    1.538    4.615    3.692    2.154    1.846 
#    0.000    1.538    0.000    3.692    0.000    0.000 
#    0.000    0.000    0.000    0.000    0.000    0.000 
#
# Total GULP energy -217507.564597 kJ/mol
# GULP energy per Si atom -5577.117041 kJ/mol
# Density = 1.985311 g / cm^3
# Si number density = 19.898400 Si / 1000 Ang^3
#
#
#
# Elastic Constant Matrix: (Units=GPa)
#
#
# Indices 1 2 3 4 5 6 
#
# 1 64.3813 11.5394 8.8180 0.0000 -3.4807 0.0000
# 2 11.5394 64.3813 8.8180 0.0000 3.4807 0.0000
# 3 8.8180 8.8180 101.9917 0.0000 0.0000 0.0000
# 4 0.0000 0.0000 0.0000 27.6080 0.0000 3.4807
# 5 -3.4807 3.4807 0.0000 0.0000 27.6080 0.0000
# 6 0.0000 0.0000 0.0000 3.4807 0.0000 26.4210
#
#
#
# Elastic Compliance Matrix: (Units=1/GPa)
#
#
# Indices 1 2 3 4 5 6 
#
# 1 0.016343 -0.002901 -0.001162 0.000000 0.002426 0.000000
# 2 -0.002901 0.016343 -0.001162 0.000000 -0.002426 0.000000
# 3 -0.001162 -0.001162 0.010006 0.000000 0.000000 0.000000
# 4 0.000000 0.000000 0.000000 0.036833 0.000000 -0.004852
# 5 0.002426 -0.002426 0.000000 0.000000 0.036833 0.000000
# 6 0.000000 0.000000 0.000000 -0.004852 0.000000 0.038488
#
#
# Mechanical properties :
#
#
# Convention : Reuss Voigt Hill
#
# Bulk Modulus (GPa) = 31.01704 32.12277 31.56991
# Shear Modulus (GPa) = 28.40211 29.76599 29.08405
#
# Velocity S-wave (km/s) = 3.78214 3.87188 3.82727
# Velocity P-wave (km/s) = 5.89018 6.01390 5.95237
#
# Compressibility (1/GPa) = 0.03224034
#
# Stress axis : x y z
#
# Youngs Moduli (GPa) = 61.18908 61.18908 99.94331
#
# Poissons Ratio (x) = 0.17752 0.11615
# Poissons Ratio (y) = 0.17752 0.11615
# Poissons Ratio (z) = 0.07111 0.07111
#
# Static dielectric constant tensor:
#      x y z
#    x 1.724200 0.000000 0.000000 
#    y 0.000000 1.724200 0.000000 
#    z 0.000000 0.000000 1.739050 
# 
# From -- ./inp_files/4934.got.cif
#   From: 2010.05.17/outbox.cif.g08.bks.cpg/sg151_3_cif.got.tgz:4934.got - 2010.05.20 10:33:20.
