data_PCOD9575156
_publ_section_title
;
Structure prediction by ZEFSAII (Michael W. Deem and Ramdas Pophale) SiO2 
 PCOD9575156
Probable space group: R -3
;
_chemical_formula_sum "Si O2"
_cell_formula_units_Z 126
_cell_length_a 18.347193
_cell_length_b 18.347193
_cell_length_c 21.932757
_cell_angle_alpha 90.000000
_cell_angle_beta 90.000000
_cell_angle_gamma 120.000000
_cell_volume 6393.859924
_symmetry_space_group_name_H-M "R -3"
_symmetry_group_IT_number 148
_symmetry_cell_setting 'hexagonal'
loop_
_space_group_symop_operation_xyz
x,y,z
-y,x-y,z
-x+y,-x,z
-x,-y,-z
y,-x+y,-z
x-y,x,-z
2/3+x,1/3+y,1/3+z
2/3-y,1/3+x-y,1/3+z
2/3-x+y,1/3-x,1/3+z
2/3-x,1/3-y,1/3-z
2/3+y,1/3-x+y,1/3-z
2/3+x-y,1/3+x,1/3-z
1/3+x,2/3+y,2/3+z
1/3-y,2/3+x-y,2/3+z
1/3-x+y,2/3-x,2/3+z
1/3-x,2/3-y,2/3-z
1/3+y,2/3-x+y,2/3-z
1/3+x-y,2/3+x,2/3-z
loop_
_atom_site_type_symbol
_atom_site_label
_atom_site_fract_x
_atom_site_fract_y
_atom_site_fract_z
Si Si1 0.120797 0.924138 0.629243
Si Si2 0.883753 0.078631 0.640844
Si Si3 0.229882 0.471970 0.664642
Si Si4 0.804334 0.695845 0.892584
Si Si5 0.300146 0.166376 0.762866
Si Si6 0.313319 0.195627 0.254687
Si Si7 0.376662 0.390129 0.467212
O O1 0.164064 0.899735 0.574845
O O2 0.172372 0.923716 0.689610
O O3 0.022136 0.855484 0.633567
O O4 0.136107 0.017959 0.624963
O O5 0.871936 0.102418 0.709845
O O6 0.850652 0.128866 0.599159
O O7 0.192619 0.532628 0.652825
O O8 0.214644 0.415851 0.604391
O O9 0.174820 0.405192 0.716234
O O10 0.829485 0.717448 0.823062
O O11 0.732589 0.720203 0.904282
O O12 0.302092 0.249928 0.788039
O O13 0.320614 0.261907 0.203930
O O14 0.290077 0.107261 0.222900
#
# Coordination Sequence:
#
# PCOD9575156 Si02
#       7
#    18  18  18  18  18  18  18
#     4  11  23  42  63  95 124 174 209 268 323 392
#     4  11  24  42  65  89 134 163 219 261 333 388
#     4  11  22  40  60  92 128 167 205 259 321 389
#     4  11  24  40  65  92 126 160 220 259 323 383
#     4  11  24  42  63  96 122 171 210 274 320 386
#     4  10  22  38  68  91 124 166 212 268 323 372
#     4  11  20  42  64  91 125 157 217 264 310 388
#
# _framework density 19.706406999999999
#
# number of rings (size 3 to 8) (size 9 to 14) (size 15 to 20)
#    0.000    1.143    4.286    2.143    2.000    0.000 
#    2.571    0.000    0.000    1.714    0.000    0.000 
#    0.000    0.000    0.000    0.000    0.000    0.000 
#
# Total GULP energy -234506.479011 kJ/mol
# GULP energy per Si atom -5583.487596 kJ/mol
# Density = 1.966155 g / cm^3
# Si number density = 19.706407 Si / 1000 Ang^3
#
#
#
# Elastic Constant Matrix: (Units=GPa)
#
#
# Indices 1 2 3 4 5 6 
#
# 1 77.8406 27.2482 6.1461 1.4201 0.5376 0.0000
# 2 27.2482 77.8406 6.1461 -1.4201 -0.5376 0.0000
# 3 6.1461 6.1461 57.7911 0.0000 0.0000 0.0000
# 4 1.4201 -1.4201 0.0000 18.0575 0.0000 -0.5376
# 5 0.5376 -0.5376 0.0000 0.0000 18.0575 1.4201
# 6 0.0000 0.0000 0.0000 -0.5376 1.4201 25.2962
#
#
#
# Elastic Compliance Matrix: (Units=1/GPa)
#
#
# Indices 1 2 3 4 5 6 
#
# 1 0.014751 -0.005115 -0.001025 -0.001562 -0.000591 0.000000
# 2 -0.005115 0.014751 -0.001025 0.001562 0.000591 0.000000
# 3 -0.001025 -0.001025 0.017522 0.000000 0.000000 0.000000
# 4 -0.001562 0.001562 0.000000 0.055659 0.000000 0.001183
# 5 -0.000591 0.000591 0.000000 0.000000 0.055659 -0.003125
# 6 0.000000 0.000000 0.000000 0.001183 -0.003125 0.039732
#
#
# Mechanical properties :
#
#
# Convention : Reuss Voigt Hill
#
# Bulk Modulus (GPa) = 30.58671 32.50588 31.54630
# Shear Modulus (GPa) = 22.39120 23.87773 23.13447
#
# Velocity S-wave (km/s) = 3.37447 3.48469 3.43002
# Velocity P-wave (km/s) = 5.54415 5.72028 5.63291
#
# Compressibility (1/GPa) = 0.03269393
#
# Stress axis : x y z
#
# Youngs Moduli (GPa) = 67.79267 67.79267 57.07221
#
# Poissons Ratio (x) = 0.34678 0.05848
# Poissons Ratio (y) = 0.34678 0.05848
# Poissons Ratio (z) = 0.06947 0.06947
#
# Static dielectric constant tensor:
#      x y z
#    x 1.696740 0.000000 0.000000 
#    y 0.000000 1.696740 0.000000 
#    z 0.000000 0.000000 1.704450 
# 
# From -- ./inp_files/3447.got.cif
#   From: 2010.05.17/outbox.cif.g08.bks.cpg/sg148_2_cif.got.tgz:3447.got - 2010.05.20 13:50:20.
