data_PCOD9575167
_publ_section_title
;
Structure prediction by ZEFSAII (Michael W. Deem and Ramdas Pophale) SiO2 
 PCOD9575167
Probable space group: R -3
;
_chemical_formula_sum "Si O2"
_cell_formula_units_Z 114
_cell_length_a 23.271585
_cell_length_b 23.271585
_cell_length_c 12.467815
_cell_angle_alpha 90.000000
_cell_angle_beta 90.000000
_cell_angle_gamma 120.000000
_cell_volume 5847.536056
_symmetry_space_group_name_H-M "R -3"
_symmetry_group_IT_number 148
_symmetry_cell_setting 'hexagonal'
loop_
_space_group_symop_operation_xyz
x,y,z
-y,x-y,z
-x+y,-x,z
-x,-y,-z
y,-x+y,-z
x-y,x,-z
2/3+x,1/3+y,1/3+z
2/3-y,1/3+x-y,1/3+z
2/3-x+y,1/3-x,1/3+z
2/3-x,1/3-y,1/3-z
2/3+y,1/3-x+y,1/3-z
2/3+x-y,1/3+x,1/3-z
1/3+x,2/3+y,2/3+z
1/3-y,2/3+x-y,2/3+z
1/3-x+y,2/3-x,2/3+z
1/3-x,2/3-y,2/3-z
1/3+y,2/3-x+y,2/3-z
1/3+x-y,2/3+x,2/3-z
loop_
_atom_site_type_symbol
_atom_site_label
_atom_site_fract_x
_atom_site_fract_y
_atom_site_fract_z
Si Si1 0.666668 0.333334 0.462740
Si Si2 0.337027 0.231624 0.955654
Si Si3 0.127097 0.558944 0.745949
Si Si4 0.436313 0.809492 0.527370
Si Si5 0.271905 0.157697 0.240039
Si Si6 0.941598 0.367765 0.142308
Si Si7 0.674014 0.702968 0.263461
O O1 0.666668 0.333335 0.333334
O O2 0.631114 0.257469 0.498303
O O3 0.260980 0.175348 0.978575
O O4 0.329176 0.257919 0.840148
O O5 0.376531 0.192093 0.975863
O O6 0.371668 0.296619 0.031807
O O7 0.171943 0.608831 0.652784
O O8 0.171311 0.539733 0.818776
O O9 0.091988 0.591879 0.812229
O O10 0.444528 0.871299 0.462396
O O11 0.333334 0.166667 0.166667
O O12 0.261714 0.220047 0.220616
O O13 0.992596 0.367399 0.229799
O O14 0.980874 0.392072 0.030847
#
# Coordination Sequence:
#
# PCOD9575167 Si02
#       7
#     6  18  18  18  18  18  18
#     4  12  21  36  54  84 129 162 190 264 318 369
#     4  11  22  38  61  88 124 162 209 254 318 371
#     4  12  22  35  59  90 125 165 203 257 314 388
#     4  12  22  35  57  88 124 159 206 251 321 378
#     4  12  22  37  61  89 117 162 209 257 313 382
#     4  11  23  38  60  89 124 162 210 258 317 379
#     4  10  22  40  60  88 124 163 207 262 310 384
#
# _framework density 19.495391000000001
#
# number of rings (size 3 to 8) (size 9 to 14) (size 15 to 20)
#    0.000    0.632    4.737    4.737    2.211    0.632 
#    0.000    1.579    0.000    0.000    0.000    0.000 
#    0.000    3.789    0.000    0.000    0.000    0.000 
#
# Total GULP energy -212083.684709 kJ/mol
# GULP energy per Si atom -5581.149598 kJ/mol
# Density = 1.945102 g / cm^3
# Si number density = 19.495391 Si / 1000 Ang^3
#
#
#
# Elastic Constant Matrix: (Units=GPa)
#
#
# Indices 1 2 3 4 5 6 
#
# 1 95.7492 23.8828 20.4380 7.5268 -4.7817 0.0005
# 2 23.8828 95.7493 20.4380 -7.5265 4.7823 0.0003
# 3 20.4380 20.4380 52.9212 0.0001 0.0001 0.0001
# 4 7.5268 -7.5265 0.0001 26.2059 0.0000 4.7822
# 5 -4.7817 4.7823 0.0001 0.0000 26.2057 7.5266
# 6 0.0005 0.0003 0.0001 4.7822 7.5266 35.9333
#
#
#
# Elastic Compliance Matrix: (Units=1/GPa)
#
#
# Indices 1 2 3 4 5 6 
#
# 1 0.012414 -0.002784 -0.003719 -0.004365 0.002773 0.000000
# 2 -0.002784 0.012414 -0.003719 0.004365 -0.002773 0.000000
# 3 -0.003719 -0.003719 0.021769 0.000000 0.000000 0.000000
# 4 -0.004365 0.004365 0.000000 0.041679 0.000000 -0.005547
# 5 0.002773 -0.002773 0.000000 0.000000 0.041679 -0.008730
# 6 0.000000 0.000000 0.000000 -0.005547 -0.008730 0.030396
#
#
# Mechanical properties :
#
#
# Convention : Reuss Voigt Hill
#
# Bulk Modulus (GPa) = 38.23792 41.54858 39.89325
# Shear Modulus (GPa) = 26.38353 29.64638 28.01495
#
# Velocity S-wave (km/s) = 3.68274 3.90383 3.79490
# Velocity P-wave (km/s) = 6.14328 6.45586 6.30151
#
# Compressibility (1/GPa) = 0.02615205
#
# Stress axis : x y z
#
# Youngs Moduli (GPa) = 80.55500 80.55505 45.93793
#
# Poissons Ratio (x) = 0.22428 0.17084
# Poissons Ratio (y) = 0.22428 0.17084
# Poissons Ratio (z) = 0.29958 0.29958
#
# Static dielectric constant tensor:
#      x y z
#    x 1.703760 0.000000 0.000000 
#    y 0.000000 1.703760 0.000000 
#    z 0.000000 0.000000 1.717560 
# 
# From -- ./inp_files/2110.got.cif
#   From: 2010.05.17/outbox.cif.g08.bks.cpg/sg148_2_cif.got.tgz:2110.got - 2010.05.20 13:50:20.
