data_PCOD9575775
_publ_section_title
;
Structure prediction by ZEFSAII (Michael W. Deem and Ramdas Pophale) SiO2 
 PCOD9575775
Probable space group: P 31 2 1
;
_chemical_formula_sum "Si O2"
_cell_formula_units_Z 33
_cell_length_a 8.288442
_cell_length_b 8.288442
_cell_length_c 20.850727
_cell_angle_alpha 90.000000
_cell_angle_beta 90.000000
_cell_angle_gamma 120.000000
_cell_volume 1240.502487
_symmetry_space_group_name_H-M "P 31 2 1"
_symmetry_group_IT_number 152
_symmetry_cell_setting 'hexagonal'
loop_
_space_group_symop_operation_xyz
x,y,z
-y,x-y,1/3+z
-x+y,-x,2/3+z
x-y,-y,2/3-z
-x,-x+y,1/3-z
y,x,-z
loop_
_atom_site_type_symbol
_atom_site_label
_atom_site_fract_x
_atom_site_fract_y
_atom_site_fract_z
Si Si1 0.677865 0.623483 0.320822
Si Si2 0.663164 0.000000 0.333334
Si Si3 0.196452 0.491440 0.199988
Si Si4 0.378600 0.903493 0.227602
Si Si5 0.200044 0.129118 0.198779
Si Si6 0.676712 0.944230 0.999569
O O1 0.671148 0.812297 0.323031
O O2 0.695314 0.561080 0.392737
O O3 0.870576 0.662414 0.290503
O O4 0.491153 0.445526 0.297507
O O5 0.563550 0.017530 0.269879
O O6 0.339715 0.711649 0.193908
O O7 0.258283 0.341005 0.179417
O O8 0.000000 0.432919 0.166667
O O9 0.227649 0.819016 0.285839
O O10 0.324438 0.033232 0.186218
O O11 0.194944 0.135614 0.276654
O O12 0.000000 0.005313 0.166667
#
# Coordination Sequence:
#
# PCOD9575775 Si02
#       6
#     6   3   6   6   6   6
#     4  10  22  35  62  89 116 157 203 261 315 366
#     4  12  22  34  58  92 120 150 210 260 302 368
#     4   9  20  38  61  83 121 162 203 250 320 385
#     4  11  21  37  62  88 120 158 209 263 309 375
#     4  10  19  33  61  85 115 161 199 245 316 378
#     4  10  20  38  58  89 116 154 204 259 311 363
#
# _framework density 26.602124
#
# number of rings (size 3 to 8) (size 9 to 14) (size 15 to 20)
#    0.000    1.818    1.818    3.818    5.091    0.000 
#    0.000    0.000   12.000    4.364    0.000    0.000 
#    0.000    0.000    0.000    0.000    0.000    0.000 
#
# Total GULP energy -184642.314984 kJ/mol
# GULP energy per Si atom -5595.221666 kJ/mol
# Density = 2.654158 g / cm^3
# Si number density = 26.602124 Si / 1000 Ang^3
#
#
#
# Elastic Constant Matrix: (Units=GPa)
#
#
# Indices 1 2 3 4 5 6 
#
# 1 119.0067 28.6444 27.6659 -3.5455 0.0000 0.0000
# 2 28.6444 119.0067 27.6659 3.5455 0.0000 0.0000
# 3 27.6659 27.6659 73.1860 0.0000 0.0000 0.0000
# 4 -3.5455 3.5455 0.0000 34.9426 0.0000 0.0000
# 5 0.0000 0.0000 0.0000 0.0000 34.9426 -3.5455
# 6 0.0000 0.0000 0.0000 0.0000 -3.5455 45.1811
#
#
#
# Elastic Compliance Matrix: (Units=1/GPa)
#
#
# Indices 1 2 3 4 5 6 
#
# 1 0.009523 -0.001632 -0.002983 0.001132 0.000000 0.000000
# 2 -0.001632 0.009523 -0.002983 -0.001132 0.000000 0.000000
# 3 -0.002983 -0.002983 0.015919 0.000000 0.000000 0.000000
# 4 0.001132 -0.001132 0.000000 0.028848 0.000000 0.000000
# 5 0.000000 0.000000 0.000000 0.000000 0.028848 0.002264
# 6 0.000000 0.000000 0.000000 0.000000 0.002264 0.022311
#
#
# Mechanical properties :
#
#
# Convention : Reuss Voigt Hill
#
# Bulk Modulus (GPa) = 50.58471 53.23908 51.91190
# Shear Modulus (GPa) = 36.56111 38.16149 37.36130
#
# Velocity S-wave (km/s) = 3.71127 3.79163 3.75166
# Velocity P-wave (km/s) = 6.11729 6.26299 6.19057
#
# Compressibility (1/GPa) = 0.01976882
#
# Stress axis : x y z
#
# Youngs Moduli (GPa) = 105.00946 105.00946 62.81826
#
# Poissons Ratio (x) = 0.17142 0.18737
# Poissons Ratio (y) = 0.17142 0.18737
# Poissons Ratio (z) = 0.31322 0.31322
#
# Static dielectric constant tensor:
#      x y z
#    x 2.188370 0.000000 0.000000 
#    y 0.000000 2.188370 0.000000 
#    z 0.000000 0.000000 2.055170 
# 
# From -- ./inp_files/3575.got.cif
#   From: 2010.05.17/outbox.cif.g08.bks.cpg/sg152_2_cif.got.tgz:3575.got - 2010.05.20 10:36:06.
