data_PCOD9575402
_publ_section_title
;
Structure prediction by ZEFSAII (Michael W. Deem and Ramdas Pophale) SiO2 
 PCOD9575402
Probable space group: P 3 2 1
;
_chemical_formula_sum "Si O2"
_cell_formula_units_Z 28
_cell_length_a 16.843046
_cell_length_b 16.843046
_cell_length_c 8.446084
_cell_angle_alpha 90.000000
_cell_angle_beta 90.000000
_cell_angle_gamma 120.000000
_cell_volume 2075.043940
_symmetry_space_group_name_H-M "P 3 2 1"
_symmetry_group_IT_number 150
_symmetry_cell_setting 'hexagonal'
loop_
_space_group_symop_operation_xyz
x,y,z
-y,x-y,z
-x+y,-x,z
x-y,-y,-z
-x,-x+y,-z
y,x,-z
loop_
_atom_site_type_symbol
_atom_site_label
_atom_site_fract_x
_atom_site_fract_y
_atom_site_fract_z
Si Si1 0.666668 0.333335 0.687433
Si Si2 0.466561 0.845605 0.125029
Si Si3 0.089551 0.449356 0.899291
Si Si4 0.464267 0.265544 0.183069
Si Si5 0.666668 0.333334 0.311646
Si Si6 0.465490 0.435962 0.317766
O O1 0.651432 0.237843 0.755753
O O2 0.666668 0.333334 0.499858
O O3 0.533606 0.938873 0.214606
O O4 0.391211 0.857975 0.024609
O O5 0.523096 0.826346 0.994634
O O6 0.155519 0.413446 0.832754
O O7 0.065289 0.497981 0.755603
O O8 0.000000 0.378800 0.000000
O O9 0.564480 0.292084 0.247662
O O10 0.437440 0.330132 0.284867
O O11 0.456506 0.456506 0.500000
#
# Coordination Sequence:
#
# PCOD9575402 Si02
#       6
#     2   6   6   6   2   6
#     4  12  19  26  43  66  88 116 166 201 229 275
#     4  10  18  30  44  60  86 120 159 196 226 281
#     4   9  18  30  45  59  82 120 155 199 232 269
#     4  11  17  32  45  58  86 122 157 194 235 278
#     4  12  19  23  40  66  82 116 160 198 229 266
#     4  10  20  31  42  66  94 113 156 204 241 266
#
# _framework density 13.493690000000001
#
# number of rings (size 3 to 8) (size 9 to 14) (size 15 to 20)
#    0.000    1.714    6.429    3.214    0.000    0.000 
#    0.000    0.000    0.000    0.000    0.000    0.000 
#    0.000    0.000    0.000    5.143    0.000   10.714 
#
# Total GULP energy -155893.232607 kJ/mol
# GULP energy per Si atom -5567.615450 kJ/mol
# Density = 1.346298 g / cm^3
# Si number density = 13.493690 Si / 1000 Ang^3
#
#
#
# Elastic Constant Matrix: (Units=GPa)
#
#
# Indices 1 2 3 4 5 6 
#
# 1 62.5361 28.0489 29.5242 -5.2476 0.0000 0.0000
# 2 28.0489 62.5378 29.5252 5.2486 0.0000 0.0000
# 3 29.5242 29.5252 104.5487 -0.0018 0.0000 0.0000
# 4 -5.2476 5.2486 -0.0018 -3.7595 0.0000 0.0000
# 5 0.0000 0.0000 0.0000 0.0000 -3.7491 -5.2445
# 6 0.0000 0.0000 0.0000 0.0000 -5.2445 17.2454
#
#
#
# Elastic Compliance Matrix: (Units=1/GPa)
#
#
# Indices 1 2 3 4 5 6 
#
# 1 0.016941 -0.003410 -0.003822 -0.028405 0.000000 0.000000
# 2 -0.003410 0.016939 -0.003820 0.028410 0.000000 0.000000
# 3 -0.003822 -0.003820 0.011723 -0.000005 0.000000 0.000000
# 4 -0.028405 0.028410 -0.000005 -0.186683 0.000000 0.000000
# 5 0.000000 0.000000 0.000000 0.000000 -0.187125 -0.056907
# 6 0.000000 0.000000 0.000000 0.000000 -0.056907 0.040680
#
#
# Mechanical properties :
#
#
# Convention : Reuss Voigt Hill
#
# Bulk Modulus (GPa) = 42.55436 44.86877 43.71157
# Shear Modulus (GPa) = -19.41079 11.44900 -3.98089
#
# Velocity S-wave (km/s) = -3.79688 2.91601 -1.71947
# Velocity P-wave (km/s) = 3.51898 6.68292 5.34063
#
# Compressibility (1/GPa) = 0.02349935
#
# Stress axis : x y z
#
# Youngs Moduli (GPa) = 59.02903 59.03557 85.30276
#
# Poissons Ratio (x) = 0.20131 0.32599
# Poissons Ratio (y) = 0.20129 0.32587
# Poissons Ratio (z) = 0.22558 0.22553
#
# Static dielectric constant tensor:
#      x y z
#    x 1.454860 0.000000 0.000000 
#    y 0.000000 1.454860 0.000000 
#    z 0.000000 0.000000 1.442710 
# 
# From -- ./inp_files/625.got.cif
#   From: 2010.05.17/outbox.cif.g08.bks.cpg/sg150_cif.got.tgz:625.got - 2010.05.20 13:53:18.
