data_PCOD9575101
_publ_section_title
;
Structure prediction by ZEFSAII (Michael W. Deem and Ramdas Pophale) SiO2 
 PCOD9575101
Probable space group: R -3
;
_chemical_formula_sum "Si O2"
_cell_formula_units_Z 108
_cell_length_a 17.330570
_cell_length_b 17.330570
_cell_length_c 20.608128
_cell_angle_alpha 90.000000
_cell_angle_beta 90.000000
_cell_angle_gamma 120.000000
_cell_volume 5360.371241
_symmetry_space_group_name_H-M "R -3"
_symmetry_group_IT_number 148
_symmetry_cell_setting 'hexagonal'
loop_
_space_group_symop_operation_xyz
x,y,z
-y,x-y,z
-x+y,-x,z
-x,-y,-z
y,-x+y,-z
x-y,x,-z
2/3+x,1/3+y,1/3+z
2/3-y,1/3+x-y,1/3+z
2/3-x+y,1/3-x,1/3+z
2/3-x,1/3-y,1/3-z
2/3+y,1/3-x+y,1/3-z
2/3+x-y,1/3+x,1/3-z
1/3+x,2/3+y,2/3+z
1/3-y,2/3+x-y,2/3+z
1/3-x+y,2/3-x,2/3+z
1/3-x,2/3-y,2/3-z
1/3+y,2/3-x+y,2/3-z
1/3+x-y,2/3+x,2/3-z
loop_
_atom_site_type_symbol
_atom_site_label
_atom_site_fract_x
_atom_site_fract_y
_atom_site_fract_z
Si Si1 0.128539 0.532824 0.682334
Si Si2 0.219462 0.272625 0.254641
Si Si3 0.518918 0.460282 0.658496
Si Si4 0.877999 0.488866 0.992280
Si Si5 0.796649 0.522484 0.802784
Si Si6 0.499256 0.980958 0.794742
O O1 0.168047 0.637404 0.669476
O O2 0.099307 0.515354 0.758144
O O3 0.034030 0.482178 0.643937
O O4 0.256271 0.209621 0.278380
O O5 0.270566 0.367114 0.292370
O O6 0.117310 0.233560 0.278388
O O7 0.217948 0.286182 0.177962
O O8 0.619032 0.478439 0.662173
O O9 0.478820 0.442801 0.731900
O O10 0.848687 0.410595 0.939030
O O11 0.828386 0.457485 0.827978
O O12 0.858379 0.622405 0.829484
#
# Coordination Sequence:
#
# PCOD9575101 Si02
#       6
#    18  18  18  18  18  18
#     4  10  21  41  66  89 116 156 198 258 311 360
#     4  10  21  41  59  85 123 165 196 243 314 354
#     4  10  20  40  60  89 124 153 207 254 297 361
#     4  10  21  36  59  83 121 165 196 246 300 358
#     4  11  19  33  54  88 117 161 204 240 292 363
#     4   9  22  39  59  87 120 155 202 248 305 366
#
# _framework density 20.147857999999999
#
# number of rings (size 3 to 8) (size 9 to 14) (size 15 to 20)
#    1.000    1.000    1.667    2.333    0.000    0.000 
#    4.000    0.833    0.000    0.000    0.000    0.000 
#    0.000    0.000    0.000    0.000    0.000    0.000 
#
# Total GULP energy -200698.158132 kJ/mol
# GULP energy per Si atom -5574.948837 kJ/mol
# Density = 2.010200 g / cm^3
# Si number density = 20.147858 Si / 1000 Ang^3
#
#
#
# Elastic Constant Matrix: (Units=GPa)
#
#
# Indices 1 2 3 4 5 6 
#
# 1 55.6808 2.3304 22.3083 -5.6865 -4.6943 0.0000
# 2 2.3304 55.6808 22.3083 5.6865 4.6943 0.0000
# 3 22.3083 22.3083 40.9489 0.0000 0.0000 0.0000
# 4 -5.6865 5.6865 0.0000 16.8798 0.0000 4.6943
# 5 -4.6943 4.6943 0.0000 0.0000 16.8798 -5.6865
# 6 0.0000 0.0000 0.0000 4.6943 -5.6865 26.6752
#
#
#
# Elastic Compliance Matrix: (Units=1/GPa)
#
#
# Indices 1 2 3 4 5 6 
#
# 1 0.025494 0.004176 -0.016163 0.007182 0.005929 0.000000
# 2 0.004176 0.025494 -0.016163 -0.007182 -0.005929 0.000000
# 3 -0.016163 -0.016163 0.042032 0.000000 0.000000 0.000000
# 4 0.007182 -0.007182 0.000000 0.067379 0.000000 -0.011857
# 5 0.005929 -0.005929 0.000000 0.000000 0.067379 0.014364
# 6 0.000000 0.000000 0.000000 -0.011857 0.014364 0.042637
#
#
# Mechanical properties :
#
#
# Convention : Reuss Voigt Hill
#
# Bulk Modulus (GPa) = 27.23537 27.35606 27.29572
# Shear Modulus (GPa) = 14.75118 19.11118 16.93118
#
# Velocity S-wave (km/s) = 2.70876 3.08319 2.90202
# Velocity P-wave (km/s) = 4.83014 5.12658 4.98057
#
# Compressibility (1/GPa) = 0.03671696
#
# Stress axis : x y z
#
# Youngs Moduli (GPa) = 39.22507 39.22507 23.79145
#
# Poissons Ratio (x) = -0.16379 0.38455
# Poissons Ratio (y) = -0.16379 0.38455
# Poissons Ratio (z) = 0.63401 0.63401
#
# Static dielectric constant tensor:
#      x y z
#    x 1.741570 0.000000 0.000000 
#    y 0.000000 1.741570 0.000000 
#    z 0.000000 0.000000 1.754970 
# 
# From -- ./inp_files/3418.got.cif
#   From: 2010.05.17/outbox.cif.g08.bks.cpg/sg148_2_cif.got.tgz:3418.got - 2010.05.20 13:50:20.
