data_PCOD9575327
_publ_section_title
;
Structure prediction by ZEFSAII (Michael W. Deem and Ramdas Pophale) SiO2 
 PCOD9575327
Probable space group: R -3
;
_chemical_formula_sum "Si O2"
_cell_formula_units_Z 72
_cell_length_a 14.455485
_cell_length_b 14.455485
_cell_length_c 16.565643
_cell_angle_alpha 90.000000
_cell_angle_beta 90.000000
_cell_angle_gamma 120.000000
_cell_volume 2997.811107
_symmetry_space_group_name_H-M "R -3"
_symmetry_group_IT_number 148
_symmetry_cell_setting 'hexagonal'
loop_
_space_group_symop_operation_xyz
x,y,z
-y,x-y,z
-x+y,-x,z
-x,-y,-z
y,-x+y,-z
x-y,x,-z
2/3+x,1/3+y,1/3+z
2/3-y,1/3+x-y,1/3+z
2/3-x+y,1/3-x,1/3+z
2/3-x,1/3-y,1/3-z
2/3+y,1/3-x+y,1/3-z
2/3+x-y,1/3+x,1/3-z
1/3+x,2/3+y,2/3+z
1/3-y,2/3+x-y,2/3+z
1/3-x+y,2/3-x,2/3+z
1/3-x,2/3-y,2/3-z
1/3+y,2/3-x+y,2/3-z
1/3+x-y,2/3+x,2/3-z
loop_
_atom_site_type_symbol
_atom_site_label
_atom_site_fract_x
_atom_site_fract_y
_atom_site_fract_z
Si Si1 0.938169 0.800666 0.283872
Si Si2 0.378067 0.517050 0.113644
Si Si3 0.098399 0.549524 0.687267
Si Si4 0.762570 0.843456 0.204758
O O1 0.865406 0.678975 0.311942
O O2 0.861587 0.833847 0.237817
O O3 0.991936 0.864528 0.366584
O O4 0.039038 0.825037 0.229032
O O5 0.289133 0.477340 0.183578
O O6 0.419421 0.435483 0.092351
O O7 0.170829 0.676213 0.696331
O O8 0.081560 0.498324 0.775616
#
# Coordination Sequence:
#
# PCOD9575327 Si02
#       4
#    18  18  18  18
#     4  12  27  49  81 115 160 207 265 326 398 472
#     4  12  26  49  79 118 161 208 264 331 396 471
#     4  12  28  50  78 113 156 210 265 324 394 476
#     4  12  28  50  80 117 158 210 263 330 398 474
#
# _framework density 24.017526
#
# number of rings (size 3 to 8) (size 9 to 14) (size 15 to 20)
#    0.000    0.000    2.500    6.250    3.500    2.000 
#    0.000    0.000    0.000    0.000    0.000    0.000 
#    0.000    0.000    0.000    0.000    0.000    0.000 
#
# Total GULP energy -134562.336340 kJ/mol
# GULP energy per Si atom -5606.764014 kJ/mol
# Density = 2.396286 g / cm^3
# Si number density = 24.017526 Si / 1000 Ang^3
#
#
#
# Elastic Constant Matrix: (Units=GPa)
#
#
# Indices 1 2 3 4 5 6 
#
# 1 102.2180 38.0389 6.2322 4.6909 -8.9884 0.0000
# 2 38.0389 102.2180 6.2322 -4.6909 8.9884 0.0000
# 3 6.2322 6.2322 57.7279 0.0000 0.0000 0.0000
# 4 4.6909 -4.6909 0.0000 15.6285 0.0000 8.9884
# 5 -8.9884 8.9884 0.0000 0.0000 15.6285 4.6909
# 6 0.0000 0.0000 0.0000 8.9884 4.6909 32.0895
#
#
#
# Elastic Compliance Matrix: (Units=1/GPa)
#
#
# Indices 1 2 3 4 5 6 
#
# 1 0.013399 -0.006200 -0.000777 -0.005883 0.011272 0.000000
# 2 -0.006200 0.013399 -0.000777 0.005883 -0.011272 0.000000
# 3 -0.000777 -0.000777 0.017490 0.000000 0.000000 0.000000
# 4 -0.005883 0.005883 0.000000 0.080482 0.000000 -0.022543
# 5 0.011272 -0.011272 0.000000 0.000000 0.080482 -0.011765
# 6 0.000000 0.000000 0.000000 -0.022543 -0.011765 0.039197
#
#
# Mechanical properties :
#
#
# Convention : Reuss Voigt Hill
#
# Bulk Modulus (GPa) = 34.74701 40.35226 37.54964
# Shear Modulus (GPa) = 18.54933 26.77999 22.66466
#
# Velocity S-wave (km/s) = 2.78209 3.34281 3.07526
# Velocity P-wave (km/s) = 4.98185 5.63355 5.31769
#
# Compressibility (1/GPa) = 0.02877945
#
# Stress axis : x y z
#
# Youngs Moduli (GPa) = 74.63410 74.63410 57.17401
#
# Poissons Ratio (x) = 0.46272 0.04443
# Poissons Ratio (y) = 0.46272 0.04443
# Poissons Ratio (z) = 0.05800 0.05800
#
# Static dielectric constant tensor:
#      x y z
#    x 1.895160 0.000000 0.000000 
#    y 0.000000 1.895160 0.000000 
#    z 0.000000 0.000000 1.915820 
# 
# From -- ./inp_files/2536.got.cif
#   From: 2010.05.17/outbox.cif.g08.bks.cpg/sg148_2_cif.got.tgz:2536.got - 2010.05.20 13:50:20.
