data_PCOD9575021
_publ_section_title
;
Structure prediction by ZEFSAII (Michael W. Deem and Ramdas Pophale) SiO2 
 PCOD9575021
Probable space group: R -3
;
_chemical_formula_sum "Si O2"
_cell_formula_units_Z 60
_cell_length_a 19.370539
_cell_length_b 19.370539
_cell_length_c 6.701184
_cell_angle_alpha 90.000000
_cell_angle_beta 90.000000
_cell_angle_gamma 120.000000
_cell_volume 2177.537212
_symmetry_space_group_name_H-M "R -3"
_symmetry_group_IT_number 148
_symmetry_cell_setting 'hexagonal'
loop_
_space_group_symop_operation_xyz
x,y,z
-y,x-y,z
-x+y,-x,z
-x,-y,-z
y,-x+y,-z
x-y,x,-z
2/3+x,1/3+y,1/3+z
2/3-y,1/3+x-y,1/3+z
2/3-x+y,1/3-x,1/3+z
2/3-x,1/3-y,1/3-z
2/3+y,1/3-x+y,1/3-z
2/3+x-y,1/3+x,1/3-z
1/3+x,2/3+y,2/3+z
1/3-y,2/3+x-y,2/3+z
1/3-x+y,2/3-x,2/3+z
1/3-x,2/3-y,2/3-z
1/3+y,2/3-x+y,2/3-z
1/3+x-y,2/3+x,2/3-z
loop_
_atom_site_type_symbol
_atom_site_label
_atom_site_fract_x
_atom_site_fract_y
_atom_site_fract_z
Si Si1 0.666668 0.333334 0.096599
Si Si2 0.530657 0.374115 0.026644
Si Si3 0.080524 0.769927 0.752933
Si Si4 0.692611 0.116403 0.668283
O O1 0.666668 0.333335 0.333334
O O2 0.591528 0.341315 0.032512
O O3 0.449055 0.314353 0.137715
O O4 0.499870 0.370666 0.799448
O O5 0.580035 0.465473 0.094283
O O6 0.166667 0.833334 0.833334
O O7 0.074178 0.768023 0.510636
O O8 0.064658 0.687424 0.852645
#
# Coordination Sequence:
#
# PCOD9575021 Si02
#       4
#     6  18  18  18
#     4  12  24  40  68 121 183 210 276 398 458 559
#     4  10  21  36  68 114 170 229 294 365 473 535
#     4  10  18  35  64 115 176 230 299 381 457 546
#     4  10  19  37  68 117 174 228 301 379 443 546
#
# _framework density 27.554064
#
# number of rings (size 3 to 8) (size 9 to 14) (size 15 to 20)
#    1.800    0.000    3.000    3.600    0.000    1.200 
#    0.000    1.500    0.000    1.800    0.000   25.200 
#   72.000    0.300    0.000    3.300    0.000    0.000 
#
# Total GULP energy -112168.879891 kJ/mol
# GULP energy per Si atom -5608.443995 kJ/mol
# Density = 2.749135 g / cm^3
# Si number density = 27.554064 Si / 1000 Ang^3
#
#
#
# Elastic Constant Matrix: (Units=GPa)
#
#
# Indices 1 2 3 4 5 6 
#
# 1 250.2542 122.3105 65.1382 -4.3467 -3.8783 0.0058
# 2 122.3105 250.2263 65.0653 4.3384 3.8733 -0.0030
# 3 65.1382 65.0653 141.5211 -0.0107 0.0082 -0.0059
# 4 -4.3467 4.3384 -0.0107 56.0771 -0.0092 3.8960
# 5 -3.8783 3.8733 0.0082 -0.0092 56.0823 -4.3379
# 6 0.0058 -0.0030 -0.0059 3.8960 -4.3379 63.9431
#
#
#
# Elastic Compliance Matrix: (Units=1/GPa)
#
#
# Indices 1 2 3 4 5 6 
#
# 1 0.005545 -0.002346 -0.001474 0.000611 0.000546 -0.000001
# 2 -0.002346 0.005544 -0.001469 -0.000611 -0.000545 0.000001
# 3 -0.001474 -0.001469 0.008420 0.000001 -0.000002 0.000001
# 4 0.000611 -0.000611 0.000001 0.018003 0.000003 -0.001097
# 5 0.000546 -0.000545 -0.000002 0.000003 0.018001 0.001221
# 6 -0.000001 0.000001 0.000001 -0.001097 0.001221 0.015789
#
#
# Mechanical properties :
#
#
# Convention : Reuss Voigt Hill
#
# Bulk Modulus (GPa) = 111.96580 127.44772 119.70676
# Shear Modulus (GPa) = 58.92226 61.18633 60.05429
#
# Velocity S-wave (km/s) = 4.62933 4.71743 4.67358
# Velocity P-wave (km/s) = 8.32450 8.71930 8.52419
#
# Compressibility (1/GPa) = 0.00893130
#
# Stress axis : x y z
#
# Youngs Moduli (GPa) = 180.33006 180.36355 118.76856
#
# Poissons Ratio (x) = 0.42322 0.17501
# Poissons Ratio (y) = 0.42314 0.17448
# Poissons Ratio (z) = 0.26573 0.26496
#
# Static dielectric constant tensor:
#      x y z
#    x 2.133670 -0.000010 -0.000010 
#    y -0.000010 2.133670 -0.000010 
#    z -0.000010 -0.000010 2.239820 
# 
# From -- ./inp_files/750.got.cif
#   From: 2010.05.17/outbox.cif.g08.bks.cpg/sg148_1_cif.got.tgz:750.got - 2010.05.20 13:50:20.
