data_PCOD9575361
_publ_section_title
;
Structure prediction by ZEFSAII (Michael W. Deem and Ramdas Pophale) SiO2 
 PCOD9575361
Probable space group: P 3 1 2
;
_chemical_formula_sum "Si O2"
_cell_formula_units_Z 36
_cell_length_a 12.726802
_cell_length_b 12.726802
_cell_length_c 16.101635
_cell_angle_alpha 90.000000
_cell_angle_beta 90.000000
_cell_angle_gamma 120.000000
_cell_volume 2258.599275
_symmetry_space_group_name_H-M "P 3 1 2"
_symmetry_group_IT_number 149
_symmetry_cell_setting 'hexagonal'
loop_
_space_group_symop_operation_xyz
x,y,z
-y,x-y,z
-x+y,-x,z
-y,-x,-z
-x+y,y,-z
x,x-y,-z
loop_
_atom_site_type_symbol
_atom_site_label
_atom_site_fract_x
_atom_site_fract_y
_atom_site_fract_z
Si Si1 0.667054 0.582920 0.500000
Si Si2 0.000180 0.249892 0.659909
Si Si3 0.918910 0.584916 0.817731
Si Si4 0.666164 0.582828 1.000000
Si Si5 0.000180 0.750288 0.659909
Si Si6 0.666006 0.081090 0.182269
O O1 0.538849 0.461152 0.500000
O O2 0.776261 0.552522 0.500000
O O3 0.685946 0.663274 0.581511
O O4 0.685946 0.663274 0.418488
O O5 0.126644 0.253287 0.653550
O O6 0.989454 0.311739 0.744214
O O7 0.888571 0.111429 0.660262
O O8 0.915160 0.457580 0.805415
O O9 0.781680 0.563359 0.816163
O O10 0.989454 0.677715 0.744214
O O11 0.973363 0.634523 0.909865
O O12 0.661161 0.634524 0.909865
O O13 0.553943 0.446058 0.000000
O O14 0.790321 0.580642 0.000000
#
# Coordination Sequence:
#
# PCOD9575361 Si02
#       6
#     6   6   6   6   6   6
#     4  10  20  34  54  78 100 118 140 180 234 286
#     4  10  20  33  49  68  93 126 161 193 222 261
#     4   9  16  27  46  71  97 122 150 190 239 287
#     4   8  13  22  39  66  96 122 148 182 232 288
#     4  10  20  33  49  68  93 126 161 193 222 261
#     4   9  16  27  46  71  97 122 150 190 239 287
#
# _framework density 15.939081
#
# number of rings (size 3 to 8) (size 9 to 14) (size 15 to 20)
#    0.000    2.667    0.000    2.500    0.000    2.667 
#    0.000    5.833    0.000    9.333    0.000    2.333 
#    0.000    0.000    0.000    0.000    0.000    0.000 
#
# Total GULP energy -200483.705789 kJ/mol
# GULP energy per Si atom -5568.991827 kJ/mol
# Density = 1.590280 g / cm^3
# Si number density = 15.939081 Si / 1000 Ang^3
#
#
#
# Elastic Constant Matrix: (Units=GPa)
#
#
# Indices 1 2 3 4 5 6 
#
# 1 84.6498 57.5767 74.2889 0.0000 0.0001 0.0000
# 2 57.5767 84.6498 74.2889 0.0000 -0.0001 0.0000
# 3 74.2889 74.2889 173.5784 0.0000 0.0000 0.0000
# 4 0.0000 0.0000 0.0000 8.6155 0.0000 -0.0001
# 5 0.0001 -0.0001 0.0000 0.0000 8.6155 0.0000
# 6 0.0000 0.0000 0.0000 -0.0001 0.0000 13.5366
#
#
#
# Elastic Compliance Matrix: (Units=1/GPa)
#
#
# Indices 1 2 3 4 5 6 
#
# 1 0.024827 -0.012110 -0.005442 0.000000 0.000000 0.000000
# 2 -0.012110 0.024827 -0.005442 0.000000 0.000000 0.000000
# 3 -0.005442 -0.005442 0.010420 0.000000 0.000000 0.000000
# 4 0.000000 0.000000 0.000000 0.116070 0.000000 0.000001
# 5 0.000000 0.000000 0.000000 0.000000 0.116070 0.000000
# 6 0.000000 0.000000 0.000000 0.000001 0.000000 0.073874
#
#
# Mechanical properties :
#
#
# Convention : Reuss Voigt Hill
#
# Bulk Modulus (GPa) = 71.00833 83.90966 77.45899
# Shear Modulus (GPa) = 11.99694 15.26840 13.63267
#
# Velocity S-wave (km/s) = 2.74647 3.09839 2.92772
# Velocity P-wave (km/s) = 7.39621 8.09681 7.75443
#
# Compressibility (1/GPa) = 0.01408285
#
# Stress axis : x y z
#
# Youngs Moduli (GPa) = 40.27906 40.27906 95.97211
#
# Poissons Ratio (x) = 0.48779 0.52233
# Poissons Ratio (y) = 0.48779 0.52233
# Poissons Ratio (z) = 0.21922 0.21922
#
# Static dielectric constant tensor:
#      x y z
#    x 1.492580 0.000000 0.000000 
#    y 0.000000 1.492580 0.000000 
#    z 0.000000 0.000000 1.582080 
# 
# From -- ./inp_files/1009.got.cif
#   From: 2010.05.17/outbox.cif.g08.bks.cpg/sg149_cif.got.tgz:1009.got - 2010.05.20 13:52:34.
