data_PCOD9575597
_publ_section_title
;
Structure prediction by ZEFSAII (Michael W. Deem and Ramdas Pophale) SiO2 
 PCOD9575597
Probable space group: P 31 1 2
;
_chemical_formula_sum "Si O2"
_cell_formula_units_Z 24
_cell_length_a 7.879033
_cell_length_b 7.879033
_cell_length_c 18.961393
_cell_angle_alpha 90.000000
_cell_angle_beta 90.000000
_cell_angle_gamma 120.000000
_cell_volume 1019.404885
_symmetry_space_group_name_H-M "P 31 1 2"
_symmetry_group_IT_number 151
_symmetry_cell_setting 'hexagonal'
loop_
_space_group_symop_operation_xyz
x,y,z
-y,x-y,1/3+z
-x+y,-x,2/3+z
-y,-x,2/3-z
-x+y,y,1/3-z
x,x-y,-z
loop_
_atom_site_type_symbol
_atom_site_label
_atom_site_fract_x
_atom_site_fract_y
_atom_site_fract_z
Si Si1 0.211864 0.005103 0.562591
Si Si2 0.439234 0.878468 0.666667
Si Si3 0.798159 0.899080 0.000000
Si Si4 0.033493 0.556137 0.705787
Si Si5 0.404374 0.118548 0.114205
O O1 0.361355 0.993297 0.618147
O O2 0.067884 0.796727 0.526297
O O3 0.315175 0.157588 0.500000
O O4 0.056654 0.049643 0.603219
O O5 0.255994 0.730144 0.714825
O O6 0.647450 0.971498 0.976208
O O7 0.903916 0.574853 0.766716
O O8 0.956372 0.584967 0.630591
O O9 0.571558 0.143116 0.166667
#
# Coordination Sequence:
#
# PCOD9575597 Si02
#       5
#     6   3   3   6   6
#     4  11  23  41  69 103 139 187 237 294 362 424
#     4   9  20  42  68  95 136 184 238 295 352 425
#     4  11  22  40  64  97 140 180 228 283 336 421
#     4   9  20  39  64  94 135 179 219 283 355 408
#     4  10  20  40  68 100 133 173 228 287 348 421
#
# _framework density 23.543146
#
# number of rings (size 3 to 8) (size 9 to 14) (size 15 to 20)
#    0.000    2.000    0.000    4.500    0.000    3.000 
#    0.000    7.500    0.000    6.000    0.000    0.000 
#    0.000    2.000    0.000    0.000    0.000    0.000 
#
# Total GULP energy -133762.603424 kJ/mol
# GULP energy per Si atom -5573.441809 kJ/mol
# Density = 2.348956 g / cm^3
# Si number density = 23.543146 Si / 1000 Ang^3
#
#
#
# Elastic Constant Matrix: (Units=GPa)
#
#
# Indices 1 2 3 4 5 6 
#
# 1 113.7935 54.8350 41.2764 -0.0003 -18.6353 0.0000
# 2 54.8350 113.7935 41.2764 0.0003 18.6353 0.0000
# 3 41.2764 41.2764 82.9868 0.0000 0.0000 0.0000
# 4 -0.0003 0.0003 0.0000 23.0655 0.0000 18.6353
# 5 -18.6353 18.6353 0.0000 0.0000 23.0655 -0.0003
# 6 0.0000 0.0000 0.0000 18.6353 -0.0003 29.4792
#
#
#
# Elastic Compliance Matrix: (Units=1/GPa)
#
#
# Indices 1 2 3 4 5 6 
#
# 1 0.021253 -0.013414 -0.003899 0.000000 0.028008 0.000000
# 2 -0.013414 0.021253 -0.003899 0.000000 -0.028008 0.000000
# 3 -0.003899 -0.003899 0.015929 0.000000 0.000000 0.000000
# 4 0.000000 0.000000 0.000000 0.088612 0.000000 -0.056016
# 5 0.028008 -0.028008 0.000000 0.000000 0.088612 0.000001
# 6 0.000000 0.000000 0.000000 -0.056016 0.000001 0.069333
#
#
# Mechanical properties :
#
#
# Convention : Reuss Voigt Hill
#
# Bulk Modulus (GPa) = 62.45826 65.03881 63.74854
# Shear Modulus (GPa) = 14.17425 26.66776 20.42101
#
# Velocity S-wave (km/s) = 2.45634 3.36924 2.94834
# Velocity P-wave (km/s) = 5.88487 6.54378 6.22305
#
# Compressibility (1/GPa) = 0.01601069
#
# Stress axis : x y z
#
# Youngs Moduli (GPa) = 47.05277 47.05277 62.77984
#
# Poissons Ratio (x) = 0.63116 0.24478
# Poissons Ratio (y) = 0.63116 0.24478
# Poissons Ratio (z) = 0.18346 0.18346
#
# Static dielectric constant tensor:
#      x y z
#    x 1.999100 0.000000 0.000000 
#    y 0.000000 1.999100 0.000000 
#    z 0.000000 0.000000 1.888690 
# 
# From -- ./inp_files/3788.got.cif
#   From: 2010.05.17/outbox.cif.g08.bks.cpg/sg151_2_cif.got.tgz:3788.got - 2010.05.20 10:33:20.
