data_PCOD9575321
_publ_section_title
;
Structure prediction by ZEFSAII (Michael W. Deem and Ramdas Pophale) SiO2 
 PCOD9575321
Probable space group: R -3
;
_chemical_formula_sum "Si O2"
_cell_formula_units_Z 72
_cell_length_a 22.458869
_cell_length_b 22.458869
_cell_length_c 7.306133
_cell_angle_alpha 90.000000
_cell_angle_beta 90.000000
_cell_angle_gamma 120.000000
_cell_volume 3191.493538
_symmetry_space_group_name_H-M "R -3"
_symmetry_group_IT_number 148
_symmetry_cell_setting 'hexagonal'
loop_
_space_group_symop_operation_xyz
x,y,z
-y,x-y,z
-x+y,-x,z
-x,-y,-z
y,-x+y,-z
x-y,x,-z
2/3+x,1/3+y,1/3+z
2/3-y,1/3+x-y,1/3+z
2/3-x+y,1/3-x,1/3+z
2/3-x,1/3-y,1/3-z
2/3+y,1/3-x+y,1/3-z
2/3+x-y,1/3+x,1/3-z
1/3+x,2/3+y,2/3+z
1/3-y,2/3+x-y,2/3+z
1/3-x+y,2/3-x,2/3+z
1/3-x,2/3-y,2/3-z
1/3+y,2/3-x+y,2/3-z
1/3+x-y,2/3+x,2/3-z
loop_
_atom_site_type_symbol
_atom_site_label
_atom_site_fract_x
_atom_site_fract_y
_atom_site_fract_z
Si Si1 0.559278 0.384682 0.797567
Si Si2 0.081215 0.553693 0.540462
Si Si3 0.289794 0.295343 0.951877
Si Si4 0.430134 0.941699 0.914609
O O1 0.637792 0.432438 0.873122
O O2 0.554904 0.421005 0.609233
O O3 0.504622 0.390289 0.930282
O O4 0.079809 0.623654 0.564473
O O5 0.096016 0.535942 0.741018
O O6 0.000000 0.500000 0.500000
O O7 0.326196 0.365334 0.833711
O O8 0.318133 0.252952 0.843709
O O9 0.500000 0.000000 0.000000
#
# Coordination Sequence:
#
# PCOD9575321 Si02
#       4
#    18  18  18  18
#     4  12  28  49  75 104 145 197 251 304 360 429
#     4  12  25  45  69 106 145 185 237 293 366 432
#     4  12  25  41  68 104 139 185 229 288 365 439
#     4  12  25  44  70 105 146 185 235 300 364 437
#
# _framework density 22.559971000000001
#
# number of rings (size 3 to 8) (size 9 to 14) (size 15 to 20)
#    0.000    0.000    7.500    1.750    3.500    0.000 
#    0.000    0.000    0.000    3.000    0.000    0.000 
#    0.000    0.000    0.000    0.000    0.000    0.000 
#
# Total GULP energy -133998.582932 kJ/mol
# GULP energy per Si atom -5583.274289 kJ/mol
# Density = 2.250862 g / cm^3
# Si number density = 22.559971 Si / 1000 Ang^3
#
#
#
# Elastic Constant Matrix: (Units=GPa)
#
#
# Indices 1 2 3 4 5 6 
#
# 1 65.9869 1.4141 12.6613 3.3191 0.4275 -0.0118
# 2 1.4141 66.0261 12.7041 -3.3512 -0.4526 -0.0047
# 3 12.6613 12.7041 135.9918 -0.0270 -0.0667 -0.0154
# 4 3.3191 -3.3512 -0.0270 35.6043 -0.0097 -0.4543
# 5 0.4275 -0.4526 -0.0667 -0.0097 35.5832 3.3376
# 6 -0.0118 -0.0047 -0.0154 -0.4543 3.3376 32.2973
#
#
#
# Elastic Compliance Matrix: (Units=1/GPa)
#
#
# Indices 1 2 3 4 5 6 
#
# 1 0.015507 -0.000132 -0.001432 -0.001459 -0.000191 0.000004
# 2 -0.000132 0.015500 -0.001435 0.001470 0.000196 0.000002
# 3 -0.001432 -0.001435 0.007621 0.000004 0.000013 0.000002
# 4 -0.001459 0.001470 0.000004 0.028366 0.000007 0.000398
# 5 -0.000191 0.000196 0.000013 0.000007 0.028383 -0.002933
# 6 0.000004 0.000002 0.000002 0.000398 -0.002933 0.031271
#
#
# Mechanical properties :
#
#
# Convention : Reuss Voigt Hill
#
# Bulk Modulus (GPa) = 30.64691 35.72934 33.18812
# Shear Modulus (GPa) = 34.83765 36.77866 35.80816
#
# Velocity S-wave (km/s) = 3.93393 4.04203 3.98834
# Velocity P-wave (km/s) = 5.85222 6.13644 5.99601
#
# Compressibility (1/GPa) = 0.03262972
#
# Stress axis : x y z
#
# Youngs Moduli (GPa) = 64.48824 64.51405 131.22008
#
# Poissons Ratio (x) = 0.00852 0.18788
# Poissons Ratio (y) = 0.00851 0.18835
# Poissons Ratio (z) = 0.09233 0.09260
#
# Static dielectric constant tensor:
#      x y z
#    x 2.087240 0.000000 0.000060 
#    y 0.000000 2.087420 -0.000230 
#    z 0.000060 -0.000230 1.762330 
# 
# From -- ./inp_files/808.got.cif
#   From: 2010.05.17/outbox.cif.g08.bks.cpg/sg148_1_cif.got.tgz:808.got - 2010.05.20 13:50:20.
