data_PCOD9575467
_publ_section_title
;
Structure prediction by ZEFSAII (Michael W. Deem and Ramdas Pophale) SiO2 
 PCOD9575467
Probable space group: P 3 2 1
;
_chemical_formula_sum "Si O2"
_cell_formula_units_Z 48
_cell_length_a 14.829223
_cell_length_b 14.829223
_cell_length_c 12.457865
_cell_angle_alpha 90.000000
_cell_angle_beta 90.000000
_cell_angle_gamma 120.000000
_cell_volume 2372.526348
_symmetry_space_group_name_H-M "P 3 2 1"
_symmetry_group_IT_number 150
_symmetry_cell_setting 'hexagonal'
loop_
_space_group_symop_operation_xyz
x,y,z
-y,x-y,z
-x+y,-x,z
x-y,-y,-z
-x,-x+y,-z
y,x,-z
loop_
_atom_site_type_symbol
_atom_site_label
_atom_site_fract_x
_atom_site_fract_y
_atom_site_fract_z
Si Si1 0.080495 0.558342 0.902501
Si Si2 0.233977 0.146116 0.785194
Si Si3 0.645623 0.047636 0.735061
Si Si4 0.746288 0.162497 0.376095
Si Si5 0.800114 0.232670 0.135005
Si Si6 0.339106 0.553963 0.433572
Si Si7 0.191379 0.062436 0.106674
Si Si8 0.237967 0.118786 0.532872
O O1 0.139482 0.492826 0.895852
O O2 0.167572 0.680896 0.905232
O O3 0.008849 0.546807 0.799644
O O4 0.000000 0.520392 0.000000
O O5 0.337764 0.254887 0.813659
O O6 0.133176 0.153770 0.827859
O O7 0.247731 0.135725 0.659319
O O8 0.213822 0.036275 0.827569
O O9 0.656362 0.135938 0.655067
O O10 0.642815 0.956292 0.663102
O O11 0.792778 0.224872 0.266024
O O12 0.665980 0.182720 0.444042
O O13 0.828244 0.172552 0.465476
O O14 0.860565 0.174842 0.090513
O O15 0.433276 0.671157 0.419108
O O16 0.127224 0.000000 0.000000
O O17 0.170785 0.170785 0.500000
O O18 0.176779 0.000000 0.500000
#
# Coordination Sequence:
#
# PCOD9575467 Si02
#       8
#     6   6   6   6   6   6   6   6
#     4  11  26  48  77 105 142 192 249 315 373 421
#     4  12  23  42  65 101 137 183 229 292 359 439
#     4  11  23  45  72  94 144 181 236 296 369 439
#     4  11  21  44  67  96 137 190 229 296 358 429
#     4  11  25  47  71 109 137 187 255 302 367 443
#     4  10  24  41  65 103 140 182 237 286 365 434
#     4  12  26  43  68  97 140 180 237 296 361 435
#     4  12  21  36  60  92 135 177 223 274 344 427
#
# _framework density 20.231597000000001
#
# number of rings (size 3 to 8) (size 9 to 14) (size 15 to 20)
#    0.250    0.500    5.000    3.250    5.250    1.000 
#    4.500    0.000    0.000    0.000    0.000    0.000 
#    0.000    0.000    0.000    0.000    0.000    0.000 
#
# Total GULP energy -267758.548301 kJ/mol
# GULP energy per Si atom -5578.303090 kJ/mol
# Density = 2.018555 g / cm^3
# Si number density = 20.231597 Si / 1000 Ang^3
#
#
#
# Elastic Constant Matrix: (Units=GPa)
#
#
# Indices 1 2 3 4 5 6 
#
# 1 -11.6108 126.6269 33.3466 -14.8018 0.0000 0.0000
# 2 126.6269 -11.6108 33.3466 14.8018 0.0000 0.0000
# 3 33.3466 33.3466 104.0031 0.0000 0.0000 0.0000
# 4 -14.8018 14.8018 0.0000 22.1292 0.0000 0.0000
# 5 0.0000 0.0000 0.0000 0.0000 22.1292 -14.8018
# 6 0.0000 0.0000 0.0000 0.0000 -14.8018 -69.1189
#
#
#
# Elastic Compliance Matrix: (Units=1/GPa)
#
#
# Indices 1 2 3 4 5 6 
#
# 1 0.002176 0.008504 -0.003424 -0.004232 0.000000 0.000000
# 2 0.008504 0.002176 -0.003424 0.004232 0.000000 0.000000
# 3 -0.003424 -0.003424 0.011811 0.000000 0.000000 0.000000
# 4 -0.004232 0.004232 0.000000 0.039527 0.000000 0.000000
# 5 0.000000 0.000000 0.000000 0.000000 0.039527 -0.008465
# 6 0.000000 0.000000 0.000000 0.000000 -0.008465 -0.012655
#
#
# Mechanical properties :
#
#
# Convention : Reuss Voigt Hill
#
# Bulk Modulus (GPa) = 51.35127 51.93576 51.64352
# Shear Modulus (GPa) = 58.31304 -12.47468 22.91918
#
# Velocity S-wave (km/s) = 5.37451 -2.48582 3.36942
# Velocity P-wave (km/s) = 7.99691 4.18178 6.38114
#
# Compressibility (1/GPa) = 0.01947372
#
# Stress axis : x y z
#
# Youngs Moduli (GPa) = 459.50326 459.50326 84.66677
#
# Poissons Ratio (x) = -3.90753 0.28993
# Poissons Ratio (y) = -3.90753 0.28993
# Poissons Ratio (z) = 1.57351 1.57351
#
# Static dielectric constant tensor:
#      x y z
#    x 1.733330 0.000000 0.000000 
#    y 0.000000 1.733330 0.000000 
#    z 0.000000 0.000000 1.824260 
# 
# From -- ./inp_files/974.got.cif
#   From: 2010.05.17/outbox.cif.g08.bks.cpg/sg150_cif.got.tgz:974.got - 2010.05.20 13:53:18.
