data_PCOD9575961
_publ_section_title
;
Structure prediction by ZEFSAII (Michael W. Deem and Ramdas Pophale) SiO2 
 PCOD9575961
Probable space group: P 31 2 1
;
_chemical_formula_sum "Si O2"
_cell_formula_units_Z 30
_cell_length_a 8.123296
_cell_length_b 8.123296
_cell_length_c 23.727732
_cell_angle_alpha 90.000000
_cell_angle_beta 90.000000
_cell_angle_gamma 120.000000
_cell_volume 1355.974171
_symmetry_space_group_name_H-M "P 31 2 1"
_symmetry_group_IT_number 152
_symmetry_cell_setting 'hexagonal'
loop_
_space_group_symop_operation_xyz
x,y,z
-y,x-y,1/3+z
-x+y,-x,2/3+z
x-y,-y,2/3-z
-x,-x+y,1/3-z
y,x,-z
loop_
_atom_site_type_symbol
_atom_site_label
_atom_site_fract_x
_atom_site_fract_y
_atom_site_fract_z
Si Si1 0.539799 0.884105 0.774835
Si Si2 0.462792 0.481976 0.235653
Si Si3 0.217617 0.217412 0.332970
Si Si4 0.326326 0.188539 0.867467
Si Si5 0.181477 0.338254 0.962579
O O1 0.520724 0.675751 0.774585
O O2 0.668652 0.998004 0.721794
O O3 0.328278 0.850521 0.767254
O O4 0.620911 0.000000 0.833334
O O5 0.334783 0.307818 0.276556
O O6 0.356973 0.446425 0.176611
O O7 0.481207 0.658870 0.272128
O O8 0.015637 0.215686 0.338015
O O9 0.160009 0.000000 0.333334
O O10 0.196835 0.234426 0.906946
O O11 0.192187 0.000000 0.833334
O O12 0.353136 0.353136 0.000000
#
# Coordination Sequence:
#
# PCOD9575961 Si02
#       5
#     6   6   6   6   6
#     4  10  24  42  63  94 134 171 218 272 324 391
#     4  11  23  41  67  98 131 171 221 270 328 395
#     4  10  22  40  64  91 126 169 217 267 320 385
#     4  11  22  40  67  95 132 172 215 272 333 393
#     4  10  21  39  64  92 126 167 215 267 326 386
#
# _framework density 22.124317000000001
#
# number of rings (size 3 to 8) (size 9 to 14) (size 15 to 20)
#    0.000    1.600    0.000    4.800    0.000   12.800 
#    0.000    7.000    0.000    0.000    0.000    0.000 
#    0.000    0.000    0.000    0.000    0.000    0.000 
#
# Total GULP energy -167703.610750 kJ/mol
# GULP energy per Si atom -5590.120358 kJ/mol
# Density = 2.207396 g / cm^3
# Si number density = 22.124317 Si / 1000 Ang^3
#
#
#
# Elastic Constant Matrix: (Units=GPa)
#
#
# Indices 1 2 3 4 5 6 
#
# 1 91.0770 30.7698 39.6028 0.1521 -0.0002 0.0000
# 2 30.7698 91.0770 39.6028 -0.1521 0.0002 0.0000
# 3 39.6028 39.6028 67.8559 0.0000 0.0000 0.0000
# 4 0.1521 -0.1521 0.0000 35.0687 0.0000 0.0002
# 5 -0.0002 0.0002 0.0000 0.0000 35.0687 0.1521
# 6 0.0000 0.0000 0.0000 0.0002 0.1521 30.1536
#
#
#
# Elastic Compliance Matrix: (Units=1/GPa)
#
#
# Indices 1 2 3 4 5 6 
#
# 1 0.014903 -0.001679 -0.007718 -0.000072 0.000000 0.000000
# 2 -0.001679 0.014903 -0.007718 0.000072 0.000000 0.000000
# 3 -0.007718 -0.007718 0.023746 0.000000 0.000000 0.000000
# 4 -0.000072 0.000072 0.000000 0.028516 0.000000 0.000000
# 5 0.000000 0.000000 0.000000 0.000000 0.028516 -0.000144
# 6 0.000000 0.000000 0.000000 0.000000 -0.000144 0.033164
#
#
# Mechanical properties :
#
#
# Convention : Reuss Voigt Hill
#
# Bulk Modulus (GPa) = 51.75384 52.21784 51.98584
# Shear Modulus (GPa) = 27.11214 29.39382 28.25298
#
# Velocity S-wave (km/s) = 3.50443 3.64892 3.57740
# Velocity P-wave (km/s) = 6.31014 6.43475 6.37275
#
# Compressibility (1/GPa) = 0.01932224
#
# Stress axis : x y z
#
# Youngs Moduli (GPa) = 67.10021 67.10021 42.11241
#
# Poissons Ratio (x) = 0.11267 0.32502
# Poissons Ratio (y) = 0.11267 0.32502
# Poissons Ratio (z) = 0.51788 0.51788
#
# Static dielectric constant tensor:
#      x y z
#    x 1.818050 0.000000 0.000000 
#    y 0.000000 1.818050 0.000000 
#    z 0.000000 0.000000 1.835360 
# 
# From -- ./inp_files/3008.got.cif
#   From: 2010.05.17/outbox.cif.g08.bks.cpg/sg152_2_cif.got.tgz:3008.got - 2010.05.20 10:36:06.
