data_PCOD9575254
_publ_section_title
;
Structure prediction by ZEFSAII (Michael W. Deem and Ramdas Pophale) SiO2 
 PCOD9575254
Probable space group: R -3
;
_chemical_formula_sum "Si O2"
_cell_formula_units_Z 126
_cell_length_a 19.692326
_cell_length_b 19.692326
_cell_length_c 18.146038
_cell_angle_alpha 90.000000
_cell_angle_beta 90.000000
_cell_angle_gamma 120.000000
_cell_volume 6094.056568
_symmetry_space_group_name_H-M "R -3"
_symmetry_group_IT_number 148
_symmetry_cell_setting 'hexagonal'
loop_
_space_group_symop_operation_xyz
x,y,z
-y,x-y,z
-x+y,-x,z
-x,-y,-z
y,-x+y,-z
x-y,x,-z
2/3+x,1/3+y,1/3+z
2/3-y,1/3+x-y,1/3+z
2/3-x+y,1/3-x,1/3+z
2/3-x,1/3-y,1/3-z
2/3+y,1/3-x+y,1/3-z
2/3+x-y,1/3+x,1/3-z
1/3+x,2/3+y,2/3+z
1/3-y,2/3+x-y,2/3+z
1/3-x+y,2/3-x,2/3+z
1/3-x,2/3-y,2/3-z
1/3+y,2/3-x+y,2/3-z
1/3+x-y,2/3+x,2/3-z
loop_
_atom_site_type_symbol
_atom_site_label
_atom_site_fract_x
_atom_site_fract_y
_atom_site_fract_z
Si Si1 0.891417 0.060161 0.826329
Si Si2 0.445544 0.401905 0.432453
Si Si3 0.794162 0.625765 0.004425
Si Si4 0.776654 0.267050 0.115797
Si Si5 0.827758 0.180529 0.828647
Si Si6 0.443700 0.106221 0.378765
Si Si7 0.953241 0.627366 0.853677
O O1 0.863564 0.123749 0.813244
O O2 0.984511 0.109008 0.816103
O O3 0.857318 0.982528 0.776627
O O4 0.848438 0.020586 0.904071
O O5 0.434196 0.464231 0.384433
O O6 0.511830 0.428695 0.494730
O O7 0.467258 0.358981 0.369666
O O8 0.363296 0.341379 0.469543
O O9 0.724872 0.545834 0.038413
O O10 0.796223 0.703855 0.034195
O O11 0.798891 0.631212 0.916608
O O12 0.735658 0.126610 0.812742
O O13 0.881917 0.263161 0.789059
O O14 0.357653 0.058950 0.417256
#
# Coordination Sequence:
#
# PCOD9575254 Si02
#       7
#    18  18  18  18  18  18  18
#     4  11  22  40  54  91 126 165 199 247 301 358
#     4  12  21  36  62  91 118 163 207 240 299 371
#     4  12  20  38  62  88 114 166 207 241 302 371
#     4  12  24  36  63  86 127 167 200 245 300 365
#     4  11  23  41  65  86 125 156 209 262 314 360
#     4  11  21  36  62  89 124 161 202 249 298 359
#     4  11  22  40  61  90 122 157 200 263 309 358
#
# _framework density 20.675884
#
# number of rings (size 3 to 8) (size 9 to 14) (size 15 to 20)
#    0.000    0.571    8.571    2.429    0.000    0.000 
#    0.000    2.143    0.000    2.857    0.000    0.000 
#    0.000    0.000    0.000    0.000    0.000    0.000 
#
# Total GULP energy -234023.256909 kJ/mol
# GULP energy per Si atom -5571.982307 kJ/mol
# Density = 2.062882 g / cm^3
# Si number density = 20.675884 Si / 1000 Ang^3
#
#
#
# Elastic Constant Matrix: (Units=GPa)
#
#
# Indices 1 2 3 4 5 6 
#
# 1 81.2493 19.2280 15.3918 1.8928 2.1238 0.0000
# 2 19.2280 81.2493 15.3918 -1.8928 -2.1238 0.0000
# 3 15.3918 15.3918 35.8668 0.0000 0.0000 0.0000
# 4 1.8928 -1.8928 0.0000 16.3534 0.0000 -2.1238
# 5 2.1238 -2.1238 0.0000 0.0000 16.3534 1.8928
# 6 0.0000 0.0000 0.0000 -2.1238 1.8928 31.0107
#
#
#
# Elastic Compliance Matrix: (Units=1/GPa)
#
#
# Indices 1 2 3 4 5 6 
#
# 1 0.013922 -0.002463 -0.004918 -0.001896 -0.002128 0.000000
# 2 -0.002463 0.013922 -0.004918 0.001896 0.002128 0.000000
# 3 -0.004918 -0.004918 0.032102 0.000000 0.000000 0.000000
# 4 -0.001896 0.001896 0.000000 0.062141 0.000000 0.004256
# 5 -0.002128 0.002128 0.000000 0.000000 0.062141 -0.003793
# 6 0.000000 0.000000 0.000000 0.004256 -0.003793 0.032770
#
#
# Mechanical properties :
#
#
# Convention : Reuss Voigt Hill
#
# Bulk Modulus (GPa) = 28.28890 33.15431 30.72160
# Shear Modulus (GPa) = 19.73346 22.63377 21.18361
#
# Velocity S-wave (km/s) = 3.09272 3.31221 3.20434
# Velocity P-wave (km/s) = 5.14441 5.54055 5.34615
#
# Compressibility (1/GPa) = 0.03534956
#
# Stress axis : x y z
#
# Youngs Moduli (GPa) = 71.82857 71.82857 31.15118
#
# Poissons Ratio (x) = 0.17691 0.15319
# Poissons Ratio (y) = 0.17691 0.15319
# Poissons Ratio (z) = 0.35322 0.35322
#
# Static dielectric constant tensor:
#      x y z
#    x 1.836120 0.000000 0.000000 
#    y 0.000000 1.836120 0.000000 
#    z 0.000000 0.000000 1.772890 
# 
# From -- ./inp_files/2734.got.cif
#   From: 2010.05.17/outbox.cif.g08.bks.cpg/sg148_2_cif.got.tgz:2734.got - 2010.05.20 13:50:20.
