data_PCOD9575066
_publ_section_title
;
Structure prediction by ZEFSAII (Michael W. Deem and Ramdas Pophale) SiO2 
 PCOD9575066
Probable space group: R -3
;
_chemical_formula_sum "Si O2"
_cell_formula_units_Z 144
_cell_length_a 20.997714
_cell_length_b 20.997714
_cell_length_c 20.134714
_cell_angle_alpha 90.000000
_cell_angle_beta 90.000000
_cell_angle_gamma 120.000000
_cell_volume 7688.119569
_symmetry_space_group_name_H-M "R -3"
_symmetry_group_IT_number 148
_symmetry_cell_setting 'hexagonal'
loop_
_space_group_symop_operation_xyz
x,y,z
-y,x-y,z
-x+y,-x,z
-x,-y,-z
y,-x+y,-z
x-y,x,-z
2/3+x,1/3+y,1/3+z
2/3-y,1/3+x-y,1/3+z
2/3-x+y,1/3-x,1/3+z
2/3-x,1/3-y,1/3-z
2/3+y,1/3-x+y,1/3-z
2/3+x-y,1/3+x,1/3-z
1/3+x,2/3+y,2/3+z
1/3-y,2/3+x-y,2/3+z
1/3-x+y,2/3-x,2/3+z
1/3-x,2/3-y,2/3-z
1/3+y,2/3-x+y,2/3-z
1/3+x-y,2/3+x,2/3-z
loop_
_atom_site_type_symbol
_atom_site_label
_atom_site_fract_x
_atom_site_fract_y
_atom_site_fract_z
Si Si1 0.321146 0.531214 0.696532
Si Si2 0.647109 0.886926 0.029047
Si Si3 0.433067 0.191489 0.608648
Si Si4 0.484531 0.098864 0.680609
Si Si5 0.063804 0.423528 0.707411
Si Si6 0.221604 0.785142 0.541255
Si Si7 0.287421 0.783683 0.152794
Si Si8 0.526687 0.929466 0.062076
O O1 0.251280 0.542529 0.695430
O O2 0.291606 0.445881 0.679550
O O3 0.377607 0.552249 0.757443
O O4 0.597978 0.804852 0.002020
O O5 0.700910 0.888162 0.087848
O O6 0.593887 0.914292 0.057254
O O7 0.697584 0.942089 0.971463
O O8 0.478207 0.150008 0.625288
O O9 0.443834 0.228801 0.537285
O O10 0.443297 0.246784 0.668252
O O11 0.348420 0.126858 0.610414
O O12 0.511136 0.145345 0.748478
O O13 0.407950 0.023067 0.694226
O O14 0.087457 0.472781 0.773651
O O15 0.363891 0.799131 0.184373
O O16 0.253300 0.818908 0.201865
#
# Coordination Sequence:
#
# PCOD9575066 Si02
#       8
#    18  18  18  18  18  18  18  18
#     4   9  17  33  61  87 113 151 202 244 285 358
#     4  10  19  37  60  86 115 162 208 243 303 366
#     4  11  23  39  55  89 124 159 193 263 314 356
#     4  11  21  37  61  87 126 157 195 258 305 358
#     4   9  18  36  56  88 118 152 195 248 298 355
#     4   9  20  37  59  84 121 157 199 254 310 354
#     4  12  24  41  64  91 117 162 215 251 296 367
#     4  11  22  36  59  85 119 154 208 250 302 367
#
# _framework density 18.730198000000001
#
# number of rings (size 3 to 8) (size 9 to 14) (size 15 to 20)
#    0.000    1.750    3.750    2.500    0.000    0.000 
#    2.250    3.125    0.000    0.000    0.000    0.000 
#    0.000    0.000    0.000    0.000    0.000    0.000 
#
# Total GULP energy -267585.137547 kJ/mol
# GULP energy per Si atom -5574.690366 kJ/mol
# Density = 1.868757 g / cm^3
# Si number density = 18.730198 Si / 1000 Ang^3
#
#
#
# Elastic Constant Matrix: (Units=GPa)
#
#
# Indices 1 2 3 4 5 6 
#
# 1 68.8456 20.2555 21.7110 3.9753 -2.3397 0.0000
# 2 20.2555 68.8456 21.7110 -3.9753 2.3397 0.0000
# 3 21.7110 21.7110 50.9741 0.0000 0.0000 0.0000
# 4 3.9753 -3.9753 0.0000 21.2692 0.0000 2.3397
# 5 -2.3397 2.3397 0.0000 0.0000 21.2692 3.9753
# 6 0.0000 0.0000 0.0000 2.3397 3.9753 24.2951
#
#
#
# Elastic Compliance Matrix: (Units=1/GPa)
#
#
# Indices 1 2 3 4 5 6 
#
# 1 0.017814 -0.003651 -0.006032 -0.004012 0.002361 0.000000
# 2 -0.003651 0.017814 -0.006032 0.004012 -0.002361 0.000000
# 3 -0.006032 -0.006032 0.024756 0.000000 0.000000 0.000000
# 4 -0.004012 0.004012 0.000000 0.049035 0.000000 -0.004722
# 5 0.002361 -0.002361 0.000000 0.000000 0.049035 -0.008023
# 6 0.000000 0.000000 0.000000 -0.004722 -0.008023 0.042928
#
#
# Mechanical properties :
#
#
# Convention : Reuss Voigt Hill
#
# Bulk Modulus (GPa) = 34.53866 35.11335 34.82601
# Shear Modulus (GPa) = 20.62164 21.69923 21.16044
#
# Velocity S-wave (km/s) = 3.32171 3.40739 3.36482
# Velocity P-wave (km/s) = 5.76123 5.85389 5.80775
#
# Compressibility (1/GPa) = 0.02895306
#
# Stress axis : x y z
#
# Youngs Moduli (GPa) = 56.13714 56.13714 40.39360
#
# Poissons Ratio (x) = 0.20493 0.24367
# Poissons Ratio (y) = 0.20493 0.24367
# Poissons Ratio (z) = 0.33864 0.33864
#
# Static dielectric constant tensor:
#      x y z
#    x 1.667860 0.000000 0.000000 
#    y 0.000000 1.667860 0.000000 
#    z 0.000000 0.000000 1.633420 
# 
# From -- ./inp_files/3168.got.cif
#   From: 2010.05.17/outbox.cif.g08.bks.cpg/sg148_2_cif.got.tgz:3168.got - 2010.05.20 13:50:20.
