data_PCOD9575111
_publ_section_title
;
Structure prediction by ZEFSAII (Michael W. Deem and Ramdas Pophale) SiO2 
 PCOD9575111
Probable space group: R -3
;
_chemical_formula_sum "Si O2"
_cell_formula_units_Z 60
_cell_length_a 19.535176
_cell_length_b 19.535176
_cell_length_c 7.265420
_cell_angle_alpha 90.000000
_cell_angle_beta 90.000000
_cell_angle_gamma 120.000000
_cell_volume 2401.187166
_symmetry_space_group_name_H-M "R -3"
_symmetry_group_IT_number 148
_symmetry_cell_setting 'hexagonal'
loop_
_space_group_symop_operation_xyz
x,y,z
-y,x-y,z
-x+y,-x,z
-x,-y,-z
y,-x+y,-z
x-y,x,-z
2/3+x,1/3+y,1/3+z
2/3-y,1/3+x-y,1/3+z
2/3-x+y,1/3-x,1/3+z
2/3-x,1/3-y,1/3-z
2/3+y,1/3-x+y,1/3-z
2/3+x-y,1/3+x,1/3-z
1/3+x,2/3+y,2/3+z
1/3-y,2/3+x-y,2/3+z
1/3-x+y,2/3-x,2/3+z
1/3-x,2/3-y,2/3-z
1/3+y,2/3-x+y,2/3-z
1/3+x-y,2/3+x,2/3-z
loop_
_atom_site_type_symbol
_atom_site_label
_atom_site_fract_x
_atom_site_fract_y
_atom_site_fract_z
Si Si1 0.843463 0.854080 0.283077
Si Si2 0.276674 0.437439 0.976472
Si Si3 0.883694 0.165165 0.843067
Si Si4 0.333333 0.666666 0.887271
O O1 0.890500 0.808282 0.241197
O O2 0.804287 0.830458 0.483048
O O3 0.778774 0.849801 0.139868
O O4 0.911669 0.945400 0.288734
O O5 0.216900 0.344351 0.002870
O O6 0.357207 0.460981 0.871362
O O7 0.833334 0.166667 0.666667
O O8 0.333335 0.666668 0.666667
#
# Coordination Sequence:
#
# PCOD9575111 Si02
#       4
#    18  18  18   6
#     4  11  19  37  65  95 123 164 217 271 327 387
#     4  11  20  37  68 100 127 169 218 276 326 392
#     4  10  21  35  62 102 131 160 216 271 330 389
#     4  12  24  37  62  94 132 159 214 281 328 384
#
# _framework density 24.987638
#
# number of rings (size 3 to 8) (size 9 to 14) (size 15 to 20)
#    0.000    1.200    9.000    0.000    0.000    1.200 
#    0.000    6.000    0.000    9.000    0.000    0.000 
#    0.000    0.000    0.000    0.000    0.000    0.000 
#
# Total GULP energy -112025.071638 kJ/mol
# GULP energy per Si atom -5601.253582 kJ/mol
# Density = 2.493076 g / cm^3
# Si number density = 24.987638 Si / 1000 Ang^3
#
#
#
# Elastic Constant Matrix: (Units=GPa)
#
#
# Indices 1 2 3 4 5 6 
#
# 1 198.6360 96.6046 43.1743 2.7780 3.5601 0.0005
# 2 96.6046 198.6227 43.1499 -2.7731 -3.5412 0.0000
# 3 43.1743 43.1499 91.5347 0.0087 0.0356 0.0016
# 4 2.7780 -2.7731 0.0087 26.5324 0.0057 -3.5421
# 5 3.5601 -3.5412 0.0356 0.0057 26.5543 2.7751
# 6 0.0005 0.0000 0.0016 -3.5421 2.7751 51.0112
#
#
#
# Elastic Compliance Matrix: (Units=1/GPa)
#
#
# Indices 1 2 3 4 5 6 
#
# 1 0.006940 -0.003011 -0.001853 -0.001040 -0.001329 0.000000
# 2 -0.003011 0.006940 -0.001852 0.001041 0.001331 0.000000
# 3 -0.001853 -0.001852 0.012672 -0.000004 -0.000015 0.000000
# 4 -0.001040 0.001041 -0.000004 0.038262 -0.000008 0.002657
# 5 -0.001329 0.001331 -0.000015 -0.000008 0.038232 -0.002080
# 6 0.000000 0.000000 0.000000 0.002657 -0.002080 0.019901
#
#
# Mechanical properties :
#
#
# Convention : Reuss Voigt Hill
#
# Bulk Modulus (GPa) = 76.22390 94.96122 85.59256
# Shear Modulus (GPa) = 35.52344 41.21057 38.36701
#
# Velocity S-wave (km/s) = 3.77456 4.06549 3.92272
# Velocity P-wave (km/s) = 7.04040 7.75393 7.40576
#
# Compressibility (1/GPa) = 0.01311925
#
# Stress axis : x y z
#
# Youngs Moduli (GPa) = 144.09445 144.09864 78.91440
#
# Poissons Ratio (x) = 0.43388 0.14626
# Poissons Ratio (y) = 0.43386 0.14614
# Poissons Ratio (z) = 0.26706 0.26685
#
# Static dielectric constant tensor:
#      x y z
#    x 1.952180 0.000000 0.000000 
#    y 0.000000 1.952180 -0.000010 
#    z 0.000000 -0.000010 2.006270 
# 
# From -- ./inp_files/1358.got.cif
#   From: 2010.05.17/outbox.cif.g08.bks.cpg/sg148_1_cif.got.tgz:1358.got - 2010.05.20 13:50:20.
