data_PCOD9575940
_publ_section_title
;
Structure prediction by ZEFSAII (Michael W. Deem and Ramdas Pophale) SiO2 
 PCOD9575940
Probable space group: P 31 2 1
;
_chemical_formula_sum "Si O2"
_cell_formula_units_Z 36
_cell_length_a 8.538335
_cell_length_b 8.538335
_cell_length_c 25.131525
_cell_angle_alpha 90.000000
_cell_angle_beta 90.000000
_cell_angle_gamma 120.000000
_cell_volume 1586.703775
_symmetry_space_group_name_H-M "P 31 2 1"
_symmetry_group_IT_number 152
_symmetry_cell_setting 'hexagonal'
loop_
_space_group_symop_operation_xyz
x,y,z
-y,x-y,1/3+z
-x+y,-x,2/3+z
x-y,-y,2/3-z
-x,-x+y,1/3-z
y,x,-z
loop_
_atom_site_type_symbol
_atom_site_label
_atom_site_fract_x
_atom_site_fract_y
_atom_site_fract_z
Si Si1 0.449685 0.869256 0.381985
Si Si2 0.381337 0.419147 0.411548
Si Si3 0.230046 0.818434 0.807154
Si Si4 0.116249 0.479447 0.351514
Si Si5 0.316085 0.885930 0.204027
Si Si6 0.367610 0.861589 0.551451
O O1 0.605372 0.864205 0.417476
O O2 0.284662 0.679383 0.363336
O O3 0.538907 0.000000 0.333334
O O4 0.360944 0.949064 0.421571
O O5 0.420313 0.571107 0.456509
O O6 0.213917 0.369577 0.371927
O O7 0.563739 0.509458 0.374677
O O8 0.368508 0.249428 0.441139
O O9 0.138686 0.669406 0.852603
O O10 0.260048 0.000000 0.833334
O O11 0.940955 0.417569 0.389321
O O12 0.435626 0.784441 0.211005
O O13 0.334755 0.984879 0.148079
#
# Coordination Sequence:
#
# PCOD9575940 Si02
#       6
#     6   6   6   6   6   6
#     4  10  21  39  64  96 133 174 213 271 338 398
#     4  11  22  39  66  97 130 173 220 280 317 409
#     4  10  21  37  65  92 126 169 222 271 315 393
#     4  11  24  40  67  98 131 170 230 267 338 399
#     4  11  21  40  66  92 130 170 224 267 330 387
#     4  11  23  39  67  96 127 175 222 273 324 405
#
# _framework density 22.688548000000001
#
# number of rings (size 3 to 8) (size 9 to 14) (size 15 to 20)
#    0.000    1.333    3.333    4.000    2.333    0.000 
#    0.000    0.000   22.000    7.000    0.000    0.000 
#    0.000    0.000    0.000    0.000    0.000    0.000 
#
# Total GULP energy -200793.986553 kJ/mol
# GULP energy per Si atom -5577.610738 kJ/mol
# Density = 2.263691 g / cm^3
# Si number density = 22.688548 Si / 1000 Ang^3
#
#
#
# Elastic Constant Matrix: (Units=GPa)
#
#
# Indices 1 2 3 4 5 6 
#
# 1 64.0132 5.8869 3.2677 -3.9680 0.0000 0.0000
# 2 5.8869 64.0132 3.2677 3.9680 0.0000 0.0000
# 3 3.2677 3.2677 67.7099 0.0000 0.0000 0.0000
# 4 -3.9680 3.9680 0.0000 38.9045 0.0000 0.0000
# 5 0.0000 0.0000 0.0000 0.0000 38.9045 -3.9680
# 6 0.0000 0.0000 0.0000 0.0000 -3.9680 29.0632
#
#
#
# Elastic Compliance Matrix: (Units=1/GPa)
#
#
# Indices 1 2 3 4 5 6 
#
# 1 0.015909 -0.001538 -0.000694 0.001779 0.000000 0.000000
# 2 -0.001538 0.015909 -0.000694 -0.001779 0.000000 0.000000
# 3 -0.000694 -0.000694 0.014836 0.000000 0.000000 0.000000
# 4 0.001779 -0.001779 0.000000 0.026067 0.000000 0.000000
# 5 0.000000 0.000000 0.000000 0.000000 0.026067 0.003559
# 6 0.000000 0.000000 0.000000 0.000000 0.003559 0.034894
#
#
# Mechanical properties :
#
#
# Convention : Reuss Voigt Hill
#
# Bulk Modulus (GPa) = 24.50767 24.50901 24.50834
# Shear Modulus (GPa) = 32.65147 33.59538 33.12342
#
# Velocity S-wave (km/s) = 3.79768 3.85219 3.82503
# Velocity P-wave (km/s) = 5.48225 5.53278 5.50757
#
# Compressibility (1/GPa) = 0.04080356
#
# Stress axis : x y z
#
# Youngs Moduli (GPa) = 62.85787 62.85787 67.40440
#
# Poissons Ratio (x) = 0.09667 0.04675
# Poissons Ratio (y) = 0.09667 0.04675
# Poissons Ratio (z) = 0.04360 0.04360
#
# Static dielectric constant tensor:
#      x y z
#    x 1.900670 0.000000 0.000000 
#    y 0.000000 1.900670 0.000000 
#    z 0.000000 0.000000 1.883240 
# 
# From -- ./inp_files/3375.got.cif
#   From: 2010.05.17/outbox.cif.g08.bks.cpg/sg152_2_cif.got.tgz:3375.got - 2010.05.20 10:36:06.
