data_PCOD9575682
_publ_section_title
;
Structure prediction by ZEFSAII (Michael W. Deem and Ramdas Pophale) SiO2 
 PCOD9575682
Probable space group: P 31 1 2
;
_chemical_formula_sum "Si O2"
_cell_formula_units_Z 42
_cell_length_a 14.026217
_cell_length_b 14.026217
_cell_length_c 12.512851
_cell_angle_alpha 90.000000
_cell_angle_beta 90.000000
_cell_angle_gamma 120.000000
_cell_volume 2131.905804
_symmetry_space_group_name_H-M "P 31 1 2"
_symmetry_group_IT_number 151
_symmetry_cell_setting 'hexagonal'
loop_
_space_group_symop_operation_xyz
x,y,z
-y,x-y,1/3+z
-x+y,-x,2/3+z
-y,-x,2/3-z
-x+y,y,1/3-z
x,x-y,-z
loop_
_atom_site_type_symbol
_atom_site_label
_atom_site_fract_x
_atom_site_fract_y
_atom_site_fract_z
Si Si1 0.959586 0.681257 0.512355
Si Si2 0.289812 0.040706 0.550595
Si Si3 0.560296 0.016314 0.376936
Si Si4 0.888298 0.960996 0.241676
Si Si5 0.632659 0.220081 0.048327
Si Si6 0.710202 0.130028 0.573099
Si Si7 0.096034 0.415985 0.691459
O O1 0.011666 0.811130 0.527625
O O2 0.023592 0.666776 0.413533
O O3 0.974210 0.618944 0.615844
O O4 0.833106 0.639976 0.479368
O O5 0.313738 0.156869 0.500000
O O6 0.370052 0.067930 0.649956
O O7 0.167921 0.987328 0.601848
O O8 0.294772 0.961299 0.459712
O O9 0.532887 0.115594 0.360480
O O10 0.625800 0.046584 0.487306
O O11 0.438291 0.911155 0.375056
O O12 0.985977 0.971953 0.166667
O O13 0.951614 0.048387 0.333334
O O14 0.589357 0.178714 0.166667
O O15 0.761869 0.296065 0.063319
O O16 0.584291 0.292146 0.000000
O O17 0.216969 0.433937 0.666667
#
# Coordination Sequence:
#
# PCOD9575682 Si02
#       7
#     6   6   6   6   6   6   6
#     4  12  22  43  69  99 138 177 229 286 354 432
#     4  11  23  40  64  97 137 182 222 278 355 422
#     4  12  24  42  65  98 131 182 235 284 348 408
#     4  11  24  38  65  98 137 173 217 278 358 432
#     4  12  21  35  56  93 139 179 214 263 334 422
#     4  12  24  38  64  98 143 170 221 283 349 422
#     4  12  25  45  69  94 133 189 246 291 334 426
#
# _framework density 19.700683999999999
#
# number of rings (size 3 to 8) (size 9 to 14) (size 15 to 20)
#    0.000    0.286    7.143    2.571    4.000    0.571 
#    0.000    0.000    0.000    3.429    0.000    0.000 
#    0.000    0.000    0.000    0.000    0.000    0.000 
#
# Total GULP energy -234348.192697 kJ/mol
# GULP energy per Si atom -5579.718874 kJ/mol
# Density = 1.965584 g / cm^3
# Si number density = 19.700684 Si / 1000 Ang^3
#
#
#
# Elastic Constant Matrix: (Units=GPa)
#
#
# Indices 1 2 3 4 5 6 
#
# 1 82.0458 16.8233 31.2065 0.0006 5.7046 0.0000
# 2 16.8233 82.0458 31.2065 -0.0006 -5.7046 0.0000
# 3 31.2065 31.2065 104.6211 0.0000 0.0000 0.0000
# 4 0.0006 -0.0006 0.0000 7.8662 0.0000 -5.7046
# 5 5.7046 -5.7046 0.0000 0.0000 7.8662 0.0006
# 6 0.0000 0.0000 0.0000 -5.7046 0.0006 32.6113
#
#
#
# Elastic Compliance Matrix: (Units=1/GPa)
#
#
# Indices 1 2 3 4 5 6 
#
# 1 0.015010 -0.002550 -0.003717 -0.000001 -0.012734 0.000000
# 2 -0.002550 0.015010 -0.003717 0.000001 0.012734 0.000000
# 3 -0.003717 -0.003717 0.011776 0.000000 0.000000 0.000000
# 4 -0.000001 0.000001 0.000000 0.145596 0.000000 0.025469
# 5 -0.012734 0.012734 0.000000 0.000000 0.145596 -0.000003
# 6 0.000000 0.000000 0.000000 0.025469 -0.000003 0.035119
#
#
# Mechanical properties :
#
#
# Convention : Reuss Voigt Hill
#
# Bulk Modulus (GPa) = 45.80894 47.46505 46.63700
# Shear Modulus (GPa) = 12.64699 22.30049 17.47374
#
# Velocity S-wave (km/s) = 2.53644 3.36812 2.98142
# Velocity P-wave (km/s) = 5.64632 6.26666 5.96456
#
# Compressibility (1/GPa) = 0.02182980
#
# Stress axis : x y z
#
# Youngs Moduli (GPa) = 66.62145 66.62145 84.92137
#
# Poissons Ratio (x) = 0.16985 0.31563
# Poissons Ratio (y) = 0.16985 0.31563
# Poissons Ratio (z) = 0.24762 0.24762
#
# Static dielectric constant tensor:
#      x y z
#    x 1.867350 0.000000 0.000000 
#    y 0.000000 1.867350 0.000000 
#    z 0.000000 0.000000 1.696540 
# 
# From -- ./inp_files/2580.got.cif
#   From: 2010.05.17/outbox.cif.g08.bks.cpg/sg151_2_cif.got.tgz:2580.got - 2010.05.20 10:33:20.
