data_PCOD9575953
_publ_section_title
;
Structure prediction by ZEFSAII (Michael W. Deem and Ramdas Pophale) SiO2 
 PCOD9575953
Probable space group: P 31 2 1
;
_chemical_formula_sum "Si O2"
_cell_formula_units_Z 30
_cell_length_a 13.868632
_cell_length_b 13.868632
_cell_length_c 9.844409
_cell_angle_alpha 90.000000
_cell_angle_beta 90.000000
_cell_angle_gamma 120.000000
_cell_volume 1639.787341
_symmetry_space_group_name_H-M "P 31 2 1"
_symmetry_group_IT_number 152
_symmetry_cell_setting 'hexagonal'
loop_
_space_group_symop_operation_xyz
x,y,z
-y,x-y,1/3+z
-x+y,-x,2/3+z
x-y,-y,2/3-z
-x,-x+y,1/3-z
y,x,-z
loop_
_atom_site_type_symbol
_atom_site_label
_atom_site_fract_x
_atom_site_fract_y
_atom_site_fract_z
Si Si1 0.383920 0.030753 0.983945
Si Si2 0.527864 0.910874 0.606905
Si Si3 0.642225 0.875795 0.346338
Si Si4 0.167722 0.686225 0.396488
Si Si5 0.720417 0.520323 0.206683
O O1 0.333146 0.110331 0.956581
O O2 0.405797 0.000000 0.833334
O O3 0.503609 0.094038 0.058236
O O4 0.307456 0.920599 0.071177
O O5 0.564564 0.885906 0.461527
O O6 0.526578 0.822117 0.709782
O O7 0.615507 0.037950 0.648669
O O8 0.577952 0.840118 0.204353
O O9 0.746649 0.000000 0.333334
O O10 0.206200 0.596308 0.426045
O O11 0.244899 0.773990 0.283629
#
# Coordination Sequence:
#
# PCOD9575953 Si02
#       5
#     6   6   6   6   6
#     4  11  22  38  63  91 117 164 210 250 317 372
#     4  10  21  39  59  85 124 157 204 249 307 374
#     4  10  23  41  59  84 121 161 200 260 309 363
#     4  10  24  36  56  92 122 165 198 250 317 367
#     4  11  22  37  59  89 122 160 208 250 303 385
#
# _framework density 18.295054
#
# number of rings (size 3 to 8) (size 9 to 14) (size 15 to 20)
#    0.000    1.600    2.000    3.000    5.600    0.800 
#    0.000    0.000    0.000    2.400    0.000    0.000 
#    0.000    0.000    0.000    0.000    0.000    0.000 
#
# Total GULP energy -167463.365006 kJ/mol
# GULP energy per Si atom -5582.112167 kJ/mol
# Density = 1.825341 g / cm^3
# Si number density = 18.295054 Si / 1000 Ang^3
#
#
#
# Elastic Constant Matrix: (Units=GPa)
#
#
# Indices 1 2 3 4 5 6 
#
# 1 88.8808 47.0158 40.2071 6.7950 0.0000 0.0000
# 2 47.0158 88.8808 40.2071 -6.7950 0.0000 0.0000
# 3 40.2071 40.2071 116.1441 0.0000 0.0000 0.0000
# 4 6.7950 -6.7950 0.0000 26.5531 0.0000 0.0000
# 5 0.0000 0.0000 0.0000 0.0000 26.5531 6.7950
# 6 0.0000 0.0000 0.0000 0.0000 6.7950 20.9325
#
#
#
# Elastic Compliance Matrix: (Units=1/GPa)
#
#
# Indices 1 2 3 4 5 6 
#
# 1 0.017652 -0.008398 -0.003204 -0.006666 0.000000 0.000000
# 2 -0.008398 0.017652 -0.003204 0.006666 0.000000 0.000000
# 3 -0.003204 -0.003204 0.010828 0.000000 0.000000 0.000000
# 4 -0.006666 0.006666 0.000000 0.041072 0.000000 0.000000
# 5 0.000000 0.000000 0.000000 0.000000 0.041072 -0.013333
# 6 0.000000 0.000000 0.000000 0.000000 -0.013333 0.052101
#
#
# Mechanical properties :
#
#
# Convention : Reuss Voigt Hill
#
# Bulk Modulus (GPa) = 60.52557 60.97396 60.74976
# Shear Modulus (GPa) = 23.20232 25.90612 24.55422
#
# Velocity S-wave (km/s) = 3.56508 3.76708 3.66747
# Velocity P-wave (km/s) = 7.07823 7.23337 7.15622
#
# Compressibility (1/GPa) = 0.01652194
#
# Stress axis : x y z
#
# Youngs Moduli (GPa) = 56.64996 56.64996 92.35234
#
# Poissons Ratio (x) = 0.47575 0.29587
# Poissons Ratio (y) = 0.47575 0.29587
# Poissons Ratio (z) = 0.18149 0.18149
#
# Static dielectric constant tensor:
#      x y z
#    x 1.646180 0.000000 0.000000 
#    y 0.000000 1.646180 0.000000 
#    z 0.000000 0.000000 1.644100 
# 
# From -- ./inp_files/1052.got.cif
#   From: 2010.05.17/outbox.cif.g08.bks.cpg/sg152_1_cif.got.tgz:1052.got - 2010.05.20 10:36:06.
